drugbank_target|P52848 Bifunctional heparan sulfate N-deacetylase/N-sulfotransferase 1 (DB01812)
 OpenBabel12092120223D

  0  0  0     0  0            999 V3000
M  V30 BEGIN CTAB
M  V30 COUNTS 14193 14407 0 0 0
M  V30 BEGIN ATOM
M  V30 1 H -0.908 1.98254 -0.117106 0
M  V30 2 N 0 1.576 0 0
M  V30 3 C 0.933 2.03868 1.02534 0
M  V30 4 C 1.911 0.928543 1.3348 0
M  V30 5 O 3.095 1.19667 1.45644 0
M  V30 6 C 0.222 2.43627 2.35294 0
M  V30 7 C -0.732 3.65373 2.2001 0
M  V30 8 S 0.101 5.13292 1.52614 0
M  V30 9 C 1.257 5.56322 2.86805 0
M  V30 10 H 1.49 2.90518 0.631377 0
M  V30 11 H -0.977 1.52953 0.210867 0
M  V30 12 H 0.981 2.67203 3.11629 0
M  V30 13 H -0.358 1.57376 2.7183 0
M  V30 14 H -1.165 3.90944 3.18086 0
M  V30 15 H -1.563 3.418 1.51819 0
M  V30 16 H 0.729 5.58782 3.83104 0
M  V30 17 H 1.672 6.56266 2.65933 0
M  V30 18 H 2.08 4.83886 2.90714 0
M  V30 19 N 1.4781 -0.272755 1.55222 0
M  V30 20 C 2.8891 -0.84378 1.66545 0
M  V30 21 C 3.2401 -1.87035 0.592641 0
M  V30 22 O 2.3651 -2.14761 -0.265818 0
M  V30 23 C 2.9601 -1.53723 3.01918 0
M  V30 24 C 1.5191 -2.05628 3.15268 0
M  V30 25 C 0.6661 -0.898424 2.62343 0
M  V30 26 H 3.6171 -0.0490998 1.58624 0
M  V30 27 H 3.6381 -2.40421 2.94921 0
M  V30 28 H 3.1501 -0.78983 3.79978 0
M  V30 29 H 1.2511 -2.83329 2.41983 0
M  V30 30 H 1.3641 -2.27142 4.21833 0
M  V30 31 H -0.2719 -1.29186 2.19506 0
M  V30 32 H 0.5111 -0.164528 3.42906 0
M  V30 33 N 2.9562 -1.48159 -0.537278 0
M  V30 34 C 3.9192 -1.61665 -1.62472 0
M  V30 35 C 4.9192 -0.490395 -1.5314 0
M  V30 36 O 6.1092 -0.755998 -1.5694 0
M  V30 37 C 3.2412 -1.57997 -3.02076 0
M  V30 38 H 4.4342 -2.58621 -1.51839 0
M  V30 39 H 1.9872 -1.36647 -0.758771 0
M  V30 40 H 2.7222 -0.624913 -3.18222 0
M  V30 41 H 2.5072 -2.39755 -3.10258 0
M  V30 42 H 3.9972 -1.70627 -3.81151 0
M  V30 43 N 4.4343 0.785586 -1.36625 0
M  V30 44 C 5.3643 1.91259 -1.33949 0
M  V30 45 C 6.3453 1.68795 -0.210325 0
M  V30 46 O 7.5303 1.89854 -0.408561 0
M  V30 47 C 4.6603 3.28339 -1.13186 0
M  V30 48 C 3.6143 3.65335 -2.22967 0
M  V30 49 C 2.9403 5.00806 -1.87342 0
M  V30 50 C 4.2403 3.7352 -3.65075 0
M  V30 51 H 5.9343 1.93755 -2.28253 0
M  V30 52 H 3.4803 0.930788 -1.09874 0
M  V30 53 H 5.4333 4.06804 -1.09948 0
M  V30 54 H 4.1573 3.2624 -0.153332 0
M  V30 55 H 2.8163 2.89169 -2.25337 0
M  V30 56 H 2.4643 4.95233 -0.880545 0
M  V30 57 H 2.1643 5.26529 -2.60846 0
M  V30 58 H 3.6883 5.81687 -1.85667 0
M  V30 59 H 5.1023 4.42168 -3.64911 0
M  V30 60 H 3.4993 4.10731 -4.37516 0
M  V30 61 H 4.5693 2.74527 -3.99703 0
M  V30 62 N 5.9124 1.20967 1.01018 0
M  V30 63 C 6.8754 0.965918 2.07853 0
M  V30 64 C 7.8754 -0.0610545 1.60684 0
M  V30 65 O 9.0654 0.175681 1.73312 0
M  V30 66 C 6.1974 0.455513 3.37843 0
M  V30 67 H 7.3904 1.91365 2.3091 0
M  V30 68 H 4.9434 1.02594 1.17916 0
M  V30 69 H 5.6784 -0.497381 3.20463 0
M  V30 70 H 5.4634 1.19622 3.73407 0
M  V30 71 H 6.9534 0.304667 4.16487 0
M  V30 72 N 7.3905 -1.2043 1.01659 0
M  V30 73 C 8.6305 -1.91507 0.714456 0
M  V30 74 C 8.9945 -1.77073 -0.742237 0
M  V30 75 O 10.1955 -2.42631 -1.15688 0
M  V30 76 C 8.4665 -3.38795 1.13809 0
M  V30 77 S 10.0255 -4.28216 0.957925 0
M  V30 78 H 6.8435 -0.661571 0.260471 0
M  V30 79 H 9.4455 -1.45671 1.30384 0
M  V30 80 H 8.1495 -3.46822 2.19415 0
M  V30 81 H 7.6805 -3.89656 0.541474 0
M  V30 82 H 9.6955 -4.96007 -0.138531 0
M  V30 83 N 8.8686 -0.792821 -1.36206 0
M  V30 84 C 9.7986 -0.207853 -2.32573 0
M  V30 85 C 10.7796 0.659055 -1.56813 0
M  V30 86 O 11.9646 0.592176 -1.84951 0
M  V30 87 C 9.0946 0.655449 -3.41059 0
M  V30 88 C 8.0486 -0.111842 -4.27854 0
M  V30 89 C 7.3746 0.872274 -5.27537 0
M  V30 90 C 8.6746 -1.30299 -5.05786 0
M  V30 91 H 10.3686 -1.01294 -2.81744 0
M  V30 92 H 7.9146 -0.48854 -1.3546 0
M  V30 93 H 9.8676 1.07464 -4.07467 0
M  V30 94 H 8.5916 1.49328 -2.90463 0
M  V30 95 H 7.2506 -0.512053 -3.63006 0
M  V30 96 H 6.8986 1.70523 -4.73214 0
M  V30 97 H 6.5986 0.363291 -5.86476 0
M  V30 98 H 8.1226 1.28996 -5.96818 0
M  V30 99 H 9.5366 -0.959379 -5.65216 0
M  V30 100 H 7.9336 -1.7455 -5.74154 0
M  V30 101 H 9.0036 -2.09663 -4.37229 0
M  V30 102 N 10.3467 1.47872 -0.545128 0
M  V30 103 C 11.7627 1.5829 -0.204032 0
M  V30 104 C 11.9627 1.54529 1.29317 0
M  V30 105 O 11.0187 1.44232 2.07252 0
M  V30 106 C 12.3317 2.89304 -0.819987 0
M  V30 107 C 13.8797 3.02864 -0.790105 0
M  V30 108 C 14.3547 4.3656 -1.38491 0
M  V30 109 N 15.8457 4.43165 -1.34755 0
M  V30 110 C 16.5807 5.45153 -1.77753 0
M  V30 111 N 16.0767 6.54016 -2.2855 0
M  V30 112 N 17.8697 5.36125 -1.68897 0
M  V30 113 H 10.0207 1.4856 -1.51802 0
M  V30 114 H 12.2837 0.706305 -0.632327 0
M  V30 115 H 11.9897 2.97757 -1.87173 0
M  V30 116 H 11.8637 3.75957 -0.305915 0
M  V30 117 H 14.2507 2.94014 0.252913 0
M  V30 118 H 14.3317 2.17782 -1.34181 0
M  V30 119 H 13.9757 4.46164 -2.42693 0
M  V30 120 H 13.9057 5.20353 -0.808754 0
M  V30 121 H 16.3967 3.65083 -0.975855 0
M  V30 122 H 16.7097 7.27994 -2.59314 0
M  V30 123 H 15.0547 6.54938 -2.32553 0
M  V30 124 H 18.2457 4.49975 -1.28998 0
M  V30 125 H 18.4187 6.15472 -2.02726 0
M  V30 126 N 11.8248 0.280983 1.55075 0
M  V30 127 C 13.2408 -0.0729964 1.59433 0
M  V30 128 C 13.4408 -1.5411 1.29817 0
M  V30 129 O 12.4968 -2.29086 1.06187 0
M  V30 130 C 13.8098 0.306921 2.9913 0
M  V30 131 C 15.3578 0.254023 3.11968 0
M  V30 132 C 15.8328 0.608467 4.5394 0
M  V30 133 N 17.3238 0.560241 4.59799 0
M  V30 134 C 18.0588 0.80722 5.6769 0
M  V30 135 N 17.5548 1.11912 6.83701 0
M  V30 136 N 19.3478 0.735623 5.57266 0
M  V30 137 H 11.4988 1.238 1.7259 0
M  V30 138 H 13.7618 0.500547 0.805082 0
M  V30 139 H 13.4678 1.32816 3.25657 0
M  V30 140 H 13.3418 -0.349363 3.75579 0
M  V30 141 H 15.7288 -0.75794 2.852 0
M  V30 142 H 15.8098 0.944649 2.37718 0
M  V30 143 H 15.4538 1.61814 4.81434 0
M  V30 144 H 15.3838 -0.104013 5.26497 0
M  V30 145 H 17.8748 0.329288 3.76463 0
M  V30 146 H 18.1878 1.29409 7.61888 0
M  V30 147 H 16.5328 1.15695 6.85303 0
M  V30 148 H 19.7238 0.491752 4.6551 0
M  V30 149 H 19.8968 0.931482 6.4127 0
M  V30 150 N 13.3029 -1.57598 0.00835791 0
M  V30 151 C 14.2329 -2.1198 -0.979113 0
M  V30 152 C 15.2139 -1.03091 -1.35301 0
M  V30 153 O 16.3989 -1.30818 -1.43528 0
M  V30 154 C 13.5289 -2.62995 -2.26828 0
M  V30 155 C 12.4829 -3.76485 -2.03576 0
M  V30 156 C 11.8089 -4.13846 -3.38579 0
M  V30 157 C 13.1089 -5.0342 -1.39161 0
M  V30 158 H 14.8029 -2.94738 -0.526281 0
M  V30 159 H 12.3489 -1.41783 -0.251704 0
M  V30 160 H 14.3019 -2.99669 -2.96271 0
M  V30 161 H 13.0259 -1.7737 -2.7424 0
M  V30 162 H 11.6849 -3.40217 -1.36557 0
M  V30 163 H 11.3329 -3.25232 -3.83709 0
M  V30 164 H 11.0329 -4.90312 -3.23834 0
M  V30 165 H 12.5569 -4.53086 -4.09323 0
M  V30 166 H 13.9709 -5.37812 -1.98573 0
M  V30 167 H 12.3679 -5.84746 -1.34878 0
M  V30 168 H 13.4379 -4.83548 -0.361868 0
M  V30 169 N 14.781 0.264519 -1.55364 0
M  V30 170 C 16.021 1.00254 -1.78125 0
M  V30 171 C 16.385 1.83187 -0.575017 0
M  V30 172 O 17.586 2.60029 -0.681042 0
M  V30 173 C 15.857 1.85478 -3.05504 0
M  V30 174 S 17.416 2.6543 -3.49417 0
M  V30 175 H 14.234 0.337522 -0.625779 0
M  V30 176 H 16.836 0.272111 -1.93597 0
M  V30 177 H 15.54 1.23491 -3.9138 0
M  V30 178 H 15.071 2.62827 -2.92721 0
M  V30 179 H 17.086 3.87958 -3.09359 0
M  V30 180 N 16.2591 1.48442 0.529413 0
M  V30 181 C 17.6751 1.34575 0.858004 0
M  V30 182 C 17.8751 0.3572 1.98309 0
M  V30 183 O 16.9311 -0.221379 2.51528 0
M  V30 184 C 18.2441 2.74617 1.22499 0
M  V30 185 C 19.7921 2.83109 1.33484 0
M  V30 186 C 20.2671 4.23854 1.73526 0
M  V30 187 N 21.7581 4.2653 1.80628 0
M  V30 188 C 22.4931 5.32372 2.12997 0
M  V30 189 N 21.9891 6.48491 2.43786 0
M  V30 190 N 23.7821 5.19766 2.14008 0
M  V30 191 H 15.9331 2.1133 -0.212925 0
M  V30 192 H 18.1961 0.947439 -0.0326199 0
M  V30 193 H 17.9021 3.4852 0.471905 0
M  V30 194 H 17.7761 3.08177 2.17501 0
M  V30 195 H 20.1631 2.09462 2.0787 0
M  V30 196 H 20.2441 2.53168 0.366027 0
M  V30 197 H 19.8881 4.98018 0.997013 0
M  V30 198 H 19.8181 4.5124 2.71459 0
M  V30 199 H 22.3091 3.42772 1.59108 0
M  V30 200 H 22.6221 7.24993 2.67592 0
M  V30 201 H 20.9671 6.51765 2.41304 0
M  V30 202 H 24.1581 4.28066 1.89412 0
M  V30 203 H 24.3311 6.02354 2.38902 0
M  V30 204 N 17.7372 -0.778329 1.37039 0
M  V30 205 C 18.6872 -1.88142 1.28789 0
M  V30 206 C 19.6712 -1.59923 0.177063 0
M  V30 207 O 20.8632 -1.72165 0.410873 0
M  V30 208 C 17.9922 -3.25518 1.09055 0
M  V30 209 C 17.0782 -3.5971 2.24654 0
M  V30 210 N 17.4692 -3.65131 3.50018 0
M  V30 211 C 15.7672 -3.89837 2.16663 0
M  V30 212 C 16.4682 -3.95882 4.26207 0
M  V30 213 N 15.4442 -4.11441 3.55271 0
M  V30 214 H 19.2462 -1.90575 2.23737 0
M  V30 215 H 16.7602 -0.974435 1.29917 0
M  V30 216 H 18.7572 -4.04423 1.0123 0
M  V30 217 H 17.4172 -3.24353 0.15018 0
M  V30 218 H 18.4282 -3.475 3.84011 0
M  V30 219 H 15.1052 -3.96533 1.30645 0
M  V30 220 H 16.4952 -4.06907 5.34674 0
M  V30 221 N 19.2153 -1.21501 -1.00376 0
M  V30 222 C 20.4613 -1.03452 -1.74429 0
M  V30 223 C 20.7943 0.430764 -1.89362 0
M  V30 224 O 20.0693 1.31962 -1.42886 0
M  V30 225 C 20.3523 -1.73375 -3.15615 0
M  V30 226 C 20.2053 -3.27431 -3.08397 0
M  V30 227 C 21.5243 -1.47732 -4.14564 0
M  V30 228 H 18.6433 -0.377226 -0.633143 0
M  V30 229 H 21.2853 -1.49693 -1.17013 0
M  V30 230 H 19.4353 -1.34064 -3.64636 0
M  V30 231 H 21.1073 -3.76119 -2.67081 0
M  V30 232 H 19.3503 -3.5767 -2.45468 0
M  V30 233 H 20.0213 -3.71524 -4.08258 0
M  V30 234 H 22.4973 -1.8186 -3.74254 0
M  V30 235 H 21.3733 -1.99169 -5.11491 0
M  V30 236 H 21.6343 -0.407589 -4.40217 0
M  V30 237 N 20.6934 1.19889 -1.02296 0
M  V30 238 C 21.9184 1.9393 -0.735237 0
M  V30 239 C 22.3434 1.74639 0.698782 0
M  V30 240 O 21.7014 1.04481 1.48167 0
M  V30 241 C 21.7494 3.43916 -1.08417 0
M  V30 242 O 20.8534 4.11917 -0.199446 0
M  V30 243 H 20.1944 0.605645 -0.272196 0
M  V30 244 H 22.7244 1.52137 -1.36804 0
M  V30 245 H 22.7344 3.9456 -1.03856 0
M  V30 246 H 21.4094 3.5728 -2.12894 0
M  V30 247 H 19.9864 3.71666 -0.303136 0
M  V30 248 N 22.1715 0.800033 1.35784 0
M  V30 249 C 23.5825 0.439142 1.81462 0
M  V30 250 C 23.9335 -1.03813 1.66485 0
M  V30 251 O 23.0585 -1.80626 1.19177 0
M  V30 252 C 23.6535 0.790314 3.29453 0
M  V30 253 C 22.2125 0.482111 3.733 0
M  V30 254 C 21.3595 1.01938 2.57883 0
M  V30 255 H 24.3105 0.992254 1.23855 0
M  V30 256 H 24.3315 0.0853677 3.80404 0
M  V30 257 H 23.8435 1.86554 3.40322 0
M  V30 258 H 21.9445 -0.584652 3.67984 0
M  V30 259 H 22.0575 1.01015 4.6833 0
M  V30 260 H 20.4215 0.442043 2.50835 0
M  V30 261 H 21.2045 2.10059 2.71533 0
M  V30 262 N 23.6496 -1.47581 0.552962 0
M  V30 263 C 24.5816 -2.27997 -0.234533 0
M  V30 264 C 25.5946 -1.36753 -0.883321 0
M  V30 265 O 26.7836 -1.61612 -0.757889 0
M  V30 266 C 23.8836 -3.10879 -1.34935 0
M  V30 267 C 23.0566 -4.30056 -0.798158 0
M  V30 268 C 22.1156 -4.94567 -1.79694 0
M  V30 269 O 21.1416 -5.53087 -1.34474 0
M  V30 270 N 22.3436 -4.88878 -3.13015 0
M  V30 271 H 25.1086 -2.96222 0.455255 0
M  V30 272 H 22.6696 -1.57163 0.388761 0
M  V30 273 H 24.6616 -3.50903 -2.01616 0
M  V30 274 H 23.2316 -2.44924 -1.94244 0
M  V30 275 H 22.4516 -3.94174 0.0453079 0
M  V30 276 H 23.7396 -5.07152 -0.409173 0
M  V30 277 H 23.1376 -4.42526 -3.52402 0
M  V30 278 H 21.6946 -5.32934 -3.75266 0
M  V30 279 N 25.1277 -0.289203 -1.54924 0
M  V30 280 C 26.0907 0.579144 -2.21762 0
M  V30 281 C 27.0907 1.07047 -1.1999 0
M  V30 282 O 28.2807 0.968384 -1.44803 0
M  V30 283 C 25.4127 1.80055 -2.8947 0
M  V30 284 H 26.6057 -0.00464908 -2.999 0
M  V30 285 H 24.1587 -0.0399306 -1.56249 0
M  V30 286 H 24.8937 2.42449 -2.15381 0
M  V30 287 H 24.6787 1.45602 -3.64064 0
M  V30 288 H 26.1687 2.41773 -3.40493 0
M  V30 289 N 26.6058 1.57591 -0.0167156 0
M  V30 290 C 27.8518 1.91567 0.665582 0
M  V30 291 C 28.1848 0.892298 1.72487 0
M  V30 292 O 27.4598 -0.0867127 1.94307 0
M  V30 293 C 27.7428 3.36069 1.29342 0
M  V30 294 C 27.5958 4.49135 0.244541 0
M  V30 295 C 28.9148 3.803 2.21495 0
M  V30 296 H 26.0338 0.69666 0.240488 0
M  V30 297 H 28.6758 1.89866 -0.0714356 0
M  V30 298 H 26.8258 3.3765 1.92158 0
M  V30 299 H 28.4978 4.59689 -0.385228 0
M  V30 300 H 26.7408 4.3165 -0.431379 0
M  V30 301 H 27.4118 5.47242 0.723207 0
M  V30 302 H 29.8878 3.80377 1.68678 0
M  V30 303 H 28.7638 4.82127 2.62382 0
M  V30 304 H 29.0248 3.15104 3.101 0
M  V30 305 N 28.0839 -0.256276 1.55502 0
M  V30 306 C 29.0139 -1.32102 1.92539 0
M  V30 307 C 29.9949 -1.50684 0.789194 0
M  V30 308 O 31.1799 -1.63449 1.04872 0
M  V30 309 C 28.3099 -2.67752 2.21192 0
M  V30 310 C 27.2639 -2.63878 3.36975 0
M  V30 311 C 26.5899 -4.03236 3.51147 0
M  V30 312 C 27.8899 -2.21682 4.72921 0
M  V30 313 H 29.5839 -1.01351 2.81724 0
M  V30 314 H 27.1299 -0.486105 1.35547 0
M  V30 315 H 29.0829 -3.42365 2.45691 0
M  V30 316 H 27.8069 -3.0012 1.28824 0
M  V30 317 H 26.4659 -1.91722 3.12471 0
M  V30 318 H 26.1139 -4.32854 2.56216 0
M  V30 319 H 25.8139 -4.01535 4.29003 0
M  V30 320 H 27.3379 -4.79563 3.77957 0
M  V30 321 H 28.7519 -2.86023 4.96854 0
M  V30 322 H 27.1489 -2.3111 5.53812 0
M  V30 323 H 28.2189 -1.16833 4.70615 0
M  V30 324 N 29.562 -1.4872 -0.521534 0
M  V30 325 C 30.809 -1.57168 -1.27689 0
M  V30 326 C 31.137 -0.249275 -1.92896 0
M  V30 327 O 30.392 0.761162 -1.80291 0
M  V30 328 C 30.691 -2.66497 -2.38148 0
M  V30 329 C 30.357 -4.08664 -1.90538 0
M  V30 330 C 29.019 -4.47357 -1.77271 0
M  V30 331 C 31.371 -4.97724 -1.54663 0
M  V30 332 C 28.699 -5.72905 -1.26478 0
M  V30 333 C 31.051 -6.2377 -1.05329 0
M  V30 334 C 29.715 -6.61311 -0.906861 0
M  V30 335 H 28.985 -0.575117 -0.467249 0
M  V30 336 H 31.632 -1.82472 -0.581051 0
M  V30 337 H 29.937 -2.35085 -3.13437 0
M  V30 338 H 31.634 -2.70246 -2.96257 0
M  V30 339 H 28.224 -3.78111 -2.01816 0
M  V30 340 H 32.408 -4.68501 -1.63768 0
M  V30 341 H 27.664 -6.00709 -1.13835 0
M  V30 342 H 31.838 -6.9217 -0.76644 0
M  V30 343 H 29.465 -7.5848 -0.511083 0
M  V30 344 N 31.0401 0.771051 -1.3745 0
M  V30 345 C 31.9701 1.89827 -1.3597 0
M  V30 346 C 32.9511 1.68562 -0.228216 0
M  V30 347 O 34.1361 1.8941 -0.428675 0
M  V30 348 C 31.2661 3.2712 -1.16662 0
M  V30 349 C 30.2201 3.6295 -2.2683 0
M  V30 350 C 29.5461 4.98791 -1.92644 0
M  V30 351 C 30.8461 3.69627 -3.69017 0
M  V30 352 H 32.5401 1.91323 -2.30295 0
M  V30 353 H 30.0861 0.919082 -1.10855 0
M  V30 354 H 32.0391 4.05615 -1.14256 0
M  V30 355 H 30.7631 3.26059 -0.187926 0
M  V30 356 H 29.4221 2.86763 -2.28392 0
M  V30 357 H 29.0701 4.94271 -0.933021 0
M  V30 358 H 28.7701 5.23733 -2.66416 0
M  V30 359 H 30.2941 5.79685 -1.91826 0
M  V30 360 H 31.7081 4.38273 -3.69581 0
M  V30 361 H 30.1051 4.06067 -4.41848 0
M  V30 362 H 31.1751 2.70273 -4.02592 0
M  V30 363 N 32.5182 1.22032 0.997298 0
M  V30 364 C 33.4482 1.01065 2.10495 0
M  V30 365 C 34.4292 -0.0669542 1.69968 0
M  V30 366 O 35.6142 0.0943987 1.9397 0
M  V30 367 C 32.7442 0.582874 3.42374 0
M  V30 368 C 31.6982 1.60592 3.96729 0
M  V30 369 C 31.0242 1.03412 5.24605 0
M  V30 370 C 32.3242 2.99478 4.27914 0
M  V30 371 H 34.0182 1.93708 2.28292 0
M  V30 372 H 31.5642 0.932761 1.09707 0
M  V30 373 H 33.5172 0.423332 4.19268 0
M  V30 374 H 32.2412 -0.379213 3.24391 0
M  V30 375 H 30.9002 1.75316 3.21963 0
M  V30 376 H 30.5482 0.063518 5.0296 0
M  V30 377 H 30.2482 1.71754 5.61938 0
M  V30 378 H 31.7722 0.886066 6.04137 0
M  V30 379 H 33.1862 2.88153 4.95622 0
M  V30 380 H 31.5832 3.64903 4.76409 0
M  V30 381 H 32.6532 3.49742 3.3587 0
M  V30 382 N 33.9963 -1.19345 1.0293 0
M  V30 383 C 35.2433 -1.89038 0.726008 0
M  V30 384 C 35.5713 -1.79649 -0.745427 0
M  V30 385 O 34.8263 -1.18354 -1.55855 0
M  V30 386 C 35.1253 -3.39292 1.12319 0
M  V30 387 C 34.7913 -3.68885 2.59297 0
M  V30 388 C 33.4533 -3.76671 2.99453 0
M  V30 389 C 35.8053 -3.82178 3.54386 0
M  V30 390 C 33.1333 -3.9522 4.33611 0
M  V30 391 C 35.4853 -4.0224 4.88248 0
M  V30 392 C 34.1493 -4.08259 5.28092 0
M  V30 393 H 33.4193 -0.691739 0.265665 0
M  V30 394 H 36.0663 -1.41328 1.29223 0
M  V30 395 H 34.3713 -3.88903 0.475584 0
M  V30 396 H 36.0683 -3.91536 0.866037 0
M  V30 397 H 32.6583 -3.63433 2.27189 0
M  V30 398 H 36.8423 -3.75505 3.24514 0
M  V30 399 H 32.0983 -3.98119 4.64016 0
M  V30 400 H 36.2723 -4.11468 5.61843 0
M  V30 401 H 33.8993 -4.22384 6.32057 0
M  V30 402 N 35.4744 -0.807222 -1.35358 0
M  V30 403 C 36.7234 -0.384376 -1.98004 0
M  V30 404 C 37.0364 1.0543 -1.64754 0
M  V30 405 O 38.2424 1.58029 -2.20769 0
M  V30 406 C 36.6984 -0.636326 -3.5423 0
M  V30 407 C 36.3064 -2.08759 -3.96388 0
M  V30 408 C 38.0504 -0.278869 -4.23583 0
M  V30 409 C 35.9574 -2.28525 -5.45463 0
M  V30 410 H 34.8874 -0.139986 -0.740891 0
M  V30 411 H 37.5384 -0.991369 -1.54415 0
M  V30 412 H 35.9204 0.0406256 -3.95979 0
M  V30 413 H 37.0944 -2.8024 -3.6579 0
M  V30 414 H 35.4094 -2.40497 -3.39926 0
M  V30 415 H 38.0064 -0.404599 -5.33167 0
M  V30 416 H 38.3494 0.775012 -4.09022 0
M  V30 417 H 38.8824 -0.909764 -3.87257 0
M  V30 418 H 35.6214 -3.32361 -5.64992 0
M  V30 419 H 35.1414 -1.61569 -5.77629 0
M  V30 420 H 36.8204 -2.10109 -6.11934 0
M  V30 421 N 36.9525 1.47285 -0.560781 0
M  V30 422 C 38.1995 2.02464 -0.038062 0
M  V30 423 C 38.5275 1.43474 1.31322 0
M  V30 424 O 37.7825 0.581311 1.86867 0
M  V30 425 C 38.0815 3.57258 0.100784 0
M  V30 426 C 37.7475 4.35184 -1.18007 0
M  V30 427 C 36.4095 4.56194 -1.53103 0
M  V30 428 C 38.7615 4.80098 -2.02867 0
M  V30 429 C 36.0895 5.19367 -2.729 0
M  V30 430 C 38.4415 5.44593 -3.21871 0
M  V30 431 C 37.1055 5.63835 -3.57276 0
M  V30 432 H 36.3755 0.740869 -0.0139279 0
M  V30 433 H 39.0225 1.76916 -0.733012 0
M  V30 434 H 37.3275 3.81819 0.878724 0
M  V30 435 H 39.0245 3.97606 0.520639 0
M  V30 436 H 35.6145 4.19113 -0.8968 0
M  V30 437 H 39.7985 4.63642 -1.7706 0
M  V30 438 H 35.0545 5.32459 -3.00496 0
M  V30 439 H 39.2285 5.78358 -3.87911 0
M  V30 440 H 36.8555 6.12557 -4.50197 0
M  V30 441 N 38.4306 0.297415 1.54768 0
M  V30 442 C 39.6706 -0.313829 2.01976 0
M  V30 443 C 40.0346 -1.51366 1.1812 0
M  V30 444 O 41.2356 -2.19603 1.5501 0
M  V30 445 C 39.5066 -0.664964 3.51159 0
M  V30 446 S 41.0656 -1.25958 4.20333 0
M  V30 447 H 37.8836 -0.0965014 0.704421 0
M  V30 448 H 40.4856 0.424451 1.90837 0
M  V30 449 H 39.1896 0.21681 4.09827 0
M  V30 450 H 38.7206 -1.43413 3.66328 0
M  V30 451 H 40.7356 -2.54751 4.25813 0
M  V30 452 N 39.9087 -1.5758 0.0250728 0
M  V30 453 C 40.8387 -2.13007 -0.956575 0
M  V30 454 C 41.8197 -1.0452 -1.342 0
M  V30 455 O 43.0047 -1.32332 -1.42133 0
M  V30 456 C 40.1347 -2.65386 -2.24026 0
M  V30 457 C 39.0887 -3.78623 -1.99571 0
M  V30 458 C 38.4147 -4.17414 -3.3417 0
M  V30 459 C 39.7147 -5.04867 -1.33814 0
M  V30 460 H 41.4087 -2.9528 -0.494991 0
M  V30 461 H 38.9547 -1.42042 -0.236651 0
M  V30 462 H 40.9077 -3.02794 -2.93076 0
M  V30 463 H 39.6317 -1.80268 -2.72343 0
M  V30 464 H 38.2907 -3.41646 -1.32941 0
M  V30 465 H 37.9387 -3.29284 -3.80238 0
M  V30 466 H 37.6387 -4.93719 -3.18615 0
M  V30 467 H 39.1627 -4.57402 -4.04495 0
M  V30 468 H 40.5767 -5.39888 -1.92857 0
M  V30 469 H 38.9737 -5.86144 -1.28669 0
M  V30 470 H 40.0437 -4.83904 -0.310561 0
M  V30 471 N 41.3868 0.248026 -1.55636 0
M  V30 472 C 42.6338 0.976224 -1.77415 0
M  V30 473 C 42.9618 1.85361 -0.589193 0
M  V30 474 O 42.2168 1.90973 0.427529 0
M  V30 475 C 42.5158 1.86819 -3.04686 0
M  V30 476 C 42.1818 1.14625 -4.36087 0
M  V30 477 C 40.8438 0.946723 -4.71795 0
M  V30 478 C 43.1958 0.634463 -5.17324 0
M  V30 479 C 40.5238 0.223091 -5.86276 0
M  V30 480 C 42.8758 -0.0756959 -6.32555 0
M  V30 481 C 41.5398 -0.286711 -6.66884 0
M  V30 482 H 40.8098 0.357226 -0.649208 0
M  V30 483 H 43.4568 0.246415 -1.89908 0
M  V30 484 H 41.7618 2.66502 -2.872 0
M  V30 485 H 43.4588 2.43329 -3.18735 0
M  V30 486 H 40.0488 1.3117 -4.08035 0
M  V30 487 H 44.2328 0.77616 -4.90193 0
M  V30 488 H 39.4888 0.0491185 -6.1138 0
M  V30 489 H 43.6628 -0.479899 -6.94745 0
M  V30 490 H 41.2898 -0.849389 -7.5544 0
M  V30 491 N 42.8649 1.48995 0.513639 0
M  V30 492 C 44.0899 1.61792 1.29762 0
M  V30 493 C 44.5149 0.284475 1.85936 0
M  V30 494 O 43.8729 -0.746185 1.65232 0
M  V30 495 C 43.9209 2.67993 2.41272 0
M  V30 496 O 43.0249 2.26287 3.44772 0
M  V30 497 H 42.3659 0.541963 0.38363 0
M  V30 498 H 44.8959 1.95097 0.616307 0
M  V30 499 H 44.9059 2.89772 2.87221 0
M  V30 500 H 43.5809 3.64791 1.9975 0
M  V30 501 H 42.1579 2.14788 3.04829 0
M  V30 502 N 44.343 -0.763751 1.37857 0
M  V30 503 C 45.589 -1.52483 1.33704 0
M  V30 504 C 45.922 -1.94051 -0.0759612 0
M  V30 505 O 45.197 -1.64675 -1.03501 0
M  V30 506 C 45.48 -2.78441 2.28348 0
M  V30 507 C 45.333 -2.43075 3.78463 0
M  V30 508 C 46.652 -3.80415 2.21298 0
M  V30 509 H 43.771 -0.553169 0.487005 0
M  V30 510 H 46.413 -0.875562 1.68624 0
M  V30 511 H 44.563 -3.33842 1.987 0
M  V30 512 H 46.235 -1.93527 4.18742 0
M  V30 513 H 44.478 -1.75666 3.96641 0
M  V30 514 H 45.149 -3.33149 4.40132 0
M  V30 515 H 47.625 -3.34527 2.47449 0
M  V30 516 H 46.501 -4.66257 2.89647 0
M  V30 517 H 46.762 -4.25262 1.20849 0
M  V30 518 N 45.8211 -1.22559 -0.990812 0
M  V30 519 C 47.0681 -1.05141 -1.73065 0
M  V30 520 C 47.3961 0.413191 -1.9006 0
M  V30 521 O 46.6511 1.32257 -1.44245 0
M  V30 522 C 46.9501 -1.71011 -3.13831 0
M  V30 523 C 46.6161 -3.20911 -3.16745 0
M  V30 524 C 45.2781 -3.61812 -3.17247 0
M  V30 525 C 47.6301 -4.16846 -3.12872 0
M  V30 526 C 44.9581 -4.97127 -3.1158 0
M  V30 527 C 47.3101 -5.5214 -3.08746 0
M  V30 528 C 45.9741 -5.92419 -3.07565 0
M  V30 529 H 45.2441 -0.384738 -0.633291 0
M  V30 530 H 47.8911 -1.5235 -1.16025 0
M  V30 531 H 46.1961 -1.16133 -3.74193 0
M  V30 532 H 47.8931 -1.55023 -3.69823 0
M  V30 533 H 44.4831 -2.88344 -3.17105 0
M  V30 534 H 48.6671 -3.86263 -3.11632 0
M  V30 535 H 43.9231 -5.27562 -3.09012 0
M  V30 536 H 48.0971 -6.26201 -3.04705 0
M  V30 537 H 45.7241 -6.97236 -3.02929 0
M  V30 538 N 47.2992 1.18797 -1.03562 0
M  V30 539 C 48.5482 1.87978 -0.731235 0
M  V30 540 C 48.8612 1.80911 0.743671 0
M  V30 541 O 50.0672 2.45407 1.16137 0
M  V30 542 C 48.5232 3.3721 -1.25768 0
M  V30 543 C 48.1312 3.52818 -2.76085 0
M  V30 544 C 49.8752 4.11825 -1.0296 0
M  V30 545 C 47.7822 4.9598 -3.22114 0
M  V30 546 H 46.7122 0.704063 -0.269835 0
M  V30 547 H 49.3632 1.34266 -1.25079 0
M  V30 548 H 47.7452 3.90359 -0.666011 0
M  V30 549 H 48.9192 3.09965 -3.40966 0
M  V30 550 H 47.2342 2.91602 -2.97249 0
M  V30 551 H 49.8312 5.17411 -1.34869 0
M  V30 552 H 50.1742 4.16287 0.0333546 0
M  V30 553 H 50.7072 3.64833 -1.58562 0
M  V30 554 H 47.4462 4.96684 -4.27768 0
M  V30 555 H 46.9662 5.39569 -2.61965 0
M  V30 556 H 48.6452 5.6467 -3.15844 0
M  V30 557 N 48.7773 0.814389 1.34928 0
M  V30 558 C 50.0023 0.410097 2.03305 0
M  V30 559 C 50.4273 -0.973464 1.60951 0
M  V30 560 O 49.7853 -1.63185 0.789964 0
M  V30 561 C 49.8333 0.51049 3.56968 0
M  V30 562 O 48.9373 -0.473035 4.09678 0
M  V30 563 H 48.2783 0.170088 0.641846 0
M  V30 564 H 50.8083 1.10244 1.72358 0
M  V30 565 H 50.8183 0.383135 4.06197 0
M  V30 566 H 49.4933 1.51963 3.87144 0
M  V30 567 H 48.0703 -0.305272 3.71648 0
M  V30 568 N 50.2554 -1.46986 0.568584 0
M  V30 569 C 51.2184 -2.28624 -0.162366 0
M  V30 570 C 52.2184 -1.37596 -0.832103 0
M  V30 571 O 53.4084 -1.60115 -0.68622 0
M  V30 572 C 50.5404 -3.17596 -1.23878 0
M  V30 573 H 51.7334 -2.94722 0.554899 0
M  V30 574 H 49.2864 -1.52863 0.325976 0
M  V30 575 H 50.0214 -2.56214 -1.98808 0
M  V30 576 H 49.8064 -3.846 -0.763219 0
M  V30 577 H 51.2964 -3.79078 -1.75185 0
M  V30 578 N 51.7335 -0.305618 -1.54608 0
M  V30 579 C 52.9635 0.304333 -2.04346 0
M  V30 580 C 53.3715 1.47715 -1.18224 0
M  V30 581 O 52.7145 1.82591 -0.201577 0
M  V30 582 C 52.7765 0.819031 -3.50046 0
M  V30 583 C 52.4405 -0.22912 -4.56425 0
M  V30 584 C 53.4375 -1.05914 -5.08997 0
M  V30 585 C 51.1225 -0.372148 -5.0092 0
M  V30 586 C 53.1165 -2.01809 -6.04609 0
M  V30 587 C 50.8035 -1.33454 -5.9635 0
M  V30 588 C 51.8015 -2.15599 -6.48079 0
M  V30 589 O 51.4895 -3.10205 -7.41639 0
M  V30 590 H 51.2215 0.0693996 -0.672428 0
M  V30 591 H 53.7755 -0.444548 -2.00532 0
M  V30 592 H 52.0055 1.61852 -3.51199 0
M  V30 593 H 53.6945 1.34537 -3.82955 0
M  V30 594 H 54.4605 -0.959538 -4.75413 0
M  V30 595 H 50.3395 0.257304 -4.60281 0
M  V30 596 H 53.8835 -2.65966 -6.44909 0
M  V30 597 H 49.7805 -1.43485 -6.29351 0
M  V30 598 H 50.5485 -3.05237 -7.59455 0
M  V30 599 N 53.2116 1.57565 -0.0334293 0
M  V30 600 C 54.4416 1.95996 0.653398 0
M  V30 601 C 54.8496 0.908749 1.65947 0
M  V30 602 O 54.1926 -0.117471 1.83324 0
M  V30 603 C 54.2546 3.30589 1.41249 0
M  V30 604 C 53.9186 4.53503 0.564263 0
M  V30 605 C 54.9156 5.19647 -0.16225 0
M  V30 606 C 52.6006 4.99801 0.500398 0
M  V30 607 C 54.5946 6.30412 -0.941255 0
M  V30 608 C 52.2816 6.10448 -0.282308 0
M  V30 609 C 53.2796 6.75612 -1.00184 0
M  V30 610 O 52.9676 7.84134 -1.77171 0
M  V30 611 H 52.6996 0.65027 0.184728 0
M  V30 612 H 55.2536 2.05199 -0.0907841 0
M  V30 613 H 53.4836 3.17888 2.20191 0
M  V30 614 H 55.1726 3.53892 1.98784 0
M  V30 615 H 55.9386 4.84846 -0.12227 0
M  V30 616 H 51.8176 4.48883 1.05002 0
M  V30 617 H 55.3616 6.81208 -1.50339 0
M  V30 618 H 51.2586 6.44686 -0.323989 0
M  V30 619 H 52.0266 8.00822 -1.69194 0
M  V30 620 N 54.6897 -0.239769 1.55765 0
M  V30 621 C 55.6197 -1.30052 1.9393 0
M  V30 622 C 56.6007 -1.49839 0.805132 0
M  V30 623 O 57.7857 -1.62328 1.06599 0
M  V30 624 C 54.9157 -2.65391 2.2402 0
M  V30 625 C 53.8697 -2.60289 3.39755 0
M  V30 626 C 53.1957 -3.99489 3.55405 0
M  V30 627 C 54.4957 -2.16654 4.75246 0
M  V30 628 H 56.1897 -0.983573 2.82783 0
M  V30 629 H 53.7357 -0.471701 1.36055 0
M  V30 630 H 55.6887 -3.3974 2.49308 0
M  V30 631 H 54.4127 -2.98736 1.32 0
M  V30 632 H 53.0717 -1.88398 3.14487 0
M  V30 633 H 52.7197 -4.30112 2.60793 0
M  V30 634 H 52.4197 -3.96962 4.33238 0
M  V30 635 H 53.9437 -4.75528 3.83022 0
M  V30 636 H 55.3577 -2.80737 4.99859 0
M  V30 637 H 53.7547 -2.25223 5.56232 0
M  V30 638 H 54.8247 -1.11835 4.71827 0
M  V30 639 N 56.1678 -1.49265 -0.50573 0
M  V30 640 C 57.3978 -1.61979 -1.28243 0
M  V30 641 C 57.8058 -0.288576 -1.86986 0
M  V30 642 O 57.1488 0.735408 -1.68337 0
M  V30 643 C 57.2108 -2.62632 -2.45489 0
M  V30 644 C 56.8748 -4.071 -2.07651 0
M  V30 645 C 57.8718 -4.94049 -1.61901 0
M  V30 646 C 55.5568 -4.52801 -2.17431 0
M  V30 647 C 57.5508 -6.24736 -1.26428 0
M  V30 648 C 55.2378 -5.83503 -1.8157 0
M  V30 649 C 56.2358 -6.69294 -1.36142 0
M  V30 650 O 55.9238 -7.9756 -1.00764 0
M  V30 651 H 55.6558 -0.54834 -0.395347 0
M  V30 652 H 58.2098 -1.96002 -0.614204 0
M  V30 653 H 56.4398 -2.2378 -3.15372 0
M  V30 654 H 58.1288 -2.64925 -3.07522 0
M  V30 655 H 58.8948 -4.5997 -1.53795 0
M  V30 656 H 54.7738 -3.86196 -2.51742 0
M  V30 657 H 58.3178 -6.91652 -0.908992 0
M  V30 658 H 54.2148 -6.17112 -1.89324 0
M  V30 659 H 54.9828 -8.10529 -1.13952 0
M  V30 660 N 57.6459 0.756429 -1.3826 0
M  V30 661 C 58.8939 1.51248 -1.34047 0
M  V30 662 C 59.2149 1.94875 0.0698372 0
M  V30 663 O 58.4849 1.67436 1.01696 0
M  V30 664 H 57.0649 0.561018 -0.493222 0
M  V30 665 H 59.7269 0.899347 -1.7291 0
M  V30 666 H 58.8229 2.40472 -1.98947 0
M  V30 667 N 59.124 1.23083 0.984299 0
M  V30 668 C 60.37 1.07221 1.72845 0
M  V30 669 C 60.725 -0.387453 1.88458 0
M  V30 670 O 60.018 -1.28309 1.42293 0
M  V30 671 C 60.212 1.72673 3.1292 0
M  V30 672 C 60.041 3.24853 3.10967 0
M  V30 673 C 58.811 3.93998 3.16376 0
M  V30 674 C 61.009 4.21674 2.94441 0
M  V30 675 N 58.991 5.33192 3.04268 0
M  V30 676 C 60.362 5.47756 2.90453 0
M  V30 677 C 62.417 4.12457 2.78897 0
M  V30 678 C 61.12 6.6568 2.72512 0
M  V30 679 C 63.146 5.3004 2.62319 0
M  V30 680 C 62.508 6.55046 2.59026 0
M  V30 681 H 58.607 0.44685 0.641755 0
M  V30 682 H 61.191 1.55753 1.16829 0
M  V30 683 H 59.362 1.26679 3.67161 0
M  V30 684 H 61.094 1.49824 3.75945 0
M  V30 685 H 57.849 3.45052 3.24401 0
M  V30 686 H 58.273 6.06157 3.015 0
M  V30 687 H 62.915 3.16588 2.80235 0
M  V30 688 H 60.633 7.61689 2.69919 0
M  V30 689 H 64.219 5.24747 2.5126 0
M  V30 690 H 63.099 7.44498 2.46357 0
M  V30 691 N 60.6021 -1.18246 1.0419 0
M  V30 692 C 61.5491 -2.2192 0.634037 0
M  V30 693 C 62.5191 -1.62179 -0.358765 0
M  V30 694 O 63.7041 -1.89122 -0.252466 0
M  V30 695 C 60.8441 -3.451 0.00445535 0
M  V30 696 C 59.9571 -4.19174 1.04487 0
M  V30 697 C 59.0921 -5.29813 0.383676 0
M  V30 698 C 58.1311 -5.9566 1.4091 0
M  V30 699 N 57.2681 -6.97834 0.772784 0
M  V30 700 H 62.1081 -2.56164 1.52263 0
M  V30 701 H 59.6451 -1.25843 0.761701 0
M  V30 702 H 61.6031 -4.15485 -0.377919 0
M  V30 703 H 60.2331 -3.11472 -0.847652 0
M  V30 704 H 59.2851 -3.47604 1.54518 0
M  V30 705 H 60.5971 -4.64267 1.82368 0
M  V30 706 H 59.7511 -6.06677 -0.0528366 0
M  V30 707 H 58.4901 -4.85825 -0.427208 0
M  V30 708 H 57.4951 -5.17535 1.85574 0
M  V30 709 H 58.7201 -6.4173 2.22171 0
M  V30 710 H 56.6661 -6.55998 -0.0177708 0
M  V30 711 H 56.5831 -7.41186 1.48928 0
M  V30 712 H 57.8511 -7.78665 0.36071 0
M  V30 713 N 62.0802 -0.821533 -1.34494 0
M  V30 714 C 63.4962 -0.507117 -1.51329 0
M  V30 715 C 63.6962 0.968964 -1.76673 0
M  V30 716 O 62.7522 1.75348 -1.81685 0
M  V30 717 C 64.0652 -1.36544 -2.67911 0
M  V30 718 C 65.6132 -1.36242 -2.81793 0
M  V30 719 C 66.0882 -2.2052 -4.01416 0
M  V30 720 N 67.5792 -2.18136 -4.08621 0
M  V30 721 C 68.3142 -2.80095 -5.00334 0
M  V30 722 N 67.8102 -3.51039 -5.9728 0
M  V30 723 N 69.6032 -2.69656 -4.93196 0
M  V30 724 H 61.7542 -1.77729 -1.16302 0
M  V30 725 H 64.0172 -0.757291 -0.570276 0
M  V30 726 H 63.7232 -2.41361 -2.55808 0
M  V30 727 H 63.5972 -1.02917 -3.62888 0
M  V30 728 H 65.9842 -0.322041 -2.93338 0
M  V30 729 H 66.0652 -1.73866 -1.87628 0
M  V30 730 H 65.7092 -3.24607 -3.90631 0
M  V30 731 H 65.6392 -1.80247 -4.94791 0
M  V30 732 H 68.1302 -1.6653 -3.39229 0
M  V30 733 H 68.4432 -3.95565 -6.63889 0
M  V30 734 H 66.7882 -3.55145 -5.97409 0
M  V30 735 H 69.9792 -2.13808 -4.16418 0
M  V30 736 H 70.1522 -3.1823 -5.64476 0
M  V30 737 N 63.5583 1.46682 -0.576371 0
M  V30 738 C 64.8063 2.02013 -0.0594163 0
M  V30 739 C 65.1273 1.45101 1.30271 0
M  V30 740 O 64.3973 0.633317 1.8538 0
M  V30 741 H 62.9773 0.746759 -0.0189745 0
M  V30 742 H 65.6393 1.79862 -0.750717 0
M  V30 743 H 64.7353 3.12097 0.014345 0
M  V30 744 N 65.0364 0.313813 1.54444 0
M  V30 745 C 65.9664 -0.549454 2.26943 0
M  V30 746 C 66.9474 -1.12741 1.27372 0
M  V30 747 O 68.1324 -1.15436 1.56167 0
M  V30 748 C 65.2624 -1.71523 3.01989 0
M  V30 749 C 64.2164 -1.26703 4.08816 0
M  V30 750 C 63.5424 -2.51898 4.71647 0
M  V30 751 C 64.8424 -0.388962 5.2085 0
M  V30 752 H 66.5364 0.0552661 2.99349 0
M  V30 753 H 64.0824 0.0280207 1.43973 0
M  V30 754 H 66.0354 -2.32535 3.51433 0
M  V30 755 H 64.7594 -2.34639 2.27183 0
M  V30 756 H 63.4184 -0.679896 3.6024 0
M  V30 757 H 63.0664 -3.13356 3.93468 0
M  V30 758 H 62.7664 -2.22605 5.43802 0
M  V30 759 H 64.2904 -3.1369 5.23861 0
M  V30 760 H 65.7044 -0.905107 5.6611 0
M  V30 761 H 64.1014 -0.18924 5.99802 0
M  V30 762 H 65.1714 0.582699 4.81386 0
M  V30 763 N 66.5145 -1.57545 0.0417849 0
M  V30 764 C 67.4245 -2.14451 -0.951213 0
M  V30 765 C 68.4405 -1.09992 -1.34825 0
M  V30 766 O 69.6165 -1.42114 -1.42708 0
M  V30 767 C 66.6815 -2.67063 -2.21084 0
M  V30 768 C 65.7425 -3.86284 -1.87304 0
M  V30 769 C 64.9755 -4.36378 -3.07261 0
M  V30 770 O 65.1985 -3.85587 -4.20332 0
M  V30 771 O 64.1325 -5.28077 -2.88822 0
M  V30 772 H 67.9585 -2.99601 -0.497287 0
M  V30 773 H 65.5435 -1.48317 -0.179567 0
M  V30 774 H 67.4255 -3.00914 -2.95006 0
M  V30 775 H 66.1005 -1.84989 -2.65633 0
M  V30 776 H 65.0075 -3.57338 -1.10727 0
M  V30 777 H 66.3405 -4.6956 -1.47562 0
M  V30 778 N 67.9926 0.231505 -1.5589 0
M  V30 779 C 69.4036 0.799327 -1.68724 0
M  V30 780 C 69.7546 1.85398 -0.642022 0
M  V30 781 O 68.8796 2.1539 0.208784 0
M  V30 782 C 69.4746 1.45664 -3.05888 0
M  V30 783 C 68.0336 1.97197 -3.20609 0
M  V30 784 C 67.1806 0.828552 -2.64632 0
M  V30 785 H 70.1316 0.00702616 -1.58698 0
M  V30 786 H 70.1526 2.32517 -3.01191 0
M  V30 787 H 69.6646 0.688808 -3.81939 0
M  V30 788 H 67.7656 2.76813 -2.4941 0
M  V30 789 H 67.8786 2.15878 -4.27707 0
M  V30 790 H 66.2426 1.23321 -2.22854 0
M  V30 791 H 67.0256 0.0735544 -3.43221 0
M  V30 792 N 69.4707 1.49531 0.497807 0
M  V30 793 C 70.6957 1.63159 1.28039 0
M  V30 794 C 71.1207 0.30418 1.85624 0
M  V30 795 O 70.4787 -0.728618 1.66015 0
M  V30 796 C 70.5267 2.70537 2.38416 0
M  V30 797 O 69.6307 2.29931 3.42353 0
M  V30 798 H 68.9717 0.546001 0.377861 0
M  V30 799 H 71.5017 1.9574 0.59558 0
M  V30 800 H 71.5117 2.92802 2.84132 0
M  V30 801 H 70.1867 3.6689 1.95869 0
M  V30 802 H 68.7637 2.18009 3.02533 0
M  V30 803 N 70.9488 -0.749086 1.3866 0
M  V30 804 C 71.9118 -1.84457 1.36045 0
M  V30 805 C 72.9118 -1.58682 0.260122 0
M  V30 806 O 74.1018 -1.66343 0.517261 0
M  V30 807 C 71.2338 -3.22008 1.11911 0
M  V30 808 H 72.4268 -1.88182 2.33512 0
M  V30 809 H 69.9798 -0.951266 1.24019 0
M  V30 810 H 70.7148 -3.2395 0.150686 0
M  V30 811 H 70.4998 -3.42111 1.91579 0
M  V30 812 H 71.9898 -4.0208 1.12788 0
M  V30 813 N 72.4269 -1.23603 -0.977757 0
M  V30 814 C 73.7039 -0.977897 -1.69401 0
M  V30 815 C 74.0839 0.502738 -2.05026 0
M  V30 816 O 73.4319 1.47459 -1.74551 0
M  V30 817 C 73.6419 -1.89077 -2.93345 0
M  V30 818 C 74.9899 -2.15579 -3.65802 0
M  V30 819 O 76.0139 -1.86648 -3.03383 0
M  V30 820 O 74.8729 -2.64658 -4.78141 0
M  V30 821 H 71.9669 -0.369025 -0.740101 0
M  V30 822 H 74.5129 -1.34657 -1.03274 0
M  V30 823 H 73.2849 -2.89158 -2.63634 0
M  V30 824 H 72.9079 -1.52463 -3.67207 0
M  V30 825 N 73.905 1.17692 -1.04816 0
M  V30 826 C 74.868 2.19787 -0.650117 0
M  V30 827 C 75.868 1.58044 0.296427 0
M  V30 828 O 77.058 1.74012 0.0808097 0
M  V30 829 C 74.19 3.40869 0.0456987 0
M  V30 830 H 75.383 2.56516 -1.5537 0
M  V30 831 H 72.936 1.31708 -0.841594 0
M  V30 832 H 73.671 3.09681 0.962726 0
M  V30 833 H 73.456 3.86928 -0.634727 0
M  V30 834 H 74.946 4.16445 0.310432 0
M  V30 835 N 75.3831 0.828654 1.34056 0
M  V30 836 C 76.7941 0.477534 1.8049 0
M  V30 837 C 77.1451 -1.00258 1.6865 0
M  V30 838 O 76.2701 -1.78057 1.22982 0
M  V30 839 C 76.8651 0.860018 3.27703 0
M  V30 840 C 75.4241 0.561185 3.72193 0
M  V30 841 C 74.5711 1.07385 2.55663 0
M  V30 842 H 77.5221 1.0183 1.21722 0
M  V30 843 H 77.5431 0.166038 3.80138 0
M  V30 844 H 77.0551 1.93731 3.36288 0
M  V30 845 H 75.1561 -0.506465 3.69142 0
M  V30 846 H 75.2691 1.10926 4.66082 0
M  V30 847 H 73.6331 0.495149 2.49841 0
M  V30 848 H 74.4161 2.15771 2.67016 0
M  V30 849 N 76.8612 -1.46375 0.584142 0
M  V30 850 C 77.7712 -2.34115 -0.150728 0
M  V30 851 C 78.7872 -1.49838 -0.884567 0
M  V30 852 O 79.9632 -1.82704 -0.847429 0
M  V30 853 C 77.0282 -3.2705 -1.15062 0
M  V30 854 C 76.0892 -4.27228 -0.421293 0
M  V30 855 C 75.3222 -5.15722 -1.37355 0
M  V30 856 O 75.5452 -5.07176 -2.61014 0
M  V30 857 O 74.4792 -5.95383 -0.883355 0
M  V30 858 H 78.3052 -2.98309 0.569708 0
M  V30 859 H 75.8902 -1.45373 0.344535 0
M  V30 860 H 77.7722 -3.84381 -1.72712 0
M  V30 861 H 76.4472 -2.65451 -1.8525 0
M  V30 862 H 75.3542 -3.7358 0.197085 0
M  V30 863 H 76.6872 -4.91616 0.239641 0
M  V30 864 N 78.3393 -0.321999 -1.54275 0
M  V30 865 C 79.7503 0.166384 -1.85957 0
M  V30 866 C 80.1013 1.51747 -1.24367 0
M  V30 867 O 79.2263 2.09317 -0.549124 0
M  V30 868 C 79.8213 0.308681 -3.37391 0
M  V30 869 C 78.3803 0.741286 -3.69028 0
M  V30 870 C 77.5273 -0.137937 -2.76957 0
M  V30 871 H 80.4783 -0.542335 -1.49146 0
M  V30 872 H 80.4993 1.13984 -3.63026 0
M  V30 873 H 80.0113 -0.674809 -3.82188 0
M  V30 874 H 78.1123 1.73458 -3.29762 0
M  V30 875 H 78.2253 0.546118 -4.75977 0
M  V30 876 H 76.5893 0.386251 -2.51754 0
M  V30 877 H 77.3723 -1.11816 -3.2458 0
M  V30 878 N 79.8174 1.5752 -0.0501392 0
M  V30 879 C 81.0944 1.83996 0.663685 0
M  V30 880 C 81.4744 0.938339 1.89099 0
M  V30 881 O 80.8224 -0.00087759 2.285 0
M  V30 882 C 81.0324 3.33702 1.02196 0
M  V30 883 C 82.3804 4.00691 1.40469 0
M  V30 884 O 83.4044 3.38321 1.11433 0
M  V30 885 O 82.2634 5.10658 1.94654 0
M  V30 886 H 79.3574 0.759385 0.32751 0
M  V30 887 H 81.9034 1.69514 -0.0794238 0
M  V30 888 H 80.6754 3.91015 0.149364 0
M  V30 889 H 80.2984 3.53368 1.82255 0
M  V30 890 N 81.2955 -0.223234 1.56011 0
M  V30 891 C 82.5355 -0.954962 1.8072 0
M  V30 892 C 82.8995 -1.81598 0.623384 0
M  V30 893 O 84.1005 -2.58132 0.749745 0
M  V30 894 C 82.3715 -1.77313 3.10314 0
M  V30 895 S 83.9305 -2.56073 3.56332 0
M  V30 896 H 80.7485 -0.320812 0.634508 0
M  V30 897 H 83.3505 -0.220686 1.9425 0
M  V30 898 H 82.0545 -1.13071 3.94516 0
M  V30 899 H 81.5855 -2.54974 2.99586 0
M  V30 900 H 83.6005 -3.79619 3.19536 0
M  V30 901 N 82.7736 -1.49793 -0.48987 0
M  V30 902 C 84.0216 -1.59525 -1.24081 0
M  V30 903 C 84.3426 -0.288953 -1.92847 0
M  V30 904 O 83.6126 0.692436 -1.83254 0
M  V30 905 H 82.1926 -0.587796 -0.460983 0
M  V30 906 H 84.8546 -1.86477 -0.566778 0
M  V30 907 H 83.9506 -2.39696 -1.99881 0
M  V30 908 N 84.2517 0.741722 -1.39055 0
M  V30 909 C 85.5287 1.49252 -1.26425 0
M  V30 910 C 85.9087 2.10705 0.129144 0
M  V30 911 O 85.2567 1.98045 1.13976 0
M  V30 912 C 85.4667 2.54934 -2.38347 0
M  V30 913 C 86.8147 3.21506 -2.77343 0
M  V30 914 O 87.8387 2.65245 -2.37747 0
M  V30 915 O 86.6977 4.23294 -3.45665 0
M  V30 916 H 83.7917 0.662451 -0.495064 0
M  V30 917 H 86.3377 0.776121 -1.50912 0
M  V30 918 H 85.1097 2.07857 -3.31529 0
M  V30 919 H 84.7327 3.34141 -2.15489 0
M  V30 920 N 85.7298 1.2412 0.971189 0
M  V30 921 C 87.1408 1.07236 1.52831 0
M  V30 922 C 87.4918 -0.357352 1.92918 0
M  V30 923 O 86.6168 -1.24528 1.76979 0
M  V30 924 C 87.2118 1.94043 2.77728 0
M  V30 925 C 85.7708 1.81394 3.29808 0
M  V30 926 C 84.9178 1.89189 2.02738 0
M  V30 927 H 87.8688 1.37648 0.789864 0
M  V30 928 H 87.8898 1.47066 3.5093 0
M  V30 929 H 87.4018 2.98093 2.4852 0
M  V30 930 H 85.5028 0.801634 3.63874 0
M  V30 931 H 85.6158 2.65294 3.98944 0
M  V30 932 H 83.9798 1.32877 2.17292 0
M  V30 933 H 84.7628 2.94812 1.759 0
M  V30 934 N 87.2079 -1.17134 1.05439 0
M  V30 935 C 88.6189 -1.69084 0.791676 0
M  V30 936 C 88.9699 -1.83822 -0.685839 0
M  V30 937 O 88.0949 -1.52757 -1.53278 0
M  V30 938 C 88.6899 -3.07119 1.4305 0
M  V30 939 C 87.2489 -3.56225 1.21577 0
M  V30 940 C 86.3959 -2.32421 1.51247 0
M  V30 941 H 89.3469 -1.01617 1.219 0
M  V30 942 H 89.3679 -3.71087 0.84112 0
M  V30 943 H 88.8799 -2.9636 2.50584 0
M  V30 944 H 86.9809 -3.72257 0.159787 0
M  V30 945 H 87.0939 -4.38837 1.92246 0
M  V30 946 H 85.4579 -2.3701 0.932653 0
M  V30 947 H 86.2409 -2.24268 2.5992 0
M  V30 948 N 88.686 -0.835752 -1.33615 0
M  V30 949 C 90.097 -0.487099 -1.80234 0
M  V30 950 C 90.448 0.993627 -1.69179 0
M  V30 951 O 89.573 1.77403 -1.23924 0
M  V30 952 C 90.168 -0.877385 -3.27242 0
M  V30 953 C 88.727 -0.580915 -3.7189 0
M  V30 954 C 87.874 -1.0874 -2.5509 0
M  V30 955 H 90.825 -1.02474 -1.2118 0
M  V30 956 H 90.846 -0.186195 -3.80044 0
M  V30 957 H 90.358 -1.95512 -3.35256 0
M  V30 958 H 88.459 0.486881 -3.69405 0
M  V30 959 H 88.572 -1.13396 -4.65487 0
M  V30 960 H 86.936 -0.508392 -2.49575 0
M  V30 961 H 87.719 -2.17184 -2.65868 0
M  V30 962 N 90.1641 1.46063 -0.591896 0
M  V30 963 C 91.4101 2.02638 -0.0811191 0
M  V30 964 C 91.7431 1.4613 1.27905 0
M  V30 965 O 91.0181 0.629908 1.84017 0
M  V30 966 C 91.3011 3.60091 -0.0252436 0
M  V30 967 C 91.1541 4.26965 -1.41496 0
M  V30 968 C 92.4731 4.3496 0.670685 0
M  V30 969 H 89.5921 0.73635 -0.0309524 0
M  V30 970 H 92.2341 1.741 -0.760859 0
M  V30 971 H 90.3841 3.84535 0.553624 0
M  V30 972 H 92.0561 4.13756 -2.0397 0
M  V30 973 H 90.2991 3.85971 -1.98011 0
M  V30 974 H 90.9701 5.35781 -1.32825 0
M  V30 975 H 93.4461 4.15716 0.178825 0
M  V30 976 H 92.3221 5.44686 0.678837 0
M  V30 977 H 92.5831 4.06685 1.73379 0
M  V30 978 N 91.6422 0.330177 1.54103 0
M  V30 979 C 92.6052 -0.520144 2.2322 0
M  V30 980 C 93.6052 -1.03828 1.22786 0
M  V30 981 O 94.7952 -0.929652 1.4732 0
M  V30 982 C 91.9272 -1.72317 2.94142 0
M  V30 983 H 93.1202 0.0841605 2.99782 0
M  V30 984 H 90.6732 0.0813433 1.56088 0
M  V30 985 H 91.4082 -2.36653 2.21734 0
M  V30 986 H 91.1932 -1.35898 3.67796 0
M  V30 987 H 92.6832 -2.3266 3.46784 0
M  V30 988 N 93.1203 -1.57491 0.0584922 0
M  V30 989 C 94.5313 -1.80526 -0.476138 0
M  V30 990 C 94.8823 -0.971334 -1.70469 0
M  V30 991 O 94.0073 -0.190012 -2.15564 0
M  V30 992 C 94.6023 -3.27424 -0.870587 0
M  V30 993 C 93.1613 -3.51351 -1.35015 0
M  V30 994 C 92.3083 -2.75343 -0.32887 0
M  V30 995 H 95.2593 -1.56133 0.284312 0
M  V30 996 H 95.2803 -3.38745 -1.73299 0
M  V30 997 H 94.7923 -3.88093 0.0237627 0
M  V30 998 H 92.8933 -2.95971 -2.26345 0
M  V30 999 H 93.0063 -4.60059 -1.33726 0
M  V30 1000 H 91.3703 -2.417 -0.803321 0
M  V30 1001 H 92.1533 -3.38743 0.557521 0
M  V30 1002 N 94.5984 0.214957 -1.56127 0
M  V30 1003 C 95.8234 0.95924 -1.83884 0
M  V30 1004 C 96.2484 1.7689 -0.639644 0
M  V30 1005 O 95.6064 1.76566 0.411601 0
M  V30 1006 C 95.6544 1.84723 -3.09693 0
M  V30 1007 O 94.7584 2.94346 -2.8885 0
M  V30 1008 H 94.0994 0.27125 -0.606069 0
M  V30 1009 H 96.6294 0.226276 -2.03345 0
M  V30 1010 H 96.6394 2.25576 -3.39969 0
M  V30 1011 H 95.3144 1.25218 -3.96602 0
M  V30 1012 H 93.8914 2.57391 -2.69823 0
M  V30 1013 N 96.0765 1.50051 0.48192 0
M  V30 1014 C 97.4925 1.37237 0.814756 0
M  V30 1015 C 97.6925 0.420109 1.97072 0
M  V30 1016 O 96.7485 -0.141246 2.52105 0
M  V30 1017 C 98.0615 2.78375 1.13701 0
M  V30 1018 C 99.6095 2.87213 1.2441 0
M  V30 1019 C 100.084 4.29161 1.59954 0
M  V30 1020 N 101.575 4.32061 1.66967 0
M  V30 1021 C 102.31 5.38879 1.95952 0
M  V30 1022 N 101.806 6.55918 2.23031 0
M  V30 1023 N 103.599 5.26312 1.97363 0
M  V30 1024 H 95.7505 2.10546 -0.28005 0
M  V30 1025 H 98.0135 0.945921 -0.0627454 0
M  V30 1026 H 97.7195 3.49845 0.360787 0
M  V30 1027 H 97.5935 3.14941 2.07586 0
M  V30 1028 H 99.9805 2.15969 2.01101 0
M  V30 1029 H 100.061 2.54204 0.285299 0
M  V30 1030 H 99.7055 5.00938 0.838067 0
M  V30 1031 H 99.6355 4.59648 2.56966 0
M  V30 1032 H 102.126 3.47661 1.48123 0
M  V30 1033 H 102.439 7.33139 2.44391 0
M  V30 1034 H 100.784 6.59112 2.20447 0
M  V30 1035 H 103.975 4.33876 1.75697 0
M  V30 1036 H 104.148 6.09649 2.19618 0
M  V30 1037 N 97.5546 -0.734337 1.39446 0
M  V30 1038 C 98.4846 -1.86155 1.40955 0
M  V30 1039 C 99.4656 -1.67898 0.272827 0
M  V30 1040 O 100.651 -1.88207 0.478743 0
M  V30 1041 C 97.7806 -3.23912 1.25294 0
M  V30 1042 C 96.7346 -3.56808 2.36373 0
M  V30 1043 C 96.0606 -4.93508 2.058 0
M  V30 1044 C 97.3606 -3.59713 3.78687 0
M  V30 1045 H 99.0546 -1.8515 2.35287 0
M  V30 1046 H 96.6006 -0.889367 1.13253 0
M  V30 1047 H 98.5536 -4.02443 1.2497 0
M  V30 1048 H 97.2776 -3.25446 0.274308 0
M  V30 1049 H 95.9366 -2.80606 2.35914 0
M  V30 1050 H 95.5846 -4.91623 1.06374 0
M  V30 1051 H 95.2846 -5.16486 2.80208 0
M  V30 1052 H 96.8086 -5.74396 2.07128 0
M  V30 1053 H 98.2226 -4.2832 3.81071 0
M  V30 1054 H 96.6196 -3.94209 4.52459 0
M  V30 1055 H 97.6896 -2.59504 4.09617 0
M  V30 1056 N 99.0327 -1.24633 -0.964593 0
M  V30 1057 C 99.9627 -1.06611 -2.07741 0
M  V30 1058 C 100.944 0.0218666 -1.70086 0
M  V30 1059 O 102.129 -0.145793 -1.93652 0
M  V30 1060 C 99.2587 -0.673444 -3.40708 0
M  V30 1061 C 98.2127 -1.71054 -3.92332 0
M  V30 1062 C 97.5387 -1.17285 -5.21678 0
M  V30 1063 C 98.8387 -3.10718 -4.19824 0
M  V30 1064 H 100.533 -1.99693 -2.23076 0
M  V30 1065 H 98.0787 -0.96152 -1.07195 0
M  V30 1066 H 100.032 -0.534345 -4.17998 0
M  V30 1067 H 98.7557 0.293073 -3.25282 0
M  V30 1068 H 97.4147 -1.83791 -3.17201 0
M  V30 1069 H 97.0627 -0.196847 -5.02615 0
M  V30 1070 H 96.7627 -1.86592 -5.57187 0
M  V30 1071 H 98.2867 -1.04593 -6.01575 0
M  V30 1072 H 99.7007 -3.01192 -4.87808 0
M  V30 1073 H 98.0977 -3.77406 -4.66567 0
M  V30 1074 H 99.1677 -3.58524 -3.26479 0
M  V30 1075 N 100.511 1.16574 -1.06058 0
M  V30 1076 C 101.922 1.68662 -0.800632 0
M  V30 1077 C 102.273 1.84184 0.67608 0
M  V30 1078 O 101.398 1.53568 1.52466 0
M  V30 1079 C 101.993 3.06356 -1.44676 0
M  V30 1080 C 100.552 3.55575 -1.23465 0
M  V30 1081 C 99.6988 2.31616 -1.52477 0
M  V30 1082 H 102.65 1.00969 -1.22438 0
M  V30 1083 H 102.671 3.70636 -0.860788 0
M  V30 1084 H 102.183 2.95027 -2.52152 0
M  V30 1085 H 100.284 3.72167 -0.179527 0
M  V30 1086 H 100.397 4.37812 -1.94571 0
M  V30 1087 H 98.7608 2.36512 -0.945209 0
M  V30 1088 H 99.5438 2.22887 -2.61106 0
M  V30 1089 N 101.989 0.842826 1.3317 0
M  V30 1090 C 102.919 0.294028 2.31641 0
M  V30 1091 C 103.9 -0.600401 1.59151 0
M  V30 1092 O 105.085 -0.523124 1.87022 0
M  V30 1093 C 102.215 -0.528416 3.43257 0
M  V30 1094 C 101.169 0.27056 4.27144 0
M  V30 1095 C 100.495 -0.675881 5.30411 0
M  V30 1096 C 101.795 1.48981 5.00602 0
M  V30 1097 H 103.489 1.11681 2.77791 0
M  V30 1098 H 101.035 0.538478 1.33553 0
M  V30 1099 H 102.988 -0.922674 4.11175 0
M  V30 1100 H 101.712 -1.38445 2.95805 0
M  V30 1101 H 100.371 0.646427 3.60856 0
M  V30 1102 H 100.019 -1.52842 4.79216 0
M  V30 1103 H 99.7189 -0.145374 5.8742 0
M  V30 1104 H 101.243 -1.06757 6.01195 0
M  V30 1105 H 102.657 1.16849 5.61266 0
M  V30 1106 H 101.054 1.95739 5.6728 0
M  V30 1107 H 102.124 2.25746 4.29147 0
M  V30 1108 N 103.467 -1.45747 0.599634 0
M  V30 1109 C 104.414 -2.30467 -0.123849 0
M  V30 1110 C 105.384 -1.41632 -0.86774 0
M  V30 1111 O 106.569 -1.70568 -0.855056 0
M  V30 1112 C 103.709 -3.26402 -1.12051 0
M  V30 1113 C 102.822 -4.3034 -0.37832 0
M  V30 1114 C 101.957 -5.13389 -1.364 0
M  V30 1115 C 100.996 -6.09061 -0.609171 0
M  V30 1116 N 100.133 -6.84918 -1.54374 0
M  V30 1117 H 104.973 -2.91802 0.604627 0
M  V30 1118 H 102.51 -1.43797 0.309972 0
M  V30 1119 H 104.468 -3.80482 -1.7114 0
M  V30 1120 H 103.098 -2.66839 -1.8165 0
M  V30 1121 H 102.15 -3.78984 0.327929 0
M  V30 1122 H 103.462 -4.98354 0.210997 0
M  V30 1123 H 102.616 -5.7183 -2.02719 0
M  V30 1124 H 101.355 -4.45376 -1.98725 0
M  V30 1125 H 100.36 -5.49758 0.0676979 0
M  V30 1126 H 101.585 -6.79099 0.00891991 0
M  V30 1127 H 99.531 -6.19601 -2.15478 0
M  V30 1128 H 99.448 -7.49254 -1.00766 0
M  V30 1129 H 100.716 -7.47906 -2.19676 0
M  V30 1130 N 104.945 -0.338344 -1.53925 0
M  V30 1131 C 106.356 0.146651 -1.86123 0
M  V30 1132 C 106.707 1.5042 -1.2597 0
M  V30 1133 O 105.832 2.08723 -0.571294 0
M  V30 1134 C 106.427 0.272879 -3.37699 0
M  V30 1135 C 104.986 0.702103 -3.69794 0
M  V30 1136 C 104.133 -0.167304 -2.76795 0
M  V30 1137 H 107.084 -0.558123 -1.48562 0
M  V30 1138 H 107.105 1.10128 -3.64214 0
M  V30 1139 H 106.617 -0.715307 -3.81451 0
M  V30 1140 H 104.718 1.6995 -3.31584 0
M  V30 1141 H 104.831 0.495604 -4.7653 0
M  V30 1142 H 103.195 0.359527 -2.5215 0
M  V30 1143 H 103.978 -1.15253 -3.23375 0
M  V30 1144 N 106.423 1.57458 -0.0668435 0
M  V30 1145 C 107.669 1.93587 0.6043 0
M  V30 1146 C 108.002 0.946722 1.69561 0
M  V30 1147 O 107.277 -0.0248516 1.94484 0
M  V30 1148 C 107.56 3.40014 1.18585 0
M  V30 1149 C 107.413 4.49685 0.101529 0
M  V30 1150 C 108.732 3.87154 2.09284 0
M  V30 1151 H 105.851 0.703958 0.218202 0
M  V30 1152 H 108.493 1.89542 -0.131804 0
M  V30 1153 H 106.643 3.43592 1.81319 0
M  V30 1154 H 108.315 4.5823 -0.531279 0
M  V30 1155 H 106.558 4.30059 -0.568487 0
M  V30 1156 H 107.229 5.49266 0.54874 0
M  V30 1157 H 109.705 3.85551 1.56491 0
M  V30 1158 H 108.581 4.90231 2.46911 0
M  V30 1159 H 108.842 3.2481 2.99918 0
M  V30 1160 N 107.901 -0.206675 1.56239 0
M  V30 1161 C 108.833 -1.27997 1.9013 0
M  V30 1162 C 109.846 -1.42299 0.790883 0
M  V30 1163 O 111.035 -1.42931 1.06925 0
M  V30 1164 C 108.135 -2.65368 2.10792 0
M  V30 1165 C 107.308 -2.72824 3.41886 0
M  V30 1166 C 106.367 -3.9131 3.51799 0
M  V30 1167 O 105.393 -3.78953 4.24716 0
M  V30 1168 N 106.595 -5.06265 2.84035 0
M  V30 1169 H 109.36 -0.992444 2.82791 0
M  V30 1170 H 106.921 -0.396652 1.56966 0
M  V30 1171 H 108.913 -3.43039 2.14724 0
M  V30 1172 H 107.483 -2.86657 1.24685 0
M  V30 1173 H 106.703 -1.81515 3.49923 0
M  V30 1174 H 107.991 -2.74786 4.28217 0
M  V30 1175 H 107.389 -5.19203 2.246 0
M  V30 1176 H 105.946 -5.81925 2.93609 0
M  V30 1177 N 109.379 -1.50304 -0.473955 0
M  V30 1178 C 110.342 -1.6841 -1.55469 0
M  V30 1179 C 111.342 -0.554905 -1.50922 0
M  V30 1180 O 112.532 -0.821882 -1.53593 0
M  V30 1181 C 109.664 -1.70667 -2.95102 0
M  V30 1182 H 110.857 -2.64828 -1.40733 0
M  V30 1183 H 108.41 -1.39742 -0.700132 0
M  V30 1184 H 109.145 -0.75932 -3.15285 0
M  V30 1185 H 108.93 -2.52698 -2.9981 0
M  V30 1186 H 110.42 -1.8664 -3.73571 0
M  V30 1187 N 110.857 0.726932 -1.39834 0
M  V30 1188 C 111.82 1.82269 -1.38962 0
M  V30 1189 C 112.82 1.58248 -0.285334 0
M  V30 1190 O 114.01 1.65499 -0.54366 0
M  V30 1191 C 111.142 3.20186 -1.17019 0
M  V30 1192 H 112.335 1.84443 -2.36476 0
M  V30 1193 H 109.888 0.931416 -1.25516 0
M  V30 1194 H 110.623 3.23669 -0.202204 0
M  V30 1195 H 110.408 3.3902 -1.96998 0
M  V30 1196 H 111.898 4.00235 -1.1917 0
M  V30 1197 N 112.336 1.25143 0.95797 0
M  V30 1198 C 113.564 1.12424 1.73691 0
M  V30 1199 C 113.979 -0.322304 1.86029 0
M  V30 1200 O 113.336 -1.22186 1.35561 0
M  V30 1201 C 113.387 1.76933 3.15241 0
M  V30 1202 O 113.108 3.15932 3.03511 0
M  V30 1203 C 114.609 1.6995 4.09429 0
M  V30 1204 H 111.829 0.3923 0.544373 0
M  V30 1205 H 114.373 1.6544 1.20207 0
M  V30 1206 H 112.528 1.27895 3.6568 0
M  V30 1207 H 112.942 3.47598 3.9278 0
M  V30 1208 H 114.416 2.19753 5.06372 0
M  V30 1209 H 114.893 0.662619 4.34173 0
M  V30 1210 H 115.499 2.18461 3.64904 0
M  V30 1211 N 113.814 -1.1601 1.06675 0
M  V30 1212 C 115.225 -1.68235 0.809565 0
M  V30 1213 C 115.576 -1.8454 -0.666303 0
M  V30 1214 O 114.701 -1.54374 -1.5165 0
M  V30 1215 C 115.296 -3.05585 1.46299 0
M  V30 1216 C 113.855 -3.54915 1.25349 0
M  V30 1217 C 113.002 -2.30804 1.53703 0
M  V30 1218 H 115.953 -1.00318 1.22971 0
M  V30 1219 H 115.974 -3.70174 0.880431 0
M  V30 1220 H 115.486 -2.93686 2.53713 0
M  V30 1221 H 113.587 -3.72067 0.199261 0
M  V30 1222 H 113.7 -4.36774 1.9689 0
M  V30 1223 H 112.064 -2.36007 0.957739 0
M  V30 1224 H 112.847 -2.21499 2.62284 0
M  V30 1225 N 115.292 -0.849877 -1.32721 0
M  V30 1226 C 116.517 -0.463856 -2.02146 0
M  V30 1227 C 116.942 0.930449 -1.63476 0
M  V30 1228 O 116.3 1.61033 -0.832952 0
M  V30 1229 C 116.348 -0.604955 -3.55489 0
M  V30 1230 O 115.452 0.36425 -4.10788 0
M  V30 1231 H 114.793 -0.187046 -0.637111 0
M  V30 1232 H 117.323 -1.14775 -1.69375 0
M  V30 1233 H 117.333 -0.490696 -4.05038 0
M  V30 1234 H 116.008 -1.62174 -3.82978 0
M  V30 1235 H 114.585 0.206628 -3.72327 0
M  V30 1236 N 116.77 1.45427 -0.607355 0
M  V30 1237 C 118.186 1.57283 -0.270985 0
M  V30 1238 C 118.386 1.59875 1.22647 0
M  V30 1239 O 117.442 1.52893 2.00948 0
M  V30 1240 C 118.755 2.85566 -0.941952 0
M  V30 1241 C 120.303 2.9924 -0.917849 0
M  V30 1242 C 120.778 4.30293 -1.56882 0
M  V30 1243 N 122.269 4.37051 -1.5343 0
M  V30 1244 C 123.004 5.37123 -2.00715 0
M  V30 1245 N 122.5 6.43734 -2.56084 0
M  V30 1246 N 124.293 5.28479 -1.91484 0
M  V30 1247 H 116.444 1.41988 -1.57966 0
M  V30 1248 H 118.707 0.67885 -0.661715 0
M  V30 1249 H 118.413 2.8955 -1.99633 0
M  V30 1250 H 118.287 3.74322 -0.465096 0
M  V30 1251 H 120.674 2.94822 0.127984 0
M  V30 1252 H 120.755 2.11895 -1.43297 0
M  V30 1253 H 120.399 4.35469 -2.61398 0
M  V30 1254 H 120.329 5.16454 -1.02873 0
M  V30 1255 H 122.82 3.60615 -1.12982 0
M  V30 1256 H 123.133 7.16341 -2.89958 0
M  V30 1257 H 121.478 6.44485 -2.60122 0
M  V30 1258 H 124.669 4.44098 -1.47967 0
M  V30 1259 H 124.842 6.0632 -2.28648 0
M  V30 1260 N 118.248 0.346503 1.53744 0
M  V30 1261 C 119.476 -0.25041 2.05379 0
M  V30 1262 C 119.891 -1.43979 1.22129 0
M  V30 1263 O 119.248 -1.80677 0.257321 0
M  V30 1264 C 119.299 -0.662575 3.55376 0
M  V30 1265 O 119.02 0.479515 4.35468 0
M  V30 1266 C 120.521 -1.31989 4.23195 0
M  V30 1267 H 117.741 -0.0478198 0.669294 0
M  V30 1268 H 120.285 0.499346 1.9831 0
M  V30 1269 H 118.44 -1.36227 3.62658 0
M  V30 1270 H 118.854 0.15037 5.24284 0
M  V30 1271 H 120.328 -1.55902 5.29527 0
M  V30 1272 H 120.805 -2.27436 3.75725 0
M  V30 1273 H 121.411 -0.662154 4.20114 0
M  V30 1274 N 119.726 -1.57421 0.075193 0
M  V30 1275 C 121.003 -1.85029 -0.634329 0
M  V30 1276 C 121.383 -0.968305 -1.87582 0
M  V30 1277 O 120.731 -0.0354749 -2.28472 0
M  V30 1278 C 120.941 -3.35286 -0.968742 0
M  V30 1279 C 122.289 -4.02875 -1.34077 0
M  V30 1280 O 123.313 -3.40051 -1.06037 0
M  V30 1281 O 122.172 -5.13691 -1.86506 0
M  V30 1282 H 119.266 -0.7645 -0.315387 0
M  V30 1283 H 121.812 -1.69366 0.106382 0
M  V30 1284 H 120.584 -3.91203 -0.0871376 0
M  V30 1285 H 120.207 -3.56223 -1.7661 0
M  V30 1286 N 121.204 0.198386 -1.56346 0
M  V30 1287 C 122.615 0.763358 -1.70381 0
M  V30 1288 C 122.966 1.83995 -0.681203 0
M  V30 1289 O 122.091 2.15785 0.16305 0
M  V30 1290 C 122.686 1.39143 -3.08909 0
M  V30 1291 C 121.245 1.90352 -3.2472 0
M  V30 1292 C 120.392 0.772233 -2.6633 0
M  V30 1293 H 123.343 -0.0266377 -1.58678 0
M  V30 1294 H 123.364 2.26076 -3.06055 0
M  V30 1295 H 122.876 0.607638 -3.83314 0
M  V30 1296 H 120.977 2.71461 -2.55225 0
M  V30 1297 H 121.09 2.06757 -4.3219 0
M  V30 1298 H 119.454 1.18566 -2.2542 0
M  V30 1299 H 120.237 0.00073556 -3.433 0
M  V30 1300 N 122.682 1.50554 0.465978 0
M  V30 1301 C 123.612 1.72722 1.57128 0
M  V30 1302 C 124.593 0.576294 1.6004 0
M  V30 1303 O 125.778 0.81598 1.76225 0
M  V30 1304 C 122.908 1.82605 2.95419 0
M  V30 1305 C 121.862 2.97835 3.07373 0
M  V30 1306 C 121.188 2.92867 4.47363 0
M  V30 1307 C 122.488 4.38265 2.84114 0
M  V30 1308 H 124.182 2.65267 1.38829 0
M  V30 1309 H 121.728 1.2765 0.666441 0
M  V30 1310 H 123.681 1.96698 3.72677 0
M  V30 1311 H 122.405 0.866858 3.14886 0
M  V30 1312 H 121.064 2.83401 2.3255 0
M  V30 1313 H 120.712 1.94783 4.63755 0
M  V30 1314 H 120.412 3.70227 4.56296 0
M  V30 1315 H 121.936 3.09015 5.26633 0
M  V30 1316 H 123.35 4.53198 3.51118 0
M  V30 1317 H 121.747 5.17115 3.04487 0
M  V30 1318 H 122.817 4.50281 1.7993 0
M  V30 1319 N 124.16 -0.719506 1.40217 0
M  V30 1320 C 125.406 -1.48152 1.38488 0
M  V30 1321 C 125.739 -1.94195 -0.0141867 0
M  V30 1322 O 125.014 -1.67884 -0.982096 0
M  V30 1323 C 125.297 -2.71035 2.37091 0
M  V30 1324 C 125.15 -2.30912 3.86005 0
M  V30 1325 C 126.469 -3.73182 2.33288 0
M  V30 1326 H 123.588 -0.537395 0.504357 0
M  V30 1327 H 126.23 -0.821472 1.71324 0
M  V30 1328 H 124.38 -3.27352 2.0922 0
M  V30 1329 H 126.052 -1.80107 4.24687 0
M  V30 1330 H 124.295 -1.62958 4.02029 0
M  V30 1331 H 124.966 -3.18978 4.50508 0
M  V30 1332 H 127.442 -3.26485 2.57966 0
M  V30 1333 H 126.318 -4.56806 3.04334 0
M  V30 1334 H 126.579 -4.21202 1.34317 0
M  V30 1335 N 125.638 -1.25649 -0.95132 0
M  V30 1336 C 126.568 -1.08808 -2.06599 0
M  V30 1337 C 127.549 0.00382547 -1.701 0
M  V30 1338 O 128.734 -0.166325 -1.93486 0
M  V30 1339 C 125.864 -0.709542 -3.39975 0
M  V30 1340 C 124.818 -1.75206 -3.90496 0
M  V30 1341 C 124.144 -1.22811 -5.20405 0
M  V30 1342 C 125.444 -3.15153 -4.16504 0
M  V30 1343 H 127.138 -2.02048 -2.20946 0
M  V30 1344 H 124.684 -0.972835 -1.06169 0
M  V30 1345 H 126.637 -0.578649 -4.17408 0
M  V30 1346 H 125.361 0.258556 -3.25575 0
M  V30 1347 H 124.02 -1.87145 -3.15234 0
M  V30 1348 H 123.668 -0.250145 -5.02378 0
M  V30 1349 H 123.368 -1.92492 -5.55176 0
M  V30 1350 H 124.892 -1.10968 -6.00432 0
M  V30 1351 H 126.306 -3.06349 -4.84586 0
M  V30 1352 H 124.703 -3.82333 -4.62538 0
M  V30 1353 H 125.773 -3.61966 -3.22658 0
M  V30 1354 N 127.117 1.15442 -1.07289 0
M  V30 1355 C 128.363 1.86489 -0.796846 0
M  V30 1356 C 128.696 1.82078 0.675371 0
M  V30 1357 O 127.971 1.24346 1.4956 0
M  V30 1358 C 128.254 3.35626 -1.30489 0
M  V30 1359 C 128.107 3.48673 -2.84161 0
M  V30 1360 C 129.426 4.30357 -0.920907 0
M  V30 1361 H 126.545 0.677144 -0.290939 0
M  V30 1362 H 129.187 1.35633 -1.33056 0
M  V30 1363 H 127.337 3.79068 -0.850883 0
M  V30 1364 H 129.009 3.14099 -3.37846 0
M  V30 1365 H 127.252 2.90253 -3.22391 0
M  V30 1366 H 127.923 4.53453 -3.14777 0
M  V30 1367 H 130.399 3.94871 -1.3121 0
M  V30 1368 H 129.275 5.33193 -1.30372 0
M  V30 1369 H 129.536 4.4176 0.173226 0
M  V30 1370 N 128.595 0.856903 1.32268 0
M  V30 1371 C 129.842 0.461386 1.97174 0
M  V30 1372 C 130.17 -0.983491 1.67803 0
M  V30 1373 O 129.425 -1.70541 0.959903 0
M  V30 1374 C 129.724 0.649919 3.51441 0
M  V30 1375 C 129.39 2.0656 4.00804 0
M  V30 1376 C 128.052 2.45279 4.13995 0
M  V30 1377 C 130.404 2.98947 4.26943 0
M  V30 1378 C 127.732 3.75653 4.50668 0
M  V30 1379 C 130.084 4.28822 4.65075 0
M  V30 1380 C 128.748 4.67472 4.76472 0
M  V30 1381 H 128.018 0.168833 0.72151 0
M  V30 1382 H 130.665 1.08739 1.57633 0
M  V30 1383 H 128.97 -0.0593018 3.91755 0
M  V30 1384 H 130.667 0.32391 3.9969 0
M  V30 1385 H 127.257 1.75495 3.91024 0
M  V30 1386 H 131.441 2.70265 4.16258 0
M  V30 1387 H 126.697 4.05379 4.57688 0
M  V30 1388 H 130.871 5.0047 4.84255 0
M  V30 1389 H 128.498 5.68539 5.04646 0
M  V30 1390 N 130.073 -1.45103 0.615059 0
M  V30 1391 C 131.319 -2.02483 0.113347 0
M  V30 1392 C 131.652 -1.48146 -1.25564 0
M  V30 1393 O 130.927 -0.659104 -1.82992 0
M  V30 1394 C 131.21 -3.60005 0.0825278 0
M  V30 1395 C 131.063 -4.2466 1.48271 0
M  V30 1396 C 132.382 -4.35972 -0.601401 0
M  V30 1397 H 129.501 -0.735764 0.0426632 0
M  V30 1398 H 132.143 -1.72868 0.788461 0
M  V30 1399 H 130.293 -3.85367 -0.492378 0
M  V30 1400 H 131.965 -4.10458 2.10527 0
M  V30 1401 H 130.208 -3.82772 2.04127 0
M  V30 1402 H 130.879 -5.336 1.41332 0
M  V30 1403 H 133.355 -4.15947 -0.112666 0
M  V30 1404 H 132.231 -5.45697 -0.592097 0
M  V30 1405 H 132.492 -4.09391 -1.66887 0
M  V30 1406 N 131.551 -0.354651 -1.53558 0
M  V30 1407 C 132.461 0.50515 -2.29097 0
M  V30 1408 C 133.477 1.10223 -1.34636 0
M  V30 1409 O 134.653 1.11553 -1.67684 0
M  V30 1410 C 131.718 1.63479 -3.05738 0
M  V30 1411 C 130.779 1.06636 -4.15845 0
M  V30 1412 C 130.012 2.14217 -4.88822 0
M  V30 1413 O 130.235 3.35137 -4.61562 0
M  V30 1414 O 129.169 1.77887 -5.75013 0
M  V30 1415 H 132.995 -0.109237 -3.03503 0
M  V30 1416 H 130.58 -0.119357 -1.48922 0
M  V30 1417 H 132.462 2.2918 -3.5363 0
M  V30 1418 H 131.137 2.23478 -2.34178 0
M  V30 1419 H 130.044 0.373565 -3.7223 0
M  V30 1420 H 131.377 0.511081 -4.89539 0
M  V30 1421 N 133.029 1.57378 -0.0835403 0
M  V30 1422 C 134.254 1.98682 0.594987 0
M  V30 1423 C 134.679 0.961969 1.61641 0
M  V30 1424 O 134.037 -0.0709989 1.81161 0
M  V30 1425 C 134.085 3.38988 1.2296 0
M  V30 1426 O 133.189 3.39208 2.34546 0
M  V30 1427 H 132.53 0.646368 0.152002 0
M  V30 1428 H 135.06 2.03961 -0.161533 0
M  V30 1429 H 135.07 3.76431 1.57366 0
M  V30 1430 H 133.745 4.13107 0.481228 0
M  V30 1431 H 132.322 3.13548 2.01846 0
M  V30 1432 N 134.507 -0.190092 1.56449 0
M  V30 1433 C 135.437 -1.23816 1.97969 0
M  V30 1434 C 136.418 -1.47201 0.852395 0
M  V30 1435 O 137.603 -1.58854 1.1171 0
M  V30 1436 C 134.733 -2.5813 2.3235 0
M  V30 1437 C 133.687 -2.49348 3.47864 0
M  V30 1438 C 133.013 -3.8798 3.67934 0
M  V30 1439 C 134.313 -2.01424 4.81898 0
M  V30 1440 H 136.007 -0.89311 2.85769 0
M  V30 1441 H 133.553 -0.428177 1.37487 0
M  V30 1442 H 135.506 -3.31637 2.59991 0
M  V30 1443 H 134.23 -2.94386 1.41438 0
M  V30 1444 H 132.889 -1.78297 3.20321 0
M  V30 1445 H 132.537 -4.21597 2.74344 0
M  V30 1446 H 132.237 -3.82978 4.45648 0
M  V30 1447 H 133.761 -4.63101 3.97957 0
M  V30 1448 H 135.175 -2.64693 5.08538 0
M  V30 1449 H 133.572 -2.07413 5.63116 0
M  V30 1450 H 134.642 -0.967677 4.75146 0
M  V30 1451 N 135.985 -1.50799 -0.457987 0
M  V30 1452 C 137.215 -1.65977 -1.23025 0
M  V30 1453 C 137.623 -0.347918 -1.85974 0
M  V30 1454 O 136.966 0.68148 -1.70592 0
M  V30 1455 C 137.028 -2.70309 -2.3701 0
M  V30 1456 C 136.692 -4.135 -1.94594 0
M  V30 1457 C 137.689 -4.98949 -1.46101 0
M  V30 1458 C 135.374 -4.5949 -2.02915 0
M  V30 1459 C 137.368 -6.28442 -1.06489 0
M  V30 1460 C 135.055 -5.88984 -1.62914 0
M  V30 1461 C 136.053 -6.73286 -1.1478 0
M  V30 1462 O 135.741 -8.00362 -0.75339 0
M  V30 1463 H 135.473 -0.56064 -0.377702 0
M  V30 1464 H 138.027 -1.97857 -0.551537 0
M  V30 1465 H 136.257 -2.337 -3.08093 0
M  V30 1466 H 137.946 -2.74574 -2.98938 0
M  V30 1467 H 138.712 -4.6463 -1.39084 0
M  V30 1468 H 134.591 -3.94009 -2.39328 0
M  V30 1469 H 138.135 -6.94194 -0.688488 0
M  V30 1470 H 134.032 -6.22822 -1.69595 0
M  V30 1471 H 134.8 -8.13744 -0.88108 0
M  V30 1472 N 137.463 0.71206 -1.40597 0
M  V30 1473 C 138.688 1.50617 -1.42581 0
M  V30 1474 C 139.113 1.88079 -0.0282102 0
M  V30 1475 O 138.471 1.53511 0.964579 0
M  V30 1476 C 138.519 2.7557 -2.3258 0
M  V30 1477 O 137.623 3.72414 -1.77148 0
M  V30 1478 H 136.964 0.453966 -0.484573 0
M  V30 1479 H 139.494 0.876649 -1.84868 0
M  V30 1480 H 139.504 3.2406 -2.47889 0
M  V30 1481 H 138.179 2.47639 -3.34138 0
M  V30 1482 H 136.756 3.31276 -1.71204 0
M  V30 1483 N 138.941 1.26152 0.944643 0
M  V30 1484 C 139.873 1.03199 2.04652 0
M  V30 1485 C 140.886 -0.00642356 1.62799 0
M  V30 1486 O 142.075 0.233263 1.76969 0
M  V30 1487 C 139.175 0.540111 3.34568 0
M  V30 1488 C 138.348 1.64697 4.05208 0
M  V30 1489 C 137.407 1.15374 5.13396 0
M  V30 1490 O 136.433 1.85013 5.38293 0
M  V30 1491 N 137.635 0.00031529 5.805 0
M  V30 1492 H 140.4 1.9808 2.2491 0
M  V30 1493 H 137.961 1.17491 1.11389 0
M  V30 1494 H 139.953 0.194401 4.04233 0
M  V30 1495 H 138.523 -0.315021 3.11009 0
M  V30 1496 H 137.743 2.16379 3.29506 0
M  V30 1497 H 139.031 2.3903 4.49157 0
M  V30 1498 H 138.429 -0.581336 5.62705 0
M  V30 1499 H 136.986 -0.286346 6.51171 0
M  V30 1500 N 140.419 -1.14872 1.07899 0
M  V30 1501 C 141.349 -2.2193 0.725887 0
M  V30 1502 C 142.33 -1.67622 -0.28927 0
M  V30 1503 O 143.515 -1.93533 -0.160787 0
M  V30 1504 C 140.645 -3.47061 0.128856 0
M  V30 1505 C 139.599 -4.14363 1.07178 0
M  V30 1506 C 138.925 -5.33636 0.337229 0
M  V30 1507 C 140.225 -4.63492 2.40775 0
M  V30 1508 H 141.919 -2.51724 1.62097 0
M  V30 1509 H 139.465 -1.20991 0.780838 0
M  V30 1510 H 141.418 -4.21199 -0.130147 0
M  V30 1511 H 140.142 -3.16617 -0.80134 0
M  V30 1512 H 138.801 -3.42173 1.3158 0
M  V30 1513 H 138.449 -4.99449 -0.596606 0
M  V30 1514 H 138.149 -5.79609 0.965788 0
M  V30 1515 H 139.673 -6.10539 0.0861567 0
M  V30 1516 H 141.087 -5.2913 2.20669 0
M  V30 1517 H 139.484 -5.20148 2.99276 0
M  V30 1518 H 140.554 -3.78834 3.02676 0
M  V30 1519 N 141.898 -0.863906 -1.31812 0
M  V30 1520 C 143.146 -0.470904 -1.96537 0
M  V30 1521 C 143.467 0.978771 -1.68657 0
M  V30 1522 O 142.737 1.6853 -0.998717 0
M  V30 1523 H 141.317 -0.171148 -0.72713 0
M  V30 1524 H 143.979 -1.10236 -1.60729 0
M  V30 1525 H 143.075 -0.623616 -3.05806 0
M  V30 1526 N 143.376 1.44774 -0.622745 0
M  V30 1527 C 144.308 2.28856 0.125485 0
M  V30 1528 C 145.321 1.40811 0.817069 0
M  V30 1529 O 146.51 1.65044 0.679918 0
M  V30 1530 C 143.61 3.16963 1.19949 0
M  V30 1531 C 142.783 4.33374 0.592064 0
M  V30 1532 C 141.842 5.02577 1.55893 0
M  V30 1533 O 140.868 5.58873 1.07933 0
M  V30 1534 N 142.07 5.03256 2.89334 0
M  V30 1535 H 144.835 2.93713 -0.596068 0
M  V30 1536 H 142.396 1.55129 -0.463303 0
M  V30 1537 H 144.388 3.60123 1.84644 0
M  V30 1538 H 142.958 2.53913 1.82337 0
M  V30 1539 H 142.178 3.93509 -0.233322 0
M  V30 1540 H 143.466 5.08527 0.166738 0
M  V30 1541 H 142.864 4.58836 3.30887 0
M  V30 1542 H 141.421 5.50232 3.49412 0
M  V30 1543 N 144.854 0.36279 1.53368 0
M  V30 1544 C 145.764 -0.492994 2.29362 0
M  V30 1545 C 146.78 -1.09507 1.35219 0
M  V30 1546 O 147.956 -1.10662 1.68273 0
M  V30 1547 C 145.021 -1.61855 3.066 0
M  V30 1548 C 144.082 -1.04429 4.16405 0
M  V30 1549 C 143.315 -2.11621 4.89951 0
M  V30 1550 O 143.538 -3.32684 4.63333 0
M  V30 1551 O 142.472 -1.74835 5.75948 0
M  V30 1552 H 146.298 0.125331 3.03441 0
M  V30 1553 H 143.883 0.127253 1.48857 0
M  V30 1554 H 145.765 -2.27302 3.54841 0
M  V30 1555 H 144.44 -2.22233 2.3536 0
M  V30 1556 H 143.347 -0.353819 3.72423 0
M  V30 1557 H 144.68 -0.485113 4.89804 0
M  V30 1558 N 146.332 -1.57332 0.0918853 0
M  V30 1559 C 147.578 -1.94524 -0.573425 0
M  V30 1560 C 147.911 -0.973578 -1.68033 0
M  V30 1561 O 147.186 -0.00609226 -1.94499 0
M  V30 1562 C 147.469 -3.41858 -1.13161 0
M  V30 1563 C 147.322 -4.4979 -0.0299747 0
M  V30 1564 C 148.641 -3.90435 -2.03098 0
M  V30 1565 H 145.76 -0.70734 -0.206975 0
M  V30 1566 H 148.402 -1.89309 0.161942 0
M  V30 1567 H 146.552 -3.46433 -1.7583 0
M  V30 1568 H 148.224 -4.57327 0.604112 0
M  V30 1569 H 146.467 -4.291 0.636833 0
M  V30 1570 H 147.138 -5.50069 -0.461287 0
M  V30 1571 H 149.614 -3.87992 -1.50338 0
M  V30 1572 H 148.49 -4.94097 -2.39081 0
M  V30 1573 H 148.751 -3.29541 -2.94712 0
M  V30 1574 N 147.81 0.181792 -1.56548 0
M  V30 1575 C 149.056 0.901431 -1.81665 0
M  V30 1576 C 149.389 1.82347 -0.668075 0
M  V30 1577 O 148.664 1.91669 0.330615 0
M  V30 1578 C 148.947 1.70618 -3.17115 0
M  V30 1579 C 148.8 0.807964 -4.42484 0
M  V30 1580 C 150.119 2.67605 -3.49393 0
M  V30 1581 H 147.238 0.32627 -0.660846 0
M  V30 1582 H 149.88 0.168134 -1.89255 0
M  V30 1583 H 148.03 2.33133 -3.10775 0
M  V30 1584 H 149.702 0.19649 -4.60881 0
M  V30 1585 H 147.945 0.115411 -4.33646 0
M  V30 1586 H 148.616 1.40632 -5.33785 0
M  V30 1587 H 151.092 2.15218 -3.56118 0
M  V30 1588 H 149.968 3.20985 -4.45264 0
M  V30 1589 H 150.229 3.47298 -2.73563 0
M  V30 1590 N 149.288 1.51039 0.449983 0
M  V30 1591 C 150.251 1.70863 1.5277 0
M  V30 1592 C 151.251 0.578846 1.5002 0
M  V30 1593 O 152.441 0.846213 1.52266 0
M  V30 1594 C 149.573 1.75341 2.9235 0
M  V30 1595 H 150.766 2.67034 1.36502 0
M  V30 1596 H 148.319 1.40838 0.677812 0
M  V30 1597 H 149.054 0.809383 3.14037 0
M  V30 1598 H 148.839 2.57436 2.95752 0
M  V30 1599 H 150.329 1.92559 3.70555 0
M  V30 1600 N 150.766 -0.704594 1.40972 0
M  V30 1601 C 152.015 -1.46018 1.39146 0
M  V30 1602 C 152.328 -1.956 0.000589254 0
M  V30 1603 O 153.534 -2.71137 -0.1403 0
M  V30 1604 C 151.99 -2.63996 2.4461 0
M  V30 1605 C 151.598 -2.21238 3.89561 0
M  V30 1606 C 153.342 -3.41677 2.51907 0
M  V30 1607 C 151.249 -3.3612 4.86598 0
M  V30 1608 H 150.179 -0.548444 0.517422 0
M  V30 1609 H 152.83 -0.765784 1.66757 0
M  V30 1610 H 151.212 -3.3566 2.10115 0
M  V30 1611 H 152.386 -1.56923 4.33257 0
M  V30 1612 H 150.701 -1.56574 3.85841 0
M  V30 1613 H 153.298 -4.27182 3.2159 0
M  V30 1614 H 153.641 -3.86247 1.55303 0
M  V30 1615 H 154.174 -2.77064 2.85448 0
M  V30 1616 H 150.913 -2.96572 5.84573 0
M  V30 1617 H 150.433 -3.99315 4.47557 0
M  V30 1618 H 152.112 -4.02029 5.06934 0
M  V30 1619 N 152.244 -1.26651 -0.937939 0
M  V30 1620 C 153.174 -1.10993 -2.05433 0
M  V30 1621 C 154.155 -0.0142161 -1.70094 0
M  V30 1622 O 155.34 -0.186837 -1.93299 0
M  V30 1623 C 152.47 -0.745561 -3.39203 0
M  V30 1624 C 151.424 -1.79337 -3.88616 0
M  V30 1625 C 150.75 -1.28324 -5.19073 0
M  V30 1626 C 152.05 -3.19553 -4.13138 0
M  V30 1627 H 153.744 -2.0438 -2.1879 0
M  V30 1628 H 151.29 -0.984041 -1.05131 0
M  V30 1629 H 153.243 -0.622888 -4.16771 0
M  V30 1630 H 151.967 0.22401 -3.25831 0
M  V30 1631 H 150.626 -1.90477 -3.13231 0
M  V30 1632 H 150.274 -0.303414 -5.02084 0
M  V30 1633 H 149.974 -1.98369 -5.53103 0
M  V30 1634 H 151.498 -1.1733 -5.99221 0
M  V30 1635 H 152.912 -3.11471 -4.81309 0
M  V30 1636 H 151.309 -3.87218 -4.58457 0
M  V30 1637 H 152.379 -3.65368 -3.18801 0
M  V30 1638 N 153.722 1.14298 -1.08507 0
M  V30 1639 C 154.632 2.23027 -0.727753 0
M  V30 1640 C 155.648 1.71952 0.26619 0
M  V30 1641 O 156.824 2.011 0.109882 0
M  V30 1642 C 153.889 3.46403 -0.143541 0
M  V30 1643 C 152.95 4.12413 -1.19223 0
M  V30 1644 C 152.183 5.29899 -0.635798 0
M  V30 1645 O 152.406 5.67796 0.544393 0
M  V30 1646 O 151.34 5.85717 -1.38634 0
M  V30 1647 H 155.166 2.55945 -1.63481 0
M  V30 1648 H 152.751 1.22248 -0.858817 0
M  V30 1649 H 154.633 4.21018 0.179404 0
M  V30 1650 H 153.308 3.15206 0.736659 0
M  V30 1651 H 152.215 3.39667 -1.56772 0
M  V30 1652 H 153.548 4.47718 -2.04474 0
M  V30 1653 N 155.201 0.870884 1.31352 0
M  V30 1654 C 156.426 0.495957 2.01383 0
M  V30 1655 C 156.851 -0.904324 1.64935 0
M  V30 1656 O 156.209 -1.59687 0.858466 0
M  V30 1657 C 156.257 0.661433 3.54482 0
M  V30 1658 O 155.361 -0.298851 4.11316 0
M  V30 1659 H 154.702 0.197158 0.634054 0
M  V30 1660 H 157.232 1.17455 1.67527 0
M  V30 1661 H 157.242 0.555072 4.04207 0
M  V30 1662 H 155.917 1.68246 3.8035 0
M  V30 1663 H 154.494 -0.147368 3.72609 0
M  V30 1664 N 156.679 -1.44442 0.630414 0
M  V30 1665 C 157.904 -2.06927 0.139944 0
M  V30 1666 C 158.329 -1.46795 -1.17613 0
M  V30 1667 O 157.687 -0.569144 -1.72135 0
M  V30 1668 C 157.735 -3.6058 0.0379581 0
M  V30 1669 O 156.839 -3.99937 -1.0062 0
M  V30 1670 H 156.18 -0.658608 0.0844483 0
M  V30 1671 H 158.71 -1.85327 0.866891 0
M  V30 1672 H 158.72 -4.07714 -0.152856 0
M  V30 1673 H 157.395 -4.03728 0.998809 0
M  V30 1674 H 155.972 -3.64436 -0.79001 0
M  V30 1675 N 158.157 -0.370918 -1.53173 0
M  V30 1676 C 159.573 -0.0200818 -1.59587 0
M  V30 1677 C 159.773 1.46279 -1.38581 0
M  V30 1678 O 158.829 2.22506 -1.19363 0
M  V30 1679 C 160.142 -0.4808 -2.96831 0
M  V30 1680 C 161.69 -0.435477 -3.09956 0
M  V30 1681 C 162.165 -0.872092 -4.4962 0
M  V30 1682 N 163.656 -0.827364 -4.55751 0
M  V30 1683 C 164.391 -1.13683 -5.62018 0
M  V30 1684 N 163.887 -1.51584 -6.76014 0
M  V30 1685 N 165.68 -1.05927 -5.52029 0
M  V30 1686 H 157.831 -1.33652 -1.65079 0
M  V30 1687 H 160.094 -0.546634 -0.774529 0
M  V30 1688 H 159.8 -1.51577 -3.1736 0
M  V30 1689 H 159.674 0.129796 -3.76977 0
M  V30 1690 H 162.061 0.590371 -2.89134 0
M  V30 1691 H 162.142 -1.08164 -2.31806 0
M  V30 1692 H 161.786 -1.89608 -4.71181 0
M  V30 1693 H 161.716 -0.203127 -5.26208 0
M  V30 1694 H 164.207 -0.548216 -3.73902 0
M  V30 1695 H 164.52 -1.73609 -7.53047 0
M  V30 1696 H 162.865 -1.55454 -6.77391 0
M  V30 1697 H 166.056 -0.762321 -4.61851 0
M  V30 1698 H 166.229 -1.30378 -6.34749 0
M  V30 1699 N 159.635 1.57281 -0.100228 0
M  V30 1700 C 160.882 1.94537 0.562268 0
M  V30 1701 C 161.21 0.982315 1.67871 0
M  V30 1702 O 160.465 0.00280936 1.957 0
M  V30 1703 C 160.764 3.38305 1.15259 0
M  V30 1704 C 160.43 4.50618 0.159409 0
M  V30 1705 C 159.092 4.81066 -0.113741 0
M  V30 1706 C 161.444 5.18615 -0.518461 0
M  V30 1707 C 158.772 5.76835 -1.07137 0
M  V30 1708 C 161.124 6.15412 -1.46459 0
M  V30 1709 C 159.788 6.44262 -1.74592 0
M  V30 1710 H 159.058 0.711863 0.205748 0
M  V30 1711 H 161.705 1.90679 -0.17715 0
M  V30 1712 H 160.01 3.38766 1.96836 0
M  V30 1713 H 161.707 3.64435 1.67297 0
M  V30 1714 H 158.297 4.2689 0.382491 0
M  V30 1715 H 162.481 4.95264 -0.320581 0
M  V30 1716 H 157.737 5.975 -1.29628 0
M  V30 1717 H 161.911 6.67194 -1.99564 0
M  V30 1718 H 159.538 7.1828 -2.48953 0
M  V30 1719 N 161.113 -0.173488 1.56642 0
M  V30 1720 C 162.06 -1.21482 1.96242 0
M  V30 1721 C 163.03 -1.44104 0.826027 0
M  V30 1722 O 164.215 -1.5688 1.08597 0
M  V30 1723 C 161.355 -2.54964 2.32567 0
M  V30 1724 C 160.468 -2.39739 3.59373 0
M  V30 1725 C 159.603 -3.66072 3.84921 0
M  V30 1726 C 158.642 -3.45771 5.05083 0
M  V30 1727 N 157.779 -4.64169 5.26775 0
M  V30 1728 H 162.619 -0.870123 2.85014 0
M  V30 1729 H 160.156 -0.418245 1.41029 0
M  V30 1730 H 162.114 -3.32758 2.5165 0
M  V30 1731 H 160.744 -2.87433 1.46908 0
M  V30 1732 H 159.796 -1.53131 3.48217 0
M  V30 1733 H 161.108 -2.20683 4.47326 0
M  V30 1734 H 160.262 -4.52303 4.0436 0
M  V30 1735 H 159.001 -3.88105 2.9534 0
M  V30 1736 H 158.006 -2.57927 4.85545 0
M  V30 1737 H 159.231 -3.25163 5.96193 0
M  V30 1738 H 157.177 -4.86425 4.40144 0
M  V30 1739 H 157.094 -4.48019 6.08946 0
M  V30 1740 H 158.362 -5.51689 5.5069 0
M  V30 1741 N 162.591 -1.51276 -0.441967 0
M  V30 1742 C 163.821 -1.67273 -1.21257 0
M  V30 1743 C 164.229 -0.367624 -1.85594 0
M  V30 1744 O 163.572 0.663349 -1.71305 0
M  V30 1745 C 163.634 -2.72807 -2.34129 0
M  V30 1746 C 163.298 -4.1554 -1.90198 0
M  V30 1747 C 164.295 -5.00471 -1.40801 0
M  V30 1748 C 161.98 -4.61616 -1.9803 0
M  V30 1749 C 163.974 -6.29536 -0.998174 0
M  V30 1750 C 161.661 -5.90679 -1.56658 0
M  V30 1751 C 162.659 -6.74466 -1.07633 0
M  V30 1752 O 162.347 -8.01116 -0.668459 0
M  V30 1753 H 162.079 -0.564614 -0.371734 0
M  V30 1754 H 164.633 -1.9843 -0.530521 0
M  V30 1755 H 162.863 -2.36954 -3.05597 0
M  V30 1756 H 164.552 -2.77729 -2.96009 0
M  V30 1757 H 165.318 -4.66079 -1.34148 0
M  V30 1758 H 161.197 -3.96526 -2.35135 0
M  V30 1759 H 164.741 -6.94885 -0.61482 0
M  V30 1760 H 160.638 -6.24586 -1.62979 0
M  V30 1761 H 161.406 -8.14633 -0.794722 0
M  V30 1762 N 164.069 0.697108 -1.41344 0
M  V30 1763 C 165.485 1.00751 -1.2378 0
M  V30 1764 C 165.685 2.01105 -0.126066 0
M  V30 1765 O 164.741 2.47295 0.51004 0
M  V30 1766 C 166.054 1.53359 -2.58653 0
M  V30 1767 C 167.602 1.6525 -2.65822 0
M  V30 1768 C 168.077 2.2126 -4.01009 0
M  V30 1769 N 169.568 2.28622 -4.02847 0
M  V30 1770 C 170.303 2.72984 -5.04249 0
M  V30 1771 N 169.799 3.16962 -6.16041 0
M  V30 1772 N 171.592 2.72534 -4.91611 0
M  V30 1773 H 163.743 0.0322662 -2.12375 0
M  V30 1774 H 166.006 0.0768853 -0.944877 0
M  V30 1775 H 165.712 0.870773 -3.4075 0
M  V30 1776 H 165.586 2.51597 -2.81032 0
M  V30 1777 H 167.973 2.30644 -1.84086 0
M  V30 1778 H 168.054 0.655614 -2.47256 0
M  V30 1779 H 167.698 1.56482 -4.83193 0
M  V30 1780 H 167.628 3.21698 -4.16915 0
M  V30 1781 H 170.119 1.97585 -3.22131 0
M  V30 1782 H 170.432 3.49434 -6.89287 0
M  V30 1783 H 168.777 3.14875 -6.1958 0
M  V30 1784 H 171.968 2.37525 -4.0336 0
M  V30 1785 H 172.141 3.06789 -5.70775 0
M  V30 1786 N 165.547 1.27147 0.931209 0
M  V30 1787 C 166.775 1.16082 1.71267 0
M  V30 1788 C 167.19 -0.282772 1.8667 0
M  V30 1789 O 166.547 -1.19283 1.38122 0
M  V30 1790 C 166.598 1.8358 3.11417 0
M  V30 1791 O 166.319 3.22299 2.96741 0
M  V30 1792 C 167.82 1.78597 4.05732 0
M  V30 1793 H 165.04 0.403758 0.535929 0
M  V30 1794 H 167.584 1.67953 1.16671 0
M  V30 1795 H 165.739 1.35623 3.62885 0
M  V30 1796 H 166.153 3.55851 3.85319 0
M  V30 1797 H 167.627 2.30444 5.01597 0
M  V30 1798 H 168.104 0.754564 4.3267 0
M  V30 1799 H 168.71 2.26152 3.60188 0
M  V30 1800 N 167.025 -1.13721 1.09112 0
M  V30 1801 C 167.935 -2.22638 0.73957 0
M  V30 1802 C 168.951 -1.72091 -0.257068 0
M  V30 1803 O 170.127 -2.01155 -0.0992154 0
M  V30 1804 C 167.192 -3.46322 0.16191 0
M  V30 1805 C 166.253 -4.11775 1.21408 0
M  V30 1806 C 165.486 -5.29555 0.663891 0
M  V30 1807 O 165.709 -5.68077 -0.514274 0
M  V30 1808 O 164.643 -5.84973 1.41738 0
M  V30 1809 H 168.469 -2.55074 1.64836 0
M  V30 1810 H 166.054 -1.21791 0.865289 0
M  V30 1811 H 167.936 -4.21107 -0.157073 0
M  V30 1812 H 166.611 -3.15593 -0.719932 0
M  V30 1813 H 165.518 -3.3883 1.58571 0
M  V30 1814 H 166.851 -4.46627 2.06845 0
M  V30 1815 N 168.503 -0.877838 -1.30888 0
M  V30 1816 C 169.752 -0.488793 -1.95688 0
M  V30 1817 C 170.065 0.965485 -1.70111 0
M  V30 1818 O 171.271 1.46104 -2.28836 0
M  V30 1819 C 169.727 -0.823201 -3.50359 0
M  V30 1820 C 169.335 -2.29477 -3.84765 0
M  V30 1821 C 171.079 -0.503009 -4.21509 0
M  V30 1822 C 168.986 -2.57118 -5.32583 0
M  V30 1823 H 167.916 -0.179062 -0.732429 0
M  V30 1824 H 170.567 -1.07183 -1.48943 0
M  V30 1825 H 168.949 -0.169331 -3.95638 0
M  V30 1826 H 170.123 -2.99236 -3.5042 0
M  V30 1827 H 168.438 -2.58178 -3.267 0
M  V30 1828 H 171.035 -0.68665 -5.30273 0
M  V30 1829 H 171.378 0.557109 -4.12555 0
M  V30 1830 H 171.911 -1.11376 -3.8189 0
M  V30 1831 H 168.65 -3.61843 -5.4658 0
M  V30 1832 H 168.17 -1.91961 -5.68253 0
M  V30 1833 H 169.849 -2.42251 -5.99936 0
M  V30 1834 N 169.982 1.44106 -0.638065 0
M  V30 1835 C 170.945 2.29138 0.0531013 0
M  V30 1836 C 171.945 1.41409 0.765506 0
M  V30 1837 O 173.135 1.63206 0.609046 0
M  V30 1838 C 170.267 3.23144 1.08584 0
M  V30 1839 H 171.46 2.91739 -0.694883 0
M  V30 1840 H 169.013 1.51134 -0.398538 0
M  V30 1841 H 169.748 2.65408 1.86357 0
M  V30 1842 H 169.533 3.87804 0.578852 0
M  V30 1843 H 171.023 3.87004 1.56899 0
M  V30 1844 N 171.46 0.379036 1.52974 0
M  V30 1845 C 172.871 -0.0972525 1.86447 0
M  V30 1846 C 173.222 -1.47027 1.29914 0
M  V30 1847 O 172.347 -2.07135 0.626433 0
M  V30 1848 C 172.942 -0.183248 3.38304 0
M  V30 1849 C 171.501 -0.603812 3.71525 0
M  V30 1850 C 170.648 0.240632 2.76254 0
M  V30 1851 H 173.599 0.597316 1.4703 0
M  V30 1852 H 173.62 -1.00432 3.67006 0
M  V30 1853 H 173.132 0.816191 3.79421 0
M  V30 1854 H 171.233 -1.61099 3.35973 0
M  V30 1855 H 171.346 -0.369086 4.77676 0
M  V30 1856 H 169.71 -0.292548 2.53014 0
M  V30 1857 H 170.493 1.23786 3.20206 0
M  V30 1858 N 172.938 -1.57226 0.108567 0
M  V30 1859 C 174.186 -1.94448 -0.550853 0
M  V30 1860 C 174.507 -0.992074 -1.67878 0
M  V30 1861 O 173.777 -0.0465 -1.95845 0
M  V30 1862 H 172.357 -0.717897 -0.206479 0
M  V30 1863 H 175.019 -1.94112 0.175062 0
M  V30 1864 H 174.115 -2.97218 -0.952259 0
M  V30 1865 N 174.416 0.165178 -1.56732 0
M  V30 1866 C 175.363 1.2044 -1.96883 0
M  V30 1867 C 176.333 1.43664 -0.833657 0
M  V30 1868 O 177.518 1.56302 -1.09427 0
M  V30 1869 C 174.658 2.53727 -2.33916 0
M  V30 1870 C 173.771 2.3783 -3.6064 0
M  V30 1871 C 172.906 3.64026 -3.86857 0
M  V30 1872 C 171.945 3.43088 -5.06909 0
M  V30 1873 N 171.082 4.61369 -5.29229 0
M  V30 1874 H 175.922 0.854996 -2.85471 0
M  V30 1875 H 173.459 0.41076 -1.41249 0
M  V30 1876 H 175.417 3.31419 -2.53411 0
M  V30 1877 H 174.047 2.8665 -1.48431 0
M  V30 1878 H 173.099 1.51282 -3.49024 0
M  V30 1879 H 174.411 2.18308 -4.4849 0
M  V30 1880 H 173.565 4.50152 -4.06753 0
M  V30 1881 H 172.304 3.86533 -2.97394 0
M  V30 1882 H 171.309 2.55349 -4.86906 0
M  V30 1883 H 172.534 3.21997 -5.97909 0
M  V30 1884 H 170.48 4.84084 -4.42718 0
M  V30 1885 H 170.397 4.44783 -6.11313 0
M  V30 1886 H 171.665 5.48761 -5.53608 0
M  V30 1887 N 175.894 1.51508 0.433938 0
M  V30 1888 C 177.142 1.6402 1.18075 0
M  V30 1889 C 177.463 0.360328 1.91642 0
M  V30 1890 O 176.733 -0.623945 1.85698 0
M  V30 1891 H 175.313 0.6045 0.43885 0
M  V30 1892 H 177.975 1.88452 0.497178 0
M  V30 1893 H 177.071 2.46949 1.90847 0
M  V30 1894 N 177.372 -0.689602 1.41712 0
M  V30 1895 C 178.649 -1.44457 1.31877 0
M  V30 1896 C 179.029 -2.11039 -0.0508537 0
M  V30 1897 O 178.377 -2.02138 -1.06547 0
M  V30 1898 C 178.587 -2.45913 2.47645 0
M  V30 1899 C 179.935 -3.10991 2.89084 0
M  V30 1900 O 180.959 -2.56238 2.47428 0
M  V30 1901 O 179.818 -4.10174 3.61137 0
M  V30 1902 H 176.912 -0.64362 0.519309 0
M  V30 1903 H 179.458 -0.719576 1.53689 0
M  V30 1904 H 178.23 -1.95409 3.39015 0
M  V30 1905 H 177.853 -3.25913 2.27742 0
M  V30 1906 N 178.85 -1.27639 -0.924453 0
M  V30 1907 C 179.783 -1.04966 -2.02626 0
M  V30 1908 C 180.761 0.0309505 -1.62571 0
M  V30 1909 O 181.945 -0.114846 -1.8815 0
M  V30 1910 C 179.072 -0.59292 -3.3347 0
M  V30 1911 C 178.118 -1.66858 -3.92506 0
M  V30 1912 S 178.951 -3.2619 -4.24689 0
M  V30 1913 C 180.107 -2.82325 -5.58609 0
M  V30 1914 H 180.34 -1.98252 -2.21547 0
M  V30 1915 H 177.873 -1.11506 -1.06798 0
M  V30 1916 H 179.831 -0.336086 -4.09122 0
M  V30 1917 H 178.492 0.319939 -3.12466 0
M  V30 1918 H 177.685 -1.30038 -4.86935 0
M  V30 1919 H 177.287 -1.87766 -3.2345 0
M  V30 1920 H 179.579 -2.2783 -6.38044 0
M  V30 1921 H 180.522 -3.75511 -6.00331 0
M  V30 1922 H 180.93 -2.21367 -5.19285 0
M  V30 1923 N 180.328 1.1314 -1.09713 0
M  V30 1924 C 181.739 1.66029 -0.853885 0
M  V30 1925 C 182.09 1.86241 0.617142 0
M  V30 1926 O 181.215 1.5834 1.47503 0
M  V30 1927 C 181.81 3.01599 -1.5435 0
M  V30 1928 C 180.369 3.51467 -1.34714 0
M  V30 1929 C 179.516 2.26648 -1.59769 0
M  V30 1930 H 182.467 0.970226 -1.25588 0
M  V30 1931 H 182.488 3.67709 -0.978267 0
M  V30 1932 H 182 2.86856 -2.6141 0
M  V30 1933 H 180.101 3.71408 -0.297838 0
M  V30 1934 H 180.214 4.314 -2.08401 0
M  V30 1935 H 178.578 2.33385 -1.01998 0
M  V30 1936 H 179.361 2.14467 -2.68065 0
M  V30 1937 N 181.806 0.884767 1.30421 0
M  V30 1938 C 183.034 0.518044 2.0031 0
M  V30 1939 C 183.449 -0.893408 1.66324 0
M  V30 1940 O 182.806 -1.5875 0.900262 0
M  V30 1941 C 182.857 0.682997 3.54989 0
M  V30 1942 O 182.578 2.03888 3.87764 0
M  V30 1943 C 184.079 0.31924 4.42149 0
M  V30 1944 H 181.299 0.200265 0.640418 0
M  V30 1945 H 183.843 1.19001 1.6631 0
M  V30 1946 H 181.998 0.0584052 3.87356 0
M  V30 1947 H 182.412 2.05735 4.82466 0
M  V30 1948 H 183.886 0.485555 5.4986 0
M  V30 1949 H 184.363 -0.742717 4.32875 0
M  V30 1950 H 184.969 0.920147 4.15227 0
M  V30 1951 N 183.284 -1.43765 0.645699 0
M  V30 1952 C 184.214 -2.33471 -0.0370477 0
M  V30 1953 C 185.195 -1.49042 -0.819779 0
M  V30 1954 O 186.38 -1.77726 -0.782758 0
M  V30 1955 C 183.51 -3.32311 -1.0093 0
M  V30 1956 C 182.464 -4.2667 -0.337201 0
M  V30 1957 C 181.79 -5.1549 -1.42037 0
M  V30 1958 C 183.09 -5.16657 0.765706 0
M  V30 1959 H 184.784 -2.90809 0.712069 0
M  V30 1960 H 182.33 -1.39834 0.343876 0
M  V30 1961 H 184.283 -3.9396 -1.49578 0
M  V30 1962 H 183.007 -2.73213 -1.78948 0
M  V30 1963 H 181.666 -3.66374 0.128771 0
M  V30 1964 H 181.314 -4.52735 -2.1918 0
M  V30 1965 H 181.014 -5.79438 -0.975966 0
M  V30 1966 H 182.538 -5.80012 -1.90838 0
M  V30 1967 H 183.952 -5.72158 0.361702 0
M  V30 1968 H 182.349 -5.89286 1.13413 0
M  V30 1969 H 183.419 -4.56796 1.62683 0
M  V30 1970 N 184.763 -0.387143 -1.52771 0
M  V30 1971 C 185.991 0.195869 -2.05971 0
M  V30 1972 C 186.406 1.40691 -1.25903 0
M  V30 1973 O 185.763 1.79931 -0.305134 0
M  V30 1974 C 185.814 0.56812 -3.57008 0
M  V30 1975 O 185.535 -0.594803 -4.34043 0
M  V30 1976 C 187.036 1.20723 -4.26545 0
M  V30 1977 H 184.256 0.0300578 -0.670326 0
M  V30 1978 H 186.8 -0.551749 -1.96916 0
M  V30 1979 H 184.955 1.26564 -3.66143 0
M  V30 1980 H 185.369 -0.289322 -5.23701 0
M  V30 1981 H 186.843 1.41807 -5.33474 0
M  V30 1982 H 187.32 2.17395 -3.81623 0
M  V30 1983 H 187.926 0.550535 -4.21722 0
M  V30 1984 N 186.241 1.57166 -0.116904 0
M  V30 1985 C 187.518 1.86645 0.585049 0
M  V30 1986 C 187.898 1.0177 1.84949 0
M  V30 1987 O 187.246 0.0960379 2.28298 0
M  V30 1988 C 187.456 3.37736 0.879507 0
M  V30 1989 C 188.804 4.06289 1.23348 0
M  V30 1990 O 189.828 3.42743 0.969836 0
M  V30 1991 O 188.687 5.18455 1.7282 0
M  V30 1992 H 185.781 0.772593 0.295007 0
M  V30 1993 H 188.327 1.69025 -0.151249 0
M  V30 1994 H 187.099 3.91296 -0.0166136 0
M  V30 1995 H 186.722 3.6078 1.67103 0
M  V30 1996 N 187.719 -0.156864 1.56817 0
M  V30 1997 C 188.666 -1.19394 1.97519 0
M  V30 1998 C 189.636 -1.4322 0.841265 0
M  V30 1999 O 190.821 -1.55719 1.10255 0
M  V30 2000 C 187.961 -2.52483 2.35258 0
M  V30 2001 C 187.074 -2.35914 3.61896 0
M  V30 2002 C 186.209 -3.61969 3.88782 0
M  V30 2003 C 185.248 -3.40395 5.08722 0
M  V30 2004 N 184.385 -4.58556 5.31668 0
M  V30 2005 H 189.225 -0.839845 2.85921 0
M  V30 2006 H 186.762 -0.403264 1.41464 0
M  V30 2007 H 188.72 -3.30071 2.55165 0
M  V30 2008 H 187.35 -2.85859 1.49949 0
M  V30 2009 H 186.402 -1.49429 3.49821 0
M  V30 2010 H 187.714 -2.15926 4.49641 0
M  V30 2011 H 186.868 -4.47989 4.09135 0
M  V30 2012 H 185.607 -3.84951 2.9944 0
M  V30 2013 H 184.612 -2.52763 4.88253 0
M  V30 2014 H 185.837 -3.18822 5.99608 0
M  V30 2015 H 183.783 -4.81729 4.45279 0
M  V30 2016 H 183.7 -4.41535 6.13664 0
M  V30 2017 H 184.968 -5.45817 5.5651 0
M  V30 2018 N 189.197 -1.51736 -0.425897 0
M  V30 2019 C 190.445 -1.64644 -1.17204 0
M  V30 2020 C 190.766 -0.370486 -1.91448 0
M  V30 2021 O 190.036 0.614088 -1.86026 0
M  V30 2022 H 188.616 -0.606819 -0.435638 0
M  V30 2023 H 191.278 -1.88713 -0.487177 0
M  V30 2024 H 190.374 -2.47958 -1.89534 0
M  V30 2025 N 190.675 0.682077 -1.42076 0
M  V30 2026 C 192.091 0.994324 -1.24841 0
M  V30 2027 C 192.291 2.0096 -0.147389 0
M  V30 2028 O 191.347 2.47822 0.483782 0
M  V30 2029 C 192.66 1.50607 -2.60265 0
M  V30 2030 C 194.208 1.62421 -2.6756 0
M  V30 2031 C 194.683 2.16994 -4.03333 0
M  V30 2032 N 196.174 2.24337 -4.0525 0
M  V30 2033 C 196.909 2.67621 -5.07116 0
M  V30 2034 N 196.405 3.1041 -6.19368 0
M  V30 2035 N 198.198 2.67305 -4.94474 0
M  V30 2036 H 190.349 0.00973908 -2.12398 0
M  V30 2037 H 192.612 0.0668593 -0.945639 0
M  V30 2038 H 192.318 0.834583 -3.41654 0
M  V30 2039 H 192.192 2.48602 -2.83684 0
M  V30 2040 H 194.579 2.28678 -1.86521 0
M  V30 2041 H 194.66 0.629352 -2.47937 0
M  V30 2042 H 194.304 1.51349 -4.84826 0
M  V30 2043 H 194.234 3.17258 -4.20304 0
M  V30 2044 H 196.725 1.94158 -3.24209 0
M  V30 2045 H 197.038 3.42103 -6.92954 0
M  V30 2046 H 195.383 3.08286 -6.22884 0
M  V30 2047 H 198.574 2.33233 -4.05857 0
M  V30 2048 H 198.747 3.00718 -5.73997 0
M  V30 2049 N 192.153 1.28127 0.917671 0
M  V30 2050 C 193.401 1.14825 1.66312 0
M  V30 2051 C 193.722 -0.304379 1.9261 0
M  V30 2052 O 192.992 -1.21149 1.53947 0
M  V30 2053 H 191.572 0.421953 0.616413 0
M  V30 2054 H 194.234 1.608 1.10134 0
M  V30 2055 H 193.33 1.68489 2.62712 0
M  V30 2056 N 193.631 -1.12557 1.10312 0
M  V30 2057 C 195.047 -1.36036 0.834649 0
M  V30 2058 C 195.247 -1.93946 -0.546539 0
M  V30 2059 O 194.303 -2.16484 -1.29966 0
M  V30 2060 C 195.616 -2.30312 1.9333 0
M  V30 2061 C 197.164 -2.43906 1.9616 0
M  V30 2062 C 197.639 -3.41496 3.05195 0
M  V30 2063 N 199.13 -3.49053 3.04494 0
M  V30 2064 C 199.865 -4.24471 3.85502 0
M  V30 2065 N 199.361 -5.02966 4.76442 0
M  V30 2066 N 201.154 -4.19864 3.73725 0
M  V30 2067 H 193.305 -0.733246 1.99342 0
M  V30 2068 H 195.568 -0.385234 0.866198 0
M  V30 2069 H 195.274 -1.94933 2.92735 0
M  V30 2070 H 195.148 -3.30421 1.81939 0
M  V30 2071 H 197.535 -2.78567 0.973886 0
M  V30 2072 H 197.616 -1.4369 2.11629 0
M  V30 2073 H 197.26 -3.07565 4.04186 0
M  V30 2074 H 197.19 -4.41539 2.86968 0
M  V30 2075 H 199.681 -2.93053 2.38596 0
M  V30 2076 H 199.994 -5.57846 5.34815 0
M  V30 2077 H 198.339 -5.02167 4.80472 0
M  V30 2078 H 201.53 -3.57623 3.02032 0
M  V30 2079 H 201.703 -4.78386 4.37093 0
M  V30 2080 N 195.109 -0.891671 -1.2995 0
M  V30 2081 C 196.356 -0.513501 -1.95881 0
M  V30 2082 C 196.684 0.938655 -1.70351 0
M  V30 2083 O 195.939 1.67936 -1.00478 0
M  V30 2084 C 196.238 -0.742868 -3.49594 0
M  V30 2085 C 195.904 -2.17114 -3.95186 0
M  V30 2086 C 194.566 -2.56169 -4.07346 0
M  V30 2087 C 196.918 -3.10162 -4.18866 0
M  V30 2088 C 194.246 -3.87469 -4.4055 0
M  V30 2089 C 196.598 -4.41001 -4.53542 0
M  V30 2090 C 195.262 -4.79941 -4.63911 0
M  V30 2091 H 194.532 -0.187903 -0.71678 0
M  V30 2092 H 197.179 -1.1288 -1.54694 0
M  V30 2093 H 195.484 -0.044586 -3.91775 0
M  V30 2094 H 197.181 -0.429767 -3.9869 0
M  V30 2095 H 193.771 -1.85801 -3.86233 0
M  V30 2096 H 197.955 -2.81206 -4.08946 0
M  V30 2097 H 193.211 -4.17371 -4.46779 0
M  V30 2098 H 197.385 -5.13133 -4.70815 0
M  V30 2099 H 195.012 -5.81719 -4.89395 0
M  V30 2100 N 196.587 1.43421 -0.653314 0
M  V30 2101 C 197.55 2.29182 0.0287951 0
M  V30 2102 C 198.55 1.42213 0.750465 0
M  V30 2103 O 199.74 1.63843 0.591701 0
M  V30 2104 C 196.872 3.24278 1.05151 0
M  V30 2105 H 198.065 2.90985 -0.725786 0
M  V30 2106 H 195.618 1.50702 -0.414545 0
M  V30 2107 H 196.353 2.6737 1.83532 0
M  V30 2108 H 196.138 3.88396 0.537687 0
M  V30 2109 H 197.628 3.88647 1.52786 0
M  V30 2110 N 198.065 0.39524 1.52563 0
M  V30 2111 C 198.995 -0.428384 2.29537 0
M  V30 2112 C 199.976 -1.05831 1.33169 0
M  V30 2113 O 201.161 -1.06995 1.62067 0
M  V30 2114 C 198.291 -1.55274 3.10656 0
M  V30 2115 C 197.245 -1.04855 4.14957 0
M  V30 2116 C 196.571 -2.26543 4.84337 0
M  V30 2117 C 197.871 -0.112324 5.22179 0
M  V30 2118 H 199.565 0.213867 2.98635 0
M  V30 2119 H 197.111 0.104298 1.43622 0
M  V30 2120 H 199.064 -2.1358 3.63265 0
M  V30 2121 H 197.788 -2.22266 2.39302 0
M  V30 2122 H 196.447 -0.487985 3.63338 0
M  V30 2123 H 196.095 -2.92059 4.09525 0
M  V30 2124 H 195.795 -1.93466 5.54837 0
M  V30 2125 H 197.319 -2.85481 5.39753 0
M  V30 2126 H 198.733 -0.603752 5.70112 0
M  V30 2127 H 197.13 0.128968 5.99961 0
M  V30 2128 H 198.2 0.837052 4.77621 0
M  V30 2129 N 199.544 -1.57102 0.125237 0
M  V30 2130 C 200.793 -1.94582 -0.531095 0
M  V30 2131 C 201.106 -1.01126 -1.6743 0
M  V30 2132 O 202.312 -1.28097 -2.39381 0
M  V30 2133 C 200.768 -3.45839 -0.996164 0
M  V30 2134 C 200.376 -4.47842 0.118926 0
M  V30 2135 C 202.12 -3.92227 -1.62352 0
M  V30 2136 C 200.027 -5.90284 -0.363192 0
M  V30 2137 H 198.957 -0.726391 -0.20217 0
M  V30 2138 H 201.608 -1.82339 0.206092 0
M  V30 2139 H 199.99 -3.53338 -1.78796 0
M  V30 2140 H 201.164 -4.52018 0.895358 0
M  V30 2141 H 199.479 -4.11243 0.653324 0
M  V30 2142 H 202.076 -4.96069 -1.99548 0
M  V30 2143 H 202.419 -3.32552 -2.50429 0
M  V30 2144 H 202.952 -3.87554 -0.897019 0
M  V30 2145 H 199.691 -6.53728 0.481679 0
M  V30 2146 H 199.211 -5.89515 -1.10597 0
M  V30 2147 H 200.89 -6.41752 -0.822377 0
M  V30 2148 N 201.022 0.148545 -1.56898 0
M  V30 2149 C 202.271 0.85984 -1.82454 0
M  V30 2150 C 202.584 1.82406 -0.706229 0
M  V30 2151 O 203.79 2.57938 -0.847349 0
M  V30 2152 C 202.246 1.57967 -3.2338 0
M  V30 2153 C 201.854 0.65794 -4.43142 0
M  V30 2154 C 203.598 2.27784 -3.58211 0
M  V30 2155 C 201.505 1.3793 -5.75091 0
M  V30 2156 H 200.435 0.324834 -0.68044 0
M  V30 2157 H 203.086 0.112588 -1.83154 0
M  V30 2158 H 201.468 2.37249 -3.17063 0
M  V30 2159 H 202.642 -0.0995497 -4.60692 0
M  V30 2160 H 200.957 0.0682643 -4.16344 0
M  V30 2161 H 203.554 2.8239 -4.54048 0
M  V30 2162 H 203.897 3.04204 -2.84193 0
M  V30 2163 H 204.43 1.55421 -3.66182 0
M  V30 2164 H 201.169 0.656982 -6.52199 0
M  V30 2165 H 200.689 2.10954 -5.61479 0
M  V30 2166 H 202.368 1.92063 -6.17835 0
M  V30 2167 N 202.5 1.5196 0.417844 0
M  V30 2168 C 203.73 1.69181 1.18581 0
M  V30 2169 C 204.138 0.397104 1.84986 0
M  V30 2170 O 203.481 -0.636011 1.72339 0
M  V30 2171 C 203.543 2.76497 2.29759 0
M  V30 2172 C 203.207 4.18514 1.83563 0
M  V30 2173 C 204.204 5.02648 1.32821 0
M  V30 2174 C 201.889 4.64708 1.90661 0
M  V30 2175 C 203.883 6.31044 0.897894 0
M  V30 2176 C 201.57 5.93096 1.47241 0
M  V30 2177 C 202.568 6.76093 0.968891 0
M  V30 2178 O 202.256 8.02078 0.540924 0
M  V30 2179 H 201.988 0.570457 0.362705 0
M  V30 2180 H 204.542 1.99249 0.498885 0
M  V30 2181 H 202.772 2.41786 3.01789 0
M  V30 2182 H 204.461 2.82403 2.91553 0
M  V30 2183 H 205.227 4.68154 1.26716 0
M  V30 2184 H 201.106 4.00216 2.28797 0
M  V30 2185 H 204.65 6.95776 0.504192 0
M  V30 2186 H 200.547 6.271 1.53022 0
M  V30 2187 H 201.315 8.15794 0.66502 0
M  V30 2188 N 203.978 -0.674533 1.42435 0
M  V30 2189 C 204.888 -1.81751 1.48337 0
M  V30 2190 C 205.904 -1.69975 0.372099 0
M  V30 2191 O 207.08 -1.91521 0.62304 0
M  V30 2192 C 204.145 -3.17895 1.38361 0
M  V30 2193 C 203.206 -3.41625 2.59982 0
M  V30 2194 C 202.439 -4.71274 2.50473 0
M  V30 2195 O 202.662 -5.49197 1.54075 0
M  V30 2196 O 201.596 -4.96254 3.4061 0
M  V30 2197 H 205.422 -1.79728 2.44809 0
M  V30 2198 H 203.007 -0.830312 1.24202 0
M  V30 2199 H 204.889 -3.99136 1.35161 0
M  V30 2200 H 203.564 -3.20555 0.450144 0
M  V30 2201 H 202.471 -2.60231 2.68757 0
M  V30 2202 H 203.804 -3.43796 3.52229 0
M  V30 2203 N 205.456 -1.28612 -0.910864 0
M  V30 2204 C 206.404 -1.1265 -2.03501 0
M  V30 2205 C 207.398 -0.0450054 -1.6934 0
M  V30 2206 O 208.604 -0.203988 -1.7884 0
M  V30 2207 H 204.979 -0.347639 -0.666822 0
M  V30 2208 H 206.95 -2.07849 -2.14106 0
M  V30 2209 C 205.699 -0.808143 -3.38178 0
M  V30 2210 H 205.022 -1.63231 -3.6496 0
M  V30 2211 H 206.462 -0.736426 -4.17556 0
M  V30 2212 C 204.921 0.488226 -3.33344 0
M  V30 2213 O 205.451 1.51766 -3.71927 0
M  V30 2214 N 203.657 0.490009 -2.86439 0
M  V30 2215 H 203.204 -0.348161 -2.55236 0
M  V30 2216 H 203.162 1.35741 -2.83587 0
M  V30 2217 N 206.934 1.1197 -1.10907 0
M  V30 2218 C 208.183 1.82947 -0.849302 0
M  V30 2219 C 208.496 1.85275 0.627112 0
M  V30 2220 O 209.702 2.52296 1.00295 0
M  V30 2221 C 208.158 3.28529 -1.46959 0
M  V30 2222 C 207.766 3.34546 -2.97965 0
M  V30 2223 C 209.51 4.04443 -1.28942 0
M  V30 2224 C 207.417 4.74491 -3.53004 0
M  V30 2225 H 206.347 0.685477 -0.314065 0
M  V30 2226 H 208.998 1.2604 -1.33365 0
M  V30 2227 H 207.38 3.85333 -0.912917 0
M  V30 2228 H 208.554 2.87654 -3.59989 0
M  V30 2229 H 206.869 2.72108 -3.15192 0
M  V30 2230 H 209.466 5.07787 -1.67502 0
M  V30 2231 H 209.809 4.15656 -0.231456 0
M  V30 2232 H 210.342 3.5401 -1.81443 0
M  V30 2233 H 207.081 4.68474 -4.58489 0
M  V30 2234 H 206.601 5.21816 -2.9575 0
M  V30 2235 H 208.28 5.4344 -3.51115 0
M  V30 2236 N 208.412 0.89855 1.29475 0
M  V30 2237 C 209.342 0.39201 2.30186 0
M  V30 2238 C 210.323 -0.532359 1.61555 0
M  V30 2239 O 211.508 -0.443331 1.89072 0
M  V30 2240 C 208.638 -0.382353 3.45189 0
M  V30 2241 C 207.592 0.451483 4.25612 0
M  V30 2242 C 206.918 -0.450307 5.328 0
M  V30 2243 C 208.218 1.70079 4.93832 0
M  V30 2244 H 209.912 1.23362 2.72804 0
M  V30 2245 H 207.458 0.594638 1.31149 0
M  V30 2246 H 209.411 -0.747451 4.14718 0
M  V30 2247 H 208.135 -1.25774 3.01411 0
M  V30 2248 H 206.794 0.798897 3.57789 0
M  V30 2249 H 206.442 -1.32379 4.85268 0
M  V30 2250 H 206.142 0.103902 5.87508 0
M  V30 2251 H 207.666 -0.811623 6.05182 0
M  V30 2252 H 209.08 1.40549 5.55805 0
M  V30 2253 H 207.477 2.19623 5.58467 0
M  V30 2254 H 208.547 2.43744 4.19186 0
M  V30 2255 N 209.89 -1.43072 0.660911 0
M  V30 2256 C 210.837 -2.30785 -0.0259884 0
M  V30 2257 C 211.807 -1.45184 -0.806888 0
M  V30 2258 O 212.992 -1.74041 -0.781943 0
M  V30 2259 C 210.132 -3.30861 -0.981067 0
M  V30 2260 C 209.245 -4.31558 -0.195458 0
M  V30 2261 C 208.38 -5.18712 -1.14503 0
M  V30 2262 C 207.419 -6.11097 -0.350299 0
M  V30 2263 N 206.556 -6.90849 -1.25186 0
M  V30 2264 H 211.396 -2.88975 0.727846 0
M  V30 2265 H 208.933 -1.42353 0.370682 0
M  V30 2266 H 210.891 -3.87399 -1.54849 0
M  V30 2267 H 209.521 -2.74304 -1.70169 0
M  V30 2268 H 208.573 -3.77252 0.488374 0
M  V30 2269 H 209.885 -4.9701 0.422176 0
M  V30 2270 H 209.039 -5.79914 -1.78284 0
M  V30 2271 H 207.778 -4.53404 -1.79656 0
M  V30 2272 H 206.783 -5.48976 0.300808 0
M  V30 2273 H 208.008 -6.7845 0.296941 0
M  V30 2274 H 205.954 -6.28182 -1.89005 0
M  V30 2275 H 205.871 -7.52854 -0.688971 0
M  V30 2276 H 207.139 -7.5655 -1.87757 0
M  V30 2277 N 211.368 -0.403325 -1.52352 0
M  V30 2278 C 212.598 0.17376 -2.05868 0
M  V30 2279 C 213.006 1.39898 -1.27378 0
M  V30 2280 O 212.349 1.80939 -0.31729 0
M  V30 2281 C 212.411 0.594756 -3.54546 0
M  V30 2282 C 212.075 -0.518926 -4.54044 0
M  V30 2283 C 213.072 -1.3807 -5.01231 0
M  V30 2284 C 210.757 -0.689961 -4.97539 0
M  V30 2285 C 212.751 -2.39852 -5.90551 0
M  V30 2286 C 210.438 -1.71109 -5.86656 0
M  V30 2287 C 211.436 -2.56378 -6.33056 0
M  V30 2288 O 211.124 -3.56743 -7.20409 0
M  V30 2289 H 210.856 0.0264951 -0.675481 0
M  V30 2290 H 213.41 -0.571179 -1.97299 0
M  V30 2291 H 211.64 1.39189 -3.60782 0
M  V30 2292 H 213.329 1.0991 -3.90736 0
M  V30 2293 H 214.095 -1.25994 -4.68349 0
M  V30 2294 H 209.974 -0.035939 -4.60986 0
M  V30 2295 H 213.518 -3.06441 -6.26689 0
M  V30 2296 H 209.415 -1.83218 -6.18952 0
M  V30 2297 H 210.183 -3.52918 -7.38506 0
M  V30 2298 N 212.846 1.57033 -0.133567 0
M  V30 2299 C 214.092 1.95976 0.521649 0
M  V30 2300 C 214.425 1.01779 1.65393 0
M  V30 2301 O 213.7 0.0576581 1.94415 0
M  V30 2302 C 213.983 3.44738 1.04057 0
M  V30 2303 C 213.836 4.49711 -0.0892897 0
M  V30 2304 C 215.155 3.95682 1.92675 0
M  V30 2305 H 212.274 0.712579 0.188149 0
M  V30 2306 H 214.916 1.88813 -0.212076 0
M  V30 2307 H 213.066 3.50973 1.66583 0
M  V30 2308 H 214.738 4.55565 -0.725152 0
M  V30 2309 H 212.981 4.27261 -0.750378 0
M  V30 2310 H 213.652 5.51099 0.315284 0
M  V30 2311 H 216.128 3.91841 1.39998 0
M  V30 2312 H 215.004 5.00262 2.25897 0
M  V30 2313 H 215.265 3.37239 2.85872 0
M  V30 2314 N 214.325 -0.140222 1.56975 0
M  V30 2315 C 215.273 -1.19207 1.99731 0
M  V30 2316 C 216.267 -1.44089 0.890777 0
M  V30 2317 O 217.473 -1.44301 1.07597 0
M  V30 2318 H 213.848 -0.40142 0.635898 0
M  V30 2319 H 215.819 -0.804813 2.87342 0
M  V30 2320 C 214.568 -2.51617 2.39967 0
M  V30 2321 H 213.891 -2.33303 3.24669 0
M  V30 2322 H 215.331 -3.23827 2.73701 0
M  V30 2323 C 213.79 -3.12654 1.25496 0
M  V30 2324 O 214.32 -3.97786 0.559371 0
M  V30 2325 N 212.526 -2.72206 1.01746 0
M  V30 2326 H 212.073 -2.03074 1.58489 0
M  V30 2327 H 212.031 -3.13377 0.253461 0
M  V30 2328 N 215.803 -1.52179 -0.40978 0
M  V30 2329 C 216.733 -1.78435 -1.5061 0
M  V30 2330 C 217.714 -0.635295 -1.57791 0
M  V30 2331 O 218.899 -0.880823 -1.73076 0
M  V30 2332 C 216.029 -1.93444 -2.88439 0
M  V30 2333 C 214.983 -3.09038 -2.96108 0
M  V30 2334 C 214.309 -3.09268 -4.36185 0
M  V30 2335 C 215.609 -4.48508 -2.67652 0
M  V30 2336 H 217.303 -2.70237 -1.28889 0
M  V30 2337 H 214.849 -1.30036 -0.618605 0
M  V30 2338 H 216.802 -2.10394 -3.65119 0
M  V30 2339 H 215.526 -0.983129 -3.11452 0
M  V30 2340 H 214.185 -2.91837 -2.21872 0
M  V30 2341 H 213.833 -2.11861 -4.56206 0
M  V30 2342 H 213.533 -3.86907 -4.42241 0
M  V30 2343 H 215.057 -3.28348 -5.14801 0
M  V30 2344 H 216.471 -4.65918 -3.34056 0
M  V30 2345 H 214.868 -5.28059 -2.85085 0
M  V30 2346 H 215.938 -4.56649 -1.63095 0
M  V30 2347 N 217.281 0.66697 -1.42791 0
M  V30 2348 C 218.558 1.4234 -1.34159 0
M  V30 2349 C 218.938 2.11093 0.0172729 0
M  V30 2350 O 218.286 2.03808 1.03318 0
M  V30 2351 C 218.496 2.41942 -2.51526 0
M  V30 2352 C 219.844 3.06353 -2.93995 0
M  V30 2353 O 220.868 2.52269 -2.51473 0
M  V30 2354 O 219.727 4.04376 -3.67617 0
M  V30 2355 H 216.821 0.635277 -0.529483 0
M  V30 2356 H 219.367 0.695034 -1.54814 0
M  V30 2357 H 218.139 1.89991 -3.42081 0
M  V30 2358 H 217.762 3.22249 -2.32898 0
M  V30 2359 N 218.759 1.29093 0.90403 0
M  V30 2360 C 219.722 1.1386 1.98919 0
M  V30 2361 C 220.722 0.0753457 1.60623 0
M  V30 2362 O 221.912 0.321931 1.71199 0
M  V30 2363 C 219.044 0.740198 3.32767 0
M  V30 2364 H 220.237 2.10246 2.13861 0
M  V30 2365 H 217.79 1.12218 1.08797 0
M  V30 2366 H 218.525 -0.223997 3.23525 0
M  V30 2367 H 218.31 1.50838 3.61926 0
M  V30 2368 H 219.8 0.656546 4.12407 0
M  V30 2369 N 220.237 -1.11381 1.11499 0
M  V30 2370 C 221.483 -1.83597 0.875423 0
M  V30 2371 C 221.838 -1.83048 -0.592555 0
M  V30 2372 O 221.131 -1.27304 -1.43193 0
M  V30 2373 C 221.325 -3.30026 1.37177 0
M  V30 2374 C 221.154 -3.44837 2.88647 0
M  V30 2375 C 219.924 -3.57825 3.56776 0
M  V30 2376 C 222.122 -3.3907 3.86699 0
M  V30 2377 N 220.104 -3.61113 4.96458 0
M  V30 2378 C 221.475 -3.48986 5.12454 0
M  V30 2379 C 223.53 -3.22605 3.7925 0
M  V30 2380 C 222.233 -3.44135 6.31636 0
M  V30 2381 C 224.259 -3.19072 4.97943 0
M  V30 2382 C 223.621 -3.29559 6.22551 0
M  V30 2383 H 219.72 -0.687044 0.37349 0
M  V30 2384 H 222.304 -1.33265 1.41946 0
M  V30 2385 H 220.475 -3.78874 0.854919 0
M  V30 2386 H 222.207 -3.90153 1.07529 0
M  V30 2387 H 218.962 -3.60414 3.07244 0
M  V30 2388 H 219.386 -3.66394 5.69284 0
M  V30 2389 H 224.028 -3.13382 2.83816 0
M  V30 2390 H 221.746 -3.52126 7.27347 0
M  V30 2391 H 225.332 -3.07498 4.93899 0
M  V30 2392 H 224.212 -3.26815 7.12855 0
M  V30 2393 N 221.715 -0.905404 -1.28997 0
M  V30 2394 C 222.663 -0.377431 -2.29517 0
M  V30 2395 C 223.657 0.526461 -1.61012 0
M  V30 2396 O 224.863 0.40863 -1.753 0
M  V30 2397 H 221.238 -0.103437 -0.744852 0
M  V30 2398 H 223.209 -1.23848 -2.71485 0
M  V30 2399 C 221.958 0.374833 -3.45674 0
M  V30 2400 H 221.281 -0.311474 -3.98585 0
M  V30 2401 H 222.721 0.70903 -4.1803 0
M  V30 2402 C 221.18 1.57963 -2.97572 0
M  V30 2403 O 221.71 2.67886 -2.99333 0
M  V30 2404 N 219.916 1.42375 -2.53333 0
M  V30 2405 H 219.463 0.529466 -2.521 0
M  V30 2406 H 219.421 2.23117 -2.21509 0
M  V30 2407 N 223.193 1.4272 -0.668489 0
M  V30 2408 C 224.609 1.55992 -0.33745 0
M  V30 2409 C 224.809 1.64933 1.15756 0
M  V30 2410 O 223.865 1.61278 1.94282 0
M  V30 2411 C 225.178 2.81314 -1.06222 0
M  V30 2412 C 226.726 2.95078 -1.04394 0
M  V30 2413 C 227.201 4.23252 -1.74991 0
M  V30 2414 N 228.692 4.3015 -1.71829 0
M  V30 2415 C 229.427 5.28127 -2.23315 0
M  V30 2416 N 228.923 6.32293 -2.83156 0
M  V30 2417 N 230.716 5.19882 -2.13726 0
M  V30 2418 H 222.867 1.3516 -1.63846 0
M  V30 2419 H 225.13 0.650174 -0.689912 0
M  V30 2420 H 224.836 2.80823 -2.11734 0
M  V30 2421 H 224.71 3.72012 -0.62344 0
M  V30 2422 H 227.097 2.951 0.0028244 0
M  V30 2423 H 227.178 2.05627 -1.52155 0
M  V30 2424 H 226.822 4.2399 -2.79633 0
M  V30 2425 H 226.752 5.11626 -1.24685 0
M  V30 2426 H 229.243 3.55499 -1.28175 0
M  V30 2427 H 229.556 7.03398 -3.20079 0
M  V30 2428 H 227.901 6.32873 -2.87223 0
M  V30 2429 H 231.092 4.37423 -1.66669 0
M  V30 2430 H 231.265 5.96077 -2.54158 0
M  V30 2431 N 224.671 0.411399 1.52136 0
M  V30 2432 C 225.581 -0.419774 2.30814 0
M  V30 2433 C 226.597 -1.0515 1.38634 0
M  V30 2434 O 227.773 -1.05252 1.71709 0
M  V30 2435 C 224.838 -1.52019 3.11594 0
M  V30 2436 C 223.899 -0.91129 4.19516 0
M  V30 2437 C 223.132 -1.95927 4.96436 0
M  V30 2438 O 223.355 -3.17775 4.73683 0
M  V30 2439 O 222.289 -1.56423 5.81219 0
M  V30 2440 H 226.115 0.221805 3.02889 0
M  V30 2441 H 223.7 0.174547 1.48377 0
M  V30 2442 H 225.582 -2.15898 3.61892 0
M  V30 2443 H 224.257 -2.14633 2.42311 0
M  V30 2444 H 223.164 -0.235157 3.7336 0
M  V30 2445 H 224.497 -0.32904 4.91099 0
M  V30 2446 N 226.149 -1.5696 0.141893 0
M  V30 2447 C 227.079 -2.19516 -0.795936 0
M  V30 2448 C 228.06 -1.14187 -1.26077 0
M  V30 2449 O 229.245 -1.42511 -1.31925 0
M  V30 2450 C 226.375 -2.81272 -2.03723 0
M  V30 2451 C 225.329 -3.92384 -1.70936 0
M  V30 2452 C 224.655 -4.41052 -3.02287 0
M  V30 2453 C 225.955 -5.13403 -0.959954 0
M  V30 2454 H 227.649 -2.98138 -0.274596 0
M  V30 2455 H 225.195 -1.43406 -0.130636 0
M  V30 2456 H 227.148 -3.237 -2.69808 0
M  V30 2457 H 225.872 -1.99973 -2.58221 0
M  V30 2458 H 224.531 -3.50566 -1.07232 0
M  V30 2459 H 224.179 -3.56582 -3.54765 0
M  V30 2460 H 223.879 -5.15993 -2.81114 0
M  V30 2461 H 225.403 -4.86146 -3.69451 0
M  V30 2462 H 226.817 -5.52706 -1.52279 0
M  V30 2463 H 225.214 -5.94073 -0.848357 0
M  V30 2464 H 226.284 -4.84875 0.0492434 0
M  V30 2465 N 227.627 0.131896 -1.57047 0
M  V30 2466 C 228.557 1.16384 -2.02428 0
M  V30 2467 C 229.538 1.43936 -0.90644 0
M  V30 2468 O 230.723 1.54599 -1.17528 0
M  V30 2469 C 227.853 2.49328 -2.4177 0
M  V30 2470 C 226.807 2.36266 -3.56879 0
M  V30 2471 C 226.133 3.74057 -3.8208 0
M  V30 2472 C 227.433 1.834 -4.89042 0
M  V30 2473 H 229.127 0.786433 -2.88887 0
M  V30 2474 H 226.673 0.376855 -1.38981 0
M  V30 2475 H 228.626 3.21759 -2.7212 0
M  V30 2476 H 227.35 2.88934 -1.52266 0
M  V30 2477 H 226.009 1.66286 -3.26718 0
M  V30 2478 H 225.657 4.11125 -2.89803 0
M  V30 2479 H 225.357 3.66174 -4.59554 0
M  V30 2480 H 226.881 4.48012 -4.1487 0
M  V30 2481 H 228.295 2.45636 -5.18011 0
M  V30 2482 H 226.692 1.8637 -5.70426 0
M  V30 2483 H 227.762 0.790662 -4.7841 0
M  V30 2484 N 229.106 1.52395 0.401703 0
M  V30 2485 C 230.383 1.57387 1.16141 0
M  V30 2486 C 230.763 0.359359 2.08019 0
M  V30 2487 O 230.111 -0.65326 2.18963 0
M  V30 2488 C 230.321 2.90631 1.93221 0
M  V30 2489 C 231.669 3.43904 2.49028 0
M  V30 2490 O 232.693 2.92421 2.03393 0
M  V30 2491 O 231.552 4.33823 3.32356 0
M  V30 2492 H 228.646 0.634262 0.530698 0
M  V30 2493 H 231.192 1.64725 0.407883 0
M  V30 2494 H 229.964 3.70473 1.25958 0
M  V30 2495 H 229.587 2.8662 2.75563 0
M  V30 2496 N 230.584 -0.659388 1.43143 0
M  V30 2497 C 231.531 -1.77249 1.47822 0
M  V30 2498 C 232.501 -1.62818 0.328558 0
M  V30 2499 O 233.686 -1.83151 0.534838 0
M  V30 2500 C 230.826 -3.15371 1.40126 0
M  V30 2501 C 229.939 -3.4098 2.65249 0
M  V30 2502 C 229.074 -4.68915 2.49584 0
M  V30 2503 C 228.113 -4.87608 3.70006 0
M  V30 2504 N 227.25 -6.06796 3.53189 0
M  V30 2505 H 232.09 -1.72584 2.42938 0
M  V30 2506 H 229.627 -0.842297 1.20598 0
M  V30 2507 H 231.585 -3.9521 1.33659 0
M  V30 2508 H 230.215 -3.19121 0.485964 0
M  V30 2509 H 229.267 -2.55282 2.8202 0
M  V30 2510 H 230.579 -3.50681 3.54717 0
M  V30 2511 H 229.733 -5.56871 2.4079 0
M  V30 2512 H 228.472 -4.61524 1.5763 0
M  V30 2513 H 227.477 -3.9809 3.79215 0
M  V30 2514 H 228.702 -4.96834 4.62961 0
M  V30 2515 H 226.648 -6.00549 2.63965 0
M  V30 2516 H 226.565 -6.17428 4.36255 0
M  V30 2517 H 227.833 -6.9739 3.48236 0
M  V30 2518 N 232.062 -1.29571 -0.897171 0
M  V30 2519 C 233.292 -1.20408 -1.67886 0
M  V30 2520 C 233.7 0.237429 -1.87704 0
M  V30 2521 O 233.043 1.17048 -1.41582 0
M  V30 2522 C 233.105 -1.84887 -3.08314 0
M  V30 2523 C 232.769 -3.34189 -3.11716 0
M  V30 2524 C 233.766 -4.30374 -2.91675 0
M  V30 2525 C 231.451 -3.75431 -3.33701 0
M  V30 2526 C 233.445 -5.65776 -2.93557 0
M  V30 2527 C 231.132 -5.10955 -3.35214 0
M  V30 2528 C 232.13 -6.05938 -3.15164 0
M  V30 2529 O 231.818 -7.38987 -3.1647 0
M  V30 2530 H 231.55 -0.418289 -0.531046 0
M  V30 2531 H 234.104 -1.71514 -1.13014 0
M  V30 2532 H 232.334 -1.28295 -3.64798 0
M  V30 2533 H 234.023 -1.70011 -3.6858 0
M  V30 2534 H 234.789 -3.99844 -2.74499 0
M  V30 2535 H 230.668 -3.01953 -3.48347 0
M  V30 2536 H 234.212 -6.39889 -2.77826 0
M  V30 2537 H 230.109 -5.4113 -3.51922 0
M  V30 2538 H 230.877 -7.47823 -3.3272 0
M  V30 2539 N 233.54 1.10788 -1.12088 0
M  V30 2540 C 234.78 1.84297 -0.883974 0
M  V30 2541 C 235.144 1.83036 0.579797 0
M  V30 2542 O 236.345 2.52061 0.933734 0
M  V30 2543 C 234.616 3.27173 -1.43849 0
M  V30 2544 S 236.175 4.17853 -1.33957 0
M  V30 2545 H 232.993 0.635433 -0.318977 0
M  V30 2546 H 235.595 1.33341 -1.4297 0
M  V30 2547 H 234.299 3.25658 -2.49749 0
M  V30 2548 H 233.83 3.83198 -0.890096 0
M  V30 2549 H 235.845 4.95239 -0.308603 0
M  V30 2550 N 235.018 0.912232 1.28515 0
M  V30 2551 C 236.264 0.545405 1.95328 0
M  V30 2552 C 236.597 -0.908313 1.71649 0
M  V30 2553 O 235.872 -1.64575 1.03659 0
M  V30 2554 C 236.155 0.853483 3.4984 0
M  V30 2555 C 236.008 2.35982 3.82926 0
M  V30 2556 C 237.327 0.348589 4.38717 0
M  V30 2557 H 234.446 0.199626 0.709449 0
M  V30 2558 H 237.088 1.1412 1.5191 0
M  V30 2559 H 235.238 0.34643 3.86952 0
M  V30 2560 H 236.91 2.93738 3.55691 0
M  V30 2561 H 235.153 2.81543 3.30024 0
M  V30 2562 H 235.824 2.52593 4.90816 0
M  V30 2563 H 238.3 0.78294 4.08668 0
M  V30 2564 H 237.176 0.593242 5.45685 0
M  V30 2565 H 237.437 -0.751049 4.35674 0
M  V30 2566 N 236.496 -1.42363 0.676048 0
M  V30 2567 C 237.459 -2.29199 0.00766941 0
M  V30 2568 C 238.459 -1.43389 -0.727745 0
M  V30 2569 O 239.649 -1.64764 -0.56556 0
M  V30 2570 C 236.781 -3.2591 -0.999785 0
M  V30 2571 H 237.974 -2.89794 0.771988 0
M  V30 2572 H 235.527 -1.50024 0.438468 0
M  V30 2573 H 236.262 -2.70256 -1.79255 0
M  V30 2574 H 236.047 -3.89202 -0.475829 0
M  V30 2575 H 237.537 -3.91028 -1.46583 0
M  V30 2576 N 237.974 -0.419461 -1.51915 0
M  V30 2577 C 239.204 0.151915 -2.06041 0
M  V30 2578 C 239.612 1.38539 -1.28855 0
M  V30 2579 O 238.955 1.80592 -0.336463 0
M  V30 2580 C 239.017 0.557119 -3.55157 0
M  V30 2581 C 238.681 -0.567054 -4.53468 0
M  V30 2582 C 239.678 -1.43379 -4.99738 0
M  V30 2583 C 237.363 -0.742693 -4.96779 0
M  V30 2584 C 239.357 -2.46102 -5.87973 0
M  V30 2585 C 237.044 -1.77322 -5.84808 0
M  V30 2586 C 238.042 -2.63078 -6.30301 0
M  V30 2587 O 237.73 -3.64364 -7.16585 0
M  V30 2588 H 237.462 0.0193293 -0.675724 0
M  V30 2589 H 240.016 -0.592073 -1.96682 0
M  V30 2590 H 238.246 1.35355 -3.62238 0
M  V30 2591 H 239.935 1.05759 -3.9188 0
M  V30 2592 H 240.701 -1.30954 -4.66986 0
M  V30 2593 H 236.58 -0.0848307 -4.60922 0
M  V30 2594 H 240.124 -3.13071 -6.23404 0
M  V30 2595 H 236.021 -1.89773 -6.16974 0
M  V30 2596 H 236.789 -3.60731 -7.34721 0
M  V30 2597 N 239.452 1.56882 -0.150215 0
M  V30 2598 C 240.7 1.9584 0.499105 0
M  V30 2599 C 241.021 1.03623 1.65188 0
M  V30 2600 O 240.291 0.0984084 1.95653 0
M  V30 2601 H 238.871 0.723119 0.187373 0
M  V30 2602 H 241.533 1.9358 -0.226466 0
M  V30 2603 H 240.629 2.99638 0.873122 0
M  V30 2604 N 240.93 -0.123565 1.57115 0
M  V30 2605 C 242.176 -0.833386 1.84885 0
M  V30 2606 C 242.509 -1.79742 0.735292 0
M  V30 2607 O 241.784 -1.92764 -0.25925 0
M  V30 2608 C 242.067 -1.5873 3.23228 0
M  V30 2609 C 241.92 -0.643183 4.45178 0
M  V30 2610 C 243.239 -2.54453 3.59085 0
M  V30 2611 H 240.358 -0.301518 0.6725 0
M  V30 2612 H 243 -0.097778 1.89748 0
M  V30 2613 H 241.15 -2.21438 3.19214 0
M  V30 2614 H 242.822 -0.0253015 4.61293 0
M  V30 2615 H 241.065 0.0456139 4.33776 0
M  V30 2616 H 241.736 -1.20724 5.38637 0
M  V30 2617 H 244.212 -2.01853 3.63861 0
M  V30 2618 H 243.088 -3.04238 4.5687 0
M  V30 2619 H 243.349 -3.36906 2.86264 0
M  V30 2620 N 242.408 -1.52605 -0.393616 0
M  V30 2621 C 243.656 -1.67093 -1.13685 0
M  V30 2622 C 243.977 -0.411011 -1.90619 0
M  V30 2623 O 243.247 0.574491 -1.87287 0
M  V30 2624 H 241.827 -0.615923 -0.422668 0
M  V30 2625 H 244.489 -1.89704 -0.447039 0
M  V30 2626 H 243.585 -2.51922 -1.84232 0
M  V30 2627 N 243.887 0.651787 -1.4349 0
M  V30 2628 C 245.136 1.40754 -1.44469 0
M  V30 2629 C 245.449 1.95463 -0.0731845 0
M  V30 2630 O 246.655 2.71471 0.0395721 0
M  V30 2631 C 245.111 2.54735 -2.5424 0
M  V30 2632 C 244.719 2.06628 -3.97504 0
M  V30 2633 C 246.463 3.32092 -2.64414 0
M  V30 2634 C 244.37 3.17829 -4.98737 0
M  V30 2635 H 243.3 0.528862 -0.53742 0
M  V30 2636 H 245.951 0.703365 -1.69485 0
M  V30 2637 H 244.333 3.2763 -2.22428 0
M  V30 2638 H 245.507 1.40734 -4.38783 0
M  V30 2639 H 243.822 1.42146 -3.91387 0
M  V30 2640 H 246.419 4.14952 -3.37223 0
M  V30 2641 H 246.762 3.80217 -1.69532 0
M  V30 2642 H 247.295 2.66279 -2.95534 0
M  V30 2643 H 244.034 2.74671 -5.95177 0
M  V30 2644 H 243.554 3.82429 -4.62069 0
M  V30 2645 H 245.233 3.82937 -5.21505 0
M  V30 2646 N 245.365 1.30045 0.890287 0
M  V30 2647 C 246.614 1.17929 1.63633 0
M  V30 2648 C 246.927 -0.266204 1.9378 0
M  V30 2649 O 248.133 -0.508804 2.6669 0
M  V30 2650 C 246.589 2.06317 2.94892 0
M  V30 2651 C 246.197 3.55745 2.72305 0
M  V30 2652 C 247.941 2.0295 3.72843 0
M  V30 2653 C 245.848 4.36205 3.99348 0
M  V30 2654 H 244.778 0.437782 0.613892 0
M  V30 2655 H 247.429 1.54754 0.986075 0
M  V30 2656 H 245.811 1.6237 3.61182 0
M  V30 2657 H 246.985 4.07805 2.1455 0
M  V30 2658 H 245.3 3.6088 2.07737 0
M  V30 2659 H 247.897 2.60319 4.67053 0
M  V30 2660 H 248.24 1.0117 4.0382 0
M  V30 2661 H 248.773 2.4499 3.13408 0
M  V30 2662 H 245.512 5.38659 3.73533 0
M  V30 2663 H 245.032 3.8891 4.56628 0
M  V30 2664 H 246.711 4.47362 4.67415 0
M  V30 2665 N 246.843 -1.10192 1.12674 0
M  V30 2666 C 248.091 -1.81845 0.881861 0
M  V30 2667 C 248.412 -1.85737 -0.593867 0
M  V30 2668 O 247.682 -1.33724 -1.4316 0
M  V30 2669 H 246.262 -0.673432 0.323261 0
M  V30 2670 H 248.924 -1.33316 1.42172 0
M  V30 2671 H 248.02 -2.85288 1.2656 0
M  V30 2672 N 248.321 -0.919034 -1.28029 0
M  V30 2673 C 249.568 -0.554934 -1.94748 0
M  V30 2674 C 249.896 0.90231 -1.72304 0
M  V30 2675 O 249.151 1.65767 -1.04018 0
M  V30 2676 C 249.45 -0.816855 -3.4794 0
M  V30 2677 C 249.116 -2.25448 -3.90492 0
M  V30 2678 C 247.778 -2.64752 -4.01821 0
M  V30 2679 C 250.13 -3.18977 -4.12193 0
M  V30 2680 C 247.458 -3.96727 -4.32232 0
M  V30 2681 C 249.81 -4.50523 -4.44086 0
M  V30 2682 C 248.474 -4.89673 -4.53626 0
M  V30 2683 H 247.744 -0.203065 -0.712633 0
M  V30 2684 H 250.391 -1.16136 -1.52265 0
M  V30 2685 H 248.696 -0.127677 -3.91592 0
M  V30 2686 H 250.393 -0.514238 -3.97689 0
M  V30 2687 H 246.983 -1.93952 -3.82205 0
M  V30 2688 H 251.167 -2.89817 -4.02889 0
M  V30 2689 H 246.423 -4.26754 -4.37825 0
M  V30 2690 H 250.597 -5.23005 -4.59825 0
M  V30 2691 H 248.224 -5.91969 -4.76946 0
M  V30 2692 N 249.799 1.42003 -0.683588 0
M  V30 2693 C 251.046 2.01413 -0.209514 0
M  V30 2694 C 251.374 1.54088 1.1869 0
M  V30 2695 O 250.629 0.737591 1.81268 0
M  V30 2696 C 250.928 3.56827 -0.202357 0
M  V30 2697 C 250.594 4.23617 -1.54464 0
M  V30 2698 C 249.256 4.41577 -1.91215 0
M  V30 2699 C 251.608 4.61178 -2.42826 0
M  V30 2700 C 248.936 4.9437 -3.15935 0
M  V30 2701 C 251.288 5.15355 -3.66867 0
M  V30 2702 C 249.952 5.31528 -4.03776 0
M  V30 2703 H 249.222 0.737023 -0.0766668 0
M  V30 2704 H 251.869 1.70067 -0.880312 0
M  V30 2705 H 250.174 3.87892 0.551969 0
M  V30 2706 H 251.871 4.00588 0.181793 0
M  V30 2707 H 248.461 4.10004 -1.24877 0
M  V30 2708 H 252.645 4.46968 -2.15717 0
M  V30 2709 H 247.901 5.05076 -3.44541 0
M  V30 2710 H 252.075 5.43402 -4.35531 0
M  V30 2711 H 249.702 5.72199 -5.00492 0
M  V30 2712 N 251.277 0.427512 1.51691 0
M  V30 2713 C 252.224 -0.388867 2.275 0
M  V30 2714 C 253.194 -1.02532 1.30677 0
M  V30 2715 O 254.379 -1.0461 1.59566 0
M  V30 2716 C 251.519 -1.48954 3.11298 0
M  V30 2717 C 250.632 -0.872194 4.23104 0
M  V30 2718 C 249.767 -1.94709 4.94228 0
M  V30 2719 C 248.806 -1.30766 5.97969 0
M  V30 2720 N 247.943 -2.32349 6.62539 0
M  V30 2721 H 252.783 0.263997 2.96828 0
M  V30 2722 H 250.32 0.142033 1.46413 0
M  V30 2723 H 252.278 -2.13887 3.58201 0
M  V30 2724 H 250.908 -2.11217 2.44105 0
M  V30 2725 H 249.96 -0.111419 3.80237 0
M  V30 2726 H 251.272 -0.365264 4.97461 0
M  V30 2727 H 250.426 -2.67327 5.44629 0
M  V30 2728 H 249.165 -2.48773 4.1948 0
M  V30 2729 H 248.17 -0.566902 5.4687 0
M  V30 2730 H 249.395 -0.774483 6.74669 0
M  V30 2731 H 247.341 -2.85511 5.90609 0
M  V30 2732 H 247.258 -1.8652 7.3263 0
M  V30 2733 H 248.526 -3.04481 7.17574 0
M  V30 2734 N 252.755 -1.56801 0.158532 0
M  V30 2735 C 253.718 -2.16138 -0.762705 0
M  V30 2736 C 254.718 -1.1061 -1.16713 0
M  V30 2737 O 255.908 -1.36191 -1.08617 0
M  V30 2738 C 253.04 -2.73386 -2.03649 0
M  V30 2739 H 254.233 -2.98886 -0.246354 0
M  V30 2740 H 251.786 -1.56035 -0.0909744 0
M  V30 2741 H 252.521 -1.94335 -2.59623 0
M  V30 2742 H 252.306 -3.50601 -1.75559 0
M  V30 2743 H 253.796 -3.19065 -2.6942 0
M  V30 2744 N 254.233 0.115231 -1.57178 0
M  V30 2745 C 255.181 1.16014 -2.01602 0
M  V30 2746 C 256.175 1.42653 -0.913587 0
M  V30 2747 O 257.381 1.42571 -1.09879 0
M  V30 2748 H 253.756 0.391252 -0.642204 0
M  V30 2749 H 255.727 0.758998 -2.88586 0
M  V30 2750 C 254.476 2.47767 -2.4394 0
M  V30 2751 H 253.799 2.28108 -3.28339 0
M  V30 2752 H 255.239 3.19432 -2.78818 0
M  V30 2753 C 253.698 3.10617 -1.30455 0
M  V30 2754 O 254.228 3.96846 -0.622585 0
M  V30 2755 N 252.434 2.70553 -1.06064 0
M  V30 2756 H 251.981 2.00527 -1.61699 0
M  V30 2757 H 251.939 3.12934 -0.303284 0
M  V30 2758 N 255.711 1.52812 0.385517 0
M  V30 2759 C 256.621 1.80766 1.49535 0
M  V30 2760 C 257.637 0.694651 1.59532 0
M  V30 2761 O 258.813 0.982611 1.75803 0
M  V30 2762 C 255.878 1.97381 2.85029 0
M  V30 2763 C 254.939 3.21295 2.84724 0
M  V30 2764 C 254.172 3.37108 4.13756 0
M  V30 2765 O 254.395 2.5765 5.08893 0
M  V30 2766 O 253.329 4.30378 4.20783 0
M  V30 2767 H 257.155 2.75015 1.28842 0
M  V30 2768 H 254.74 1.37946 0.573697 0
M  V30 2769 H 256.622 2.09996 3.65349 0
M  V30 2770 H 255.297 1.06322 3.05741 0
M  V30 2771 H 254.204 3.1412 2.03174 0
M  V30 2772 H 255.537 4.12212 2.68965 0
M  V30 2773 N 257.189 -0.644168 1.43834 0
M  V30 2774 C 258.137 -1.77793 1.49974 0
M  V30 2775 C 259.131 -1.65253 0.372536 0
M  V30 2776 O 260.337 -1.7149 0.546924 0
M  V30 2777 H 256.712 -0.58675 0.47035 0
M  V30 2778 H 258.683 -1.69736 2.45423 0
M  V30 2779 C 257.432 -3.16087 1.4486 0
M  V30 2780 H 256.755 -3.26378 2.30905 0
M  V30 2781 H 258.195 -3.95349 1.53217 0
M  V30 2782 C 256.654 -3.36484 0.167463 0
M  V30 2783 O 257.184 -3.94298 -0.767609 0
M  V30 2784 N 255.39 -2.90504 0.0747556 0
M  V30 2785 H 254.937 -2.4364 0.836507 0
M  V30 2786 H 254.895 -3.04527 -0.781714 0
M  V30 2787 N 258.668 -1.30515 -0.883378 0
M  V30 2788 C 259.893 -1.22487 -1.67367 0
M  V30 2789 C 260.318 0.208767 -1.86938 0
M  V30 2790 O 259.676 1.15015 -1.40148 0
M  V30 2791 C 259.724 -1.96041 -3.02655 0
M  V30 2792 O 258.828 -1.28859 -3.91751 0
M  V30 2793 H 258.169 -0.423573 -0.511353 0
M  V30 2794 H 260.699 -1.72362 -1.10239 0
M  V30 2795 H 260.709 -2.05124 -3.52687 0
M  V30 2796 H 259.384 -3.00307 -2.8773 0
M  V30 2797 H 257.961 -1.28141 -3.50192 0
M  V30 2798 N 260.146 1.09593 -1.13257 0
M  V30 2799 C 261.076 2.18214 -0.830946 0
M  V30 2800 C 262.057 1.68812 0.208966 0
M  V30 2801 O 263.242 1.9408 0.0682666 0
M  V30 2802 C 260.372 3.46051 -0.294296 0
M  V30 2803 C 259.326 4.08778 -1.26826 0
M  V30 2804 C 258.652 5.31419 -0.591449 0
M  V30 2805 C 259.952 4.51476 -2.62615 0
M  V30 2806 H 261.646 2.43703 -1.73923 0
M  V30 2807 H 259.192 1.17128 -0.837675 0
M  V30 2808 H 261.145 4.2134 -0.0709606 0
M  V30 2809 H 259.869 3.20079 0.649366 0
M  V30 2810 H 258.528 3.35505 -1.47756 0
M  V30 2811 H 258.176 5.01727 0.357633 0
M  V30 2812 H 257.876 5.74341 -1.24123 0
M  V30 2813 H 259.4 6.09433 -0.377355 0
M  V30 2814 H 260.814 5.17999 -2.45663 0
M  V30 2815 H 259.211 5.05277 -3.23752 0
M  V30 2816 H 260.281 3.63962 -3.20406 0
M  V30 2817 N 261.624 0.925811 1.2754 0
M  V30 2818 C 262.554 0.440748 2.29303 0
M  V30 2819 C 263.535 -0.497971 1.62648 0
M  V30 2820 O 264.72 -0.403126 1.8997 0
M  V30 2821 C 261.85 -0.309048 3.45922 0
M  V30 2822 C 260.804 0.54166 4.24559 0
M  V30 2823 C 260.13 -0.337191 5.33636 0
M  V30 2824 C 261.43 1.80516 4.90114 0
M  V30 2825 H 263.124 1.29121 2.70126 0
M  V30 2826 H 260.67 0.622323 1.29858 0
M  V30 2827 H 262.623 -0.659315 4.1621 0
M  V30 2828 H 261.347 -1.19352 3.04011 0
M  V30 2829 H 260.006 0.874609 3.56014 0
M  V30 2830 H 259.654 -1.22056 4.87966 0
M  V30 2831 H 259.354 0.228497 5.87156 0
M  V30 2832 H 260.878 -0.683072 6.06767 0
M  V30 2833 H 262.292 1.52307 5.52698 0
M  V30 2834 H 260.689 2.3142 5.53683 0
M  V30 2835 H 261.759 2.52581 4.13921 0
M  V30 2836 N 263.102 -1.41638 0.69111 0
M  V30 2837 C 264.327 -2.06148 0.227583 0
M  V30 2838 C 264.752 -1.51652 -1.11281 0
M  V30 2839 O 264.11 -0.64164 -1.69566 0
M  V30 2840 C 264.158 -3.60095 0.190858 0
M  V30 2841 O 263.262 -4.03845 -0.835664 0
M  V30 2842 H 262.603 -0.654434 0.112306 0
M  V30 2843 H 265.133 -1.81484 0.944714 0
M  V30 2844 H 265.143 -4.07995 0.020207 0
M  V30 2845 H 263.818 -3.99129 1.16915 0
M  V30 2846 H 262.395 -3.67458 -0.63473 0
M  V30 2847 N 264.58 -0.43555 -1.51462 0
M  V30 2848 C 265.543 0.365137 -2.26273 0
M  V30 2849 C 266.543 0.951227 -1.29647 0
M  V30 2850 O 267.733 0.825958 -1.53374 0
M  V30 2851 C 264.865 1.51645 -3.05314 0
M  V30 2852 H 266.058 -0.290474 -2.9849 0
M  V30 2853 H 263.611 -0.188676 -1.55157 0
M  V30 2854 H 264.346 2.20816 -2.3751 0
M  V30 2855 H 264.131 1.10238 -3.76284 0
M  V30 2856 H 265.621 2.08218 -3.61987 0
M  V30 2857 N 266.058 1.56714 -0.166846 0
M  V30 2858 C 266.99 2.14914 0.796537 0
M  V30 2859 C 268.003 1.10357 1.19688 0
M  V30 2860 O 269.192 1.37561 1.13751 0
M  V30 2861 C 266.292 2.67326 2.08303 0
M  V30 2862 C 265.465 3.96493 1.84696 0
M  V30 2863 C 264.524 4.34014 2.97521 0
M  V30 2864 O 263.55 5.01973 2.6835 0
M  V30 2865 N 264.752 3.95208 4.25196 0
M  V30 2866 H 267.517 2.98205 0.299006 0
M  V30 2867 H 265.078 1.61892 0.0160839 0
M  V30 2868 H 267.07 2.89428 2.82867 0
M  V30 2869 H 265.64 1.88649 2.4926 0
M  V30 2870 H 264.86 3.82814 0.940602 0
M  V30 2871 H 266.148 4.8086 1.66285 0
M  V30 2872 H 265.546 3.40487 4.51758 0
M  V30 2873 H 264.103 4.2232 4.96477 0
M  V30 2874 N 267.536 -0.106894 1.57237 0
M  V30 2875 C 268.466 -1.13148 2.04254 0
M  V30 2876 C 269.447 -1.42476 0.929224 0
M  V30 2877 O 270.632 -1.52709 1.19973 0
M  V30 2878 C 267.762 -2.4545 2.45706 0
M  V30 2879 C 266.716 -2.30558 3.60592 0
M  V30 2880 C 266.042 -3.67931 3.87983 0
M  V30 2881 C 267.342 -1.75597 4.91897 0
M  V30 2882 H 269.036 -0.740374 2.90101 0
M  V30 2883 H 266.582 -0.354696 1.39563 0
M  V30 2884 H 268.535 -3.17389 2.77205 0
M  V30 2885 H 267.259 -2.86475 1.56843 0
M  V30 2886 H 265.918 -1.61067 3.29322 0
M  V30 2887 H 265.566 -4.06462 2.96306 0
M  V30 2888 H 265.266 -3.58817 4.65322 0
M  V30 2889 H 266.79 -4.41356 4.21945 0
M  V30 2890 H 268.204 -2.37364 5.21854 0
M  V30 2891 H 266.601 -1.77272 5.73319 0
M  V30 2892 H 267.671 -0.714451 4.79608 0
M  V30 2893 N 269.014 -1.53014 -0.377408 0
M  V30 2894 C 269.961 -1.78616 -1.46168 0
M  V30 2895 C 270.931 -0.629917 -1.53692 0
M  V30 2896 O 272.116 -0.870861 -1.69766 0
M  V30 2897 C 269.256 -1.97123 -2.8326 0
M  V30 2898 C 268.369 -3.24831 -2.84796 0
M  V30 2899 C 267.504 -3.33591 -4.13389 0
M  V30 2900 C 266.543 -4.55377 -4.09021 0
M  V30 2901 N 265.68 -4.61355 -5.29241 0
M  V30 2902 H 270.52 -2.71142 -1.23637 0
M  V30 2903 H 268.057 -1.34326 -0.599577 0
M  V30 2904 H 270.015 -2.05839 -3.62886 0
M  V30 2905 H 268.645 -1.07946 -3.04216 0
M  V30 2906 H 267.697 -3.25128 -1.97474 0
M  V30 2907 H 269.009 -4.14523 -2.77439 0
M  V30 2908 H 268.163 -3.41554 -5.01424 0
M  V30 2909 H 266.902 -2.41894 -4.23484 0
M  V30 2910 H 265.907 -4.47527 -3.19373 0
M  V30 2911 H 267.132 -5.48402 -4.00539 0
M  V30 2912 H 265.078 -3.72554 -5.39944 0
M  V30 2913 H 264.995 -5.44935 -5.24006 0
M  V30 2914 H 266.263 -4.73586 -6.19141 0
M  V30 2915 N 270.492 0.636531 -1.44174 0
M  V30 2916 C 271.74 1.39343 -1.46383 0
M  V30 2917 C 272.061 1.94766 -0.0955715 0
M  V30 2918 O 271.331 1.75452 0.871395 0
M  V30 2919 H 269.911 0.517199 -0.538994 0
M  V30 2920 H 272.573 0.74957 -1.7991 0
M  V30 2921 H 271.669 2.22746 -2.18611 0
M  V30 2922 N 271.97 1.30982 0.876444 0
M  V30 2923 C 273.217 1.20296 1.62896 0
M  V30 2924 C 273.545 -0.240395 1.93009 0
M  V30 2925 O 272.8 -1.18733 1.55567 0
M  V30 2926 C 273.099 1.98572 2.9716 0
M  V30 2927 C 272.765 3.48125 2.86566 0
M  V30 2928 C 271.427 3.88905 2.83383 0
M  V30 2929 C 273.779 4.43322 2.74071 0
M  V30 2930 C 271.107 5.2316 2.65556 0
M  V30 2931 C 273.459 5.77695 2.57781 0
M  V30 2932 C 272.123 6.17704 2.52979 0
M  V30 2933 H 271.393 0.440193 0.59608 0
M  V30 2934 H 274.04 1.62177 1.01837 0
M  V30 2935 H 272.345 1.49352 3.62217 0
M  V30 2936 H 274.042 1.8769 3.54364 0
M  V30 2937 H 270.632 3.15723 2.89856 0
M  V30 2938 H 274.816 4.12752 2.75589 0
M  V30 2939 H 270.072 5.53241 2.60259 0
M  V30 2940 H 274.246 6.51091 2.47089 0
M  V30 2941 H 271.873 7.21678 2.38924 0
M  V30 2942 N 273.449 -1.08991 1.13837 0
M  V30 2943 C 274.86 -1.62746 0.914917 0
M  V30 2944 C 275.211 -1.88403 -0.547594 0
M  V30 2945 O 274.336 -1.63706 -1.41525 0
M  V30 2946 C 274.931 -2.95662 1.65437 0
M  V30 2947 C 273.49 -3.46225 1.47666 0
M  V30 2948 C 272.637 -2.20562 1.6807 0
M  V30 2949 H 275.588 -0.922946 1.29102 0
M  V30 2950 H 275.609 -3.63825 1.11407 0
M  V30 2951 H 275.121 -2.76956 2.71877 0
M  V30 2952 H 273.222 -3.70046 0.435478 0
M  V30 2953 H 273.335 -4.23368 2.24268 0
M  V30 2954 H 271.699 -2.29439 1.10589 0
M  V30 2955 H 272.482 -2.0437 2.7584 0
M  V30 2956 N 274.927 -0.932562 -1.27047 0
M  V30 2957 C 275.857 -0.452902 -2.29066 0
M  V30 2958 C 276.838 0.489338 -1.62909 0
M  V30 2959 O 278.023 0.393046 -1.90181 0
M  V30 2960 C 275.153 0.290698 -3.46081 0
M  V30 2961 C 274.107 -0.564168 -4.24265 0
M  V30 2962 C 273.433 0.308886 -5.33807 0
M  V30 2963 C 274.733 -1.83112 -4.89149 0
M  V30 2964 H 276.427 -1.30552 -2.69437 0
M  V30 2965 H 273.973 -0.629201 -1.29526 0
M  V30 2966 H 275.926 0.637233 -4.16554 0
M  V30 2967 H 274.65 1.17738 -3.0464 0
M  V30 2968 H 273.309 -0.893477 -3.55545 0
M  V30 2969 H 272.957 1.19467 -4.88607 0
M  V30 2970 H 272.657 -0.259633 -5.87026 0
M  V30 2971 H 274.181 0.650884 -6.07121 0
M  V30 2972 H 275.595 -1.55236 -5.51883 0
M  V30 2973 H 273.992 -2.34353 -5.52448 0
M  V30 2974 H 275.062 -2.54772 -4.12576 0
M  V30 2975 N 276.405 1.4127 -0.698611 0
M  V30 2976 C 277.652 2.0118 -0.230865 0
M  V30 2977 C 277.98 1.55338 1.17049 0
M  V30 2978 O 277.235 0.756775 1.80475 0
M  V30 2979 C 277.534 3.56592 -0.240192 0
M  V30 2980 C 277.2 4.21955 -1.58948 0
M  V30 2981 C 275.862 4.39524 -1.95887 0
M  V30 2982 C 278.214 4.58576 -2.47704 0
M  V30 2983 C 275.542 4.90992 -3.2116 0
M  V30 2984 C 277.894 5.11435 -3.72313 0
M  V30 2985 C 276.558 5.27215 -4.0939 0
M  V30 2986 H 275.828 0.736169 -0.0844796 0
M  V30 2987 H 278.475 1.69124 -0.8983 0
M  V30 2988 H 276.78 3.88456 0.510797 0
M  V30 2989 H 278.477 4.00758 0.139296 0
M  V30 2990 H 275.067 4.08657 -1.29219 0
M  V30 2991 H 279.251 4.44654 -2.20445 0
M  V30 2992 H 274.507 5.01393 -3.49878 0
M  V30 2993 H 278.681 5.38752 -4.4127 0
M  V30 2994 H 276.308 5.66859 -5.06533 0
M  V30 2995 N 277.883 0.443576 1.51229 0
M  V30 2996 C 278.813 -0.355142 2.30783 0
M  V30 2997 C 279.794 -1.0154 1.36468 0
M  V30 2998 O 280.979 -1.01785 1.65389 0
M  V30 2999 C 278.109 -1.45312 3.15439 0
M  V30 3000 C 277.063 -0.916002 4.18083 0
M  V30 3001 C 276.389 -2.1102 4.91299 0
M  V30 3002 C 277.689 0.0538602 5.22272 0
M  V30 3003 H 279.383 0.308767 2.97804 0
M  V30 3004 H 276.929 0.149937 1.43217 0
M  V30 3005 H 278.882 -2.01914 3.69876 0
M  V30 3006 H 277.606 -2.14541 2.46252 0
M  V30 3007 H 276.265 -0.372145 3.64706 0
M  V30 3008 H 275.913 -2.78882 4.18609 0
M  V30 3009 H 275.613 -1.75717 5.60712 0
M  V30 3010 H 277.137 -2.68164 5.48562 0
M  V30 3011 H 278.551 -0.422069 5.71744 0
M  V30 3012 H 276.948 0.319776 5.99247 0
M  V30 3013 H 278.018 0.98858 4.74716 0
M  V30 3014 N 279.361 -1.56624 0.175154 0
M  V30 3015 C 280.311 -2.14747 -0.766004 0
M  V30 3016 C 281.295 -1.08275 -1.19018 0
M  V30 3017 O 282.487 -1.34388 -1.15191 0
M  V30 3018 C 279.616 -2.79478 -1.99366 0
M  V30 3019 C 278.702 -3.93114 -1.5913 0
M  V30 3020 N 279.093 -4.97752 -0.89872 0
M  V30 3021 C 277.391 -4.04345 -1.88204 0
M  V30 3022 C 278.092 -5.77473 -0.700012 0
M  V30 3023 N 277.068 -5.29207 -1.24263 0
M  V30 3024 H 280.87 -2.93015 -0.22793 0
M  V30 3025 H 278.384 -1.6238 -0.0253843 0
M  V30 3026 H 280.381 -3.19498 -2.67818 0
M  V30 3027 H 279.041 -2.02692 -2.53665 0
M  V30 3028 H 280.052 -5.14903 -0.556347 0
M  V30 3029 H 276.729 -3.38667 -2.44153 0
M  V30 3030 H 278.119 -6.71728 -0.152047 0
M  V30 3031 N 280.839 0.0985539 -1.57292 0
M  V30 3032 C 282.064 0.820196 -1.90493 0
M  V30 3033 C 282.489 1.71658 -0.769094 0
M  V30 3034 O 281.847 1.79133 0.279495 0
M  V30 3035 C 281.895 1.61242 -3.22542 0
M  V30 3036 O 280.999 2.72108 -3.09888 0
M  V30 3037 H 280.34 0.225547 -0.62452 0
M  V30 3038 H 282.87 0.0748159 -2.04463 0
M  V30 3039 H 282.88 1.99737 -3.55766 0
M  V30 3040 H 281.555 0.954535 -4.04798 0
M  V30 3041 H 280.132 2.36667 -2.88172 0
M  V30 3042 N 282.317 1.53212 0.369288 0
M  V30 3043 C 283.265 1.80054 1.47253 0
M  V30 3044 C 284.259 0.669456 1.55611 0
M  V30 3045 O 285.465 0.852328 1.58541 0
M  V30 3046 H 281.84 0.570034 0.490475 0
M  V30 3047 H 283.811 2.72403 1.21817 0
M  V30 3048 C 282.56 2.00403 2.84137 0
M  V30 3049 H 281.883 2.86876 2.78464 0
M  V30 3050 H 283.323 2.23164 3.60519 0
M  V30 3051 C 281.782 0.782081 3.27697 0
M  V30 3052 O 282.312 -0.0310205 4.01688 0
M  V30 3053 N 280.518 0.606573 2.84199 0
M  V30 3054 H 280.065 1.26939 2.24152 0
M  V30 3055 H 280.023 -0.20962 3.137 0
M  V30 3056 N 283.795 -0.628877 1.44509 0
M  V30 3057 C 284.725 -1.75187 1.54376 0
M  V30 3058 C 285.706 -1.65411 0.396618 0
M  V30 3059 O 286.891 -1.84137 0.617031 0
M  V30 3060 C 284.021 -3.13725 1.48976 0
M  V30 3061 C 282.975 -3.38291 2.62189 0
M  V30 3062 C 282.301 -4.76883 2.41841 0
M  V30 3063 C 283.601 -3.30632 4.04326 0
M  V30 3064 H 285.295 -1.67187 2.48373 0
M  V30 3065 H 282.841 -0.802909 1.19538 0
M  V30 3066 H 284.794 -3.92064 1.54478 0
M  V30 3067 H 283.518 -3.22515 0.514961 0
M  V30 3068 H 282.177 -2.62334 2.56079 0
M  V30 3069 H 281.825 -4.82378 1.42548 0
M  V30 3070 H 281.525 -4.94278 3.17747 0
M  V30 3071 H 283.049 -5.57449 2.49165 0
M  V30 3072 H 284.463 -3.98873 4.11793 0
M  V30 3073 H 282.86 -3.59561 4.80454 0
M  V30 3074 H 283.93 -2.28404 4.27738 0
M  V30 3075 N 285.273 -1.31445 -0.869486 0
M  V30 3076 C 286.521 -1.20918 -1.61936 0
M  V30 3077 C 286.842 0.232683 -1.93607 0
M  V30 3078 O 286.112 1.15352 -1.58338 0
M  V30 3079 H 284.692 -0.44454 -0.600328 0
M  V30 3080 H 287.354 -1.64776 -1.0409 0
M  V30 3081 H 286.45 -1.78124 -2.56278 0
M  V30 3082 N 286.751 1.08385 -1.14413 0
M  V30 3083 C 287.681 2.17321 -0.854044 0
M  V30 3084 C 288.662 1.69024 0.191049 0
M  V30 3085 O 289.847 1.94141 0.0476779 0
M  V30 3086 C 286.977 3.45719 -0.330983 0
M  V30 3087 C 285.931 4.07409 -1.31155 0
M  V30 3088 C 285.257 5.30762 -0.64778 0
M  V30 3089 C 286.557 4.48665 -2.67388 0
M  V30 3090 H 288.251 2.41845 -1.76498 0
M  V30 3091 H 285.797 1.16233 -0.850051 0
M  V30 3092 H 287.75 4.21241 -0.115645 0
M  V30 3093 H 286.474 3.2075 0.615381 0
M  V30 3094 H 285.133 3.33919 -1.51306 0
M  V30 3095 H 284.781 5.02078 0.304398 0
M  V30 3096 H 284.481 5.72992 -1.30207 0
M  V30 3097 H 286.005 6.08998 -0.441972 0
M  V30 3098 H 287.419 5.15364 -2.51143 0
M  V30 3099 H 285.816 5.01814 -3.29093 0
M  V30 3100 H 286.886 3.60543 -3.24248 0
M  V30 3101 N 288.23 0.939286 1.26551 0
M  V30 3102 C 289.177 0.446088 2.26448 0
M  V30 3103 C 290.147 -0.493234 1.58608 0
M  V30 3104 O 291.332 -0.409857 1.86346 0
M  V30 3105 C 288.472 -0.284375 3.43926 0
M  V30 3106 C 287.585 0.690399 4.26448 0
M  V30 3107 C 286.72 -0.0610712 5.31165 0
M  V30 3108 C 285.759 0.905649 6.05363 0
M  V30 3109 N 284.896 0.186055 7.01853 0
M  V30 3110 H 289.736 1.30291 2.68008 0
M  V30 3111 H 287.273 0.65371 1.31776 0
M  V30 3112 H 289.231 -0.724313 4.10864 0
M  V30 3113 H 287.861 -1.10535 3.03285 0
M  V30 3114 H 286.913 1.24885 3.59316 0
M  V30 3115 H 288.225 1.42873 4.779 0
M  V30 3116 H 287.379 -0.56038 6.04106 0
M  V30 3117 H 286.118 -0.832297 4.80546 0
M  V30 3118 H 285.123 1.4161 5.3125 0
M  V30 3119 H 286.348 1.67685 6.58072 0
M  V30 3120 H 284.294 -0.566714 6.53548 0
M  V30 3121 H 284.211 0.863752 7.51049 0
M  V30 3122 H 285.479 -0.292221 7.78952 0
M  V30 3123 N 289.708 -1.40897 0.706093 0
M  V30 3124 C 290.985 -1.94868 0.169099 0
M  V30 3125 C 291.365 -1.64485 -1.32318 0
M  V30 3126 O 290.713 -0.95744 -2.07474 0
M  V30 3127 C 290.923 -3.45798 0.471654 0
M  V30 3128 C 292.271 -4.22663 0.405127 0
M  V30 3129 O 293.295 -3.53865 0.407168 0
M  V30 3130 O 292.154 -5.45216 0.374383 0
M  V30 3131 H 289.248 -0.82673 0.0211352 0
M  V30 3132 H 291.794 -1.50558 0.782976 0
M  V30 3133 H 290.566 -3.61235 1.50416 0
M  V30 3134 H 290.189 -3.97225 -0.172666 0
M  V30 3135 N 291.186 -0.45159 -1.50991 0
M  V30 3136 C 292.426 0.109066 -2.04109 0
M  V30 3137 C 292.79 1.38716 -1.32747 0
M  V30 3138 O 293.991 2.02896 -1.76314 0
M  V30 3139 C 292.262 0.308354 -3.56067 0
M  V30 3140 S 293.821 0.830369 -4.30872 0
M  V30 3141 H 290.639 0.0251531 -0.710555 0
M  V30 3142 H 293.241 -0.614264 -1.85599 0
M  V30 3143 H 291.945 -0.627962 -4.05567 0
M  V30 3144 H 291.476 1.05836 -3.78896 0
M  V30 3145 H 293.491 2.10626 -4.49279 0
M  V30 3146 N 292.664 1.56529 -0.183458 0
M  V30 3147 C 293.889 2.02064 0.467428 0
M  V30 3148 C 294.314 1.06282 1.55196 0
M  V30 3149 O 293.672 0.0443565 1.81246 0
M  V30 3150 C 293.72 3.46122 1.01153 0
M  V30 3151 O 292.824 3.53437 2.12499 0
M  V30 3152 H 292.165 0.654726 0.110588 0
M  V30 3153 H 294.695 2.02521 -0.290917 0
M  V30 3154 H 294.705 3.85676 1.33108 0
M  V30 3155 H 293.38 4.15331 0.217533 0
M  V30 3156 H 291.957 3.2575 1.81497 0
M  V30 3157 N 294.142 -0.090211 1.57342 0
M  V30 3158 C 295.391 -0.791531 1.8552 0
M  V30 3159 C 295.704 -1.79659 0.773441 0
M  V30 3160 O 296.91 -2.54616 0.942497 0
M  V30 3161 C 295.366 -1.45856 3.2902 0
M  V30 3162 C 294.974 -0.493017 4.45279 0
M  V30 3163 C 296.718 -2.14332 3.66418 0
M  V30 3164 C 294.625 -1.16491 5.79814 0
M  V30 3165 H 293.555 -0.299356 0.692027 0
M  V30 3166 H 296.206 -0.0445343 1.83446 0
M  V30 3167 H 294.588 -2.25318 3.2565 0
M  V30 3168 H 295.762 0.270464 4.60006 0
M  V30 3169 H 294.077 0.0863061 4.16311 0
M  V30 3170 H 296.674 -2.65344 4.64216 0
M  V30 3171 H 297.017 -2.93447 2.95287 0
M  V30 3172 H 297.55 -1.41724 3.71698 0
M  V30 3173 H 294.289 -0.41447 6.54188 0
M  V30 3174 H 293.809 -1.8997 5.68921 0
M  V30 3175 H 295.488 -1.69001 6.24538 0
M  V30 3176 N 295.62 -1.53406 -0.361157 0
M  V30 3177 C 296.568 -1.80832 -1.46296 0
M  V30 3178 C 297.562 -0.677699 -1.55253 0
M  V30 3179 O 298.768 -0.860723 -1.58087 0
M  V30 3180 H 295.143 -0.572627 -0.487445 0
M  V30 3181 H 297.114 -2.73045 -1.20371 0
M  V30 3182 C 295.863 -2.01907 -2.8307 0
M  V30 3183 H 295.186 -2.88349 -2.76938 0
M  V30 3184 H 296.626 -2.25072 -3.59331 0
M  V30 3185 C 295.085 -0.799449 -3.27277 0
M  V30 3186 O 295.615 0.00971761 -4.01699 0
M  V30 3187 N 293.821 -0.621637 -2.83873 0
M  V30 3188 H 293.368 -1.28126 -2.23476 0
M  V30 3189 H 293.326 0.19298 -3.13807 0
M  V30 3190 N 297.098 0.621204 -1.44841 0
M  V30 3191 C 298.509 1.20298 -1.42777 0
M  V30 3192 C 298.86 1.95639 -0.148259 0
M  V30 3193 O 297.985 2.02955 0.750892 0
M  V30 3194 C 298.58 2.1882 -2.58657 0
M  V30 3195 C 297.139 2.72403 -2.59756 0
M  V30 3196 C 296.286 1.4757 -2.34773 0
M  V30 3197 H 299.237 0.411297 -1.53278 0
M  V30 3198 H 299.258 3.01607 -2.31977 0
M  V30 3199 H 298.77 1.63957 -3.51766 0
M  V30 3200 H 296.871 3.31242 -1.70615 0
M  V30 3201 H 296.984 3.17765 -3.58556 0
M  V30 3202 H 295.348 1.76051 -1.8406 0
M  V30 3203 H 296.131 0.945954 -3.3001 0
M  V30 3204 N 298.576 1.31904 0.862503 0
M  V30 3205 C 299.523 1.20182 1.9704 0
M  V30 3206 C 300.493 0.0858247 1.65878 0
M  V30 3207 O 301.678 0.26 1.8902 0
M  V30 3208 C 298.818 0.922797 3.32533 0
M  V30 3209 C 297.931 2.12284 3.76244 0
M  V30 3210 C 297.066 1.77996 5.00491 0
M  V30 3211 C 296.105 2.94366 5.36671 0
M  V30 3212 N 295.242 2.60223 6.52095 0
M  V30 3213 H 300.082 2.14951 2.06398 0
M  V30 3214 H 297.619 1.06917 1.01031 0
M  V30 3215 H 299.577 0.741548 4.10557 0
M  V30 3216 H 298.207 0.0119227 3.22798 0
M  V30 3217 H 297.259 2.41461 2.9394 0
M  V30 3218 H 298.571 2.99357 3.98982 0
M  V30 3219 H 297.725 1.56377 5.862 0
M  V30 3220 H 296.464 0.881252 4.79672 0
M  V30 3221 H 295.469 3.16625 4.49476 0
M  V30 3222 H 296.694 3.84957 5.59451 0
M  V30 3223 H 294.64 1.72884 6.32809 0
M  V30 3224 H 294.557 3.40827 6.74814 0
M  V30 3225 H 295.825 2.42016 7.40978 0
M  V30 3226 N 300.054 -1.07777 1.14986 0
M  V30 3227 C 301.279 -1.84558 0.946213 0
M  V30 3228 C 301.704 -1.81323 -0.500362 0
M  V30 3229 O 301.062 -1.20301 -1.35637 0
M  V30 3230 C 301.11 -3.29736 1.45968 0
M  V30 3231 O 300.214 -4.07149 0.65601 0
M  V30 3232 H 299.555 -0.571641 0.33782 0
M  V30 3233 H 302.085 -1.35991 1.52865 0
M  V30 3234 H 302.095 -3.80574 1.47063 0
M  V30 3235 H 300.77 -3.31406 2.51283 0
M  V30 3236 H 299.347 -3.65994 0.714322 0
M  V30 3237 N 301.532 -0.945985 -1.26051 0
M  V30 3238 C 302.943 -0.638096 -1.75457 0
M  V30 3239 C 303.294 0.846672 -1.76991 0
M  V30 3240 O 302.419 1.66262 -1.38513 0
M  V30 3241 C 303.014 -1.15157 -3.18629 0
M  V30 3242 C 301.573 -0.894004 -3.65629 0
M  V30 3243 C 300.72 -1.29967 -2.44957 0
M  V30 3244 H 303.671 -1.12376 -1.1206 0
M  V30 3245 H 303.692 -0.507615 -3.77099 0
M  V30 3246 H 303.204 -2.23222 -3.1748 0
M  V30 3247 H 301.305 0.172057 -3.72203 0
M  V30 3248 H 301.418 -1.52439 -4.54202 0
M  V30 3249 H 299.782 -0.718078 -2.44368 0
M  V30 3250 H 300.565 -2.38935 -2.46505 0
M  V30 3251 N 303.011 1.40521 -0.713556 0
M  V30 3252 C 303.941 2.33381 -0.0743864 0
M  V30 3253 C 304.922 1.52784 0.747735 0
M  V30 3254 O 306.107 1.81258 0.697071 0
M  V30 3255 C 303.237 3.36748 0.849598 0
M  V30 3256 C 302.191 4.27793 0.133247 0
M  V30 3257 C 301.517 5.21679 1.17281 0
M  V30 3258 C 302.817 5.12415 -1.01134 0
M  V30 3259 H 304.511 2.87081 -0.850007 0
M  V30 3260 H 302.057 1.38034 -0.410201 0
M  V30 3261 H 304.01 4.00648 1.30612 0
M  V30 3262 H 302.734 2.81439 1.65709 0
M  V30 3263 H 301.393 3.65342 -0.303426 0
M  V30 3264 H 301.041 4.62677 1.9733 0
M  V30 3265 H 300.741 5.83435 0.698397 0
M  V30 3266 H 302.265 5.88456 1.62947 0
M  V30 3267 H 303.679 5.69781 -0.634274 0
M  V30 3268 H 302.076 5.83203 -1.41399 0
M  V30 3269 H 303.146 4.48514 -1.84292 0
M  V30 3270 N 304.489 0.459591 1.5075 0
M  V30 3271 C 305.419 -0.330644 2.31147 0
M  V30 3272 C 306.4 -1.00087 1.37538 0
M  V30 3273 O 307.585 -1.00025 1.66459 0
M  V30 3274 C 304.715 -1.41958 3.16962 0
M  V30 3275 C 303.669 -0.871608 4.19031 0
M  V30 3276 C 302.995 -2.05797 4.9351 0
M  V30 3277 C 304.295 0.109251 5.22186 0
M  V30 3278 H 305.989 0.340336 2.97459 0
M  V30 3279 H 303.535 0.165119 1.4305 0
M  V30 3280 H 305.488 -1.9798 3.71997 0
M  V30 3281 H 304.212 -2.11917 2.48513 0
M  V30 3282 H 302.871 -0.333442 3.6508 0
M  V30 3283 H 302.519 -2.74427 4.21544 0
M  V30 3284 H 302.219 -1.6976 5.62544 0
M  V30 3285 H 303.743 -2.62331 5.51375 0
M  V30 3286 H 305.157 -0.361405 5.7216 0
M  V30 3287 H 303.554 0.383316 5.98875 0
M  V30 3288 H 304.624 1.03887 4.73641 0
M  V30 3289 N 305.967 -1.56429 0.191757 0
M  V30 3290 C 307.197 -2.01574 -0.452928 0
M  V30 3291 C 307.605 -1.07107 -1.55964 0
M  V30 3292 O 306.948 -0.067534 -1.83576 0
M  V30 3293 C 307.01 -3.43121 -1.07278 0
M  V30 3294 C 306.674 -4.56879 -0.105214 0
M  V30 3295 C 307.671 -5.15379 0.684149 0
M  V30 3296 C 305.356 -5.023 0.00489824 0
M  V30 3297 C 307.35 -6.17746 1.57062 0
M  V30 3298 C 305.037 -6.04511 0.894935 0
M  V30 3299 C 306.035 -6.62108 1.67637 0
M  V30 3300 O 305.723 -7.62335 2.55149 0
M  V30 3301 H 305.455 -0.665554 -0.118379 0
M  V30 3302 H 308.009 -2.03245 0.296737 0
M  V30 3303 H 306.239 -3.38425 -1.87097 0
M  V30 3304 H 307.928 -3.72093 -1.62177 0
M  V30 3305 H 308.694 -4.81157 0.609365 0
M  V30 3306 H 304.573 -4.57168 -0.593156 0
M  V30 3307 H 308.117 -6.6263 2.181 0
M  V30 3308 H 304.014 -6.38157 0.970847 0
M  V30 3309 H 304.782 -7.79741 2.48892 0
M  V30 3310 N 307.445 0.0818655 -1.57387 0
M  V30 3311 C 308.691 0.784074 -1.8703 0
M  V30 3312 C 309.024 1.77729 -0.782689 0
M  V30 3313 O 308.299 1.93384 0.208051 0
M  V30 3314 C 308.582 1.50105 -3.27323 0
M  V30 3315 C 308.435 0.524925 -4.46727 0
M  V30 3316 C 309.754 2.44843 -3.65705 0
M  V30 3317 H 306.873 0.283582 -0.680257 0
M  V30 3318 H 309.515 0.0474352 -1.89941 0
M  V30 3319 H 307.665 2.12897 -3.24972 0
M  V30 3320 H 309.337 -0.0970111 -4.61198 0
M  V30 3321 H 307.58 -0.160606 -4.33503 0
M  V30 3322 H 308.251 1.064 -5.41648 0
M  V30 3323 H 310.727 1.92135 -3.69085 0
M  V30 3324 H 309.603 2.92018 -4.64776 0
M  V30 3325 H 309.864 3.29197 -2.95096 0
M  V30 3326 N 308.923 1.53595 0.353017 0
M  V30 3327 C 310.151 1.74311 1.1146 0
M  V30 3328 C 310.566 0.477854 1.82653 0
M  V30 3329 O 309.923 -0.549977 1.74016 0
M  V30 3330 C 309.974 2.91694 2.13534 0
M  V30 3331 O 309.695 4.13325 1.45238 0
M  V30 3332 C 311.196 3.24384 3.02142 0
M  V30 3333 H 308.416 0.582669 0.332773 0
M  V30 3334 H 310.96 2.00386 0.408107 0
M  V30 3335 H 309.115 2.67977 2.79763 0
M  V30 3336 H 309.529 4.79148 2.13349 0
M  V30 3337 H 311.003 4.09893 3.69718 0
M  V30 3338 H 311.48 2.40282 3.67643 0
M  V30 3339 H 312.086 3.50073 2.41514 0
M  V30 3340 N 310.401 -0.613514 1.45168 0
M  V30 3341 C 311.817 -0.933629 1.29443 0
M  V30 3342 C 312.017 -2.00028 0.243101 0
M  V30 3343 O 311.073 -2.49848 -0.364992 0
M  V30 3344 C 312.386 -1.38018 2.67155 0
M  V30 3345 C 313.934 -1.49471 2.75004 0
M  V30 3346 C 314.409 -1.97503 4.13227 0
M  V30 3347 N 315.9 -2.04746 4.15491 0
M  V30 3348 C 316.635 -2.43121 5.19307 0
M  V30 3349 N 316.131 -2.80506 6.33473 0
M  V30 3350 N 317.924 -2.43408 5.06664 0
M  V30 3351 H 310.075 0.0916097 2.12202 0
M  V30 3352 H 312.338 -0.0216655 0.947752 0
M  V30 3353 H 312.044 -0.670625 3.45247 0
M  V30 3354 H 311.918 -2.34784 2.95222 0
M  V30 3355 H 314.305 -2.19519 1.9722 0
M  V30 3356 H 314.386 -0.510342 2.50657 0
M  V30 3357 H 314.03 -1.28045 4.91495 0
M  V30 3358 H 313.96 -2.96843 4.34962 0
M  V30 3359 H 316.451 -1.78468 3.33103 0
M  V30 3360 H 316.764 -3.08652 7.08487 0
M  V30 3361 H 315.109 -2.78216 6.36884 0
M  V30 3362 H 318.3 -2.13604 4.16523 0
M  V30 3363 H 318.473 -2.72989 5.87691 0
M  V30 3364 N 311.879 -1.3236 -0.855495 0
M  V30 3365 C 313.29 -1.2056 -1.42556 0
M  V30 3366 C 313.641 0.182209 -1.95352 0
M  V30 3367 O 312.766 1.08088 -1.87472 0
M  V30 3368 C 313.361 -2.1826 -2.59129 0
M  V30 3369 C 311.92 -2.10351 -3.12137 0
M  V30 3370 C 311.067 -2.06674 -1.84882 0
M  V30 3371 H 314.018 -1.442 -0.662727 0
M  V30 3372 H 314.039 -1.78064 -3.36264 0
M  V30 3373 H 313.551 -3.19257 -2.20673 0
M  V30 3374 H 311.652 -1.12599 -3.55179 0
M  V30 3375 H 311.765 -3.00135 -3.73438 0
M  V30 3376 H 310.129 -1.51901 -2.04446 0
M  V30 3377 H 310.912 -3.09451 -1.48643 0
M  V30 3378 N 313.357 1.07166 -1.15556 0
M  V30 3379 C 314.582 1.84053 -0.955988 0
M  V30 3380 C 315.007 1.81586 0.490739 0
M  V30 3381 O 314.365 1.21018 1.34997 0
M  V30 3382 C 314.413 3.28957 -1.47714 0
M  V30 3383 O 313.517 4.06795 -0.677593 0
M  V30 3384 H 312.858 0.569842 -0.340847 0
M  V30 3385 H 315.388 1.35178 -1.53584 0
M  V30 3386 H 315.398 3.79788 -1.4908 0
M  V30 3387 H 314.073 3.30068 -2.53037 0
M  V30 3388 H 312.65 3.6561 -0.733721 0
M  V30 3389 N 314.835 0.952656 1.25548 0
M  V30 3390 C 315.745 0.47782 2.29682 0
M  V30 3391 C 316.761 -0.453859 1.67977 0
M  V30 3392 O 317.937 -0.330587 1.98668 0
M  V30 3393 C 315.002 -0.238655 3.45878 0
M  V30 3394 C 314.063 0.730994 4.23031 0
M  V30 3395 C 313.296 0.0486165 5.33678 0
M  V30 3396 O 313.519 -1.16612 5.58353 0
M  V30 3397 O 312.453 0.733152 5.97418 0
M  V30 3398 H 316.279 1.34312 2.72386 0
M  V30 3399 H 313.864 0.719026 1.30959 0
M  V30 3400 H 315.746 -0.641774 4.16484 0
M  V30 3401 H 314.421 -1.07916 3.05181 0
M  V30 3402 H 313.328 1.18428 3.5486 0
M  V30 3403 H 314.661 1.53946 4.67506 0
M  V30 3404 N 316.313 -1.40141 0.720998 0
M  V30 3405 C 317.559 -2.01084 0.263231 0
M  V30 3406 C 317.892 -1.57052 -1.14229 0
M  V30 3407 O 317.167 -0.793027 -1.77599 0
M  V30 3408 C 317.45 -3.58401 0.349344 0
M  V30 3409 C 317.303 -4.12491 1.79363 0
M  V30 3410 C 318.622 -4.39231 -0.276351 0
M  V30 3411 H 315.741 -0.730572 0.0971228 0
M  V30 3412 H 318.383 -1.66543 0.914518 0
M  V30 3413 H 316.533 -3.87958 -0.205165 0
M  V30 3414 H 318.205 -3.93711 2.40394 0
M  V30 3415 H 316.448 -3.66576 2.31958 0
M  V30 3416 H 317.119 -5.21646 1.80524 0
M  V30 3417 H 319.595 -4.15637 0.196184 0
M  V30 3418 H 318.471 -5.48586 -0.185681 0
M  V30 3419 H 318.732 -4.20643 -1.36059 0
M  V30 3420 N 317.792 -0.46758 -1.50504 0
M  V30 3421 C 318.702 0.33382 -2.32213 0
M  V30 3422 C 319.718 0.999323 -1.42441 0
M  V30 3423 O 320.894 0.988068 -1.75497 0
M  V30 3424 C 317.959 1.4035 -3.17022 0
M  V30 3425 C 317.02 0.754961 -4.2261 0
M  V30 3426 C 316.253 1.77367 -5.03365 0
M  V30 3427 O 316.476 2.99976 -4.8515 0
M  V30 3428 O 315.41 1.34744 -5.86624 0
M  V30 3429 H 319.236 -0.334067 -3.01857 0
M  V30 3430 H 316.821 -0.229496 -1.47627 0
M  V30 3431 H 318.703 2.02318 -3.69656 0
M  V30 3432 H 317.378 2.05492 -2.5011 0
M  V30 3433 H 316.285 0.0964244 -3.73976 0
M  V30 3434 H 317.618 0.146545 -4.91982 0
M  V30 3435 N 319.27 1.56325 -0.20005 0
M  V30 3436 C 320.217 2.1932 0.718833 0
M  V30 3437 C 321.187 1.14198 1.20615 0
M  V30 3438 O 322.372 1.42469 1.26914 0
M  V30 3439 C 319.512 2.86041 1.93066 0
M  V30 3440 C 318.625 4.05702 1.48425 0
M  V30 3441 C 317.76 4.60266 2.65196 0
M  V30 3442 C 316.799 5.72273 2.17185 0
M  V30 3443 N 315.936 6.21221 3.27152 0
M  V30 3444 H 320.776 2.97486 0.17489 0
M  V30 3445 H 318.313 1.46911 0.0745794 0
M  V30 3446 H 320.271 3.22897 2.64184 0
M  V30 3447 H 318.901 2.1043 2.44783 0
M  V30 3448 H 317.953 3.74475 0.668755 0
M  V30 3449 H 319.265 4.86699 1.09204 0
M  V30 3450 H 318.419 4.99453 3.4443 0
M  V30 3451 H 317.158 3.78386 3.07693 0
M  V30 3452 H 316.163 5.3261 1.36407 0
M  V30 3453 H 317.388 6.55974 1.75713 0
M  V30 3454 H 315.334 5.42263 3.69171 0
M  V30 3455 H 315.251 6.97284 2.92116 0
M  V30 3456 H 316.519 6.65063 4.06585 0
M  V30 3457 N 320.748 -0.0735177 1.57428 0
M  V30 3458 C 321.996 -0.771472 1.86796 0
M  V30 3459 C 322.317 -1.78201 0.791804 0
M  V30 3460 O 321.587 -1.95074 -0.179718 0
M  V30 3461 H 320.167 -0.28791 0.689287 0
M  V30 3462 H 322.829 -0.0500161 1.94836 0
M  V30 3463 H 321.925 -1.28874 2.8425 0
M  V30 3464 N 322.226 -1.5378 -0.344866 0
M  V30 3465 C 323.472 -1.71216 -1.08687 0
M  V30 3466 C 323.805 -0.473281 -1.88345 0
M  V30 3467 O 323.08 0.52968 -1.87149 0
M  V30 3468 C 323.363 -2.97486 -2.02914 0
M  V30 3469 C 323.216 -4.31579 -1.26727 0
M  V30 3470 C 324.535 -3.19422 -3.0275 0
M  V30 3471 H 321.654 -0.62301 -0.393735 0
M  V30 3472 H 324.296 -1.8645 -0.365563 0
M  V30 3473 H 322.446 -2.84629 -2.64421 0
M  V30 3474 H 324.118 -4.56284 -0.67845 0
M  V30 3475 H 322.361 -4.30049 -0.569273 0
M  V30 3476 H 323.032 -5.16106 -1.95803 0
M  V30 3477 H 325.508 -3.316 -2.51357 0
M  V30 3478 H 324.384 -4.09169 -3.65885 0
M  V30 3479 H 324.645 -2.35656 -3.74057 0
M  V30 3480 N 323.704 0.605807 -1.45491 0
M  V30 3481 C 324.634 1.72709 -1.57143 0
M  V30 3482 C 325.615 1.6476 -0.422884 0
M  V30 3483 O 326.8 1.83132 -0.646247 0
M  V30 3484 C 323.93 3.11316 -1.53948 0
M  V30 3485 C 322.884 3.34077 -2.67537 0
M  V30 3486 C 322.21 4.72975 -2.49397 0
M  V30 3487 C 323.51 3.24158 -4.09535 0
M  V30 3488 H 325.204 1.63214 -2.51001 0
M  V30 3489 H 322.75 0.78379 -1.208 0
M  V30 3490 H 324.703 3.89557 -1.60696 0
M  V30 3491 H 323.427 3.21655 -0.566205 0
M  V30 3492 H 322.086 2.58227 -2.6022 0
M  V30 3493 H 321.734 4.8005 -1.50205 0
M  V30 3494 H 321.434 4.8916 -3.25571 0
M  V30 3495 H 322.958 5.53414 -2.58002 0
M  V30 3496 H 324.372 3.92271 -4.18086 0
M  V30 3497 H 322.769 3.51872 -4.86113 0
M  V30 3498 H 323.839 2.2157 -4.31317 0
M  V30 3499 N 325.182 1.32811 0.848464 0
M  V30 3500 C 326.593 1.21315 1.41914 0
M  V30 3501 C 326.944 -0.171847 1.95446 0
M  V30 3502 O 326.069 -1.07093 1.88043 0
M  V30 3503 C 326.664 2.19631 2.57968 0
M  V30 3504 C 325.223 2.12003 3.11017 0
M  V30 3505 C 324.37 2.07651 1.83783 0
M  V30 3506 H 327.321 1.44549 0.655071 0
M  V30 3507 H 327.342 1.79845 3.35315 0
M  V30 3508 H 326.854 3.20423 2.18976 0
M  V30 3509 H 324.955 1.14481 3.54577 0
M  V30 3510 H 325.068 3.02111 3.71841 0
M  V30 3511 H 323.432 1.52983 2.03638 0
M  V30 3512 H 324.215 3.10235 1.47 0
M  V30 3513 N 326.66 -1.06551 1.16123 0
M  V30 3514 C 327.908 -1.78947 0.939267 0
M  V30 3515 C 328.229 -1.87532 -0.534476 0
M  V30 3516 O 327.499 -1.38211 -1.38833 0
M  V30 3517 H 326.079 -0.662807 0.344523 0
M  V30 3518 H 328.741 -1.28725 1.46342 0
M  V30 3519 H 327.837 -2.81117 1.35572 0
M  V30 3520 N 328.138 -0.959301 -1.25041 0
M  V30 3521 C 329.048 -0.489994 -2.29426 0
M  V30 3522 C 330.064 0.444944 -1.68215 0
M  V30 3523 O 331.24 0.320046 -1.98841 0
M  V30 3524 C 328.305 0.220309 -3.45999 0
M  V30 3525 C 327.366 -0.753418 -4.22637 0
M  V30 3526 C 326.599 -0.076918 -5.33645 0
M  V30 3527 O 326.822 1.13649 -5.58963 0
M  V30 3528 O 325.756 -0.764824 -5.97021 0
M  V30 3529 H 329.582 -1.35755 -2.71669 0
M  V30 3530 H 327.167 -0.725961 -1.30576 0
M  V30 3531 H 329.049 0.619677 -4.16819 0
M  V30 3532 H 327.724 1.06296 -3.0575 0
M  V30 3533 H 326.631 -1.20308 -3.54227 0
M  V30 3534 H 327.964 -1.56423 -4.66683 0
M  V30 3535 N 329.616 1.39756 -0.72842 0
M  V30 3536 C 330.893 1.94574 -0.200079 0
M  V30 3537 C 331.273 1.66569 1.29684 0
M  V30 3538 O 330.621 0.990326 2.05924 0
M  V30 3539 C 330.831 3.45004 -0.526608 0
M  V30 3540 C 332.179 4.21965 -0.472318 0
M  V30 3541 O 333.203 3.53173 -0.463413 0
M  V30 3542 O 332.062 5.44552 -0.461075 0
M  V30 3543 H 329.156 0.826289 -0.0342851 0
M  V30 3544 H 331.702 1.49293 -0.806829 0
M  V30 3545 H 330.474 3.58796 -1.56144 0
M  V30 3546 H 330.097 3.97449 0.109449 0
M  V30 3547 N 331.094 0.475555 1.50254 0
M  V30 3548 C 332.34 -0.0701075 2.03279 0
M  V30 3549 C 332.695 -1.37007 1.35081 0
M  V30 3550 O 331.988 -1.8577 0.469052 0
M  V30 3551 C 332.182 -0.305114 3.56095 0
M  V30 3552 C 332.011 0.970515 4.39103 0
M  V30 3553 C 330.781 1.51509 4.82051 0
M  V30 3554 C 332.979 1.8671 4.79212 0
M  V30 3555 N 330.961 2.73928 5.49397 0
M  V30 3556 C 332.332 2.93715 5.46014 0
M  V30 3557 C 334.387 1.87695 4.61167 0
M  V30 3558 C 333.09 4.01699 5.96683 0
M  V30 3559 C 335.116 2.94637 5.12779 0
M  V30 3560 C 334.478 4.00361 5.79561 0
M  V30 3561 H 330.577 0.014486 0.781866 0
M  V30 3562 H 333.161 0.644755 1.83714 0
M  V30 3563 H 331.332 -0.989019 3.75597 0
M  V30 3564 H 333.064 -0.845516 3.95769 0
M  V30 3565 H 329.819 1.06367 4.61501 0
M  V30 3566 H 330.243 3.36109 5.87673 0
M  V30 3567 H 334.885 1.07273 4.08965 0
M  V30 3568 H 332.603 4.82934 6.4792 0
M  V30 3569 H 336.189 2.96388 5.00645 0
M  V30 3570 H 335.069 4.81751 6.18778 0
M  V30 3571 N 332.573 -1.56217 0.208337 0
M  V30 3572 C 333.801 -2.02337 -0.43215 0
M  V30 3573 C 334.216 -1.08834 -1.54275 0
M  V30 3574 O 333.573 -0.0955462 -1.8225 0
M  V30 3575 C 333.624 -3.48072 -0.976138 0
M  V30 3576 O 333.345 -4.38007 0.0901621 0
M  V30 3577 C 334.846 -4.09773 -1.69119 0
M  V30 3578 H 332.066 -0.662385 -0.10718 0
M  V30 3579 H 334.61 -2.01966 0.320923 0
M  V30 3580 H 332.765 -3.49099 -1.67954 0
M  V30 3581 H 333.179 -5.23543 -0.316701 0
M  V30 3582 H 334.653 -5.13556 -2.02397 0
M  V30 3583 H 335.13 -3.53999 -2.59964 0
M  V30 3584 H 335.736 -4.12556 -1.03332 0
M  V30 3585 N 334.051 0.0651679 -1.57465 0
M  V30 3586 C 335.297 0.764193 -1.87851 0
M  V30 3587 C 335.63 1.76889 -0.801495 0
M  V30 3588 O 334.905 1.93594 0.187528 0
M  V30 3589 C 335.188 1.46625 -3.28897 0
M  V30 3590 C 335.041 0.477515 -4.47258 0
M  V30 3591 C 336.36 2.4095 -3.68281 0
M  V30 3592 H 333.479 0.276351 -0.683227 0
M  V30 3593 H 336.121 0.0272868 -1.8998 0
M  V30 3594 H 334.271 2.09438 -3.27212 0
M  V30 3595 H 335.943 -0.145922 -4.61069 0
M  V30 3596 H 334.186 -0.206576 -4.33308 0
M  V30 3597 H 334.857 1.0065 -5.42746 0
M  V30 3598 H 337.333 1.88209 -3.71102 0
M  V30 3599 H 336.209 2.87072 -4.67847 0
M  V30 3600 H 336.47 3.26049 -2.98571 0
M  V30 3601 N 335.529 1.53961 0.336706 0
M  V30 3602 C 336.776 1.71536 1.07618 0
M  V30 3603 C 337.104 0.482125 1.8843 0
M  V30 3604 O 336.359 -0.536142 1.88213 0
M  V30 3605 C 336.658 2.93493 2.03953 0
M  V30 3606 C 336.324 4.28811 1.39399 0
M  V30 3607 C 334.986 4.65602 1.21523 0
M  V30 3608 C 337.338 5.12844 0.929541 0
M  V30 3609 C 334.666 5.84037 0.558312 0
M  V30 3610 C 337.018 6.31951 0.286505 0
M  V30 3611 C 335.682 6.67432 0.0954869 0
M  V30 3612 H 334.952 0.627696 0.393801 0
M  V30 3613 H 337.599 1.88186 0.354715 0
M  V30 3614 H 335.904 2.71475 2.82504 0
M  V30 3615 H 337.601 3.04285 2.61174 0
M  V30 3616 H 334.191 3.99858 1.54311 0
M  V30 3617 H 338.375 4.84947 1.05548 0
M  V30 3618 H 333.631 6.10097 0.398995 0
M  V30 3619 H 337.805 6.96352 -0.0814376 0
M  V30 3620 H 335.432 7.59063 -0.415579 0
M  V30 3621 N 337.007 -0.598083 1.45811 0
M  V30 3622 C 337.939 -1.72231 1.51225 0
M  V30 3623 C 338.952 -1.57757 0.402059 0
M  V30 3624 O 340.141 -1.65464 0.669624 0
M  V30 3625 C 337.241 -3.10331 1.3619 0
M  V30 3626 C 336.414 -3.50955 2.61054 0
M  V30 3627 C 335.473 -4.68055 2.40439 0
M  V30 3628 O 334.499 -4.74691 3.14097 0
M  V30 3629 N 335.701 -5.61941 1.45612 0
M  V30 3630 H 338.466 -1.68046 2.48154 0
M  V30 3631 H 336.027 -0.783637 1.41671 0
M  V30 3632 H 338.019 -3.86439 1.20195 0
M  V30 3633 H 336.589 -3.0897 0.475015 0
M  V30 3634 H 335.809 -2.64711 2.92099 0
M  V30 3635 H 337.097 -3.74858 3.44034 0
M  V30 3636 H 336.495 -5.59301 0.848431 0
M  V30 3637 H 335.052 -6.37542 1.35585 0
M  V30 3638 N 338.485 -1.33259 -0.841409 0
M  V30 3639 C 339.71 -1.2775 -1.63385 0
M  V30 3640 C 340.135 0.149188 -1.87507 0
M  V30 3641 O 339.493 1.10498 -1.43736 0
M  V30 3642 C 339.541 -2.05571 -2.96265 0
M  V30 3643 O 338.645 -1.41257 -3.87453 0
M  V30 3644 H 337.986 -0.439627 -0.497618 0
M  V30 3645 H 340.516 -1.75782 -1.04699 0
M  V30 3646 H 340.526 -2.16241 -3.45982 0
M  V30 3647 H 339.201 -3.09309 -2.7803 0
M  V30 3648 H 337.778 -1.39217 -3.45938 0
M  V30 3649 N 339.963 1.05934 -1.16686 0
M  V30 3650 C 340.911 2.15603 -0.872817 0
M  V30 3651 C 341.905 1.68647 0.159576 0
M  V30 3652 O 343.111 1.79995 0.0132125 0
M  V30 3653 H 339.486 0.703885 -0.264671 0
M  V30 3654 H 341.457 2.37613 -1.80507 0
M  V30 3655 C 340.206 3.45457 -0.394344 0
M  V30 3656 H 339.529 3.81984 -1.18019 0
M  V30 3657 H 340.969 4.2339 -0.227408 0
M  V30 3658 C 339.428 3.25021 0.88673 0
M  V30 3659 O 339.958 3.50906 1.95519 0
M  V30 3660 N 338.164 2.78437 0.831925 0
M  V30 3661 H 337.711 2.57572 -0.0377619 0
M  V30 3662 H 337.669 2.65144 1.68956 0
M  V30 3663 N 341.441 0.965919 1.2453 0
M  V30 3664 C 342.391 0.465731 2.23193 0
M  V30 3665 C 343.375 -0.451277 1.54442 0
M  V30 3666 O 344.567 -0.282489 1.74731 0
M  V30 3667 C 341.696 -0.244511 3.42428 0
M  V30 3668 C 340.782 0.691222 4.18429 0
M  V30 3669 N 341.173 1.82771 4.71623 0
M  V30 3670 C 339.471 0.501649 4.4317 0
M  V30 3671 C 340.172 2.41285 5.29298 0
M  V30 3672 N 339.148 1.69819 5.16394 0
M  V30 3673 H 342.95 1.33291 2.61937 0
M  V30 3674 H 340.464 0.824789 1.39896 0
M  V30 3675 H 342.461 -0.620056 4.12263 0
M  V30 3676 H 341.121 -1.10815 3.05205 0
M  V30 3677 H 342.132 2.20929 4.68413 0
M  V30 3678 H 338.809 -0.318177 4.16286 0
M  V30 3679 H 340.199 3.37181 5.8117 0
M  V30 3680 N 342.919 -1.39368 0.735821 0
M  V30 3681 C 344.144 -2.05319 0.293052 0
M  V30 3682 C 344.569 -1.55115 -1.064 0
M  V30 3683 O 343.927 -0.695261 -1.67439 0
M  V30 3684 C 343.975 -3.59305 0.305323 0
M  V30 3685 O 343.079 -4.06299 -0.706761 0
M  V30 3686 H 342.42 -0.650529 0.13307 0
M  V30 3687 H 344.95 -1.78386 1.00197 0
M  V30 3688 H 344.96 -4.07724 0.149997 0
M  V30 3689 H 343.635 -3.95207 1.29553 0
M  V30 3690 H 342.212 -3.69292 -0.517504 0
M  V30 3691 N 344.397 -0.483516 -1.5 0
M  V30 3692 C 345.625 0.0644831 -2.06799 0
M  V30 3693 C 346.04 1.32399 -1.34596 0
M  V30 3694 O 345.397 1.77626 -0.418946 0
M  V30 3695 C 345.448 0.339927 -3.59898 0
M  V30 3696 O 345.169 -0.869635 -4.29382 0
M  V30 3697 C 346.67 0.933515 -4.33359 0
M  V30 3698 H 343.89 -0.0126333 -0.670881 0
M  V30 3699 H 346.434 -0.675864 -1.93009 0
M  V30 3700 H 344.589 1.03022 -3.7345 0
M  V30 3701 H 345.003 -0.62179 -5.20801 0
M  V30 3702 H 346.477 1.07593 -5.41413 0
M  V30 3703 H 346.954 1.92685 -3.94676 0
M  V30 3704 H 347.56 0.281221 -4.24369 0
M  V30 3705 N 345.875 1.56104 -0.216619 0
M  V30 3706 C 347.105 2.02269 0.420802 0
M  V30 3707 C 347.513 1.09575 1.5424 0
M  V30 3708 O 346.856 0.0967308 1.83445 0
M  V30 3709 C 346.918 3.44784 1.01806 0
M  V30 3710 C 346.582 4.56988 0.0325154 0
M  V30 3711 C 347.579 5.14225 -0.766055 0
M  V30 3712 C 345.264 5.02228 -0.0848092 0
M  V30 3713 C 347.258 6.15169 -1.6687 0
M  V30 3714 C 344.945 6.03011 -0.990994 0
M  V30 3715 C 345.943 6.59357 -1.78149 0
M  V30 3716 O 345.631 7.58179 -2.67245 0
M  V30 3717 H 345.363 0.667353 0.107776 0
M  V30 3718 H 347.917 2.02747 -0.329034 0
M  V30 3719 H 346.147 3.41359 1.81689 0
M  V30 3720 H 347.836 3.74626 1.56237 0
M  V30 3721 H 348.602 4.80126 -0.685836 0
M  V30 3722 H 344.481 4.58054 0.520349 0
M  V30 3723 H 348.025 6.59076 -2.28615 0
M  V30 3724 H 343.922 6.36532 -1.07225 0
M  V30 3725 H 344.69 7.75682 -2.61265 0
M  V30 3726 N 347.353 -0.0568162 1.57498 0
M  V30 3727 C 348.263 -1.08346 2.08083 0
M  V30 3728 C 349.279 -1.41439 1.01346 0
M  V30 3729 O 350.455 -1.51316 1.32912 0
M  V30 3730 C 347.52 -2.37352 2.52715 0
M  V30 3731 C 346.581 -2.11093 3.73816 0
M  V30 3732 C 345.814 -3.33949 4.1631 0
M  V30 3733 O 346.037 -4.43622 3.58547 0
M  V30 3734 O 344.971 -3.21279 5.08983 0
M  V30 3735 H 348.797 -0.683667 2.95905 0
M  V30 3736 H 346.382 -0.271965 1.46904 0
M  V30 3737 H 348.264 -3.13246 2.81877 0
M  V30 3738 H 346.939 -2.76681 1.68016 0
M  V30 3739 H 345.846 -1.32856 3.49714 0
M  V30 3740 H 347.179 -1.76637 4.59413 0
M  V30 3741 N 348.832 -1.54138 -0.328536 0
M  V30 3742 C 350.243 -1.63395 -0.903272 0
M  V30 3743 C 350.594 -0.524828 -1.8905 0
M  V30 3744 O 349.719 0.343068 -2.13663 0
M  V30 3745 C 350.314 -2.9618 -1.64507 0
M  V30 3746 C 348.873 -3.0765 -2.1686 0
M  V30 3747 C 348.02 -2.58933 -0.992416 0
M  V30 3748 H 350.971 -1.58344 -0.106253 0
M  V30 3749 H 350.992 -2.86061 -2.50897 0
M  V30 3750 H 350.504 -3.76884 -0.926302 0
M  V30 3751 H 348.605 -2.31611 -2.91868 0
M  V30 3752 H 348.718 -4.1337 -2.42202 0
M  V30 3753 H 347.082 -2.14706 -1.37016 0
M  V30 3754 H 347.865 -3.42089 -0.288041 0
M  V30 3755 N 350.31 0.590341 -1.46126 0
M  V30 3756 C 351.556 1.35082 -1.51264 0
M  V30 3757 C 351.889 1.93534 -0.160711 0
M  V30 3758 O 351.164 1.76045 0.826956 0
M  V30 3759 C 351.447 2.48588 -2.6053 0
M  V30 3760 C 351.3 1.95221 -4.05227 0
M  V30 3761 C 352.619 3.50662 -2.6594 0
M  V30 3762 H 349.738 0.489803 -0.550692 0
M  V30 3763 H 352.38 0.663887 -1.78024 0
M  V30 3764 H 350.53 3.07186 -2.37843 0
M  V30 3765 H 352.202 1.41139 -4.39178 0
M  V30 3766 H 350.445 1.26101 -4.15068 0
M  V30 3767 H 351.116 2.77121 -4.77397 0
M  V30 3768 H 353.592 3.01934 -2.86313 0
M  V30 3769 H 352.468 4.27551 -3.44226 0
M  V30 3770 H 352.729 4.07399 -1.71694 0
M  V30 3771 N 351.788 1.33704 0.83433 0
M  V30 3772 C 352.718 1.26967 1.95963 0
M  V30 3773 C 353.699 0.149337 1.69443 0
M  V30 3774 O 354.884 0.339852 1.91203 0
M  V30 3775 C 352.014 1.01275 3.32206 0
M  V30 3776 C 350.968 2.09652 3.73136 0
M  V30 3777 C 350.294 1.69166 5.07235 0
M  V30 3778 C 351.594 3.51372 3.86439 0
M  V30 3779 H 353.288 2.2112 2.01857 0
M  V30 3780 H 350.834 1.06447 0.969793 0
M  V30 3781 H 352.787 0.952106 4.10503 0
M  V30 3782 H 351.511 0.0356203 3.26581 0
M  V30 3783 H 350.17 2.14766 2.97104 0
M  V30 3784 H 349.818 0.701437 4.98085 0
M  V30 3785 H 349.518 2.41694 5.35591 0
M  V30 3786 H 351.042 1.64576 5.88003 0
M  V30 3787 H 352.456 3.48734 4.55036 0
M  V30 3788 H 350.853 4.22425 4.26236 0
M  V30 3789 H 351.923 3.89546 2.88759 0
M  V30 3790 N 353.266 -1.05314 1.17247 0
M  V30 3791 C 354.196 -2.1498 0.911362 0
M  V30 3792 C 355.177 -1.69471 -0.146169 0
M  V30 3793 O 356.362 -1.942 0.003812 0
M  V30 3794 C 353.492 -3.4472 0.422528 0
M  V30 3795 C 352.446 -4.03789 1.4191 0
M  V30 3796 C 351.772 -5.28858 0.788274 0
M  V30 3797 C 353.072 -4.41418 2.7919 0
M  V30 3798 H 354.766 -2.3708 1.82848 0
M  V30 3799 H 352.312 -1.13938 0.880569 0
M  V30 3800 H 354.265 -4.20787 0.227289 0
M  V30 3801 H 352.989 -3.22269 -0.530123 0
M  V30 3802 H 351.648 -3.2979 1.60106 0
M  V30 3803 H 351.296 -5.02709 -0.171173 0
M  V30 3804 H 350.996 -5.69338 1.45353 0
M  V30 3805 H 352.52 -6.07612 0.603282 0
M  V30 3806 H 353.934 -5.08524 2.64719 0
M  V30 3807 H 352.331 -4.92913 3.42282 0
M  V30 3808 H 353.401 -3.51819 3.33693 0
M  V30 3809 N 354.744 -0.972509 -1.24016 0
M  V30 3810 C 355.707 -0.511403 -2.23422 0
M  V30 3811 C 356.707 0.394679 -1.55881 0
M  V30 3812 O 357.897 0.189469 -1.73167 0
M  V30 3813 C 355.029 0.258769 -3.39916 0
M  V30 3814 H 356.222 -1.39024 -2.6573 0
M  V30 3815 H 353.775 -0.757585 -1.36713 0
M  V30 3816 H 354.51 1.1545 -3.03054 0
M  V30 3817 H 354.295 -0.391522 -3.9014 0
M  V30 3818 H 355.785 0.570244 -4.13688 0
M  V30 3819 N 356.222 1.38976 -0.743202 0
M  V30 3820 C 357.169 2.30544 -0.10861 0
M  V30 3821 C 358.139 1.49642 0.720869 0
M  V30 3822 O 359.324 1.78304 0.679142 0
M  V30 3823 C 356.464 3.36018 0.786496 0
M  V30 3824 C 355.577 4.31963 -0.0564849 0
M  V30 3825 C 354.712 5.24506 0.840657 0
M  V30 3826 C 353.751 6.121 -0.00658363 0
M  V30 3827 N 352.888 6.96973 0.846943 0
M  V30 3828 H 357.728 2.8424 -0.895088 0
M  V30 3829 H 355.265 1.3995 -0.453048 0
M  V30 3830 H 357.223 3.95768 1.31999 0
M  V30 3831 H 355.853 2.83758 1.53887 0
M  V30 3832 H 354.905 3.73763 -0.707492 0
M  V30 3833 H 356.217 4.93703 -0.711229 0
M  V30 3834 H 355.371 5.89322 1.4417 0
M  V30 3835 H 354.11 4.63107 1.52916 0
M  V30 3836 H 353.115 5.46289 -0.620366 0
M  V30 3837 H 354.34 6.75565 -0.691992 0
M  V30 3838 H 352.286 6.38133 1.52059 0
M  V30 3839 H 352.203 7.5559 0.248864 0
M  V30 3840 H 353.471 7.6621 1.43328 0
M  V30 3841 N 357.7 0.491464 1.49741 0
M  V30 3842 C 358.928 -0.0535151 2.06831 0
M  V30 3843 C 359.343 -1.31683 1.35296 0
M  V30 3844 O 358.7 -1.77402 0.42836 0
M  V30 3845 C 358.751 -0.320835 3.60073 0
M  V30 3846 O 358.472 0.892394 4.28915 0
M  V30 3847 C 359.973 -0.910519 4.33848 0
M  V30 3848 H 357.193 0.0161909 0.670805 0
M  V30 3849 H 359.737 0.68609 1.92647 0
M  V30 3850 H 357.892 -1.0104 3.73991 0
M  V30 3851 H 358.306 0.649401 5.20464 0
M  V30 3852 H 359.78 -1.04721 5.41976 0
M  V30 3853 H 360.257 -1.90589 3.95692 0
M  V30 3854 H 360.863 -0.258712 4.24512 0
M  V30 3855 N 359.178 -1.55987 0.224894 0
M  V30 3856 C 360.594 -1.59066 -0.130426 0
M  V30 3857 C 360.794 -1.24176 -1.5869 0
M  V30 3858 O 359.85 -0.978592 -2.32766 0
M  V30 3859 C 361.163 -3.00042 0.198883 0
M  V30 3860 C 362.711 -3.1268 0.141391 0
M  V30 3861 C 363.186 -4.55839 0.444422 0
M  V30 3862 N 364.677 -4.6152 0.394115 0
M  V30 3863 C 365.412 -5.70231 0.602038 0
M  V30 3864 N 364.908 -6.87291 0.871914 0
M  V30 3865 N 366.701 -5.59555 0.534245 0
M  V30 3866 H 358.852 -1.76941 1.17497 0
M  V30 3867 H 361.115 -0.822604 0.471197 0
M  V30 3868 H 360.821 -3.30234 1.2099 0
M  V30 3869 H 360.695 -3.74075 -0.484535 0
M  V30 3870 H 363.082 -2.82283 -0.860265 0
M  V30 3871 H 363.163 -2.40969 0.858335 0
M  V30 3872 H 362.807 -4.86954 1.44353 0
M  V30 3873 H 362.737 -5.2578 -0.293752 0
M  V30 3874 H 365.228 -3.77405 0.193356 0
M  V30 3875 H 365.541 -7.66058 1.01858 0
M  V30 3876 H 363.886 -6.89028 0.909145 0
M  V30 3877 H 367.077 -4.6698 0.323612 0
M  V30 3878 H 367.25 -6.44211 0.699693 0
M  V30 3879 N 360.656 0.0484629 -1.57525 0
M  V30 3880 C 361.881 0.759177 -1.93006 0
M  V30 3881 C 362.306 1.69125 -0.823317 0
M  V30 3882 O 361.664 1.79931 0.222364 0
M  V30 3883 C 361.712 1.50899 -3.27509 0
M  V30 3884 O 360.816 2.62112 -3.18388 0
M  V30 3885 H 360.157 0.205564 -0.631379 0
M  V30 3886 H 362.687 0.00972959 -2.04598 0
M  V30 3887 H 362.697 1.88317 -3.6194 0
M  V30 3888 H 361.372 0.825269 -4.0763 0
M  V30 3889 H 359.949 2.27379 -2.95556 0
M  V30 3890 N 362.134 1.5431 0.320358 0
M  V30 3891 C 363.359 1.76954 1.08175 0
M  V30 3892 C 363.784 0.518193 1.80821 0
M  V30 3893 O 363.142 -0.530411 1.73368 0
M  V30 3894 C 363.19 2.96451 2.05303 0
M  V30 3895 O 362.294 2.68221 3.13259 0
M  V30 3896 H 361.635 0.586275 0.311733 0
M  V30 3897 H 364.165 2.01342 0.363676 0
M  V30 3898 H 364.175 3.23887 2.48116 0
M  V30 3899 H 362.85 3.87196 1.51829 0
M  V30 3900 H 361.427 2.51744 2.75099 0
M  V30 3901 N 363.613 -0.582584 1.46437 0
M  V30 3902 C 364.523 -1.71949 1.59595 0
M  V30 3903 C 365.539 -1.67264 0.479443 0
M  V30 3904 O 366.715 -1.87171 0.743579 0
M  V30 3905 C 363.78 -3.08452 1.58298 0
M  V30 3906 C 362.841 -3.244 2.81182 0
M  V30 3907 C 362.074 -4.54391 2.79937 0
M  V30 3908 O 362.297 -5.38287 1.8869 0
M  V30 3909 O 361.231 -4.73588 3.71481 0
M  V30 3910 H 365.057 -1.63795 2.55744 0
M  V30 3911 H 362.642 -0.749643 1.29231 0
M  V30 3912 H 364.524 -3.89732 1.60271 0
M  V30 3913 H 363.199 -3.17043 0.653094 0
M  V30 3914 H 362.106 -2.42613 2.84763 0
M  V30 3915 H 363.439 -3.20699 3.7338 0
M  V30 3916 N 365.091 -1.34144 -0.827227 0
M  V30 3917 C 366.316 -1.29476 -1.62021 0
M  V30 3918 C 366.741 0.129292 -1.87655 0
M  V30 3919 O 366.099 1.08967 -1.449 0
M  V30 3920 C 366.147 -2.08702 -2.94068 0
M  V30 3921 O 365.251 -1.45359 -3.85933 0
M  V30 3922 H 364.592 -0.444881 -0.492927 0
M  V30 3923 H 367.122 -1.76882 -1.02829 0
M  V30 3924 H 367.132 -2.19898 -3.43669 0
M  V30 3925 H 365.807 -3.12241 -2.74734 0
M  V30 3926 H 364.384 -1.42879 -3.44442 0
M  V30 3927 N 366.569 1.04691 -1.17803 0
M  V30 3928 C 367.818 1.77176 -0.963931 0
M  V30 3929 C 368.131 1.88888 0.508015 0
M  V30 3930 O 369.337 2.58164 0.840465 0
M  V30 3931 C 367.793 3.18518 -1.67555 0
M  V30 3932 C 367.401 3.14919 -3.18637 0
M  V30 3933 C 369.145 3.95424 -1.54402 0
M  V30 3934 C 367.052 4.51081 -3.82466 0
M  V30 3935 H 365.982 0.664116 -0.357023 0
M  V30 3936 H 368.633 1.17303 -1.4111 0
M  V30 3937 H 367.015 3.78748 -1.15613 0
M  V30 3938 H 368.189 2.64178 -3.77554 0
M  V30 3939 H 366.504 2.51512 -3.31859 0
M  V30 3940 H 369.101 4.96106 -1.99456 0
M  V30 3941 H 369.444 4.13343 -0.495329 0
M  V30 3942 H 369.977 3.41754 -2.0359 0
M  V30 3943 H 366.716 4.38368 -4.87354 0
M  V30 3944 H 366.236 5.01951 -3.28337 0
M  V30 3945 H 367.915 5.2001 -3.84965 0
M  V30 3946 N 368.047 0.979072 1.23499 0
M  V30 3947 C 369.458 0.684391 1.73704 0
M  V30 3948 C 369.809 -0.799448 1.79174 0
M  V30 3949 O 368.934 -1.62531 1.42873 0
M  V30 3950 C 369.529 1.23564 3.15464 0
M  V30 3951 C 368.088 0.99063 3.6313 0
M  V30 3952 C 367.235 1.36416 2.41425 0
M  V30 3953 H 370.186 1.15307 1.09041 0
M  V30 3954 H 370.207 0.607417 3.7562 0
M  V30 3955 H 369.719 2.31561 3.1145 0
M  V30 3956 H 367.82 -0.0733136 3.72528 0
M  V30 3957 H 367.933 1.64427 4.5 0
M  V30 3958 H 366.297 0.782616 2.42378 0
M  V30 3959 H 367.08 2.45387 2.40083 0
M  V30 3960 N 369.525 -1.3858 0.750561 0
M  V30 3961 C 370.475 -2.27795 0.0965949 0
M  V30 3962 C 371.459 -1.45048 -0.696411 0
M  V30 3963 O 372.651 -1.67812 -0.562863 0
M  V30 3964 C 369.78 -3.33894 -0.798085 0
M  V30 3965 C 368.866 -4.241 0.0016067 0
M  V30 3966 N 369.257 -4.95067 1.03647 0
M  V30 3967 C 367.555 -4.45429 -0.225674 0
M  V30 3968 C 368.256 -5.61489 1.52004 0
M  V30 3969 N 367.232 -5.37135 0.835874 0
M  V30 3970 H 371.034 -2.80125 0.889228 0
M  V30 3971 H 368.548 -1.51446 0.586323 0
M  V30 3972 H 370.545 -3.96693 -1.28219 0
M  V30 3973 H 369.205 -2.83123 -1.5897 0
M  V30 3974 H 370.216 -4.98104 1.41819 0
M  V30 3975 H 366.893 -4.05571 -0.990872 0
M  V30 3976 H 368.283 -6.28264 2.38188 0
M  V30 3977 N 371.003 -0.499398 -1.49478 0
M  V30 3978 C 371.933 0.269244 -2.31943 0
M  V30 3979 C 372.914 0.964054 -1.40143 0
M  V30 3980 O 374.099 0.955767 -1.69052 0
M  V30 3981 C 371.229 1.33504 -3.20615 0
M  V30 3982 C 370.183 0.760202 -4.21195 0
M  V30 3983 C 369.509 1.9264 -4.98792 0
M  V30 3984 C 370.809 -0.247661 -5.21712 0
M  V30 3985 H 372.503 -0.419082 -2.96452 0
M  V30 3986 H 370.049 -0.202988 -1.42562 0
M  V30 3987 H 372.002 1.88048 -3.77115 0
M  V30 3988 H 370.726 2.05253 -2.54045 0
M  V30 3989 H 369.385 0.23653 -3.65836 0
M  V30 3990 H 369.033 2.63154 -4.28671 0
M  V30 3991 H 368.733 1.54785 -5.66847 0
M  V30 3992 H 370.257 2.4762 -5.58137 0
M  V30 3993 H 371.671 0.209579 -5.72917 0
M  V30 3994 H 370.068 -0.541962 -5.97648 0
M  V30 3995 H 371.138 -1.16409 -4.7072 0
M  V30 3996 N 372.481 1.55866 -0.233164 0
M  V30 3997 C 373.729 1.9821 0.394593 0
M  V30 3998 C 374.05 1.12234 1.59463 0
M  V30 3999 O 373.32 0.201981 1.94856 0
M  V30 4000 H 371.9 0.732034 0.148778 0
M  V30 4001 H 374.562 1.92107 -0.32876 0
M  V30 4002 H 373.658 3.03845 0.713063 0
M  V30 4003 N 373.959 -0.0401083 1.57549 0
M  V30 4004 C 374.922 -1.02871 2.04817 0
M  V30 4005 C 375.922 -1.29708 0.950388 0
M  V30 4006 O 377.112 -1.24897 1.21435 0
M  V30 4007 C 374.244 -2.36443 2.45576 0
M  V30 4008 H 375.437 -0.620631 2.93408 0
M  V30 4009 H 372.99 -0.286667 1.53649 0
M  V30 4010 H 373.725 -2.82021 1.60108 0
M  V30 4011 H 373.51 -2.18296 3.25713 0
M  V30 4012 H 375 -3.07441 2.82612 0
M  V30 4013 N 375.437 -1.54477 -0.31217 0
M  V30 4014 C 376.714 -1.63891 -1.06767 0
M  V30 4015 C 377.094 -0.480028 -2.0557 0
M  V30 4016 O 376.442 0.524487 -2.22399 0
M  V30 4017 C 376.652 -3.01402 -1.75948 0
M  V30 4018 C 378 -3.57838 -2.28554 0
M  V30 4019 O 379.024 -3.03782 -1.85998 0
M  V30 4020 O 377.883 -4.52462 -3.06497 0
M  V30 4021 H 374.977 -0.664125 -0.492816 0
M  V30 4022 H 377.523 -1.66823 -0.311149 0
M  V30 4023 H 376.295 -3.77187 -1.04144 0
M  V30 4024 H 375.918 -3.02199 -2.58383 0
M  V30 4025 N 376.915 0.57481 -1.46744 0
M  V30 4026 C 377.878 1.66533 -1.57478 0
M  V30 4027 C 378.878 1.54338 -0.451263 0
M  V30 4028 O 380.068 1.58814 -0.715813 0
M  V30 4029 C 377.2 3.05999 -1.50259 0
M  V30 4030 H 378.393 1.58372 -2.54673 0
M  V30 4031 H 375.946 0.793301 -1.34672 0
M  V30 4032 H 376.681 3.19709 -0.543725 0
M  V30 4033 H 376.466 3.16259 -2.31781 0
M  V30 4034 H 377.956 3.8537 -1.60872 0
M  V30 4035 N 378.394 1.34581 0.820102 0
M  V30 4036 C 379.642 1.26845 1.57336 0
M  V30 4037 C 379.963 -0.160667 1.94337 0
M  V30 4038 O 379.233 -1.09396 1.6251 0
M  V30 4039 H 377.813 0.466514 0.583415 0
M  V30 4040 H 380.475 1.68526 0.979027 0
M  V30 4041 H 379.571 1.87513 2.4949 0
M  V30 4042 N 379.872 -1.04064 1.18357 0
M  V30 4043 C 380.802 -2.14001 0.934113 0
M  V30 4044 C 381.783 -1.69616 -0.128186 0
M  V30 4045 O 382.968 -1.94185 0.0244093 0
M  V30 4046 C 380.098 -3.44253 0.459066 0
M  V30 4047 C 379.052 -4.02261 1.46185 0
M  V30 4048 C 378.378 -5.27992 0.844322 0
M  V30 4049 C 379.678 -4.38432 2.83856 0
M  V30 4050 H 381.372 -2.35127 1.85352 0
M  V30 4051 H 378.918 -1.12998 0.892604 0
M  V30 4052 H 380.871 -4.20522 0.271907 0
M  V30 4053 H 379.595 -3.22813 -0.495912 0
M  V30 4054 H 378.254 -3.28074 1.63595 0
M  V30 4055 H 377.902 -5.02862 -0.117845 0
M  V30 4056 H 377.602 -5.67765 1.51384 0
M  V30 4057 H 379.126 -6.06938 0.667693 0
M  V30 4058 H 380.54 -5.05688 2.70098 0
M  V30 4059 H 378.937 -4.89254 3.47491 0
M  V30 4060 H 380.007 -3.4826 3.37406 0
M  V30 4061 N 381.35 -0.985608 -1.22978 0
M  V30 4062 C 382.3 -0.50118 -2.22423 0
M  V30 4063 C 383.284 0.426649 -1.5514 0
M  V30 4064 O 384.476 0.254656 -1.75159 0
M  V30 4065 C 381.605 0.190003 -3.42774 0
M  V30 4066 C 380.691 -0.757703 -4.17276 0
M  V30 4067 N 381.082 -1.90251 -4.68656 0
M  V30 4068 C 379.38 -0.57209 -4.42316 0
M  V30 4069 C 380.081 -2.49676 -5.25392 0
M  V30 4070 N 379.057 -1.78013 -5.13627 0
M  V30 4071 H 382.859 -1.37441 -2.59783 0
M  V30 4072 H 380.373 -0.846941 -1.38567 0
M  V30 4073 H 382.37 0.55439 -4.13197 0
M  V30 4074 H 381.03 1.05946 -3.06929 0
M  V30 4075 H 382.041 -2.28354 -4.64839 0
M  V30 4076 H 378.718 0.251909 -4.16739 0
M  V30 4077 H 380.108 -3.46384 -5.75732 0
M  V30 4078 N 382.828 1.3818 -0.7579 0
M  V30 4079 C 383.791 2.28764 -0.141286 0
M  V30 4080 C 384.791 1.47388 0.642907 0
M  V30 4081 O 385.981 1.67781 0.468536 0
M  V30 4082 C 383.113 3.31184 0.808069 0
M  V30 4083 H 384.306 2.848 -0.939633 0
M  V30 4084 H 381.859 1.47212 -0.525191 0
M  V30 4085 H 382.594 2.80247 1.63193 0
M  V30 4086 H 382.379 3.91314 0.248104 0
M  V30 4087 H 383.869 3.98909 1.23536 0
M  V30 4088 N 384.306 0.507319 1.49211 0
M  V30 4089 C 385.269 -0.256763 2.27757 0
M  V30 4090 C 386.269 -0.888287 1.34038 0
M  V30 4091 O 387.459 -0.751841 1.5714 0
M  V30 4092 C 384.591 -1.36905 3.12202 0
M  V30 4093 H 385.784 0.432557 2.96764 0
M  V30 4094 H 383.337 0.262488 1.5408 0
M  V30 4095 H 384.072 -2.09233 2.47775 0
M  V30 4096 H 383.857 -0.921599 3.81115 0
M  V30 4097 H 385.347 -1.9071 3.7151 0
M  V30 4098 N 385.784 -1.5574 0.241426 0
M  V30 4099 C 386.714 -2.24133 -0.654722 0
M  V30 4100 C 387.695 -1.21974 -1.1856 0
M  V30 4101 O 388.88 -1.50612 -1.22595 0
M  V30 4102 C 386.01 -2.93659 -1.85423 0
M  V30 4103 C 384.964 -4.0246 -1.45636 0
M  V30 4104 C 384.29 -4.59383 -2.73626 0
M  V30 4105 C 385.59 -5.18468 -0.631506 0
M  V30 4106 H 387.284 -2.99281 -0.0844353 0
M  V30 4107 H 384.83 -1.43947 -0.0391707 0
M  V30 4108 H 386.783 -3.40203 -2.48676 0
M  V30 4109 H 385.507 -2.15991 -2.44981 0
M  V30 4110 H 384.166 -3.56676 -0.847202 0
M  V30 4111 H 383.814 -3.78422 -3.3137 0
M  V30 4112 H 383.514 -5.32826 -2.4773 0
M  V30 4113 H 385.038 -5.08658 -3.37786 0
M  V30 4114 H 386.452 -5.61272 -1.1682 0
M  V30 4115 H 384.849 -5.98266 -0.468831 0
M  V30 4116 H 385.919 -4.8358 0.357506 0
M  V30 4117 N 387.262 0.0317525 -1.57568 0
M  V30 4118 C 388.212 1.04101 -2.02847 0
M  V30 4119 C 389.196 1.3219 -0.917317 0
M  V30 4120 O 390.388 1.31819 -1.18121 0
M  V30 4121 C 387.517 2.34295 -2.5092 0
M  V30 4122 C 386.603 2.09308 -3.68851 0
M  V30 4123 N 386.994 1.5437 -4.81667 0
M  V30 4124 C 385.292 2.39604 -3.76172 0
M  V30 4125 C 385.993 1.45126 -5.63306 0
M  V30 4126 N 384.969 1.92589 -5.08341 0
M  V30 4127 H 388.771 0.610217 -2.87495 0
M  V30 4128 H 386.285 0.238108 -1.60645 0
M  V30 4129 H 388.282 3.07404 -2.81617 0
M  V30 4130 H 386.942 2.78055 -1.67677 0
M  V30 4131 H 387.953 1.22678 -5.03161 0
M  V30 4132 H 384.63 2.86457 -3.03724 0
M  V30 4133 H 386.02 1.03163 -6.63933 0
M  V30 4134 N 388.74 1.54641 0.303973 0
M  V30 4135 C 389.703 1.84646 1.35789 0
M  V30 4136 C 390.703 0.7192 1.4382 0
M  V30 4137 O 391.893 0.987491 1.43507 0
M  V30 4138 C 389.025 2.02407 2.74307 0
M  V30 4139 H 390.218 2.78829 1.10429 0
M  V30 4140 H 387.771 1.46658 0.540487 0
M  V30 4141 H 388.506 1.10502 3.04893 0
M  V30 4142 H 388.291 2.84453 2.69868 0
M  V30 4143 H 389.781 2.27002 3.50514 0
M  V30 4144 N 390.218 -0.567019 1.47046 0
M  V30 4145 C 391.446 -1.35027 1.56765 0
M  V30 4146 C 391.861 -1.8758 0.214316 0
M  V30 4147 O 391.218 -1.64471 -0.790919 0
M  V30 4148 C 391.269 -2.52698 2.58507 0
M  V30 4149 O 390.99 -2.0232 3.88585 0
M  V30 4150 C 392.491 -3.45043 2.78316 0
M  V30 4151 H 389.711 -0.41195 0.529658 0
M  V30 4152 H 392.255 -0.687832 1.92585 0
M  V30 4153 H 390.41 -3.149 2.25648 0
M  V30 4154 H 390.824 -2.79068 4.44096 0
M  V30 4155 H 392.298 -4.2405 3.53391 0
M  V30 4156 H 392.775 -3.97971 1.85784 0
M  V30 4157 H 393.381 -2.88665 3.12334 0
M  V30 4158 N 391.696 -1.35014 -0.812953 0
M  V30 4159 C 392.942 -1.2812 -1.57204 0
M  V30 4160 C 393.275 0.145869 -1.93651 0
M  V30 4161 O 392.55 1.0937 -1.60836 0
M  V30 4162 C 392.833 -2.18162 -2.86492 0
M  V30 4163 C 392.686 -3.69454 -2.56561 0
M  V30 4164 C 394.005 -2.07439 -3.88145 0
M  V30 4165 H 391.124 -0.466746 -0.570366 0
M  V30 4166 H 393.766 -1.65357 -0.935783 0
M  V30 4167 H 391.916 -1.86535 -3.40789 0
M  V30 4168 H 393.588 -4.11493 -2.08497 0
M  V30 4169 H 391.831 -3.9005 -1.89851 0
M  V30 4170 H 392.502 -4.27835 -3.48799 0
M  V30 4171 H 394.978 -2.35228 -3.4323 0
M  V30 4172 H 393.854 -2.7265 -4.76396 0
M  V30 4173 H 394.115 -1.05439 -4.29343 0
M  V30 4174 N 393.175 1.03435 -1.18907 0
M  V30 4175 C 394.421 1.77005 -0.989798 0
M  V30 4176 C 394.754 1.88205 0.478816 0
M  V30 4177 O 394.029 1.39481 1.35556 0
M  V30 4178 C 394.312 3.19925 -1.65287 0
M  V30 4179 C 394.165 3.1663 -3.19477 0
M  V30 4180 C 395.484 4.18189 -1.37134 0
M  V30 4181 H 392.603 0.642538 -0.360991 0
M  V30 4182 H 395.245 1.20784 -1.46667 0
M  V30 4183 H 393.395 3.67929 -1.24741 0
M  V30 4184 H 395.067 2.76567 -3.692 0
M  V30 4185 H 393.31 2.54491 -3.51307 0
M  V30 4186 H 393.981 4.1758 -3.61013 0
M  V30 4187 H 396.457 3.78761 -1.72276 0
M  V30 4188 H 395.333 5.16394 -1.86087 0
M  V30 4189 H 395.594 4.41112 -0.295424 0
M  V30 4190 N 394.653 0.992116 1.22453 0
M  V30 4191 C 395.585 0.500024 2.23679 0
M  V30 4192 C 396.598 -0.404463 1.57696 0
M  V30 4193 O 397.787 -0.206722 1.77299 0
M  V30 4194 C 394.887 -0.294711 3.37616 0
M  V30 4195 C 394.06 0.605723 4.33186 0
M  V30 4196 C 393.119 -0.13717 5.26021 0
M  V30 4197 O 392.145 0.477164 5.67196 0
M  V30 4198 N 393.347 -1.4197 5.62872 0
M  V30 4199 H 396.112 1.37045 2.66531 0
M  V30 4200 H 393.673 0.866741 1.36745 0
M  V30 4201 H 395.665 -0.800329 3.96707 0
M  V30 4202 H 394.235 -1.06623 2.93854 0
M  V30 4203 H 393.455 1.29202 3.72425 0
M  V30 4204 H 394.743 1.21896 4.93983 0
M  V30 4205 H 394.141 -1.94015 5.31389 0
M  V30 4206 H 392.698 -1.87052 6.24383 0
M  V30 4207 N 396.131 -1.37776 0.765217 0
M  V30 4208 C 397.408 -1.93975 0.251596 0
M  V30 4209 C 397.788 -1.69949 -1.25222 0
M  V30 4210 O 397.136 -1.04457 -2.03226 0
M  V30 4211 C 397.346 -3.43487 0.617895 0
M  V30 4212 C 398.694 -4.20564 0.584029 0
M  V30 4213 O 399.718 -3.5182 0.556888 0
M  V30 4214 O 398.577 -5.43138 0.605291 0
M  V30 4215 H 395.671 -0.82509 0.0561806 0
M  V30 4216 H 398.217 -1.47101 0.846128 0
M  V30 4217 H 396.989 -3.5453 1.65602 0
M  V30 4218 H 396.612 -3.976 -0.00403411 0
M  V30 4219 N 397.609 -0.515225 -1.4894 0
M  V30 4220 C 398.539 0.244628 -2.32215 0
M  V30 4221 C 399.52 0.949136 -1.41157 0
M  V30 4222 O 400.705 0.937783 -1.70057 0
M  V30 4223 C 397.835 1.30096 -3.22013 0
M  V30 4224 C 396.789 0.715486 -4.21977 0
M  V30 4225 C 396.115 1.87339 -5.00808 0
M  V30 4226 C 397.415 -0.302982 -5.2142 0
M  V30 4227 H 399.109 -0.450501 -2.95991 0
M  V30 4228 H 396.655 -0.218098 -1.42339 0
M  V30 4229 H 398.608 1.84037 -3.79089 0
M  V30 4230 H 397.332 2.02547 -2.56207 0
M  V30 4231 H 395.991 0.197715 -3.66066 0
M  V30 4232 H 395.639 2.58592 -4.31438 0
M  V30 4233 H 395.339 1.48764 -5.68457 0
M  V30 4234 H 396.863 2.41686 -5.60732 0
M  V30 4235 H 398.277 0.148802 -5.73107 0
M  V30 4236 H 396.674 -0.60532 -5.97039 0
M  V30 4237 H 397.744 -1.21395 -4.69459 0
M  V30 4238 N 399.087 1.5561 -0.249682 0
M  V30 4239 C 400.335 1.98618 0.373548 0
M  V30 4240 C 400.656 1.13919 1.58264 0
M  V30 4241 O 399.926 0.222637 1.94631 0
M  V30 4242 H 398.506 0.733571 0.141006 0
M  V30 4243 H 401.168 1.91748 -0.349117 0
M  V30 4244 H 400.264 3.04584 0.680796 0
M  V30 4245 N 400.565 -0.0233959 1.57583 0
M  V30 4246 C 401.495 -1.02162 2.09965 0
M  V30 4247 C 402.476 -1.3735 1.00344 0
M  V30 4248 O 403.661 -1.46135 1.27899 0
M  V30 4249 C 400.791 -2.32081 2.58371 0
M  V30 4250 C 399.745 -2.1112 3.72307 0
M  V30 4251 C 399.071 -3.46848 4.06941 0
M  V30 4252 C 400.371 -1.49276 5.00514 0
M  V30 4253 H 402.065 -0.585557 2.93618 0
M  V30 4254 H 399.611 -0.280218 1.41247 0
M  V30 4255 H 401.564 -3.02249 2.93639 0
M  V30 4256 H 400.288 -2.77758 1.71808 0
M  V30 4257 H 398.947 -1.43384 3.37397 0
M  V30 4258 H 398.595 -3.90184 3.17436 0
M  V30 4259 H 398.295 -3.33646 4.83688 0
M  V30 4260 H 399.819 -4.18369 4.44747 0
M  V30 4261 H 401.233 -2.09368 5.33702 0
M  V30 4262 H 399.63 -1.46632 5.8191 0
M  V30 4263 H 400.7 -0.459217 4.82721 0
M  V30 4264 N 402.043 -1.548 -0.295768 0
M  V30 4265 C 402.993 -1.82497 -1.3667 0
M  V30 4266 C 403.977 -0.682434 -1.45711 0
M  V30 4267 O 405.169 -0.943207 -1.49775 0
M  V30 4268 C 402.298 -2.08036 -2.73086 0
M  V30 4269 C 401.384 -3.28488 -2.68247 0
M  V30 4270 N 401.775 -4.48924 -2.33025 0
M  V30 4271 C 400.073 -3.3062 -2.99343 0
M  V30 4272 C 400.774 -5.30956 -2.37613 0
M  V30 4273 N 399.75 -4.68805 -2.75178 0
M  V30 4274 H 403.552 -2.73175 -1.0841 0
M  V30 4275 H 401.066 -1.5437 -0.504361 0
M  V30 4276 H 403.063 -2.26027 -3.5031 0
M  V30 4277 H 401.723 -1.18629 -3.02254 0
M  V30 4278 H 402.734 -4.75432 -2.05389 0
M  V30 4279 H 399.411 -2.51336 -3.33371 0
M  V30 4280 H 400.801 -6.37199 -2.13135 0
M  V30 4281 N 403.521 0.559213 -1.47345 0
M  V30 4282 C 404.798 1.31997 -1.44348 0
M  V30 4283 C 405.178 2.1064 -0.139358 0
M  V30 4284 O 404.526 2.1091 0.879153 0
M  V30 4285 C 404.736 2.22618 -2.68779 0
M  V30 4286 C 406.084 2.83701 -3.1591 0
M  V30 4287 O 407.108 2.32921 -2.69493 0
M  V30 4288 O 405.967 3.75993 -3.966 0
M  V30 4289 H 403.061 0.594251 -0.575147 0
M  V30 4290 H 405.607 0.578282 -1.59543 0
M  V30 4291 H 404.379 1.64093 -3.55231 0
M  V30 4292 H 404.002 3.04085 -2.5616 0
M  V30 4293 N 404.999 1.35443 0.805782 0
M  V30 4294 C 406.247 1.28507 1.55982 0
M  V30 4295 C 406.568 -0.140046 1.94496 0
M  V30 4296 O 405.838 -1.07666 1.63661 0
M  V30 4297 H 404.418 0.472676 0.578434 0
M  V30 4298 H 407.08 1.69555 0.961098 0
M  V30 4299 H 406.176 1.90148 2.47488 0
M  V30 4300 N 406.477 -1.02803 1.19454 0
M  V30 4301 C 407.726 -1.7562 0.991996 0
M  V30 4302 C 408.039 -1.89672 -0.477901 0
M  V30 4303 O 409.245 -2.59468 -0.799287 0
M  V30 4304 C 407.701 -3.15812 1.72601 0
M  V30 4305 C 407.309 -3.0981 3.23607 0
M  V30 4306 C 409.053 -3.92918 1.60674 0
M  V30 4307 C 406.96 -4.44939 3.89594 0
M  V30 4308 H 405.89 -0.658352 0.367543 0
M  V30 4309 H 408.541 -1.15044 1.42959 0
M  V30 4310 H 406.923 -3.7686 1.21624 0
M  V30 4311 H 408.097 -2.58138 3.81709 0
M  V30 4312 H 406.412 -2.46201 3.35819 0
M  V30 4313 H 409.009 -4.9287 2.07323 0
M  V30 4314 H 409.352 -4.12502 0.561025 0
M  V30 4315 H 409.885 -3.38472 2.09001 0
M  V30 4316 H 406.624 -4.30559 4.94267 0
M  V30 4317 H 406.144 -4.96664 3.36281 0
M  V30 4318 H 407.823 -5.1382 3.93189 0
M  V30 4319 N 407.956 -0.998596 -1.21925 0
M  V30 4320 C 408.888 -0.511879 -2.23411 0
M  V30 4321 C 409.901 0.396094 -1.57908 0
M  V30 4322 O 411.09 0.197316 -1.77406 0
M  V30 4323 C 408.19 0.276802 -3.37768 0
M  V30 4324 C 407.363 -0.628687 -4.32858 0
M  V30 4325 C 406.422 0.109272 -5.26087 0
M  V30 4326 O 405.448 -0.507237 -5.66935 0
M  V30 4327 N 406.65 1.38983 -5.63617 0
M  V30 4328 H 409.415 -1.38457 -2.658 0
M  V30 4329 H 406.976 -0.873981 -1.36283 0
M  V30 4330 H 408.968 0.77928 -3.97126 0
M  V30 4331 H 407.538 1.05063 -2.94415 0
M  V30 4332 H 406.758 -1.31175 -3.71735 0
M  V30 4333 H 408.046 -1.24514 -4.93329 0
M  V30 4334 H 407.444 1.91194 -5.32411 0
M  V30 4335 H 406.001 1.83739 -6.25367 0
M  V30 4336 N 409.434 1.37368 -0.772513 0
M  V30 4337 C 410.85 1.53059 -0.452231 0
M  V30 4338 C 411.05 1.73065 1.03203 0
M  V30 4339 O 410.106 1.75245 1.81784 0
M  V30 4340 C 411.419 2.72659 -1.26797 0
M  V30 4341 C 412.967 2.86521 -1.25995 0
M  V30 4342 C 413.442 4.09105 -2.05905 0
M  V30 4343 N 414.933 4.16219 -2.03263 0
M  V30 4344 C 415.668 5.10107 -2.61875 0
M  V30 4345 N 415.164 6.09547 -3.29278 0
M  V30 4346 N 416.957 5.02596 -2.51701 0
M  V30 4347 H 409.108 1.22634 -1.7342 0
M  V30 4348 H 411.371 0.597206 -0.736239 0
M  V30 4349 H 411.077 2.64343 -2.31982 0
M  V30 4350 H 410.951 3.66363 -0.897672 0
M  V30 4351 H 413.338 2.94308 -0.216081 0
M  V30 4352 H 413.419 1.93774 -1.66989 0
M  V30 4353 H 413.063 4.0208 -3.10313 0
M  V30 4354 H 412.993 5.00968 -1.62292 0
M  V30 4355 H 415.484 3.45012 -1.54192 0
M  V30 4356 H 415.797 6.77718 -3.71374 0
M  V30 4357 H 414.142 6.09824 -3.33377 0
M  V30 4358 H 417.333 4.23855 -1.98657 0
M  V30 4359 H 417.506 5.75582 -2.97673 0
M  V30 4360 N 410.912 0.523116 1.48665 0
M  V30 4361 C 412.158 -0.0134963 2.02796 0
M  V30 4362 C 412.491 -1.34582 1.40004 0
M  V30 4363 O 411.766 -1.86756 0.543381 0
M  V30 4364 C 412.049 -0.14276 3.59817 0
M  V30 4365 C 411.902 1.21425 4.331 0
M  V30 4366 C 413.221 -0.872856 4.31357 0
M  V30 4367 H 410.34 -0.00343074 0.736992 0
M  V30 4368 H 412.982 0.678816 1.7746 0
M  V30 4369 H 411.132 -0.732401 3.81534 0
M  V30 4370 H 412.804 1.84447 4.2282 0
M  V30 4371 H 411.047 1.79791 3.94788 0
M  V30 4372 H 411.718 1.07687 5.41394 0
M  V30 4373 H 414.194 -0.372555 4.14429 0
M  V30 4374 H 413.07 -0.932185 5.40927 0
M  V30 4375 H 413.331 -1.92161 3.98154 0
M  V30 4376 N 412.39 -1.55475 0.257931 0
M  V30 4377 C 413.32 -2.24815 -0.630912 0
M  V30 4378 C 414.301 -1.23224 -1.17259 0
M  V30 4379 O 415.486 -1.51904 -1.20991 0
M  V30 4380 C 412.616 -2.95609 -1.82298 0
M  V30 4381 C 411.57 -4.03982 -1.41359 0
M  V30 4382 C 410.896 -4.6226 -2.68738 0
M  V30 4383 C 412.196 -5.19109 -0.57648 0
M  V30 4384 H 413.89 -2.99354 -0.0526878 0
M  V30 4385 H 411.436 -1.4398 -0.023901 0
M  V30 4386 H 413.389 -3.42822 -2.45054 0
M  V30 4387 H 412.113 -2.18577 -2.42676 0
M  V30 4388 H 410.772 -3.57555 -0.809324 0
M  V30 4389 H 410.42 -3.81915 -3.27338 0
M  V30 4390 H 410.12 -5.35424 -2.42065 0
M  V30 4391 H 411.644 -5.12212 -3.32372 0
M  V30 4392 H 413.058 -5.62479 -1.10861 0
M  V30 4393 H 411.455 -5.98729 -0.405351 0
M  V30 4394 H 412.525 -4.83174 0.408776 0
M  V30 4395 N 413.868 0.0150385 -1.57593 0
M  V30 4396 C 415.115 0.703001 -1.89906 0
M  V30 4397 C 415.443 1.74604 -0.856944 0
M  V30 4398 O 414.698 1.95197 0.140287 0
M  V30 4399 C 414.997 1.39686 -3.28972 0
M  V30 4400 C 414.663 0.488457 -4.48246 0
M  V30 4401 C 413.325 0.2383 -4.8061 0
M  V30 4402 C 415.677 -0.137881 -5.21018 0
M  V30 4403 C 413.005 -0.646738 -5.83125 0
M  V30 4404 C 415.357 -1.0107 -6.24474 0
M  V30 4405 C 414.021 -1.27019 -6.55303 0
M  V30 4406 H 413.291 0.257246 -0.694914 0
M  V30 4407 H 415.938 -0.037259 -1.91464 0
M  V30 4408 H 414.243 2.21079 -3.23468 0
M  V30 4409 H 415.94 1.93495 -3.51227 0
M  V30 4410 H 412.53 0.693593 -4.22951 0
M  V30 4411 H 416.714 0.0423953 -4.96282 0
M  V30 4412 H 411.97 -0.855937 -6.05379 0
M  V30 4413 H 416.144 -1.50247 -6.79999 0
M  V30 4414 H 413.771 -1.95769 -7.3456 0
M  V30 4415 N 415.346 1.54954 0.287554 0
M  V30 4416 C 416.594 1.74528 1.01904 0
M  V30 4417 C 416.915 0.541349 1.87335 0
M  V30 4418 O 416.185 -0.444108 1.908 0
M  V30 4419 H 414.765 0.643576 0.379235 0
M  V30 4420 H 417.427 1.92333 0.315294 0
M  V30 4421 H 416.523 2.64015 1.6644 0
M  V30 4422 N 416.824 -0.551391 1.4764 0
M  V30 4423 C 417.772 -1.67896 1.60978 0
M  V30 4424 C 418.766 -1.62549 0.476877 0
M  V30 4425 O 419.972 -1.67664 0.654878 0
M  V30 4426 H 416.347 -0.555649 0.506713 0
M  V30 4427 H 418.318 -1.53784 2.55721 0
M  V30 4428 C 417.067 -3.06234 1.64669 0
M  V30 4429 H 416.39 -3.11033 2.51194 0
M  V30 4430 H 417.83 -3.84804 1.7805 0
M  V30 4431 C 416.289 -3.34737 0.381115 0
M  V30 4432 O 416.819 -3.98381 -0.515297 0
M  V30 4433 N 415.025 -2.8944 0.259354 0
M  V30 4434 H 414.572 -2.37827 0.98976 0
M  V30 4435 H 414.53 -3.08882 -0.586464 0
M  V30 4436 N 418.302 -1.35869 -0.798587 0
M  V30 4437 C 419.25 -1.29491 -1.93222 0
M  V30 4438 C 420.244 -0.18836 -1.6835 0
M  V30 4439 O 421.45 -0.354822 -1.76468 0
M  V30 4440 H 417.825 -0.402901 -0.63496 0
M  V30 4441 H 419.796 -2.25247 -1.9572 0
M  V30 4442 C 418.545 -1.09184 -3.30112 0
M  V30 4443 H 417.868 -1.93574 -3.49813 0
M  V30 4444 H 419.308 -1.08766 -4.09812 0
M  V30 4445 C 417.767 0.203959 -3.36282 0
M  V30 4446 O 418.297 1.19699 -3.83451 0
M  V30 4447 N 416.503 0.245488 -2.89561 0
M  V30 4448 H 416.05 -0.563223 -2.51367 0
M  V30 4449 H 416.008 1.11219 -2.94071 0
M  V30 4450 N 419.78 1.02168 -1.19998 0
M  V30 4451 C 420.71 2.12488 -0.96804 0
M  V30 4452 C 421.691 1.69799 0.101185 0
M  V30 4453 O 422.876 1.94121 -0.0552993 0
M  V30 4454 C 420.006 3.43479 -0.513776 0
M  V30 4455 C 418.96 3.99884 -1.52566 0
M  V30 4456 C 418.286 5.26582 -0.928214 0
M  V30 4457 C 419.586 4.33861 -2.90795 0
M  V30 4458 H 421.28 2.32149 -1.89069 0
M  V30 4459 H 418.826 1.11564 -0.910468 0
M  V30 4460 H 420.779 4.20036 -0.338774 0
M  V30 4461 H 419.503 3.23561 0.444493 0
M  V30 4462 H 418.162 3.25429 -1.68794 0
M  V30 4463 H 417.81 5.02986 0.0378289 0
M  V30 4464 H 417.51 5.65284 -1.60397 0
M  V30 4465 H 419.034 6.05799 -0.764167 0
M  V30 4466 H 420.448 5.01327 -2.78109 0
M  V30 4467 H 418.845 4.83664 -3.55231 0
M  V30 4468 H 419.915 3.42848 -3.42904 0
M  V30 4469 N 421.258 1.00505 1.21394 0
M  V30 4470 C 422.206 0.558623 2.25792 0
M  V30 4471 C 423.2 -0.396848 1.64686 0
M  V30 4472 O 424.406 -0.268035 1.77993 0
M  V30 4473 H 420.781 0.1623 0.734277 0
M  V30 4474 H 422.752 1.4503 2.60785 0
M  V30 4475 C 421.501 -0.0989574 3.47559 0
M  V30 4476 H 420.824 0.627225 3.94849 0
M  V30 4477 H 422.264 -0.3746 4.22342 0
M  V30 4478 C 420.723 -1.33817 3.09184 0
M  V30 4479 O 421.253 -2.43252 3.19674 0
M  V30 4480 N 419.459 -1.21793 2.63846 0
M  V30 4481 H 419.006 -0.32746 2.5551 0
M  V30 4482 H 418.964 -2.04809 2.38539 0
M  V30 4483 N 422.737 -1.36956 0.779787 0
M  V30 4484 C 423.984 -1.99491 0.347766 0
M  V30 4485 C 424.312 -1.61898 -1.07793 0
M  V30 4486 O 423.567 -0.86071 -1.75756 0
M  V30 4487 C 423.866 -3.54585 0.447686 0
M  V30 4488 C 423.532 -4.1197 1.83279 0
M  V30 4489 C 422.194 -4.27356 2.2118 0
M  V30 4490 C 424.546 -4.43354 2.74019 0
M  V30 4491 C 421.874 -4.71432 3.4924 0
M  V30 4492 C 424.226 -4.88858 4.01497 0
M  V30 4493 C 422.89 -5.0245 4.39432 0
M  V30 4494 H 422.16 -0.729991 0.127257 0
M  V30 4495 H 424.807 -1.63599 0.995376 0
M  V30 4496 H 423.112 -3.90773 -0.283447 0
M  V30 4497 H 424.809 -4.00888 0.0945948 0
M  V30 4498 H 421.399 -4.00428 1.52825 0
M  V30 4499 H 425.583 -4.31045 2.45995 0
M  V30 4500 H 420.839 -4.80141 3.78516 0
M  V30 4501 H 425.013 -5.12108 4.71931 0
M  V30 4502 H 422.64 -5.36362 5.38721 0
M  V30 4503 N 424.215 -0.530993 -1.48385 0
M  V30 4504 C 425.461 -0.00538653 -2.03399 0
M  V30 4505 C 425.816 1.31899 -1.40073 0
M  V30 4506 O 425.109 1.83901 -0.537676 0
M  V30 4507 C 425.303 0.172742 -3.56982 0
M  V30 4508 C 425.132 -1.13282 -4.35198 0
M  V30 4509 C 423.902 -1.69296 -4.76096 0
M  V30 4510 C 426.1 -2.04367 -4.71952 0
M  V30 4511 N 424.082 -2.9413 -5.38851 0
M  V30 4512 C 425.453 -3.13777 -5.34737 0
M  V30 4513 C 427.508 -2.04681 -4.53883 0
M  V30 4514 C 426.211 -4.23567 -5.81363 0
M  V30 4515 C 428.237 -3.13466 -5.01491 0
M  V30 4516 C 427.599 -4.21595 -5.64302 0
M  V30 4517 H 423.698 -0.0434945 -0.780789 0
M  V30 4518 H 426.282 -0.712495 -1.81195 0
M  V30 4519 H 424.453 0.848937 -3.79009 0
M  V30 4520 H 426.185 0.698046 -3.98634 0
M  V30 4521 H 422.94 -1.23422 -4.57235 0
M  V30 4522 H 423.364 -3.57689 -5.74794 0
M  V30 4523 H 428.006 -1.22378 -4.04702 0
M  V30 4524 H 425.724 -5.06648 -6.2955 0
M  V30 4525 H 429.31 -3.14765 -4.893 0
M  V30 4526 H 428.19 -5.04384 -6.00472 0
M  V30 4527 N 425.693 1.55336 -0.266172 0
M  V30 4528 C 426.623 2.25146 0.618981 0
M  V30 4529 C 427.604 1.23845 1.16604 0
M  V30 4530 O 428.789 1.52544 1.20183 0
M  V30 4531 C 425.919 2.96572 1.80728 0
M  V30 4532 C 424.873 4.04726 1.39215 0
M  V30 4533 C 424.199 4.63678 2.66283 0
M  V30 4534 C 425.499 5.19407 0.548942 0
M  V30 4535 H 427.193 2.99377 0.0368116 0
M  V30 4536 H 424.739 1.43991 0.0162651 0
M  V30 4537 H 426.692 3.44116 2.43232 0
M  V30 4538 H 425.416 2.19861 2.41514 0
M  V30 4539 H 424.075 3.57979 0.790351 0
M  V30 4540 H 423.723 3.83646 3.25308 0
M  V30 4541 H 423.423 5.367 2.39222 0
M  V30 4542 H 424.947 5.13967 3.29651 0
M  V30 4543 H 426.361 5.63059 1.07876 0
M  V30 4544 H 424.758 5.98936 0.373593 0
M  V30 4545 H 425.828 4.8295 -0.434394 0
M  V30 4546 N 427.171 -0.0066808 1.57599 0
M  V30 4547 C 428.121 -1.0086 2.04478 0
M  V30 4548 C 429.105 -1.30714 0.938231 0
M  V30 4549 O 430.297 -1.29924 1.20203 0
M  V30 4550 C 427.426 -2.30273 2.54615 0
M  V30 4551 C 426.512 -2.03413 3.72134 0
M  V30 4552 N 426.903 -1.46688 4.84062 0
M  V30 4553 C 425.201 -2.33589 3.79937 0
M  V30 4554 C 425.902 -1.36146 5.65543 0
M  V30 4555 N 424.878 -1.84477 5.1134 0
M  V30 4556 H 428.68 -0.564402 2.8843 0
M  V30 4557 H 426.194 -0.212521 1.61003 0
M  V30 4558 H 428.191 -3.02885 2.86472 0
M  V30 4559 H 426.851 -2.75352 1.72079 0
M  V30 4560 H 427.862 -1.14658 5.05049 0
M  V30 4561 H 424.539 -2.81589 3.08243 0
M  V30 4562 H 425.929 -0.925873 6.6549 0
M  V30 4563 N 428.649 -1.55105 -0.279332 0
M  V30 4564 C 429.596 -1.8755 -1.34513 0
M  V30 4565 C 430.566 -0.726384 -1.49375 0
M  V30 4566 O 431.751 -0.977063 -1.63884 0
M  V30 4567 C 428.891 -2.14738 -2.70151 0
M  V30 4568 C 428.004 -3.42285 -2.63562 0
M  V30 4569 C 427.139 -3.59206 -3.91337 0
M  V30 4570 C 426.178 -4.80467 -3.79233 0
M  V30 4571 N 425.315 -4.94079 -4.98829 0
M  V30 4572 H 430.155 -2.78456 -1.06143 0
M  V30 4573 H 427.692 -1.37867 -0.512936 0
M  V30 4574 H 429.65 -2.28501 -3.49061 0
M  V30 4575 H 428.28 -1.27075 -2.96735 0
M  V30 4576 H 427.332 -3.37029 -1.76397 0
M  V30 4577 H 428.644 -4.31328 -2.50515 0
M  V30 4578 H 427.798 -3.72751 -4.78687 0
M  V30 4579 H 426.537 -2.68337 -4.07243 0
M  V30 4580 H 425.542 -4.66932 -2.90266 0
M  V30 4581 H 426.767 -5.72765 -3.64852 0
M  V30 4582 H 424.713 -4.06139 -5.15158 0
M  V30 4583 H 424.63 -5.77156 -4.8829 0
M  V30 4584 H 425.898 -5.12003 -5.8777 0
M  V30 4585 N 430.127 0.543554 -1.4793 0
M  V30 4586 C 431.057 1.65888 -1.64327 0
M  V30 4587 C 432.038 1.62818 -0.492383 0
M  V30 4588 O 433.223 1.80226 -0.723338 0
M  V30 4589 C 430.353 3.04506 -1.67013 0
M  V30 4590 C 429.307 3.2243 -2.81466 0
M  V30 4591 C 428.633 4.61972 -2.69233 0
M  V30 4592 C 429.933 3.06496 -4.22915 0
M  V30 4593 H 431.627 1.52421 -2.57698 0
M  V30 4594 H 429.173 0.731849 -1.24016 0
M  V30 4595 H 431.126 3.82391 -1.77074 0
M  V30 4596 H 429.85 3.18964 -0.70212 0
M  V30 4597 H 428.509 2.46957 -2.70938 0
M  V30 4598 H 428.157 4.73247 -1.7043 0
M  V30 4599 H 427.857 4.74911 -3.46025 0
M  V30 4600 H 429.381 5.41974 -2.81242 0
M  V30 4601 H 430.795 3.74186 -4.34348 0
M  V30 4602 H 429.192 3.30938 -5.006 0
M  V30 4603 H 430.262 2.03077 -4.40327 0
M  V30 4604 N 431.605 1.3629 0.791371 0
M  V30 4605 C 432.851 1.30605 1.55146 0
M  V30 4606 C 433.184 -0.115042 1.93859 0
M  V30 4607 O 432.459 -1.06798 1.62556 0
M  V30 4608 C 432.742 2.22692 2.82985 0
M  V30 4609 C 432.595 3.73489 2.50651 0
M  V30 4610 C 433.914 2.13588 3.84796 0
M  V30 4611 H 431.033 0.475761 0.562868 0
M  V30 4612 H 433.675 1.66825 0.909358 0
M  V30 4613 H 431.825 1.91933 3.37778 0
M  V30 4614 H 433.497 4.14758 2.01924 0
M  V30 4615 H 431.74 3.93021 1.83622 0
M  V30 4616 H 432.411 4.3333 3.41949 0
M  V30 4617 H 434.887 2.40659 3.39445 0
M  V30 4618 H 433.763 2.80195 4.71998 0
M  V30 4619 H 434.024 1.12256 4.27611 0
M  V30 4620 N 433.083 -1.0153 1.20538 0
M  V30 4621 C 434.33 -1.75149 1.01633 0
M  V30 4622 C 434.658 -1.89189 -0.451399 0
M  V30 4623 O 433.913 -1.41551 -1.35136 0
M  V30 4624 C 434.212 -3.17213 1.64654 0
M  V30 4625 C 433.878 -3.23146 3.14464 0
M  V30 4626 C 432.54 -3.24472 3.55347 0
M  V30 4627 C 434.892 -3.21207 4.10458 0
M  V30 4628 C 432.22 -3.21532 4.90748 0
M  V30 4629 C 434.572 -3.19808 5.45807 0
M  V30 4630 C 433.236 -3.19439 5.86102 0
M  V30 4631 H 432.506 -0.640914 0.3719 0
M  V30 4632 H 435.153 -1.19071 1.49981 0
M  V30 4633 H 433.458 -3.76457 1.08571 0
M  V30 4634 H 435.155 -3.72871 1.4754 0
M  V30 4635 H 431.745 -3.2285 2.81897 0
M  V30 4636 H 435.929 -3.19351 3.79906 0
M  V30 4637 H 431.185 -3.19578 5.21229 0
M  V30 4638 H 435.359 -3.1726 6.19935 0
M  V30 4639 H 432.986 -3.16915 6.90991 0
M  V30 4640 N 434.561 -1.01147 -1.20859 0
M  V30 4641 C 435.807 -0.698899 -1.90377 0
M  V30 4642 C 436.14 0.76904 -1.78324 0
M  V30 4643 O 435.415 1.55817 -1.16409 0
M  V30 4644 C 435.698 -1.12878 -3.41951 0
M  V30 4645 C 435.551 -2.65665 -3.62963 0
M  V30 4646 C 436.87 -0.696114 -4.3456 0
M  V30 4647 H 433.989 -0.255372 -0.691342 0
M  V30 4648 H 436.631 -1.25831 -1.42361 0
M  V30 4649 H 434.781 -0.652827 -3.82976 0
M  V30 4650 H 436.453 -3.21074 -3.31224 0
M  V30 4651 H 434.696 -3.06878 -3.06608 0
M  V30 4652 H 435.367 -2.90797 -4.69192 0
M  V30 4653 H 437.843 -1.10521 -4.01154 0
M  V30 4654 H 436.719 -1.025 -5.39245 0
M  V30 4655 H 436.98 0.402465 -4.40264 0
M  V30 4656 N 436.039 1.36541 -0.78704 0
M  V30 4657 C 437.316 1.9355 -0.282424 0
M  V30 4658 C 437.696 1.71919 1.22503 0
M  V30 4659 O 437.044 1.07677 2.01539 0
M  V30 4660 C 437.254 3.4246 -0.672462 0
M  V30 4661 C 438.602 4.19582 -0.650863 0
M  V30 4662 O 439.626 3.50889 -0.612789 0
M  V30 4663 O 438.485 5.42106 -0.691623 0
M  V30 4664 H 435.579 0.824091 -0.0693 0
M  V30 4665 H 438.125 1.45736 -0.869423 0
M  V30 4666 H 436.897 3.51851 -1.71221 0
M  V30 4667 H 436.52 3.97556 -0.0592211 0
M  V30 4668 N 437.518 0.538854 1.48102 0
M  V30 4669 C 438.481 -0.208395 2.28251 0
M  V30 4670 C 439.481 -0.859656 1.35892 0
M  V30 4671 O 440.671 -0.71834 1.58699 0
M  V30 4672 C 437.803 -1.30252 3.15035 0
M  V30 4673 H 438.996 0.495407 2.9578 0
M  V30 4674 H 436.549 0.295112 1.53489 0
M  V30 4675 H 437.284 -2.0393 2.52157 0
M  V30 4676 H 437.069 -0.840551 3.82985 0
M  V30 4677 H 438.559 -1.82787 3.75471 0
M  V30 4678 N 438.996 -1.55193 0.274407 0
M  V30 4679 C 440.242 -1.99877 -0.343086 0
M  V30 4680 C 440.575 -1.16256 -1.55558 0
M  V30 4681 O 439.85 -0.232462 -1.93106 0
M  V30 4682 C 440.133 -3.52706 -0.725965 0
M  V30 4683 C 439.986 -4.47081 0.493818 0
M  V30 4684 C 441.305 -4.11422 -1.56268 0
M  V30 4685 H 438.424 -0.726625 -0.123229 0
M  V30 4686 H 441.066 -1.86136 0.38121 0
M  V30 4687 H 439.216 -3.64546 -1.34307 0
M  V30 4688 H 440.888 -4.47186 1.13237 0
M  V30 4689 H 439.131 -4.1877 1.13201 0
M  V30 4690 H 439.802 -5.51699 0.18217 0
M  V30 4691 H 442.278 -4.02855 -1.04151 0
M  V30 4692 H 441.154 -5.18568 -1.79939 0
M  V30 4693 H 441.415 -3.61607 -2.54348 0
M  V30 4694 N 440.474 -0.00167713 -1.576 0
M  V30 4695 C 441.437 0.974046 -2.07473 0
M  V30 4696 C 442.437 1.27143 -0.984444 0
M  V30 4697 O 443.627 1.21633 -1.24703 0
M  V30 4698 C 440.759 2.29849 -2.51759 0
M  V30 4699 H 441.952 0.54262 -2.9495 0
M  V30 4700 H 439.505 0.245829 -1.54355 0
M  V30 4701 H 440.24 2.77677 -1.67529 0
M  V30 4702 H 440.025 2.09584 -3.31386 0
M  V30 4703 H 441.515 2.9984 -2.90664 0
M  V30 4704 N 441.952 1.55251 0.271103 0
M  V30 4705 C 443.199 1.75946 1.00245 0
M  V30 4706 C 443.527 0.561611 1.86215 0
M  V30 4707 O 442.782 -0.455832 1.90317 0
M  V30 4708 C 443.081 3.01879 1.91321 0
M  V30 4709 C 442.747 4.34337 1.21086 0
M  V30 4710 C 441.409 4.70338 1.01666 0
M  V30 4711 C 443.761 5.16325 0.71119 0
M  V30 4712 C 441.089 5.8588 0.310099 0
M  V30 4713 C 443.441 6.32597 0.0182157 0
M  V30 4714 C 442.105 6.67236 -0.18768 0
M  V30 4715 H 441.375 0.643833 0.366824 0
M  V30 4716 H 444.022 1.89521 0.27458 0
M  V30 4717 H 442.327 2.83212 2.70736 0
M  V30 4718 H 444.024 3.15088 2.48033 0
M  V30 4719 H 440.614 4.06043 1.37213 0
M  V30 4720 H 444.798 4.88987 0.848844 0
M  V30 4721 H 440.054 6.1124 0.139873 0
M  V30 4722 H 444.228 6.9538 -0.376711 0
M  V30 4723 H 441.855 7.56618 -0.73715 0
M  V30 4724 N 443.43 -0.535701 1.48216 0
M  V30 4725 C 444.36 -1.65014 1.65204 0
M  V30 4726 C 445.341 -1.62554 0.501011 0
M  V30 4727 O 446.526 -1.7984 0.732886 0
M  V30 4728 C 443.656 -3.03616 1.68626 0
M  V30 4729 C 442.61 -3.20932 2.83172 0
M  V30 4730 C 441.936 -4.60537 2.71679 0
M  V30 4731 C 443.236 -3.04249 4.24535 0
M  V30 4732 H 444.93 -1.51053 2.58502 0
M  V30 4733 H 442.476 -0.725262 1.24402 0
M  V30 4734 H 444.429 -3.81446 1.79099 0
M  V30 4735 H 443.153 -3.18587 0.719026 0
M  V30 4736 H 441.812 -2.45517 2.72244 0
M  V30 4737 H 441.46 -4.72336 1.72937 0
M  V30 4738 H 441.16 -4.73069 3.48538 0
M  V30 4739 H 442.684 -5.40475 2.84112 0
M  V30 4740 H 444.098 -3.71877 4.36326 0
M  V30 4741 H 442.495 -3.28278 5.02348 0
M  V30 4742 H 443.565 -2.00739 4.41397 0
M  V30 4743 N 444.908 -1.36708 -0.784132 0
M  V30 4744 C 446.136 -1.34398 -1.57305 0
M  V30 4745 C 446.551 0.0735577 -1.88657 0
M  V30 4746 O 445.908 1.03193 -1.50524 0
M  V30 4747 C 445.959 -2.17053 -2.89085 0
M  V30 4748 O 445.68 -3.53281 -2.59083 0
M  V30 4749 C 447.181 -2.22583 -3.83369 0
M  V30 4750 H 444.401 -0.460819 -0.487736 0
M  V30 4751 H 446.945 -1.79879 -0.972819 0
M  V30 4752 H 445.1 -1.75113 -3.45564 0
M  V30 4753 H 445.514 -3.9647 -3.43383 0
M  V30 4754 H 446.988 -2.84763 -4.72878 0
M  V30 4755 H 447.465 -1.23075 -4.21603 0
M  V30 4756 H 448.071 -2.64781 -3.32823 0
M  V30 4757 N 446.386 1.0089 -1.21074 0
M  V30 4758 C 447.634 1.74262 -1.02358 0
M  V30 4759 C 447.955 1.89869 0.444393 0
M  V30 4760 O 447.225 1.44677 1.32081 0
M  V30 4761 H 445.805 0.645615 -0.375754 0
M  V30 4762 H 448.467 1.21596 -1.52317 0
M  V30 4763 H 447.563 2.74328 -1.4883 0
M  V30 4764 N 447.864 1.01787 1.20321 0
M  V30 4765 C 448.811 0.589197 2.23153 0
M  V30 4766 C 449.781 -0.391367 1.61423 0
M  V30 4767 O 450.966 -0.290518 1.88575 0
M  V30 4768 C 448.106 -0.0650747 3.45039 0
M  V30 4769 C 447.219 0.960207 4.21194 0
M  V30 4770 C 446.354 0.276854 5.30478 0
M  V30 4771 C 445.393 1.2888 5.98378 0
M  V30 4772 N 444.53 0.632031 6.99249 0
M  V30 4773 H 449.37 1.47071 2.59179 0
M  V30 4774 H 446.907 0.736192 1.27352 0
M  V30 4775 H 448.865 -0.461552 4.14639 0
M  V30 4776 H 447.495 -0.910233 3.09701 0
M  V30 4777 H 446.547 1.47484 3.50646 0
M  V30 4778 H 447.859 1.72977 4.67847 0
M  V30 4779 H 447.013 -0.175056 6.06447 0
M  V30 4780 H 445.752 -0.525004 4.84866 0
M  V30 4781 H 444.757 1.75109 5.21169 0
M  V30 4782 H 445.982 2.09196 6.46076 0
M  V30 4783 H 443.928 -0.149935 6.55829 0
M  V30 4784 H 443.845 1.33964 7.44036 0
M  V30 4785 H 445.113 0.203755 7.79234 0
M  V30 4786 N 449.342 -1.36122 0.79427 0
M  V30 4787 C 450.758 -1.5232 0.476525 0
M  V30 4788 C 450.958 -1.74685 -1.00436 0
M  V30 4789 O 450.014 -1.78115 -1.78973 0
M  V30 4790 C 451.327 -2.70607 1.31119 0
M  V30 4791 C 452.875 -2.8448 1.30537 0
M  V30 4792 C 453.35 -4.05778 2.12387 0
M  V30 4793 N 454.841 -4.12933 2.09859 0
M  V30 4794 C 455.576 -5.05876 2.69957 0
M  V30 4795 N 455.072 -6.04232 3.38934 0
M  V30 4796 N 456.865 -4.98528 2.59665 0
M  V30 4797 H 449.016 -1.1986 1.75349 0
M  V30 4798 H 451.279 -0.585418 0.745647 0
M  V30 4799 H 450.985 -2.60619 2.36158 0
M  V30 4800 H 450.859 -3.64888 0.955843 0
M  V30 4801 H 453.246 -2.93927 0.262876 0
M  V30 4802 H 453.327 -1.91093 1.70051 0
M  V30 4803 H 452.971 -3.97092 3.1667 0
M  V30 4804 H 452.901 -4.98323 1.70242 0
M  V30 4805 H 455.392 -3.42515 1.59662 0
M  V30 4806 H 455.705 -6.71724 3.82109 0
M  V30 4807 H 454.05 -6.04443 3.43036 0
M  V30 4808 H 457.241 -4.20641 2.05375 0
M  V30 4809 H 457.414 -5.70773 3.06793 0
M  V30 4810 N 450.82 -0.546701 -1.47814 0
M  V30 4811 C 451.75 0.195317 -2.32682 0
M  V30 4812 C 452.731 0.918981 -1.43139 0
M  V30 4813 O 453.916 0.901501 -1.72008 0
M  V30 4814 C 451.046 1.23237 -3.247 0
M  V30 4815 C 450 0.625818 -4.234 0
M  V30 4816 C 449.326 1.76674 -5.04669 0
M  V30 4817 C 450.626 -0.413515 -5.2066 0
M  V30 4818 H 452.32 -0.513184 -2.94969 0
M  V30 4819 H 449.866 -0.248241 -1.41844 0
M  V30 4820 H 451.819 1.75955 -3.82907 0
M  V30 4821 H 450.543 1.97067 -2.60446 0
M  V30 4822 H 449.202 0.120023 -3.66403 0
M  V30 4823 H 448.85 2.49383 -4.36826 0
M  V30 4824 H 448.55 1.36673 -5.71484 0
M  V30 4825 H 450.074 2.29738 -5.65732 0
M  V30 4826 H 451.488 0.0272042 -5.73294 0
M  V30 4827 H 449.885 -0.731825 -5.95621 0
M  V30 4828 H 450.955 -1.31325 -4.66778 0
M  V30 4829 N 452.299 1.55045 -0.282633 0
M  V30 4830 C 453.524 2.04628 0.337977 0
M  V30 4831 C 453.949 1.15937 1.48123 0
M  V30 4832 O 453.307 0.159532 1.80597 0
M  V30 4833 C 453.355 3.51854 0.78936 0
M  V30 4834 O 452.459 3.66236 1.89592 0
M  V30 4835 H 451.8 0.660434 0.0687261 0
M  V30 4836 H 454.33 2.00261 -0.419124 0
M  V30 4837 H 454.34 3.93361 1.08311 0
M  V30 4838 H 453.015 4.15873 -0.0470419 0
M  V30 4839 H 451.592 3.36633 1.60413 0
M  V30 4840 N 453.777 0.010035 1.57597 0
M  V30 4841 C 454.707 -0.976857 2.12084 0
M  V30 4842 C 455.688 -1.35191 1.03235 0
M  V30 4843 O 456.873 -1.43389 1.3097 0
M  V30 4844 C 454.003 -2.26548 2.63236 0
M  V30 4845 C 452.957 -2.03175 3.76701 0
M  V30 4846 C 452.283 -3.38138 4.14206 0
M  V30 4847 C 453.583 -1.38625 5.03568 0
M  V30 4848 H 455.277 -0.523145 2.94794 0
M  V30 4849 H 452.823 -0.250195 1.4181 0
M  V30 4850 H 454.776 -2.95952 2.99984 0
M  V30 4851 H 453.5 -2.74051 1.77661 0
M  V30 4852 H 452.159 -1.36195 3.40362 0
M  V30 4853 H 451.807 -3.83363 3.25641 0
M  V30 4854 H 451.507 -3.23312 4.90656 0
M  V30 4855 H 453.031 -4.08841 4.53521 0
M  V30 4856 H 454.445 -1.98 5.38023 0
M  V30 4857 H 452.842 -1.34256 5.84889 0
M  V30 4858 H 453.912 -0.356722 4.83586 0
M  V30 4859 N 455.255 -1.55392 -0.262866 0
M  V30 4860 C 456.666 -1.67079 -0.833158 0
M  V30 4861 C 457.017 -0.604539 -1.86654 0
M  V30 4862 O 456.142 0.252138 -2.14926 0
M  V30 4863 C 456.737 -3.02891 -1.51797 0
M  V30 4864 C 455.296 -3.16571 -2.03617 0
M  V30 4865 C 454.443 -2.62909 -0.881701 0
M  V30 4866 H 457.394 -1.58652 -0.0389986 0
M  V30 4867 H 457.415 -2.96445 -2.38538 0
M  V30 4868 H 456.927 -3.80473 -0.765619 0
M  V30 4869 H 455.028 -2.43782 -2.81782 0
M  V30 4870 H 455.141 -4.23271 -2.24452 0
M  V30 4871 H 453.505 -2.20324 -1.27786 0
M  V30 4872 H 454.288 -3.43003 -0.14269 0
M  V30 4873 N 456.733 0.527833 -1.48498 0
M  V30 4874 C 457.663 1.64136 -1.66077 0
M  V30 4875 C 458.644 1.62286 -0.509625 0
M  V30 4876 O 459.829 1.79449 -0.742413 0
M  V30 4877 C 456.959 3.02717 -1.70234 0
M  V30 4878 C 455.913 3.19426 -2.8487 0
M  V30 4879 C 455.239 4.5909 -2.74118 0
M  V30 4880 C 456.539 3.01993 -4.26142 0
M  V30 4881 H 458.233 1.4968 -2.593 0
M  V30 4882 H 455.779 0.718654 -1.24785 0
M  V30 4883 H 457.732 3.80491 -1.8112 0
M  V30 4884 H 456.456 3.18201 -0.735911 0
M  V30 4885 H 455.115 2.4407 -2.73542 0
M  V30 4886 H 454.763 4.71413 -1.7544 0
M  V30 4887 H 454.463 4.71214 -3.51042 0
M  V30 4888 H 455.987 5.3896 -2.86974 0
M  V30 4889 H 457.401 3.69558 -4.38292 0
M  V30 4890 H 455.798 3.2561 -5.04082 0
M  V30 4891 H 456.868 1.98396 -4.42456 0
M  V30 4892 N 458.211 1.37122 0.776871 0
M  V30 4893 C 459.488 1.22586 1.52421 0
M  V30 4894 C 459.868 -0.182726 2.10308 0
M  V30 4895 O 459.216 -1.18979 1.9508 0
M  V30 4896 C 459.426 2.31782 2.60918 0
M  V30 4897 C 460.774 2.69071 3.2846 0
M  V30 4898 O 461.798 2.3092 2.71209 0
M  V30 4899 O 460.657 3.3478 4.31954 0
M  V30 4900 H 457.751 0.478045 0.674835 0
M  V30 4901 H 460.297 1.48888 0.814275 0
M  V30 4902 H 459.069 3.26131 2.16227 0
M  V30 4903 H 458.692 2.06916 3.39517 0
M  V30 4904 N 459.689 -1.00246 1.21608 0
M  V30 4905 C 461.105 -1.26435 0.973975 0
M  V30 4906 C 461.305 -1.98642 -0.338143 0
M  V30 4907 O 460.361 -2.29026 -1.06317 0
M  V30 4908 C 461.674 -2.08551 2.16626 0
M  V30 4909 C 463.222 -2.21769 2.20879 0
M  V30 4910 C 463.697 -3.07267 3.39633 0
M  V30 4911 N 465.188 -3.14855 3.39736 0
M  V30 4912 C 465.923 -3.81274 4.28273 0
M  V30 4913 N 465.419 -4.497 5.27012 0
M  V30 4914 N 467.212 -3.7794 4.16074 0
M  V30 4915 H 459.363 -0.518089 2.05984 0
M  V30 4916 H 461.626 -0.291368 0.902113 0
M  V30 4917 H 461.332 -1.62847 3.11727 0
M  V30 4918 H 461.206 -3.09303 2.15897 0
M  V30 4919 H 463.593 -2.66691 1.26332 0
M  V30 4920 H 463.674 -1.20478 2.25652 0
M  V30 4921 H 463.318 -2.63047 4.34475 0
M  V30 4922 H 463.248 -4.08678 3.321 0
M  V30 4923 H 465.739 -2.66147 2.6828 0
M  V30 4924 H 466.052 -4.98092 5.90867 0
M  V30 4925 H 464.397 -4.48479 5.30935 0
M  V30 4926 H 467.588 -3.23638 3.38195 0
M  V30 4927 H 467.761 -4.29424 4.85282 0
M  V30 4928 N 461.167 -1.02423 -1.1978 0
M  V30 4929 C 462.397 -0.736387 -1.93031 0
M  V30 4930 C 462.805 0.708023 -1.75453 0
M  V30 4931 O 462.148 1.4927 -1.07071 0
M  V30 4932 C 462.21 -1.00194 -3.45255 0
M  V30 4933 C 461.874 -2.43698 -3.86601 0
M  V30 4934 C 462.871 -3.41814 -3.91738 0
M  V30 4935 C 460.556 -2.77975 -4.18372 0
M  V30 4936 C 462.55 -4.72265 -4.28071 0
M  V30 4937 C 460.237 -4.08636 -4.54378 0
M  V30 4938 C 461.235 -5.05592 -4.59201 0
M  V30 4939 O 460.923 -6.33914 -4.94376 0
M  V30 4940 H 460.655 -0.269116 -0.620123 0
M  V30 4941 H 463.209 -1.37043 -1.52998 0
M  V30 4942 H 461.439 -0.310747 -3.85449 0
M  V30 4943 H 463.128 -0.704488 -3.9974 0
M  V30 4944 H 463.894 -3.16671 -3.67348 0
M  V30 4945 H 459.773 -2.0319 -4.13805 0
M  V30 4946 H 463.317 -5.4794 -4.3175 0
M  V30 4947 H 459.214 -4.33556 -4.78226 0
M  V30 4948 H 459.982 -6.38317 -5.12341 0
M  V30 4949 N 462.645 1.35699 -0.801477 0
M  V30 4950 C 463.894 1.98165 -0.375979 0
M  V30 4951 C 464.207 1.64306 1.06127 0
M  V30 4952 O 465.413 2.20097 1.58964 0
M  V30 4953 C 463.869 3.54497 -0.621305 0
M  V30 4954 C 463.477 3.9727 -2.07076 0
M  V30 4955 C 465.221 4.23697 -0.26091 0
M  V30 4956 C 463.128 5.46427 -2.26211 0
M  V30 4957 H 462.058 0.741478 -0.136844 0
M  V30 4958 H 464.709 1.54834 -0.984814 0
M  V30 4959 H 463.091 3.95958 0.0574112 0
M  V30 4960 H 464.265 3.66974 -2.78687 0
M  V30 4961 H 462.58 3.40943 -2.39054 0
M  V30 4962 H 465.177 5.33334 -0.381994 0
M  V30 4963 H 465.52 4.0869 0.792344 0
M  V30 4964 H 466.053 3.87639 -0.893339 0
M  V30 4965 H 462.792 5.66396 -3.29963 0
M  V30 4966 H 462.312 5.78309 -1.59119 0
M  V30 4967 H 463.991 6.12819 -2.07513 0
M  V30 4968 N 464.123 0.554532 1.47522 0
M  V30 4969 C 465.053 -0.182974 2.32782 0
M  V30 4970 C 466.034 -0.911377 1.43624 0
M  V30 4971 O 467.219 -0.892366 1.72483 0
M  V30 4972 C 464.349 -1.21513 3.25349 0
M  V30 4973 C 463.303 -0.603355 4.23726 0
M  V30 4974 C 462.629 -1.73995 5.05598 0
M  V30 4975 C 463.929 0.441121 5.20434 0
M  V30 4976 H 465.623 0.52882 2.94693 0
M  V30 4977 H 463.169 0.255759 1.41711 0
M  V30 4978 H 465.122 -1.73922 3.83835 0
M  V30 4979 H 463.846 -1.95683 2.61487 0
M  V30 4980 H 462.505 -0.10059 3.66462 0
M  V30 4981 H 462.153 -2.47063 4.38143 0
M  V30 4982 H 461.853 -1.3364 5.72201 0
M  V30 4983 H 463.377 -2.26735 5.66942 0
M  V30 4984 H 464.791 0.00319931 5.733 0
M  V30 4985 H 463.188 0.763402 5.95224 0
M  V30 4986 H 464.258 1.33799 4.66075 0
M  V30 4987 N 465.601 -1.54893 0.290851 0
M  V30 4988 C 466.847 -2.0023 -0.321867 0
M  V30 4989 C 467.18 -1.179 -1.54316 0
M  V30 4990 O 466.455 -0.25293 -1.92848 0
M  V30 4991 C 466.738 -3.53456 -0.688515 0
M  V30 4992 C 466.591 -4.46532 0.541209 0
M  V30 4993 C 467.91 -4.13057 -1.51895 0
M  V30 4994 H 465.029 -0.727891 -0.115515 0
M  V30 4995 H 467.671 -1.85722 0.400931 0
M  V30 4996 H 465.821 -3.6595 -1.30433 0
M  V30 4997 H 467.493 -4.4596 1.17973 0
M  V30 4998 H 465.736 -4.17545 1.17636 0
M  V30 4999 H 466.407 -5.51475 0.240675 0
M  V30 5000 H 468.883 -4.03937 -0.99872 0
M  V30 5001 H 467.759 -5.20448 -1.74429 0
M  V30 5002 H 468.02 -3.64284 -2.50498 0
M  V30 5003 N 467.08 -0.0183926 -1.57589 0
M  V30 5004 C 468.357 0.700621 -1.82622 0
M  V30 5005 C 468.737 1.90951 -0.90005 0
M  V30 5006 O 468.085 2.28452 0.0469145 0
M  V30 5007 C 468.295 1.08899 -3.31575 0
M  V30 5008 C 469.643 1.48514 -3.9778 0
M  V30 5009 O 470.667 1.18227 -3.36007 0
M  V30 5010 O 469.526 2.04903 -5.06633 0
M  V30 5011 H 466.62 0.342743 -0.752633 0
M  V30 5012 H 469.166 -0.0452548 -1.6964 0
M  V30 5013 H 467.938 0.228113 -3.90635 0
M  V30 5014 H 467.561 1.89338 -3.49624 0
M  V30 5015 N 468.558 1.5553 0.254621 0
M  V30 5016 C 469.807 1.76202 0.981612 0
M  V30 5017 C 470.12 0.580883 1.86776 0
M  V30 5018 O 471.326 0.670448 2.63092 0
M  V30 5019 C 469.782 3.11921 1.79537 0
M  V30 5020 C 469.39 4.37659 0.956991 0
M  V30 5021 C 471.134 3.41936 2.51555 0
M  V30 5022 C 469.041 5.64411 1.76619 0
M  V30 5023 H 467.971 0.656841 0.370237 0
M  V30 5024 H 470.622 1.81969 0.236556 0
M  V30 5025 H 469.004 3.00241 2.58208 0
M  V30 5026 H 470.178 4.60307 0.21315 0
M  V30 5027 H 468.493 4.14922 0.350497 0
M  V30 5028 H 471.09 4.33849 3.12536 0
M  V30 5029 H 471.433 2.62905 3.22779 0
M  V30 5030 H 471.966 3.54797 1.799 0
M  V30 5031 H 468.705 6.46241 1.09783 0
M  V30 5032 H 468.225 5.45877 2.48551 0
M  V30 5033 H 469.904 6.03386 2.33527 0
M  V30 5034 N 470.036 -0.519951 1.48776 0
M  V30 5035 C 471.313 -1.28123 1.47797 0
M  V30 5036 C 471.693 -2.10196 0.195157 0
M  V30 5037 O 471.041 -2.13167 -0.822925 0
M  V30 5038 C 471.251 -2.15413 2.74587 0
M  V30 5039 C 472.599 -2.75225 3.23321 0
M  V30 5040 O 473.623 -2.25694 2.75574 0
M  V30 5041 O 472.482 -3.65346 4.06429 0
M  V30 5042 H 469.576 -0.578793 0.590701 0
M  V30 5043 H 472.122 -0.535779 1.6102 0
M  V30 5044 H 470.894 -1.54617 3.59457 0
M  V30 5045 H 470.517 -2.97186 2.64132 0
M  V30 5046 N 471.514 -1.37532 -0.769588 0
M  V30 5047 C 472.791 -1.23392 -1.51768 0
M  V30 5048 C 473.171 0.17157 -2.10402 0
M  V30 5049 O 472.519 1.17943 -1.95708 0
M  V30 5050 C 472.729 -2.33163 -2.59685 0
M  V30 5051 C 474.077 -2.70809 -3.27028 0
M  V30 5052 O 475.101 -2.32355 -2.69981 0
M  V30 5053 O 473.96 -3.37066 -4.30173 0
M  V30 5054 H 471.054 -0.481617 -0.67229 0
M  V30 5055 H 473.6 -1.49318 -0.806368 0
M  V30 5056 H 472.372 -3.27273 -2.14494 0
M  V30 5057 H 471.995 -2.08713 -3.38415 0
M  V30 5058 N 472.992 0.995999 -1.22138 0
M  V30 5059 C 474.241 1.72928 -1.03821 0
M  V30 5060 C 474.554 1.90872 0.427444 0
M  V30 5061 O 475.76 2.61496 0.730212 0
M  V30 5062 C 474.216 3.11124 -1.80913 0
M  V30 5063 C 473.824 3.01122 -3.31707 0
M  V30 5064 C 475.568 3.8852 -1.71035 0
M  V30 5065 C 473.475 4.34453 -4.01253 0
M  V30 5066 H 472.405 0.648376 -0.384869 0
M  V30 5067 H 475.056 1.11213 -1.45959 0
M  V30 5068 H 473.438 3.73503 -1.31573 0
M  V30 5069 H 474.612 2.47926 -3.88419 0
M  V30 5070 H 472.927 2.3721 -3.42228 0
M  V30 5071 H 475.524 4.872 -2.20318 0
M  V30 5072 H 475.867 4.1087 -0.670196 0
M  V30 5073 H 476.4 3.32812 -2.17902 0
M  V30 5074 H 473.139 4.17303 -5.05508 0
M  V30 5075 H 472.659 4.87574 -3.49331 0
M  V30 5076 H 474.338 5.03215 -4.06674 0
M  V30 5077 N 474.47 1.03057 1.19235 0
M  V30 5078 C 475.717 0.728019 1.88961 0
M  V30 5079 C 476.045 -0.743515 1.79728 0
M  V30 5080 O 475.3 -1.55729 1.1852 0
M  V30 5081 C 475.599 1.1268 3.39172 0
M  V30 5082 C 475.265 2.5969 3.68608 0
M  V30 5083 C 473.927 2.99854 3.76352 0
M  V30 5084 C 476.279 3.54793 3.81801 0
M  V30 5085 C 473.607 4.34031 3.94758 0
M  V30 5086 C 475.959 4.88675 4.0172 0
M  V30 5087 C 474.623 5.28526 4.07697 0
M  V30 5088 H 473.893 0.266401 0.691456 0
M  V30 5089 H 476.54 1.29373 1.41191 0
M  V30 5090 H 474.845 0.479722 3.88852 0
M  V30 5091 H 476.542 0.870203 3.91444 0
M  V30 5092 H 473.132 2.27575 3.63191 0
M  V30 5093 H 477.316 3.24914 3.7516 0
M  V30 5094 H 472.572 4.6444 3.97625 0
M  V30 5095 H 476.746 5.6228 4.1087 0
M  V30 5096 H 474.373 6.32506 4.21712 0
M  V30 5097 N 475.948 -1.35272 0.808662 0
M  V30 5098 C 477.194 -1.99003 0.390581 0
M  V30 5099 C 477.527 -1.63999 -1.0401 0
M  V30 5100 O 476.802 -0.904368 -1.72196 0
M  V30 5101 C 477.085 -3.55454 0.576566 0
M  V30 5102 C 476.938 -4.00249 2.05233 0
M  V30 5103 C 478.257 -4.401 0.00354277 0
M  V30 5104 H 475.376 -0.722917 0.143388 0
M  V30 5105 H 478.018 -1.6039 1.01858 0
M  V30 5106 H 476.168 -3.88477 0.0419766 0
M  V30 5107 H 477.84 -3.77626 2.64946 0
M  V30 5108 H 476.083 -3.51082 2.54801 0
M  V30 5109 H 476.754 -5.0911 2.13333 0
M  V30 5110 H 479.23 -4.13548 0.460117 0
M  V30 5111 H 478.106 -5.48656 0.163575 0
M  V30 5112 H 478.367 -4.28444 -1.09032 0
M  V30 5113 N 477.426 -0.562348 -1.47226 0
M  V30 5114 C 478.674 -0.0401371 -2.0206 0
M  V30 5115 C 478.995 1.3165 -1.43852 0
M  V30 5116 O 478.265 1.85976 -0.615599 0
M  V30 5117 H 476.845 -0.0118479 -0.746906 0
M  V30 5118 H 479.507 -0.73352 -1.8057 0
M  V30 5119 H 478.603 0.0441254 -3.12069 0
M  V30 5120 N 478.904 1.54736 -0.299062 0
M  V30 5121 C 479.851 2.23448 0.577899 0
M  V30 5122 C 480.821 1.21637 1.13109 0
M  V30 5123 O 482.006 1.50252 1.17597 0
M  V30 5124 C 479.146 2.9774 1.74484 0
M  V30 5125 C 478.259 4.1432 1.22323 0
M  V30 5126 C 477.394 4.76199 2.35388 0
M  V30 5127 C 476.433 5.84927 1.80351 0
M  V30 5128 N 475.57 6.4077 2.86982 0
M  V30 5129 H 480.41 2.97996 -0.0146545 0
M  V30 5130 H 477.947 1.47088 -0.0190013 0
M  V30 5131 H 479.905 3.39045 2.43114 0
M  V30 5132 H 478.535 2.25572 2.30905 0
M  V30 5133 H 477.587 3.7797 0.429249 0
M  V30 5134 H 478.899 4.92659 0.780309 0
M  V30 5135 H 478.053 5.20346 3.11969 0
M  V30 5136 H 476.792 3.97188 2.83006 0
M  V30 5137 H 475.797 5.40207 1.02259 0
M  V30 5138 H 477.022 6.65821 1.3364 0
M  V30 5139 H 474.968 5.64643 3.33938 0
M  V30 5140 H 474.885 7.1445 2.4718 0
M  V30 5141 H 476.153 6.89574 3.63466 0
M  V30 5142 N 480.382 0.0267497 1.57577 0
M  V30 5143 C 481.292 -0.971633 2.13533 0
M  V30 5144 C 482.308 -1.35868 1.08701 0
M  V30 5145 O 483.484 -1.44058 1.40746 0
M  V30 5146 C 480.549 -2.23622 2.64941 0
M  V30 5147 C 479.61 -1.90982 3.8448 0
M  V30 5148 C 478.843 -3.11411 4.33427 0
M  V30 5149 O 479.066 -4.23992 3.81558 0
M  V30 5150 O 478 -2.93848 5.25297 0
M  V30 5151 H 481.826 -0.525853 2.99113 0
M  V30 5152 H 479.411 -0.193712 1.48139 0
M  V30 5153 H 481.293 -2.97864 2.98086 0
M  V30 5154 H 479.968 -2.67386 1.82446 0
M  V30 5155 H 478.875 -1.14132 3.56265 0
M  V30 5156 H 480.208 -1.52036 4.6813 0
M  V30 5157 N 481.861 -1.55662 -0.24637 0
M  V30 5158 C 483.109 -1.77168 -0.972411 0
M  V30 5159 C 483.43 -0.590827 -1.85834 0
M  V30 5160 O 482.7 0.393365 -1.9191 0
M  V30 5161 H 481.28 -0.653405 -0.362038 0
M  V30 5162 H 483.942 -1.93101 -0.264189 0
M  V30 5163 H 483.038 -2.68335 -1.59382 0
M  V30 5164 N 483.339 0.512053 -1.4905 0
M  V30 5165 C 484.567 1.29116 -1.61669 0
M  V30 5166 C 484.982 1.86655 -0.283787 0
M  V30 5167 O 484.339 1.67293 0.729331 0
M  V30 5168 C 484.39 2.4293 -2.67707 0
M  V30 5169 O 484.111 1.87758 -3.95826 0
M  V30 5170 C 485.612 3.34476 -2.90931 0
M  V30 5171 H 482.832 0.392009 -0.544583 0
M  V30 5172 H 485.376 0.615881 -1.95006 0
M  V30 5173 H 483.531 3.06308 -2.37179 0
M  V30 5174 H 483.945 2.62393 -4.54148 0
M  V30 5175 H 485.419 4.10642 -3.68886 0
M  V30 5176 H 485.896 3.90801 -2.00427 0
M  V30 5177 H 486.502 2.76874 -3.22832 0
M  V30 5178 N 484.817 1.37938 0.762283 0
M  V30 5179 C 486.233 1.18945 1.06415 0
M  V30 5180 C 486.433 0.0321163 2.01474 0
M  V30 5181 O 485.489 -0.624844 2.44647 0
M  V30 5182 C 486.802 2.51218 1.65258 0
M  V30 5183 C 488.35 2.57824 1.7747 0
M  V30 5184 C 488.825 3.90251 2.39725 0
M  V30 5185 N 490.316 3.91744 2.47166 0
M  V30 5186 C 491.051 4.90966 2.96209 0
M  V30 5187 N 490.547 6.00585 3.45354 0
M  V30 5188 N 492.34 4.78363 2.9517 0
M  V30 5189 H 484.491 2.11994 0.131301 0
M  V30 5190 H 486.754 0.940262 0.120879 0
M  V30 5191 H 486.46 3.36317 1.02878 0
M  V30 5192 H 486.334 2.68989 2.64433 0
M  V30 5193 H 488.721 1.73126 2.3898 0
M  V30 5194 H 488.802 2.43928 0.770241 0
M  V30 5195 H 488.446 4.75368 1.78852 0
M  V30 5196 H 488.376 4.01454 3.40796 0
M  V30 5197 H 490.867 3.12563 2.12397 0
M  V30 5198 H 491.18 6.72236 3.81207 0
M  V30 5199 H 489.525 6.04217 3.43434 0
M  V30 5200 H 492.716 3.91841 2.56082 0
M  V30 5201 H 492.889 5.55843 3.33081 0
M  V30 5202 N 486.295 -0.989507 1.22664 0
M  V30 5203 C 487.228 -2.07805 0.942985 0
M  V30 5204 C 488.206 -1.6219 -0.115356 0
M  V30 5205 O 489.39 -1.88492 0.0169565 0
M  V30 5206 C 486.517 -3.361 0.418898 0
M  V30 5207 C 485.563 -4.00643 1.46244 0
M  V30 5208 S 486.396 -4.41059 3.03689 0
M  V30 5209 C 487.552 -5.7252 2.52927 0
M  V30 5210 H 487.785 -2.31547 1.86476 0
M  V30 5211 H 485.318 -1.12446 1.05808 0
M  V30 5212 H 487.276 -4.10315 0.123114 0
M  V30 5213 H 485.937 -3.10383 -0.481818 0
M  V30 5214 H 485.13 -4.93033 1.04569 0
M  V30 5215 H 484.732 -3.32767 1.7071 0
M  V30 5216 H 487.024 -6.49017 1.94379 0
M  V30 5217 H 487.967 -6.19026 3.4382 0
M  V30 5218 H 488.375 -5.30083 1.94094 0
M  V30 5219 N 487.773 -1.03688 -1.18687 0
M  V30 5220 C 488.72 -0.624624 -2.22187 0
M  V30 5221 C 489.69 0.365636 -1.62026 0
M  V30 5222 O 490.875 0.260481 -1.89014 0
M  V30 5223 C 488.015 0.0101738 -3.45099 0
M  V30 5224 C 487.128 -1.02709 -4.19613 0
M  V30 5225 C 486.263 -0.361213 -5.2997 0
M  V30 5226 C 485.302 -1.38384 -5.96252 0
M  V30 5227 N 484.439 -0.743196 -6.98155 0
M  V30 5228 H 489.279 -1.51176 -2.56807 0
M  V30 5229 H 486.816 -0.75636 -1.26165 0
M  V30 5230 H 488.774 0.395528 -4.15321 0
M  V30 5231 H 487.404 0.860848 -3.1111 0
M  V30 5232 H 486.456 -1.53043 -3.48256 0
M  V30 5233 H 487.768 -1.80398 -4.65036 0
M  V30 5234 H 486.922 0.0785537 -6.06649 0
M  V30 5235 H 485.661 0.447799 -4.8564 0
M  V30 5236 H 484.666 -1.83378 -5.18317 0
M  V30 5237 H 485.891 -2.19448 -6.42666 0
M  V30 5238 H 483.837 0.0455789 -6.55984 0
M  V30 5239 H 483.754 -1.45784 -7.41811 0
M  V30 5240 H 485.022 -0.327698 -7.78811 0
M  V30 5241 N 489.251 1.34841 -0.815825 0
M  V30 5242 C 490.497 1.98793 -0.401129 0
M  V30 5243 C 490.83 1.64548 1.03139 0
M  V30 5244 O 490.105 0.913487 1.71714 0
M  V30 5245 C 490.388 3.55143 -0.595409 0
M  V30 5246 C 490.241 3.99155 -2.07352 0
M  V30 5247 C 491.56 4.40092 -0.0268823 0
M  V30 5248 H 488.679 0.722146 -0.14722 0
M  V30 5249 H 491.321 1.59847 -1.02707 0
M  V30 5250 H 489.471 3.8845 -0.0625779 0
M  V30 5251 H 491.143 3.76216 -2.66945 0
M  V30 5252 H 489.386 3.49726 -2.56659 0
M  V30 5253 H 490.057 5.07971 -2.1603 0
M  V30 5254 H 492.533 4.13298 -0.482042 0
M  V30 5255 H 491.409 5.48562 -0.19267 0
M  V30 5256 H 491.67 4.29016 1.06759 0
M  V30 5257 N 490.729 0.570148 1.46925 0
M  V30 5258 C 491.639 -0.173061 2.33961 0
M  V30 5259 C 492.655 -0.898825 1.48987 0
M  V30 5260 O 493.831 -0.864825 1.81887 0
M  V30 5261 C 490.896 -1.18177 3.25937 0
M  V30 5262 C 489.957 -0.462041 4.26806 0
M  V30 5263 C 489.19 -1.4227 5.14388 0
M  V30 5264 O 489.413 -2.65842 5.04662 0
M  V30 5265 O 488.347 -0.940127 5.94513 0
M  V30 5266 H 492.173 0.541216 2.98839 0
M  V30 5267 H 489.758 0.330647 1.45695 0
M  V30 5268 H 491.64 -1.76372 3.82715 0
M  V30 5269 H 490.315 -1.87774 2.63671 0
M  V30 5270 H 489.222 0.161429 3.73752 0
M  V30 5271 H 490.555 0.192719 4.91823 0
M  V30 5272 N 492.207 -1.54576 0.307264 0
M  V30 5273 C 493.484 -1.92377 -0.353605 0
M  V30 5274 C 493.864 -1.23517 -1.71192 0
M  V30 5275 O 493.212 -0.373101 -2.25433 0
M  V30 5276 C 493.422 -3.45928 -0.462039 0
M  V30 5277 C 494.77 -4.18278 -0.729975 0
M  V30 5278 O 495.794 -3.51997 -0.545605 0
M  V30 5279 O 494.653 -5.3563 -1.08454 0
M  V30 5280 H 491.747 -0.802747 -0.198812 0
M  V30 5281 H 494.293 -1.65929 0.355783 0
M  V30 5282 H 493.065 -3.88187 0.492592 0
M  V30 5283 H 492.688 -3.78431 -1.21965 0
M  V30 5284 N 493.685 -0.035106 -1.57561 0
M  V30 5285 C 494.931 0.64318 -1.92331 0
M  V30 5286 C 495.264 1.71434 -0.912368 0
M  V30 5287 O 494.539 1.94395 0.0640303 0
M  V30 5288 C 494.822 1.25411 -3.37556 0
M  V30 5289 C 494.675 0.192109 -4.4939 0
M  V30 5290 C 495.994 2.17041 -3.82859 0
M  V30 5291 H 493.113 0.232341 -0.699419 0
M  V30 5292 H 495.755 -0.0935889 -1.89769 0
M  V30 5293 H 493.905 1.88205 -3.39869 0
M  V30 5294 H 495.577 -0.438849 -4.59208 0
M  V30 5295 H 493.82 -0.481725 -4.31117 0
M  V30 5296 H 494.491 0.659292 -5.48049 0
M  V30 5297 H 496.967 1.64228 -3.8232 0
M  V30 5298 H 495.843 2.56738 -4.85157 0
M  V30 5299 H 496.104 3.06401 -3.18702 0
M  V30 5300 N 495.163 1.55791 0.238111 0
M  V30 5301 C 496.11 1.9105 1.29493 0
M  V30 5302 C 497.08 0.765733 1.47397 0
M  V30 5303 O 498.265 1.02017 1.61236 0
M  V30 5304 C 495.405 2.21826 2.64362 0
M  V30 5305 C 494.518 3.49153 2.54394 0
M  V30 5306 C 493.653 3.69455 3.81676 0
M  V30 5307 C 492.692 4.90353 3.66361 0
M  V30 5308 N 491.829 5.07131 4.85554 0
M  V30 5309 H 496.669 2.81172 0.987233 0
M  V30 5310 H 494.206 1.39179 0.476203 0
M  V30 5311 H 496.164 2.37675 3.4288 0
M  V30 5312 H 494.794 1.34897 2.93262 0
M  V30 5313 H 493.846 3.41587 1.67399 0
M  V30 5314 H 495.158 4.37818 2.38991 0
M  V30 5315 H 494.312 3.85311 4.68636 0
M  V30 5316 H 493.051 2.7904 3.99985 0
M  V30 5317 H 492.056 4.74464 2.77784 0
M  V30 5318 H 493.281 5.82237 3.49538 0
M  V30 5319 H 491.227 4.19654 5.04209 0
M  V30 5320 H 491.144 5.89899 4.72816 0
M  V30 5321 H 492.412 5.27407 5.73988 0
M  V30 5322 N 496.642 -0.504142 1.49319 0
M  V30 5323 C 497.605 -1.5883 1.65244 0
M  V30 5324 C 498.605 -1.52009 0.524386 0
M  V30 5325 O 499.795 -1.55218 0.79077 0
M  V30 5326 C 496.927 -2.98481 1.64687 0
M  V30 5327 H 498.12 -1.4604 2.61939 0
M  V30 5328 H 495.673 -0.728144 1.38303 0
M  V30 5329 H 496.408 -3.16751 0.695644 0
M  V30 5330 H 496.193 -3.0484 2.46607 0
M  V30 5331 H 497.683 -3.77256 1.79075 0
M  V30 5332 N 498.12 -1.38341 -0.754957 0
M  V30 5333 C 499.05 -1.38176 -1.88227 0
M  V30 5334 C 500.031 -0.247873 -1.68284 0
M  V30 5335 O 501.216 -0.45075 -1.88896 0
M  V30 5336 C 498.346 -1.20471 -3.25736 0
M  V30 5337 C 497.3 -2.3105 -3.60278 0
M  V30 5338 C 496.626 -1.98452 -4.96509 0
M  V30 5339 C 497.926 -3.73305 -3.65295 0
M  V30 5340 H 499.62 -2.32512 -1.88622 0
M  V30 5341 H 497.166 -1.1192 -0.906082 0
M  V30 5342 H 499.119 -1.18982 -4.04254 0
M  V30 5343 H 497.843 -0.225965 -3.25817 0
M  V30 5344 H 496.502 -2.31723 -2.84078 0
M  V30 5345 H 496.15 -0.990641 -4.93148 0
M  V30 5346 H 495.85 -2.7251 -5.20588 0
M  V30 5347 H 497.374 -1.98578 -5.77407 0
M  V30 5348 H 498.788 -3.7467 -4.3393 0
M  V30 5349 H 497.185 -4.46557 -4.00883 0
M  V30 5350 H 498.255 -4.05719 -2.65556 0
M  V30 5351 N 499.598 0.982988 -1.23187 0
M  V30 5352 C 500.845 1.72392 -1.06241 0
M  V30 5353 C 501.173 1.9032 0.40108 0
M  V30 5354 O 500.428 1.45084 1.31336 0
M  V30 5355 C 500.727 3.12736 -1.73006 0
M  V30 5356 C 500.393 3.14695 -3.22921 0
M  V30 5357 C 499.055 3.14937 -3.63824 0
M  V30 5358 C 501.407 3.10211 -4.1883 0
M  V30 5359 C 498.735 3.08408 -4.99101 0
M  V30 5360 C 501.087 3.05224 -5.54095 0
M  V30 5361 C 499.751 3.03787 -5.94365 0
M  V30 5362 H 499.021 0.630829 -0.388762 0
M  V30 5363 H 501.668 1.15053 -1.53085 0
M  V30 5364 H 499.973 3.73446 -1.18514 0
M  V30 5365 H 501.67 3.68828 -1.57374 0
M  V30 5366 H 498.26 3.15262 -2.90358 0
M  V30 5367 H 502.444 3.09166 -3.8824 0
M  V30 5368 H 497.7 3.05646 -5.29519 0
M  V30 5369 H 501.874 3.00712 -6.28128 0
M  V30 5370 H 499.501 2.98483 -6.99151 0
M  V30 5371 N 501.076 1.04316 1.18135 0
M  V30 5372 C 502.353 0.662166 1.84051 0
M  V30 5373 C 502.733 -0.858169 1.9287 0
M  V30 5374 O 502.081 -1.76062 1.45652 0
M  V30 5375 C 502.291 1.3409 3.22212 0
M  V30 5376 C 503.639 1.4733 3.9822 0
M  V30 5377 O 504.663 1.29921 3.31661 0
M  V30 5378 O 503.522 1.75722 5.17479 0
M  V30 5379 H 500.616 0.232005 0.79379 0
M  V30 5380 H 503.162 1.1422 1.25506 0
M  V30 5381 H 501.934 2.37853 3.10711 0
M  V30 5382 H 501.557 0.849649 3.88416 0
M  V30 5383 N 502.554 -1.34406 0.822964 0
M  V30 5384 C 503.782 -2.02508 0.424039 0
M  V30 5385 C 504.197 -1.61975 -0.970022 0
M  V30 5386 O 503.554 -0.825228 -1.62777 0
M  V30 5387 C 503.605 -3.57789 0.516657 0
M  V30 5388 O 503.326 -3.96853 1.85577 0
M  V30 5389 C 504.827 -4.43157 0.112637 0
M  V30 5390 H 502.047 -0.649063 0.170173 0
M  V30 5391 H 504.591 -1.7168 1.11113 0
M  V30 5392 H 502.746 -3.87207 -0.122353 0
M  V30 5393 H 503.16 -4.91538 1.83005 0
M  V30 5394 H 504.634 -5.51527 0.228526 0
M  V30 5395 H 505.111 -4.28939 -0.943837 0
M  V30 5396 H 505.717 -4.19067 0.725449 0
M  V30 5397 N 504.032 -0.577932 -1.46621 0
M  V30 5398 C 504.964 0.195801 -2.28362 0
M  V30 5399 C 505.977 0.859983 -1.38232 0
M  V30 5400 O 507.166 0.730349 -1.62875 0
M  V30 5401 C 504.266 1.29639 -3.13124 0
M  V30 5402 C 503.439 0.725049 -4.31349 0
M  V30 5403 C 502.498 1.71274 -4.97546 0
M  V30 5404 O 501.524 1.25067 -5.5529 0
M  V30 5405 N 502.726 3.04672 -4.94121 0
M  V30 5406 H 505.491 -0.505468 -2.95407 0
M  V30 5407 H 503.052 -0.415381 -1.56481 0
M  V30 5408 H 505.044 1.95631 -3.54275 0
M  V30 5409 H 503.614 1.90059 -2.48186 0
M  V30 5410 H 502.834 -0.112205 -3.9404 0
M  V30 5411 H 504.122 0.323034 -5.07774 0
M  V30 5412 H 503.52 3.4484 -4.48444 0
M  V30 5413 H 502.077 3.66166 -5.39227 0
M  V30 5414 N 505.51 1.54411 -0.315457 0
M  V30 5415 C 506.458 2.25514 0.569771 0
M  V30 5416 C 507.452 1.2663 1.12522 0
M  V30 5417 O 508.658 1.44434 1.07419 0
M  V30 5418 H 505.033 0.724257 0.202376 0
M  V30 5419 H 507.004 2.98354 -0.0522895 0
M  V30 5420 C 505.753 3.02004 1.72305 0
M  V30 5421 H 505.076 3.77906 1.30488 0
M  V30 5422 H 506.516 3.55014 2.31821 0
M  V30 5423 C 504.975 2.09822 2.63583 0
M  V30 5424 O 505.505 1.67574 3.65078 0
M  V30 5425 N 503.711 1.75478 2.31637 0
M  V30 5426 H 503.258 2.10032 1.49145 0
M  V30 5427 H 503.216 1.14079 2.92973 0
M  V30 5428 N 506.988 0.0434614 1.5754 0
M  V30 5429 C 507.898 -0.94893 2.14552 0
M  V30 5430 C 508.914 -1.34707 1.10136 0
M  V30 5431 O 510.09 -1.42557 1.42266 0
M  V30 5432 C 507.155 -2.208 2.67298 0
M  V30 5433 C 506.216 -1.86893 3.86484 0
M  V30 5434 C 505.449 -3.06797 4.36705 0
M  V30 5435 O 505.672 -4.19921 3.86034 0
M  V30 5436 O 504.606 -2.8826 5.28384 0
M  V30 5437 H 508.432 -0.494099 2.99654 0
M  V30 5438 H 506.017 -0.177989 1.48336 0
M  V30 5439 H 507.899 -2.94686 3.01228 0
M  V30 5440 H 506.574 -2.65436 1.85272 0
M  V30 5441 H 505.481 -1.10347 3.57455 0
M  V30 5442 H 506.814 -1.47062 4.69716 0
M  V30 5443 N 508.466 -1.55915 -0.229846 0
M  V30 5444 C 509.396 -1.94754 -1.28815 0
M  V30 5445 C 510.377 -0.814657 -1.49323 0
M  V30 5446 O 511.562 -1.07631 -1.61645 0
M  V30 5447 C 508.692 -2.25705 -2.63959 0
M  V30 5448 C 507.646 -3.41406 -2.5812 0
M  V30 5449 C 506.972 -3.57941 -3.97218 0
M  V30 5450 C 508.272 -4.76616 -2.13623 0
M  V30 5451 H 509.966 -2.83404 -0.965547 0
M  V30 5452 H 507.512 -1.36353 -0.463028 0
M  V30 5453 H 509.465 -2.51467 -3.38146 0
M  V30 5454 H 508.189 -1.339 -2.9789 0
M  V30 5455 H 506.848 -3.1568 -1.86391 0
M  V30 5456 H 506.496 -2.63526 -4.28443 0
M  V30 5457 H 506.196 -4.35757 -3.94195 0
M  V30 5458 H 507.72 -3.86042 -4.73079 0
M  V30 5459 H 509.134 -5.01637 -2.77549 0
M  V30 5460 H 507.531 -5.57655 -2.21677 0
M  V30 5461 H 508.601 -4.7253 -1.08829 0
M  V30 5462 N 509.944 0.496216 -1.49584 0
M  V30 5463 C 511.36 0.827814 -1.36453 0
M  V30 5464 C 511.56 1.97464 -0.401285 0
M  V30 5465 O 510.616 2.51958 0.165296 0
M  V30 5466 C 511.929 1.16352 -2.77277 0
M  V30 5467 C 513.477 1.27145 -2.86013 0
M  V30 5468 C 513.952 1.64042 -4.27615 0
M  V30 5469 N 515.443 1.71082 -4.30448 0
M  V30 5470 C 516.178 2.01085 -5.36984 0
M  V30 5471 N 515.674 2.2928 -6.5376 0
M  V30 5472 N 517.467 2.02376 -5.24405 0
M  V30 5473 H 509.618 -0.259947 -2.10803 0
M  V30 5474 H 511.881 -0.0537163 -0.946477 0
M  V30 5475 H 511.587 0.394153 -3.49484 0
M  V30 5476 H 511.461 2.10582 -3.12946 0
M  V30 5477 H 513.848 2.03152 -2.1404 0
M  V30 5478 H 513.929 0.309542 -2.5392 0
M  V30 5479 H 513.573 0.88583 -5.00115 0
M  V30 5480 H 513.503 2.6134 -4.57175 0
M  V30 5481 H 515.994 1.51434 -3.46232 0
M  V30 5482 H 516.307 2.51376 -7.30774 0
M  V30 5483 H 514.652 2.26726 -6.56978 0
M  V30 5484 H 517.843 1.79829 -4.32179 0
M  V30 5485 H 518.016 2.25425 -6.07526 0
M  V30 5486 N 511.423 1.38739 0.74761 0
M  V30 5487 C 512.386 1.36241 1.84312 0
M  V30 5488 C 513.386 0.261811 1.58654 0
M  V30 5489 O 514.576 0.519031 1.66288 0
M  V30 5490 C 511.708 1.12253 3.21888 0
M  V30 5491 H 512.901 2.33712 1.87933 0
M  V30 5492 H 510.454 1.2412 0.949946 0
M  V30 5493 H 511.189 0.154133 3.23934 0
M  V30 5494 H 510.974 1.91943 3.41907 0
M  V30 5495 H 512.464 1.13215 4.0196 0
M  V30 5496 N 512.901 -0.976442 1.23707 0
M  V30 5497 C 513.851 -2.0544 0.988851 0
M  V30 5498 C 514.835 -1.60762 -0.0665901 0
M  V30 5499 O 516.027 -1.76396 0.14604 0
M  V30 5500 C 513.156 -3.38258 0.586223 0
M  V30 5501 C 512.242 -3.89523 1.67728 0
M  V30 5502 N 512.633 -4.13823 2.90834 0
M  V30 5503 C 510.931 -4.18097 1.55277 0
M  V30 5504 C 511.632 -4.55731 3.61502 0
M  V30 5505 N 510.608 -4.60394 2.8903 0
M  V30 5506 H 514.41 -2.22191 1.92376 0
M  V30 5507 H 511.924 -1.15954 1.13704 0
M  V30 5508 H 513.921 -4.15075 0.389658 0
M  V30 5509 H 512.581 -3.22898 -0.341594 0
M  V30 5510 H 513.592 -4.01529 3.271 0
M  V30 5511 H 510.269 -4.11719 0.692351 0
M  V30 5512 H 511.659 -4.83018 4.67059 0
M  V30 5513 N 514.379 -1.04941 -1.1758 0
M  V30 5514 C 515.628 -0.753124 -1.87112 0
M  V30 5515 C 515.941 0.722507 -1.81767 0
M  V30 5516 O 517.147 1.13265 -2.46746 0
M  V30 5517 C 515.603 -1.29695 -3.35719 0
M  V30 5518 C 515.211 -2.80184 -3.49572 0
M  V30 5519 C 516.955 -1.07759 -4.10595 0
M  V30 5520 C 514.862 -3.2788 -4.92187 0
M  V30 5521 H 513.792 -0.278034 -0.700866 0
M  V30 5522 H 516.443 -1.26637 -1.32798 0
M  V30 5523 H 514.825 -0.711522 -3.89555 0
M  V30 5524 H 515.999 -3.44561 -3.05965 0
M  V30 5525 H 514.314 -3.00632 -2.88113 0
M  V30 5526 H 516.911 -1.40899 -5.15802 0
M  V30 5527 H 517.254 -0.0152302 -4.16297 0
M  V30 5528 H 517.787 -1.62809 -3.62957 0
M  V30 5529 H 514.526 -4.33535 -4.91658 0
M  V30 5530 H 514.046 -2.68245 -5.36475 0
M  V30 5531 H 515.725 -3.22412 -5.60945 0
M  V30 5532 N 515.857 1.33968 -0.830081 0
M  V30 5533 C 517.268 1.80439 -0.479455 0
M  V30 5534 C 517.619 1.68756 1.00079 0
M  V30 5535 O 516.744 1.23171 1.77927 0
M  V30 5536 C 517.339 3.27611 -0.863505 0
M  V30 5537 C 515.898 3.72133 -0.565145 0
M  V30 5538 C 515.045 2.55549 -1.07657 0
M  V30 5539 H 517.996 1.21614 -1.0196 0
M  V30 5540 H 518.017 3.8012 -0.170083 0
M  V30 5541 H 517.529 3.36082 -1.94089 0
M  V30 5542 H 515.63 3.69196 0.502536 0
M  V30 5543 H 515.743 4.65963 -1.11422 0
M  V30 5544 H 514.107 2.49788 -0.497807 0
M  V30 5545 H 514.89 2.66786 -2.16055 0
M  V30 5546 N 517.335 0.585699 1.46312 0
M  V30 5547 C 518.283 -0.158577 2.32059 0
M  V30 5548 C 519.277 -0.881427 1.44662 0
M  V30 5549 O 520.483 -0.799476 1.61271 0
M  V30 5550 H 516.858 -0.0700066 0.748734 0
M  V30 5551 H 518.829 0.583383 2.92642 0
M  V30 5552 C 517.578 -1.15701 3.27885 0
M  V30 5553 H 516.901 -0.610215 3.95116 0
M  V30 5554 H 518.341 -1.64812 3.90657 0
M  V30 5555 C 516.8 -2.21951 2.53455 0
M  V30 5556 O 517.33 -3.29352 2.29978 0
M  V30 5557 N 515.536 -1.9664 2.13965 0
M  V30 5558 H 515.083 -1.09309 2.33258 0
M  V30 5559 H 515.041 -2.6794 1.64485 0
M  V30 5560 N 518.813 -1.54241 0.323641 0
M  V30 5561 C 520.06 -2.0057 -0.27891 0
M  V30 5562 C 520.388 -1.21181 -1.52136 0
M  V30 5563 O 519.643 -0.282043 -1.93657 0
M  V30 5564 C 519.942 -3.5129 -0.658031 0
M  V30 5565 C 519.608 -4.48281 0.485252 0
M  V30 5566 C 518.27 -4.74519 0.799055 0
M  V30 5567 C 520.622 -5.05909 1.25322 0
M  V30 5568 C 517.95 -5.55643 1.88354 0
M  V30 5569 C 520.302 -5.88215 2.32779 0
M  V30 5570 C 518.966 -6.12755 2.64741 0
M  V30 5571 H 518.236 -0.733938 -0.10206 0
M  V30 5572 H 520.883 -1.862 0.447435 0
M  V30 5573 H 519.188 -3.63388 -1.4648 0
M  V30 5574 H 520.885 -3.84578 -1.1358 0
M  V30 5575 H 517.475 -4.27979 0.230593 0
M  V30 5576 H 521.659 -4.8562 1.02404 0
M  V30 5577 H 516.915 -5.72888 2.13564 0
M  V30 5578 H 521.089 -6.31888 2.92729 0
M  V30 5579 H 518.716 -6.75404 3.48904 0
M  V30 5580 N 520.291 -0.0518155 -1.57515 0
M  V30 5581 C 521.519 0.631395 -1.9703 0
M  V30 5582 C 521.934 1.64341 -0.92938 0
M  V30 5583 O 521.291 1.82296 0.0863266 0
M  V30 5584 C 521.342 1.31774 -3.36627 0
M  V30 5585 O 521.063 0.346247 -4.3673 0
M  V30 5586 C 522.564 2.09065 -3.90905 0
M  V30 5587 H 519.784 0.172576 -0.648428 0
M  V30 5588 H 522.328 -0.118306 -2.04158 0
M  V30 5589 H 520.483 2.01867 -3.30649 0
M  V30 5590 H 520.897 0.836226 -5.17791 0
M  V30 5591 H 522.371 2.52508 -4.9086 0
M  V30 5592 H 522.848 2.93908 -3.26366 0
M  V30 5593 H 523.454 1.43882 -4.00223 0
M  V30 5594 N 521.769 1.56035 0.221574 0
M  V30 5595 C 523.016 1.79047 0.94597 0
M  V30 5596 C 523.344 0.62057 1.84334 0
M  V30 5597 O 522.599 -0.395053 1.91671 0
M  V30 5598 C 522.898 3.07813 1.8162 0
M  V30 5599 C 522.564 4.3797 1.07206 0
M  V30 5600 C 521.226 4.73334 0.866508 0
M  V30 5601 C 523.578 5.18326 0.546565 0
M  V30 5602 C 520.906 5.8657 0.123549 0
M  V30 5603 C 523.258 6.32335 -0.18305 0
M  V30 5604 C 521.922 6.66301 -0.399861 0
M  V30 5605 H 521.192 0.655178 0.346155 0
M  V30 5606 H 523.839 1.90299 0.214146 0
M  V30 5607 H 522.144 2.91682 2.61589 0
M  V30 5608 H 523.841 3.2282 2.37884 0
M  V30 5609 H 520.431 4.10202 1.24226 0
M  V30 5610 H 524.615 4.9144 0.692847 0
M  V30 5611 H 519.871 6.11376 -0.0546591 0
M  V30 5612 H 524.045 6.9383 -0.59775 0
M  V30 5613 H 521.672 7.53889 -0.977489 0
M  V30 5614 N 523.247 -0.488276 1.49845 0
M  V30 5615 C 524.195 -1.60917 1.67954 0
M  V30 5616 C 525.189 -1.6038 0.54539 0
M  V30 5617 O 526.395 -1.64736 0.7254 0
M  V30 5618 H 522.77 -0.533658 0.529824 0
M  V30 5619 H 524.741 -1.428 2.62013 0
M  V30 5620 C 523.49 -2.98975 1.77509 0
M  V30 5621 H 522.813 -3.00099 2.6416 0
M  V30 5622 H 524.253 -3.76906 1.9421 0
M  V30 5623 C 522.712 -3.3282 0.522745 0
M  V30 5624 O 523.242 -4.00208 -0.345866 0
M  V30 5625 N 521.448 -2.8808 0.381882 0
M  V30 5626 H 520.995 -2.33415 1.08974 0
M  V30 5627 H 520.953 -3.11091 -0.454929 0
M  V30 5628 N 524.725 -1.39134 -0.740242 0
M  V30 5629 C 525.655 -1.40165 -1.86751 0
M  V30 5630 C 526.636 -0.265708 -1.68012 0
M  V30 5631 O 527.821 -0.47076 -1.88408 0
M  V30 5632 C 524.951 -1.2392 -3.2444 0
M  V30 5633 C 523.905 -2.34858 -3.57807 0
M  V30 5634 C 523.231 -2.03707 -4.94376 0
M  V30 5635 C 524.531 -3.77159 -3.61315 0
M  V30 5636 H 526.225 -2.345 -1.86145 0
M  V30 5637 H 523.771 -1.12875 -0.89416 0
M  V30 5638 H 525.724 -1.23263 -4.02969 0
M  V30 5639 H 524.448 -0.26051 -3.25559 0
M  V30 5640 H 523.107 -2.34723 -2.81604 0
M  V30 5641 H 522.755 -1.04289 -4.9207 0
M  V30 5642 H 522.455 -2.78016 -5.17669 0
M  V30 5643 H 523.979 -2.04691 -5.75268 0
M  V30 5644 H 525.393 -3.79252 -4.29931 0
M  V30 5645 H 523.79 -4.50784 -3.96124 0
M  V30 5646 H 524.86 -4.08513 -2.61238 0
M  V30 5647 N 526.204 0.969867 -1.24223 0
M  V30 5648 C 527.452 1.70918 -1.0785 0
M  V30 5649 C 527.773 1.91186 0.383763 0
M  V30 5650 O 527.043 1.48806 1.27411 0
M  V30 5651 H 525.623 0.633334 -0.396103 0
M  V30 5652 H 528.285 1.16689 -1.56108 0
M  V30 5653 H 527.381 2.69455 -1.57482 0
M  V30 5654 N 527.682 1.05563 1.17022 0
M  V30 5655 C 528.912 0.787307 1.91011 0
M  V30 5656 C 529.32 -0.661256 1.77268 0
M  V30 5657 O 528.663 -1.46379 1.10991 0
M  V30 5658 C 528.725 1.09313 3.42478 0
M  V30 5659 C 528.389 2.53863 3.80004 0
M  V30 5660 C 529.386 3.52081 3.82538 0
M  V30 5661 C 527.071 2.88969 4.10855 0
M  V30 5662 C 529.065 4.83449 4.15399 0
M  V30 5663 C 526.752 4.2054 4.43384 0
M  V30 5664 C 527.75 5.17589 4.45635 0
M  V30 5665 O 527.438 6.46799 4.77395 0
M  V30 5666 H 527.17 0.285463 0.61277 0
M  V30 5667 H 529.724 1.41051 1.49311 0
M  V30 5668 H 527.954 0.412833 3.8449 0
M  V30 5669 H 529.643 0.810224 3.97731 0
M  V30 5670 H 530.409 3.26299 3.58823 0
M  V30 5671 H 526.288 2.1409 4.08272 0
M  V30 5672 H 529.832 5.59194 4.1707 0
M  V30 5673 H 525.729 4.46083 4.66563 0
M  V30 5674 H 526.497 6.51677 4.95237 0
M  V30 5675 N 529.16 -1.33526 0.837174 0
M  V30 5676 C 530.385 -2.0258 0.444545 0
M  V30 5677 C 530.81 -1.6258 -0.946006 0
M  V30 5678 O 530.168 -0.817548 -1.6182 0
M  V30 5679 C 530.216 -3.5605 0.571006 0
M  V30 5680 O 529.32 -4.10422 -0.403431 0
M  V30 5681 H 528.661 -0.638866 0.180958 0
M  V30 5682 H 531.191 -1.70462 1.13154 0
M  V30 5683 H 531.201 -4.05488 0.452024 0
M  V30 5684 H 529.876 -3.84509 1.58512 0
M  V30 5685 H 528.453 -3.72113 -0.242147 0
M  V30 5686 N 530.638 -0.59345 -1.46 0
M  V30 5687 C 531.886 -0.082988 -2.0193 0
M  V30 5688 C 532.207 1.28569 -1.46612 0
M  V30 5689 O 531.477 1.84629 -0.654909 0
M  V30 5690 H 530.057 -0.0276882 -0.746487 0
M  V30 5691 H 532.719 -0.771657 -1.78973 0
M  V30 5692 H 531.815 -0.022079 -3.12092 0
M  V30 5693 N 532.116 1.54067 -0.331816 0
M  V30 5694 C 533.063 2.24623 0.530372 0
M  V30 5695 C 534.033 1.24009 1.10503 0
M  V30 5696 O 535.218 1.52712 1.14384 0
M  V30 5697 C 532.358 3.01374 1.68129 0
M  V30 5698 C 531.471 4.16821 1.13507 0
M  V30 5699 C 530.606 4.81085 2.25234 0
M  V30 5700 C 529.645 5.88621 1.67903 0
M  V30 5701 N 528.782 6.46713 2.73326 0
M  V30 5702 H 533.622 2.97898 -0.0778607 0
M  V30 5703 H 531.159 1.47014 -0.0501965 0
M  V30 5704 H 533.117 3.44125 2.35868 0
M  V30 5705 H 531.747 2.30419 2.26069 0
M  V30 5706 H 530.799 3.78796 0.348979 0
M  V30 5707 H 532.111 4.94203 0.675633 0
M  V30 5708 H 531.265 5.26846 3.00862 0
M  V30 5709 H 530.004 4.03102 2.74518 0
M  V30 5710 H 529.009 5.42254 0.907773 0
M  V30 5711 H 530.234 6.68506 1.19487 0
M  V30 5712 H 528.18 5.71599 3.21886 0
M  V30 5713 H 528.097 7.19532 2.3197 0
M  V30 5714 H 529.365 6.97129 3.48758 0
M  V30 5715 N 533.594 0.0601682 1.57485 0
M  V30 5716 C 534.841 -0.611594 1.93043 0
M  V30 5717 C 535.169 -1.70317 0.939274 0
M  V30 5718 O 534.424 -1.95644 -0.046996 0
M  V30 5719 C 534.723 -1.23831 3.35262 0
M  V30 5720 C 534.389 -0.274037 4.50066 0
M  V30 5721 C 533.051 -0.00872394 4.81199 0
M  V30 5722 C 535.403 0.386308 5.19766 0
M  V30 5723 C 532.731 0.924218 5.79375 0
M  V30 5724 C 535.083 1.3075 6.1894 0
M  V30 5725 C 533.747 1.58139 6.48497 0
M  V30 5726 H 533.017 -0.223798 0.706396 0
M  V30 5727 H 535.664 0.128566 1.91068 0
M  V30 5728 H 533.969 -2.05394 3.33647 0
M  V30 5729 H 535.666 -1.76517 3.60059 0
M  V30 5730 H 532.256 -0.491008 4.25778 0
M  V30 5731 H 536.44 0.194436 4.95919 0
M  V30 5732 H 531.696 1.1438 6.00606 0
M  V30 5733 H 535.87 1.82519 6.72056 0
M  V30 5734 H 533.497 2.30593 7.24383 0
M  V30 5735 N 535.072 -1.5615 -0.213296 0
M  V30 5736 C 536.319 -1.79546 -0.936462 0
M  V30 5737 C 536.647 -0.630337 -1.84003 0
M  V30 5738 O 535.902 0.384883 -1.91878 0
M  V30 5739 C 536.201 -3.08772 -1.79985 0
M  V30 5740 C 535.867 -4.38532 -1.04882 0
M  V30 5741 C 534.529 -4.73787 -0.841393 0
M  V30 5742 C 536.881 -5.18609 -0.51907 0
M  V30 5743 C 534.209 -5.86627 -0.0924403 0
M  V30 5744 C 536.561 -6.32229 0.216581 0
M  V30 5745 C 535.225 -6.6608 0.435191 0
M  V30 5746 H 534.495 -0.657004 -0.342676 0
M  V30 5747 H 537.142 -1.9041 -0.204051 0
M  V30 5748 H 535.447 -2.93065 -2.60038 0
M  V30 5749 H 537.144 -3.24077 -2.36168 0
M  V30 5750 H 533.734 -4.10855 -1.22048 0
M  V30 5751 H 537.918 -4.91801 -0.666775 0
M  V30 5752 H 533.174 -6.11338 0.087081 0
M  V30 5753 H 537.348 -6.93503 0.634538 0
M  V30 5754 H 534.975 -7.5336 1.01746 0
M  V30 5755 N 536.55 0.480323 -1.50102 0
M  V30 5756 C 537.5 1.57685 -1.6468 0
M  V30 5757 C 538.484 1.52878 -0.5017 0
M  V30 5758 O 539.676 1.60058 -0.755668 0
M  V30 5759 C 536.805 2.96185 -1.73578 0
M  V30 5760 C 535.891 3.0591 -2.93734 0
M  V30 5761 N 536.282 2.85471 -4.1754 0
M  V30 5762 C 534.58 3.37036 -2.92101 0
M  V30 5763 C 535.281 2.99921 -4.9842 0
M  V30 5764 N 534.257 3.29715 -4.32191 0
M  V30 5765 H 538.059 1.40568 -2.58104 0
M  V30 5766 H 535.573 0.686874 -1.47159 0
M  V30 5767 H 537.57 3.75015 -1.82124 0
M  V30 5768 H 536.23 3.14356 -0.813057 0
M  V30 5769 H 537.241 2.61235 -4.47188 0
M  V30 5770 H 533.918 3.61253 -2.09291 0
M  V30 5771 H 535.308 2.88436 -6.06839 0
M  V30 5772 N 538.028 1.39524 0.732853 0
M  V30 5773 C 539.256 1.40143 1.52209 0
M  V30 5774 C 539.671 -0.00348836 1.888 0
M  V30 5775 O 539.028 -0.975357 1.5425 0
M  V30 5776 C 539.079 2.27632 2.8083 0
M  V30 5777 O 538.8 3.62654 2.45792 0
M  V30 5778 C 540.301 2.36658 3.74844 0
M  V30 5779 H 537.521 0.478604 0.470297 0
M  V30 5780 H 540.065 1.83366 0.905388 0
M  V30 5781 H 538.22 1.87818 3.38826 0
M  V30 5782 H 538.634 4.08941 3.28431 0
M  V30 5783 H 540.108 3.02118 4.61984 0
M  V30 5784 H 540.585 1.38638 4.16745 0
M  V30 5785 H 541.191 2.76951 3.22766 0
M  V30 5786 N 539.506 -0.963266 1.24736 0
M  V30 5787 C 540.754 -1.70343 1.08755 0
M  V30 5788 C 541.075 -1.91387 -0.373619 0
M  V30 5789 O 540.345 -1.4948 -1.2662 0
M  V30 5790 H 538.925 -0.631224 0.399456 0
M  V30 5791 H 541.587 -1.15859 1.56725 0
M  V30 5792 H 540.683 -2.68616 1.58909 0
M  V30 5793 N 540.985 -1.06182 -1.16461 0
M  V30 5794 C 542.213 -0.798583 -1.90867 0
M  V30 5795 C 542.628 0.646921 -1.77371 0
M  V30 5796 O 541.985 1.44279 -1.11758 0
M  V30 5797 C 542.036 -1.18258 -3.4161 0
M  V30 5798 O 541.757 -2.57135 -3.54701 0
M  V30 5799 C 543.258 -0.946917 -4.33069 0
M  V30 5800 H 540.478 -0.289603 -0.605286 0
M  V30 5801 H 543.022 -1.41515 -1.47627 0
M  V30 5802 H 541.177 -0.610562 -3.82558 0
M  V30 5803 H 541.591 -2.72477 -4.4817 0
M  V30 5804 H 543.065 -1.26523 -5.37304 0
M  V30 5805 H 543.542 0.117406 -4.39043 0
M  V30 5806 H 544.148 -1.50326 -3.97847 0
M  V30 5807 N 542.463 1.3308 -0.844243 0
M  V30 5808 C 543.411 2.31028 -0.269954 0
M  V30 5809 C 544.405 1.58381 0.600997 0
M  V30 5810 O 545.611 1.73203 0.48996 0
M  V30 5811 H 541.986 0.748866 -0.0685782 0
M  V30 5812 H 543.957 2.76967 -1.11049 0
M  V30 5813 C 542.706 3.43549 0.535676 0
M  V30 5814 H 542.029 3.99604 -0.125202 0
M  V30 5815 H 543.469 4.14267 0.903262 0
M  V30 5816 C 541.928 2.8988 1.71672 0
M  V30 5817 O 542.458 2.86511 2.81557 0
M  V30 5818 N 540.664 2.46416 1.54037 0
M  V30 5819 H 540.211 2.49356 0.64649 0
M  V30 5820 H 540.169 2.1086 2.33207 0
M  V30 5821 N 543.941 0.601185 1.45683 0
M  V30 5822 C 544.904 -0.111398 2.28929 0
M  V30 5823 C 545.904 -0.801246 1.39416 0
M  V30 5824 O 547.094 -0.650383 1.61603 0
M  V30 5825 C 544.226 -1.16773 3.20276 0
M  V30 5826 H 545.419 0.620412 2.93413 0
M  V30 5827 H 542.972 0.359946 1.52099 0
M  V30 5828 H 543.707 -1.93051 2.60579 0
M  V30 5829 H 543.492 -0.677358 3.86205 0
M  V30 5830 H 544.982 -1.66698 3.82886 0
M  V30 5831 N 545.419 -1.53889 0.339982 0
M  V30 5832 C 546.329 -2.28604 -0.526988 0
M  V30 5833 C 547.345 -1.33578 -1.11503 0
M  V30 5834 O 548.521 -1.66612 -1.13148 0
M  V30 5835 C 545.586 -3.04164 -1.66389 0
M  V30 5836 C 544.647 -4.14809 -1.10599 0
M  V30 5837 C 543.88 -4.86756 -2.18871 0
M  V30 5838 O 544.103 -4.58343 -3.39526 0
M  V30 5839 O 543.037 -5.73289 -1.83366 0
M  V30 5840 H 546.863 -3.03594 0.0802707 0
M  V30 5841 H 544.448 -1.4903 0.105141 0
M  V30 5842 H 546.33 -3.51427 -2.32544 0
M  V30 5843 H 545.005 -2.32035 -2.25703 0
M  V30 5844 H 543.912 -3.71857 -0.409067 0
M  V30 5845 H 545.245 -4.89029 -0.557771 0
M  V30 5846 N 546.897 -0.0685191 -1.57451 0
M  V30 5847 C 548.174 0.642167 -1.84758 0
M  V30 5848 C 548.554 1.87991 -0.960344 0
M  V30 5849 O 547.902 2.28485 -0.0257894 0
M  V30 5850 C 548.112 0.982946 -3.34872 0
M  V30 5851 C 549.46 1.35784 -4.02303 0
M  V30 5852 O 550.484 1.07477 -3.39598 0
M  V30 5853 O 549.343 1.88681 -5.12895 0
M  V30 5854 H 546.437 0.318625 -0.763156 0
M  V30 5855 H 548.983 -0.0992015 -1.6941 0
M  V30 5856 H 547.755 0.10372 -3.91163 0
M  V30 5857 H 547.378 1.78119 -3.55471 0
M  V30 5858 N 548.375 1.56261 0.205012 0
M  V30 5859 C 549.338 1.92908 1.23771 0
M  V30 5860 C 550.338 0.809208 1.38955 0
M  V30 5861 O 551.528 1.07676 1.36936 0
M  V30 5862 C 548.66 2.19442 2.60879 0
M  V30 5863 H 549.853 2.85287 0.924728 0
M  V30 5864 H 547.406 1.49798 0.446125 0
M  V30 5865 H 548.141 1.29668 2.97248 0
M  V30 5866 H 547.926 3.0104 2.51232 0
M  V30 5867 H 549.416 2.48833 3.35368 0
M  V30 5868 N 549.853 -0.472356 1.50355 0
M  V30 5869 C 551.101 -1.22211 1.60962 0
M  V30 5870 C 551.422 -1.92497 0.311439 0
M  V30 5871 O 550.692 -1.8405 -0.671002 0
M  V30 5872 H 549.272 -0.454092 0.593135 0
M  V30 5873 H 551.934 -0.544977 1.87126 0
M  V30 5874 H 551.03 -1.9707 2.42012 0
M  V30 5875 N 551.331 -1.39911 -0.725443 0
M  V30 5876 C 552.608 -1.28158 -1.47766 0
M  V30 5877 C 552.988 0.104545 -2.10841 0
M  V30 5878 O 552.336 1.11657 -1.99361 0
M  V30 5879 C 552.546 -2.41306 -2.52135 0
M  V30 5880 C 553.894 -2.81076 -3.18247 0
M  V30 5881 O 554.918 -2.40827 -2.62452 0
M  V30 5882 O 553.777 -3.50581 -4.19231 0
M  V30 5883 H 550.871 -0.502761 -0.656628 0
M  V30 5884 H 553.417 -1.51808 -0.758456 0
M  V30 5885 H 552.189 -3.33932 -2.03974 0
M  V30 5886 H 551.812 -2.19374 -3.31603 0
M  V30 5887 N 552.809 0.956637 -1.25245 0
M  V30 5888 C 554.086 1.67716 -1.00651 0
M  V30 5889 C 554.466 2.0585 0.467866 0
M  V30 5890 O 553.814 1.77029 1.44475 0
M  V30 5891 C 554.024 2.90093 -1.94028 0
M  V30 5892 C 555.372 3.6209 -2.21756 0
M  V30 5893 O 556.396 3.00171 -1.9177 0
M  V30 5894 O 555.255 4.7358 -2.72735 0
M  V30 5895 H 552.349 0.733731 -0.381533 0
M  V30 5896 H 554.895 1.00974 -1.3639 0
M  V30 5897 H 553.667 2.58689 -2.93591 0
M  V30 5898 H 553.29 3.64566 -1.58674 0
M  V30 5899 N 554.287 1.06798 1.15896 0
M  V30 5900 C 555.217 0.704677 2.22613 0
M  V30 5901 C 556.198 -0.305252 1.67339 0
M  V30 5902 O 557.383 -0.179247 1.93371 0
M  V30 5903 C 554.513 0.0957325 3.47168 0
M  V30 5904 C 553.467 1.0322 4.15367 0
M  V30 5905 C 552.793 0.286293 5.33933 0
M  V30 5906 C 554.093 2.36341 4.65768 0
M  V30 5907 H 555.787 1.59688 2.53259 0
M  V30 5908 H 553.333 0.769257 1.21731 0
M  V30 5909 H 555.286 -0.170333 4.21056 0
M  V30 5910 H 554.01 -0.831516 3.15838 0
M  V30 5911 H 552.669 1.28309 3.43413 0
M  V30 5912 H 552.317 -0.644237 4.98857 0
M  V30 5913 H 552.017 0.910436 5.80504 0
M  V30 5914 H 553.541 0.0278938 6.10594 0
M  V30 5915 H 554.955 2.1561 5.31211 0
M  V30 5916 H 553.352 2.94299 5.2298 0
M  V30 5917 H 554.422 2.99047 3.81705 0
M  V30 5918 N 555.766 -1.3263 0.851289 0
M  V30 5919 C 556.696 -2.31449 0.308771 0
M  V30 5920 C 557.677 -1.59531 -0.590255 0
M  V30 5921 O 558.862 -1.87351 -0.511205 0
M  V30 5922 C 555.992 -3.43586 -0.506548 0
M  V30 5923 C 554.946 -4.26963 0.297753 0
M  V30 5924 C 554.272 -5.30831 -0.642094 0
M  V30 5925 C 555.572 -4.99643 1.52166 0
M  V30 5926 H 557.266 -2.77074 1.13447 0
M  V30 5927 H 554.812 -1.33207 0.546971 0
M  V30 5928 H 556.765 -4.11754 -0.896474 0
M  V30 5929 H 555.489 -2.96681 -1.36558 0
M  V30 5930 H 554.148 -3.60437 0.669391 0
M  V30 5931 H 553.796 -4.8018 -1.49788 0
M  V30 5932 H 553.496 -5.87501 -0.107968 0
M  V30 5933 H 555.02 -6.01862 -1.02927 0
M  V30 5934 H 556.434 -5.6051 1.20421 0
M  V30 5935 H 554.831 -5.66022 1.99347 0
M  V30 5936 H 555.901 -4.27701 2.28474 0
M  V30 5937 N 557.244 -0.608902 -1.45362 0
M  V30 5938 C 558.174 0.0964526 -2.33301 0
M  V30 5939 C 559.155 0.857444 -1.46908 0
M  V30 5940 O 560.34 0.827735 -1.75676 0
M  V30 5941 C 557.47 1.09354 -3.29635 0
M  V30 5942 C 556.424 0.445676 -4.25673 0
M  V30 5943 C 555.75 1.5511 -5.11708 0
M  V30 5944 C 557.05 -0.633972 -5.18438 0
M  V30 5945 H 558.744 -0.637829 -2.92527 0
M  V30 5946 H 556.29 -0.308178 -1.40664 0
M  V30 5947 H 558.243 1.59556 -3.90025 0
M  V30 5948 H 556.967 1.85843 -2.6857 0
M  V30 5949 H 555.626 -0.0354897 -3.66583 0
M  V30 5950 H 555.274 2.30631 -4.4701 0
M  V30 5951 H 554.974 1.12311 -5.76767 0
M  V30 5952 H 556.498 2.05537 -5.74967 0
M  V30 5953 H 557.912 -0.215974 -5.72893 0
M  V30 5954 H 556.309 -0.983789 -5.91981 0
M  V30 5955 H 557.379 -1.51005 -4.60788 0
M  V30 5956 N 558.722 1.53707 -0.348139 0
M  V30 5957 C 559.947 2.05877 0.250883 0
M  V30 5958 C 560.372 1.22115 1.43072 0
M  V30 5959 O 559.73 0.235986 1.79758 0
M  V30 5960 C 559.778 3.54886 0.639416 0
M  V30 5961 O 558.882 3.73948 1.73888 0
M  V30 5962 H 558.223 0.662754 0.040653 0
M  V30 5963 H 560.753 1.98303 -0.503685 0
M  V30 5964 H 560.763 3.97601 0.915295 0
M  V30 5965 H 559.438 4.153 -0.223386 0
M  V30 5966 H 558.015 3.43134 1.45991 0
M  V30 5967 N 560.2 0.0768682 1.57412 0
M  V30 5968 C 561.43 -0.5991 1.97723 0
M  V30 5969 C 561.838 -1.63378 0.954166 0
M  V30 5970 O 561.181 -1.83578 -0.0668706 0
M  V30 5971 C 561.243 -1.32078 3.34358 0
M  V30 5972 C 560.907 -0.438985 4.54887 0
M  V30 5973 C 561.904 0.305492 5.19002 0
M  V30 5974 C 559.589 -0.362378 5.00991 0
M  V30 5975 C 561.583 1.11475 6.27576 0
M  V30 5976 C 559.27 0.450543 6.09437 0
M  V30 5977 C 560.268 1.18777 6.72593 0
M  V30 5978 O 559.956 1.98727 7.7895 0
M  V30 5979 H 559.688 -0.166725 0.655117 0
M  V30 5980 H 562.242 0.147337 2.04871 0
M  V30 5981 H 560.472 -2.1134 3.2384 0
M  V30 5982 H 562.161 -1.88949 3.5924 0
M  V30 5983 H 562.927 0.25593 4.84324 0
M  V30 5984 H 558.806 -0.925832 4.51608 0
M  V30 5985 H 562.35 1.69068 6.76803 0
M  V30 5986 H 558.247 0.501651 6.43548 0
M  V30 5987 H 559.015 1.91214 7.95851 0
M  V30 5988 N 561.678 -1.56367 -0.196722 0
M  V30 5989 C 562.924 -1.80796 -0.918725 0
M  V30 5990 C 563.257 -0.650645 -1.82976 0
M  V30 5991 O 562.532 0.348889 -1.91345 0
M  V30 5992 C 562.815 -3.15472 -1.73636 0
M  V30 5993 C 562.668 -4.41693 -0.85015 0
M  V30 5994 C 563.987 -3.46824 -2.70927 0
M  V30 5995 H 561.106 -0.657702 -0.332561 0
M  V30 5996 H 563.748 -1.89086 -0.186186 0
M  V30 5997 H 561.898 -3.08536 -2.36088 0
M  V30 5998 H 563.57 -4.60673 -0.240459 0
M  V30 5999 H 561.813 -4.33517 -0.156785 0
M  V30 6000 H 562.484 -5.32419 -1.45719 0
M  V30 6001 H 564.96 -3.54049 -2.18607 0
M  V30 6002 H 563.836 -4.4218 -3.25219 0
M  V30 6003 H 564.097 -2.70236 -3.49893 0
M  V30 6004 N 563.156 0.464375 -1.50603 0
M  V30 6005 C 564.103 1.56152 -1.69956 0
M  V30 6006 C 565.073 1.57046 -0.54091 0
M  V30 6007 O 566.258 1.74473 -0.772258 0
M  V30 6008 C 563.398 2.94079 -1.80586 0
M  V30 6009 C 562.511 3.02923 -3.07996 0
M  V30 6010 C 561.646 4.31806 -3.09382 0
M  V30 6011 C 560.685 4.34417 -4.31218 0
M  V30 6012 N 559.822 5.54782 -4.30304 0
M  V30 6013 H 564.662 1.38955 -2.6362 0
M  V30 6014 H 562.199 0.675482 -1.30674 0
M  V30 6015 H 564.157 3.74073 -1.8473 0
M  V30 6016 H 562.787 3.09896 -0.903556 0
M  V30 6017 H 561.839 2.1576 -3.13292 0
M  V30 6018 H 563.151 3.00712 -3.97962 0
M  V30 6019 H 562.305 5.20153 -3.12292 0
M  V30 6020 H 561.044 4.36636 -2.17257 0
M  V30 6021 H 560.049 3.44467 -4.28512 0
M  V30 6022 H 561.274 4.31273 -5.24576 0
M  V30 6023 H 559.22 5.60384 -3.41037 0
M  V30 6024 H 559.137 5.54339 -5.14047 0
M  V30 6025 H 560.405 6.45235 -4.3737 0
M  V30 6026 N 564.634 1.40294 0.718013 0
M  V30 6027 C 565.544 1.42678 1.86226 0
M  V30 6028 C 566.56 0.319655 1.71039 0
M  V30 6029 O 567.736 0.563852 1.93346 0
M  V30 6030 C 564.801 1.2852 3.21999 0
M  V30 6031 C 563.862 2.49354 3.49458 0
M  V30 6032 C 563.095 2.35863 4.78753 0
M  V30 6033 O 563.318 1.37114 5.53675 0
M  V30 6034 O 562.252 3.25189 5.06494 0
M  V30 6035 H 566.078 2.39167 1.87171 0
M  V30 6036 H 563.663 1.2159 0.868112 0
M  V30 6037 H 565.545 1.22824 4.03103 0
M  V30 6038 H 564.22 0.351359 3.21787 0
M  V30 6039 H 563.127 2.60628 2.68373 0
M  V30 6040 H 564.46 3.41491 3.54464 0
M  V30 6041 N 566.112 -0.949982 1.2575 0
M  V30 6042 C 567.359 -1.69515 1.10774 0
M  V30 6043 C 567.687 -1.91316 -0.350479 0
M  V30 6044 O 566.942 -1.48515 -1.27443 0
M  V30 6045 C 567.241 -3.08039 1.81237 0
M  V30 6046 C 566.907 -3.06023 3.31151 0
M  V30 6047 C 565.569 -3.0518 3.72047 0
M  V30 6048 C 567.921 -2.98998 4.26907 0
M  V30 6049 C 565.249 -2.95067 5.07102 0
M  V30 6050 C 567.601 -2.90426 5.61992 0
M  V30 6051 C 566.265 -2.87922 6.0221 0
M  V30 6052 H 565.535 -0.6203 0.405351 0
M  V30 6053 H 568.182 -1.10953 1.56082 0
M  V30 6054 H 566.487 -3.70172 1.28373 0
M  V30 6055 H 568.184 -3.64526 1.67098 0
M  V30 6056 H 564.774 -3.07453 2.98614 0
M  V30 6057 H 568.958 -2.98764 3.963 0
M  V30 6058 H 564.214 -2.915 5.37436 0
M  V30 6059 H 568.388 -2.83952 6.35881 0
M  V30 6060 H 566.015 -2.79841 7.06819 0
M  V30 6061 N 567.59 -1.07411 -1.15328 0
M  V30 6062 C 568.836 -0.808666 -1.86634 0
M  V30 6063 C 569.191 0.65816 -1.80793 0
M  V30 6064 O 568.484 1.47689 -1.22059 0
M  V30 6065 C 568.678 -1.25191 -3.34757 0
M  V30 6066 C 568.507 -2.76028 -3.55019 0
M  V30 6067 C 567.277 -3.43644 -3.70455 0
M  V30 6068 C 569.475 -3.74224 -3.5279 0
M  V30 6069 N 567.457 -4.83117 -3.78776 0
M  V30 6070 C 568.828 -4.9954 -3.67233 0
M  V30 6071 C 570.883 -3.67373 -3.36068 0
M  V30 6072 C 569.586 -6.18819 -3.66682 0
M  V30 6073 C 571.612 -4.86116 -3.36816 0
M  V30 6074 C 570.974 -6.10266 -3.51789 0
M  V30 6075 H 567.073 -0.348478 -0.700062 0
M  V30 6076 H 569.657 -1.37049 -1.38295 0
M  V30 6077 H 567.828 -0.717775 -3.8171 0
M  V30 6078 H 569.56 -0.933936 -3.93776 0
M  V30 6079 H 566.315 -2.94051 -3.71256 0
M  V30 6080 H 566.739 -5.55705 -3.86679 0
M  V30 6081 H 571.381 -2.72334 -3.2341 0
M  V30 6082 H 569.099 -7.14179 -3.78118 0
M  V30 6083 H 572.685 -4.82492 -3.25103 0
M  V30 6084 H 571.565 -7.00609 -3.52301 0
M  V30 6085 N 569.068 1.32177 -0.85831 0
M  V30 6086 C 570.314 1.97813 -0.47346 0
M  V30 6087 C 570.669 1.66674 0.961122 0
M  V30 6088 O 569.962 0.94657 1.66585 0
M  V30 6089 C 570.156 3.51372 -0.653658 0
M  V30 6090 C 569.985 3.97433 -2.1042 0
M  V30 6091 C 568.755 4.24338 -2.74345 0
M  V30 6092 C 570.953 4.12233 -3.0752 0
M  V30 6093 N 568.935 4.56672 -4.10272 0
M  V30 6094 C 570.306 4.48146 -4.28445 0
M  V30 6095 C 572.361 3.94577 -3.03667 0
M  V30 6096 C 571.064 4.68246 -5.4602 0
M  V30 6097 C 573.09 4.15864 -4.20489 0
M  V30 6098 C 572.452 4.52098 -5.40173 0
M  V30 6099 H 568.551 0.749808 -0.222061 0
M  V30 6100 H 571.135 1.59927 -1.11047 0
M  V30 6101 H 569.306 3.88372 -0.0463267 0
M  V30 6102 H 571.038 4.03998 -0.238343 0
M  V30 6103 H 567.793 4.16544 -2.25362 0
M  V30 6104 H 568.217 4.77019 -4.80398 0
M  V30 6105 H 572.859 3.65662 -2.12252 0
M  V30 6106 H 570.577 4.96014 -6.37962 0
M  V30 6107 H 574.163 4.03702 -4.18947 0
M  V30 6108 H 573.043 4.68238 -6.29065 0
M  V30 6109 N 570.547 0.616602 1.45037 0
M  V30 6110 C 571.794 0.115331 2.02171 0
M  V30 6111 C 572.122 -1.25748 1.48383 0
M  V30 6112 O 571.377 -1.84511 0.652229 0
M  V30 6113 C 571.676 0.0356829 3.57382 0
M  V30 6114 C 571.342 1.34535 4.30362 0
M  V30 6115 C 570.004 1.70408 4.50016 0
M  V30 6116 C 572.356 2.21049 4.72003 0
M  V30 6117 C 569.684 2.92529 5.0857 0
M  V30 6118 C 572.036 3.42427 5.31908 0
M  V30 6119 C 570.7 3.78541 5.49784 0
M  V30 6120 H 569.97 0.0422024 0.739797 0
M  V30 6121 H 572.617 0.80002 1.73988 0
M  V30 6122 H 570.922 -0.732314 3.84895 0
M  V30 6123 H 572.619 -0.368463 3.99304 0
M  V30 6124 H 569.209 1.05615 4.15383 0
M  V30 6125 H 573.393 1.94632 4.56544 0
M  V30 6126 H 568.649 3.20605 5.20598 0
M  V30 6127 H 572.823 4.09709 5.63127 0
M  V30 6128 H 570.45 4.73255 5.94923 0
M  V30 6129 N 572.025 -1.5352 0.356285 0
M  V30 6130 C 573.436 -1.86282 -0.12492 0
M  V30 6131 C 573.787 -1.27717 -1.48939 0
M  V30 6132 O 572.912 -0.595614 -2.08042 0
M  V30 6133 C 573.507 -3.37995 -0.23345 0
M  V30 6134 C 572.066 -3.70588 -0.658899 0
M  V30 6135 C 571.213 -2.76581 0.199596 0
M  V30 6136 H 574.164 -1.47901 0.575423 0
M  V30 6137 H 574.185 -3.65475 -1.0587 0
M  V30 6138 H 573.697 -3.8059 0.759776 0
M  V30 6139 H 571.798 -3.33544 -1.66069 0
M  V30 6140 H 571.911 -4.77076 -0.439957 0
M  V30 6141 H 570.275 -2.52552 -0.330076 0
M  V30 6142 H 571.058 -3.22008 1.19019 0
M  V30 6143 N 573.503 -0.0852151 -1.57369 0
M  V30 6144 C 574.453 0.88767 -2.10011 0
M  V30 6145 C 575.437 1.25021 -1.01285 0
M  V30 6146 O 576.629 1.22694 -1.27574 0
M  V30 6147 C 573.758 2.15037 -2.67608 0
M  V30 6148 C 572.844 1.81371 -3.83361 0
M  V30 6149 N 573.235 1.18216 -4.91791 0
M  V30 6150 C 571.533 2.11041 -3.92909 0
M  V30 6151 C 572.234 1.02941 -5.72519 0
M  V30 6152 N 571.21 1.54351 -5.21226 0
M  V30 6153 H 575.012 0.395279 -2.9123 0
M  V30 6154 H 572.526 0.11829 -1.61969 0
M  V30 6155 H 574.523 2.85667 -3.03644 0
M  V30 6156 H 573.183 2.64851 -1.8784 0
M  V30 6157 H 574.194 0.850168 -5.10874 0
M  V30 6158 H 570.871 2.63138 -3.24136 0
M  V30 6159 H 572.261 0.536298 -6.69756 0
M  V30 6160 N 574.981 1.5647 0.188427 0
M  V30 6161 C 575.914 1.90146 1.26173 0
M  V30 6162 C 576.892 0.762294 1.43624 0
M  V30 6163 O 578.076 1.01395 1.58907 0
M  V30 6164 C 575.203 2.13748 2.62735 0
M  V30 6165 C 574.249 3.36448 2.62116 0
M  V30 6166 S 575.082 4.91364 2.12889 0
M  V30 6167 C 576.238 5.18041 3.51261 0
M  V30 6168 H 576.471 2.80886 0.974192 0
M  V30 6169 H 574.004 1.49335 0.392226 0
M  V30 6170 H 575.962 2.28028 3.41341 0
M  V30 6171 H 574.623 1.23747 2.88696 0
M  V30 6172 H 573.816 3.50109 3.62546 0
M  V30 6173 H 573.418 3.21196 1.91596 0
M  V30 6174 H 575.71 5.0897 4.47164 0
M  V30 6175 H 576.653 6.19764 3.42489 0
M  V30 6176 H 577.061 4.45657 3.46482 0
M  V30 6177 N 576.459 -0.456382 1.50847 0
M  V30 6178 C 577.705 -1.20618 1.63777 0
M  V30 6179 C 578.06 -1.8936 0.340677 0
M  V30 6180 O 577.353 -1.79786 -0.662378 0
M  V30 6181 C 577.547 -2.26336 2.76599 0
M  V30 6182 C 577.376 -1.67968 4.17153 0
M  V30 6183 C 576.146 -1.47293 4.83356 0
M  V30 6184 C 578.344 -1.16643 5.00898 0
M  V30 6185 N 576.326 -0.843222 6.08081 0
M  V30 6186 C 577.697 -0.660843 6.16468 0
M  V30 6187 C 579.752 -1.05637 4.86565 0
M  V30 6188 C 578.455 -0.0560365 7.19278 0
M  V30 6189 C 580.481 -0.465485 5.89565 0
M  V30 6190 C 579.843 0.0296516 7.04394 0
M  V30 6191 H 575.942 -0.429725 0.653345 0
M  V30 6192 H 578.526 -0.505784 1.88016 0
M  V30 6193 H 576.697 -2.93785 2.54056 0
M  V30 6194 H 578.429 -2.9334 2.78808 0
M  V30 6195 H 575.184 -1.72934 4.40898 0
M  V30 6196 H 575.608 -0.546357 6.74792 0
M  V30 6197 H 580.25 -1.42508 3.98059 0
M  V30 6198 H 577.968 0.324845 8.07447 0
M  V30 6199 H 581.554 -0.382493 5.80541 0
M  V30 6200 H 580.434 0.479705 7.82731 0
M  V30 6201 N 577.937 -1.40673 -0.710563 0
M  V30 6202 C 579.162 -1.42741 -1.50465 0
M  V30 6203 C 579.587 -0.0302116 -1.88076 0
M  V30 6204 O 578.945 0.962945 -1.53613 0
M  V30 6205 C 578.993 -2.32873 -2.75322 0
M  V30 6206 O 578.097 -1.77544 -3.72226 0
M  V30 6207 H 577.438 -0.485056 -0.45345 0
M  V30 6208 H 579.968 -1.84961 -0.874681 0
M  V30 6209 H 579.978 -2.48233 -3.23797 0
M  V30 6210 H 578.653 -3.34401 -2.47283 0
M  V30 6211 H 577.23 -1.71556 -3.31093 0
M  V30 6212 N 579.415 0.9433 -1.26252 0
M  V30 6213 C 580.365 2.02746 -1.04297 0
M  V30 6214 C 581.349 1.60882 0.0239435 0
M  V30 6215 O 582.541 1.75947 -0.192757 0
M  V30 6216 C 579.67 3.36585 -0.6757 0
M  V30 6217 C 578.756 3.84939 -1.77996 0
M  V30 6218 N 579.147 4.05966 -3.01704 0
M  V30 6219 C 577.445 4.13833 -1.66308 0
M  V30 6220 C 578.146 4.45987 -3.73458 0
M  V30 6221 N 577.122 4.52569 -3.01135 0
M  V30 6222 H 580.924 2.17012 -1.98199 0
M  V30 6223 H 578.438 1.12898 -1.16738 0
M  V30 6224 H 580.435 4.13896 -0.499571 0
M  V30 6225 H 579.095 3.2369 0.255863 0
M  V30 6226 H 580.106 3.92716 -3.37631 0
M  V30 6227 H 576.783 4.09739 -0.801267 0
M  V30 6228 H 578.173 4.70465 -4.79701 0
M  V30 6229 N 580.893 1.08022 1.14757 0
M  V30 6230 C 581.826 0.650738 2.18725 0
M  V30 6231 C 582.804 -0.335496 1.59101 0
M  V30 6232 O 583.988 -0.240295 1.86962 0
M  V30 6233 C 581.115 -0.0434377 3.38672 0
M  V30 6234 C 580.161 0.90232 4.16846 0
M  V30 6235 S 580.994 2.40693 4.78359 0
M  V30 6236 C 582.15 1.72475 6.01667 0
M  V30 6237 H 582.383 1.53152 2.54817 0
M  V30 6238 H 579.916 0.894823 1.25826 0
M  V30 6239 H 581.874 -0.437684 4.0816 0
M  V30 6240 H 580.535 -0.900659 3.0091 0
M  V30 6241 H 579.728 0.363445 5.02688 0
M  V30 6242 H 579.33 1.23728 3.52941 0
M  V30 6243 H 581.622 1.0404 6.69464 0
M  V30 6244 H 582.565 2.56175 6.60136 0
M  V30 6245 H 582.973 1.19979 5.51602 0
M  V30 6246 N 582.371 -1.3172 0.865308 0
M  V30 6247 C 583.303 -2.27545 0.274906 0
M  V30 6248 C 584.316 -1.52887 -0.559413 0
M  V30 6249 O 585.505 -1.74361 -0.382166 0
M  V30 6250 C 582.605 -3.33006 -0.629286 0
M  V30 6251 C 581.778 -4.37063 0.171553 0
M  V30 6252 C 580.837 -5.22044 -0.660052 0
M  V30 6253 O 579.863 -5.69129 -0.0897527 0
M  V30 6254 N 581.065 -5.45946 -1.97289 0
M  V30 6255 H 583.83 -2.78848 1.09836 0
M  V30 6256 H 581.391 -1.44693 0.726331 0
M  V30 6257 H 583.383 -3.86772 -1.19121 0
M  V30 6258 H 581.953 -2.81782 -1.35342 0
M  V30 6259 H 581.173 -3.83436 0.914919 0
M  V30 6260 H 582.461 -5.03662 0.721235 0
M  V30 6261 H 581.859 -5.0944 -2.45942 0
M  V30 6262 H 580.416 -6.02665 -2.4827 0
M  V30 6263 N 583.85 -0.624285 -1.44708 0
M  V30 6264 C 585.26 -0.2092 -1.85524 0
M  V30 6265 C 585.611 1.23783 -1.52225 0
M  V30 6266 O 584.736 1.94089 -0.956986 0
M  V30 6267 C 585.332 -0.372897 -3.36742 0
M  V30 6268 C 583.891 -0.012374 -3.76398 0
M  V30 6269 C 583.038 -0.68951 -2.68591 0
M  V30 6270 H 585.989 -0.829894 -1.35272 0
M  V30 6271 H 586.01 0.390134 -3.78495 0
M  V30 6272 H 585.522 -1.42615 -3.60947 0
M  V30 6273 H 583.623 1.03941 -3.57809 0
M  V30 6274 H 583.736 -0.417663 -4.77276 0
M  V30 6275 H 582.1 -0.125484 -2.54391 0
M  V30 6276 H 582.883 -1.74522 -2.9563 0
M  V30 6277 N 585.328 1.53329 -0.364422 0
M  V30 6278 C 586.278 2.22472 0.499024 0
M  V30 6279 C 587.262 1.21952 1.0496 0
M  V30 6280 O 588.454 1.47405 0.979836 0
M  V30 6281 C 585.583 3.01659 1.6388 0
M  V30 6282 C 584.669 4.09555 1.10116 0
M  V30 6283 N 585.06 5.04988 0.286414 0
M  V30 6284 C 583.358 4.2424 1.37608 0
M  V30 6285 C 584.059 5.81699 -0.00781682 0
M  V30 6286 N 583.035 5.40394 0.589494 0
M  V30 6287 H 586.837 2.93611 -0.130284 0
M  V30 6288 H 584.351 1.61483 -0.172377 0
M  V30 6289 H 586.348 3.4971 2.26954 0
M  V30 6290 H 585.008 2.32051 2.27118 0
M  V30 6291 H 586.019 5.17847 -0.0742839 0
M  V30 6292 H 582.696 3.65858 2.01133 0
M  V30 6293 H 584.086 6.68587 -0.666394 0
M  V30 6294 N 586.806 0.0935595 1.57322 0
M  V30 6295 C 587.736 -0.863062 2.16964 0
M  V30 6296 C 588.717 -1.29528 1.10256 0
M  V30 6297 O 589.902 -1.36245 1.38387 0
M  V30 6298 C 587.032 -2.12276 2.74875 0
M  V30 6299 C 585.986 -1.82921 3.86942 0
M  V30 6300 C 585.312 -3.15707 4.31548 0
M  V30 6301 C 586.612 -1.11737 5.10208 0
M  V30 6302 H 588.306 -0.366145 2.97153 0
M  V30 6303 H 585.852 -0.174673 1.42937 0
M  V30 6304 H 587.805 -2.79634 3.1525 0
M  V30 6305 H 586.529 -2.64248 1.91938 0
M  V30 6306 H 585.188 -1.17961 3.47103 0
M  V30 6307 H 584.836 -3.65563 3.45504 0
M  V30 6308 H 584.536 -2.96849 5.07104 0
M  V30 6309 H 586.06 -3.84226 4.74555 0
M  V30 6310 H 587.474 -1.69203 5.47762 0
M  V30 6311 H 585.871 -1.03064 5.91183 0
M  V30 6312 H 586.941 -0.0998818 4.84797 0
M  V30 6313 N 588.284 -1.56567 -0.180126 0
M  V30 6314 C 589.531 -1.81492 -0.898167 0
M  V30 6315 C 589.859 -0.669225 -1.82624 0
M  V30 6316 O 589.114 0.344096 -1.92651 0
M  V30 6317 C 589.413 -3.1252 -1.73395 0
M  V30 6318 C 589.079 -4.40658 -0.955567 0
M  V30 6319 C 587.741 -4.75465 -0.740707 0
M  V30 6320 C 590.093 -5.19593 -0.408948 0
M  V30 6321 C 587.421 -5.86691 0.0320128 0
M  V30 6322 C 589.773 -6.31627 0.350638 0
M  V30 6323 C 588.437 -6.65007 0.576378 0
M  V30 6324 H 587.707 -0.664125 -0.328662 0
M  V30 6325 H 590.354 -1.908 -0.163616 0
M  V30 6326 H 588.659 -2.98515 -2.53763 0
M  V30 6327 H 590.356 -3.29013 -2.29241 0
M  V30 6328 H 586.946 -4.13352 -1.13306 0
M  V30 6329 H 591.13 -4.93104 -0.562307 0
M  V30 6330 H 586.386 -6.11016 0.216735 0
M  V30 6331 H 590.56 -6.92001 0.781497 0
M  V30 6332 H 588.187 -7.51033 1.17703 0
M  V30 6333 N 589.762 0.448376 -1.51087 0
M  V30 6334 C 590.712 1.54156 -1.67988 0
M  V30 6335 C 591.696 1.5178 -0.534015 0
M  V30 6336 O 592.888 1.58419 -0.789448 0
M  V30 6337 C 590.017 2.92437 -1.79822 0
M  V30 6338 C 589.103 2.99611 -3.00157 0
M  V30 6339 N 589.494 2.7655 -4.23502 0
M  V30 6340 C 587.792 3.30764 -2.99184 0
M  V30 6341 C 588.493 2.89281 -5.0467 0
M  V30 6342 N 587.469 3.20473 -4.39088 0
M  V30 6343 H 591.271 1.35061 -2.61028 0
M  V30 6344 H 588.785 0.655504 -1.48583 0
M  V30 6345 H 590.782 3.71068 -1.90037 0
M  V30 6346 H 589.442 3.1256 -0.879554 0
M  V30 6347 H 590.453 2.5169 -4.52628 0
M  V30 6348 H 587.13 3.56732 -2.16907 0
M  V30 6349 H 588.52 2.75499 -6.12821 0
M  V30 6350 N 591.24 1.41047 0.703093 0
M  V30 6351 C 592.188 1.42494 1.83843 0
M  V30 6352 C 593.182 0.303885 1.66652 0
M  V30 6353 O 594.388 0.475544 1.73605 0
M  V30 6354 H 590.763 0.445685 0.605697 0
M  V30 6355 H 592.734 2.38194 1.79739 0
M  V30 6356 C 591.483 1.31666 3.21807 0
M  V30 6357 H 590.806 2.17212 3.35647 0
M  V30 6358 H 592.246 1.36738 4.01346 0
M  V30 6359 C 590.705 0.0281828 3.36888 0
M  V30 6360 O 591.235 -0.929995 3.90786 0
M  V30 6361 N 589.441 -0.0454322 2.90564 0
M  V30 6362 H 588.988 0.735046 2.4689 0
M  V30 6363 H 588.946 -0.906968 3.01034 0
M  V30 6364 N 592.718 -0.936591 1.26751 0
M  V30 6365 C 593.65 -2.03991 1.045 0
M  V30 6366 C 594.663 -1.628 0.00394261 0
M  V30 6367 O 595.852 -1.76817 0.244526 0
M  V30 6368 C 592.952 -3.34218 0.561403 0
M  V30 6369 C 592.125 -4.04151 1.67274 0
M  V30 6370 C 591.184 -5.12651 1.1864 0
M  V30 6371 O 590.21 -5.37104 1.88437 0
M  V30 6372 N 591.412 -5.80488 0.037278 0
M  V30 6373 H 594.177 -2.23644 1.99508 0
M  V30 6374 H 591.738 -1.10638 1.18198 0
M  V30 6375 H 593.73 -4.04101 0.220136 0
M  V30 6376 H 592.3 -3.11203 -0.295211 0
M  V30 6377 H 591.52 -3.28121 2.18472 0
M  V30 6378 H 592.808 -4.47626 2.41885 0
M  V30 6379 H 592.206 -5.63064 -0.545494 0
M  V30 6380 H 590.763 -6.5134 -0.244877 0
M  V30 6381 N 594.196 -1.08629 -1.14182 0
M  V30 6382 C 595.421 -0.83902 -1.89671 0
M  V30 6383 C 595.846 0.603332 -1.78161 0
M  V30 6384 O 595.204 1.42301 -1.12339 0
M  V30 6385 C 595.252 -1.26854 -3.37551 0
M  V30 6386 O 594.356 -0.42188 -4.10236 0
M  V30 6387 H 593.697 -0.304545 -0.590041 0
M  V30 6388 H 596.227 -1.4483 -1.44518 0
M  V30 6389 H 596.237 -1.25038 -3.88368 0
M  V30 6390 H 594.912 -2.31901 -3.45246 0
M  V30 6391 H 593.489 -0.503654 -3.69483 0
M  V30 6392 N 595.674 1.31259 -0.872281 0
M  V30 6393 C 596.92 1.96913 -0.485083 0
M  V30 6394 C 597.253 1.68774 0.960667 0
M  V30 6395 O 596.528 0.985495 1.67685 0
M  V30 6396 C 596.811 3.52299 -0.745502 0
M  V30 6397 C 596.664 3.90002 -2.24095 0
M  V30 6398 C 597.983 4.39582 -0.213516 0
M  V30 6399 H 595.102 0.715252 -0.177716 0
M  V30 6400 H 597.744 1.55347 -1.09395 0
M  V30 6401 H 595.894 3.87835 -0.227276 0
M  V30 6402 H 597.566 3.64555 -2.82661 0
M  V30 6403 H 595.809 3.38526 -2.71261 0
M  V30 6404 H 596.48 4.98352 -2.37381 0
M  V30 6405 H 598.956 4.10882 -0.656902 0
M  V30 6406 H 597.832 5.47251 -0.42516 0
M  V30 6407 H 598.093 4.33158 0.884666 0
M  V30 6408 N 597.152 0.631951 1.44375 0
M  V30 6409 C 598.082 -0.0593243 2.33425 0
M  V30 6410 C 599.063 -0.833964 1.48253 0
M  V30 6411 O 600.248 -0.799682 1.76971 0
M  V30 6412 C 597.378 -1.04096 3.31333 0
M  V30 6413 C 596.332 -0.377899 4.26328 0
M  V30 6414 C 595.658 -1.4695 5.14111 0
M  V30 6415 C 596.958 0.716371 5.17364 0
M  V30 6416 H 598.652 0.684287 2.91475 0
M  V30 6417 H 596.198 0.330518 1.40156 0
M  V30 6418 H 598.151 -1.53331 3.92514 0
M  V30 6419 H 596.875 -1.81547 2.71493 0
M  V30 6420 H 595.534 0.0938054 3.6648 0
M  V30 6421 H 595.182 -2.2349 4.50623 0
M  V30 6422 H 594.882 -1.03121 5.78481 0
M  V30 6423 H 596.406 -1.96363 5.78164 0
M  V30 6424 H 597.82 0.307089 5.72477 0
M  V30 6425 H 596.217 1.07784 5.90341 0
M  V30 6426 H 597.287 1.58316 4.58327 0
M  V30 6427 N 598.631 -1.53133 0.372548 0
M  V30 6428 C 599.594 -2.24569 -0.458389 0
M  V30 6429 C 600.594 -1.25603 -1.00402 0
M  V30 6430 O 601.784 -1.49827 -0.888672 0
M  V30 6431 C 598.916 -2.98783 -1.6414 0
M  V30 6432 H 600.109 -2.99436 0.166799 0
M  V30 6433 H 597.662 -1.55805 0.124357 0
M  V30 6434 H 598.397 -2.28176 -2.30448 0
M  V30 6435 H 598.182 -3.71404 -1.25704 0
M  V30 6436 H 599.672 -3.53068 -2.23008 0
M  V30 6437 N 600.109 -0.101901 -1.5727 0
M  V30 6438 C 601.019 0.868647 -2.17926 0
M  V30 6439 C 602.035 1.30527 -1.1506 0
M  V30 6440 O 603.211 1.37178 -1.47459 0
M  V30 6441 C 600.276 2.10727 -2.75309 0
M  V30 6442 C 599.337 1.7242 -3.93154 0
M  V30 6443 C 598.57 2.90377 -4.47791 0
M  V30 6444 O 598.793 4.05305 -4.01353 0
M  V30 6445 O 597.727 2.6845 -5.38719 0
M  V30 6446 H 601.553 0.382544 -3.01281 0
M  V30 6447 H 599.138 0.122812 -1.48894 0
M  V30 6448 H 601.02 2.83303 -3.11958 0
M  V30 6449 H 599.695 2.58376 -1.94996 0
M  V30 6450 H 598.602 0.970039 -3.61305 0
M  V30 6451 H 599.935 1.29528 -4.74851 0
M  V30 6452 N 601.587 1.56661 0.17182 0
M  V30 6453 C 602.519 1.92934 1.2373 0
M  V30 6454 C 603.532 0.822385 1.40502 0
M  V30 6455 O 604.721 1.10083 1.40514 0
M  V30 6456 C 601.821 2.16651 2.60607 0
M  V30 6457 C 600.994 3.47878 2.6514 0
M  V30 6458 C 600.053 3.60429 3.83377 0
M  V30 6459 O 599.079 4.33051 3.69398 0
M  V30 6460 N 600.281 2.95241 4.99813 0
M  V30 6461 H 603.046 2.84931 0.929205 0
M  V30 6462 H 600.607 1.5781 0.361588 0
M  V30 6463 H 602.599 2.22312 3.38171 0
M  V30 6464 H 601.169 1.3104 2.83809 0
M  V30 6465 H 600.389 3.53879 1.73675 0
M  V30 6466 H 601.677 4.34232 2.6518 0
M  V30 6467 H 601.075 2.3611 5.14071 0
M  V30 6468 H 599.632 3.06499 5.75241 0
M  V30 6469 N 603.065 -0.440357 1.51323 0
M  V30 6470 C 603.998 -1.55414 1.67098 0
M  V30 6471 C 604.976 -1.54108 0.518599 0
M  V30 6472 O 606.16 -1.7328 0.742054 0
M  V30 6473 C 603.287 -2.93996 1.68179 0
M  V30 6474 C 602.333 -3.13338 2.89347 0
M  V30 6475 S 603.166 -2.89957 4.50206 0
M  V30 6476 C 604.322 -4.30826 4.54027 0
M  V30 6477 H 604.555 -1.41798 2.61306 0
M  V30 6478 H 602.088 -0.629841 1.40969 0
M  V30 6479 H 604.046 -3.73878 1.69487 0
M  V30 6480 H 602.707 -3.04976 0.751542 0
M  V30 6481 H 601.9 -4.14652 2.86495 0
M  V30 6482 H 601.502 -2.41276 2.85766 0
M  V30 6483 H 603.794 -5.23977 4.29481 0
M  V30 6484 H 604.737 -4.38712 5.55822 0
M  V30 6485 H 605.145 -4.1434 3.83384 0
M  V30 6486 N 604.543 -1.41418 -0.695603 0
M  V30 6487 C 605.506 -1.42988 -1.79129 0
M  V30 6488 C 606.506 -0.320514 -1.57573 0
M  V30 6489 O 607.696 -0.58039 -1.64247 0
M  V30 6490 C 604.828 -1.24122 -3.175 0
M  V30 6491 H 606.021 -2.40526 -1.7913 0
M  V30 6492 H 603.574 -1.2756 -0.903225 0
M  V30 6493 H 604.309 -0.274253 -3.23138 0
M  V30 6494 H 604.094 -2.045 -3.34547 0
M  V30 6495 H 605.584 -1.28056 -3.97481 0
M  V30 6496 N 606.021 0.929856 -1.27246 0
M  V30 6497 C 606.951 2.04722 -1.12299 0
M  V30 6498 C 607.932 1.70082 -0.0250464 0
M  V30 6499 O 609.117 1.93176 -0.199141 0
M  V30 6500 C 606.247 3.38721 -0.767145 0
M  V30 6501 C 605.201 3.87466 -1.81808 0
M  V30 6502 C 604.527 5.18246 -1.31626 0
M  V30 6503 C 605.827 4.11095 -3.22177 0
M  V30 6504 H 607.521 2.17485 -2.05769 0
M  V30 6505 H 605.067 1.04503 -0.990715 0
M  V30 6506 H 607.02 4.16366 -0.649413 0
M  V30 6507 H 605.744 3.25967 0.203259 0
M  V30 6508 H 604.403 3.12012 -1.92468 0
M  V30 6509 H 604.051 5.01881 -0.335378 0
M  V30 6510 H 603.751 5.51829 -2.01887 0
M  V30 6511 H 605.275 5.98462 -1.21143 0
M  V30 6512 H 606.689 4.79316 -3.1453 0
M  V30 6513 H 605.086 4.55982 -3.90129 0
M  V30 6514 H 606.156 3.16468 -3.67391 0
M  V30 6515 N 607.499 1.09233 1.13605 0
M  V30 6516 C 608.447 0.724572 2.21027 0
M  V30 6517 C 609.441 -0.273595 1.67176 0
M  V30 6518 O 610.647 -0.135266 1.79491 0
M  V30 6519 H 607.022 0.216319 0.720215 0
M  V30 6520 H 608.993 1.63975 2.49309 0
M  V30 6521 C 607.742 0.159126 3.47336 0
M  V30 6522 H 607.065 0.918387 3.89109 0
M  V30 6523 H 608.505 -0.0602851 4.23957 0
M  V30 6524 C 606.964 -1.10514 3.18258 0
M  V30 6525 O 607.494 -2.18869 3.36837 0
M  V30 6526 N 605.7 -1.01886 2.72154 0
M  V30 6527 H 605.247 -0.137027 2.57235 0
M  V30 6528 H 605.205 -1.8655 2.53074 0
M  V30 6529 N 608.977 -1.30795 0.87923 0
M  V30 6530 C 609.924 -2.28282 0.339968 0
M  V30 6531 C 610.894 -1.56134 -0.566685 0
M  V30 6532 O 612.079 -1.84231 -0.496338 0
M  V30 6533 C 609.219 -3.42225 -0.444501 0
M  V30 6534 C 608.332 -4.29204 0.490717 0
M  V30 6535 C 607.467 -5.30302 -0.308784 0
M  V30 6536 C 606.506 -6.08929 0.622272 0
M  V30 6537 N 605.643 -7.01957 -0.14155 0
M  V30 6538 H 610.483 -2.73794 1.17647 0
M  V30 6539 H 608.02 -1.34682 0.591527 0
M  V30 6540 H 609.978 -4.07038 -0.915186 0
M  V30 6541 H 608.608 -2.97799 -1.24562 0
M  V30 6542 H 607.66 -3.6475 1.07988 0
M  V30 6543 H 608.972 -4.84045 1.20425 0
M  V30 6544 H 608.126 -6.00835 -0.841575 0
M  V30 6545 H 606.865 -4.7614 -1.05556 0
M  V30 6546 H 605.87 -5.37278 1.16674 0
M  V30 6547 H 607.095 -6.65178 1.36804 0
M  V30 6548 H 605.041 -6.50192 -0.870966 0
M  V30 6549 H 604.958 -7.54261 0.51246 0
M  V30 6550 H 606.226 -7.76741 -0.655271 0
M  V30 6551 N 610.455 -0.639598 -1.44038 0
M  V30 6552 C 611.402 0.0602458 -2.30721 0
M  V30 6553 C 612.372 0.828352 -1.43971 0
M  V30 6554 O 613.557 0.807693 -1.72861 0
M  V30 6555 C 610.697 1.03008 -3.29368 0
M  V30 6556 C 609.81 0.259502 -4.3122 0
M  V30 6557 C 608.945 1.22191 -5.16955 0
M  V30 6558 C 607.984 0.440978 -6.10509 0
M  V30 6559 N 607.121 1.35428 -6.88915 0
M  V30 6560 H 611.961 -0.684867 -2.90023 0
M  V30 6561 H 609.498 -0.349509 -1.42888 0
M  V30 6562 H 611.456 1.60583 -3.85057 0
M  V30 6563 H 610.086 1.74222 -2.71747 0
M  V30 6564 H 609.138 -0.432317 -3.77935 0
M  V30 6565 H 610.45 -0.348347 -4.97582 0
M  V30 6566 H 609.604 1.86873 -5.77203 0
M  V30 6567 H 608.343 1.86367 -4.50687 0
M  V30 6568 H 607.348 -0.219279 -5.49363 0
M  V30 6569 H 608.573 -0.196192 -6.78817 0
M  V30 6570 H 606.519 1.9831 -6.25307 0
M  V30 6571 H 606.436 0.800657 -7.51748 0
M  V30 6572 H 607.704 1.98967 -7.53679 0
M  V30 6573 N 611.933 1.52934 -0.380664 0
M  V30 6574 C 613.18 2.01467 0.204278 0
M  V30 6575 C 613.508 1.26744 1.47533 0
M  V30 6576 O 612.763 0.353723 1.92477 0
M  V30 6577 C 613.062 3.5349 0.527199 0
M  V30 6578 C 612.728 4.46171 -0.651295 0
M  V30 6579 C 611.39 4.71227 -0.974619 0
M  V30 6580 C 613.742 5.00909 -1.44012 0
M  V30 6581 C 611.07 5.4827 -2.08847 0
M  V30 6582 C 613.422 5.7917 -2.5445 0
M  V30 6583 C 612.086 6.02507 -2.87301 0
M  V30 6584 H 611.356 0.73722 0.0747504 0
M  V30 6585 H 614.003 1.84411 -0.516234 0
M  V30 6586 H 612.308 3.68574 1.32892 0
M  V30 6587 H 614.005 3.88529 0.992283 0
M  V30 6588 H 610.595 4.26829 -0.389276 0
M  V30 6589 H 614.779 4.81485 -1.20357 0
M  V30 6590 H 610.035 5.64567 -2.34679 0
M  V30 6591 H 614.209 6.20588 -3.1598 0
M  V30 6592 H 611.836 6.61989 -3.7373 0
M  V30 6593 N 613.412 0.11024 1.57214 0
M  V30 6594 C 614.375 -0.828808 2.1369 0
M  V30 6595 C 615.375 -1.20059 1.06969 0
M  V30 6596 O 616.565 -1.12754 1.32786 0
M  V30 6597 C 613.697 -2.11959 2.66994 0
M  V30 6598 H 614.89 -0.338146 2.97988 0
M  V30 6599 H 612.443 -0.138913 1.55681 0
M  V30 6600 H 613.178 -2.65476 1.8626 0
M  V30 6601 H 612.963 -1.86258 3.45037 0
M  V30 6602 H 614.453 -2.79105 3.10629 0
M  V30 6603 N 614.89 -1.56749 -0.16351 0
M  V30 6604 C 616.136 -1.82704 -0.880168 0
M  V30 6605 C 616.469 -0.689311 -1.81555 0
M  V30 6606 O 615.744 0.308224 -1.92042 0
M  V30 6607 C 616.027 -3.19084 -1.66905 0
M  V30 6608 C 615.88 -4.43397 -0.756269 0
M  V30 6609 C 617.199 -3.52493 -2.63509 0
M  V30 6610 H 614.318 -0.664608 -0.318535 0
M  V30 6611 H 616.96 -1.89438 -0.146036 0
M  V30 6612 H 615.11 -3.13475 -2.2949 0
M  V30 6613 H 616.782 -4.61079 -0.14269 0
M  V30 6614 H 615.025 -4.33752 -0.0647944 0
M  V30 6615 H 615.696 -5.3539 -1.34393 0
M  V30 6616 H 618.172 -3.58606 -2.11047 0
M  V30 6617 H 617.048 -4.48979 -3.15767 0
M  V30 6618 H 617.309 -2.77597 -3.44082 0
M  V30 6619 N 616.368 0.432326 -1.51554 0
M  V30 6620 C 617.278 1.55023 -1.76082 0
M  V30 6621 C 618.294 1.61593 -0.645265 0
M  V30 6622 O 619.47 1.78742 -0.928086 0
M  V30 6623 C 616.535 2.90964 -1.88523 0
M  V30 6624 C 615.596 2.9447 -3.12388 0
M  V30 6625 C 614.829 4.23926 -3.24225 0
M  V30 6626 O 615.052 5.16576 -2.4188 0
M  V30 6627 O 613.986 4.33818 -4.17235 0
M  V30 6628 H 617.812 1.37238 -2.70923 0
M  V30 6629 H 615.397 0.615845 -1.36117 0
M  V30 6630 H 617.279 3.71633 -1.98662 0
M  V30 6631 H 615.954 3.08865 -0.9687 0
M  V30 6632 H 614.861 2.12737 -3.07723 0
M  V30 6633 H 616.194 2.81514 -4.03746 0
M  V30 6634 N 617.846 1.41785 0.688094 0
M  V30 6635 C 618.796 1.40684 1.79421 0
M  V30 6636 C 619.78 0.280096 1.58443 0
M  V30 6637 O 620.972 0.521332 1.69148 0
M  V30 6638 C 618.101 1.29874 3.17785 0
M  V30 6639 C 617.187 2.47442 3.44432 0
M  V30 6640 N 617.578 3.72895 3.41736 0
M  V30 6641 C 615.876 2.41416 3.75013 0
M  V30 6642 C 616.577 4.50912 3.67496 0
M  V30 6643 N 615.553 3.81131 3.87608 0
M  V30 6644 H 619.355 2.35591 1.7571 0
M  V30 6645 H 616.869 1.35946 0.888393 0
M  V30 6646 H 618.866 1.27168 3.97031 0
M  V30 6647 H 617.526 0.359587 3.22703 0
M  V30 6648 H 618.537 4.05676 3.21943 0
M  V30 6649 H 615.214 1.56011 3.87256 0
M  V30 6650 H 616.604 5.59865 3.71484 0
M  V30 6651 N 619.324 -0.923095 1.27737 0
M  V30 6652 C 620.572 -1.66797 1.14119 0
M  V30 6653 C 620.893 -1.92479 -0.312541 0
M  V30 6654 O 620.163 -1.53432 -1.218 0
M  V30 6655 H 618.743 -0.618196 0.419336 0
M  V30 6656 H 621.405 -1.10815 1.60331 0
M  V30 6657 H 620.501 -2.63424 1.67374 0
M  V30 6658 N 620.802 -1.09834 -1.13024 0
M  V30 6659 C 622.051 -0.831806 -1.83749 0
M  V30 6660 C 622.364 0.644763 -1.84668 0
M  V30 6661 O 623.57 1.02697 -2.51327 0
M  V30 6662 C 622.026 -1.43817 -3.29916 0
M  V30 6663 C 621.634 -2.94759 -3.37374 0
M  V30 6664 C 623.378 -1.25077 -4.05655 0
M  V30 6665 C 621.285 -3.48461 -4.77838 0
M  V30 6666 H 620.215 -0.30751 -0.688443 0
M  V30 6667 H 622.866 -1.32156 -1.27307 0
M  V30 6668 H 621.248 -0.876106 -3.86187 0
M  V30 6669 H 622.422 -3.57228 -2.91076 0
M  V30 6670 H 620.737 -3.12581 -2.75103 0
M  V30 6671 H 623.334 -1.62649 -5.09362 0
M  V30 6672 H 623.677 -0.191782 -4.15858 0
M  V30 6673 H 624.21 -1.78057 -3.55725 0
M  V30 6674 H 620.949 -4.53998 -4.72828 0
M  V30 6675 H 620.469 -2.90757 -5.24615 0
M  V30 6676 H 622.148 -3.45914 -5.46766 0
M  V30 6677 N 622.28 1.30327 -0.886154 0
M  V30 6678 C 623.691 1.78243 -0.555554 0
M  V30 6679 C 624.042 1.72849 0.928314 0
M  V30 6680 O 623.167 1.30607 1.72542 0
M  V30 6681 C 623.762 3.23654 -1.00168 0
M  V30 6682 C 622.321 3.69401 -0.722471 0
M  V30 6683 C 621.468 2.50753 -1.18399 0
M  V30 6684 H 624.419 1.1718 -1.07026 0
M  V30 6685 H 624.44 3.79056 -0.331152 0
M  V30 6686 H 623.952 3.27548 -2.08169 0
M  V30 6687 H 622.053 3.70995 0.345496 0
M  V30 6688 H 622.166 4.60818 -1.31085 0
M  V30 6689 H 620.53 2.47452 -0.603303 0
M  V30 6690 H 621.313 2.57383 -2.27176 0
M  V30 6691 N 623.758 0.647228 1.43697 0
M  V30 6692 C 624.986 0.16575 2.06235 0
M  V30 6693 C 625.401 -1.1662 1.48476 0
M  V30 6694 O 624.758 -1.7187 0.613762 0
M  V30 6695 C 624.809 0.0621651 3.61447 0
M  V30 6696 O 624.53 1.34146 4.17057 0
M  V30 6697 C 626.031 -0.446102 4.4105 0
M  V30 6698 H 623.251 0.0871158 0.665321 0
M  V30 6699 H 625.795 0.886183 1.84301 0
M  V30 6700 H 623.95 -0.608794 3.82587 0
M  V30 6701 H 624.364 1.19675 5.10664 0
M  V30 6702 H 625.838 -0.46755 5.50016 0
M  V30 6703 H 626.315 -1.47627 4.13646 0
M  V30 6704 H 626.921 0.192159 4.24866 0
M  V30 6705 N 625.236 -1.5273 0.388769 0
M  V30 6706 C 626.513 -1.93981 -0.251133 0
M  V30 6707 C 626.893 -1.32418 -1.64404 0
M  V30 6708 O 626.241 -0.492074 -2.23139 0
M  V30 6709 C 626.451 -3.47891 -0.27802 0
M  V30 6710 C 627.799 -4.21559 -0.507229 0
M  V30 6711 O 628.823 -3.54394 -0.358252 0
M  V30 6712 O 627.682 -5.40626 -0.799094 0
M  V30 6713 H 624.776 -0.812157 -0.15598 0
M  V30 6714 H 627.322 -1.63809 0.443237 0
M  V30 6715 H 626.094 -3.8503 0.697669 0
M  V30 6716 H 625.717 -3.84364 -1.01733 0
M  V30 6717 N 626.714 -0.118576 -1.57153 0
M  V30 6718 C 627.647 0.869046 -2.11004 0
M  V30 6719 C 628.625 1.26115 -1.02634 0
M  V30 6720 O 629.809 1.36228 -1.30285 0
M  V30 6721 C 626.936 2.16297 -2.6064 0
M  V30 6722 C 625.982 1.91896 -3.80891 0
M  V30 6723 S 626.815 1.13562 -5.2332 0
M  V30 6724 C 627.971 2.44135 -5.76324 0
M  V30 6725 H 628.204 0.411005 -2.94445 0
M  V30 6726 H 625.737 0.0951891 -1.54106 0
M  V30 6727 H 627.695 2.90642 -2.89892 0
M  V30 6728 H 626.356 2.59219 -1.77382 0
M  V30 6729 H 625.549 2.8777 -4.13768 0
M  V30 6730 H 625.151 1.25672 -3.52253 0
M  V30 6731 H 627.443 3.39976 -5.86022 0
M  V30 6732 H 628.386 2.15803 -6.74414 0
M  V30 6733 H 628.794 2.53483 -5.04387 0
M  V30 6734 N 628.193 1.56834 0.155195 0
M  V30 6735 C 629.441 1.82536 0.867462 0
M  V30 6736 C 629.762 0.698168 1.82073 0
M  V30 6737 O 629.032 -0.280807 1.93877 0
M  V30 6738 H 627.612 0.673401 0.323327 0
M  V30 6739 H 630.274 1.94313 0.151156 0
M  V30 6740 H 629.37 2.77171 1.43466 0
M  V30 6741 N 629.671 -0.424282 1.51781 0
M  V30 6742 C 630.901 -1.19297 1.68677 0
M  V30 6743 C 631.309 -1.85152 0.389258 0
M  V30 6744 O 630.652 -1.72067 -0.643311 0
M  V30 6745 C 630.714 -2.30929 2.75521 0
M  V30 6746 C 630.378 -1.85335 4.17732 0
M  V30 6747 C 631.375 -1.34951 5.0208 0
M  V30 6748 C 629.06 -1.92629 4.63896 0
M  V30 6749 C 631.054 -0.924636 6.30658 0
M  V30 6750 C 628.741 -1.49754 5.92467 0
M  V30 6751 C 629.739 -0.997543 6.75676 0
M  V30 6752 O 629.427 -0.57492 8.01842 0
M  V30 6753 H 629.159 -0.36512 0.568914 0
M  V30 6754 H 631.713 -0.507327 1.99036 0
M  V30 6755 H 629.943 -3.02811 2.40505 0
M  V30 6756 H 631.632 -2.92748 2.81165 0
M  V30 6757 H 632.398 -1.287 4.67612 0
M  V30 6758 H 628.277 -2.30491 3.99243 0
M  V30 6759 H 631.821 -0.533682 6.95556 0
M  V30 6760 H 627.718 -1.55679 6.26446 0
M  V30 6761 H 628.486 -0.699597 8.15505 0
M  V30 6762 N 631.149 -1.42148 -0.680565 0
M  V30 6763 C 632.112 -1.4488 -1.77602 0
M  V30 6764 C 633.112 -0.337209 -1.57224 0
M  V30 6765 O 634.302 -0.597778 -1.63622 0
M  V30 6766 C 631.434 -1.27483 -3.16166 0
M  V30 6767 H 632.627 -2.42412 -1.76568 0
M  V30 6768 H 630.18 -1.28511 -0.889645 0
M  V30 6769 H 630.915 -0.30851 -3.22829 0
M  V30 6770 H 630.7 -2.08037 -3.3236 0
M  V30 6771 H 632.19 -1.32265 -3.96101 0
M  V30 6772 N 632.627 0.916307 -1.28225 0
M  V30 6773 C 633.873 1.66765 -1.154 0
M  V30 6774 C 634.206 1.91912 0.297251 0
M  V30 6775 O 633.481 1.51766 1.21644 0
M  V30 6776 C 633.764 3.02715 -1.95028 0
M  V30 6777 C 633.617 2.84738 -3.48201 0
M  V30 6778 C 634.936 4.03215 -1.76369 0
M  V30 6779 H 632.055 0.605205 -0.42059 0
M  V30 6780 H 634.697 1.06255 -1.57512 0
M  V30 6781 H 632.847 3.54365 -1.59242 0
M  V30 6782 H 634.519 2.40118 -3.9388 0
M  V30 6783 H 632.762 2.19848 -3.73964 0
M  V30 6784 H 633.433 3.8127 -3.99171 0
M  V30 6785 H 635.909 3.60617 -2.07593 0
M  V30 6786 H 634.785 4.96306 -2.34459 0
M  V30 6787 H 635.046 4.36288 -0.71452 0
M  V30 6788 N 634.105 1.10431 1.1244 0
M  V30 6789 C 635.068 0.756542 2.16354 0
M  V30 6790 C 636.068 -0.21899 1.59302 0
M  V30 6791 O 637.258 0.00415969 1.742 0
M  V30 6792 C 634.39 0.120612 3.40687 0
M  V30 6793 H 635.583 1.67696 2.48632 0
M  V30 6794 H 633.136 0.904832 1.27446 0
M  V30 6795 H 633.871 -0.810536 3.14008 0
M  V30 6796 H 633.656 0.822693 3.83372 0
M  V30 6797 H 635.146 -0.106945 4.17463 0
M  V30 6798 N 635.583 -1.29855 0.893053 0
M  V30 6799 C 636.994 -1.77946 0.564998 0
M  V30 6800 C 637.345 -1.73339 -0.919134 0
M  V30 6801 O 636.47 -1.3152 -1.71847 0
M  V30 6802 C 637.065 -3.23118 1.01883 0
M  V30 6803 C 635.624 -3.69013 0.742051 0
M  V30 6804 C 634.771 -2.50121 1.19727 0
M  V30 6805 H 637.722 -1.16611 1.07646 0
M  V30 6806 H 637.743 -3.78875 0.351249 0
M  V30 6807 H 637.255 -3.26439 2.09903 0
M  V30 6808 H 635.356 -3.71173 -0.325816 0
M  V30 6809 H 635.469 -4.60117 1.33527 0
M  V30 6810 H 633.833 -2.47128 0.616418 0
M  V30 6811 H 634.616 -2.56174 2.28538 0
M  V30 6812 N 637.061 -0.65484 -1.43351 0
M  V30 6813 C 638.011 0.0581325 -2.27926 0
M  V30 6814 C 638.995 0.793188 -1.3999 0
M  V30 6815 O 640.187 0.675387 -1.63608 0
M  V30 6816 C 637.316 1.02272 -3.27712 0
M  V30 6817 C 636.402 0.286048 -4.23134 0
M  V30 6818 N 636.793 -0.698298 -5.00957 0
M  V30 6819 C 635.091 0.527272 -4.42872 0
M  V30 6820 C 635.792 -1.1357 -5.70506 0
M  V30 6821 N 634.768 -0.469631 -5.41568 0
M  V30 6822 H 638.57 -0.697182 -2.85511 0
M  V30 6823 H 636.084 -0.482252 -1.55074 0
M  V30 6824 H 638.081 1.5483 -3.87083 0
M  V30 6825 H 636.741 1.77807 -2.71688 0
M  V30 6826 H 637.752 -1.07708 -5.06576 0
M  V30 6827 H 634.429 1.26367 -3.97916 0
M  V30 6828 H 635.819 -1.95027 -6.42973 0
M  V30 6829 N 638.539 1.52521 -0.396863 0
M  V30 6830 C 639.489 2.2348 0.451722 0
M  V30 6831 C 640.473 1.2415 1.0235 0
M  V30 6832 O 641.665 1.4945 0.948348 0
M  V30 6833 C 638.794 3.05067 1.57445 0
M  V30 6834 C 637.88 4.11799 1.01404 0
M  V30 6835 N 638.271 5.05482 0.179234 0
M  V30 6836 C 636.569 4.27064 1.28578 0
M  V30 6837 C 637.27 5.81552 -0.131202 0
M  V30 6838 N 636.246 5.41523 0.474735 0
M  V30 6839 H 640.048 2.93269 -0.192534 0
M  V30 6840 H 637.562 1.61081 -0.206591 0
M  V30 6841 H 639.559 3.54446 2.19485 0
M  V30 6842 H 638.219 2.36816 2.22145 0
M  V30 6843 H 639.23 5.17573 -0.18411 0
M  V30 6844 H 635.907 3.70042 1.93327 0
M  V30 6845 H 637.297 6.67023 -0.808061 0
M  V30 6846 N 640.017 0.126909 1.57088 0
M  V30 6847 C 641.242 -0.53997 2.00248 0
M  V30 6848 C 641.667 -1.58927 1.00618 0
M  V30 6849 O 641.025 -1.81288 -0.0210131 0
M  V30 6850 C 641.073 -1.13565 3.4225 0
M  V30 6851 O 640.177 -2.25103 3.45547 0
M  V30 6852 H 639.518 -0.13412 0.650314 0
M  V30 6853 H 642.048 0.217718 2.03438 0
M  V30 6854 H 642.058 -1.46925 3.80627 0
M  V30 6855 H 640.733 -0.367122 4.14277 0
M  V30 6856 H 639.31 -1.93123 3.18995 0
M  V30 6857 N 641.495 -1.56914 -0.146875 0
M  V30 6858 C 642.743 -1.82994 -0.85777 0
M  V30 6859 C 643.064 -0.707814 -1.817 0
M  V30 6860 O 642.334 0.270521 -1.94023 0
M  V30 6861 H 640.914 -0.675106 -0.319751 0
M  V30 6862 H 643.576 -1.9439 -0.140849 0
M  V30 6863 H 642.672 -2.77928 -1.41994 0
M  V30 6864 N 642.974 0.416227 -1.52004 0
M  V30 6865 C 644.22 1.16555 -1.6596 0
M  V30 6866 C 644.553 1.90347 -0.384906 0
M  V30 6867 O 643.828 1.84474 0.616405 0
M  V30 6868 C 644.111 2.1657 -2.87696 0
M  V30 6869 C 643.964 1.46722 -4.25197 0
M  V30 6870 C 645.283 3.17321 -3.04951 0
M  V30 6871 H 642.402 0.422369 -0.603965 0
M  V30 6872 H 645.044 0.452141 -1.84542 0
M  V30 6873 H 643.194 2.77411 -2.71985 0
M  V30 6874 H 644.866 0.89056 -4.52622 0
M  V30 6875 H 643.109 0.769263 -4.26925 0
M  V30 6876 H 643.78 2.19665 -5.0641 0
M  V30 6877 H 646.256 2.66552 -3.19514 0
M  V30 6878 H 645.132 3.84573 -3.91656 0
M  V30 6879 H 645.393 3.84643 -2.17951 0
M  V30 6880 N 644.452 1.42507 0.673017 0
M  V30 6881 C 645.682 1.46261 1.45916 0
M  V30 6882 C 646.09 0.0729724 1.89059 0
M  V30 6883 O 645.433 -0.922987 1.58829 0
M  V30 6884 C 645.495 2.32853 2.73898 0
M  V30 6885 C 645.159 3.80699 2.52819 0
M  V30 6886 C 646.156 4.72307 2.17306 0
M  V30 6887 C 643.841 4.24983 2.67758 0
M  V30 6888 C 645.835 6.06192 1.97003 0
M  V30 6889 C 643.522 5.58927 2.4707 0
M  V30 6890 C 644.52 6.49348 2.11746 0
M  V30 6891 O 644.208 7.80817 1.91259 0
M  V30 6892 H 643.94 0.499561 0.455428 0
M  V30 6893 H 646.494 1.87697 0.834196 0
M  V30 6894 H 644.724 1.86268 3.38882 0
M  V30 6895 H 646.413 2.28041 3.35786 0
M  V30 6896 H 647.179 4.39378 2.05359 0
M  V30 6897 H 643.058 3.54893 2.94231 0
M  V30 6898 H 646.602 6.76731 1.69355 0
M  V30 6899 H 642.499 5.91429 2.58615 0
M  V30 6900 H 643.267 7.92194 2.05843 0
M  V30 6901 N 645.93 -0.909495 1.28709 0
M  V30 6902 C 647.341 -1.47419 1.14563 0
M  V30 6903 C 647.692 -1.94432 -0.262832 0
M  V30 6904 O 646.817 -1.82842 -1.15748 0
M  V30 6905 C 647.412 -2.67933 2.07358 0
M  V30 6906 C 645.971 -3.20568 1.97264 0
M  V30 6907 C 645.118 -1.93269 1.98852 0
M  V30 6908 H 648.069 -0.721787 1.41336 0
M  V30 6909 H 648.09 -3.43339 1.64007 0
M  V30 6910 H 647.602 -2.33685 3.09859 0
M  V30 6911 H 645.703 -3.59531 0.978157 0
M  V30 6912 H 645.816 -3.85529 2.84436 0
M  V30 6913 H 644.18 -2.10553 1.43317 0
M  V30 6914 H 644.963 -1.61312 3.0304 0
M  V30 6915 N 647.408 -1.11026 -1.11852 0
M  V30 6916 C 648.654 -0.857729 -1.83768 0
M  V30 6917 C 648.987 0.615143 -1.842 0
M  V30 6918 O 648.262 1.45391 -1.29196 0
M  V30 6919 C 648.545 -1.41453 -3.31154 0
M  V30 6920 C 648.398 -2.95471 -3.39142 0
M  V30 6921 C 649.717 -1.0619 -4.27097 0
M  V30 6922 H 646.836 -0.313044 -0.667212 0
M  V30 6923 H 649.478 -1.37443 -1.31185 0
M  V30 6924 H 647.628 -0.975052 -3.76065 0
M  V30 6925 H 649.3 -3.4799 -3.02821 0
M  V30 6926 H 647.543 -3.31759 -2.79497 0
M  V30 6927 H 648.214 -3.29515 -4.42859 0
M  V30 6928 H 650.69 -1.44122 -3.90344 0
M  V30 6929 H 649.566 -1.47832 -5.28618 0
M  V30 6930 H 649.827 0.0278912 -4.42091 0
M  V30 6931 N 648.886 1.2938 -0.899927 0
M  V30 6932 C 649.836 2.25311 -0.349165 0
M  V30 6933 C 650.82 1.51889 0.530892 0
M  V30 6934 O 652.012 1.73028 0.372872 0
M  V30 6935 C 649.141 3.40696 0.422055 0
M  V30 6936 C 648.227 4.21455 -0.472935 0
M  V30 6937 N 648.618 4.8048 -1.58026 0
M  V30 6938 C 646.916 4.45177 -0.270767 0
M  V30 6939 C 647.617 5.41117 -2.13465 0
M  V30 6940 N 646.593 5.24518 -1.42766 0
M  V30 6941 H 650.395 2.68507 -1.19505 0
M  V30 6942 H 647.909 1.43992 -0.751006 0
M  V30 6943 H 649.906 4.08486 0.833369 0
M  V30 6944 H 648.566 2.99037 1.2652 0
M  V30 6945 H 649.577 4.79257 -1.96299 0
M  V30 6946 H 646.254 4.14071 0.533988 0
M  V30 6947 H 647.644 5.979 -3.06537 0
M  V30 6948 N 650.364 0.662433 1.43002 0
M  V30 6949 C 651.61 0.179857 2.02001 0
M  V30 6950 C 651.943 -1.20625 1.52195 0
M  V30 6951 O 651.218 -1.80726 0.718911 0
M  V30 6952 C 651.501 0.200845 3.59539 0
M  V30 6953 C 651.354 1.62153 4.19555 0
M  V30 6954 C 652.673 -0.457738 4.37713 0
M  V30 6955 H 649.792 0.0668305 0.733964 0
M  V30 6956 H 652.434 0.84487 1.70182 0
M  V30 6957 H 650.584 -0.365411 3.86778 0
M  V30 6958 H 652.256 2.23908 4.03315 0
M  V30 6959 H 650.499 2.16601 3.75854 0
M  V30 6960 H 651.17 1.58799 5.28665 0
M  V30 6961 H 653.646 0.0241495 4.16093 0
M  V30 6962 H 652.522 -0.412363 5.47349 0
M  V30 6963 H 652.783 -1.53336 4.14657 0
M  V30 6964 N 651.842 -1.52309 0.404946 0
M  V30 6965 C 652.774 -2.24579 -0.45791 0
M  V30 6966 C 653.787 -1.2739 -1.01369 0
M  V30 6967 O 654.976 -1.53363 -0.91335 0
M  V30 6968 C 652.076 -2.9608 -1.64893 0
M  V30 6969 C 651.249 -4.20106 -1.21777 0
M  V30 6970 C 650.308 -4.74468 -2.27523 0
M  V30 6971 O 649.334 -5.37157 -1.88285 0
M  V30 6972 N 650.536 -4.55678 -3.59635 0
M  V30 6973 H 653.301 -2.99265 0.161341 0
M  V30 6974 H 650.862 -1.60228 0.232107 0
M  V30 6975 H 652.854 -3.29344 -2.35191 0
M  V30 6976 H 651.424 -2.24606 -2.17419 0
M  V30 6977 H 650.644 -3.92704 -0.343071 0
M  V30 6978 H 651.932 -5.00658 -0.906596 0
M  V30 6979 H 651.33 -4.05673 -3.94266 0
M  V30 6980 H 649.887 -4.9339 -4.25922 0
M  V30 6981 N 653.32 -0.135238 -1.57019 0
M  V30 6982 C 654.25 0.805235 -2.19176 0
M  V30 6983 C 655.231 1.2656 -1.13651 0
M  V30 6984 O 656.416 1.32528 -1.4195 0
M  V30 6985 C 653.546 2.04914 -2.80406 0
M  V30 6986 C 652.5 1.72598 -3.91655 0
M  V30 6987 C 651.826 3.04154 -4.39766 0
M  V30 6988 C 653.126 0.981709 -5.12991 0
M  V30 6989 H 654.82 0.287232 -2.98019 0
M  V30 6990 H 652.366 0.136714 -1.4335 0
M  V30 6991 H 654.319 2.71178 -3.22553 0
M  V30 6992 H 653.043 2.59067 -1.98877 0
M  V30 6993 H 651.702 1.08717 -3.50109 0
M  V30 6994 H 651.35 3.56274 -3.55075 0
M  V30 6995 H 651.05 2.83299 -5.14796 0
M  V30 6996 H 652.574 3.71509 -4.84576 0
M  V30 6997 H 653.988 1.5462 -5.52056 0
M  V30 6998 H 652.385 0.873533 -5.93708 0
M  V30 6999 H 653.455 -0.0286887 -4.84892 0
M  V30 7000 N 654.798 1.5699 0.138552 0
M  V30 7001 C 656.028 1.87704 0.863184 0
M  V30 7002 C 656.436 0.722411 1.74865 0
M  V30 7003 O 655.779 -0.316636 1.80951 0
M  V30 7004 C 655.841 3.13219 1.76449 0
M  V30 7005 C 655.505 4.44648 1.05532 0
M  V30 7006 C 656.502 5.18318 0.405252 0
M  V30 7007 C 654.187 4.91367 1.04231 0
M  V30 7008 C 656.181 6.36916 -0.24835 0
M  V30 7009 C 653.868 6.09887 0.384904 0
M  V30 7010 C 654.866 6.82508 -0.259292 0
M  V30 7011 O 654.554 7.98775 -0.906258 0
M  V30 7012 H 654.286 0.626255 0.254521 0
M  V30 7013 H 656.84 2.04966 0.133472 0
M  V30 7014 H 655.07 2.91988 2.53535 0
M  V30 7015 H 656.759 3.30111 2.36181 0
M  V30 7016 H 657.525 4.83289 0.407053 0
M  V30 7017 H 653.404 4.34759 1.53315 0
M  V30 7018 H 656.948 6.93538 -0.751755 0
M  V30 7019 H 652.845 6.44376 0.380799 0
M  V30 7020 H 653.613 8.14494 -0.80877 0
M  V30 7021 N 656.276 -0.40816 1.52223 0
M  V30 7022 C 657.186 -1.52202 1.78526 0
M  V30 7023 C 658.202 -1.60546 0.670892 0
M  V30 7024 O 659.378 -1.77242 0.956404 0
M  V30 7025 C 656.443 -2.87928 1.93128 0
M  V30 7026 C 655.504 -2.89463 3.17033 0
M  V30 7027 C 654.737 -4.18715 3.30929 0
M  V30 7028 O 654.96 -5.12662 2.50067 0
M  V30 7029 O 653.894 -4.27125 4.24084 0
M  V30 7030 H 657.72 -1.32911 2.73072 0
M  V30 7031 H 655.305 -0.594112 1.37079 0
M  V30 7032 H 657.187 -3.68426 2.04549 0
M  V30 7033 H 655.862 -3.07285 1.01772 0
M  V30 7034 H 654.769 -2.07815 3.11069 0
M  V30 7035 H 656.102 -2.75055 4.08174 0
M  V30 7036 N 657.755 -1.42862 -0.66545 0
M  V30 7037 C 658.718 -1.46756 -1.76055 0
M  V30 7038 C 659.718 -0.353866 -1.56858 0
M  V30 7039 O 660.908 -0.615099 -1.62979 0
M  V30 7040 C 658.04 -1.30829 -3.14796 0
M  V30 7041 H 659.233 -2.44271 -1.73987 0
M  V30 7042 H 656.786 -1.29447 -0.875965 0
M  V30 7043 H 657.521 -0.342733 -3.22484 0
M  V30 7044 H 657.306 -2.11551 -3.30134 0
M  V30 7045 H 658.796 -1.36458 -3.94676 0
M  V30 7046 N 659.233 0.902656 -1.29189 0
M  V30 7047 C 660.479 1.6555 -1.18172 0
M  V30 7048 C 660.834 1.90569 0.264788 0
M  V30 7049 O 660.127 1.50292 1.1884 0
M  V30 7050 C 660.321 3.011 -1.92545 0
M  V30 7051 C 660.15 2.89312 -3.4428 0
M  V30 7052 C 658.92 2.90239 -4.1363 0
M  V30 7053 C 661.118 2.6656 -4.3983 0
M  V30 7054 N 659.1 2.69156 -5.5175 0
M  V30 7055 C 660.471 2.54429 -5.6539 0
M  V30 7056 C 662.526 2.51644 -4.29627 0
M  V30 7057 C 661.229 2.289 -6.81907 0
M  V30 7058 C 663.255 2.27498 -5.45892 0
M  V30 7059 C 662.617 2.16129 -6.70423 0
M  V30 7060 H 658.716 0.611519 -0.48741 0
M  V30 7061 H 661.3 1.06514 -1.62981 0
M  V30 7062 H 659.471 3.58202 -1.50154 0
M  V30 7063 H 661.203 3.65471 -1.73818 0
M  V30 7064 H 657.958 3.01412 -3.65305 0
M  V30 7065 H 658.382 2.61676 -6.24383 0
M  V30 7066 H 663.024 2.59178 -3.34045 0
M  V30 7067 H 660.742 2.20104 -7.77547 0
M  V30 7068 H 664.328 2.16805 -5.39895 0
M  V30 7069 H 663.208 1.97703 -7.5887 0
M  V30 7070 N 660.711 1.11618 1.11262 0
M  V30 7071 C 661.658 0.7762 2.17356 0
M  V30 7072 C 662.628 -0.253152 1.6416 0
M  V30 7073 O 663.813 -0.129655 1.90359 0
M  V30 7074 C 660.953 0.227581 3.44349 0
M  V30 7075 C 660.066 1.31372 4.1154 0
M  V30 7076 C 659.201 0.72544 5.26223 0
M  V30 7077 C 658.24 1.7913 5.85302 0
M  V30 7078 N 657.377 1.22237 6.91377 0
M  V30 7079 H 662.217 1.68508 2.45783 0
M  V30 7080 H 659.754 0.841475 1.20655 0
M  V30 7081 H 661.712 -0.108483 4.17059 0
M  V30 7082 H 660.342 -0.644486 3.16301 0
M  V30 7083 H 659.394 1.7667 3.36885 0
M  V30 7084 H 660.706 2.12005 4.51504 0
M  V30 7085 H 659.86 0.339541 6.05749 0
M  V30 7086 H 658.599 -0.112188 4.87571 0
M  V30 7087 H 657.604 2.18648 5.04453 0
M  V30 7088 H 658.829 2.63199 6.26022 0
M  V30 7089 H 656.775 0.406423 6.5474 0
M  V30 7090 H 656.692 1.9654 7.30006 0
M  V30 7091 H 657.96 0.863426 7.74703 0
M  V30 7092 N 662.189 -1.289 0.906776 0
M  V30 7093 C 663.121 -2.26556 0.347159 0
M  V30 7094 C 664.134 -1.54589 -0.51049 0
M  V30 7095 O 665.323 -1.75489 -0.326501 0
M  V30 7096 C 662.423 -3.3484 -0.523024 0
M  V30 7097 C 661.596 -4.36296 0.310515 0
M  V30 7098 C 660.655 -5.23879 -0.493634 0
M  V30 7099 O 659.681 -5.69127 0.0913569 0
M  V30 7100 N 660.883 -5.51946 -1.7982 0
M  V30 7101 H 663.648 -2.75212 1.18652 0
M  V30 7102 H 661.209 -1.42309 0.771996 0
M  V30 7103 H 663.201 -3.90366 -1.06756 0
M  V30 7104 H 661.771 -2.85946 -1.26309 0
M  V30 7105 H 660.991 -3.80331 1.03644 0
M  V30 7106 H 662.279 -5.01113 0.881106 0
M  V30 7107 H 661.677 -5.17006 -2.2961 0
M  V30 7108 H 660.234 -6.10258 -2.28971 0
M  V30 7109 N 663.667 -0.670007 -1.42649 0
M  V30 7110 C 664.913 -0.190568 -2.01903 0
M  V30 7111 C 665.246 1.19817 -1.52832 0
M  V30 7112 O 664.521 1.80342 -0.728485 0
M  V30 7113 C 664.804 -0.21991 -3.59428 0
M  V30 7114 C 664.657 -1.64376 -4.18689 0
M  V30 7115 C 665.976 0.434519 -4.3795 0
M  V30 7116 H 663.095 -0.0707219 -0.733599 0
M  V30 7117 H 665.737 -0.853883 -1.69732 0
M  V30 7118 H 663.887 0.344894 -3.86966 0
M  V30 7119 H 665.559 -2.26044 -4.02122 0
M  V30 7120 H 663.802 -2.18591 -3.747 0
M  V30 7121 H 664.473 -1.61601 -5.27815 0
M  V30 7122 H 666.949 -0.0462156 -4.16074 0
M  V30 7123 H 665.825 0.38333 -5.4756 0
M  V30 7124 H 666.086 1.51135 -4.15464 0
M  V30 7125 N 665.145 1.52092 -0.413018 0
M  V30 7126 C 666.391 2.02815 0.154104 0
M  V30 7127 C 666.746 1.293 1.42475 0
M  V30 7128 O 666.039 0.391835 1.87551 0
M  V30 7129 C 666.233 3.54529 0.4521 0
M  V30 7130 C 666.062 4.4274 -0.788116 0
M  V30 7131 C 664.832 4.87903 -1.31447 0
M  V30 7132 C 667.03 4.86522 -1.66735 0
M  V30 7133 N 665.012 5.60254 -2.50976 0
M  V30 7134 C 666.383 5.57692 -2.70886 0
M  V30 7135 C 668.438 4.68534 -1.68465 0
M  V30 7136 C 667.141 6.12783 -3.76682 0
M  V30 7137 C 669.167 5.24524 -2.73182 0
M  V30 7138 C 668.529 5.9562 -3.76054 0
M  V30 7139 H 664.628 0.781796 0.0178567 0
M  V30 7140 H 667.212 1.86223 -0.568237 0
M  V30 7141 H 665.383 3.71186 1.14348 0
M  V30 7142 H 667.115 3.91934 1.00844 0
M  V30 7143 H 663.87 4.65504 -0.871931 0
M  V30 7144 H 664.294 6.01069 -3.11521 0
M  V30 7145 H 668.936 4.13051 -0.902708 0
M  V30 7146 H 666.654 6.67335 -4.55729 0
M  V30 7147 H 670.24 5.12473 -2.75433 0
M  V30 7148 H 669.12 6.38169 -4.55752 0
M  V30 7149 N 666.623 0.143563 1.56945 0
M  V30 7150 C 667.848 -0.518701 2.00809 0
M  V30 7151 C 668.273 -1.5785 1.02298 0
M  V30 7152 O 667.631 -1.813 -0.0017839 0
M  V30 7153 C 667.679 -1.09929 3.43436 0
M  V30 7154 O 666.783 -2.21425 3.47915 0
M  V30 7155 H 666.124 -0.127215 0.6517 0
M  V30 7156 H 668.654 0.239283 2.03196 0
M  V30 7157 H 668.664 -1.4288 3.82164 0
M  V30 7158 H 667.339 -0.323162 4.14643 0
M  V30 7159 H 665.916 -1.89728 3.21026 0
M  V30 7160 N 668.101 -1.57061 -0.130224 0
M  V30 7161 C 669.35 -1.83446 -0.838488 0
M  V30 7162 C 669.663 -0.727468 -1.81569 0
M  V30 7163 O 670.869 -0.877394 -2.56932 0
M  V30 7164 C 669.325 -3.25201 -1.54182 0
M  V30 7165 C 668.933 -4.4388 -0.606178 0
M  V30 7166 C 670.677 -3.60844 -2.23588 0
M  V30 7167 C 668.584 -5.76661 -1.31209 0
M  V30 7168 H 667.514 -0.684185 -0.316871 0
M  V30 7169 H 670.165 -1.83273 -0.0912059 0
M  V30 7170 H 668.547 -3.1981 -2.33533 0
M  V30 7171 H 669.721 -4.60545 0.153308 0
M  V30 7172 H 668.036 -4.16395 -0.0196705 0
M  V30 7173 H 670.633 -4.57313 -2.77072 0
M  V30 7174 H 670.976 -2.87724 -3.00867 0
M  V30 7175 H 671.509 -3.67971 -1.51137 0
M  V30 7176 H 668.248 -6.52922 -0.580823 0
M  V30 7177 H 667.768 -5.63902 -2.04387 0
M  V30 7178 H 669.447 -6.20035 -1.8484 0
M  V30 7179 N 669.579 0.400081 -1.52437 0
M  V30 7180 C 670.995 0.739359 -1.41441 0
M  V30 7181 C 671.195 1.94512 -0.526053 0
M  V30 7182 O 670.251 2.525 0.00472502 0
M  V30 7183 C 671.564 0.984824 -2.84116 0
M  V30 7184 C 673.112 1.08698 -2.93519 0
M  V30 7185 C 673.587 1.36515 -4.37181 0
M  V30 7186 N 675.078 1.43361 -4.40457 0
M  V30 7187 C 675.813 1.66528 -5.48686 0
M  V30 7188 N 675.309 1.87239 -6.67018 0
M  V30 7189 N 677.102 1.68617 -5.36213 0
M  V30 7190 H 669.253 -0.393484 -2.08723 0
M  V30 7191 H 671.516 -0.1138 -0.941145 0
M  V30 7192 H 671.222 0.171096 -3.51284 0
M  V30 7193 H 671.096 1.90253 -3.25705 0
M  V30 7194 H 673.483 1.89129 -2.26526 0
M  V30 7195 H 673.564 0.147432 -2.55375 0
M  V30 7196 H 673.208 0.565982 -5.04737 0
M  V30 7197 H 673.138 2.31737 -4.7287 0
M  V30 7198 H 675.629 1.29108 -3.55161 0
M  V30 7199 H 675.942 2.04392 -7.45281 0
M  V30 7200 H 674.287 1.84486 -6.70067 0
M  V30 7201 H 677.478 1.5198 -4.42741 0
M  V30 7202 H 677.651 1.86332 -6.20632 0
M  V30 7203 N 671.057 1.43213 0.657864 0
M  V30 7204 C 672.303 1.44798 1.41991 0
M  V30 7205 C 672.636 0.070256 1.94073 0
M  V30 7206 O 671.911 -0.908177 1.71995 0
M  V30 7207 C 672.194 2.4865 2.60471 0
M  V30 7208 C 672.047 3.95679 2.13911 0
M  V30 7209 C 673.366 2.49292 3.62686 0
M  V30 7210 H 670.485 0.527244 0.514959 0
M  V30 7211 H 673.127 1.74733 0.74621 0
M  V30 7212 H 671.277 2.23254 3.17946 0
M  V30 7213 H 672.949 4.32116 1.61472 0
M  V30 7214 H 671.192 4.08733 1.45325 0
M  V30 7215 H 671.863 4.6395 2.99089 0
M  V30 7216 H 674.339 2.71917 3.14961 0
M  V30 7217 H 673.215 3.23907 4.43143 0
M  V30 7218 H 673.476 1.52502 4.14964 0
M  V30 7219 N 672.536 -0.895792 1.29666 0
M  V30 7220 C 673.764 -1.68001 1.20761 0
M  V30 7221 C 674.179 -1.87379 -0.231187 0
M  V30 7222 O 673.536 -1.41359 -1.15429 0
M  V30 7223 C 673.587 -3.06236 1.92098 0
M  V30 7224 O 673.308 -2.8774 3.30359 0
M  V30 7225 C 674.809 -4.00652 1.89717 0
M  V30 7226 H 672.029 -0.524591 0.418384 0
M  V30 7227 H 674.573 -1.11995 1.71106 0
M  V30 7228 H 672.728 -3.59007 1.45578 0
M  V30 7229 H 673.142 -3.75359 3.66342 0
M  V30 7230 H 674.616 -4.95051 2.44189 0
M  V30 7231 H 675.093 -4.30424 0.873595 0
M  V30 7232 H 675.699 -3.53815 2.35998 0
M  V30 7233 N 674.014 -1.12206 -1.10668 0
M  V30 7234 C 675.239 -0.898938 -1.86906 0
M  V30 7235 C 675.664 0.546346 -1.79991 0
M  V30 7236 O 675.022 1.38655 -1.1681 0
M  V30 7237 C 675.07 -1.37529 -3.33344 0
M  V30 7238 O 674.174 -0.55218 -4.08687 0
M  V30 7239 H 673.515 -0.323163 -0.580053 0
M  V30 7240 H 676.045 -1.49355 -1.39837 0
M  V30 7241 H 676.055 -1.3733 -3.84193 0
M  V30 7242 H 674.73 -2.42767 -3.37693 0
M  V30 7243 H 673.307 -0.620947 -3.67694 0
M  V30 7244 N 675.492 1.28418 -0.913599 0
M  V30 7245 C 676.72 1.99106 -0.562536 0
M  V30 7246 C 677.135 1.68273 0.856137 0
M  V30 7247 O 676.492 0.935401 1.56705 0
M  V30 7248 C 676.543 3.5338 -0.761903 0
M  V30 7249 O 676.264 3.83127 -2.12475 0
M  V30 7250 C 677.765 4.41328 -0.417651 0
M  V30 7251 H 674.985 0.635798 -0.214481 0
M  V30 7252 H 677.529 1.63618 -1.22676 0
M  V30 7253 H 675.684 3.8713 -0.144676 0
M  V30 7254 H 676.098 4.77763 -2.16431 0
M  V30 7255 H 677.572 5.48642 -0.607919 0
M  V30 7256 H 678.049 4.34422 0.646108 0
M  V30 7257 H 678.655 4.13074 -1.01241 0
M  V30 7258 N 676.97 0.677563 1.42291 0
M  V30 7259 C 677.88 0.000962654 2.346 0
M  V30 7260 C 678.896 -0.785833 1.55244 0
M  V30 7261 O 680.072 -0.727523 1.87801 0
M  V30 7262 C 677.137 -0.936746 3.33805 0
M  V30 7263 C 676.198 -0.144173 4.29058 0
M  V30 7264 C 675.431 -1.03722 5.23524 0
M  V30 7265 O 675.654 -2.27675 5.22992 0
M  V30 7266 O 674.588 -0.496542 5.99848 0
M  V30 7267 H 678.414 0.761397 2.94001 0
M  V30 7268 H 675.999 0.43781 1.42841 0
M  V30 7269 H 677.881 -1.47497 3.94744 0
M  V30 7270 H 676.556 -1.67698 2.76874 0
M  V30 7271 H 675.463 0.438224 3.71524 0
M  V30 7272 H 676.796 0.55701 4.89038 0
M  V30 7273 N 678.448 -1.51871 0.421078 0
M  V30 7274 C 679.358 -2.31077 -0.405069 0
M  V30 7275 C 680.374 -1.39301 -1.04265 0
M  V30 7276 O 681.55 -1.72376 -1.04157 0
M  V30 7277 C 678.615 -3.12556 -1.50032 0
M  V30 7278 C 677.676 -4.20088 -0.884559 0
M  V30 7279 C 676.909 -4.97673 -1.92762 0
M  V30 7280 O 677.132 -4.75696 -3.14753 0
M  V30 7281 O 676.066 -5.82203 -1.52719 0
M  V30 7282 H 679.892 -3.02742 0.241086 0
M  V30 7283 H 677.477 -1.48263 0.183991 0
M  V30 7284 H 679.359 -3.6326 -2.13589 0
M  V30 7285 H 678.034 -2.43672 -2.13086 0
M  V30 7286 H 676.941 -3.73502 -0.211379 0
M  V30 7287 H 678.274 -4.91298 -0.297763 0
M  V30 7288 N 679.926 -0.151884 -1.56866 0
M  V30 7289 C 681.156 0.504081 -2.00356 0
M  V30 7290 C 681.564 1.58639 -1.03103 0
M  V30 7291 O 680.907 1.83688 -0.0207931 0
M  V30 7292 C 680.969 1.15975 -3.40279 0
M  V30 7293 C 680.633 0.221453 -4.56463 0
M  V30 7294 C 681.63 -0.552766 -5.16953 0
M  V30 7295 C 679.315 0.122936 -5.0215 0
M  V30 7296 C 681.309 -1.4129 -6.21543 0
M  V30 7297 C 678.996 -0.740801 -6.06593 0
M  V30 7298 C 679.994 -1.50732 -6.6616 0
M  V30 7299 O 679.682 -2.35666 -7.68581 0
M  V30 7300 H 679.414 0.135279 -0.662326 0
M  V30 7301 H 681.968 -0.244916 -2.03935 0
M  V30 7302 H 680.198 1.95649 -3.33554 0
M  V30 7303 H 681.887 1.71594 -3.67846 0
M  V30 7304 H 682.653 -0.486716 -4.82552 0
M  V30 7305 H 678.532 0.70931 -4.5551 0
M  V30 7306 H 682.076 -2.01166 -6.67966 0
M  V30 7307 H 677.973 -0.808125 -6.40421 0
M  V30 7308 H 678.741 -2.28967 -7.85822 0
M  V30 7309 N 681.404 1.57128 0.121893 0
M  V30 7310 C 682.815 1.73902 0.679348 0
M  V30 7311 C 683.166 0.770135 1.80453 0
M  V30 7312 O 682.291 -0.0576083 2.16323 0
M  V30 7313 C 682.886 3.15328 1.2391 0
M  V30 7314 C 681.445 3.33618 1.74288 0
M  V30 7315 C 680.592 2.6978 0.641414 0
M  V30 7316 H 683.543 1.58359 -0.104 0
M  V30 7317 H 683.564 3.16718 2.10879 0
M  V30 7318 H 683.076 3.85821 0.419957 0
M  V30 7319 H 681.177 2.68162 2.58689 0
M  V30 7320 H 681.29 4.4176 1.85432 0
M  V30 7321 H 679.654 2.30935 1.0743 0
M  V30 7322 H 680.437 3.42895 -0.166707 0
M  V30 7323 N 682.882 -0.391992 1.52647 0
M  V30 7324 C 683.832 -1.47815 1.73594 0
M  V30 7325 C 684.816 -1.49693 0.589979 0
M  V30 7326 O 686.008 -1.5538 0.847701 0
M  V30 7327 C 683.137 -2.85561 1.90551 0
M  V30 7328 C 682.223 -2.88264 3.1107 0
M  V30 7329 N 682.614 -2.60642 4.33474 0
M  V30 7330 C 680.912 -3.19432 3.11254 0
M  V30 7331 C 681.613 -2.70351 5.15058 0
M  V30 7332 N 680.589 -3.03956 4.50679 0
M  V30 7333 H 684.391 -1.2528 2.65861 0
M  V30 7334 H 681.905 -0.599907 1.50913 0
M  V30 7335 H 683.902 -3.63759 2.03678 0
M  V30 7336 H 682.562 -3.09081 0.994952 0
M  V30 7337 H 683.573 -2.34718 4.61658 0
M  V30 7338 H 680.25 -3.48436 2.29997 0
M  V30 7339 H 681.64 -2.52565 6.22624 0
M  V30 7340 N 684.36 -1.4356 -0.65026 0
M  V30 7341 C 685.29 -1.51758 -1.77459 0
M  V30 7342 C 686.271 -0.372019 -1.65982 0
M  V30 7343 O 687.456 -0.589627 -1.85033 0
M  V30 7344 C 684.586 -1.44302 -3.15902 0
M  V30 7345 C 683.54 -2.57138 -3.42146 0
M  V30 7346 C 682.866 -2.34735 -4.8042 0
M  V30 7347 C 684.166 -3.99373 -3.36598 0
M  V30 7348 H 685.86 -2.45863 -1.70855 0
M  V30 7349 H 683.406 -1.18333 -0.820566 0
M  V30 7350 H 685.359 -1.48641 -3.94314 0
M  V30 7351 H 684.083 -0.467026 -3.23244 0
M  V30 7352 H 682.742 -2.52157 -2.66106 0
M  V30 7353 H 682.39 -1.35372 -4.84441 0
M  V30 7354 H 682.09 -3.10375 -4.9894 0
M  V30 7355 H 683.614 -2.40862 -5.61086 0
M  V30 7356 H 685.028 -4.05826 -4.04942 0
M  V30 7357 H 683.425 -4.75063 -3.66654 0
M  V30 7358 H 684.495 -4.243 -2.34729 0
M  V30 7359 N 685.838 0.888903 -1.30139 0
M  V30 7360 C 686.785 1.99422 -1.16188 0
M  V30 7361 C 687.755 1.66017 -0.0523869 0
M  V30 7362 O 688.94 1.89506 -0.221864 0
M  V30 7363 C 686.08 3.34325 -0.855612 0
M  V30 7364 C 685.193 3.80445 -2.0466 0
M  V30 7365 C 684.328 5.03975 -1.67876 0
M  V30 7366 C 683.367 5.42492 -2.83493 0
M  V30 7367 N 682.504 6.57206 -2.47032 0
M  V30 7368 H 687.344 2.10687 -2.10749 0
M  V30 7369 H 684.881 1.03165 -1.04859 0
M  V30 7370 H 686.839 4.11968 -0.658681 0
M  V30 7371 H 685.469 3.22756 0.0531155 0
M  V30 7372 H 684.521 2.98745 -2.3549 0
M  V30 7373 H 685.833 4.04933 -2.91257 0
M  V30 7374 H 684.987 5.89232 -1.44535 0
M  V30 7375 H 683.726 4.8135 -0.784431 0
M  V30 7376 H 682.731 4.55764 -3.07505 0
M  V30 7377 H 683.956 5.67093 -3.73607 0
M  V30 7378 H 681.902 6.36164 -1.601 0
M  V30 7379 H 681.819 6.81543 -3.27161 0
M  V30 7380 H 683.087 7.45704 -2.27038 0
M  V30 7381 N 687.317 1.12792 1.10072 0
M  V30 7382 C 688.728 0.899346 1.63611 0
M  V30 7383 C 689.079 -0.565547 1.87872 0
M  V30 7384 O 688.204 -1.43081 1.62348 0
M  V30 7385 C 688.799 1.62608 2.97227 0
M  V30 7386 C 687.358 1.44356 3.47618 0
M  V30 7387 C 686.505 1.65958 2.22156 0
M  V30 7388 H 689.456 1.28216 0.935223 0
M  V30 7389 H 689.477 1.0793 3.64872 0
M  V30 7390 H 688.989 2.69221 2.79538 0
M  V30 7391 H 687.09 0.400148 3.70445 0
M  V30 7392 H 687.203 2.20218 4.25489 0
M  V30 7393 H 685.567 1.08395 2.30484 0
M  V30 7394 H 686.35 2.73877 2.06993 0
M  V30 7395 N 688.795 -1.27931 0.920396 0
M  V30 7396 C 689.758 -2.25345 0.41858 0
M  V30 7397 C 690.758 -1.54116 -0.458798 0
M  V30 7398 O 691.948 -1.72235 -0.260912 0
M  V30 7399 C 689.08 -3.38556 -0.399104 0
M  V30 7400 H 690.273 -2.71251 1.27918 0
M  V30 7401 H 687.826 -1.39728 0.700406 0
M  V30 7402 H 688.561 -2.98021 -1.27882 0
M  V30 7403 H 688.346 -3.91426 0.229863 0
M  V30 7404 H 689.836 -4.10976 -0.740817 0
M  V30 7405 N 690.273 -0.685099 -1.4193 0
M  V30 7406 C 691.689 -0.355632 -1.55587 0
M  V30 7407 C 691.889 1.13823 -1.66273 0
M  V30 7408 O 690.945 1.92387 -1.63534 0
M  V30 7409 C 692.258 -1.09498 -2.80055 0
M  V30 7410 C 693.806 -1.07831 -2.93839 0
M  V30 7411 C 694.281 -1.79919 -4.21181 0
M  V30 7412 N 695.772 -1.76837 -4.28115 0
M  V30 7413 C 696.507 -2.29463 -5.25485 0
M  V30 7414 N 696.003 -2.90516 -6.28945 0
M  V30 7415 N 697.796 -2.19779 -5.17353 0
M  V30 7416 H 689.947 -1.65412 -1.33239 0
M  V30 7417 H 692.21 -0.697453 -0.642078 0
M  V30 7418 H 691.916 -2.14997 -2.78333 0
M  V30 7419 H 691.79 -0.666813 -3.71259 0
M  V30 7420 H 694.177 -0.0316152 -2.95083 0
M  V30 7421 H 694.258 -1.54545 -2.03837 0
M  V30 7422 H 693.902 -2.84562 -4.20698 0
M  V30 7423 H 693.832 -1.30647 -5.10136 0
M  V30 7424 H 696.323 -1.32315 -3.53979 0
M  V30 7425 H 696.636 -3.28266 -6.99615 0
M  V30 7426 H 694.981 -2.94589 -6.29478 0
M  V30 7427 H 698.172 -1.71763 -4.35448 0
M  V30 7428 H 698.345 -2.61097 -5.9307 0
M  V30 7429 N 691.751 1.51645 -0.429126 0
M  V30 7430 C 692.981 2.06133 0.138793 0
M  V30 7431 C 693.389 1.29735 1.37716 0
M  V30 7432 O 692.732 0.347955 1.80375 0
M  V30 7433 C 692.794 3.55504 0.534493 0
M  V30 7434 C 692.458 4.53098 -0.595917 0
M  V30 7435 C 693.455 4.98815 -1.46558 0
M  V30 7436 C 691.14 4.96296 -0.774309 0
M  V30 7437 C 693.134 5.86394 -2.4984 0
M  V30 7438 C 690.821 5.83667 -1.81042 0
M  V30 7439 C 691.819 6.28613 -2.67086 0
M  V30 7440 O 691.507 7.14251 -3.68919 0
M  V30 7441 H 691.239 0.675833 0.0150263 0
M  V30 7442 H 693.793 1.96301 -0.604584 0
M  V30 7443 H 692.023 3.63092 1.33045 0
M  V30 7444 H 693.712 3.92545 1.03262 0
M  V30 7445 H 694.478 4.66143 -1.33925 0
M  V30 7446 H 690.357 4.60859 -0.114178 0
M  V30 7447 H 693.901 6.21398 -3.17034 0
M  V30 7448 H 689.798 6.15753 -1.93698 0
M  V30 7449 H 690.566 7.3241 -3.65402 0
M  V30 7450 N 693.229 0.160201 1.56784 0
M  V30 7451 C 694.645 -0.196089 1.58391 0
M  V30 7452 C 694.845 -1.63689 1.17508 0
M  V30 7453 O 693.901 -2.36613 0.881506 0
M  V30 7454 C 695.214 0.0746449 3.00607 0
M  V30 7455 C 696.762 0.0119762 3.12998 0
M  V30 7456 C 697.237 0.255551 4.57286 0
M  V30 7457 N 698.728 0.202938 4.62755 0
M  V30 7458 C 699.463 0.365731 5.72232 0
M  V30 7459 N 698.959 0.586972 6.90309 0
M  V30 7460 N 700.752 0.302411 5.61286 0
M  V30 7461 H 692.903 1.1008 1.81648 0
M  V30 7462 H 695.166 0.436779 0.841384 0
M  V30 7463 H 694.872 1.07231 3.34954 0
M  V30 7464 H 694.746 -0.638802 3.71751 0
M  V30 7465 H 697.133 -0.976254 2.78484 0
M  V30 7466 H 697.214 0.75796 2.44313 0
M  V30 7467 H 696.858 1.24094 4.92507 0
M  V30 7468 H 696.788 -0.510912 5.24116 0
M  V30 7469 H 699.279 0.0371328 3.77882 0
M  V30 7470 H 699.592 0.700941 7.69615 0
M  V30 7471 H 697.937 0.623453 6.92198 0
M  V30 7472 H 701.128 0.130238 4.67919 0
M  V30 7473 H 701.301 0.432712 6.46554 0
M  V30 7474 N 694.707 -1.5719 -0.113559 0
M  V30 7475 C 696.123 -1.52607 -0.467253 0
M  V30 7476 C 696.323 -0.874058 -1.81556 0
M  V30 7477 O 695.379 -0.458703 -2.48299 0
M  V30 7478 C 696.692 -2.97363 -0.446736 0
M  V30 7479 C 698.24 -3.08482 -0.529903 0
M  V30 7480 C 698.715 -4.54809 -0.539721 0
M  V30 7481 N 700.206 -4.59284 -0.601005 0
M  V30 7482 C 700.941 -5.69927 -0.630138 0
M  V30 7483 N 700.437 -6.90051 -0.616589 0
M  V30 7484 N 702.23 -5.5805 -0.673558 0
M  V30 7485 H 694.381 -1.97958 0.769819 0
M  V30 7486 H 696.644 -0.90428 0.284572 0
M  V30 7487 H 696.35 -3.48458 0.47643 0
M  V30 7488 H 696.224 -3.55086 -1.27254 0
M  V30 7489 H 698.611 -2.57386 -1.44349 0
M  V30 7490 H 698.692 -2.53744 0.323695 0
M  V30 7491 H 698.336 -5.06552 0.369843 0
M  V30 7492 H 698.266 -5.07364 -1.41028 0
M  V30 7493 H 700.757 -3.72822 -0.617419 0
M  V30 7494 H 701.07 -7.70132 -0.641592 0
M  V30 7495 H 699.415 -6.92543 -0.583927 0
M  V30 7496 H 702.606 -4.63112 -0.681544 0
M  V30 7497 H 702.779 -6.44286 -0.692794 0
M  V30 7498 N 696.185 0.383891 -1.52853 0
M  V30 7499 C 697.433 1.12619 -1.67814 0
M  V30 7500 C 697.754 1.90354 -0.423141 0
M  V30 7501 O 697.024 1.87649 0.562554 0
M  V30 7502 H 695.604 0.418738 -0.618601 0
M  V30 7503 H 698.266 0.43495 -1.89985 0
M  V30 7504 H 697.362 1.82624 -2.5309 0
M  V30 7505 N 697.663 1.43903 0.642637 0
M  V30 7506 C 698.91 1.46079 1.40239 0
M  V30 7507 C 699.238 0.0890335 1.94296 0
M  V30 7508 O 698.493 -0.907533 1.73385 0
M  V30 7509 C 698.792 2.45907 2.59354 0
M  V30 7510 C 698.458 3.91522 2.23654 0
M  V30 7511 C 697.12 4.31179 2.1363 0
M  V30 7512 C 699.472 4.83242 1.95261 0
M  V30 7513 C 696.8 5.60495 1.73384 0
M  V30 7514 C 699.152 6.12933 1.56511 0
M  V30 7515 C 697.816 6.51556 1.4502 0
M  V30 7516 H 697.086 0.534542 0.513172 0
M  V30 7517 H 699.733 1.77047 0.72984 0
M  V30 7518 H 698.038 2.08381 3.3179 0
M  V30 7519 H 699.735 2.44842 3.17574 0
M  V30 7520 H 696.325 3.60142 2.32369 0
M  V30 7521 H 700.509 4.53367 2.0192 0
M  V30 7522 H 695.765 5.89249 1.63082 0
M  V30 7523 H 699.939 6.83469 1.33576 0
M  V30 7524 H 697.566 7.51663 1.13606 0
M  V30 7525 N 699.141 -0.881989 1.30609 0
M  V30 7526 C 700.39 -1.62878 1.18969 0
M  V30 7527 C 700.703 -1.93946 -0.253859 0
M  V30 7528 O 701.909 -2.67008 -0.491813 0
M  V30 7529 C 700.365 -2.93573 2.0819 0
M  V30 7530 C 699.973 -2.70034 3.57471 0
M  V30 7531 C 701.717 -3.71543 2.0532 0
M  V30 7532 C 699.624 -3.96563 4.38739 0
M  V30 7533 H 698.554 -0.611092 0.441682 0
M  V30 7534 H 701.205 -0.976201 1.55379 0
M  V30 7535 H 699.587 -3.6014 1.64666 0
M  V30 7536 H 700.761 -2.11949 4.09163 0
M  V30 7537 H 699.076 -2.05435 3.62195 0
M  V30 7538 H 701.673 -4.65386 2.63288 0
M  V30 7539 H 702.016 -4.03167 1.03739 0
M  V30 7540 H 702.549 -3.11842 2.46981 0
M  V30 7541 H 699.288 -3.70095 5.41027 0
M  V30 7542 H 698.808 -4.54142 3.9181 0
M  V30 7543 H 700.487 -4.64557 4.50329 0
M  V30 7544 N 700.619 -1.13374 -1.09472 0
M  V30 7545 C 701.569 -0.77946 -2.14263 0
M  V30 7546 C 702.553 0.226271 -1.59301 0
M  V30 7547 O 703.745 0.0302581 -1.76974 0
M  V30 7548 C 700.874 -0.246635 -3.42413 0
M  V30 7549 C 699.96 -1.28124 -4.04283 0
M  V30 7550 N 700.351 -2.48201 -4.40715 0
M  V30 7551 C 698.649 -1.12892 -4.31476 0
M  V30 7552 C 699.35 -3.14347 -4.8945 0
M  V30 7553 N 698.326 -2.41771 -4.86876 0
M  V30 7554 H 702.128 -1.69305 -2.40235 0
M  V30 7555 H 699.642 -1.01598 -1.26695 0
M  V30 7556 H 701.639 0.0254131 -4.16892 0
M  V30 7557 H 700.299 0.661287 -3.17895 0
M  V30 7558 H 701.31 -2.85511 -4.32093 0
M  V30 7559 H 697.987 -0.279117 -4.16566 0
M  V30 7560 H 699.377 -4.16663 -5.27107 0
M  V30 7561 N 702.098 1.27442 -0.927168 0
M  V30 7562 C 703.046 2.28844 -0.416333 0
M  V30 7563 C 704.04 1.61882 0.499057 0
M  V30 7564 O 705.246 1.75969 0.378817 0
M  V30 7565 H 701.621 0.742989 -0.116065 0
M  V30 7566 H 703.592 2.69344 -1.28438 0
M  V30 7567 C 702.341 3.4626 0.316107 0
M  V30 7568 H 701.664 3.97999 -0.379082 0
M  V30 7569 H 703.104 4.19173 0.637975 0
M  V30 7570 C 701.563 3.00211 1.5289 0
M  V30 7571 O 702.093 3.03837 2.62766 0
M  V30 7572 N 700.299 2.55713 1.38054 0
M  V30 7573 H 699.846 2.52962 0.4866 0
M  V30 7574 H 699.804 2.25264 2.19325 0
M  V30 7575 N 703.576 0.692616 1.41565 0
M  V30 7576 C 704.824 0.221896 2.00878 0
M  V30 7577 C 705.145 -1.18164 1.5512 0
M  V30 7578 O 704.415 -1.79679 0.78054 0
M  V30 7579 H 702.995 0.0790463 0.742806 0
M  V30 7580 H 705.657 0.893115 1.73232 0
M  V30 7581 H 704.753 0.23702 3.11199 0
M  V30 7582 N 705.054 -1.51416 0.437162 0
M  V30 7583 C 706.303 -2.01275 -0.130865 0
M  V30 7584 C 706.616 -1.32593 -1.438 0
M  V30 7585 O 707.822 -1.7342 -2.08897 0
M  V30 7586 C 706.278 -3.5878 -0.283763 0
M  V30 7587 C 705.886 -4.36399 1.01293 0
M  V30 7588 C 707.63 -4.16786 -0.805569 0
M  V30 7589 C 705.537 -5.85608 0.825687 0
M  V30 7590 H 704.467 -0.752157 -0.0526818 0
M  V30 7591 H 707.118 -1.74524 0.566896 0
M  V30 7592 H 705.5 -3.81976 -1.04452 0
M  V30 7593 H 706.674 -4.24948 1.78201 0
M  V30 7594 H 704.989 -3.89843 1.46326 0
M  V30 7595 H 707.586 -5.25972 -0.962146 0
M  V30 7596 H 707.929 -3.75949 -1.78796 0
M  V30 7597 H 708.462 -3.97666 -0.103125 0
M  V30 7598 H 705.201 -6.30857 1.78045 0
M  V30 7599 H 704.721 -5.99723 0.0964029 0
M  V30 7600 H 706.4 -6.45226 0.478815 0
M  V30 7601 N 706.532 -0.168513 -1.56696 0
M  V30 7602 C 707.465 0.801477 -2.13662 0
M  V30 7603 C 708.443 1.22786 -1.06594 0
M  V30 7604 O 709.627 1.32014 -1.34554 0
M  V30 7605 C 706.754 2.07896 -2.6739 0
M  V30 7606 C 705.8 1.79681 -3.86803 0
M  V30 7607 S 706.633 0.968556 -5.26668 0
M  V30 7608 C 707.789 2.25676 -5.83799 0
M  V30 7609 H 708.022 0.317121 -2.95604 0
M  V30 7610 H 705.555 0.0461132 -1.54331 0
M  V30 7611 H 707.513 2.81272 -2.98992 0
M  V30 7612 H 706.174 2.53445 -1.85539 0
M  V30 7613 H 705.367 2.74461 -4.22714 0
M  V30 7614 H 704.969 1.14402 -3.56073 0
M  V30 7615 H 707.261 3.2116 -5.96542 0
M  V30 7616 H 708.204 1.94238 -6.80939 0
M  V30 7617 H 708.612 2.37308 -5.12197 0
M  V30 7618 N 708.01 1.57248 0.105221 0
M  V30 7619 C 709.256 1.85845 0.811753 0
M  V30 7620 C 709.589 0.756219 1.78871 0
M  V30 7621 O 708.864 -0.236736 1.93054 0
M  V30 7622 C 709.147 3.25059 1.54947 0
M  V30 7623 C 709 4.45898 0.591185 0
M  V30 7624 C 710.319 3.6203 2.50245 0
M  V30 7625 H 707.438 0.675973 0.293649 0
M  V30 7626 H 710.08 1.89849 0.0756269 0
M  V30 7627 H 708.23 3.21776 2.17698 0
M  V30 7628 H 709.902 4.61291 -0.0285352 0
M  V30 7629 H 708.145 4.33693 -0.0962343 0
M  V30 7630 H 708.816 5.40009 1.1443 0
M  V30 7631 H 711.292 3.66192 1.97593 0
M  V30 7632 H 710.168 4.60389 2.98886 0
M  V30 7633 H 710.429 2.90176 3.33542 0
M  V30 7634 N 709.488 -0.375779 1.53054 0
M  V30 7635 C 710.418 -1.46598 1.81745 0
M  V30 7636 C 711.399 -1.56337 0.670286 0
M  V30 7637 O 712.584 -1.71071 0.919158 0
M  V30 7638 C 709.714 -2.84058 1.99821 0
M  V30 7639 C 708.668 -2.8915 3.15557 0
M  V30 7640 C 707.994 -4.29187 3.18908 0
M  V30 7641 C 709.294 -2.57595 4.54359 0
M  V30 7642 H 710.988 -1.22837 2.73041 0
M  V30 7643 H 708.534 -0.589485 1.31381 0
M  V30 7644 H 710.487 -3.60342 2.18475 0
M  V30 7645 H 709.211 -3.09184 1.05226 0
M  V30 7646 H 707.87 -2.15316 2.96706 0
M  V30 7647 H 707.518 -4.51374 2.2197 0
M  V30 7648 H 707.218 -4.33512 3.96662 0
M  V30 7649 H 708.742 -5.07359 3.39734 0
M  V30 7650 H 710.156 -3.23595 4.73243 0
M  V30 7651 H 708.553 -2.73252 5.34279 0
M  V30 7652 H 709.623 -1.52882 4.60169 0
M  V30 7653 N 710.966 -1.44241 -0.634997 0
M  V30 7654 C 712.377 -1.41622 -1.21655 0
M  V30 7655 C 712.728 -0.129584 -1.95772 0
M  V30 7656 O 711.853 0.770225 -2.02229 0
M  V30 7657 C 712.448 -2.56557 -2.21278 0
M  V30 7658 C 711.007 -2.57145 -2.7487 0
M  V30 7659 C 710.154 -2.33354 -1.49804 0
M  V30 7660 H 713.105 -1.52878 -0.425905 0
M  V30 7661 H 713.126 -2.29089 -3.03807 0
M  V30 7662 H 712.638 -3.50186 -1.67306 0
M  V30 7663 H 710.739 -1.67447 -3.32855 0
M  V30 7664 H 710.852 -3.55507 -3.21172 0
M  V30 7665 H 709.216 -1.82372 -1.77799 0
M  V30 7666 H 709.999 -3.29092 -0.977402 0
M  V30 7667 N 712.444 0.87505 -1.31075 0
M  V30 7668 C 713.86 1.15997 -1.09622 0
M  V30 7669 C 714.06 2.01036 0.136611 0
M  V30 7670 O 713.116 2.38559 0.827397 0
M  V30 7671 C 714.429 1.85702 -2.36506 0
M  V30 7672 C 715.977 1.98425 -2.42067 0
M  V30 7673 C 716.452 2.71544 -3.68819 0
M  V30 7674 N 717.943 2.79084 -3.69684 0
M  V30 7675 C 718.678 3.36259 -4.64454 0
M  V30 7676 N 718.174 3.94406 -5.69575 0
M  V30 7677 N 719.967 3.34169 -4.51982 0
M  V30 7678 H 712.118 0.308258 -2.10151 0
M  V30 7679 H 714.381 0.199145 -0.926847 0
M  V30 7680 H 714.087 1.30663 -3.26527 0
M  V30 7681 H 713.961 2.86017 -2.45915 0
M  V30 7682 H 716.348 2.5263 -1.52518 0
M  V30 7683 H 716.429 0.971682 -2.36626 0
M  V30 7684 H 716.073 2.18008 -4.58732 0
M  V30 7685 H 716.003 3.73198 -3.71525 0
M  V30 7686 H 718.494 2.3781 -2.93691 0
M  V30 7687 H 718.807 4.36129 -6.37974 0
M  V30 7688 H 717.152 3.92797 -5.73355 0
M  V30 7689 H 720.343 2.87977 -3.69035 0
M  V30 7690 H 720.516 3.78431 -5.26017 0
M  V30 7691 N 713.922 1.13953 1.08869 0
M  V30 7692 C 714.854 0.779906 2.15523 0
M  V30 7693 C 715.867 -0.20102 1.61554 0
M  V30 7694 O 717.056 0.0200049 1.78489 0
M  V30 7695 C 714.156 0.136226 3.38626 0
M  V30 7696 C 713.329 1.15069 4.21993 0
M  V30 7697 C 712.388 0.531645 5.23507 0
M  V30 7698 O 711.414 1.19327 5.56552 0
M  V30 7699 N 712.616 -0.693734 5.7634 0
M  V30 7700 H 715.381 1.69769 2.46979 0
M  V30 7701 H 712.942 1.03331 1.24637 0
M  V30 7702 H 714.934 -0.290295 4.03658 0
M  V30 7703 H 713.504 -0.684603 3.05011 0
M  V30 7704 H 712.724 1.75431 3.53012 0
M  V30 7705 H 714.012 1.83614 4.74514 0
M  V30 7706 H 713.41 -1.24994 5.51718 0
M  V30 7707 H 711.967 -1.06283 6.43076 0
M  V30 7708 N 715.4 -1.26948 0.933913 0
M  V30 7709 C 716.628 -1.98186 0.59414 0
M  V30 7710 C 717.043 -1.69614 -0.829257 0
M  V30 7711 O 716.4 -0.960213 -1.55197 0
M  V30 7712 C 716.451 -3.52123 0.818026 0
M  V30 7713 O 716.172 -3.79698 2.18543 0
M  V30 7714 C 717.673 -4.40608 0.48781 0
M  V30 7715 H 714.893 -0.632305 0.224569 0
M  V30 7716 H 717.437 -1.61646 1.25263 0
M  V30 7717 H 715.592 -3.86851 0.206246 0
M  V30 7718 H 716.006 -4.7426 2.24005 0
M  V30 7719 H 717.48 -5.47606 0.695126 0
M  V30 7720 H 717.957 -4.35394 -0.576913 0
M  V30 7721 H 718.563 -4.11411 1.078 0
M  V30 7722 N 716.879 -0.700114 -1.41195 0
M  V30 7723 C 718.119 -0.237223 -2.03019 0
M  V30 7724 C 718.483 1.14304 -1.54268 0
M  V30 7725 O 719.684 1.70204 -2.08048 0
M  V30 7726 C 717.955 -0.297442 -3.5616 0
M  V30 7727 S 719.514 0.0907367 -4.38706 0
M  V30 7728 H 716.332 -0.0952147 -0.704596 0
M  V30 7729 H 718.934 -0.918901 -1.72559 0
M  V30 7730 H 717.638 -1.30391 -3.89135 0
M  V30 7731 H 717.169 0.403233 -3.91328 0
M  V30 7732 H 719.184 1.31721 -4.78397 0
M  V30 7733 N 718.357 1.51182 -0.445186 0
M  V30 7734 C 719.605 2.01753 0.11841 0
M  V30 7735 C 719.926 1.33087 1.42523 0
M  V30 7736 O 719.196 0.467891 1.9023 0
M  V30 7737 H 717.776 0.745536 0.0467492 0
M  V30 7738 H 720.438 1.85765 -0.589688 0
M  V30 7739 H 719.534 3.10762 0.288665 0
M  V30 7740 N 719.835 0.176821 1.56605 0
M  V30 7741 C 720.765 -0.746841 2.21234 0
M  V30 7742 C 721.746 -1.23502 1.16967 0
M  V30 7743 O 722.931 -1.28718 1.45414 0
M  V30 7744 C 720.061 -1.97407 2.8574 0
M  V30 7745 C 719.015 -1.62153 3.96094 0
M  V30 7746 C 718.341 -2.92387 4.47676 0
M  V30 7747 C 719.641 -0.845353 5.15413 0
M  V30 7748 H 721.335 -0.208116 2.98676 0
M  V30 7749 H 718.881 -0.0986594 1.43662 0
M  V30 7750 H 720.834 -2.62531 3.2963 0
M  V30 7751 H 719.558 -2.53703 2.05676 0
M  V30 7752 H 718.217 -0.993964 3.52868 0
M  V30 7753 H 717.865 -3.46734 3.64396 0
M  V30 7754 H 717.565 -2.69551 5.22127 0
M  V30 7755 H 719.089 -3.5853 4.94255 0
M  V30 7756 H 720.503 -1.39929 5.55961 0
M  V30 7757 H 718.9 -0.715814 5.95815 0
M  V30 7758 H 719.97 0.157239 4.84645 0
M  V30 7759 N 721.313 -1.57302 -0.09688 0
M  V30 7760 C 722.56 -1.85997 -0.800699 0
M  V30 7761 C 722.888 -0.765089 -1.7882 0
M  V30 7762 O 722.143 0.241492 -1.94204 0
M  V30 7763 C 722.442 -3.21272 -1.56586 0
M  V30 7764 C 722.108 -4.45104 -0.72064 0
M  V30 7765 C 720.77 -4.78723 -0.487632 0
M  V30 7766 C 723.122 -5.2103 -0.132948 0
M  V30 7767 C 720.45 -5.85697 0.34296 0
M  V30 7768 C 722.802 -6.28881 0.684957 0
M  V30 7769 C 721.466 -6.61017 0.928073 0
M  V30 7770 H 720.736 -0.680613 -0.292997 0
M  V30 7771 H 723.383 -1.91399 -0.0622474 0
M  V30 7772 H 721.688 -3.11547 -2.37583 0
M  V30 7773 H 723.385 -3.40702 -2.11478 0
M  V30 7774 H 719.975 -4.18777 -0.912359 0
M  V30 7775 H 724.159 -4.95392 -0.300132 0
M  V30 7776 H 719.415 -6.09008 0.540317 0
M  V30 7777 H 723.589 -6.86886 1.14721 0
M  V30 7778 H 721.216 -7.43738 1.57348 0
M  V30 7779 N 722.791 0.367657 -1.53252 0
M  V30 7780 C 724.019 1.13119 -1.73239 0
M  V30 7781 C 724.434 1.831 -0.460404 0
M  V30 7782 O 723.791 1.73483 0.566557 0
M  V30 7783 C 723.842 2.16308 -2.89643 0
M  V30 7784 O 723.563 1.49175 -4.1192 0
M  V30 7785 C 725.064 3.05224 -3.21486 0
M  V30 7786 H 722.284 0.338318 -0.579467 0
M  V30 7787 H 724.828 0.42721 -1.99988 0
M  V30 7788 H 722.983 2.82307 -2.65295 0
M  V30 7789 H 723.397 2.17912 -4.7709 0
M  V30 7790 H 724.871 3.73613 -4.06346 0
M  V30 7791 H 725.348 3.69919 -2.36763 0
M  V30 7792 H 725.954 2.44843 -3.47753 0
M  V30 7793 N 724.269 1.44576 0.627338 0
M  V30 7794 C 725.219 1.48168 1.73293 0
M  V30 7795 C 726.203 0.347045 1.57113 0
M  V30 7796 O 727.395 0.592605 1.66785 0
M  V30 7797 C 724.524 1.43236 3.11991 0
M  V30 7798 C 723.61 2.61828 3.33627 0
M  V30 7799 N 724.001 3.87053 3.25612 0
M  V30 7800 C 722.299 2.57104 3.64436 0
M  V30 7801 C 723 4.66093 3.48041 0
M  V30 7802 N 721.976 3.97228 3.71095 0
M  V30 7803 H 725.778 2.42832 1.6556 0
M  V30 7804 H 723.292 1.39592 0.829934 0
M  V30 7805 H 725.289 1.43893 3.91281 0
M  V30 7806 H 723.949 0.496133 3.20887 0
M  V30 7807 H 724.96 4.18966 3.04447 0
M  V30 7808 H 721.637 1.72295 3.8029 0
M  V30 7809 H 723.027 5.75117 3.47404 0
M  V30 7810 N 725.747 -0.868086 1.31537 0
M  V30 7811 C 726.975 -1.65402 1.24298 0
M  V30 7812 C 727.39 -1.87827 -0.191389 0
M  V30 7813 O 726.747 -1.43776 -1.12404 0
M  V30 7814 C 726.798 -3.02093 1.9855 0
M  V30 7815 O 726.519 -2.80668 3.36388 0
M  V30 7816 C 728.02 -3.96538 1.98173 0
M  V30 7817 H 725.24 -0.515598 0.429417 0
M  V30 7818 H 727.784 -1.0834 1.73444 0
M  V30 7819 H 725.939 -3.55838 1.53161 0
M  V30 7820 H 726.353 -3.67504 3.74221 0
M  V30 7821 H 727.827 -4.8976 2.54635 0
M  V30 7822 H 728.304 -4.28474 0.964697 0
M  V30 7823 H 728.91 -3.48729 2.4345 0
M  V30 7824 N 727.225 -1.14528 -1.08264 0
M  V30 7825 C 728.474 -0.908992 -1.80056 0
M  V30 7826 C 728.787 0.565859 -1.87236 0
M  V30 7827 O 729.993 0.919454 -2.55457 0
M  V30 7828 C 728.449 -1.57681 -3.23519 0
M  V30 7829 C 728.057 -3.08803 -3.24569 0
M  V30 7830 C 729.801 -1.4217 -3.99985 0
M  V30 7831 C 727.708 -3.68414 -4.62629 0
M  V30 7832 H 726.638 -0.336432 -0.674781 0
M  V30 7833 H 729.289 -1.37437 -1.21587 0
M  V30 7834 H 727.671 -1.03911 -3.82124 0
M  V30 7835 H 728.845 -3.69252 -2.75663 0
M  V30 7836 H 727.16 -3.23968 -2.61598 0
M  V30 7837 H 729.757 -1.84106 -5.02005 0
M  V30 7838 H 730.1 -0.367989 -4.1467 0
M  V30 7839 H 730.633 -1.92984 -3.47853 0
M  V30 7840 H 727.372 -4.73644 -4.53147 0
M  V30 7841 H 726.892 -3.12746 -5.11811 0
M  V30 7842 H 728.571 -3.68793 -5.31602 0
M  V30 7843 N 728.703 1.26451 -0.940633 0
M  V30 7844 C 729.95 1.93778 -0.587909 0
M  V30 7845 C 730.278 1.73811 0.872935 0
M  V30 7846 O 729.533 1.06816 1.63978 0
M  V30 7847 C 729.832 3.46503 -0.875794 0
M  V30 7848 C 729.498 3.86609 -2.32043 0
M  V30 7849 C 728.16 3.97269 -2.71534 0
M  V30 7850 C 730.512 4.0672 -3.25927 0
M  V30 7851 C 727.84 4.25436 -4.04006 0
M  V30 7852 C 730.192 4.36375 -4.57995 0
M  V30 7853 C 728.856 4.45249 -4.97302 0
M  V30 7854 H 728.126 0.709084 -0.215131 0
M  V30 7855 H 730.773 1.50272 -1.18704 0
M  V30 7856 H 729.078 3.91319 -0.194124 0
M  V30 7857 H 730.775 3.96759 -0.581665 0
M  V30 7858 H 727.365 3.78858 -2.00411 0
M  V30 7859 H 731.549 3.97912 -2.96614 0
M  V30 7860 H 726.805 4.30519 -4.34124 0
M  V30 7861 H 730.979 4.50882 -5.30734 0
M  V30 7862 H 728.606 4.66829 -5.99979 0
M  V30 7863 N 730.181 0.707592 1.40822 0
M  V30 7864 C 731.411 0.252706 2.05049 0
M  V30 7865 C 731.819 -1.10758 1.53393 0
M  V30 7866 O 731.162 -1.70567 0.682097 0
M  V30 7867 C 731.224 0.146001 3.59203 0
M  V30 7868 C 730.888 1.44027 4.33711 0
M  V30 7869 C 731.885 2.38058 4.62195 0
M  V30 7870 C 729.57 1.69698 4.72766 0
M  V30 7871 C 731.564 3.56013 5.28709 0
M  V30 7872 C 729.251 2.87936 5.39014 0
M  V30 7873 C 730.249 3.80915 5.66915 0
M  V30 7874 O 729.937 4.9708 6.31796 0
M  V30 7875 H 729.669 0.112784 0.666525 0
M  V30 7876 H 732.223 0.96417 1.81364 0
M  V30 7877 H 730.453 -0.621338 3.81676 0
M  V30 7878 H 732.142 -0.273275 4.04979 0
M  V30 7879 H 732.908 2.19487 4.32493 0
M  V30 7880 H 728.787 0.981835 4.50423 0
M  V30 7881 H 732.331 4.28604 5.50404 0
M  V30 7882 H 728.228 3.06419 5.68135 0
M  V30 7883 H 728.996 4.97053 6.50293 0
M  V30 7884 N 731.66 -1.50943 0.453197 0
M  V30 7885 C 732.608 -2.29728 -0.364419 0
M  V30 7886 C 733.602 -1.36246 -1.00664 0
M  V30 7887 O 734.808 -1.53518 -0.939794 0
M  V30 7888 H 731.183 -0.739536 -0.136347 0
M  V30 7889 H 733.154 -2.96672 0.320696 0
M  V30 7890 C 731.903 -3.1629 -1.44415 0
M  V30 7891 H 731.226 -3.88119 -0.959343 0
M  V30 7892 H 732.666 -3.74444 -1.98917 0
M  V30 7893 C 731.125 -2.32702 -2.43622 0
M  V30 7894 O 731.655 -1.99763 -3.48508 0
M  V30 7895 N 729.861 -1.95621 -2.14897 0
M  V30 7896 H 729.408 -2.22607 -1.29629 0
M  V30 7897 H 729.366 -1.39993 -2.81513 0
M  V30 7898 N 733.138 -0.185124 -1.56509 0
M  V30 7899 C 734.048 0.751908 -2.22224 0
M  V30 7900 C 735.064 1.24244 -1.21817 0
M  V30 7901 O 736.24 1.29169 -1.54523 0
M  V30 7902 C 733.305 1.95837 -2.86092 0
M  V30 7903 C 732.366 1.51337 -4.01741 0
M  V30 7904 C 731.599 2.66233 -4.62554 0
M  V30 7905 O 731.822 3.8346 -4.22273 0
M  V30 7906 O 730.756 2.39517 -5.52191 0
M  V30 7907 H 734.582 0.222304 -3.02885 0
M  V30 7908 H 732.167 0.0437141 -1.49336 0
M  V30 7909 H 734.049 2.66368 -3.26536 0
M  V30 7910 H 732.724 2.47677 -2.08417 0
M  V30 7911 H 731.631 0.777155 -3.65939 0
M  V30 7912 H 732.964 1.04175 -4.81049 0
M  V30 7913 N 734.616 1.57351 0.0885366 0
M  V30 7914 C 735.846 1.90355 0.80303 0
M  V30 7915 C 736.254 0.777678 1.72478 0
M  V30 7916 O 735.597 -0.258908 1.81866 0
M  V30 7917 C 735.659 3.18674 1.66395 0
M  V30 7918 C 735.323 4.4778 0.913327 0
M  V30 7919 C 736.32 5.19345 0.240148 0
M  V30 7920 C 734.005 4.94434 0.885462 0
M  V30 7921 C 735.999 6.35803 -0.450854 0
M  V30 7922 C 733.686 6.10802 0.190679 0
M  V30 7923 C 734.684 6.81337 -0.476295 0
M  V30 7924 O 734.372 7.95488 -1.15992 0
M  V30 7925 H 734.104 0.634035 0.234469 0
M  V30 7926 H 736.658 2.05287 0.0681959 0
M  V30 7927 H 734.888 2.99906 2.44117 0
M  V30 7928 H 736.577 3.37458 2.2556 0
M  V30 7929 H 737.343 4.84339 0.253092 0
M  V30 7930 H 733.222 4.39417 1.39406 0
M  V30 7931 H 736.766 6.90795 -0.972019 0
M  V30 7932 H 732.663 6.45261 0.175603 0
M  V30 7933 H 733.431 8.11509 -1.06749 0
M  V30 7934 N 736.094 -0.359525 1.53444 0
M  V30 7935 C 737.505 -0.936009 1.61542 0
M  V30 7936 C 737.856 -1.90069 0.486633 0
M  V30 7937 O 736.981 -2.12929 -0.386047 0
M  V30 7938 C 737.576 -1.70441 2.92806 0
M  V30 7939 C 736.135 -2.23015 3.03218 0
M  V30 7940 C 735.282 -1.04438 2.56881 0
M  V30 7941 H 738.233 -0.138134 1.58098 0
M  V30 7942 H 738.254 -2.56609 2.80948 0
M  V30 7943 H 737.766 -1.00205 3.74941 0
M  V30 7944 H 735.867 -2.96475 2.25684 0
M  V30 7945 H 735.98 -2.50481 4.08407 0
M  V30 7946 H 734.344 -1.41314 2.11902 0
M  V30 7947 H 735.127 -0.356905 3.4144 0
M  V30 7948 N 737.572 -1.44907 -0.619662 0
M  V30 7949 C 738.82 -1.47999 -1.37625 0
M  V30 7950 C 739.141 -0.118295 -1.94641 0
M  V30 7951 O 738.411 0.85086 -1.76457 0
M  V30 7952 H 736.991 -0.544993 -0.510873 0
M  V30 7953 H 739.653 -1.80772 -0.728522 0
M  V30 7954 H 738.749 -2.21196 -2.20179 0
M  V30 7955 N 739.05 0.861098 -1.31996 0
M  V30 7956 C 740.298 1.61162 -1.21947 0
M  V30 7957 C 740.619 1.93751 0.220351 0
M  V30 7958 O 739.889 1.59069 1.14341 0
M  V30 7959 H 738.469 0.597485 -0.448353 0
M  V30 7960 H 741.131 1.03039 -1.65436 0
M  V30 7961 H 740.227 2.55138 -1.79752 0
M  V30 7962 N 740.528 1.15101 1.07655 0
M  V30 7963 C 741.753 0.948177 1.84457 0
M  V30 7964 C 742.178 -0.498432 1.81376 0
M  V30 7965 O 741.536 -1.35509 1.20445 0
M  V30 7966 C 741.584 1.46318 3.29581 0
M  V30 7967 O 740.688 0.660342 4.07079 0
M  V30 7968 H 740.029 0.338428 0.571281 0
M  V30 7969 H 742.559 1.5301 1.35828 0
M  V30 7970 H 742.569 1.47468 3.80417 0
M  V30 7971 H 741.244 2.51635 3.31138 0
M  V30 7972 H 739.821 0.718216 3.65918 0
M  V30 7973 N 742.006 -1.2595 0.947325 0
M  V30 7974 C 743.231 -1.98083 0.614633 0
M  V30 7975 C 743.656 -1.70013 -0.804815 0
M  V30 7976 O 743.014 -0.95175 -1.54309 0
M  V30 7977 C 743.062 -3.4993 0.870706 0
M  V30 7978 O 742.166 -4.12364 -0.0541451 0
M  V30 7979 H 741.507 -0.621232 0.234451 0
M  V30 7980 H 744.037 -1.60259 1.27193 0
M  V30 7981 H 744.047 -4.00198 0.794051 0
M  V30 7982 H 742.722 -3.69691 1.90529 0
M  V30 7983 H 741.299 -3.72826 0.0740917 0
M  V30 7984 N 743.484 -0.715051 -1.40445 0
M  V30 7985 C 744.394 -0.0631624 -2.34515 0
M  V30 7986 C 745.41 0.744397 -1.57273 0
M  V30 7987 O 746.586 0.677475 -1.89663 0
M  V30 7988 C 743.651 0.847915 -3.36172 0
M  V30 7989 C 742.712 0.0303655 -4.29289 0
M  V30 7990 C 741.945 0.898051 -5.2609 0
M  V30 7991 O 742.168 2.13729 -5.28844 0
M  V30 7992 O 741.102 0.337328 -6.00954 0
M  V30 7993 H 744.928 -0.839078 -2.91879 0
M  V30 7994 H 742.513 -0.475527 -1.4163 0
M  V30 7995 H 744.395 1.3698 -3.98515 0
M  V30 7996 H 743.07 1.60299 -2.81222 0
M  V30 7997 H 741.977 -0.536573 -3.70232 0
M  V30 7998 H 743.31 -0.686474 -4.87389 0
M  V30 7999 N 744.962 1.50701 -0.461195 0
M  V30 8000 C 745.892 2.31182 0.328184 0
M  V30 8001 C 746.873 1.37644 0.999408 0
M  V30 8002 O 748.058 1.66565 0.99848 0
M  V30 8003 C 745.188 3.17113 1.41621 0
M  V30 8004 C 744.142 4.19124 0.867148 0
M  V30 8005 C 743.468 4.93728 2.05272 0
M  V30 8006 C 744.768 5.22174 -0.114808 0
M  V30 8007 H 746.462 2.97423 -0.343501 0
M  V30 8008 H 744.008 1.43033 -0.166641 0
M  V30 8009 H 745.961 3.72208 1.97584 0
M  V30 8010 H 744.685 2.48739 2.11652 0
M  V30 8011 H 743.344 3.65116 0.329557 0
M  V30 8012 H 742.992 4.21835 2.73978 0
M  V30 8013 H 742.692 5.62724 1.69161 0
M  V30 8014 H 744.216 5.51654 2.61744 0
M  V30 8015 H 745.63 5.72198 0.355316 0
M  V30 8016 H 744.027 5.98833 -0.389689 0
M  V30 8017 H 745.097 4.7353 -1.04391 0
M  V30 8018 N 746.441 0.193421 1.56409 0
M  V30 8019 C 747.718 -0.493318 1.89277 0
M  V30 8020 C 748.098 -1.79765 1.10669 0
M  V30 8021 O 747.446 -2.27558 0.207274 0
M  V30 8022 C 747.656 -0.713732 3.41624 0
M  V30 8023 C 749.004 -1.03385 4.11821 0
M  V30 8024 O 750.028 -0.801511 3.47065 0
M  V30 8025 O 748.887 -1.47327 5.26267 0
M  V30 8026 H 745.981 -0.256973 0.786062 0
M  V30 8027 H 748.527 0.23351 1.68086 0
M  V30 8028 H 747.299 0.207446 3.9075 0
M  V30 8029 H 746.922 -1.49308 3.68501 0
M  V30 8030 N 747.919 -1.57396 -0.0801906 0
M  V30 8031 C 748.866 -2.03107 -1.09618 0
M  V30 8032 C 749.836 -0.910118 -1.38946 0
M  V30 8033 O 751.021 -1.17719 -1.50156 0
M  V30 8034 C 748.161 -2.47293 -2.40708 0
M  V30 8035 C 747.274 -3.72972 -2.17982 0
M  V30 8036 C 746.409 -4.05975 -3.42576 0
M  V30 8037 C 745.448 -5.24719 -3.15177 0
M  V30 8038 N 744.585 -5.53401 -4.32078 0
M  V30 8039 H 749.425 -2.89677 -0.69939 0
M  V30 8040 H 746.962 -1.43263 -0.333785 0
M  V30 8041 H 748.92 -2.7096 -3.17232 0
M  V30 8042 H 747.55 -1.63713 -2.78205 0
M  V30 8043 H 746.602 -3.56693 -1.32189 0
M  V30 8044 H 747.914 -4.59638 -1.93738 0
M  V30 8045 H 747.068 -4.30498 -4.275 0
M  V30 8046 H 745.807 -3.17859 -3.69887 0
M  V30 8047 H 744.812 -5 -2.28648 0
M  V30 8048 H 746.037 -6.14445 -2.89197 0
M  V30 8049 H 743.983 -4.68245 -4.59437 0
M  V30 8050 H 743.9 -6.34469 -4.11078 0
M  V30 8051 H 745.168 -5.8247 -5.18024 0
M  V30 8052 N 749.397 0.351382 -1.53633 0
M  V30 8053 C 750.646 1.08988 -1.69719 0
M  V30 8054 C 750.959 1.90043 -0.462948 0
M  V30 8055 O 752.165 2.66769 -0.504613 0
M  V30 8056 C 750.621 1.98691 -3.00083 0
M  V30 8057 C 750.229 1.22881 -4.30818 0
M  V30 8058 C 751.973 2.72446 -3.25536 0
M  V30 8059 C 749.88 2.11568 -5.52262 0
M  V30 8060 H 748.81 0.410588 -0.632403 0
M  V30 8061 H 751.461 0.349886 -1.80133 0
M  V30 8062 H 749.843 2.76478 -2.83506 0
M  V30 8063 H 751.017 0.500582 -4.58073 0
M  V30 8064 H 749.332 0.60928 -4.11918 0
M  V30 8065 H 751.929 3.39055 -4.13456 0
M  V30 8066 H 752.272 3.38588 -2.42206 0
M  V30 8067 H 752.805 2.01735 -3.42852 0
M  V30 8068 H 749.544 1.4998 -6.38111 0
M  V30 8069 H 749.064 2.82201 -5.29266 0
M  V30 8070 H 750.743 2.70802 -5.87601 0
M  V30 8071 N 750.875 1.45233 0.611969 0
M  V30 8072 C 752.124 1.48296 1.36716 0
M  V30 8073 C 752.437 0.12706 1.95187 0
M  V30 8074 O 753.643 0.0353066 2.71477 0
M  V30 8075 C 752.099 2.61168 2.47627 0
M  V30 8076 C 751.707 4.03051 1.95587 0
M  V30 8077 C 753.451 2.73472 3.24674 0
M  V30 8078 C 751.358 5.07312 3.03954 0
M  V30 8079 H 750.288 0.5518 0.513841 0
M  V30 8080 H 752.939 1.7136 0.656359 0
M  V30 8081 H 751.321 2.31379 3.21372 0
M  V30 8082 H 752.495 4.42497 1.2858 0
M  V30 8083 H 750.81 3.95158 1.31298 0
M  V30 8084 H 753.407 3.48537 4.05494 0
M  V30 8085 H 753.75 1.79953 3.75397 0
M  V30 8086 H 754.283 3.02765 2.58028 0
M  V30 8087 H 751.022 6.02525 2.58154 0
M  V30 8088 H 750.542 4.7244 3.69541 0
M  V30 8089 H 752.221 5.31867 3.6841 0
M  V30 8090 N 752.353 -0.854086 1.3245 0
M  V30 8091 C 753.301 -1.98411 1.21391 0
M  V30 8092 C 754.295 -1.68984 0.118586 0
M  V30 8093 O 755.501 -1.77784 0.281549 0
M  V30 8094 H 751.876 -0.651077 0.376301 0
M  V30 8095 H 753.847 -2.04867 2.16961 0
M  V30 8096 C 752.596 -3.34345 0.954407 0
M  V30 8097 H 751.919 -3.57518 1.78944 0
M  V30 8098 H 753.359 -4.13959 0.917269 0
M  V30 8099 C 751.818 -3.35151 -0.342838 0
M  V30 8100 O 752.348 -3.78174 -1.35452 0
M  V30 8101 N 750.554 -2.88298 -0.365012 0
M  V30 8102 H 750.101 -2.53481 0.4588 0
M  V30 8103 H 750.059 -2.8922 -1.23284 0
M  V30 8104 N 753.831 -1.1567 -1.07043 0
M  V30 8105 C 755.079 -0.931673 -1.79344 0
M  V30 8106 C 755.4 0.542421 -1.87304 0
M  V30 8107 O 754.67 1.39418 -1.37621 0
M  V30 8108 H 753.25 -0.34171 -0.664262 0
M  V30 8109 H 755.912 -1.45795 -1.29344 0
M  V30 8110 H 755.008 -1.34379 -2.81689 0
M  V30 8111 N 755.309 1.25446 -0.953992 0
M  V30 8112 C 756.557 1.92762 -0.607227 0
M  V30 8113 C 756.878 1.7509 0.858399 0
M  V30 8114 O 756.148 1.11416 1.61132 0
M  V30 8115 H 754.728 0.713377 -0.221591 0
M  V30 8116 H 757.39 1.52625 -1.21209 0
M  V30 8117 H 756.486 3.00695 -0.835998 0
M  V30 8118 N 756.787 0.722489 1.40064 0
M  V30 8119 C 757.697 0.0755984 2.34478 0
M  V30 8120 C 758.713 -0.736046 1.57665 0
M  V30 8121 O 759.889 -0.667407 1.9002 0
M  V30 8122 C 756.954 -0.830075 3.36616 0
M  V30 8123 C 756.015 -0.00759884 4.29299 0
M  V30 8124 C 755.248 -0.870139 5.26559 0
M  V30 8125 O 755.471 -2.10921 5.2997 0
M  V30 8126 O 754.405 -0.305454 6.01124 0
M  V30 8127 H 758.231 0.854545 2.9143 0
M  V30 8128 H 755.816 0.483032 1.41376 0
M  V30 8129 H 757.698 -1.34864 3.99236 0
M  V30 8130 H 756.373 -1.58805 2.82069 0
M  V30 8131 H 755.28 0.556199 3.69942 0
M  V30 8132 H 756.613 0.712312 4.87018 0
M  V30 8133 N 758.265 -1.50454 0.469181 0
M  V30 8134 C 759.195 -2.31353 -0.31592 0
M  V30 8135 C 760.176 -1.38172 -0.992094 0
M  V30 8136 O 761.361 -1.67093 -0.989633 0
M  V30 8137 C 758.491 -3.1786 -1.39937 0
M  V30 8138 C 757.445 -4.19578 -0.844909 0
M  V30 8139 C 756.771 -4.9481 -2.0265 0
M  V30 8140 C 758.071 -5.22106 0.142499 0
M  V30 8141 H 759.765 -2.97237 0.359269 0
M  V30 8142 H 757.311 -1.42942 0.174224 0
M  V30 8143 H 759.264 -3.7325 -1.95607 0
M  V30 8144 H 757.988 -2.49858 -2.1033 0
M  V30 8145 H 756.647 -3.65285 -0.310189 0
M  V30 8146 H 756.295 -4.23282 -2.71737 0
M  V30 8147 H 755.995 -5.63613 -1.66174 0
M  V30 8148 H 757.519 -5.53035 -2.58815 0
M  V30 8149 H 758.933 -5.72378 -0.324966 0
M  V30 8150 H 757.33 -5.98618 0.421441 0
M  V30 8151 H 758.4 -4.7297 1.06901 0
M  V30 8152 N 759.743 -0.201713 -1.56304 0
M  V30 8153 C 760.99 0.435307 -1.97766 0
M  V30 8154 C 761.318 1.61169 -1.0888 0
M  V30 8155 O 760.573 1.95272 -0.12934 0
M  V30 8156 C 760.872 0.931432 -3.45049 0
M  V30 8157 C 760.538 -0.132287 -4.50706 0
M  V30 8158 C 759.2 -0.424552 -4.79323 0
M  V30 8159 C 761.552 -0.852703 -5.14177 0
M  V30 8160 C 758.88 -1.4421 -5.68701 0
M  V30 8161 C 761.232 -1.85944 -6.04655 0
M  V30 8162 C 759.896 -2.15884 -6.31625 0
M  V30 8163 H 759.166 0.15929 -0.723676 0
M  V30 8164 H 761.813 -0.300069 -1.89134 0
M  V30 8165 H 760.118 1.7452 -3.50785 0
M  V30 8166 H 761.815 1.43383 -3.74489 0
M  V30 8167 H 758.405 0.105671 -4.2847 0
M  V30 8168 H 762.589 -0.640139 -4.92154 0
M  V30 8169 H 757.845 -1.6799 -5.87869 0
M  V30 8170 H 762.019 -2.42286 -6.52894 0
M  V30 8171 H 759.646 -2.94875 -7.0068 0
M  V30 8172 N 761.222 1.57436 0.0718424 0
M  V30 8173 C 762.152 2.06724 1.08571 0
M  V30 8174 C 763.133 0.960731 1.40371 0
M  V30 8175 O 764.318 1.23345 1.49999 0
M  V30 8176 C 761.448 2.51112 2.39916 0
M  V30 8177 C 760.402 3.65639 2.22469 0
M  V30 8178 C 759.728 3.96082 3.59198 0
M  V30 8179 C 761.028 4.95687 1.64596 0
M  V30 8180 H 762.722 2.91679 0.675569 0
M  V30 8181 H 760.268 1.40319 0.32352 0
M  V30 8182 H 762.221 2.84206 3.11135 0
M  V30 8183 H 760.945 1.63186 2.8291 0
M  V30 8184 H 759.604 3.32828 1.53691 0
M  V30 8185 H 759.252 3.05287 3.99761 0
M  V30 8186 H 758.952 4.73199 3.48362 0
M  V30 8187 H 760.476 4.31672 4.31847 0
M  V30 8188 H 761.89 5.27011 2.25681 0
M  V30 8189 H 760.287 5.77126 1.64457 0
M  V30 8190 H 761.357 4.8108 0.60744 0
M  V30 8191 N 762.7 -0.34323 1.53817 0
M  V30 8192 C 763.928 -1.10348 1.75017 0
M  V30 8193 C 764.343 -1.82345 0.489475 0
M  V30 8194 O 763.7 -1.74362 -0.538886 0
M  V30 8195 C 763.751 -2.11672 2.93048 0
M  V30 8196 O 763.472 -1.42603 4.14241 0
M  V30 8197 C 764.973 -3.0007 3.26301 0
M  V30 8198 H 762.193 -0.329056 0.584776 0
M  V30 8199 H 764.737 -0.395339 2.00642 0
M  V30 8200 H 762.892 -2.78051 2.69753 0
M  V30 8201 H 763.306 -2.10294 4.80496 0
M  V30 8202 H 764.78 -3.67101 4.12239 0
M  V30 8203 H 765.257 -3.66105 2.42618 0
M  V30 8204 H 765.863 -2.3928 3.51604 0
M  V30 8205 N 764.178 -1.45556 -0.604258 0
M  V30 8206 C 765.424 -1.49968 -1.36519 0
M  V30 8207 C 765.757 -0.142236 -1.93678 0
M  V30 8208 O 765.032 0.843717 -1.75247 0
M  V30 8209 C 765.315 -2.58146 -2.51063 0
M  V30 8210 C 765.168 -4.03346 -1.99078 0
M  V30 8211 C 766.487 -2.62581 -3.53184 0
M  V30 8212 H 763.606 -0.545993 -0.495036 0
M  V30 8213 H 766.248 -1.77382 -0.680845 0
M  V30 8214 H 764.398 -2.34901 -3.09441 0
M  V30 8215 H 766.07 -4.37811 -1.45323 0
M  V30 8216 H 764.313 -4.13845 -1.30055 0
M  V30 8217 H 764.984 -4.74731 -2.81664 0
M  V30 8218 H 767.46 -2.83419 -3.04652 0
M  V30 8219 H 766.336 -3.40131 -4.30816 0
M  V30 8220 H 766.597 -1.67798 -4.09019 0
M  V30 8221 N 765.656 0.84705 -1.32902 0
M  V30 8222 C 766.586 1.97166 -1.25091 0
M  V30 8223 C 767.567 1.69578 -0.133161 0
M  V30 8224 O 768.752 1.91519 -0.321591 0
M  V30 8225 C 765.882 3.33157 -0.981006 0
M  V30 8226 C 764.836 3.75119 -2.06082 0
M  V30 8227 C 764.162 5.08826 -1.64318 0
M  V30 8228 C 765.462 3.89774 -3.47669 0
M  V30 8229 H 767.156 2.03958 -2.19184 0
M  V30 8230 H 764.702 0.979907 -1.05517 0
M  V30 8231 H 766.655 4.11393 -0.912891 0
M  V30 8232 H 765.379 3.266 -0.00445559 0
M  V30 8233 H 764.038 2.9914 -2.11921 0
M  V30 8234 H 763.686 4.98732 -0.653876 0
M  V30 8235 H 763.386 5.37873 -2.36572 0
M  V30 8236 H 764.91 5.89546 -1.58958 0
M  V30 8237 H 766.324 4.58343 -3.44376 0
M  V30 8238 H 764.721 4.30248 -4.18338 0
M  V30 8239 H 765.791 2.92463 -3.86773 0
M  V30 8240 N 767.134 1.16236 1.06428 0
M  V30 8241 C 768.064 0.890807 2.1584 0
M  V30 8242 C 769.045 -0.162333 1.69324 0
M  V30 8243 O 770.23 -0.0147191 1.94194 0
M  V30 8244 C 767.36 0.389615 3.45108 0
M  V30 8245 C 766.314 1.38051 4.05125 0
M  V30 8246 C 765.64 0.737773 5.29586 0
M  V30 8247 C 766.94 2.74965 4.44062 0
M  V30 8248 H 768.634 1.80577 2.38814 0
M  V30 8249 H 766.18 0.869657 1.14774 0
M  V30 8250 H 768.133 0.187127 4.20984 0
M  V30 8251 H 766.857 -0.560851 3.21748 0
M  V30 8252 H 765.516 1.56952 3.31303 0
M  V30 8253 H 765.164 -0.219135 5.02522 0
M  V30 8254 H 764.864 1.39914 5.70699 0
M  V30 8255 H 766.388 0.545275 6.0816 0
M  V30 8256 H 767.802 2.59855 5.11027 0
M  V30 8257 H 766.199 3.37563 4.96156 0
M  V30 8258 H 767.269 3.30321 3.54987 0
M  V30 8259 N 768.612 -1.24939 0.960631 0
M  V30 8260 C 769.56 -2.27659 0.47686 0
M  V30 8261 C 770.554 -1.63148 -0.455961 0
M  V30 8262 O 771.76 -1.76911 -0.332029 0
M  V30 8263 H 768.135 -0.739651 0.135723 0
M  V30 8264 H 770.106 -2.65844 1.35534 0
M  V30 8265 C 768.855 -3.46976 -0.224191 0
M  V30 8266 H 768.178 -3.96854 0.484471 0
M  V30 8267 H 769.618 -4.20717 -0.526615 0
M  V30 8268 C 768.077 -3.04159 -1.44876 0
M  V30 8269 O 768.607 -3.10697 -2.54618 0
M  V30 8270 N 766.813 -2.59284 -1.31226 0
M  V30 8271 H 766.36 -2.54164 -0.419361 0
M  V30 8272 H 766.318 -2.31 -2.13275 0
M  V30 8273 N 770.09 -0.729906 -1.39679 0
M  V30 8274 C 771.501 -0.346241 -1.83461 0
M  V30 8275 C 771.852 1.1215 -1.60987 0
M  V30 8276 O 770.977 1.86456 -1.09832 0
M  V30 8277 C 771.572 -0.621656 -3.33048 0
M  V30 8278 C 770.131 -0.291543 -3.75269 0
M  V30 8279 C 769.278 -0.886844 -2.62736 0
M  V30 8280 H 772.229 -0.927949 -1.28743 0
M  V30 8281 H 772.25 0.108301 -3.80346 0
M  V30 8282 H 771.762 -1.68996 -3.49373 0
M  V30 8283 H 769.863 0.771133 -3.64533 0
M  V30 8284 H 769.976 -0.770544 -4.72863 0
M  V30 8285 H 768.34 -0.313839 -2.52759 0
M  V30 8286 H 769.123 -1.95971 -2.81869 0
M  V30 8287 N 771.568 1.50203 -0.477153 0
M  V30 8288 C 772.817 2.01551 0.0774548 0
M  V30 8289 C 773.13 1.36359 1.40234 0
M  V30 8290 O 774.336 1.78898 2.04225 0
M  V30 8291 C 772.792 3.59406 0.188539 0
M  V30 8292 C 772.4 4.3356 -1.12828 0
M  V30 8293 C 774.144 4.18776 0.694782 0
M  V30 8294 C 772.051 5.83213 -0.98066 0
M  V30 8295 H 770.981 0.75329 0.0327212 0
M  V30 8296 H 773.632 1.72959 -0.612969 0
M  V30 8297 H 772.014 3.84611 0.942881 0
M  V30 8298 H 773.188 4.20074 -1.89405 0
M  V30 8299 H 771.503 3.85827 -1.5661 0
M  V30 8300 H 774.1 5.28338 0.822356 0
M  V30 8301 H 774.443 3.80557 1.68766 0
M  V30 8302 H 774.976 3.978 -0.00234519 0
M  V30 8303 H 771.715 6.25914 -1.94709 0
M  V30 8304 H 771.235 5.99256 -0.255375 0
M  V30 8305 H 772.914 6.4373 -0.649717 0
M  V30 8306 N 773.046 0.209999 1.56195 0
M  V30 8307 C 774.271 -0.433064 2.02828 0
M  V30 8308 C 774.696 -1.5337 1.08901 0
M  V30 8309 O 774.054 -1.81144 0.0751132 0
M  V30 8310 C 774.102 -0.952635 3.47789 0
M  V30 8311 O 773.206 -2.0647 3.56993 0
M  V30 8312 H 772.547 -0.0994594 0.656509 0
M  V30 8313 H 775.077 0.32525 2.01998 0
M  V30 8314 H 775.087 -1.26542 3.8788 0
M  V30 8315 H 773.762 -0.147007 4.1564 0
M  V30 8316 H 772.339 -1.75942 3.28784 0
M  V30 8317 N 774.524 -1.57472 -0.0634922 0
M  V30 8318 C 775.773 -1.86837 -0.759928 0
M  V30 8319 C 776.086 -0.803823 -1.7832 0
M  V30 8320 O 777.292 -0.985578 -2.52979 0
M  V30 8321 C 775.748 -3.31448 -1.4025 0
M  V30 8322 C 775.356 -4.46052 -0.417368 0
M  V30 8323 C 777.1 -3.70003 -2.08082 0
M  V30 8324 C 775.007 -5.81707 -1.06633 0
M  V30 8325 H 773.937 -0.697009 -0.287567 0
M  V30 8326 H 776.588 -1.83495 -0.0133914 0
M  V30 8327 H 774.97 -3.29427 -2.19759 0
M  V30 8328 H 776.144 -4.5948 0.348503 0
M  V30 8329 H 774.459 -4.16104 0.156955 0
M  V30 8330 H 777.056 -4.68653 -2.57426 0
M  V30 8331 H 777.399 -3.00226 -2.88393 0
M  V30 8332 H 777.932 -3.7405 -1.35394 0
M  V30 8333 H 774.671 -6.54798 -0.303374 0
M  V30 8334 H 774.191 -5.72064 -1.80286 0
M  V30 8335 H 775.87 -6.27317 -1.58376 0
M  V30 8336 N 776.003 0.335068 -1.53997 0
M  V30 8337 C 777.25 1.07435 -1.71651 0
M  V30 8338 C 777.578 1.88378 -0.48413 0
M  V30 8339 O 776.833 1.8827 0.534139 0
M  V30 8340 C 777.132 2.0364 -2.9371 0
M  V30 8341 C 776.798 1.38942 -4.28959 0
M  V30 8342 C 775.46 1.21027 -4.65732 0
M  V30 8343 C 777.812 0.924083 -5.12943 0
M  V30 8344 C 775.14 0.552097 -5.84097 0
M  V30 8345 C 777.492 0.27978 -6.31981 0
M  V30 8346 C 776.156 0.0883843 -6.67441 0
M  V30 8347 H 775.426 0.393133 -0.628114 0
M  V30 8348 H 778.073 0.352712 -1.88224 0
M  V30 8349 H 776.378 2.82215 -2.71775 0
M  V30 8350 H 778.075 2.6085 -3.04562 0
M  V30 8351 H 774.665 1.53885 -4.00022 0
M  V30 8352 H 778.849 1.05032 -4.85059 0
M  V30 8353 H 774.105 0.392502 -6.10139 0
M  V30 8354 H 778.279 -0.0888479 -6.96343 0
M  V30 8355 H 775.906 -0.423657 -7.59019 0
M  V30 8356 N 777.481 1.45874 0.596531 0
M  V30 8357 C 778.414 1.49889 1.72071 0
M  V30 8358 C 779.392 0.354224 1.58695 0
M  V30 8359 O 780.576 0.556355 1.80103 0
M  V30 8360 C 777.703 1.3644 3.10003 0
M  V30 8361 C 776.749 2.54913 3.41938 0
M  V30 8362 S 777.582 4.17336 3.35545 0
M  V30 8363 C 778.738 4.06372 4.76039 0
M  V30 8364 H 778.971 2.45005 1.68404 0
M  V30 8365 H 776.504 1.33592 0.77412 0
M  V30 8366 H 778.462 1.29368 3.89582 0
M  V30 8367 H 777.123 0.427762 3.11174 0
M  V30 8368 H 776.316 2.41458 4.42396 0
M  V30 8369 H 775.918 2.58904 2.69898 0
M  V30 8370 H 778.21 3.72199 5.66105 0
M  V30 8371 H 779.153 5.0678 4.9455 0
M  V30 8372 H 779.561 3.37846 4.52239 0
M  V30 8373 N 778.959 -0.83999 1.33349 0
M  V30 8374 C 780.187 -1.62728 1.27778 0
M  V30 8375 C 780.602 -1.88191 -0.151505 0
M  V30 8376 O 779.959 -1.46128 -1.09329 0
M  V30 8377 C 780.01 -2.97813 2.04913 0
M  V30 8378 O 779.731 -2.73469 3.42266 0
M  V30 8379 C 781.232 -3.92245 2.0654 0
M  V30 8380 H 778.452 -0.506374 0.440257 0
M  V30 8381 H 780.996 -1.04637 1.75703 0
M  V30 8382 H 779.151 -3.52509 1.60674 0
M  V30 8383 H 779.565 -3.59483 3.81932 0
M  V30 8384 H 781.039 -4.84249 2.64966 0
M  V30 8385 H 781.516 -4.26332 1.05537 0
M  V30 8386 H 782.122 -3.43487 2.50793 0
M  V30 8387 N 780.437 -1.16799 -1.0581 0
M  V30 8388 C 781.387 -0.847231 -2.11674 0
M  V30 8389 C 782.371 0.175476 -1.5994 0
M  V30 8390 O 783.563 -0.0260602 -1.76981 0
M  V30 8391 C 780.692 -0.355446 -3.41455 0
M  V30 8392 C 779.778 -1.40922 -4.00002 0
M  V30 8393 N 780.169 -2.62096 -4.32596 0
M  V30 8394 C 778.467 -1.26562 -4.27666 0
M  V30 8395 C 779.168 -3.29759 -4.79201 0
M  V30 8396 N 778.144 -2.57138 -4.78938 0
M  V30 8397 H 781.946 -1.76862 -2.34727 0
M  V30 8398 H 779.46 -1.05577 -1.23399 0
M  V30 8399 H 781.457 -0.107231 -4.16762 0
M  V30 8400 H 780.117 0.559817 -3.19838 0
M  V30 8401 H 781.128 -2.99113 -4.22791 0
M  V30 8402 H 777.805 -0.411503 -4.15467 0
M  V30 8403 H 779.195 -4.33222 -5.13584 0
M  V30 8404 N 781.915 1.24427 -0.967243 0
M  V30 8405 C 782.845 2.2773 -0.515899 0
M  V30 8406 C 783.826 1.64197 0.444227 0
M  V30 8407 O 785.011 1.91193 0.340451 0
M  V30 8408 C 782.141 3.46751 0.195149 0
M  V30 8409 C 781.095 4.22548 -0.680953 0
M  V30 8410 C 780.421 5.34456 0.161561 0
M  V30 8411 C 781.721 4.83914 -1.96532 0
M  V30 8412 H 783.415 2.65735 -1.37933 0
M  V30 8413 H 780.961 1.27742 -0.664681 0
M  V30 8414 H 782.914 4.18153 0.522117 0
M  V30 8415 H 781.638 3.07771 1.09292 0
M  V30 8416 H 780.297 3.52946 -0.991186 0
M  V30 8417 H 779.945 4.91716 1.05947 0
M  V30 8418 H 779.645 5.86087 -0.421418 0
M  V30 8419 H 781.169 6.08685 0.483211 0
M  V30 8420 H 782.583 5.47392 -1.70396 0
M  V30 8421 H 780.98 5.45775 -2.49499 0
M  V30 8422 H 782.05 4.05393 -2.66053 0
M  V30 8423 N 783.393 0.737304 1.3929 0
M  V30 8424 C 784.618 0.295237 2.05288 0
M  V30 8425 C 785.043 -1.06235 1.55228 0
M  V30 8426 O 784.401 -1.67365 0.697043 0
M  V30 8427 C 784.449 0.309146 3.59272 0
M  V30 8428 O 783.553 -0.702437 4.06374 0
M  V30 8429 H 782.894 0.133762 0.650387 0
M  V30 8430 H 785.424 1.00387 1.78279 0
M  V30 8431 H 785.434 0.154336 4.07708 0
M  V30 8432 H 784.109 1.29974 3.95069 0
M  V30 8433 H 782.686 -0.513574 3.69346 0
M  V30 8434 N 784.871 -1.49948 0.485112 0
M  V30 8435 C 785.819 -2.30449 -0.315609 0
M  V30 8436 C 786.813 -1.38351 -0.977516 0
M  V30 8437 O 788.019 -1.55477 -0.907019 0
M  V30 8438 H 784.394 -0.742262 -0.120629 0
M  V30 8439 H 786.365 -2.95925 0.383552 0
M  V30 8440 C 785.114 -3.19283 -1.37673 0
M  V30 8441 H 784.437 -3.90067 -0.876801 0
M  V30 8442 H 785.877 -3.78579 -1.90929 0
M  V30 8443 C 784.336 -2.37817 -2.38631 0
M  V30 8444 O 784.866 -2.0711 -3.44192 0
M  V30 8445 N 783.072 -2.00135 -2.107 0
M  V30 8446 H 782.619 -2.25307 -1.24878 0
M  V30 8447 H 782.577 -1.45933 -2.7848 0
M  V30 8448 N 786.349 -0.21828 -1.56081 0
M  V30 8449 C 787.579 0.41865 -2.02314 0
M  V30 8450 C 787.987 1.54124 -1.09739 0
M  V30 8451 O 787.33 1.83435 -0.0986829 0
M  V30 8452 C 787.392 1.01439 -3.44892 0
M  V30 8453 C 787.056 0.0276523 -4.56992 0
M  V30 8454 C 788.053 -0.771526 -5.14143 0
M  V30 8455 C 785.738 -0.0901537 -5.02219 0
M  V30 8456 C 787.732 -1.67525 -6.14991 0
M  V30 8457 C 785.419 -0.997411 -6.02905 0
M  V30 8458 C 786.417 -1.78851 -6.59167 0
M  V30 8459 O 786.105 -2.68052 -7.57894 0
M  V30 8460 H 785.837 0.107066 -0.667468 0
M  V30 8461 H 788.391 -0.331191 -2.02712 0
M  V30 8462 H 786.621 1.81326 -3.41552 0
M  V30 8463 H 788.31 1.55838 -3.74792 0
M  V30 8464 H 789.076 -0.690945 -4.80053 0
M  V30 8465 H 784.955 0.515474 -4.58109 0
M  V30 8466 H 788.499 -2.29316 -6.58832 0
M  V30 8467 H 784.396 -1.07902 -6.36418 0
M  V30 8468 H 785.164 -2.6209 -7.75404 0
M  V30 8469 N 787.827 1.57504 0.0551401 0
M  V30 8470 C 789.075 1.87684 0.74962 0
M  V30 8471 C 789.396 0.812547 1.77264 0
M  V30 8472 O 788.666 -0.15694 1.9527 0
M  V30 8473 H 787.246 0.6926 0.279846 0
M  V30 8474 H 789.908 1.94881 0.0272745 0
M  V30 8475 H 789.004 2.85734 1.25548 0
M  V30 8476 N 789.305 -0.326896 1.54172 0
M  V30 8477 C 790.253 -1.42232 1.84046 0
M  V30 8478 C 791.247 -1.53705 0.712115 0
M  V30 8479 O 792.453 -1.56131 0.895724 0
M  V30 8480 H 788.828 -0.474568 0.583343 0
M  V30 8481 H 790.799 -1.14259 2.75658 0
M  V30 8482 C 789.548 -2.78502 2.08163 0
M  V30 8483 H 788.871 -2.70447 2.94446 0
M  V30 8484 H 790.311 -3.54228 2.33021 0
M  V30 8485 C 788.77 -3.25415 0.872152 0
M  V30 8486 O 789.3 -4.01621 0.0797648 0
M  V30 8487 N 787.506 -2.82418 0.684716 0
M  V30 8488 H 787.053 -2.20566 1.33072 0
M  V30 8489 H 787.011 -3.14159 -0.123031 0
M  V30 8490 N 790.784 -1.46188 -0.588786 0
M  V30 8491 C 792.061 -1.41659 -1.34878 0
M  V30 8492 C 792.441 -0.0968913 -2.10878 0
M  V30 8493 O 791.789 0.921468 -2.09096 0
M  V30 8494 C 791.999 -2.6424 -2.27988 0
M  V30 8495 C 793.347 -3.1013 -2.90008 0
M  V30 8496 O 794.371 -2.64745 -2.38303 0
M  V30 8497 O 793.23 -3.88944 -3.83908 0
M  V30 8498 H 790.324 -0.563058 -0.605718 0
M  V30 8499 H 792.87 -1.58346 -0.610309 0
M  V30 8500 H 791.642 -3.51853 -1.71217 0
M  V30 8501 H 791.265 -2.49982 -3.09184 0
M  V30 8502 N 792.262 0.832906 -1.33792 0
M  V30 8503 C 793.678 1.1245 -1.13257 0
M  V30 8504 C 793.878 2.01369 0.0725832 0
M  V30 8505 O 792.934 2.41071 0.751082 0
M  V30 8506 C 794.247 1.78084 -2.42294 0
M  V30 8507 C 795.795 1.90624 -2.48257 0
M  V30 8508 C 796.27 2.59673 -3.77271 0
M  V30 8509 N 797.761 2.67181 -3.78376 0
M  V30 8510 C 798.496 3.21313 -4.74916 0
M  V30 8511 N 797.992 3.76086 -5.81835 0
M  V30 8512 N 799.785 3.19621 -4.62384 0
M  V30 8513 H 791.936 0.241244 -2.11026 0
M  V30 8514 H 794.199 0.169557 -0.932713 0
M  V30 8515 H 793.905 1.20209 -3.30519 0
M  V30 8516 H 793.779 2.78049 -2.5489 0
M  V30 8517 H 796.166 2.4765 -1.60478 0
M  V30 8518 H 796.247 0.89591 -2.39598 0
M  V30 8519 H 795.891 2.03304 -4.65435 0
M  V30 8520 H 795.821 3.61189 -3.8321 0
M  V30 8521 H 798.312 2.28346 -3.01108 0
M  V30 8522 H 798.625 4.15612 -6.51526 0
M  V30 8523 H 796.97 3.74357 -5.85561 0
M  V30 8524 H 800.161 2.76091 -3.7801 0
M  V30 8525 H 800.334 3.61504 -5.37791 0
M  V30 8526 N 793.74 1.17359 1.05189 0
M  V30 8527 C 794.67 0.91365 2.14883 0
M  V30 8528 C 795.651 -0.144365 1.69486 0
M  V30 8529 O 796.836 0.00587861 1.94199 0
M  V30 8530 C 793.966 0.426196 3.44675 0
M  V30 8531 C 792.92 1.4234 4.03638 0
M  V30 8532 C 792.246 0.793902 5.28773 0
M  V30 8533 C 793.546 2.7966 4.41121 0
M  V30 8534 H 795.24 1.831 2.36885 0
M  V30 8535 H 792.786 0.881781 1.13845 0
M  V30 8536 H 794.739 0.231767 4.20762 0
M  V30 8537 H 793.463 -0.526693 3.22325 0
M  V30 8538 H 792.122 1.60457 3.2962 0
M  V30 8539 H 791.77 -0.165824 5.02727 0
M  V30 8540 H 791.47 1.45959 5.69183 0
M  V30 8541 H 792.994 0.609747 6.07548 0
M  V30 8542 H 794.408 2.6526 5.08242 0
M  V30 8543 H 792.805 3.42807 4.92548 0
M  V30 8544 H 793.875 3.34068 3.51464 0
M  V30 8545 N 795.218 -1.23913 0.973828 0
M  V30 8546 C 796.466 -1.91771 0.637817 0
M  V30 8547 C 796.787 -1.76434 -0.830435 0
M  V30 8548 O 796.057 -1.13965 -1.59339 0
M  V30 8549 H 794.637 -0.709761 0.232912 0
M  V30 8550 H 797.299 -1.50677 1.23622 0
M  V30 8551 H 796.395 -2.99327 0.883731 0
M  V30 8552 N 796.696 -0.74468 -1.38897 0
M  V30 8553 C 797.626 -0.126355 -2.33158 0
M  V30 8554 C 798.607 0.713517 -1.54412 0
M  V30 8555 O 799.792 0.656523 -1.82766 0
M  V30 8556 C 796.922 0.774375 -3.38557 0
M  V30 8557 C 795.876 0.0379214 -4.27983 0
M  V30 8558 C 795.202 1.05631 -5.24162 0
M  V30 8559 C 796.502 -1.12523 -5.10035 0
M  V30 8560 H 798.196 -0.913744 -2.85116 0
M  V30 8561 H 795.742 -0.440847 -1.37086 0
M  V30 8562 H 797.695 1.21655 -4.03458 0
M  V30 8563 H 796.419 1.59399 -2.85061 0
M  V30 8564 H 795.078 -0.384733 -3.64576 0
M  V30 8565 H 794.726 1.86975 -4.66958 0
M  V30 8566 H 794.426 0.568261 -5.84846 0
M  V30 8567 H 795.95 1.49799 -5.9194 0
M  V30 8568 H 797.364 -0.761037 -5.68226 0
M  V30 8569 H 795.761 -1.54355 -5.79909 0
M  V30 8570 H 796.831 -1.94237 -4.44297 0
M  V30 8571 N 798.174 1.49689 -0.493057 0
M  V30 8572 C 799.404 2.06536 0.0512397 0
M  V30 8573 C 799.812 1.35459 1.32089 0
M  V30 8574 O 799.155 0.424145 1.78736 0
M  V30 8575 C 799.217 3.57452 0.383231 0
M  V30 8576 C 798.881 4.50163 -0.787555 0
M  V30 8577 C 799.878 4.92151 -1.67582 0
M  V30 8578 C 797.563 4.92565 -0.984109 0
M  V30 8579 C 799.557 5.7527 -2.74487 0
M  V30 8580 C 797.244 5.75463 -2.05634 0
M  V30 8581 C 798.242 6.16719 -2.93507 0
M  V30 8582 O 797.93 6.97961 -3.98881 0
M  V30 8583 H 797.662 0.675862 -0.0136516 0
M  V30 8584 H 800.216 1.9356 -0.687298 0
M  V30 8585 H 798.446 3.68408 1.17526 0
M  V30 8586 H 800.135 3.96572 0.8652 0
M  V30 8587 H 800.901 4.60043 -1.53575 0
M  V30 8588 H 796.78 4.5996 -0.309541 0
M  V30 8589 H 800.324 6.07392 -3.43104 0
M  V30 8590 H 796.221 6.06983 -2.19639 0
M  V30 8591 H 796.989 7.16253 -3.96137 0
M  V30 8592 N 799.652 0.226554 1.55963 0
M  V30 8593 C 800.88 -0.408507 2.02827 0
M  V30 8594 C 801.295 -1.52994 1.10627 0
M  V30 8595 O 800.652 -1.82126 0.116809 0
M  V30 8596 C 800.703 -0.93545 3.49187 0
M  V30 8597 O 800.424 0.141273 4.37872 0
M  V30 8598 C 801.925 -1.64325 4.11719 0
M  V30 8599 H 799.145 -0.099442 0.66359 0
M  V30 8600 H 801.689 0.344471 2.01578 0
M  V30 8601 H 799.844 -1.63868 3.51036 0
M  V30 8602 H 800.258 -0.25558 5.23877 0
M  V30 8603 H 801.732 -1.9639 5.15883 0
M  V30 8604 H 802.209 -2.55815 3.57009 0
M  V30 8605 H 802.815 -0.9851 4.13734 0
M  V30 8606 N 801.13 -1.57531 -0.0467866 0
M  V30 8607 C 802.377 -1.88451 -0.74112 0
M  V30 8608 C 802.705 -0.821592 -1.76296 0
M  V30 8609 O 801.96 0.179585 -1.94874 0
M  V30 8610 C 802.259 -3.26091 -1.46285 0
M  V30 8611 C 801.925 -4.47171 -0.578669 0
M  V30 8612 C 800.587 -4.80032 -0.335083 0
M  V30 8613 C 802.939 -5.2119 0.0328809 0
M  V30 8614 C 800.267 -5.84309 0.529121 0
M  V30 8615 C 802.619 -6.26383 0.884684 0
M  V30 8616 C 801.283 -6.57729 1.1379 0
M  V30 8617 H 800.553 -0.68959 -0.271195 0
M  V30 8618 H 803.2 -1.915 -0.00132378 0
M  V30 8619 H 801.505 -3.18948 -2.27551 0
M  V30 8620 H 803.202 -3.47258 -2.00532 0
M  V30 8621 H 799.792 -4.21467 -0.778666 0
M  V30 8622 H 803.976 -4.96096 -0.142375 0
M  V30 8623 H 799.232 -6.06981 0.733794 0
M  V30 8624 H 803.406 -6.82888 1.36516 0
M  V30 8625 H 801.033 -7.38355 1.80929 0
M  V30 8626 N 802.608 0.318715 -1.54344 0
M  V30 8627 C 803.555 1.39242 -1.84066 0
M  V30 8628 C 804.525 1.51175 -0.688134 0
M  V30 8629 O 805.71 1.66318 -0.935039 0
M  V30 8630 C 802.85 2.75528 -2.07794 0
M  V30 8631 C 801.963 2.72187 -3.35467 0
M  V30 8632 C 801.098 4.00352 -3.4913 0
M  V30 8633 C 800.137 3.91338 -4.7066 0
M  V30 8634 N 799.274 5.11242 -4.81224 0
M  V30 8635 H 804.114 1.13196 -2.75664 0
M  V30 8636 H 801.651 0.547857 -1.36517 0
M  V30 8637 H 803.609 3.54763 -2.19543 0
M  V30 8638 H 802.239 2.99873 -1.19482 0
M  V30 8639 H 801.291 1.84917 -3.3243 0
M  V30 8640 H 802.603 2.61411 -4.24812 0
M  V30 8641 H 801.757 4.88019 -3.60448 0
M  V30 8642 H 800.496 4.1394 -2.57886 0
M  V30 8643 H 799.501 3.02055 -4.59394 0
M  V30 8644 H 800.726 3.7931 -5.63294 0
M  V30 8645 H 798.672 5.25327 -3.92897 0
M  V30 8646 H 798.589 5.0282 -5.64543 0
M  V30 8647 H 799.857 6.0061 -4.96879 0
M  V30 8648 N 804.086 1.46499 0.581025 0
M  V30 8649 C 805.036 1.53606 1.68491 0
M  V30 8650 C 806.02 0.396853 1.55929 0
M  V30 8651 O 807.212 0.645366 1.64815 0
M  V30 8652 C 804.341 1.53089 3.07276 0
M  V30 8653 C 803.427 2.72309 3.25128 0
M  V30 8654 N 803.818 3.97216 3.13134 0
M  V30 8655 C 802.116 2.68568 3.56072 0
M  V30 8656 C 802.817 4.7693 3.33036 0
M  V30 8657 N 801.793 4.08833 3.58269 0
M  V30 8658 H 805.595 2.47976 1.5775 0
M  V30 8659 H 803.109 1.42161 0.785104 0
M  V30 8660 H 805.106 1.56268 3.86505 0
M  V30 8661 H 803.766 0.597969 3.19146 0
M  V30 8662 H 804.777 4.28439 2.90964 0
M  V30 8663 H 801.454 1.84307 3.74616 0
M  V30 8664 H 802.844 5.85879 3.28932 0
M  V30 8665 N 805.565 -0.825799 1.34232 0
M  V30 8666 C 806.495 -1.95151 1.28212 0
M  V30 8667 C 807.476 -1.69345 0.160123 0
M  V30 8668 O 808.661 -1.90983 0.352019 0
M  V30 8669 C 805.791 -3.31554 1.03388 0
M  V30 8670 C 804.745 -3.71793 2.12023 0
M  V30 8671 C 804.071 -5.06147 1.72392 0
M  V30 8672 C 805.371 -3.84193 3.53826 0
M  V30 8673 H 807.065 -2.00445 2.22401 0
M  V30 8674 H 804.611 -0.962996 1.07063 0
M  V30 8675 H 806.564 -4.09889 0.978225 0
M  V30 8676 H 805.288 -3.26551 0.0564142 0
M  V30 8677 H 803.947 -2.95731 2.16654 0
M  V30 8678 H 803.595 -4.97628 0.733137 0
M  V30 8679 H 803.295 -5.34041 2.451 0
M  V30 8680 H 804.819 -5.86943 1.68317 0
M  V30 8681 H 806.233 -4.52806 3.51624 0
M  V30 8682 H 804.63 -4.23538 4.2513 0
M  V30 8683 H 805.7 -2.86272 3.91377 0
M  V30 8684 N 807.043 -1.17915 -1.04565 0
M  V30 8685 C 808.289 -0.972863 -1.77942 0
M  V30 8686 C 808.622 0.496753 -1.87739 0
M  V30 8687 O 807.897 1.3688 -1.38181 0
M  V30 8688 C 808.18 -1.62227 -3.21488 0
M  V30 8689 C 808.033 -3.16441 -3.19664 0
M  V30 8690 C 809.352 -1.33137 -4.19479 0
M  V30 8691 H 806.471 -0.354843 -0.645953 0
M  V30 8692 H 809.113 -1.45508 -1.22178 0
M  V30 8693 H 807.263 -1.21224 -3.69103 0
M  V30 8694 H 808.935 -3.66544 -2.80077 0
M  V30 8695 H 807.178 -3.48863 -2.57832 0
M  V30 8696 H 807.849 -3.57012 -4.21006 0
M  V30 8697 H 810.325 -1.68654 -3.80388 0
M  V30 8698 H 809.201 -1.81151 -5.18146 0
M  V30 8699 H 809.462 -0.253319 -4.41374 0
M  V30 8700 N 808.521 1.23394 -0.980386 0
M  V30 8701 C 809.937 1.43961 -0.689008 0
M  V30 8702 C 810.137 1.87229 0.744809 0
M  V30 8703 O 809.193 2.01831 1.51725 0
M  V30 8704 C 810.506 2.49128 -1.68392 0
M  V30 8705 C 812.054 2.62941 -1.69796 0
M  V30 8706 C 812.529 3.71317 -2.68118 0
M  V30 8707 N 814.02 3.7876 -2.66636 0
M  V30 8708 C 814.755 4.62176 -3.39383 0
M  V30 8709 N 814.251 5.49682 -4.21688 0
M  V30 8710 N 816.044 4.56372 -3.28147 0
M  V30 8711 H 808.195 0.936106 -1.90659 0
M  V30 8712 H 810.458 0.473023 -0.821555 0
M  V30 8713 H 810.164 2.24252 -2.70931 0
M  V30 8714 H 810.038 3.47514 -1.46675 0
M  V30 8715 H 812.425 2.87168 -0.679617 0
M  V30 8716 H 812.506 1.64871 -1.95579 0
M  V30 8717 H 812.15 3.4784 -3.70095 0
M  V30 8718 H 812.08 4.68929 -2.3961 0
M  V30 8719 H 814.571 3.16226 -2.06904 0
M  V30 8720 H 814.884 6.10323 -4.74053 0
M  V30 8721 H 813.229 5.49306 -4.25779 0
M  V30 8722 H 816.42 3.87029 -2.63299 0
M  V30 8723 H 816.593 5.21153 -3.85102 0
M  V30 8724 N 809.999 0.752036 1.385 0
M  V30 8725 C 811.246 0.307503 2.00152 0
M  V30 8726 C 811.574 -1.11033 1.59693 0
M  V30 8727 O 810.829 -1.77455 0.825125 0
M  V30 8728 C 811.128 0.376155 3.55415 0
M  V30 8729 C 810.794 1.74942 4.15579 0
M  V30 8730 C 809.456 2.12525 4.31725 0
M  V30 8731 C 811.808 2.65031 4.48785 0
M  V30 8732 C 809.136 3.39671 4.78373 0
M  V30 8733 C 811.488 3.91567 4.96848 0
M  V30 8734 C 810.152 4.2922 5.11201 0
M  V30 8735 H 809.422 0.112523 0.732407 0
M  V30 8736 H 812.069 0.962213 1.65571 0
M  V30 8737 H 810.374 -0.362121 3.90123 0
M  V30 8738 H 812.071 0.0138065 4.00998 0
M  V30 8739 H 808.661 1.44726 4.03426 0
M  V30 8740 H 812.845 2.3726 4.35914 0
M  V30 8741 H 808.101 3.68765 4.8767 0
M  V30 8742 H 812.275 4.61517 5.21512 0
M  V30 8743 H 809.902 5.27805 5.47107 0
M  V30 8744 N 811.477 -1.49425 0.500989 0
M  V30 8745 C 812.407 -2.31971 -0.266775 0
M  V30 8746 C 813.388 -1.40245 -0.962563 0
M  V30 8747 O 814.573 -1.69154 -0.953968 0
M  V30 8748 C 811.703 -3.20757 -1.33163 0
M  V30 8749 C 810.657 -4.21275 -0.75572 0
M  V30 8750 C 809.983 -4.98997 -1.92109 0
M  V30 8751 C 811.283 -5.21686 0.253213 0
M  V30 8752 H 812.977 -2.96408 0.422237 0
M  V30 8753 H 810.523 -1.4254 0.204505 0
M  V30 8754 H 812.476 -3.77315 -1.87646 0
M  V30 8755 H 811.2 -2.54263 -2.04983 0
M  V30 8756 H 809.859 -3.65861 -0.232637 0
M  V30 8757 H 809.507 -4.28951 -2.62698 0
M  V30 8758 H 809.207 -5.67011 -1.54182 0
M  V30 8759 H 810.731 -5.584 -2.47026 0
M  V30 8760 H 812.145 -5.72939 -0.203483 0
M  V30 8761 H 810.542 -5.9759 0.548322 0
M  V30 8762 H 811.612 -4.70596 1.16909 0
M  V30 8763 N 812.955 -0.234822 -1.55841 0
M  V30 8764 C 813.905 0.68346 -2.17515 0
M  V30 8765 C 814.889 1.14798 -1.1274 0
M  V30 8766 O 816.081 1.09976 -1.38688 0
M  V30 8767 C 813.21 1.88551 -2.86886 0
M  V30 8768 C 812.296 1.44006 -3.98903 0
M  V30 8769 N 812.687 0.708034 -5.0082 0
M  V30 8770 C 810.985 1.7263 -4.11236 0
M  V30 8771 C 811.686 0.479036 -5.79724 0
M  V30 8772 N 810.662 1.03968 -5.33565 0
M  V30 8773 H 814.464 0.115897 -2.93671 0
M  V30 8774 H 811.978 -0.0366273 -1.62359 0
M  V30 8775 H 813.975 2.55425 -3.2949 0
M  V30 8776 H 812.635 2.45742 -2.12229 0
M  V30 8777 H 813.646 0.359363 -5.16652 0
M  V30 8778 H 810.323 2.31046 -3.47741 0
M  V30 8779 H 811.713 -0.104514 -6.71819 0
M  V30 8780 N 814.433 1.57553 0.0384317 0
M  V30 8781 C 815.658 1.93485 0.746872 0
M  V30 8782 C 816.083 0.834069 1.68597 0
M  V30 8783 O 815.441 -0.210902 1.80069 0
M  V30 8784 C 815.489 3.28463 1.4881 0
M  V30 8785 O 814.593 3.20051 2.60079 0
M  V30 8786 H 813.934 0.632675 0.201539 0
M  V30 8787 H 816.464 2.046 -0.00329815 0
M  V30 8788 H 816.474 3.63132 1.86009 0
M  V30 8789 H 815.149 4.08147 0.799297 0
M  V30 8790 H 813.726 2.96998 2.25492 0
M  V30 8791 N 815.911 -0.310526 1.54511 0
M  V30 8792 C 817.157 -1.04459 1.74528 0
M  V30 8793 C 817.512 -1.85251 0.519613 0
M  V30 8794 O 816.805 -1.85281 -0.488001 0
M  V30 8795 C 816.999 -1.98942 2.96912 0
M  V30 8796 C 816.828 -1.27442 4.31264 0
M  V30 8797 C 815.598 -1.00552 4.95194 0
M  V30 8798 C 817.796 -0.683695 5.09735 0
M  V30 8799 N 815.778 -0.259797 6.1335 0
M  V30 8800 C 817.149 -0.0702549 6.1996 0
M  V30 8801 C 819.204 -0.587799 4.94418 0
M  V30 8802 C 817.907 0.629791 7.16538 0
M  V30 8803 C 819.933 0.0985719 5.91318 0
M  V30 8804 C 819.295 0.700902 7.00904 0
M  V30 8805 H 815.394 -0.365496 0.69133 0
M  V30 8806 H 817.978 -0.324277 1.91981 0
M  V30 8807 H 816.149 -2.68233 2.80902 0
M  V30 8808 H 817.881 -2.6543 3.05498 0
M  V30 8809 H 814.636 -1.30123 4.55374 0
M  V30 8810 H 815.06 0.099301 6.76927 0
M  V30 8811 H 819.702 -1.03919 4.0983 0
M  V30 8812 H 817.42 1.09298 8.00674 0
M  V30 8813 H 821.006 0.172585 5.81544 0
M  V30 8814 H 819.886 1.22357 7.74596 0
M  V30 8815 N 817.389 -1.46805 -0.573248 0
M  V30 8816 C 818.617 -1.56191 -1.3569 0
M  V30 8817 C 819.032 -0.206362 -1.87669 0
M  V30 8818 O 818.389 0.797883 -1.64134 0
M  V30 8819 C 818.44 -2.57433 -2.53792 0
M  V30 8820 O 818.161 -3.87724 -2.03965 0
M  V30 8821 C 819.662 -2.76851 -3.4622 0
M  V30 8822 H 816.882 -0.527907 -0.414192 0
M  V30 8823 H 819.426 -1.92292 -0.695989 0
M  V30 8824 H 817.581 -2.24311 -3.15854 0
M  V30 8825 H 817.995 -4.42909 -2.80948 0
M  V30 8826 H 819.469 -3.5159 -4.25545 0
M  V30 8827 H 819.946 -1.84095 -3.98755 0
M  V30 8828 H 820.552 -3.11107 -2.89987 0
M  V30 8829 N 818.867 0.818669 -1.34668 0
M  V30 8830 C 819.815 1.95123 -1.26609 0
M  V30 8831 C 820.809 1.68611 -0.163348 0
M  V30 8832 O 822.015 1.76975 -0.328586 0
M  V30 8833 H 818.39 0.640871 -0.393431 0
M  V30 8834 H 820.361 1.99043 -2.22316 0
M  V30 8835 C 819.11 3.31697 -1.04272 0
M  V30 8836 H 818.433 3.52648 -1.8836 0
M  V30 8837 H 819.873 4.11382 -1.0267 0
M  V30 8838 C 818.332 3.35942 0.253858 0
M  V30 8839 O 818.862 3.81632 1.25378 0
M  V30 8840 N 817.068 2.89165 0.288447 0
M  V30 8841 H 816.615 2.52176 -0.525845 0
M  V30 8842 H 816.573 2.92387 1.15572 0
M  V30 8843 N 820.346 1.18468 1.03938 0
M  V30 8844 C 821.276 0.936389 2.13902 0
M  V30 8845 C 822.257 -0.126381 1.6963 0
M  V30 8846 O 823.442 0.0264757 1.94182 0
M  V30 8847 C 820.572 0.462729 3.44204 0
M  V30 8848 C 819.526 1.46613 4.02105 0
M  V30 8849 C 818.852 0.84994 5.27902 0
M  V30 8850 C 820.152 2.84323 4.3813 0
M  V30 8851 H 821.846 1.85602 2.3493 0
M  V30 8852 H 819.392 0.893806 1.12903 0
M  V30 8853 H 821.345 0.276382 4.20493 0
M  V30 8854 H 820.069 -0.492477 3.22866 0
M  V30 8855 H 818.728 1.63944 3.27899 0
M  V30 8856 H 818.376 -0.112493 5.02874 0
M  V30 8857 H 818.076 1.51988 5.67603 0
M  V30 8858 H 819.6 0.674152 6.06867 0
M  V30 8859 H 821.014 2.70636 5.054 0
M  V30 8860 H 819.411 3.48012 4.88884 0
M  V30 8861 H 820.481 3.37776 3.47901 0
M  V30 8862 N 821.824 -1.22873 0.986916 0
M  V30 8863 C 823.24 -1.43594 0.696633 0
M  V30 8864 C 823.44 -1.87622 -0.734869 0
M  V30 8865 O 822.496 -2.02633 -1.50652 0
M  V30 8866 C 823.809 -2.48231 1.69711 0
M  V30 8867 C 825.357 -2.62037 1.71188 0
M  V30 8868 C 825.832 -3.6989 2.70084 0
M  V30 8869 N 827.323 -3.77341 2.68641 0
M  V30 8870 C 828.058 -4.6037 3.41829 0
M  V30 8871 N 827.554 -5.47438 4.24598 0
M  V30 8872 N 829.347 -4.54626 3.30563 0
M  V30 8873 H 821.498 -0.925982 1.91153 0
M  V30 8874 H 823.761 -0.46866 0.824052 0
M  V30 8875 H 823.467 -2.22812 2.72117 0
M  V30 8876 H 823.341 -3.46731 1.48516 0
M  V30 8877 H 825.728 -2.86803 0.694837 0
M  V30 8878 H 825.809 -1.63831 1.96451 0
M  V30 8879 H 825.453 -3.45872 3.71934 0
M  V30 8880 H 825.383 -4.67652 2.42093 0
M  V30 8881 H 827.874 -3.15124 2.08578 0
M  V30 8882 H 828.187 -6.078 4.77283 0
M  V30 8883 H 826.532 -5.4704 4.28687 0
M  V30 8884 H 829.723 -3.85627 2.65347 0
M  V30 8885 H 829.896 -5.19103 3.8786 0
M  V30 8886 N 823.302 -0.75937 -1.38099 0
M  V30 8887 C 824.232 -0.151077 -2.33011 0
M  V30 8888 C 825.213 0.697099 -1.5516 0
M  V30 8889 O 826.398 0.637101 -1.83452 0
M  V30 8890 C 823.528 0.738423 -3.39359 0
M  V30 8891 C 822.482 -0.0074741 -4.27999 0
M  V30 8892 C 821.808 1.00066 -5.25253 0
M  V30 8893 C 823.108 -1.17926 -5.08813 0
M  V30 8894 H 824.802 -0.943933 -2.84131 0
M  V30 8895 H 822.348 -0.455362 -1.36611 0
M  V30 8896 H 824.301 1.17369 -4.04725 0
M  V30 8897 H 823.025 1.56366 -2.86735 0
M  V30 8898 H 821.684 -0.423379 -3.64147 0
M  V30 8899 H 821.332 1.82012 -4.68914 0
M  V30 8900 H 821.032 0.506199 -5.85416 0
M  V30 8901 H 822.556 1.43512 -5.93495 0
M  V30 8902 H 823.97 -0.821262 -5.67387 0
M  V30 8903 H 822.367 -1.60497 -5.78239 0
M  V30 8904 H 823.437 -1.98938 -4.42212 0
M  V30 8905 N 824.78 1.49157 -0.508906 0
M  V30 8906 C 825.712 2.272 0.302115 0
M  V30 8907 C 826.725 1.3407 0.923529 0
M  V30 8908 O 827.914 1.5929 0.805532 0
M  V30 8909 C 825.014 3.06736 1.44105 0
M  V30 8910 C 824.187 4.27497 0.925477 0
M  V30 8911 C 823.246 4.89014 1.94297 0
M  V30 8912 O 822.272 5.48851 1.50834 0
M  V30 8913 N 823.474 4.7937 3.2739 0
M  V30 8914 H 826.239 2.97443 -0.367115 0
M  V30 8915 H 823.8 1.58248 -0.341933 0
M  V30 8916 H 825.792 3.44763 2.11944 0
M  V30 8917 H 824.362 2.3905 2.0143 0
M  V30 8918 H 823.582 3.94135 0.0717301 0
M  V30 8919 H 824.87 5.05714 0.55955 0
M  V30 8920 H 824.268 4.31869 3.65384 0
M  V30 8921 H 822.825 5.21559 3.90922 0
M  V30 8922 N 826.258 0.243083 1.55714 0
M  V30 8923 C 827.486 -0.386971 2.03249 0
M  V30 8924 C 827.901 -1.51812 1.12243 0
M  V30 8925 O 827.258 -1.81992 0.136119 0
M  V30 8926 C 827.309 -0.898361 3.5016 0
M  V30 8927 O 827.03 0.187708 4.37698 0
M  V30 8928 C 828.531 -1.59949 4.13438 0
M  V30 8929 H 825.751 -0.0923981 0.664608 0
M  V30 8930 H 828.295 0.365832 2.01201 0
M  V30 8931 H 826.45 -1.60136 3.52754 0
M  V30 8932 H 826.864 -0.200001 5.24119 0
M  V30 8933 H 828.338 -1.90907 5.17937 0
M  V30 8934 H 828.815 -2.52014 3.59702 0
M  V30 8935 H 829.421 -0.941163 4.14756 0
M  V30 8936 N 827.736 -1.57571 -0.0300757 0
M  V30 8937 C 828.666 -2.0953 -1.03051 0
M  V30 8938 C 829.647 -0.99761 -1.37774 0
M  V30 8939 O 830.832 -1.27279 -1.46676 0
M  V30 8940 C 827.962 -2.57385 -2.33174 0
M  V30 8941 C 826.916 -3.71409 -2.12696 0
M  V30 8942 C 826.242 -4.05467 -3.4857 0
M  V30 8943 C 827.542 -4.99877 -1.51396 0
M  V30 8944 H 829.236 -2.93367 -0.597999 0
M  V30 8945 H 826.782 -1.41127 -0.286203 0
M  V30 8946 H 828.735 -2.92355 -3.03491 0
M  V30 8947 H 827.459 -1.70629 -2.78484 0
M  V30 8948 H 826.118 -3.36786 -1.44813 0
M  V30 8949 H 825.766 -3.15779 -3.91526 0
M  V30 8950 H 825.466 -4.82269 -3.35694 0
M  V30 8951 H 826.99 -4.4297 -4.2025 0
M  V30 8952 H 828.404 -5.3281 -2.11629 0
M  V30 8953 H 826.801 -5.81283 -1.49098 0
M  V30 8954 H 827.871 -4.82522 -0.479676 0
M  V30 8955 N 829.214 0.302327 -1.54673 0
M  V30 8956 C 830.625 0.875409 -1.64904 0
M  V30 8957 C 830.976 1.88132 -0.55684 0
M  V30 8958 O 830.101 2.14215 0.306754 0
M  V30 8959 C 830.696 1.59457 -2.9893 0
M  V30 8960 C 829.255 2.11607 -3.11287 0
M  V30 8961 C 828.402 0.948324 -2.6058 0
M  V30 8962 H 831.353 0.079362 -1.58501 0
M  V30 8963 H 831.374 2.46005 -2.90279 0
M  V30 8964 H 830.886 0.8622 -3.78402 0
M  V30 8965 H 828.987 2.87895 -2.36532 0
M  V30 8966 H 829.1 2.35151 -4.17422 0
M  V30 8967 H 827.464 1.33352 -2.17001 0
M  V30 8968 H 828.247 0.229936 -3.42529 0
M  V30 8969 N 830.692 1.47107 0.565454 0
M  V30 8970 C 832.103 1.47266 1.1476 0
M  V30 8971 C 832.454 0.222841 1.9493 0
M  V30 8972 O 831.579 -0.672862 2.05673 0
M  V30 8973 C 832.174 2.66822 2.08785 0
M  V30 8974 C 830.733 2.69967 2.62288 0
M  V30 8975 C 829.88 2.40236 1.38499 0
M  V30 8976 H 832.831 1.54736 0.352479 0
M  V30 8977 H 832.852 2.43323 2.92531 0
M  V30 8978 H 832.364 3.5777 1.50408 0
M  V30 8979 H 830.465 1.83137 3.24487 0
M  V30 8980 H 830.578 3.70426 3.03845 0
M  V30 8981 H 828.942 1.90648 1.68895 0
M  V30 8982 H 829.725 3.33381 0.819274 0
M  V30 8983 N 832.17 -0.811516 1.35101 0
M  V30 8984 C 833.416 -1.57068 1.28287 0
M  V30 8985 C 833.749 -1.93667 -0.143808 0
M  V30 8986 O 833.024 -1.60953 -1.09199 0
M  V30 8987 C 833.307 -2.86259 2.18466 0
M  V30 8988 C 833.16 -2.56168 3.69727 0
M  V30 8989 C 834.479 -3.87924 2.07852 0
M  V30 8990 H 831.598 -0.569869 0.467353 0
M  V30 8991 H 834.24 -0.934023 1.65457 0
M  V30 8992 H 832.39 -3.4059 1.86898 0
M  V30 8993 H 834.062 -2.08059 4.11715 0
M  V30 8994 H 832.305 -1.89436 3.90252 0
M  V30 8995 H 832.976 -3.48344 4.28206 0
M  V30 8996 H 835.452 -3.4298 2.35593 0
M  V30 8997 H 834.328 -4.76106 2.73157 0
M  V30 8998 H 834.589 -4.2923 1.05896 0
M  V30 8999 N 833.648 -1.19017 -1.03309 0
M  V30 9000 C 834.58 -0.881847 -2.11556 0
M  V30 9001 C 835.593 0.123711 -1.62329 0
M  V30 9002 O 836.782 -0.105141 -1.7819 0
M  V30 9003 C 833.882 -0.297634 -3.37591 0
M  V30 9004 C 833.055 -1.35072 -4.16022 0
M  V30 9005 C 832.114 -0.780812 -5.20375 0
M  V30 9006 O 831.14 -1.45745 -5.50224 0
M  V30 9007 N 832.342 0.417964 -5.78993 0
M  V30 9008 H 835.107 -1.81359 -2.38598 0
M  V30 9009 H 832.668 -1.0916 -1.19565 0
M  V30 9010 H 834.66 0.097374 -4.04583 0
M  V30 9011 H 833.23 0.538299 -3.0793 0
M  V30 9012 H 832.45 -1.92074 -3.4424 0
M  V30 9013 H 833.738 -2.06044 -4.65213 0
M  V30 9014 H 833.136 0.985281 -5.57054 0
M  V30 9015 H 831.693 0.754802 -6.47415 0
M  V30 9016 N 835.127 1.22348 -0.993418 0
M  V30 9017 C 836.057 2.26584 -0.564088 0
M  V30 9018 C 837.038 1.65102 0.409298 0
M  V30 9019 O 838.223 1.91872 0.299819 0
M  V30 9020 C 835.353 3.47087 0.121554 0
M  V30 9021 C 834.307 4.21009 -0.770429 0
M  V30 9022 C 833.633 5.34678 0.0481586 0
M  V30 9023 C 834.933 4.79636 -2.06752 0
M  V30 9024 H 836.627 2.62749 -1.43538 0
M  V30 9025 H 834.173 1.26303 -0.691628 0
M  V30 9026 H 836.126 4.19166 0.433303 0
M  V30 9027 H 834.85 3.1002 1.0274 0
M  V30 9028 H 833.509 3.50764 -1.06583 0
M  V30 9029 H 833.157 4.93852 0.954933 0
M  V30 9030 H 832.857 5.85061 -0.545641 0
M  V30 9031 H 834.381 6.09573 0.353991 0
M  V30 9032 H 835.795 5.43654 -1.81969 0
M  V30 9033 H 834.192 5.4036 -2.61019 0
M  V30 9034 H 835.262 3.99659 -2.74592 0
M  V30 9035 N 836.605 0.766683 1.37694 0
M  V30 9036 C 837.568 0.155849 2.2867 0
M  V30 9037 C 838.568 -0.633509 1.47795 0
M  V30 9038 O 839.758 -0.457844 1.68076 0
M  V30 9039 C 836.89 -0.786965 3.31692 0
M  V30 9040 H 838.083 0.957748 2.84196 0
M  V30 9041 H 835.636 0.534554 1.46875 0
M  V30 9042 H 836.371 -1.61406 2.8128 0
M  V30 9043 H 836.156 -0.223182 3.91464 0
M  V30 9044 H 837.646 -1.20994 3.99688 0
M  V30 9045 N 838.083 -1.48885 0.516809 0
M  V30 9046 C 839.015 -2.27357 -0.290061 0
M  V30 9047 C 840.028 -1.34558 -0.916406 0
M  V30 9048 O 841.217 -1.59715 -0.797073 0
M  V30 9049 C 838.317 -3.07496 -1.42476 0
M  V30 9050 C 837.49 -4.27982 -0.902793 0
M  V30 9051 C 836.549 -4.90038 -1.91701 0
M  V30 9052 O 835.575 -5.49643 -1.47922 0
M  V30 9053 N 836.777 -4.811 -3.24843 0
M  V30 9054 H 839.542 -2.97244 0.382884 0
M  V30 9055 H 837.103 -1.58064 0.35032 0
M  V30 9056 H 839.095 -3.45882 -2.10113 0
M  V30 9057 H 837.665 -2.40115 -2.00159 0
M  V30 9058 H 836.885 -3.94167 -0.0508272 0
M  V30 9059 H 838.173 -5.06003 -0.532723 0
M  V30 9060 H 837.571 -4.33801 -3.63088 0
M  V30 9061 H 836.128 -5.23625 -3.8815 0
M  V30 9062 N 839.561 -0.251338 -1.55583 0
M  V30 9063 C 840.508 0.646337 -2.21565 0
M  V30 9064 C 841.478 1.16796 -1.18102 0
M  V30 9065 O 842.663 1.22162 -1.46564 0
M  V30 9066 C 839.803 1.83557 -2.92234 0
M  V30 9067 C 838.916 1.35006 -4.10363 0
M  V30 9068 C 838.051 2.4992 -4.68736 0
M  V30 9069 C 837.09 1.98253 -5.79105 0
M  V30 9070 N 836.227 3.06551 -6.31642 0
M  V30 9071 H 841.067 0.0769881 -2.97901 0
M  V30 9072 H 838.604 0.026238 -1.47077 0
M  V30 9073 H 840.562 2.53425 -3.31408 0
M  V30 9074 H 839.192 2.37733 -2.18364 0
M  V30 9075 H 838.244 0.545274 -3.76472 0
M  V30 9076 H 839.556 0.931435 -4.90026 0
M  V30 9077 H 838.71 3.27823 -5.10507 0
M  V30 9078 H 837.449 2.95086 -3.88298 0
M  V30 9079 H 836.454 1.18822 -5.36807 0
M  V30 9080 H 837.679 1.54051 -6.61396 0
M  V30 9081 H 835.625 3.51143 -5.54107 0
M  V30 9082 H 835.542 2.69033 -7.06511 0
M  V30 9083 H 836.81 3.84499 -6.78071 0
M  V30 9084 N 841.039 1.57585 0.0217189 0
M  V30 9085 C 842.269 1.9359 0.721572 0
M  V30 9086 C 842.677 0.850132 1.69025 0
M  V30 9087 O 842.02 -0.181539 1.82801 0
M  V30 9088 C 842.082 3.25445 1.52729 0
M  V30 9089 C 841.746 4.51251 0.722586 0
M  V30 9090 C 842.743 5.19896 0.0196598 0
M  V30 9091 C 840.428 4.97745 0.674959 0
M  V30 9092 C 842.422 6.33319 -0.720114 0
M  V30 9093 C 840.109 6.11062 -0.068555 0
M  V30 9094 C 841.107 6.78704 -0.764845 0
M  V30 9095 O 840.795 7.89852 -1.49627 0
M  V30 9096 H 840.527 0.643409 0.207366 0
M  V30 9097 H 843.081 2.05391 -0.0189346 0
M  V30 9098 H 841.311 3.0999 2.31178 0
M  V30 9099 H 843 3.46721 2.11044 0
M  V30 9100 H 843.766 4.84977 0.0474394 0
M  V30 9101 H 839.645 4.44934 1.20643 0
M  V30 9102 H 843.189 6.86051 -1.26413 0
M  V30 9103 H 839.086 6.45425 -0.0982318 0
M  V30 9104 H 839.854 8.06251 -1.41071 0
M  V30 9105 N 842.517 -0.29412 1.54831 0
M  V30 9106 C 843.764 -1.02846 1.74439 0
M  V30 9107 C 844.092 -1.87029 0.533905 0
M  V30 9108 O 843.347 -1.8962 -0.484035 0
M  V30 9109 C 843.646 -1.95782 2.99006 0
M  V30 9110 C 843.312 -1.2752 4.32492 0
M  V30 9111 C 841.974 -1.08637 4.68777 0
M  V30 9112 C 844.326 -0.787761 5.15212 0
M  V30 9113 C 841.654 -0.39704 5.85355 0
M  V30 9114 C 844.006 -0.112123 6.32501 0
M  V30 9115 C 842.67 0.0886071 6.67441 0
M  V30 9116 H 841.94 -0.376341 0.638317 0
M  V30 9117 H 844.587 -0.302684 1.89093 0
M  V30 9118 H 842.892 -2.74911 2.79162 0
M  V30 9119 H 844.589 -2.52684 3.11371 0
M  V30 9120 H 841.179 -1.43226 4.03961 0
M  V30 9121 H 845.363 -0.921341 4.87673 0
M  V30 9122 H 840.619 -0.230597 6.10965 0
M  V30 9123 H 844.793 0.27344 6.95863 0
M  V30 9124 H 842.42 0.624748 7.57628 0
M  V30 9125 N 843.995 -1.47404 -0.557645 0
M  V30 9126 C 844.927 -1.55917 -1.67995 0
M  V30 9127 C 845.94 -0.445411 -1.56588 0
M  V30 9128 O 847.129 -0.714999 -1.63554 0
M  V30 9129 C 844.229 -1.44697 -3.06457 0
M  V30 9130 C 843.402 -2.70633 -3.43622 0
M  V30 9131 C 842.461 -2.53256 -4.61246 0
M  V30 9132 O 841.487 -3.27068 -4.65849 0
M  V30 9133 N 842.689 -1.61053 -5.57711 0
M  V30 9134 H 845.454 -2.52694 -1.61139 0
M  V30 9135 H 843.015 -1.43778 -0.744271 0
M  V30 9136 H 845.007 -1.30806 -3.82978 0
M  V30 9137 H 843.577 -0.560039 -3.07542 0
M  V30 9138 H 842.797 -2.99288 -2.56555 0
M  V30 9139 H 844.085 -3.5424 -3.65228 0
M  V30 9140 H 843.483 -1.00235 -5.56749 0
M  V30 9141 H 842.04 -1.53115 -6.33561 0
M  V30 9142 N 845.473 0.80434 -1.35529 0
M  V30 9143 C 846.722 1.55665 -1.28263 0
M  V30 9144 C 847.035 1.95096 0.140352 0
M  V30 9145 O 848.241 2.69422 0.335303 0
M  V30 9146 C 846.697 2.80935 -2.24952 0
M  V30 9147 C 846.305 2.48733 -3.72607 0
M  V30 9148 C 848.049 3.5894 -2.26632 0
M  V30 9149 C 845.956 3.70308 -4.61114 0
M  V30 9150 H 844.886 0.584301 -0.476559 0
M  V30 9151 H 847.537 0.88395 -1.60806 0
M  V30 9152 H 845.919 3.49927 -1.85383 0
M  V30 9153 H 847.093 1.87733 -4.20824 0
M  V30 9154 H 845.408 1.83969 -3.73557 0
M  V30 9155 H 848.005 4.49244 -2.89973 0
M  V30 9156 H 848.348 3.96433 -1.27069 0
M  V30 9157 H 848.881 2.96912 -2.64742 0
M  V30 9158 H 845.62 3.37922 -5.61684 0
M  V30 9159 H 845.14 4.30526 -4.17621 0
M  V30 9160 H 846.819 4.37511 -4.76648 0
M  V30 9161 N 846.951 1.19563 1.02676 0
M  V30 9162 C 848.198 0.999568 1.7611 0
M  V30 9163 C 848.526 -0.469432 1.8875 0
M  V30 9164 O 847.781 -1.36481 1.40255 0
M  V30 9165 C 848.08 1.61619 3.18769 0
M  V30 9166 C 847.746 3.11366 3.26132 0
M  V30 9167 C 846.408 3.52234 3.27848 0
M  V30 9168 C 848.76 4.07374 3.25109 0
M  V30 9169 C 846.088 4.87658 3.26201 0
M  V30 9170 C 848.44 5.42731 3.25002 0
M  V30 9171 C 847.104 5.83027 3.25017 0
M  V30 9172 H 846.374 0.365768 0.644434 0
M  V30 9173 H 849.021 1.48838 1.20497 0
M  V30 9174 H 847.326 1.04974 3.77476 0
M  V30 9175 H 849.023 1.43975 3.74262 0
M  V30 9176 H 845.613 2.78804 3.25525 0
M  V30 9177 H 849.797 3.76842 3.22961 0
M  V30 9178 H 845.053 5.18156 3.24537 0
M  V30 9179 H 849.227 6.16879 3.23161 0
M  V30 9180 H 846.854 6.87936 3.23494 0
M  V30 9181 N 848.429 -1.21819 0.999893 0
M  V30 9182 C 849.654 -1.95298 0.698094 0
M  V30 9183 C 850.079 -1.73273 -0.731982 0
M  V30 9184 O 849.437 -1.01634 -1.50134 0
M  V30 9185 C 849.485 -3.45922 1.01834 0
M  V30 9186 O 848.589 -4.12223 0.120801 0
M  V30 9187 H 847.93 -0.610729 0.260588 0
M  V30 9188 H 850.46 -1.5472 1.33876 0
M  V30 9189 H 850.47 -3.96471 0.963074 0
M  V30 9190 H 849.145 -3.61278 2.06037 0
M  V30 9191 H 847.722 -3.72177 0.232153 0
M  V30 9192 N 849.908 -0.773975 -1.37286 0
M  V30 9193 C 850.818 -0.162571 -2.34036 0
M  V30 9194 C 851.834 0.677022 -1.60289 0
M  V30 9195 O 853.01 0.596423 -1.92366 0
M  V30 9196 C 850.075 0.70457 -3.39465 0
M  V30 9197 C 849.136 -0.151738 -4.29032 0
M  V30 9198 C 848.369 0.674111 -5.29426 0
M  V30 9199 O 848.592 1.91107 -5.37433 0
M  V30 9200 O 847.526 0.0821398 -6.01844 0
M  V30 9201 H 851.352 -0.962119 -2.88057 0
M  V30 9202 H 848.937 -0.53517 -1.39486 0
M  V30 9203 H 850.819 1.19954 -4.03967 0
M  V30 9204 H 849.494 1.48227 -2.87768 0
M  V30 9205 H 848.401 -0.693118 -3.67623 0
M  V30 9206 H 849.734 -0.892575 -4.84039 0
M  V30 9207 N 851.386 1.48609 -0.524698 0
M  V30 9208 C 852.296 2.33318 0.244923 0
M  V30 9209 C 853.312 1.46153 0.944214 0
M  V30 9210 O 854.488 1.79141 0.920347 0
M  V30 9211 C 851.553 3.22149 1.28144 0
M  V30 9212 C 850.614 4.25184 0.593068 0
M  V30 9213 C 849.847 5.0977 1.5802 0
M  V30 9214 O 850.07 4.96249 2.81235 0
M  V30 9215 O 849.004 5.9134 1.1225 0
M  V30 9216 H 852.83 3.00362 -0.449066 0
M  V30 9217 H 850.415 1.46643 -0.285689 0
M  V30 9218 H 852.297 3.77111 1.88057 0
M  V30 9219 H 850.972 2.57772 1.95793 0
M  V30 9220 H 849.879 3.74071 -0.0464214 0
M  V30 9221 H 851.212 4.92183 -0.0413893 0
M  V30 9222 N 852.864 0.259585 1.55447 0
M  V30 9223 C 853.811 -0.634578 2.21905 0
M  V30 9224 C 854.781 -1.16168 1.18719 0
M  V30 9225 O 855.966 -1.21383 1.4721 0
M  V30 9226 C 853.106 -1.82005 2.93203 0
M  V30 9227 C 852.219 -1.32828 4.11073 0
M  V30 9228 C 851.354 -2.47431 4.70055 0
M  V30 9229 C 850.393 -1.95179 5.80148 0
M  V30 9230 N 849.53 -3.03197 6.33258 0
M  V30 9231 H 854.37 -0.0611886 2.97937 0
M  V30 9232 H 851.907 -0.0184378 1.47088 0
M  V30 9233 H 853.865 -2.51664 3.32748 0
M  V30 9234 H 852.495 -2.36571 2.19622 0
M  V30 9235 H 851.547 -0.525301 3.76756 0
M  V30 9236 H 852.859 -0.905435 4.90513 0
M  V30 9237 H 852.013 -3.25111 5.12238 0
M  V30 9238 H 850.752 -2.93023 3.89857 0
M  V30 9239 H 849.757 -1.15974 5.37429 0
M  V30 9240 H 850.982 -1.50541 6.62204 0
M  V30 9241 H 848.928 -3.48199 5.55961 0
M  V30 9242 H 848.845 -2.65282 7.07928 0
M  V30 9243 H 850.113 -3.80898 6.80101 0
M  V30 9244 N 854.342 -1.57594 -0.0133615 0
M  V30 9245 C 855.619 -1.81173 -0.737273 0
M  V30 9246 C 855.999 -0.861395 -1.92726 0
M  V30 9247 O 855.347 0.0929324 -2.28311 0
M  V30 9248 C 855.557 -3.29314 -1.15557 0
M  V30 9249 C 856.905 -3.94707 -1.56498 0
M  V30 9250 O 857.929 -3.33557 -1.24973 0
M  V30 9251 O 856.788 -5.02402 -2.15069 0
M  V30 9252 H 853.882 -0.745575 -0.357837 0
M  V30 9253 H 856.428 -1.69696 0.0110674 0
M  V30 9254 H 855.2 -3.90096 -0.30677 0
M  V30 9255 H 854.823 -3.45739 -1.96343 0
M  V30 9256 N 855.82 0.285905 -1.54985 0
M  V30 9257 C 857.231 0.857869 -1.65824 0
M  V30 9258 C 857.582 1.87531 -0.576763 0
M  V30 9259 O 856.707 2.14528 0.284016 0
M  V30 9260 C 857.302 1.56277 -3.00604 0
M  V30 9261 C 855.861 2.08294 -3.13513 0
M  V30 9262 C 855.008 0.920633 -2.61571 0
M  V30 9263 H 857.959 0.0625463 -1.58577 0
M  V30 9264 H 857.98 2.42912 -2.92872 0
M  V30 9265 H 857.492 0.822017 -3.79295 0
M  V30 9266 H 855.593 2.8537 -2.39572 0
M  V30 9267 H 855.706 2.3071 -4.19892 0
M  V30 9268 H 854.07 1.31043 -2.18403 0
M  V30 9269 H 854.853 0.193594 -3.42754 0
M  V30 9270 N 857.298 1.47698 0.54982 0
M  V30 9271 C 858.228 1.63622 1.66583 0
M  V30 9272 C 859.209 0.485477 1.63025 0
M  V30 9273 O 860.394 0.715692 1.80531 0
M  V30 9274 C 857.524 1.65721 3.05211 0
M  V30 9275 C 856.478 2.80097 3.2362 0
M  V30 9276 C 855.804 2.67272 4.63109 0
M  V30 9277 C 857.104 4.21612 3.08286 0
M  V30 9278 H 858.798 2.57049 1.53512 0
M  V30 9279 H 856.344 1.23705 0.737099 0
M  V30 9280 H 858.297 1.75451 3.83138 0
M  V30 9281 H 857.021 0.688593 3.19258 0
M  V30 9282 H 855.68 2.69889 2.48104 0
M  V30 9283 H 855.328 1.68422 4.73965 0
M  V30 9284 H 855.028 3.44008 4.76374 0
M  V30 9285 H 856.552 2.78942 5.43161 0
M  V30 9286 H 857.966 4.32758 3.76024 0
M  V30 9287 H 856.363 4.99193 3.33057 0
M  V30 9288 H 857.433 4.39462 2.04942 0
M  V30 9289 N 858.776 -0.797141 1.35954 0
M  V30 9290 C 860.022 -1.55636 1.30954 0
M  V30 9291 C 860.377 -1.92071 -0.112515 0
M  V30 9292 O 859.67 -1.5926 -1.06521 0
M  V30 9293 C 859.864 -2.84847 2.15863 0
M  V30 9294 C 859.693 -2.61039 3.66182 0
M  V30 9295 C 858.463 -2.56452 4.35385 0
M  V30 9296 C 860.661 -2.30766 4.59621 0
M  V30 9297 N 858.643 -2.2446 5.71394 0
M  V30 9298 C 860.014 -2.08695 5.8382 0
M  V30 9299 C 862.069 -2.16708 4.48266 0
M  V30 9300 C 860.772 -1.73989 6.9794 0
M  V30 9301 C 862.798 -1.83399 5.62244 0
M  V30 9302 C 862.16 -1.62171 6.85478 0
M  V30 9303 H 858.259 -0.570853 0.534463 0
M  V30 9304 H 860.843 -0.932261 1.7093 0
M  V30 9305 H 859.014 -3.45137 1.78144 0
M  V30 9306 H 860.746 -3.50503 2.02311 0
M  V30 9307 H 857.501 -2.7143 3.88101 0
M  V30 9308 H 857.925 -2.11232 6.43203 0
M  V30 9309 H 862.567 -2.31814 3.53585 0
M  V30 9310 H 860.285 -1.57621 7.92579 0
M  V30 9311 H 863.871 -1.73217 5.55416 0
M  V30 9312 H 862.751 -1.36774 7.7218 0
M  V30 9313 N 860.254 -1.20106 -1.0204 0
M  V30 9314 C 861.186 -0.904236 -2.10609 0
M  V30 9315 C 862.199 0.106487 -1.62451 0
M  V30 9316 O 863.388 -0.124035 -1.78069 0
M  V30 9317 C 860.488 -0.333423 -3.37256 0
M  V30 9318 C 859.661 -1.39476 -4.14566 0
M  V30 9319 C 858.72 -0.835961 -5.19517 0
M  V30 9320 O 857.746 -1.51573 -5.48648 0
M  V30 9321 N 858.948 0.356531 -5.79404 0
M  V30 9322 H 861.713 -1.8388 -2.36661 0
M  V30 9323 H 859.274 -1.10422 -1.184 0
M  V30 9324 H 861.266 0.0544571 -4.04663 0
M  V30 9325 H 859.836 0.505608 -3.08484 0
M  V30 9326 H 859.056 -1.95714 -3.42184 0
M  V30 9327 H 860.344 -2.10967 -4.63001 0
M  V30 9328 H 859.742 0.926143 -5.58067 0
M  V30 9329 H 858.299 0.686093 -6.48179 0
M  V30 9330 N 861.732 1.21287 -1.00634 0
M  V30 9331 C 863.009 1.86 -0.605257 0
M  V30 9332 C 863.389 1.90139 0.917072 0
M  V30 9333 O 862.737 1.40169 1.80458 0
M  V30 9334 C 862.947 3.26183 -1.24119 0
M  V30 9335 C 864.295 4.02562 -1.35015 0
M  V30 9336 O 865.319 3.35499 -1.19661 0
M  V30 9337 O 864.178 5.22638 -1.59726 0
M  V30 9338 H 861.272 0.800549 -0.207486 0
M  V30 9339 H 863.818 1.28959 -1.10307 0
M  V30 9340 H 862.59 3.17878 -2.28186 0
M  V30 9341 H 862.213 3.90845 -0.729807 0
M  V30 9342 N 863.21 0.781244 1.36873 0
M  V30 9343 C 864.621 0.414093 1.8205 0
M  V30 9344 C 864.972 -1.06098 1.65039 0
M  V30 9345 O 864.097 -1.82251 1.16677 0
M  V30 9346 C 864.692 0.744837 3.30511 0
M  V30 9347 C 863.251 0.430621 3.73929 0
M  V30 9348 C 862.398 0.983746 2.59264 0
M  V30 9349 H 865.349 0.975091 1.2521 0
M  V30 9350 H 865.37 0.032936 3.80486 0
M  V30 9351 H 864.882 1.81847 3.42861 0
M  V30 9352 H 862.983 -0.635308 3.67144 0
M  V30 9353 H 863.096 0.945514 4.69677 0
M  V30 9354 H 861.46 0.407433 2.5142 0
M  V30 9355 H 862.243 2.06297 2.74402 0
M  V30 9356 N 864.689 -1.48329 0.532571 0
M  V30 9357 C 865.929 -2.044 0.00145618 0
M  V30 9358 C 866.293 -1.40053 -1.31336 0
M  V30 9359 O 867.494 -1.87026 -1.93066 0
M  V30 9360 C 865.765 -3.57214 -0.115376 0
M  V30 9361 S 867.324 -4.34731 -0.59618 0
M  V30 9362 H 864.142 -0.710876 0.0133038 0
M  V30 9363 H 866.744 -1.82006 0.71372 0
M  V30 9364 H 865.448 -4.01579 0.846335 0
M  V30 9365 H 864.979 -3.84065 -0.85194 0
M  V30 9366 H 866.994 -4.6001 -1.86025 0
M  V30 9367 N 866.167 -0.267825 -1.55308 0
M  V30 9368 C 867.077 0.633055 -2.25897 0
M  V30 9369 C 868.093 1.17613 -1.28231 0
M  V30 9370 O 869.269 1.20797 -1.61153 0
M  V30 9371 C 866.334 1.80397 -2.96071 0
M  V30 9372 C 865.395 1.29829 -4.09198 0
M  V30 9373 C 864.628 2.4134 -4.76016 0
M  V30 9374 O 864.851 3.60537 -4.42006 0
M  V30 9375 O 863.785 2.09909 -5.64111 0
M  V30 9376 H 867.611 0.0614381 -3.03638 0
M  V30 9377 H 865.196 -0.0355072 -1.49358 0
M  V30 9378 H 867.078 2.48685 -3.40197 0
M  V30 9379 H 865.753 2.36281 -2.21253 0
M  V30 9380 H 864.66 0.582086 -3.69544 0
M  V30 9381 H 865.993 0.785288 -4.85895 0
M  V30 9382 N 867.645 1.57599 0.00500368 0
M  V30 9383 C 868.922 1.81561 0.727654 0
M  V30 9384 C 869.302 0.871604 1.92266 0
M  V30 9385 O 868.65 -0.0808232 2.28357 0
M  V30 9386 C 868.86 3.29922 1.13809 0
M  V30 9387 C 870.208 3.95531 1.54403 0
M  V30 9388 O 871.232 3.34215 1.23202 0
M  V30 9389 O 870.091 5.03535 2.12402 0
M  V30 9390 H 867.185 0.747462 0.353878 0
M  V30 9391 H 869.731 1.69688 -0.0200667 0
M  V30 9392 H 868.503 3.90253 0.286078 0
M  V30 9393 H 868.126 3.46775 1.94507 0
M  V30 9394 N 869.123 -0.277682 1.55134 0
M  V30 9395 C 870.07 -1.34313 1.87693 0
M  V30 9396 C 871.04 -1.49298 0.727973 0
M  V30 9397 O 872.225 -1.6378 0.978807 0
M  V30 9398 C 869.365 -2.69922 2.15026 0
M  V30 9399 C 868.478 -2.63197 3.42565 0
M  V30 9400 C 867.613 -3.90955 3.59622 0
M  V30 9401 C 866.652 -3.78722 4.8087 0
M  V30 9402 N 865.789 -4.98303 4.94609 0
M  V30 9403 H 870.629 -1.05847 2.78569 0
M  V30 9404 H 868.166 -0.511469 1.37922 0
M  V30 9405 H 870.124 -3.48817 2.28872 0
M  V30 9406 H 868.754 -2.966 1.2739 0
M  V30 9407 H 867.806 -1.76038 3.37216 0
M  V30 9408 H 869.118 -2.50056 4.31594 0
M  V30 9409 H 868.272 -4.78291 3.7326 0
M  V30 9410 H 867.011 -4.06957 2.6877 0
M  V30 9411 H 866.016 -2.89769 4.67241 0
M  V30 9412 H 867.241 -3.64242 5.73153 0
M  V30 9413 H 865.187 -5.14725 4.06687 0
M  V30 9414 H 865.104 -4.87675 5.77676 0
M  V30 9415 H 866.372 -5.87225 5.12628 0
M  V30 9416 N 870.601 -1.47988 -0.541979 0
M  V30 9417 C 872.017 -1.33843 -0.869383 0
M  V30 9418 C 872.217 -0.340374 -1.98604 0
M  V30 9419 O 871.273 0.242696 -2.51331 0
M  V30 9420 C 872.586 -2.73568 -1.24823 0
M  V30 9421 C 874.134 -2.81967 -1.3588 0
M  V30 9422 C 874.609 -4.22368 -1.77114 0
M  V30 9423 N 876.1 -4.24983 -1.84237 0
M  V30 9424 C 876.835 -5.30547 -2.17503 0
M  V30 9425 N 876.331 -6.46401 -2.49275 0
M  V30 9426 N 878.124 -5.17933 -2.18406 0
M  V30 9427 H 870.275 -2.11503 0.195001 0
M  V30 9428 H 872.538 -0.947681 0.0245862 0
M  V30 9429 H 872.244 -3.48107 -0.501435 0
M  V30 9430 H 872.118 -3.06322 -2.20106 0
M  V30 9431 H 874.505 -2.07692 -2.09638 0
M  V30 9432 H 874.586 -2.52848 -0.387478 0
M  V30 9433 H 874.23 -4.97155 -1.0392 0
M  V30 9434 H 874.16 -4.48922 -2.75275 0
M  V30 9435 H 876.651 -3.41411 -1.62009 0
M  V30 9436 H 876.964 -7.22698 -2.73729 0
M  V30 9437 H 875.309 -6.49696 -2.46821 0
M  V30 9438 H 878.5 -4.26445 -1.93034 0
M  V30 9439 H 878.673 -6.00307 -2.44 0
M  V30 9440 N 872.079 0.78992 -1.36375 0
M  V30 9441 C 873.029 1.89227 -1.27189 0
M  V30 9442 C 874.013 1.60067 -0.163498 0
M  V30 9443 O 875.205 1.72507 -0.396262 0
M  V30 9444 C 872.334 3.26431 -1.06292 0
M  V30 9445 C 871.42 3.61602 -2.21596 0
M  V30 9446 N 871.811 3.68086 -3.4691 0
M  V30 9447 C 870.109 3.9166 -2.1335 0
M  V30 9448 C 870.81 3.99481 -4.22835 0
M  V30 9449 N 869.786 4.14438 -3.5177 0
M  V30 9450 H 873.588 1.92465 -2.22113 0
M  V30 9451 H 871.102 0.985414 -1.29087 0
M  V30 9452 H 873.099 4.05267 -0.97798 0
M  V30 9453 H 871.759 3.24468 -0.122676 0
M  V30 9454 H 872.77 3.50743 -3.81051 0
M  V30 9455 H 869.447 3.97626 -1.27279 0
M  V30 9456 H 870.837 4.11425 -5.31205 0
M  V30 9457 N 873.557 1.20646 1.01402 0
M  V30 9458 C 874.504 0.957618 2.09996 0
M  V30 9459 C 875.474 -0.113115 1.65714 0
M  V30 9460 O 876.659 0.032142 1.90773 0
M  V30 9461 C 873.799 0.5186 3.41181 0
M  V30 9462 C 872.912 1.65777 3.98926 0
M  V30 9463 C 872.047 1.16881 5.18182 0
M  V30 9464 C 871.086 2.2809 5.68015 0
M  V30 9465 N 870.223 1.80392 6.7853 0
M  V30 9466 H 875.063 1.88732 2.30617 0
M  V30 9467 H 872.6 0.940703 1.13089 0
M  V30 9468 H 874.558 0.245367 4.16478 0
M  V30 9469 H 873.188 -0.3741 3.20625 0
M  V30 9470 H 872.24 2.04586 3.207 0
M  V30 9471 H 873.552 2.49507 4.31912 0
M  V30 9472 H 872.706 0.851694 6.00692 0
M  V30 9473 H 871.445 0.301434 4.86768 0
M  V30 9474 H 870.45 2.60614 4.84108 0
M  V30 9475 H 871.675 3.15308 6.01463 0
M  V30 9476 H 869.621 0.959856 6.4894 0
M  V30 9477 H 869.538 2.57701 7.10722 0
M  V30 9478 H 870.806 1.51688 7.64598 0
M  V30 9479 N 875.035 -1.20752 1.01276 0
M  V30 9480 C 876.312 -1.85676 0.615112 0
M  V30 9481 C 876.692 -1.90623 -0.906976 0
M  V30 9482 O 876.04 -1.41124 -1.79712 0
M  V30 9483 C 876.25 -3.2552 1.25847 0
M  V30 9484 C 877.598 -4.0184 1.37148 0
M  V30 9485 O 878.622 -3.3486 1.21438 0
M  V30 9486 O 877.481 -5.21783 1.62495 0
M  V30 9487 H 874.575 -0.799437 0.211729 0
M  V30 9488 H 877.121 -1.28372 1.10989 0
M  V30 9489 H 875.893 -3.16664 2.29869 0
M  V30 9490 H 875.516 -3.90452 0.750524 0
M  V30 9491 N 876.513 -0.788492 -1.36457 0
M  V30 9492 C 877.762 -0.357052 -1.98515 0
M  V30 9493 C 878.075 1.0769 -1.63285 0
M  V30 9494 O 879.281 1.61057 -2.1857 0
M  V30 9495 C 877.737 -0.587449 -3.55073 0
M  V30 9496 C 877.345 -2.03276 -3.99228 0
M  V30 9497 C 879.089 -0.220468 -4.23927 0
M  V30 9498 C 876.996 -2.20987 -5.48561 0
M  V30 9499 H 875.926 -0.129762 -0.74275 0
M  V30 9500 H 878.577 -0.969995 -1.55767 0
M  V30 9501 H 876.959 0.0951918 -3.95886 0
M  V30 9502 H 878.133 -2.75173 -3.69617 0
M  V30 9503 H 876.448 -2.3579 -3.43208 0
M  V30 9504 H 879.045 -0.331085 -5.33674 0
M  V30 9505 H 879.388 0.831306 -4.07915 0
M  V30 9506 H 879.921 -0.856309 -3.88474 0
M  V30 9507 H 876.66 -3.24543 -5.69519 0
M  V30 9508 H 876.18 -1.53594 -5.79801 0
M  V30 9509 H 877.859 -2.01656 -6.14771 0
M  V30 9510 N 877.991 1.48044 -0.54043 0
M  V30 9511 C 879.237 2.03392 -0.0183377 0
M  V30 9512 C 879.592 1.4091 1.31004 0
M  V30 9513 O 878.885 0.549375 1.83555 0
M  V30 9514 C 879.079 3.57085 0.150008 0
M  V30 9515 C 878.908 4.34468 -1.1605 0
M  V30 9516 C 877.678 4.75008 -1.72324 0
M  V30 9517 C 879.876 4.70641 -2.07368 0
M  V30 9518 N 877.858 5.36968 -2.97555 0
M  V30 9519 C 879.229 5.32728 -3.17176 0
M  V30 9520 C 881.284 4.52571 -2.07567 0
M  V30 9521 C 879.987 5.78654 -4.27261 0
M  V30 9522 C 882.013 4.99485 -3.16653 0
M  V30 9523 C 881.375 5.61606 -4.2518 0
M  V30 9524 H 877.474 0.780497 -0.0484652 0
M  V30 9525 H 880.058 1.80738 -0.724018 0
M  V30 9526 H 878.229 3.79542 0.824787 0
M  V30 9527 H 879.961 3.99071 0.672649 0
M  V30 9528 H 876.716 4.5644 -1.26331 0
M  V30 9529 H 877.14 5.72505 -3.61341 0
M  V30 9530 H 881.782 4.03914 -1.24952 0
M  V30 9531 H 879.5 6.26311 -5.10647 0
M  V30 9532 H 883.086 4.87286 -3.17874 0
M  V30 9533 H 881.966 5.97248 -5.08197 0
M  V30 9534 N 879.47 0.276058 1.55163 0
M  V30 9535 C 880.695 -0.346648 2.04483 0
M  V30 9536 C 881.12 -1.48613 1.15308 0
M  V30 9537 O 880.478 -1.80663 0.151875 0
M  V30 9538 C 880.526 -0.804268 3.51517 0
M  V30 9539 O 879.63 -1.91143 3.65429 0
M  V30 9540 H 878.971 -0.0715251 0.660136 0
M  V30 9541 H 881.501 0.410631 2.00437 0
M  V30 9542 H 881.511 -1.09977 3.92898 0
M  V30 9543 H 880.186 0.0294123 4.1589 0
M  V30 9544 H 878.763 -1.61839 3.3595 0
M  V30 9545 N 880.948 -1.576 0.00335426 0
M  V30 9546 C 881.895 -2.08632 -0.986975 0
M  V30 9547 C 882.865 -0.982491 -1.33927 0
M  V30 9548 O 884.05 -1.25513 -1.43705 0
M  V30 9549 C 881.19 -2.59705 -2.27261 0
M  V30 9550 C 880.303 -3.84002 -1.97905 0
M  V30 9551 C 879.438 -4.23563 -3.20574 0
M  V30 9552 C 878.477 -5.40688 -2.8692 0
M  V30 9553 N 877.614 -5.75526 -4.02136 0
M  V30 9554 H 882.454 -2.92977 -0.544855 0
M  V30 9555 H 879.991 -1.44831 -0.257376 0
M  V30 9556 H 881.949 -2.87395 -3.02423 0
M  V30 9557 H 880.579 -1.7823 -2.69136 0
M  V30 9558 H 879.631 -3.63199 -1.13096 0
M  V30 9559 H 880.943 -4.69261 -1.69102 0
M  V30 9560 H 880.097 -4.52554 -4.04079 0
M  V30 9561 H 878.836 -3.37019 -3.52518 0
M  V30 9562 H 877.841 -5.11417 -2.01822 0
M  V30 9563 H 879.066 -6.2891 -2.5622 0
M  V30 9564 H 877.012 -4.9194 -4.33971 0
M  V30 9565 H 876.929 -6.55367 -3.76869 0
M  V30 9566 H 878.197 -6.0911 -4.8642 0
M  V30 9567 N 882.426 0.269451 -1.5528 0
M  V30 9568 C 883.336 1.35511 -1.91505 0
M  V30 9569 C 884.352 1.53854 -0.812712 0
M  V30 9570 O 885.528 1.67912 -1.1121 0
M  V30 9571 C 882.593 2.6937 -2.18267 0
M  V30 9572 C 881.654 2.59743 -3.41807 0
M  V30 9573 C 880.887 3.87219 -3.67283 0
M  V30 9574 O 881.11 4.88066 -2.95208 0
M  V30 9575 O 880.044 3.87209 -4.60818 0
M  V30 9576 H 883.87 1.07785 -2.8393 0
M  V30 9577 H 881.455 0.468282 -1.41871 0
M  V30 9578 H 883.337 3.48513 -2.36889 0
M  V30 9579 H 882.012 2.96874 -1.29024 0
M  V30 9580 H 880.919 1.78964 -3.28516 0
M  V30 9581 H 882.252 2.37188 -4.3128 0
M  V30 9582 N 883.904 1.48273 0.534124 0
M  V30 9583 C 884.851 1.62487 1.6391 0
M  V30 9584 C 885.821 0.467062 1.59398 0
M  V30 9585 O 887.006 0.690029 1.77885 0
M  V30 9586 C 884.146 1.66671 3.02183 0
M  V30 9587 C 883.259 2.9353 3.16961 0
M  V30 9588 C 882.394 2.88902 4.45768 0
M  V30 9589 C 881.433 4.10483 4.54059 0
M  V30 9590 N 880.57 4.03956 5.74251 0
M  V30 9591 H 885.41 2.56851 1.51101 0
M  V30 9592 H 882.947 1.27381 0.735704 0
M  V30 9593 H 884.905 1.67079 3.82283 0
M  V30 9594 H 883.535 0.758011 3.13774 0
M  V30 9595 H 882.587 3.02886 2.3014 0
M  V30 9596 H 883.899 3.83501 3.18949 0
M  V30 9597 H 883.053 2.87688 5.34154 0
M  V30 9598 H 881.792 1.96652 4.46295 0
M  V30 9599 H 880.797 4.11977 3.64081 0
M  V30 9600 H 882.022 5.03887 4.55274 0
M  V30 9601 H 879.968 3.14525 5.75682 0
M  V30 9602 H 879.885 4.87628 5.77715 0
M  V30 9603 H 881.153 4.06795 6.64935 0
M  V30 9604 N 885.382 -0.782676 1.36792 0
M  V30 9605 C 886.61 -1.57162 1.34565 0
M  V30 9606 C 887.025 -1.88664 -0.0715501 0
M  V30 9607 O 886.382 -1.50633 -1.03033 0
M  V30 9608 C 886.433 -2.88854 2.1736 0
M  V30 9609 O 886.154 -2.58707 3.53557 0
M  V30 9610 C 887.655 -3.83132 2.2299 0
M  V30 9611 H 884.875 -0.487245 0.461338 0
M  V30 9612 H 887.419 -0.970905 1.79982 0
M  V30 9613 H 885.574 -3.45377 1.7548 0
M  V30 9614 H 885.988 -3.42961 3.96835 0
M  V30 9615 H 887.462 -4.72575 2.85266 0
M  V30 9616 H 887.939 -4.21472 1.23524 0
M  V30 9617 H 888.545 -3.32541 2.65135 0
M  V30 9618 N 886.86 -1.21182 -1.00761 0
M  V30 9619 C 888.1 -1.03886 -1.76031 0
M  V30 9620 C 888.464 0.420593 -1.87337 0
M  V30 9621 O 889.665 0.713994 -2.59144 0
M  V30 9622 C 887.936 -1.71394 -3.13622 0
M  V30 9623 S 889.495 -1.69319 -4.04816 0
M  V30 9624 H 886.313 -0.372327 -0.605717 0
M  V30 9625 H 888.915 -1.53885 -1.20581 0
M  V30 9626 H 887.619 -2.76773 -3.03026 0
M  V30 9627 H 887.15 -1.21564 -3.74147 0
M  V30 9628 H 889.165 -0.732434 -4.90765 0
M  V30 9629 N 888.338 1.20213 -1.01915 0
M  V30 9630 C 889.615 1.85348 -0.62495 0
M  V30 9631 C 889.995 1.91101 0.896854 0
M  V30 9632 O 889.343 1.42075 1.78961 0
M  V30 9633 C 889.553 3.24849 -1.27571 0
M  V30 9634 C 890.901 4.01107 -1.39277 0
M  V30 9635 O 891.925 3.34211 -1.23212 0
M  V30 9636 O 890.784 5.20914 -1.6526 0
M  V30 9637 H 887.878 0.798303 -0.215965 0
M  V30 9638 H 890.424 1.27782 -1.11669 0
M  V30 9639 H 889.196 3.1544 -2.31545 0
M  V30 9640 H 888.819 3.90049 -0.77122 0
M  V30 9641 N 889.816 0.795718 1.36037 0
M  V30 9642 C 891.232 0.478145 1.52269 0
M  V30 9643 C 891.432 -1.0025 1.74792 0
M  V30 9644 O 890.488 -1.78783 1.78305 0
M  V30 9645 C 891.801 1.31406 2.70468 0
M  V30 9646 C 893.349 1.3084 2.84341 0
M  V30 9647 C 893.824 2.12819 4.05551 0
M  V30 9648 N 895.315 2.10298 4.12709 0
M  V30 9649 C 896.05 2.70495 5.05589 0
M  V30 9650 N 895.546 3.39576 6.03871 0
M  V30 9651 N 897.339 2.60195 4.98252 0
M  V30 9652 H 889.49 1.75477 1.19673 0
M  V30 9653 H 891.753 0.74627 0.584624 0
M  V30 9654 H 891.459 2.36435 2.60368 0
M  V30 9655 H 891.333 0.959726 3.64786 0
M  V30 9656 H 893.72 0.266003 2.93899 0
M  V30 9657 H 893.801 1.70254 1.90912 0
M  V30 9658 H 893.445 3.17093 3.96755 0
M  V30 9659 H 893.375 1.70772 4.98141 0
M  V30 9660 H 895.866 1.60026 3.42345 0
M  V30 9661 H 896.179 3.82823 6.71317 0
M  V30 9662 H 894.524 3.43679 6.04077 0
M  V30 9663 H 897.715 2.05823 4.20422 0
M  V30 9664 H 897.888 3.074 5.70447 0
M  V30 9665 N 891.294 -1.47756 0.548274 0
M  V30 9666 C 892.541 -2.02489 0.0208955 0
M  V30 9667 C 892.869 -1.42356 -1.32533 0
M  V30 9668 O 892.124 -0.565448 -1.87353 0
M  V30 9669 C 892.423 -3.5716 -0.131069 0
M  V30 9670 C 892.089 -4.36169 1.14313 0
M  V30 9671 C 890.751 -4.57476 1.4923 0
M  V30 9672 C 893.103 -4.81801 1.9879 0
M  V30 9673 C 890.431 -5.21662 2.68487 0
M  V30 9674 C 892.783 -5.47303 3.17242 0
M  V30 9675 C 891.447 -5.66844 3.52483 0
M  V30 9676 H 890.717 -0.740961 0.00764621 0
M  V30 9677 H 893.364 -1.77531 0.717987 0
M  V30 9678 H 891.669 -3.8106 -0.911063 0
M  V30 9679 H 893.366 -3.9715 -0.55433 0
M  V30 9680 H 889.956 -4.19858 0.861235 0
M  V30 9681 H 894.14 -4.65126 1.73123 0
M  V30 9682 H 889.396 -5.34987 2.95971 0
M  V30 9683 H 893.57 -5.81626 3.82994 0
M  V30 9684 H 891.197 -6.16352 4.44988 0
M  V30 9685 N 892.772 -0.284283 -1.55015 0
M  V30 9686 C 894.183 0.211681 -1.85496 0
M  V30 9687 C 894.534 1.54735 -1.2063 0
M  V30 9688 O 893.659 2.10594 -0.497918 0
M  V30 9689 C 894.254 0.390864 -3.36538 0
M  V30 9690 C 892.813 0.831055 -3.67111 0
M  V30 9691 C 891.96 -0.0703581 -2.77211 0
M  V30 9692 H 894.911 -0.505803 -1.50424 0
M  V30 9693 H 894.932 1.22803 -3.60138 0
M  V30 9694 H 894.444 -0.581409 -3.8372 0
M  V30 9695 H 892.545 1.81447 -3.25434 0
M  V30 9696 H 892.658 0.662026 -4.74504 0
M  V30 9697 H 891.022 0.447528 -2.50737 0
M  V30 9698 H 891.805 -1.03868 -3.2721 0
M  V30 9699 N 894.251 1.57596 -0.0117121 0
M  V30 9700 C 895.198 2.09153 0.975897 0
M  V30 9701 C 896.168 0.989579 1.33404 0
M  V30 9702 O 897.353 1.26273 1.43038 0
M  V30 9703 C 894.493 2.60906 2.2588 0
M  V30 9704 C 893.606 3.85046 1.95866 0
M  V30 9705 C 892.741 4.25257 3.18323 0
M  V30 9706 C 891.78 5.42202 2.84049 0
M  V30 9707 N 890.917 5.77651 3.99079 0
M  V30 9708 H 895.757 2.93261 0.52931 0
M  V30 9709 H 893.294 1.44965 0.249691 0
M  V30 9710 H 895.252 2.88995 3.00895 0
M  V30 9711 H 893.882 1.79654 2.68187 0
M  V30 9712 H 892.934 3.63794 1.11168 0
M  V30 9713 H 894.246 4.70151 1.66611 0
M  V30 9714 H 893.4 4.5469 4.01674 0
M  V30 9715 H 892.139 3.38884 3.50726 0
M  V30 9716 H 891.144 5.1248 1.99107 0
M  V30 9717 H 892.369 6.3026 2.52881 0
M  V30 9718 H 890.315 4.94235 4.31356 0
M  V30 9719 H 890.232 6.57356 3.73388 0
M  V30 9720 H 891.5 6.11681 4.83183 0
M  V30 9721 N 895.729 -0.261212 1.5542 0
M  V30 9722 C 896.659 -1.32712 1.92119 0
M  V30 9723 C 897.64 -1.50934 0.784406 0
M  V30 9724 O 898.825 -1.63781 1.04352 0
M  V30 9725 C 895.955 -2.68453 2.20341 0
M  V30 9726 C 894.909 -2.64947 3.36136 0
M  V30 9727 C 894.235 -4.04349 3.49865 0
M  V30 9728 C 895.535 -2.23182 4.72215 0
M  V30 9729 H 897.229 -1.02245 2.81401 0
M  V30 9730 H 894.775 -0.490406 1.35392 0
M  V30 9731 H 896.728 -3.43144 2.44603 0
M  V30 9732 H 895.452 -3.00527 1.27871 0
M  V30 9733 H 894.111 -1.92714 3.11861 0
M  V30 9734 H 893.759 -4.33665 2.5484 0
M  V30 9735 H 893.459 -4.02895 4.27726 0
M  V30 9736 H 894.983 -4.80761 3.76432 0
M  V30 9737 H 896.397 -2.87599 4.95943 0
M  V30 9738 H 894.794 -2.32867 5.53076 0
M  V30 9739 H 895.864 -1.18327 4.70241 0
M  V30 9740 N 897.207 -1.48554 -0.526253 0
M  V30 9741 C 898.137 -1.66252 -1.63959 0
M  V30 9742 C 899.118 -0.511351 -1.62232 0
M  V30 9743 O 900.303 -0.744322 -1.7937 0
M  V30 9744 C 897.433 -1.70556 -3.02536 0
M  V30 9745 C 896.387 -2.8521 -3.19123 0
M  V30 9746 C 895.713 -2.74606 -4.58798 0
M  V30 9747 C 897.013 -4.26463 -3.0154 0
M  V30 9748 H 898.707 -2.59459 -1.49404 0
M  V30 9749 H 896.253 -1.24862 -0.717326 0
M  V30 9750 H 898.206 -1.81524 -3.80298 0
M  V30 9751 H 896.93 -0.739297 -3.18123 0
M  V30 9752 H 895.589 -2.73802 -2.43779 0
M  V30 9753 H 895.237 -1.75941 -4.71226 0
M  V30 9754 H 894.937 -3.51544 -4.70841 0
M  V30 9755 H 896.461 -2.87548 -5.38655 0
M  V30 9756 H 897.875 -4.38685 -3.69091 0
M  V30 9757 H 896.272 -5.04428 -3.25073 0
M  V30 9758 H 897.342 -4.42667 -1.97925 0
M  V30 9759 N 898.685 0.775411 -1.37205 0
M  V30 9760 C 899.934 1.52909 -1.31536 0
M  V30 9761 C 900.247 1.9535 0.0989374 0
M  V30 9762 O 901.453 2.70072 0.278079 0
M  V30 9763 C 899.909 2.761 -2.30861 0
M  V30 9764 C 899.517 2.40773 -3.77799 0
M  V30 9765 C 901.261 3.54052 -2.34195 0
M  V30 9766 C 899.168 3.60444 -4.68865 0
M  V30 9767 H 898.098 0.574061 -0.488845 0
M  V30 9768 H 900.749 0.849642 -1.62645 0
M  V30 9769 H 899.131 3.45916 -1.92764 0
M  V30 9770 H 900.305 1.78764 -4.24712 0
M  V30 9771 H 898.62 1.76004 -3.77375 0
M  V30 9772 H 901.217 4.42992 -2.99437 0
M  V30 9773 H 901.56 3.93649 -1.35449 0
M  V30 9774 H 902.093 2.91229 -2.7098 0
M  V30 9775 H 898.832 3.25932 -5.68725 0
M  V30 9776 H 898.352 4.21571 -4.26659 0
M  V30 9777 H 900.031 4.27302 -4.85821 0
M  V30 9778 N 900.163 1.21714 1.00117 0
M  V30 9779 C 901.412 1.03087 1.73367 0
M  V30 9780 C 901.725 -0.435532 1.90689 0
M  V30 9781 O 902.931 -0.741291 2.61184 0
M  V30 9782 C 901.387 1.79593 3.11888 0
M  V30 9783 C 900.995 3.30428 3.02525 0
M  V30 9784 C 902.739 1.69386 3.89241 0
M  V30 9785 C 900.646 3.99408 4.3615 0
M  V30 9786 H 899.576 0.382117 0.650002 0
M  V30 9787 H 902.227 1.45486 1.11831 0
M  V30 9788 H 900.609 1.29988 3.74058 0
M  V30 9789 H 901.783 3.87364 2.49571 0
M  V30 9790 H 900.098 3.4122 2.38659 0
M  V30 9791 H 902.695 2.18251 4.8813 0
M  V30 9792 H 903.038 0.652773 4.1115 0
M  V30 9793 H 903.571 2.16489 3.33733 0
M  V30 9794 H 900.31 5.03735 4.19442 0
M  V30 9795 H 899.83 3.47261 4.8905 0
M  V30 9796 H 901.509 4.04537 5.04934 0
M  V30 9797 N 901.641 -1.19671 1.02551 0
M  V30 9798 C 902.889 -1.88894 0.71858 0
M  V30 9799 C 903.21 -1.79797 -0.754856 0
M  V30 9800 O 902.48 -1.20621 -1.54362 0
M  V30 9801 H 901.06 -0.699244 0.262806 0
M  V30 9802 H 903.722 -1.45298 1.29902 0
M  V30 9803 H 902.818 -2.95309 1.00989 0
M  V30 9804 N 903.119 -0.802921 -1.35613 0
M  V30 9805 C 904.53 -0.443004 -1.81368 0
M  V30 9806 C 904.881 1.03459 -1.66706 0
M  V30 9807 O 904.006 1.80372 -1.19561 0
M  V30 9808 C 904.601 -0.797324 -3.29284 0
M  V30 9809 C 903.16 -0.490055 -3.73196 0
M  V30 9810 C 902.307 -1.02487 -2.57666 0
M  V30 9811 H 905.258 -0.994888 -1.23643 0
M  V30 9812 H 905.279 -0.0934638 -3.80385 0
M  V30 9813 H 904.791 -1.87278 -3.39924 0
M  V30 9814 H 902.892 0.576818 -3.68108 0
M  V30 9815 H 903.005 -1.02012 -4.68114 0
M  V30 9816 H 901.369 -0.44738 -2.5074 0
M  V30 9817 H 902.152 -2.10636 -2.71085 0
M  V30 9818 N 904.597 1.47463 -0.556102 0
M  V30 9819 C 905.529 2.28046 0.22968 0
M  V30 9820 C 906.542 1.3694 0.880409 0
M  V30 9821 O 907.731 1.61773 0.754447 0
M  V30 9822 C 904.831 3.11165 1.34273 0
M  V30 9823 C 904.004 4.30225 0.789004 0
M  V30 9824 C 903.063 4.94948 1.78641 0
M  V30 9825 O 902.089 5.53372 1.33297 0
M  V30 9826 N 903.291 4.89543 3.11974 0
M  V30 9827 H 906.056 2.96125 -0.461558 0
M  V30 9828 H 903.617 1.5708 -0.392105 0
M  V30 9829 H 905.609 3.51331 2.00869 0
M  V30 9830 H 904.179 2.45337 1.93722 0
M  V30 9831 H 903.399 3.94163 -0.0536971 0
M  V30 9832 H 904.687 5.07238 0.398378 0
M  V30 9833 H 904.085 4.43275 3.51459 0
M  V30 9834 H 902.642 5.33732 3.74131 0
M  V30 9835 N 906.075 0.2925 1.54862 0
M  V30 9836 C 907.022 -0.587365 2.23201 0
M  V30 9837 C 907.992 -1.13623 1.21157 0
M  V30 9838 O 909.177 -1.18233 1.49752 0
M  V30 9839 C 906.317 -1.75745 2.96998 0
M  V30 9840 C 905.43 -1.24078 4.13798 0
M  V30 9841 C 904.565 -2.37405 4.75197 0
M  V30 9842 C 903.604 -1.82829 5.84157 0
M  V30 9843 N 902.741 -2.89696 6.39547 0
M  V30 9844 H 907.581 0.00202207 2.98 0
M  V30 9845 H 905.118 0.012766 1.47094 0
M  V30 9846 H 907.076 -2.44549 3.38011 0
M  V30 9847 H 905.706 -2.3186 2.24591 0
M  V30 9848 H 904.758 -0.445268 3.77785 0
M  V30 9849 H 906.07 -0.801186 4.92324 0
M  V30 9850 H 905.224 -3.14172 5.19019 0
M  V30 9851 H 903.963 -2.84688 3.95985 0
M  V30 9852 H 902.968 -1.04548 5.39768 0
M  V30 9853 H 904.193 -1.36461 6.65248 0
M  V30 9854 H 902.139 -3.36328 5.63222 0
M  V30 9855 H 902.056 -2.50206 7.13395 0
M  V30 9856 H 903.324 -3.66386 6.88027 0
M  V30 9857 N 907.553 -1.57587 0.0200696 0
M  V30 9858 C 908.781 -1.95718 -0.670964 0
M  V30 9859 C 909.196 -0.896081 -1.6618 0
M  V30 9860 O 908.553 0.123037 -1.82085 0
M  V30 9861 C 908.604 -3.33904 -1.38529 0
M  V30 9862 O 908.325 -4.35943 -0.434167 0
M  V30 9863 C 909.826 -3.86614 -2.16898 0
M  V30 9864 H 907.046 -0.644819 -0.185606 0
M  V30 9865 H 909.59 -2.04354 0.0771495 0
M  V30 9866 H 907.745 -3.26515 -2.08487 0
M  V30 9867 H 908.159 -5.16001 -0.940378 0
M  V30 9868 H 909.633 -4.85673 -2.62346 0
M  V30 9869 H 910.11 -3.20379 -3.00423 0
M  V30 9870 H 910.716 -3.97243 -1.51916 0
M  V30 9871 N 909.032 0.252966 -1.55557 0
M  V30 9872 C 910.28 0.979912 -1.76754 0
M  V30 9873 C 910.601 1.86083 -0.582944 0
M  V30 9874 O 909.871 1.91742 0.401497 0
M  V30 9875 H 908.451 0.364805 -0.651864 0
M  V30 9876 H 911.113 0.272372 -1.92987 0
M  V30 9877 H 910.209 1.60518 -2.67657 0
M  V30 9878 N 910.51 1.48831 0.518367 0
M  V30 9879 C 911.738 1.6112 1.298 0
M  V30 9880 C 912.153 0.275872 1.86774 0
M  V30 9881 O 911.51 -0.736416 1.66983 0
M  V30 9882 C 911.561 2.66675 2.44063 0
M  V30 9883 O 911.282 3.95027 1.89434 0
M  V30 9884 C 912.783 2.8951 3.35706 0
M  V30 9885 H 910.003 0.542916 0.394314 0
M  V30 9886 H 912.547 1.94743 0.624142 0
M  V30 9887 H 910.702 2.35879 3.07311 0
M  V30 9888 H 911.116 4.53031 2.64316 0
M  V30 9889 H 912.59 3.67142 4.12202 0
M  V30 9890 H 913.067 1.98768 3.91648 0
M  V30 9891 H 913.673 3.21656 2.7824 0
M  V30 9892 N 911.988 -0.768124 1.37614 0
M  V30 9893 C 913.216 -1.55726 1.36224 0
M  V30 9894 C 913.631 -1.8873 -0.0515357 0
M  V30 9895 O 912.988 -1.51718 -1.0143 0
M  V30 9896 C 913.039 -2.86533 2.20412 0
M  V30 9897 O 912.76 -2.54942 3.56281 0
M  V30 9898 C 914.261 -3.80745 2.27041 0
M  V30 9899 H 911.481 -0.482325 0.46648 0
M  V30 9900 H 914.025 -0.95176 1.81002 0
M  V30 9901 H 912.18 -3.43496 1.79134 0
M  V30 9902 H 912.594 -3.38732 4.00451 0
M  V30 9903 H 914.068 -4.69523 2.90263 0
M  V30 9904 H 914.545 -4.20138 1.27987 0
M  V30 9905 H 915.151 -3.2971 2.68647 0
M  V30 9906 N 913.466 -1.22244 -0.994698 0
M  V30 9907 C 914.429 -0.992308 -2.06606 0
M  V30 9908 C 915.429 0.0405872 -1.60749 0
M  V30 9909 O 916.619 -0.197737 -1.73074 0
M  V30 9910 C 913.751 -0.498499 -3.37236 0
M  V30 9911 H 914.944 -1.9429 -2.28455 0
M  V30 9912 H 912.497 -1.04087 -1.166 0
M  V30 9913 H 913.232 0.456531 -3.21071 0
M  V30 9914 H 913.017 -1.24367 -3.71854 0
M  V30 9915 H 914.507 -0.35768 -4.16065 0
M  V30 9916 N 914.944 1.19125 -1.03184 0
M  V30 9917 C 915.874 2.24675 -0.635889 0
M  V30 9918 C 916.855 1.66321 0.356565 0
M  V30 9919 O 918.04 1.92728 0.238625 0
M  V30 9920 C 915.17 3.47298 0.011069 0
M  V30 9921 C 914.124 4.18345 -0.903979 0
M  V30 9922 C 913.45 5.34561 -0.12197 0
M  V30 9923 C 914.75 4.72816 -2.21907 0
M  V30 9924 H 916.444 2.5805 -1.51825 0
M  V30 9925 H 913.99 1.24039 -0.73146 0
M  V30 9926 H 915.943 4.20333 0.299729 0
M  V30 9927 H 914.667 3.13131 0.928245 0
M  V30 9928 H 913.326 3.47196 -1.17688 0
M  V30 9929 H 912.974 4.9664 0.797334 0
M  V30 9930 H 912.674 5.83029 -0.731498 0
M  V30 9931 H 914.198 6.10391 0.159881 0
M  V30 9932 H 915.612 5.3759 -1.99173 0
M  V30 9933 H 914.009 5.31782 -2.78078 0
M  V30 9934 H 915.079 3.9072 -2.87168 0
M  V30 9935 N 916.422 0.810101 1.35185 0
M  V30 9936 C 917.652 0.404109 2.02609 0
M  V30 9937 C 918.06 -0.990748 1.61186 0
M  V30 9938 O 917.403 -1.65038 0.80674 0
M  V30 9939 C 917.465 0.412047 3.57131 0
M  V30 9940 C 917.129 1.75802 4.21832 0
M  V30 9941 C 918.126 2.71687 4.43263 0
M  V30 9942 C 915.811 2.04299 4.58876 0
M  V30 9943 C 917.805 3.9425 5.00845 0
M  V30 9944 C 915.492 3.27125 5.16171 0
M  V30 9945 C 916.49 4.21918 5.37098 0
M  V30 9946 O 916.178 5.42576 5.93184 0
M  V30 9947 H 915.91 0.161914 0.656323 0
M  V30 9948 H 918.464 1.09605 1.73712 0
M  V30 9949 H 916.694 -0.336509 3.85233 0
M  V30 9950 H 918.383 0.0278817 4.0589 0
M  V30 9951 H 919.149 2.50964 4.15021 0
M  V30 9952 H 915.028 1.31324 4.41899 0
M  V30 9953 H 918.572 4.68251 5.17094 0
M  V30 9954 H 914.469 3.47718 5.43841 0
M  V30 9955 H 915.237 5.43921 6.11631 0
M  V30 9956 N 917.9 -1.47166 0.563914 0
M  V30 9957 C 918.83 -2.32894 -0.168148 0
M  V30 9958 C 919.811 -1.44202 -0.902214 0
M  V30 9959 O 920.996 -1.73048 -0.881365 0
M  V30 9960 C 918.126 -3.26116 -1.19439 0
M  V30 9961 C 917.08 -4.24101 -0.576363 0
M  V30 9962 C 916.406 -5.06696 -1.70772 0
M  V30 9963 C 917.706 -5.20142 0.47425 0
M  V30 9964 H 919.4 -2.9435 0.547573 0
M  V30 9965 H 916.946 -1.41545 0.264778 0
M  V30 9966 H 918.899 -3.84935 -1.71474 0
M  V30 9967 H 917.623 -2.62728 -1.94014 0
M  V30 9968 H 916.282 -3.66519 -0.0772534 0
M  V30 9969 H 915.93 -4.39707 -2.44268 0
M  V30 9970 H 915.63 -5.7304 -1.29994 0
M  V30 9971 H 917.154 -5.68375 -2.2312 0
M  V30 9972 H 918.568 -5.73286 0.0397035 0
M  V30 9973 H 916.965 -5.94726 0.801287 0
M  V30 9974 H 918.035 -4.65214 1.36764 0
M  V30 9975 N 919.378 -0.300708 -1.54705 0
M  V30 9976 C 920.625 0.308654 -2.00134 0
M  V30 9977 C 920.953 1.53918 -1.1891 0
M  V30 9978 O 920.208 1.94054 -0.253263 0
M  V30 9979 C 920.507 0.710108 -3.50275 0
M  V30 9980 C 920.173 -0.418651 -4.48952 0
M  V30 9981 C 918.835 -0.728524 -4.75653 0
M  V30 9982 C 921.187 -1.17797 -5.07714 0
M  V30 9983 C 918.515 -1.80085 -5.58378 0
M  V30 9984 C 920.867 -2.24022 -5.91606 0
M  V30 9985 C 919.531 -2.55616 -6.16617 0
M  V30 9986 H 918.801 0.112945 -0.732342 0
M  V30 9987 H 921.448 -0.419744 -1.86843 0
M  V30 9988 H 919.753 1.51859 -3.61173 0
M  V30 9989 H 921.45 1.19277 -3.8285 0
M  V30 9990 H 918.04 -0.167034 -4.28274 0
M  V30 9991 H 922.224 -0.951835 -4.87087 0
M  V30 9992 H 917.48 -2.05036 -5.75995 0
M  V30 9993 H 921.654 -2.83317 -6.36164 0
M  V30 9994 H 919.281 -3.38839 -6.80509 0
M  V30 9995 N 920.856 1.57574 -0.0284266 0
M  V30 9996 C 921.786 2.1321 0.952039 0
M  V30 9997 C 922.767 1.04806 1.33977 0
M  V30 9998 O 923.952 1.32635 1.41851 0
M  V30 9999 C 921.082 2.65862 2.23461 0
M  V30 10000 C 920.036 3.79047 1.98765 0
M  V30 10001 C 919.362 4.18124 3.33281 0
M  V30 10002 C 920.662 5.05151 1.32739 0
M  V30 10003 H 922.356 2.95385 0.488705 0
M  V30 10004 H 919.902 1.42092 0.233628 0
M  V30 10005 H 921.855 3.03417 2.92431 0
M  V30 10006 H 920.579 1.80848 2.71959 0
M  V30 10007 H 919.238 3.41929 1.32213 0
M  V30 10008 H 918.886 3.30092 3.79537 0
M  V30 10009 H 918.586 4.94396 3.17563 0
M  V30 10010 H 920.11 4.58262 4.0352 0
M  V30 10011 H 921.524 5.40297 1.91708 0
M  V30 10012 H 919.921 5.86416 1.27421 0
M  V30 10013 H 920.991 4.83969 0.300261 0
M  V30 10014 N 922.334 -0.244713 1.55689 0
M  V30 10015 C 923.582 -0.970525 1.77272 0
M  V30 10016 C 923.903 -1.85771 0.592804 0
M  V30 10017 O 923.173 -1.91952 -0.391323 0
M  V30 10018 H 921.753 -0.361342 0.653789 0
M  V30 10019 H 924.415 -0.262134 1.93129 0
M  V30 10020 H 923.511 -1.59096 2.68505 0
M  V30 10021 N 923.813 -1.49104 -0.510467 0
M  V30 10022 C 924.746 -1.59667 -1.63039 0
M  V30 10023 C 925.724 -0.446145 -1.5636 0
M  V30 10024 O 926.908 -0.660414 -1.76552 0
M  V30 10025 C 924.035 -1.54282 -3.01521 0
M  V30 10026 C 923.081 -2.74415 -3.26494 0
M  V30 10027 S 923.914 -4.3619 -3.10643 0
M  V30 10028 C 925.07 -4.33435 -4.51536 0
M  V30 10029 H 925.303 -2.54407 -1.53833 0
M  V30 10030 H 922.836 -1.37878 -0.694916 0
M  V30 10031 H 924.794 -1.51861 -3.81377 0
M  V30 10032 H 923.455 -0.608458 -3.0815 0
M  V30 10033 H 922.648 -2.66841 -4.27565 0
M  V30 10034 H 922.25 -2.74199 -2.54344 0
M  V30 10035 H 924.542 -4.04571 -5.43441 0
M  V30 10036 H 925.485 -5.34752 -4.64162 0
M  V30 10037 H 925.893 -3.63638 -4.31773 0
M  V30 10038 N 925.291 0.760815 -1.38019 0
M  V30 10039 C 926.241 1.86487 -1.31174 0
M  V30 10040 C 927.225 1.59684 -0.197414 0
M  V30 10041 O 928.417 1.71628 -0.432764 0
M  V30 10042 C 925.546 3.24103 -1.13192 0
M  V30 10043 C 924.632 3.5682 -2.29216 0
M  V30 10044 N 925.023 3.60644 -3.5464 0
M  V30 10045 C 923.321 3.87047 -2.2161 0
M  V30 10046 C 924.022 3.90423 -4.31214 0
M  V30 10047 N 922.998 4.06883 -3.60482 0
M  V30 10048 H 926.8 1.87711 -2.26146 0
M  V30 10049 H 924.314 0.957811 -1.31148 0
M  V30 10050 H 926.311 4.03101 -1.06372 0
M  V30 10051 H 924.971 3.24135 -0.191473 0
M  V30 10052 H 925.982 3.42581 -3.88405 0
M  V30 10053 H 922.659 3.94837 -1.35684 0
M  V30 10054 H 924.049 4.00065 -5.39812 0
M  V30 10055 N 926.769 1.22769 0.988202 0
M  V30 10056 C 928.18 1.0512 1.54294 0
M  V30 10057 C 928.531 -0.383904 1.92407 0
M  V30 10058 O 927.656 -1.26955 1.75246 0
M  V30 10059 C 928.251 1.90198 2.80375 0
M  V30 10060 C 926.81 1.76831 3.32276 0
M  V30 10061 C 925.957 1.86377 2.05326 0
M  V30 10062 H 928.908 1.36546 0.808758 0
M  V30 10063 H 928.929 1.42216 3.52923 0
M  V30 10064 H 928.441 2.9464 2.52605 0
M  V30 10065 H 926.542 0.751412 3.64945 0
M  V30 10066 H 926.655 2.59771 4.02562 0
M  V30 10067 H 925.019 1.2987 2.19103 0
M  V30 10068 H 925.802 2.9236 1.79946 0
M  V30 10069 N 928.247 -1.18576 1.03814 0
M  V30 10070 C 929.524 -1.8433 0.654358 0
M  V30 10071 C 929.904 -1.92504 -0.866338 0
M  V30 10072 O 929.252 -1.44904 -1.76678 0
M  V30 10073 C 929.462 -3.22778 1.32723 0
M  V30 10074 C 930.81 -3.98841 1.45641 0
M  V30 10075 O 931.834 -3.32209 1.28514 0
M  V30 10076 O 930.693 -5.18219 1.73526 0
M  V30 10077 H 927.787 -0.794766 0.228638 0
M  V30 10078 H 930.333 -1.25989 1.13687 0
M  V30 10079 H 929.105 -3.11717 2.36534 0
M  V30 10080 H 928.728 -3.88772 0.833176 0
M  V30 10081 N 929.725 -0.817259 -1.34754 0
M  V30 10082 C 930.655 -0.249769 -2.3216 0
M  V30 10083 C 931.636 0.630663 -1.57977 0
M  V30 10084 O 932.821 0.558719 -1.85989 0
M  V30 10085 C 929.951 0.593825 -3.42186 0
M  V30 10086 C 928.905 -0.188997 -4.27583 0
M  V30 10087 C 928.231 0.776979 -5.29025 0
M  V30 10088 C 929.531 -1.39401 -5.03354 0
M  V30 10089 H 931.225 -1.06359 -2.79872 0
M  V30 10090 H 928.771 -0.512894 -1.34556 0
M  V30 10091 H 930.724 1.00097 -4.09339 0
M  V30 10092 H 929.448 1.44064 -2.93109 0
M  V30 10093 H 928.107 -0.577445 -3.62024 0
M  V30 10094 H 927.755 1.61959 -4.76212 0
M  V30 10095 H 927.455 0.257448 -5.87036 0
M  V30 10096 H 928.979 1.18211 -5.99048 0
M  V30 10097 H 930.393 -1.06117 -5.63393 0
M  V30 10098 H 928.79 -1.84878 -5.70912 0
M  V30 10099 H 929.86 -2.17515 -4.33377 0
M  V30 10100 N 931.203 1.46865 -0.571711 0
M  V30 10101 C 932.428 2.07323 -0.0564655 0
M  V30 10102 C 932.853 1.41938 1.23431 0
M  V30 10103 O 932.211 0.499334 1.74288 0
M  V30 10104 C 932.259 3.6044 0.107339 0
M  V30 10105 O 931.363 3.95558 1.1665 0
M  V30 10106 H 930.704 0.661475 -0.0578465 0
M  V30 10107 H 933.234 1.88669 -0.791524 0
M  V30 10108 H 933.244 4.06767 0.316987 0
M  V30 10109 H 931.919 4.07425 -0.835348 0
M  V30 10110 H 930.496 3.60957 0.936189 0
M  V30 10111 N 932.681 0.308908 1.54543 0
M  V30 10112 C 933.906 -0.303196 2.05172 0
M  V30 10113 C 934.331 -1.46133 1.18434 0
M  V30 10114 O 933.689 -1.803 0.190162 0
M  V30 10115 C 933.737 -0.729526 3.53143 0
M  V30 10116 O 932.841 -1.83348 3.69401 0
M  V30 10117 H 932.182 -0.0575066 0.661505 0
M  V30 10118 H 934.712 0.453055 1.99521 0
M  V30 10119 H 934.722 -1.01619 3.95143 0
M  V30 10120 H 933.397 0.117622 4.15734 0
M  V30 10121 H 931.974 -1.54676 3.39308 0
M  V30 10122 N 934.159 -1.57557 0.0367827 0
M  V30 10123 C 935.107 -2.11844 -0.960454 0
M  V30 10124 C 936.101 -1.04681 -1.33185 0
M  V30 10125 O 937.307 -1.23108 -1.31318 0
M  V30 10126 H 933.682 -0.676921 -0.32754 0
M  V30 10127 H 935.653 -2.94557 -0.477346 0
M  V30 10128 C 934.402 -2.66683 -2.23105 0
M  V30 10129 H 933.725 -3.48795 -1.95403 0
M  V30 10130 H 935.165 -3.08305 -2.91074 0
M  V30 10131 C 933.624 -1.59782 -2.96599 0
M  V30 10132 O 934.154 -1.00214 -3.88999 0
M  V30 10133 N 932.36 -1.31644 -2.59072 0
M  V30 10134 H 931.907 -1.80272 -1.8401 0
M  V30 10135 H 931.865 -0.603457 -3.08554 0
M  V30 10136 N 935.637 0.236453 -1.55816 0
M  V30 10137 C 936.867 0.978873 -1.81939 0
M  V30 10138 C 937.275 1.79041 -0.611647 0
M  V30 10139 O 936.618 1.78616 0.429172 0
M  V30 10140 C 936.68 1.9569 -3.01572 0
M  V30 10141 C 936.344 1.33131 -4.37178 0
M  V30 10142 C 937.341 0.728585 -5.1477 0
M  V30 10143 C 935.026 1.34755 -4.83887 0
M  V30 10144 C 937.02 0.150427 -6.37222 0
M  V30 10145 C 934.707 0.765539 -6.06286 0
M  V30 10146 C 935.705 0.168017 -6.82793 0
M  V30 10147 O 935.393 -0.404976 -8.02879 0
M  V30 10148 H 935.125 0.293186 -0.609113 0
M  V30 10149 H 937.679 0.261384 -2.0373 0
M  V30 10150 H 935.909 2.71298 -2.75562 0
M  V30 10151 H 937.598 2.56362 -3.14695 0
M  V30 10152 H 938.364 0.708477 -4.79797 0
M  V30 10153 H 934.243 1.80202 -4.24321 0
M  V30 10154 H 937.787 -0.316586 -6.96881 0
M  V30 10155 H 933.684 0.78301 -6.40733 0
M  V30 10156 H 934.452 -0.29785 -8.17958 0
M  V30 10157 N 937.115 1.49373 0.502552 0
M  V30 10158 C 938.526 1.52 1.0841 0
M  V30 10159 C 938.877 0.305317 1.9381 0
M  V30 10160 O 938.002 -0.585023 2.08342 0
M  V30 10161 C 938.597 2.75437 1.97281 0
M  V30 10162 C 937.156 2.80848 2.50602 0
M  V30 10163 C 936.303 2.45894 1.28186 0
M  V30 10164 H 939.254 1.56092 0.286533 0
M  V30 10165 H 939.275 2.55511 2.81947 0
M  V30 10166 H 938.787 3.63827 1.35098 0
M  V30 10167 H 936.888 1.96735 3.16427 0
M  V30 10168 H 937.001 3.82979 2.8786 0
M  V30 10169 H 935.365 1.97639 1.60657 0
M  V30 10170 H 936.148 3.36556 0.677139 0
M  V30 10171 N 938.594 -0.753485 1.38421 0
M  V30 10172 C 939.819 -1.54783 1.38047 0
M  V30 10173 C 940.244 -1.8808 -0.0276371 0
M  V30 10174 O 939.602 -1.5058 -1.00973 0
M  V30 10175 C 939.65 -2.82353 2.24297 0
M  V30 10176 O 938.754 -3.77509 1.66014 0
M  V30 10177 H 938.095 -0.468151 0.470883 0
M  V30 10178 H 940.625 -0.931144 1.82184 0
M  V30 10179 H 940.635 -3.31277 2.38159 0
M  V30 10180 H 939.31 -2.57449 3.26639 0
M  V30 10181 H 937.887 -3.36212 1.61294 0
M  V30 10182 N 940.072 -1.23292 -0.981677 0
M  V30 10183 C 941.297 -1.09176 -1.76339 0
M  V30 10184 C 941.722 0.352726 -1.84763 0
M  V30 10185 O 941.08 1.25509 -1.30832 0
M  V30 10186 C 941.128 -1.72046 -3.16911 0
M  V30 10187 O 940.232 -0.98174 -4.00544 0
M  V30 10188 H 939.573 -0.382755 -0.542581 0
M  V30 10189 H 942.103 -1.63319 -1.23239 0
M  V30 10190 H 942.113 -1.77232 -3.67495 0
M  V30 10191 H 940.788 -2.77154 -3.10095 0
M  V30 10192 H 939.365 -1.00672 -3.59054 0
M  V30 10193 N 941.55 1.18024 -1.04442 0
M  V30 10194 C 942.46 2.25436 -0.649276 0
M  V30 10195 C 943.476 1.70915 0.326189 0
M  V30 10196 O 944.652 2.00592 0.180174 0
M  V30 10197 C 941.717 3.46693 -0.0222558 0
M  V30 10198 C 940.778 4.16332 -1.0472 0
M  V30 10199 C 940.011 5.31799 -0.450011 0
M  V30 10200 O 940.234 5.65544 0.742717 0
M  V30 10201 O 939.168 5.90209 -1.18056 0
M  V30 10202 H 942.994 2.61508 -1.54426 0
M  V30 10203 H 940.579 1.25178 -0.81552 0
M  V30 10204 H 942.461 4.20132 0.326597 0
M  V30 10205 H 941.136 3.12436 0.84649 0
M  V30 10206 H 940.043 3.44944 -1.44792 0
M  V30 10207 H 941.376 4.54598 -1.88684 0
M  V30 10208 N 943.028 0.824394 1.34319 0
M  V30 10209 C 944.256 0.426194 2.02463 0
M  V30 10210 C 944.671 -0.968298 1.62078 0
M  V30 10211 O 944.028 -1.62689 0.82696 0
M  V30 10212 C 944.079 0.520465 3.57734 0
M  V30 10213 O 943.8 1.86 3.96656 0
M  V30 10214 C 945.301 0.117353 4.43145 0
M  V30 10215 H 942.521 0.170864 0.648881 0
M  V30 10216 H 945.065 1.11296 1.71562 0
M  V30 10217 H 943.22 -0.118233 3.8722 0
M  V30 10218 H 943.634 1.83528 4.91343 0
M  V30 10219 H 945.108 0.234395 5.51502 0
M  V30 10220 H 945.585 -0.939271 4.29039 0
M  V30 10221 H 946.191 0.729908 4.1899 0
M  V30 10222 N 944.506 -1.46559 0.579492 0
M  V30 10223 C 945.753 -2.02399 0.0638418 0
M  V30 10224 C 946.081 -1.45135 -1.29484 0
M  V30 10225 O 945.336 -0.605061 -1.86112 0
M  V30 10226 C 945.635 -3.57357 -0.0552803 0
M  V30 10227 C 945.301 -4.33646 1.23539 0
M  V30 10228 C 943.963 -4.54207 1.589 0
M  V30 10229 C 946.315 -4.77476 2.08965 0
M  V30 10230 C 943.643 -5.1585 2.79492 0
M  V30 10231 C 945.995 -5.4045 3.2878 0
M  V30 10232 C 944.659 -5.5924 3.64427 0
M  V30 10233 H 943.929 -0.740632 0.0233614 0
M  V30 10234 H 946.576 -1.75968 0.755482 0
M  V30 10235 H 944.881 -3.82907 -0.83003 0
M  V30 10236 H 946.578 -3.98237 -0.469964 0
M  V30 10237 H 943.168 -4.17937 0.9501 0
M  V30 10238 H 947.352 -4.61349 1.8295 0
M  V30 10239 H 942.608 -5.28589 3.07252 0
M  V30 10240 H 946.782 -5.73371 3.95245 0
M  V30 10241 H 944.409 -6.06775 4.57961 0
M  V30 10242 N 945.984 -0.3171 -1.54377 0
M  V30 10243 C 946.894 0.560867 -2.27797 0
M  V30 10244 C 947.91 1.13473 -1.31908 0
M  V30 10245 O 949.086 1.15608 -1.64914 0
M  V30 10246 C 946.151 1.70886 -3.0166 0
M  V30 10247 C 945.212 1.16745 -4.13121 0
M  V30 10248 C 944.445 2.26073 -4.83453 0
M  V30 10249 O 944.668 3.46292 -4.53252 0
M  V30 10250 O 943.602 1.91856 -5.70504 0
M  V30 10251 H 947.428 -0.035193 -3.0368 0
M  V30 10252 H 945.013 -0.0830062 -1.49169 0
M  V30 10253 H 946.895 2.37736 -3.47936 0
M  V30 10254 H 945.57 2.29122 -2.28658 0
M  V30 10255 H 944.477 0.464224 -3.71209 0
M  V30 10256 H 945.81 0.630307 -4.88147 0
M  V30 10257 N 947.462 1.57535 -0.0451378 0
M  V30 10258 C 948.372 2.14653 0.946646 0
M  V30 10259 C 949.388 1.10279 1.3459 0
M  V30 10260 O 950.564 1.42417 1.42405 0
M  V30 10261 C 947.629 2.67533 2.20515 0
M  V30 10262 C 946.69 3.86682 1.86481 0
M  V30 10263 C 945.923 4.37031 3.06332 0
M  V30 10264 O 946.146 3.86481 4.1951 0
M  V30 10265 O 945.08 5.28691 2.87697 0
M  V30 10266 H 948.906 2.99706 0.49091 0
M  V30 10267 H 946.491 1.48355 0.17641 0
M  V30 10268 H 948.373 3.01542 2.94365 0
M  V30 10269 H 947.048 1.85554 2.65238 0
M  V30 10270 H 945.955 3.57573 1.09966 0
M  V30 10271 H 947.288 4.69873 1.46562 0
M  V30 10272 N 948.94 -0.228186 1.55939 0
M  V30 10273 C 950.189 -0.951563 1.77843 0
M  V30 10274 C 950.502 -1.85763 0.612501 0
M  V30 10275 O 951.708 -2.61916 0.715006 0
M  V30 10276 C 950.164 -1.74216 3.14923 0
M  V30 10277 C 949.772 -0.882569 4.39221 0
M  V30 10278 C 951.516 -2.45715 3.46156 0
M  V30 10279 C 949.423 -1.67014 5.67327 0
M  V30 10280 H 948.353 -0.359035 0.663031 0
M  V30 10281 H 951.004 -0.205636 1.82344 0
M  V30 10282 H 949.386 -2.53075 3.0458 0
M  V30 10283 H 950.56 -0.13499 4.60602 0
M  V30 10284 H 948.875 -0.280022 4.15457 0
M  V30 10285 H 951.472 -3.05127 4.39092 0
M  V30 10286 H 951.815 -3.1827 2.68346 0
M  V30 10287 H 952.348 -1.73852 3.57799 0
M  V30 10288 H 949.087 -0.987985 6.48012 0
M  V30 10289 H 948.607 -2.3925 5.50018 0
M  V30 10290 H 950.286 -2.23252 6.07262 0
M  V30 10291 N 950.418 -1.49637 -0.494624 0
M  V30 10292 C 951.35 -1.62902 -1.61231 0
M  V30 10293 C 952.363 -0.511425 -1.54558 0
M  V30 10294 O 953.552 -0.783724 -1.60375 0
M  V30 10295 C 950.652 -1.57564 -3.00045 0
M  V30 10296 C 949.825 -2.84964 -3.31835 0
M  V30 10297 C 948.884 -2.72591 -4.5009 0
M  V30 10298 O 947.91 -3.46532 -4.51558 0
M  V30 10299 N 949.112 -1.84563 -5.50379 0
M  V30 10300 H 951.877 -2.59301 -1.50276 0
M  V30 10301 H 949.438 -1.46806 -0.68262 0
M  V30 10302 H 951.43 -1.46932 -3.77085 0
M  V30 10303 H 950 -0.689974 -3.0489 0
M  V30 10304 H 949.22 -3.099 -2.4363 0
M  V30 10305 H 950.508 -3.69412 -3.49875 0
M  V30 10306 H 949.906 -1.23758 -5.51997 0
M  V30 10307 H 948.463 -1.79849 -6.26496 0
M  V30 10308 N 951.896 0.746133 -1.38819 0
M  V30 10309 C 953.143 1.50545 -1.35434 0
M  V30 10310 C 953.471 1.94427 0.0532669 0
M  V30 10311 O 952.726 1.66285 1.03188 0
M  V30 10312 C 953.025 2.76639 -2.26286 0
M  V30 10313 C 952.691 2.51682 -3.74122 0
M  V30 10314 C 951.353 2.44584 -4.14406 0
M  V30 10315 C 953.705 2.30071 -4.67672 0
M  V30 10316 C 951.033 2.13902 -5.46318 0
M  V30 10317 C 953.385 2.00907 -5.99849 0
M  V30 10318 C 952.049 1.92271 -6.39209 0
M  V30 10319 H 951.319 0.550883 -0.49559 0
M  V30 10320 H 953.966 0.857337 -1.71237 0
M  V30 10321 H 952.271 3.46138 -1.83564 0
M  V30 10322 H 953.968 3.34626 -2.20967 0
M  V30 10323 H 950.558 2.5808 -3.42188 0
M  V30 10324 H 954.742 2.34528 -4.3739 0
M  V30 10325 H 949.998 2.0573 -5.75748 0
M  V30 10326 H 954.172 1.83191 -6.71874 0
M  V30 10327 H 951.799 1.68261 -7.41345 0
M  V30 10328 N 953.375 1.23811 0.975125 0
M  V30 10329 C 954.622 1.07336 1.71712 0
M  V30 10330 C 954.95 -0.388954 1.90571 0
M  V30 10331 O 954.205 -1.30409 1.45918 0
M  V30 10332 C 954.504 1.74994 3.11628 0
M  V30 10333 C 954.17 3.24918 3.12632 0
M  V30 10334 C 952.832 3.65822 3.12614 0
M  V30 10335 C 955.184 4.20797 3.07538 0
M  V30 10336 C 952.512 5.01054 3.05224 0
M  V30 10337 C 954.864 5.56027 3.0169 0
M  V30 10338 C 953.528 5.96287 2.99996 0
M  V30 10339 H 952.798 0.392771 0.62834 0
M  V30 10340 H 955.445 1.53815 1.14075 0
M  V30 10341 H 953.75 1.20889 3.72684 0
M  V30 10342 H 955.447 1.5972 3.67819 0
M  V30 10343 H 952.037 2.92359 3.13407 0
M  V30 10344 H 956.221 3.902 3.06688 0
M  V30 10345 H 951.477 5.31454 3.02268 0
M  V30 10346 H 955.651 6.3003 2.96706 0
M  V30 10347 H 953.278 7.01037 2.94025 0
M  V30 10348 N 954.853 -1.17469 1.05066 0
M  V30 10349 C 955.801 -2.23495 0.644418 0
M  V30 10350 C 956.795 -1.66081 -0.333685 0
M  V30 10351 O 958.001 -1.78887 -0.199886 0
M  V30 10352 H 954.376 -0.727546 0.190214 0
M  V30 10353 H 956.347 -2.55058 1.5488 0
M  V30 10354 C 955.096 -3.47684 0.0338051 0
M  V30 10355 H 954.419 -3.92167 0.777513 0
M  V30 10356 H 955.859 -4.23464 -0.213086 0
M  V30 10357 C 954.318 -3.14067 -1.21915 0
M  V30 10358 O 954.848 -3.28728 -2.3087 0
M  V30 10359 N 953.054 -2.68304 -1.11631 0
M  V30 10360 H 952.601 -2.56574 -0.229673 0
M  V30 10361 H 952.559 -2.46184 -1.95553 0
M  V30 10362 N 956.331 -0.831506 -1.3388 0
M  V30 10363 C 957.579 -0.422837 -1.97627 0
M  V30 10364 C 957.9 1.01961 -1.6622 0
M  V30 10365 O 957.17 1.70916 -0.957323 0
M  V30 10366 H 955.75 -0.153365 -0.731087 0
M  V30 10367 H 958.412 -1.06284 -1.6337 0
M  V30 10368 H 957.508 -0.548858 -3.07236 0
M  V30 10369 N 957.809 1.4625 -0.587256 0
M  V30 10370 C 958.759 2.27407 0.164393 0
M  V30 10371 C 959.743 1.36138 0.857628 0
M  V30 10372 O 960.935 1.60279 0.750973 0
M  V30 10373 C 958.064 3.22585 1.17447 0
M  V30 10374 C 957.15 4.21339 0.483121 0
M  V30 10375 N 957.541 5.03669 -0.46385 0
M  V30 10376 C 955.839 4.39931 0.73329 0
M  V30 10377 C 956.54 5.75182 -0.868334 0
M  V30 10378 N 955.516 5.43169 -0.216487 0
M  V30 10379 H 959.318 2.88453 -0.563237 0
M  V30 10380 H 956.832 1.57155 -0.409388 0
M  V30 10381 H 958.829 3.79439 1.72718 0
M  V30 10382 H 957.489 2.63098 1.90288 0
M  V30 10383 H 958.5 5.11049 -0.839602 0
M  V30 10384 H 955.177 3.91588 1.44792 0
M  V30 10385 H 956.567 6.51371 -1.64821 0
M  V30 10386 N 959.287 0.325282 1.54207 0
M  V30 10387 C 960.235 -0.5554 2.25872 0
M  V30 10388 C 961.229 -1.11714 1.27344 0
M  V30 10389 O 962.435 -1.06498 1.45115 0
M  V30 10390 H 958.81 -0.19776 0.725531 0
M  V30 10391 H 960.781 0.0712858 2.98315 0
M  V30 10392 C 959.53 -1.70379 3.03095 0
M  V30 10393 H 958.853 -1.2808 3.78729 0
M  V30 10394 H 960.293 -2.29556 3.56483 0
M  V30 10395 C 958.752 -2.62242 2.11496 0
M  V30 10396 O 959.282 -3.64003 1.69895 0
M  V30 10397 N 957.488 -2.30515 1.7695 0
M  V30 10398 H 957.035 -1.47805 2.10978 0
M  V30 10399 H 956.993 -2.92241 1.15942 0
M  V30 10400 N 960.765 -1.57509 0.0534917 0
M  V30 10401 C 961.995 -1.96812 -0.628386 0
M  V30 10402 C 962.403 -0.929808 -1.64776 0
M  V30 10403 O 961.746 0.0941155 -1.83459 0
M  V30 10404 C 961.808 -3.32361 -1.37027 0
M  V30 10405 C 961.472 -4.54185 -0.506465 0
M  V30 10406 C 962.469 -5.19398 0.228412 0
M  V30 10407 C 960.154 -5.00398 -0.43671 0
M  V30 10408 C 962.148 -6.29162 1.02146 0
M  V30 10409 C 959.835 -6.10039 0.360022 0
M  V30 10410 C 960.833 -6.74282 1.08779 0
M  V30 10411 O 960.521 -7.81814 1.87142 0
M  V30 10412 H 960.253 -0.65257 -0.176432 0
M  V30 10413 H 962.807 -2.05067 0.116908 0
M  V30 10414 H 961.037 -3.20667 -2.16125 0
M  V30 10415 H 962.726 -3.56395 -1.94261 0
M  V30 10416 H 963.492 -4.84651 0.184003 0
M  V30 10417 H 959.371 -4.50183 -0.992772 0
M  V30 10418 H 962.915 -6.79238 1.59002 0
M  V30 10419 H 958.812 -6.44222 0.406061 0
M  V30 10420 H 959.58 -7.98602 1.79378 0
M  V30 10421 N 962.243 0.219913 -1.56058 0
M  V30 10422 C 963.193 1.27606 -1.88946 0
M  V30 10423 C 964.177 1.42209 -0.752691 0
M  V30 10424 O 965.369 1.44996 -1.01514 0
M  V30 10425 C 962.498 2.62614 -2.21108 0
M  V30 10426 C 961.584 2.51906 -3.4118 0
M  V30 10427 N 961.975 2.10851 -4.59756 0
M  V30 10428 C 960.273 2.82861 -3.44827 0
M  V30 10429 C 960.974 2.11434 -5.41914 0
M  V30 10430 N 959.95 2.51985 -4.81669 0
M  V30 10431 H 963.752 0.94957 -2.78137 0
M  V30 10432 H 961.266 0.428468 -1.56646 0
M  V30 10433 H 963.263 3.38869 -2.42844 0
M  V30 10434 H 961.923 2.96108 -1.3323 0
M  V30 10435 H 962.934 1.81956 -4.84884 0
M  V30 10436 H 959.611 3.20716 -2.67297 0
M  V30 10437 H 961.001 1.81803 -6.46836 0
M  V30 10438 N 963.721 1.49897 0.486681 0
M  V30 10439 C 964.668 1.67619 1.58658 0
M  V30 10440 C 965.638 0.517537 1.57831 0
M  V30 10441 O 966.823 0.746272 1.756 0
M  V30 10442 C 963.963 1.762 2.96728 0
M  V30 10443 C 963.076 3.03465 3.07462 0
M  V30 10444 C 962.211 3.02937 4.36351 0
M  V30 10445 C 961.25 4.24721 4.4077 0
M  V30 10446 N 960.387 4.22021 5.61108 0
M  V30 10447 H 965.227 2.61528 1.42853 0
M  V30 10448 H 962.764 1.29657 0.694807 0
M  V30 10449 H 964.722 1.79156 3.76774 0
M  V30 10450 H 963.352 0.857452 3.11203 0
M  V30 10451 H 962.404 3.10054 2.20387 0
M  V30 10452 H 963.716 3.93454 3.06586 0
M  V30 10453 H 962.87 3.04536 5.24731 0
M  V30 10454 H 961.609 2.10751 4.39813 0
M  V30 10455 H 960.614 4.23352 3.5079 0
M  V30 10456 H 961.839 5.18116 4.39013 0
M  V30 10457 H 959.785 3.3268 5.65385 0
M  V30 10458 H 959.702 5.05761 5.61909 0
M  V30 10459 H 960.97 4.27743 6.51656 0
M  V30 10460 N 965.199 -0.738761 1.39212 0
M  V30 10461 C 966.447 -1.49529 1.35962 0
M  V30 10462 C 966.768 -1.94948 -0.0450152 0
M  V30 10463 O 966.038 -1.68717 -0.995552 0
M  V30 10464 H 964.618 -0.554692 0.500326 0
M  V30 10465 H 967.28 -0.877255 1.74041 0
M  V30 10466 H 966.376 -2.37919 2.01993 0
M  V30 10467 N 966.677 -1.24326 -0.968545 0
M  V30 10468 C 967.926 -1.07647 -1.70572 0
M  V30 10469 C 968.239 0.384821 -1.91777 0
M  V30 10470 O 969.445 0.671782 -2.63058 0
M  V30 10471 C 967.901 -1.87799 -3.07017 0
M  V30 10472 C 967.509 -3.38333 -2.93658 0
M  V30 10473 C 969.253 -1.79647 -3.84613 0
M  V30 10474 C 967.16 -4.10831 -4.25407 0
M  V30 10475 H 966.09 -0.399216 -0.639642 0
M  V30 10476 H 968.741 -1.484 -1.07934 0
M  V30 10477 H 967.123 -1.3986 -3.7048 0
M  V30 10478 H 968.297 -3.93845 -2.39213 0
M  V30 10479 H 966.612 -3.47427 -2.29528 0
M  V30 10480 H 969.209 -2.31116 -4.82172 0
M  V30 10481 H 969.552 -0.761553 -4.09275 0
M  V30 10482 H 970.085 -2.25261 -3.27875 0
M  V30 10483 H 966.824 -5.14679 -4.05939 0
M  V30 10484 H 966.344 -3.60105 -4.79671 0
M  V30 10485 H 968.023 -4.17783 -4.94031 0
M  V30 10486 N 968.156 1.1691 -1.05688 0
M  V30 10487 C 969.433 1.83266 -0.683601 0
M  V30 10488 C 969.813 1.93858 0.835602 0
M  V30 10489 O 969.161 1.47696 1.7435 0
M  V30 10490 C 969.371 3.20625 -1.37842 0
M  V30 10491 C 970.719 3.96473 -1.51967 0
M  V30 10492 O 971.743 3.30122 -1.33783 0
M  V30 10493 O 970.602 5.15393 -1.81749 0
M  V30 10494 H 967.696 0.791028 -0.241254 0
M  V30 10495 H 970.242 1.24165 -1.15677 0
M  V30 10496 H 969.014 3.07914 -2.41463 0
M  V30 10497 H 968.637 3.87398 -0.894921 0
M  V30 10498 N 969.634 0.838594 1.33437 0
M  V30 10499 C 970.88 0.444042 1.98494 0
M  V30 10500 C 971.235 -0.985759 1.65229 0
M  V30 10501 O 970.528 -1.67972 0.921736 0
M  V30 10502 C 970.722 0.601425 3.52303 0
M  V30 10503 C 970.551 2.04497 4.00513 0
M  V30 10504 C 969.321 2.68015 4.28364 0
M  V30 10505 C 971.519 3.01367 4.16752 0
M  V30 10506 N 969.501 4.03448 4.62713 0
M  V30 10507 C 970.872 4.21745 4.54457 0
M  V30 10508 C 972.927 2.97776 3.99041 0
M  V30 10509 C 971.63 5.39009 4.76301 0
M  V30 10510 C 973.656 4.14269 4.22061 0
M  V30 10511 C 973.018 5.33402 4.60067 0
M  V30 10512 H 969.117 0.210906 0.753022 0
M  V30 10513 H 971.701 1.0866 1.61558 0
M  V30 10514 H 969.872 -0.0113326 3.88398 0
M  V30 10515 H 971.604 0.178343 4.04307 0
M  V30 10516 H 968.359 2.19153 4.19844 0
M  V30 10517 H 968.783 4.73264 4.84098 0
M  V30 10518 H 973.425 2.06801 3.68773 0
M  V30 10519 H 971.143 6.30529 5.0543 0
M  V30 10520 H 974.729 4.12908 4.09876 0
M  V30 10521 H 973.609 6.22045 4.77525 0
M  V30 10522 N 971.112 -1.45937 0.595003 0
M  V30 10523 C 972.342 -2.06399 0.0911607 0
M  V30 10524 C 972.75 -1.44236 -1.22444 0
M  V30 10525 O 972.093 -0.546265 -1.7539 0
M  V30 10526 C 972.155 -3.59242 -0.136079 0
M  V30 10527 C 971.819 -4.43668 1.09579 0
M  V30 10528 C 972.816 -4.79437 2.01088 0
M  V30 10529 C 970.501 -4.84616 1.32109 0
M  V30 10530 C 972.495 -5.54995 3.13464 0
M  V30 10531 C 970.182 -5.5993 2.44788 0
M  V30 10532 C 971.18 -5.95035 3.35294 0
M  V30 10533 O 970.868 -6.68825 4.46014 0
M  V30 10534 H 970.6 -0.673316 0.0601779 0
M  V30 10535 H 973.154 -1.88365 0.819005 0
M  V30 10536 H 971.384 -3.75629 -0.918676 0
M  V30 10537 H 973.073 -4.0159 -0.589954 0
M  V30 10538 H 973.839 -4.48371 1.84902 0
M  V30 10539 H 969.718 -4.56735 0.625662 0
M  V30 10540 H 973.262 -5.82314 3.84131 0
M  V30 10541 H 969.159 -5.90411 2.60931 0
M  V30 10542 H 969.927 -6.87262 4.44537 0
M  V30 10543 N 972.59 -0.333456 -1.54032 0
M  V30 10544 C 973.523 0.570776 -2.20947 0
M  V30 10545 C 974.501 1.10811 -1.18994 0
M  V30 10546 O 975.685 1.17027 -1.47773 0
M  V30 10547 C 972.812 1.7842 -2.87896 0
M  V30 10548 C 971.858 1.37722 -4.03652 0
M  V30 10549 S 972.691 0.405548 -5.33962 0
M  V30 10550 C 973.847 1.62603 -6.0441 0
M  V30 10551 H 974.08 0.0023936 -2.973 0
M  V30 10552 H 971.613 -0.117531 -1.53952 0
M  V30 10553 H 973.571 2.48038 -3.27089 0
M  V30 10554 H 972.232 2.32378 -2.11327 0
M  V30 10555 H 971.425 2.28167 -4.49395 0
M  V30 10556 H 971.027 0.760628 -3.66184 0
M  V30 10557 H 973.319 2.56202 -6.2719 0
M  V30 10558 H 974.262 1.21058 -6.97675 0
M  V30 10559 H 974.67 1.8175 -5.34441 0
M  V30 10560 N 974.068 1.57479 -0.061844 0
M  V30 10561 C 974.978 2.15645 0.923826 0
M  V30 10562 C 975.994 1.117 1.33413 0
M  V30 10563 O 977.17 1.4392 1.40887 0
M  V30 10564 C 974.235 2.69857 2.17665 0
M  V30 10565 C 973.296 3.88638 1.8237 0
M  V30 10566 C 972.529 4.40256 3.01679 0
M  V30 10567 O 972.752 3.90908 4.15388 0
M  V30 10568 O 971.686 5.31713 2.82073 0
M  V30 10569 H 975.512 3.0021 0.459094 0
M  V30 10570 H 973.097 1.48534 0.160665 0
M  V30 10571 H 974.979 3.04647 2.9115 0
M  V30 10572 H 973.654 1.88357 2.63255 0
M  V30 10573 H 972.561 3.58719 1.06167 0
M  V30 10574 H 973.894 4.71401 1.4157 0
M  V30 10575 N 975.546 -0.211634 1.56173 0
M  V30 10576 C 976.793 -0.93455 1.79645 0
M  V30 10577 C 977.121 -1.83936 0.632294 0
M  V30 10578 O 976.376 -1.91919 -0.382841 0
M  V30 10579 C 976.675 -1.79657 3.08963 0
M  V30 10580 C 976.341 -1.04415 4.38644 0
M  V30 10581 C 975.003 -0.836351 4.73876 0
M  V30 10582 C 977.355 -0.51355 5.18664 0
M  V30 10583 C 974.683 -0.0861976 5.86637 0
M  V30 10584 C 977.035 0.223309 6.32206 0
M  V30 10585 C 975.699 0.442279 6.66033 0
M  V30 10586 H 974.969 -0.341976 0.657368 0
M  V30 10587 H 977.616 -0.202024 1.90431 0
M  V30 10588 H 975.921 -2.59726 2.93342 0
M  V30 10589 H 977.618 -2.35823 3.24328 0
M  V30 10590 H 974.208 -1.21611 4.10985 0
M  V30 10591 H 978.392 -0.661541 4.91871 0
M  V30 10592 H 973.648 0.0935866 6.11328 0
M  V30 10593 H 977.822 0.641917 6.93435 0
M  V30 10594 H 975.449 1.02547 7.53252 0
M  V30 10595 N 977.024 -1.50153 -0.478725 0
M  V30 10596 C 978.271 -1.6076 -1.23136 0
M  V30 10597 C 978.599 -0.30442 -1.92103 0
M  V30 10598 O 977.854 0.709213 -1.82397 0
M  V30 10599 C 978.153 -2.73208 -2.30417 0
M  V30 10600 C 977.819 -4.13953 -1.78755 0
M  V30 10601 C 976.481 -4.52251 -1.64386 0
M  V30 10602 C 978.833 -5.01949 -1.40344 0
M  V30 10603 C 976.161 -5.76292 -1.10018 0
M  V30 10604 C 978.513 -6.2653 -0.874206 0
M  V30 10605 C 977.177 -6.63637 -0.717085 0
M  V30 10606 H 976.447 -0.588264 -0.450585 0
M  V30 10607 H 979.094 -1.84061 -0.528551 0
M  V30 10608 H 977.399 -2.43965 -3.06575 0
M  V30 10609 H 979.096 -2.7862 -2.88395 0
M  V30 10610 H 975.686 -3.83736 -1.90904 0
M  V30 10611 H 979.87 -4.73 -1.50283 0
M  V30 10612 H 975.126 -6.03723 -0.965838 0
M  V30 10613 H 979.3 -6.94081 -0.567883 0
M  V30 10614 H 976.927 -7.59633 -0.293639 0
M  V30 10615 N 978.502 0.731368 -1.39602 0
M  V30 10616 C 979.913 1.30981 -1.33045 0
M  V30 10617 C 980.264 1.962 0.00349918 0
M  V30 10618 O 979.389 1.96539 0.905615 0
M  V30 10619 C 979.984 2.3817 -2.40958 0
M  V30 10620 C 978.543 2.91678 -2.3791 0
M  V30 10621 C 977.69 1.65286 -2.22656 0
M  V30 10622 H 980.641 0.528615 -1.49637 0
M  V30 10623 H 980.662 3.18645 -2.07955 0
M  V30 10624 H 980.174 1.90673 -3.38032 0
M  V30 10625 H 978.275 3.43446 -1.44485 0
M  V30 10626 H 978.388 3.44545 -3.32904 0
M  V30 10627 H 976.752 1.89759 -1.69893 0
M  V30 10628 H 977.535 1.19836 -3.21705 0
M  V30 10629 N 979.98 1.24838 0.961938 0
M  V30 10630 C 981.229 1.0855 1.69999 0
M  V30 10631 C 981.542 -0.374645 1.91979 0
M  V30 10632 O 982.748 -0.657822 2.6341 0
M  V30 10633 C 981.204 1.89424 3.06017 0
M  V30 10634 C 980.812 3.39885 2.9186 0
M  V30 10635 C 982.556 1.81684 3.83655 0
M  V30 10636 C 980.463 4.13082 4.23223 0
M  V30 10637 H 979.393 0.402603 0.637516 0
M  V30 10638 H 982.044 1.4897 1.07146 0
M  V30 10639 H 980.426 1.41823 3.69733 0
M  V30 10640 H 981.6 3.95108 2.37121 0
M  V30 10641 H 979.915 3.4864 2.27683 0
M  V30 10642 H 982.512 2.3367 4.80939 0
M  V30 10643 H 982.855 0.783247 4.08865 0
M  V30 10644 H 983.388 2.26997 3.26676 0
M  V30 10645 H 980.127 5.16824 4.03204 0
M  V30 10646 H 979.647 3.62644 4.77755 0
M  V30 10647 H 981.326 4.20397 4.91808 0
M  V30 10648 N 981.458 -1.16348 1.06306 0
M  V30 10649 C 982.869 -1.68491 0.80422 0
M  V30 10650 C 983.22 -1.84327 -0.672159 0
M  V30 10651 O 982.345 -1.53892 -1.52139 0
M  V30 10652 C 982.94 -3.06048 1.45328 0
M  V30 10653 C 981.499 -3.55311 1.24221 0
M  V30 10654 C 980.646 -2.31291 1.5297 0
M  V30 10655 H 983.597 -1.00708 1.22652 0
M  V30 10656 H 983.618 -3.70451 0.868674 0
M  V30 10657 H 983.13 -2.9449 2.52779 0
M  V30 10658 H 981.231 -3.72128 0.187447 0
M  V30 10659 H 981.344 -4.37397 1.95502 0
M  V30 10660 H 979.708 -2.3631 0.950241 0
M  V30 10661 H 980.491 -2.22331 2.6158 0
M  V30 10662 N 982.937 -0.845659 -1.3299 0
M  V30 10663 C 984.162 -0.457435 -2.02293 0
M  V30 10664 C 984.587 0.935634 -1.63179 0
M  V30 10665 O 983.945 1.61297 -0.827835 0
M  V30 10666 C 983.993 -0.593665 -3.5568 0
M  V30 10667 O 983.097 0.37729 -4.10671 0
M  V30 10668 H 982.438 -0.185022 -0.637701 0
M  V30 10669 H 984.968 -1.14237 -1.69738 0
M  V30 10670 H 984.978 -0.477834 -4.05192 0
M  V30 10671 H 983.653 -1.60957 -3.83491 0
M  V30 10672 H 982.23 0.218448 -3.7226 0
M  V30 10673 N 984.415 1.45619 -0.602734 0
M  V30 10674 C 985.363 2.32228 0.131484 0
M  V30 10675 C 986.357 1.45681 0.864484 0
M  V30 10676 O 987.563 1.62193 0.7806 0
M  V30 10677 H 983.938 0.7495 0.0612638 0
M  V30 10678 H 985.909 2.91941 -0.617496 0
M  V30 10679 C 984.658 3.29213 1.11866 0
M  V30 10680 H 983.981 3.95801 0.564061 0
M  V30 10681 H 985.421 3.92554 1.60242 0
M  V30 10682 C 983.88 2.56028 2.18978 0
M  V30 10683 O 984.41 2.33806 3.26646 0
M  V30 10684 N 982.616 2.16245 1.94129 0
M  V30 10685 H 982.163 2.34518 1.06579 0
M  V30 10686 H 982.121 1.67601 2.66003 0
M  V30 10687 N 985.893 0.34162 1.53853 0
M  V30 10688 C 987.121 -0.256929 2.05299 0
M  V30 10689 C 987.536 -1.44366 1.21671 0
M  V30 10690 O 986.893 -1.80758 0.251584 0
M  V30 10691 C 986.944 -0.673854 3.55164 0
M  V30 10692 O 986.665 0.465687 4.35618 0
M  V30 10693 C 988.166 -1.33332 4.22773 0
M  V30 10694 H 985.386 -0.0499445 0.669139 0
M  V30 10695 H 987.93 0.493048 1.98467 0
M  V30 10696 H 986.085 -1.37378 3.62224 0
M  V30 10697 H 986.499 0.133723 5.2433 0
M  V30 10698 H 987.973 -1.57582 5.29029 0
M  V30 10699 H 988.45 -2.28628 3.75001 0
M  V30 10700 H 989.056 -0.675489 4.19901 0
M  V30 10701 N 987.371 -1.57444 0.0701946 0
M  V30 10702 C 988.599 -1.97754 -0.608358 0
M  V30 10703 C 989.014 -0.948496 -1.63245 0
M  V30 10704 O 988.371 0.065046 -1.82384 0
M  V30 10705 C 988.422 -3.38142 -1.27836 0
M  V30 10706 O 988.143 -4.37104 -0.295255 0
M  V30 10707 C 989.644 -3.93318 -2.04489 0
M  V30 10708 H 986.864 -0.650398 -0.164997 0
M  V30 10709 H 989.408 -2.04006 0.142124 0
M  V30 10710 H 987.563 -3.32982 -1.97994 0
M  V30 10711 H 987.977 -5.18732 -0.77574 0
M  V30 10712 H 989.451 -4.93774 -2.46762 0
M  V30 10713 H 989.928 -3.29774 -2.90079 0
M  V30 10714 H 990.534 -4.01875 -1.39201 0
M  V30 10715 N 988.849 0.203349 -1.56283 0
M  V30 10716 C 990.074 0.945548 -1.84592 0
M  V30 10717 C 990.499 1.7641 -0.652772 0
M  V30 10718 O 989.857 1.76867 0.398468 0
M  V30 10719 C 989.905 1.82416 -3.11057 0
M  V30 10720 O 989.009 2.92191 -2.9103 0
M  V30 10721 H 988.35 0.266739 -0.608068 0
M  V30 10722 H 990.88 0.211158 -2.03507 0
M  V30 10723 H 990.89 2.23044 -3.41636 0
M  V30 10724 H 989.565 1.22267 -3.97522 0
M  V30 10725 H 988.142 2.55378 -2.71728 0
M  V30 10726 N 990.327 1.50405 0.470755 0
M  V30 10727 C 991.604 1.51929 1.23195 0
M  V30 10728 C 991.984 0.264159 2.09441 0
M  V30 10729 O 991.332 -0.752395 2.15757 0
M  V30 10730 C 991.542 2.81521 2.06269 0
M  V30 10731 C 992.89 3.32195 2.64446 0
M  V30 10732 O 993.914 2.82845 2.16511 0
M  V30 10733 O 992.773 4.18221 3.51786 0
M  V30 10734 H 989.867 0.609411 0.559059 0
M  V30 10735 H 992.413 1.62695 0.482549 0
M  V30 10736 H 991.185 3.64346 1.42715 0
M  V30 10737 H 990.808 2.7376 2.88342 0
M  V30 10738 N 991.805 -0.723954 1.39988 0
M  V30 10739 C 993.052 -1.48371 1.37812 0
M  V30 10740 C 993.38 -1.94487 -0.0223285 0
M  V30 10741 O 992.635 -1.67906 -1.00529 0
M  V30 10742 C 992.934 -2.73004 2.30659 0
M  V30 10743 C 992.6 -2.45698 3.78078 0
M  V30 10744 C 991.262 -2.37961 4.18244 0
M  V30 10745 C 993.614 -2.22601 4.71273 0
M  V30 10746 C 990.942 -2.05183 5.49652 0
M  V30 10747 C 993.294 -1.91339 6.0297 0
M  V30 10748 C 991.958 -1.82078 6.42187 0
M  V30 10749 H 991.228 -0.542929 0.504291 0
M  V30 10750 H 993.875 -0.829986 1.72579 0
M  V30 10751 H 992.18 -3.43174 1.89048 0
M  V30 10752 H 993.877 -3.31068 2.26263 0
M  V30 10753 H 990.467 -2.52603 3.46251 0
M  V30 10754 H 994.651 -2.2754 4.41066 0
M  V30 10755 H 989.907 -1.96544 5.78948 0
M  V30 10756 H 994.081 -1.72479 6.74703 0
M  V30 10757 H 991.708 -1.56446 7.43928 0
M  V30 10758 N 993.283 -1.25346 -0.955304 0
M  V30 10759 C 994.513 -1.12629 -1.732 0
M  V30 10760 C 994.921 0.322748 -1.86427 0
M  V30 10761 O 994.264 1.23381 -1.36099 0
M  V30 10762 C 994.326 -1.7064 -3.16421 0
M  V30 10763 C 993.99 -3.19632 -3.26626 0
M  V30 10764 C 994.987 -4.1663 -3.10991 0
M  V30 10765 C 992.672 -3.59829 -3.50468 0
M  V30 10766 C 994.666 -5.51806 -3.19043 0
M  V30 10767 C 992.353 -4.95143 -3.58157 0
M  V30 10768 C 993.351 -5.90941 -3.42459 0
M  V30 10769 O 993.039 -7.23792 -3.49828 0
M  V30 10770 H 992.771 -0.393646 -0.549562 0
M  V30 10771 H 995.325 -1.66184 -1.20715 0
M  V30 10772 H 993.555 -1.11532 -3.70267 0
M  V30 10773 H 995.244 -1.53032 -3.75947 0
M  V30 10774 H 996.01 -3.86915 -2.92441 0
M  V30 10775 H 991.889 -2.8576 -3.61749 0
M  V30 10776 H 995.433 -6.26559 -3.06707 0
M  V30 10777 H 991.33 -5.24525 -3.76224 0
M  V30 10778 H 992.098 -7.31879 -3.66463 0
M  V30 10779 N 994.761 1.15782 -1.06922 0
M  V30 10780 C 996.008 1.86465 -0.789752 0
M  V30 10781 C 996.336 1.82075 0.684022 0
M  V30 10782 O 995.591 1.23576 1.51748 0
M  V30 10783 C 995.89 3.35284 -1.2377 0
M  V30 10784 C 995.556 3.59871 -2.71668 0
M  V30 10785 C 994.218 3.6629 -3.12066 0
M  V30 10786 C 996.57 3.69929 -3.67154 0
M  V30 10787 C 993.898 3.80275 -4.46775 0
M  V30 10788 C 996.25 3.85436 -5.01619 0
M  V30 10789 C 994.914 3.901 -5.41644 0
M  V30 10790 H 994.184 0.682324 -0.288991 0
M  V30 10791 H 996.831 1.36861 -1.33945 0
M  V30 10792 H 995.136 3.87065 -0.607309 0
M  V30 10793 H 996.833 3.88371 -0.998431 0
M  V30 10794 H 993.423 3.55512 -2.39393 0
M  V30 10795 H 997.607 3.64274 -3.37073 0
M  V30 10796 H 992.863 3.8214 -4.77262 0
M  V30 10797 H 997.037 3.92161 -5.75485 0
M  V30 10798 H 994.664 4.00688 -6.46029 0
M  V30 10799 N 996.239 0.8527 1.3254 0
M  V30 10800 C 997.149 0.298744 2.3269 0
M  V30 10801 C 998.165 -0.582418 1.63963 0
M  V30 10802 O 999.341 -0.483253 1.95516 0
M  V30 10803 C 996.406 -0.505453 3.42996 0
M  V30 10804 C 995.467 0.401618 4.27417 0
M  V30 10805 C 994.7 -0.364294 5.32455 0
M  V30 10806 O 994.923 -1.59448 5.47661 0
M  V30 10807 O 993.857 0.268892 6.01299 0
M  V30 10808 H 997.683 1.12843 2.81958 0
M  V30 10809 H 995.268 0.615584 1.36128 0
M  V30 10810 H 997.15 -0.961974 4.10273 0
M  V30 10811 H 995.825 -1.31197 2.95921 0
M  V30 10812 H 994.732 0.906274 3.62957 0
M  V30 10813 H 996.065 1.17327 4.78012 0
M  V30 10814 N 997.718 -1.45297 0.610449 0
M  V30 10815 C 998.665 -2.30553 -0.106718 0
M  V30 10816 C 999.635 -1.42272 -0.85719 0
M  V30 10817 O 1000.82 -1.71199 -0.842357 0
M  V30 10818 C 997.96 -3.27226 -1.09623 0
M  V30 10819 C 997.073 -4.3061 -0.346329 0
M  V30 10820 C 996.208 -5.14389 -1.32581 0
M  V30 10821 C 995.247 -6.09497 -0.563892 0
M  V30 10822 N 994.384 -6.86047 -1.4928 0
M  V30 10823 H 999.224 -2.91344 0.626296 0
M  V30 10824 H 996.761 -1.43563 0.32065 0
M  V30 10825 H 998.719 -3.81744 -1.68308 0
M  V30 10826 H 997.349 -2.68182 -1.79662 0
M  V30 10827 H 996.401 -3.7873 0.356084 0
M  V30 10828 H 997.713 -4.98183 0.248026 0
M  V30 10829 H 996.867 -5.73321 -1.98464 0
M  V30 10830 H 995.606 -4.4684 -1.9541 0
M  V30 10831 H 994.611 -5.49693 0.108551 0
M  V30 10832 H 995.836 -6.79074 0.0593872 0
M  V30 10833 H 993.782 -6.21185 -2.10868 0
M  V30 10834 H 993.699 -7.49983 -0.951953 0
M  V30 10835 H 994.967 -7.49518 -2.14112 0
M  V30 10836 N 999.196 -0.349774 -1.5367 0
M  V30 10837 C 1000.42 0.248692 -2.05904 0
M  V30 10838 C 1000.85 1.42942 -1.22267 0
M  V30 10839 O 1000.2 1.79732 -0.237899 0
M  V30 10840 C 1000.25 0.635639 -3.54953 0
M  V30 10841 O 999.356 1.7349 -3.74132 0
M  V30 10842 H 998.697 0.0399477 -0.662797 0
M  V30 10843 H 1001.23 -0.505795 -1.9825 0
M  V30 10844 H 1001.24 0.911064 -3.97698 0
M  V30 10845 H 999.912 -0.227805 -4.15276 0
M  V30 10846 H 998.489 1.45626 -3.43289 0
M  V30 10847 N 1000.67 1.57404 -0.0785433 0
M  V30 10848 C 1001.64 2.11977 0.871693 0
M  V30 10849 C 1002.64 1.04529 1.2219 0
M  V30 10850 O 1003.83 1.30488 1.15406 0
M  V30 10851 C 1000.96 2.6267 2.17296 0
M  V30 10852 H 1002.15 2.97246 0.398115 0
M  V30 10853 H 999.705 1.5537 0.170251 0
M  V30 10854 H 1000.44 1.80873 2.69175 0
M  V30 10855 H 1000.22 3.41214 1.93171 0
M  V30 10856 H 1001.71 3.04943 2.85306 0
M  V30 10857 N 1002.15 -0.195058 1.56388 0
M  V30 10858 C 1003.1 -1.26122 1.95438 0
M  V30 10859 C 1004.09 -1.47117 0.839818 0
M  V30 10860 O 1005.3 -1.47978 1.02482 0
M  V30 10861 H 1001.67 -0.423422 0.621464 0
M  V30 10862 H 1003.65 -0.904854 2.8435 0
M  V30 10863 C 1002.39 -2.59858 2.31017 0
M  V30 10864 H 1001.72 -2.44519 3.16308 0
M  V30 10865 H 1003.16 -3.33205 2.62203 0
M  V30 10866 C 1001.62 -3.16853 1.14481 0
M  V30 10867 O 1002.15 -3.995 0.419853 0
M  V30 10868 N 1000.35 -2.75599 0.921604 0
M  V30 10869 H 999.9 -2.08495 1.51287 0
M  V30 10870 H 999.858 -3.14072 0.143663 0
M  V30 10871 N 1003.63 -1.50653 -0.462772 0
M  V30 10872 C 1004.86 -1.65586 -1.23551 0
M  V30 10873 C 1005.27 -0.342012 -1.86083 0
M  V30 10874 O 1004.61 0.686893 -1.70374 0
M  V30 10875 C 1004.67 -2.69555 -2.37867 0
M  V30 10876 C 1004.34 -4.1288 -1.95906 0
M  V30 10877 C 1005.33 -4.98483 -1.47685 0
M  V30 10878 C 1003.02 -4.58843 -2.04373 0
M  V30 10879 C 1005.01 -6.281 -1.08484 0
M  V30 10880 C 1002.7 -5.88464 -1.64783 0
M  V30 10881 C 1003.7 -6.72918 -1.16918 0
M  V30 10882 O 1003.39 -8.00119 -0.778798 0
M  V30 10883 H 1003.12 -0.559438 -0.37948 0
M  V30 10884 H 1005.67 -1.9768 -0.557816 0
M  V30 10885 H 1003.9 -2.3272 -3.08834 0
M  V30 10886 H 1005.59 -2.73624 -2.99808 0
M  V30 10887 H 1006.36 -4.64186 -1.40558 0
M  V30 10888 H 1002.24 -3.93247 -2.40577 0
M  V30 10889 H 1005.78 -6.93972 -0.710524 0
M  V30 10890 H 1001.68 -6.22281 -1.71571 0
M  V30 10891 H 1002.44 -8.1346 -0.906911 0
M  V30 10892 N 1005.11 0.71652 -1.4037 0
M  V30 10893 C 1006.36 1.47638 -1.38597 0
M  V30 10894 C 1006.68 1.94496 0.0120141 0
M  V30 10895 O 1005.94 1.68437 0.996373 0
M  V30 10896 C 1006.24 2.71777 -2.32103 0
M  V30 10897 C 1005.9 2.43689 -3.79376 0
M  V30 10898 C 1004.57 2.35739 -4.195 0
M  V30 10899 C 1006.92 2.20099 -4.72447 0
M  V30 10900 C 1004.25 2.02265 -5.50732 0
M  V30 10901 C 1006.6 1.88138 -6.03976 0
M  V30 10902 C 1005.26 1.78669 -6.43143 0
M  V30 10903 H 1004.53 0.540246 -0.507163 0
M  V30 10904 H 1007.18 0.820822 -1.73017 0
M  V30 10905 H 1005.48 3.42166 -1.90865 0
M  V30 10906 H 1007.18 3.29864 -2.28015 0
M  V30 10907 H 1003.77 2.50763 -3.47585 0
M  V30 10908 H 1007.95 2.25198 -4.42266 0
M  V30 10909 H 1003.21 1.93471 -5.79982 0
M  V30 10910 H 1007.38 1.68898 -6.75608 0
M  V30 10911 H 1005.01 1.52498 -7.44747 0
M  V30 10912 N 1006.59 1.25851 0.948643 0
M  V30 10913 C 1007.86 1.01717 1.67072 0
M  V30 10914 C 1008.24 -0.454749 2.06144 0
M  V30 10915 O 1007.59 -1.43345 1.77945 0
M  V30 10916 C 1007.8 1.95872 2.88852 0
M  V30 10917 C 1009.15 2.24057 3.60671 0
M  V30 10918 O 1010.17 1.93678 2.98944 0
M  V30 10919 O 1009.03 2.75745 4.71833 0
M  V30 10920 H 1006.13 0.386198 0.731287 0
M  V30 10921 H 1008.67 1.37031 1.00104 0
M  V30 10922 H 1007.44 2.95233 2.56814 0
M  V30 10923 H 1007.07 1.60992 3.63548 0
M  V30 10924 N 1008.06 -1.15214 1.07534 0
M  V30 10925 C 1009.29 -1.90463 0.820883 0
M  V30 10926 C 1009.71 -1.77578 -0.620305 0
M  V30 10927 O 1009.07 -1.10976 -1.43366 0
M  V30 10928 C 1009.12 -3.38746 1.23627 0
M  V30 10929 O 1008.22 -4.1062 0.382715 0
M  V30 10930 H 1007.57 -0.59292 0.298901 0
M  V30 10931 H 1010.1 -1.45893 1.43445 0
M  V30 10932 H 1010.11 -3.89543 1.21327 0
M  V30 10933 H 1008.78 -3.47443 2.28596 0
M  V30 10934 H 1007.36 -3.69947 0.468374 0
M  V30 10935 N 1009.54 -0.859717 -1.32086 0
M  V30 10936 C 1010.45 -0.31108 -2.32528 0
M  V30 10937 C 1011.47 0.573714 -1.6427 0
M  V30 10938 O 1012.64 0.472878 -1.9577 0
M  V30 10939 C 1009.71 0.487256 -3.43259 0
M  V30 10940 C 1008.77 -0.424279 -4.27198 0
M  V30 10941 C 1008 0.336051 -5.32641 0
M  V30 10942 O 1008.23 1.56541 -5.48499 0
M  V30 10943 O 1007.16 -0.300777 -6.01148 0
M  V30 10944 H 1010.99 -1.14336 -2.81355 0
M  V30 10945 H 1008.57 -0.622794 -1.358 0
M  V30 10946 H 1010.45 0.940203 -4.10777 0
M  V30 10947 H 1009.13 1.29626 -2.96612 0
M  V30 10948 H 1008.04 -0.925509 -3.62471 0
M  V30 10949 H 1009.37 -1.1986 -4.77383 0
M  V30 10950 N 1011.02 1.44971 -0.618145 0
M  V30 10951 C 1012.27 2.02458 -0.117656 0
M  V30 10952 C 1012.6 1.48413 1.25248 0
M  V30 10953 O 1011.87 0.662997 1.82851 0
M  V30 10954 C 1012.16 3.59987 -0.0901897 0
M  V30 10955 C 1012.01 4.24343 -1.49175 0
M  V30 10956 C 1013.33 4.36099 0.592121 0
M  V30 10957 H 1010.45 0.735672 -0.0442291 0
M  V30 10958 H 1013.09 1.727 -0.792138 0
M  V30 10959 H 1011.24 3.85471 0.484175 0
M  V30 10960 H 1012.91 4.10009 -2.114 0
M  V30 10961 H 1011.16 3.82337 -2.04941 0
M  V30 10962 H 1011.83 5.33298 -1.42468 0
M  V30 10963 H 1014.3 4.1597 0.103813 0
M  V30 10964 H 1013.18 5.45822 0.580481 0
M  V30 10965 H 1013.44 4.09746 1.66015 0
M  V30 10966 N 1012.5 0.357919 1.53482 0
M  V30 10967 C 1013.46 -0.479797 2.24122 0
M  V30 10968 C 1014.46 -1.01596 1.24639 0
M  V30 10969 O 1015.65 -0.902928 1.48973 0
M  V30 10970 C 1012.78 -1.66983 2.97203 0
M  V30 10971 H 1013.98 0.138219 2.99581 0
M  V30 10972 H 1011.53 0.109484 1.55916 0
M  V30 10973 H 1012.26 -2.32615 2.25966 0
M  V30 10974 H 1012.05 -1.29242 3.70188 0
M  V30 10975 H 1013.54 -2.26367 3.50924 0
M  V30 10976 N 1013.98 -1.5736 0.0868897 0
M  V30 10977 C 1015.39 -1.81356 -0.443499 0
M  V30 10978 C 1015.74 -1.00192 -1.68689 0
M  V30 10979 O 1014.86 -0.228863 -2.15186 0
M  V30 10980 C 1015.46 -3.28941 -0.811387 0
M  V30 10981 C 1014.02 -3.53729 -1.28656 0
M  V30 10982 C 1013.16 -2.75891 -0.279153 0
M  V30 10983 H 1016.12 -1.55594 0.312427 0
M  V30 10984 H 1016.14 -3.41815 -1.6716 0
M  V30 10985 H 1015.65 -3.87987 0.0937598 0
M  V30 10986 H 1013.75 -3.00005 -2.2097 0
M  V30 10987 H 1013.86 -4.62396 -1.25406 0
M  V30 10988 H 1012.23 -2.4311 -0.759595 0
M  V30 10989 H 1013.01 -3.37682 0.618529 0
M  V30 10990 N 1015.45 0.186762 -1.56489 0
M  V30 10991 C 1016.87 0.537933 -1.50261 0
M  V30 10992 C 1017.07 1.85435 -0.788414 0
M  V30 10993 O 1016.13 2.50168 -0.342377 0
M  V30 10994 C 1017.44 0.584965 -2.94955 0
M  V30 10995 C 1018.99 0.673228 -3.05674 0
M  V30 10996 C 1019.46 0.751294 -4.51796 0
M  V30 10997 N 1020.95 0.814599 -4.55981 0
M  V30 10998 C 1021.69 0.895313 -5.66367 0
M  V30 10999 N 1021.18 0.937814 -6.86423 0
M  V30 11000 N 1022.98 0.933145 -5.543 0
M  V30 11001 H 1015.13 -0.676636 -2.01334 0
M  V30 11002 H 1017.39 -0.242079 -0.916571 0
M  V30 11003 H 1017.1 -0.313361 -3.50301 0
M  V30 11004 H 1016.97 1.4368 -3.48763 0
M  V30 11005 H 1019.36 1.56198 -2.50372 0
M  V30 11006 H 1019.44 -0.204976 -2.54977 0
M  V30 11007 H 1019.08 -0.133143 -5.07725 0
M  V30 11008 H 1019.01 1.64542 -5.00233 0
M  V30 11009 H 1021.5 0.790662 -3.69536 0
M  V30 11010 H 1021.82 1.00015 -7.66301 0
M  V30 11011 H 1020.16 0.906351 -6.89065 0
M  V30 11012 H 1023.35 0.896836 -4.59428 0
M  V30 11013 H 1023.53 0.992588 -6.40353 0
M  V30 11014 N 1016.93 1.50896 0.454776 0
M  V30 11015 C 1018.35 1.38684 0.78987 0
M  V30 11016 C 1018.55 0.455587 1.96282 0
M  V30 11017 O 1017.6 -0.0957503 2.52318 0
M  V30 11018 C 1018.92 2.80381 1.08661 0
M  V30 11019 C 1020.47 2.8941 1.19209 0
M  V30 11020 C 1020.94 4.31976 1.52187 0
M  V30 11021 N 1022.43 4.35002 1.59146 0
M  V30 11022 C 1023.17 5.42326 1.862 0
M  V30 11023 N 1022.66 6.59835 2.11164 0
M  V30 11024 N 1024.46 5.29786 1.87838 0
M  V30 11025 H 1016.61 2.10006 -0.317981 0
M  V30 11026 H 1018.87 0.944636 -0.0797969 0
M  V30 11027 H 1018.58 3.50438 0.297626 0
M  V30 11028 H 1018.45 3.18634 2.01872 0
M  V30 11029 H 1020.84 2.19561 1.97173 0
M  V30 11030 H 1020.92 2.54677 0.239401 0
M  V30 11031 H 1020.56 5.02368 0.747576 0
M  V30 11032 H 1020.49 4.64208 2.48633 0
M  V30 11033 H 1022.98 3.50276 1.41828 0
M  V30 11034 H 1023.3 7.37428 2.31128 0
M  V30 11035 H 1021.64 6.62981 2.08522 0
M  V30 11036 H 1024.83 4.36974 1.67843 0
M  V30 11037 H 1025 6.13511 2.08585 0
M  V30 11038 N 1018.41 -0.709066 1.40748 0
M  V30 11039 C 1019.37 -1.80485 1.41272 0
M  V30 11040 C 1020.37 -1.57872 0.305463 0
M  V30 11041 O 1021.56 -1.64793 0.564691 0
M  V30 11042 C 1018.7 -3.1867 1.21087 0
M  V30 11043 H 1019.89 -1.81417 2.38805 0
M  V30 11044 H 1017.44 -0.915356 1.26692 0
M  V30 11045 H 1018.18 -3.23385 0.243406 0
M  V30 11046 H 1017.96 -3.36484 2.01299 0
M  V30 11047 H 1019.45 -3.98685 1.24257 0
M  V30 11048 N 1019.89 -1.26353 -0.941956 0
M  V30 11049 C 1020.85 -1.07904 -2.02211 0
M  V30 11050 C 1021.85 -0.0276283 -1.60776 0
M  V30 11051 O 1023.04 -0.270965 -1.7208 0
M  V30 11052 C 1020.17 -0.641084 -3.34818 0
M  V30 11053 H 1021.37 -2.03804 -2.20009 0
M  V30 11054 H 1018.92 -1.08939 -1.12081 0
M  V30 11055 H 1019.66 0.319943 -3.22718 0
M  V30 11056 H 1019.44 -1.40027 -3.66244 0
M  V30 11057 H 1020.93 -0.533826 -4.14174 0
M  V30 11058 N 1021.37 1.14642 -1.08144 0
M  V30 11059 C 1022.33 2.17834 -0.712799 0
M  V30 11060 C 1023.33 1.58828 0.251041 0
M  V30 11061 O 1024.52 1.74173 0.0309381 0
M  V30 11062 C 1021.65 3.4086 -0.0519477 0
M  V30 11063 H 1022.85 2.51961 -1.62653 0
M  V30 11064 H 1020.4 1.29243 -0.878971 0
M  V30 11065 H 1021.13 3.12311 0.873636 0
M  V30 11066 H 1020.92 3.84952 -0.745286 0
M  V30 11067 H 1022.41 4.17163 0.191031 0
M  V30 11068 N 1022.85 0.866709 1.31628 0
M  V30 11069 C 1023.78 0.335762 2.31073 0
M  V30 11070 C 1024.76 -0.571597 1.60209 0
M  V30 11071 O 1025.94 -0.489306 1.87935 0
M  V30 11072 C 1023.07 -0.466416 3.44154 0
M  V30 11073 C 1022.03 0.347561 4.26586 0
M  V30 11074 C 1021.35 -0.5801 5.31544 0
M  V30 11075 C 1022.65 1.57986 4.97833 0
M  V30 11076 H 1024.35 1.16673 2.75731 0
M  V30 11077 H 1021.89 0.56248 1.3256 0
M  V30 11078 H 1023.84 -0.84836 4.12772 0
M  V30 11079 H 1022.57 -1.33086 2.98254 0
M  V30 11080 H 1021.23 0.71141 3.59631 0
M  V30 11081 H 1020.88 -1.44174 4.81895 0
M  V30 11082 H 1020.58 -0.0393965 5.87587 0
M  V30 11083 H 1022.1 -0.958958 6.03023 0
M  V30 11084 H 1023.51 1.26954 5.59067 0
M  V30 11085 H 1021.91 2.05939 5.63657 0
M  V30 11086 H 1022.98 2.3345 4.25005 0
M  V30 11087 N 1024.32 -1.44642 0.625825 0
M  V30 11088 C 1025.25 -2.33397 -0.0692188 0
M  V30 11089 C 1026.23 -1.47898 -0.840241 0
M  V30 11090 O 1027.42 -1.7663 -0.807176 0
M  V30 11091 C 1024.55 -3.30888 -1.055 0
M  V30 11092 C 1023.5 -4.26164 -0.395968 0
M  V30 11093 C 1022.83 -5.13483 -1.49128 0
M  V30 11094 C 1024.13 -5.17663 0.694433 0
M  V30 11095 H 1025.82 -2.91763 0.671925 0
M  V30 11096 H 1023.37 -1.40294 0.324573 0
M  V30 11097 H 1025.32 -3.91861 -1.54993 0
M  V30 11098 H 1024.05 -2.7072 -1.82696 0
M  V30 11099 H 1022.71 -3.66516 0.0782691 0
M  V30 11100 H 1022.35 -4.49672 -2.25399 0
M  V30 11101 H 1022.05 -5.78038 -1.05573 0
M  V30 11102 H 1023.58 -5.77327 -1.98813 0
M  V30 11103 H 1024.99 -5.72602 0.282818 0
M  V30 11104 H 1023.39 -5.90793 1.05281 0
M  V30 11105 H 1024.46 -4.58994 1.56372 0
M  V30 11106 N 1025.8 -0.366053 -1.5329 0
M  V30 11107 C 1027.21 0.113056 -1.86357 0
M  V30 11108 C 1027.56 1.48123 -1.28662 0
M  V30 11109 O 1026.69 2.07658 -0.608849 0
M  V30 11110 C 1027.28 0.211923 -3.38137 0
M  V30 11111 C 1025.84 0.635289 -3.71 0
M  V30 11112 C 1024.99 -0.217203 -2.76448 0
M  V30 11113 H 1027.94 -0.584829 -1.47531 0
M  V30 11114 H 1027.96 1.0354 -3.66142 0
M  V30 11115 H 1027.47 -0.783994 -3.80099 0
M  V30 11116 H 1025.57 1.63942 -3.34595 0
M  V30 11117 H 1025.69 0.409571 -4.77346 0
M  V30 11118 H 1024.05 0.313988 -2.52757 0
M  V30 11119 H 1024.83 -1.21067 -3.21244 0
M  V30 11120 N 1027.28 1.57312 -0.0952337 0
M  V30 11121 C 1028.23 2.14032 0.863657 0
M  V30 11122 C 1029.2 1.0589 1.27971 0
M  V30 11123 O 1030.38 1.33678 1.36143 0
M  V30 11124 C 1027.52 2.72513 2.11733 0
M  V30 11125 C 1026.63 3.94887 1.7518 0
M  V30 11126 C 1025.77 4.41533 2.95334 0
M  V30 11127 C 1024.81 5.56496 2.54908 0
M  V30 11128 N 1023.95 5.97993 3.67897 0
M  V30 11129 H 1028.79 2.95655 0.373115 0
M  V30 11130 H 1026.32 1.46085 0.172497 0
M  V30 11131 H 1028.28 3.04539 2.85153 0
M  V30 11132 H 1026.91 1.93618 2.58287 0
M  V30 11133 H 1025.96 3.69175 0.917279 0
M  V30 11134 H 1027.27 4.78322 1.41455 0
M  V30 11135 H 1026.43 4.75343 3.77007 0
M  V30 11136 H 1025.17 3.56999 3.3227 0
M  V30 11137 H 1024.17 5.22314 1.71662 0
M  V30 11138 H 1025.4 6.42779 2.19117 0
M  V30 11139 H 1023.34 5.16405 4.04551 0
M  V30 11140 H 1023.26 6.76225 3.38018 0
M  V30 11141 H 1024.53 6.36434 4.5008 0
M  V30 11142 N 1028.76 -0.17846 1.56586 0
M  V30 11143 C 1029.72 -1.20479 1.94981 0
M  V30 11144 C 1030.72 -1.37561 0.832677 0
M  V30 11145 O 1031.91 -1.35089 1.09984 0
M  V30 11146 C 1029.04 -2.57117 2.23839 0
M  V30 11147 H 1030.24 -0.876173 2.86816 0
M  V30 11148 H 1027.79 -0.420635 1.50534 0
M  V30 11149 H 1028.52 -2.95005 1.34695 0
M  V30 11150 H 1028.31 -2.46086 3.05261 0
M  V30 11151 H 1029.8 -3.31096 2.5449 0
M  V30 11152 N 1030.24 -1.51135 -0.446768 0
M  V30 11153 C 1031.18 -1.71767 -1.54158 0
M  V30 11154 C 1032.15 -0.559201 -1.56404 0
M  V30 11155 O 1033.34 -0.792567 -1.7356 0
M  V30 11156 C 1030.48 -1.84006 -2.91952 0
M  V30 11157 C 1029.59 -3.11511 -2.99308 0
M  V30 11158 C 1028.73 -3.144 -4.28166 0
M  V30 11159 C 1027.76 -4.36258 -4.29355 0
M  V30 11160 N 1026.9 -4.3675 -5.49722 0
M  V30 11161 H 1031.74 -2.65224 -1.35869 0
M  V30 11162 H 1029.28 -1.31453 -0.660186 0
M  V30 11163 H 1031.24 -1.89083 -3.71892 0
M  V30 11164 H 1029.87 -0.939661 -3.08821 0
M  V30 11165 H 1028.92 -3.15788 -2.12089 0
M  V30 11166 H 1030.23 -4.01445 -2.96047 0
M  V30 11167 H 1029.38 -3.18341 -5.16473 0
M  V30 11168 H 1028.12 -2.22338 -4.3407 0
M  V30 11169 H 1027.13 -4.32503 -3.39442 0
M  V30 11170 H 1028.35 -5.29574 -4.25122 0
M  V30 11171 H 1026.3 -3.47554 -5.56365 0
M  V30 11172 H 1026.22 -5.20481 -5.48302 0
M  V30 11173 H 1027.48 -4.4487 -6.40086 0
M  V30 11174 N 1031.71 0.701592 -1.41122 0
M  V30 11175 C 1032.96 1.46376 -1.40363 0
M  V30 11176 C 1033.29 1.94197 -0.0105442 0
M  V30 11177 O 1032.57 1.69121 0.960637 0
M  V30 11178 C 1032.85 2.67994 -2.40523 0
M  V30 11179 C 1032.7 2.25977 -3.88914 0
M  V30 11180 C 1034.02 3.70181 -2.38022 0
M  V30 11181 H 1031.14 0.530929 -0.511159 0
M  V30 11182 H 1033.78 0.799588 -1.72356 0
M  V30 11183 H 1031.93 3.24661 -2.13372 0
M  V30 11184 H 1033.61 1.74684 -4.26946 0
M  V30 11185 H 1031.85 1.57826 -4.04071 0
M  V30 11186 H 1032.52 3.13215 -4.54533 0
M  V30 11187 H 1035 3.23174 -2.62103 0
M  V30 11188 H 1033.87 4.52894 -3.10127 0
M  V30 11189 H 1034.13 4.19458 -1.3967 0
M  V30 11190 N 1033.19 1.2685 0.935242 0
M  V30 11191 C 1034.12 1.1143 2.05196 0
M  V30 11192 C 1035.1 0.0178362 1.70091 0
M  V30 11193 O 1036.29 0.190951 1.93259 0
M  V30 11194 C 1033.42 0.752779 3.39044 0
M  V30 11195 C 1032.37 1.80164 3.88233 0
M  V30 11196 C 1031.7 1.29428 5.18799 0
M  V30 11197 C 1033 3.20431 4.12457 0
M  V30 11198 H 1034.69 2.04845 2.18355 0
M  V30 11199 H 1032.24 0.986276 1.04922 0
M  V30 11200 H 1034.19 0.631757 4.16637 0
M  V30 11201 H 1032.91 -0.217075 3.25878 0
M  V30 11202 H 1031.57 1.91144 3.12825 0
M  V30 11203 H 1031.22 0.3141 5.02018 0
M  V30 11204 H 1030.92 1.99546 5.5268 0
M  V30 11205 H 1032.45 1.18605 5.9897 0
M  V30 11206 H 1033.86 3.12495 4.80645 0
M  V30 11207 H 1032.26 3.88193 4.57631 0
M  V30 11208 H 1033.33 3.66046 3.18023 0
M  V30 11209 N 1034.67 -1.14067 1.0875 0
M  V30 11210 C 1035.9 -1.89041 0.840902 0
M  V30 11211 C 1036.31 -1.78768 -0.60725 0
M  V30 11212 O 1035.67 -1.14945 -1.41753 0
M  V30 11213 C 1035.72 -3.38891 1.25838 0
M  V30 11214 O 1035.44 -3.48886 2.64972 0
M  V30 11215 C 1036.94 -4.30852 1.04315 0
M  V30 11216 H 1034.16 -0.598685 0.303014 0
M  V30 11217 H 1036.71 -1.44438 1.44769 0
M  V30 11218 H 1034.86 -3.81103 0.695627 0
M  V30 11219 H 1035.28 -4.41989 2.82393 0
M  V30 11220 H 1036.75 -5.34353 1.38461 0
M  V30 11221 H 1037.23 -4.39196 -0.0195784 0
M  V30 11222 H 1037.83 -3.944 1.59151 0
M  V30 11223 N 1036.15 -0.873678 -1.31166 0
M  V30 11224 C 1037.4 -0.482577 -1.95842 0
M  V30 11225 C 1037.71 0.970881 -1.69804 0
M  V30 11226 O 1038.92 1.4683 -2.28371 0
M  V30 11227 C 1037.37 -0.812074 -3.50619 0
M  V30 11228 C 1036.98 -2.28254 -3.85492 0
M  V30 11229 C 1038.72 -0.489624 -4.21667 0
M  V30 11230 C 1036.63 -2.55426 -5.33396 0
M  V30 11231 H 1035.56 -0.176736 -0.732994 0
M  V30 11232 H 1038.21 -1.06709 -1.49283 0
M  V30 11233 H 1036.59 -0.156769 -3.9569 0
M  V30 11234 H 1037.77 -2.98122 -3.51369 0
M  V30 11235 H 1036.08 -2.5714 -3.27518 0
M  V30 11236 H 1038.68 -0.669811 -5.30488 0
M  V30 11237 H 1039.02 0.570204 -4.12376 0
M  V30 11238 H 1039.56 -1.10163 -3.82242 0
M  V30 11239 H 1036.3 -3.60106 -5.47726 0
M  V30 11240 H 1035.82 -1.90156 -5.68859 0
M  V30 11241 H 1037.49 -2.40345 -6.00702 0
M  V30 11242 N 1037.63 1.44308 -0.633487 0
M  V30 11243 C 1038.56 2.33431 0.0568402 0
M  V30 11244 C 1039.54 1.48342 0.832386 0
M  V30 11245 O 1040.72 1.77056 0.797798 0
M  V30 11246 C 1037.85 3.31443 1.03743 0
M  V30 11247 C 1036.81 4.26368 0.373362 0
M  V30 11248 C 1036.13 5.14267 1.46403 0
M  V30 11249 C 1037.43 5.17287 -0.721876 0
M  V30 11250 H 1039.13 2.91402 -0.687388 0
M  V30 11251 H 1036.67 1.4012 -0.332009 0
M  V30 11252 H 1038.63 3.92677 1.52913 0
M  V30 11253 H 1037.35 2.71686 1.81258 0
M  V30 11254 H 1036.01 3.6647 -0.0977053 0
M  V30 11255 H 1035.66 4.50861 2.23011 0
M  V30 11256 H 1035.36 5.7859 1.02506 0
M  V30 11257 H 1036.88 5.78373 1.95748 0
M  V30 11258 H 1038.29 5.72444 -0.313181 0
M  V30 11259 H 1036.69 5.90226 -1.08413 0
M  V30 11260 H 1037.76 4.58159 -1.58804 0
M  V30 11261 N 1039.1 0.374177 1.53094 0
M  V30 11262 C 1040.35 -0.213981 2.00562 0
M  V30 11263 C 1040.67 -1.4916 1.26533 0
M  V30 11264 O 1041.87 -2.15889 1.64634 0
M  V30 11265 C 1040.33 -0.431876 3.57299 0
M  V30 11266 C 1039.94 0.831615 4.40214 0
M  V30 11267 C 1041.68 -0.977222 4.13099 0
M  V30 11268 C 1039.59 0.582831 5.88521 0
M  V30 11269 H 1038.52 -0.0837386 0.749336 0
M  V30 11270 H 1041.17 0.494245 1.76719 0
M  V30 11271 H 1039.55 -1.20158 3.7733 0
M  V30 11272 H 1040.72 1.60477 4.31953 0
M  V30 11273 H 1039.04 1.30081 3.9556 0
M  V30 11274 H 1041.64 -1.17881 5.21544 0
M  V30 11275 H 1041.98 -1.94189 3.68234 0
M  V30 11276 H 1042.51 -0.267473 3.969 0
M  V30 11277 H 1039.25 1.51807 6.37679 0
M  V30 11278 H 1038.77 -0.151666 5.99608 0
M  V30 11279 H 1040.45 0.211604 6.46654 0
M  V30 11280 N 1040.58 -1.57259 0.103575 0
M  V30 11281 C 1041.53 -2.15727 -0.869739 0
M  V30 11282 C 1042.52 -1.10236 -1.28625 0
M  V30 11283 O 1043.73 -1.28567 -1.25979 0
M  V30 11284 H 1040.11 -0.690204 -0.298535 0
M  V30 11285 H 1042.08 -2.96317 -0.351984 0
M  V30 11286 C 1040.83 -2.75905 -2.11593 0
M  V30 11287 H 1040.15 -3.56768 -1.80434 0
M  V30 11288 H 1041.59 -3.20373 -2.77736 0
M  V30 11289 C 1040.05 -1.72218 -2.89556 0
M  V30 11290 O 1040.58 -1.16623 -3.84398 0
M  V30 11291 N 1038.78 -1.42514 -2.53255 0
M  V30 11292 H 1038.33 -1.87914 -1.76198 0
M  V30 11293 H 1038.29 -0.733782 -3.05717 0
M  V30 11294 N 1042.06 0.170153 -1.56679 0
M  V30 11295 C 1043.47 0.732502 -1.7173 0
M  V30 11296 C 1043.82 1.82736 -0.71428 0
M  V30 11297 O 1042.95 2.16044 0.124102 0
M  V30 11298 C 1043.54 1.33548 -3.11368 0
M  V30 11299 C 1042.1 1.84464 -3.281 0
M  V30 11300 C 1041.25 0.724069 -2.6768 0
M  V30 11301 H 1044.2 -0.0552543 -1.58604 0
M  V30 11302 H 1044.22 2.20519 -3.10083 0
M  V30 11303 H 1043.73 0.5384 -3.84347 0
M  V30 11304 H 1041.83 2.66813 -2.6008 0
M  V30 11305 H 1041.95 1.98928 -4.35849 0
M  V30 11306 H 1040.31 1.14481 -2.27522 0
M  V30 11307 H 1041.09 -0.0611861 -3.43245 0
M  V30 11308 N 1043.54 1.5137 0.438746 0
M  V30 11309 C 1044.5 1.71993 1.51496 0
M  V30 11310 C 1045.5 0.589978 1.49586 0
M  V30 11311 O 1046.69 0.857505 1.51633 0
M  V30 11312 C 1043.82 1.77508 2.91039 0
M  V30 11313 H 1045.02 2.68041 1.34514 0
M  V30 11314 H 1042.57 1.41338 0.667326 0
M  V30 11315 H 1043.3 0.832698 3.13427 0
M  V30 11316 H 1043.09 2.59627 2.9383 0
M  V30 11317 H 1044.58 1.95308 3.69113 0
M  V30 11318 N 1045.02 -0.694098 1.41492 0
M  V30 11319 C 1046.29 -1.44875 1.31418 0
M  V30 11320 C 1046.67 -2.11022 -0.0575538 0
M  V30 11321 O 1046.02 -2.01799 -1.07188 0
M  V30 11322 C 1046.23 -2.46698 2.46863 0
M  V30 11323 C 1047.58 -3.11907 2.88095 0
M  V30 11324 O 1048.6 -2.57022 2.46613 0
M  V30 11325 O 1047.46 -4.11318 3.59833 0
M  V30 11326 H 1044.56 -0.645266 0.517263 0
M  V30 11327 H 1047.1 -0.724452 1.53459 0
M  V30 11328 H 1045.87 -1.96485 3.38392 0
M  V30 11329 H 1045.5 -3.26634 2.26706 0
M  V30 11330 N 1046.49 -1.27344 -0.928501 0
M  V30 11331 C 1047.91 -1.04732 -1.2043 0
M  V30 11332 C 1048.11 0.219623 -2.003 0
M  V30 11333 O 1047.17 0.925333 -2.34934 0
M  V30 11334 C 1048.48 -2.28625 -1.95323 0
M  V30 11335 C 1050.03 -2.33655 -2.08265 0
M  V30 11336 C 1050.5 -3.57275 -2.86563 0
M  V30 11337 N 1051.99 -3.57828 -2.94132 0
M  V30 11338 C 1052.73 -4.50152 -3.55177 0
M  V30 11339 N 1052.22 -5.52779 -4.17621 0
M  V30 11340 N 1054.02 -4.37777 -3.52573 0
M  V30 11341 H 1046.17 -2.08697 -0.394892 0
M  V30 11342 H 1048.43 -0.91782 -0.2373 0
M  V30 11343 H 1048.14 -3.20845 -1.44054 0
M  V30 11344 H 1048.01 -2.33878 -2.95941 0
M  V30 11345 H 1050.4 -1.41942 -2.58721 0
M  V30 11346 H 1050.48 -2.32406 -1.0687 0
M  V30 11347 H 1050.12 -4.49325 -2.3679 0
M  V30 11348 H 1050.05 -3.55775 -3.88242 0
M  V30 11349 H 1052.54 -2.83607 -2.49751 0
M  V30 11350 H 1052.86 -6.19394 -4.62137 0
M  V30 11351 H 1051.2 -5.56622 -4.16169 0
M  V30 11352 H 1054.39 -3.56811 -3.02991 0
M  V30 11353 H 1054.57 -5.09919 -3.99858 0
M  V30 11354 N 1047.97 1.13488 -1.09353 0
M  V30 11355 C 1048.94 2.17066 -0.735863 0
M  V30 11356 C 1049.94 1.59086 0.234181 0
M  V30 11357 O 1051.13 1.74196 0.012463 0
M  V30 11358 C 1048.26 3.40786 -0.0880975 0
M  V30 11359 H 1049.45 2.50221 -1.65316 0
M  V30 11360 H 1047 1.28304 -0.89263 0
M  V30 11361 H 1047.74 3.1322 0.840462 0
M  V30 11362 H 1047.52 3.8414 -0.786073 0
M  V30 11363 H 1049.01 4.17342 0.146775 0
M  V30 11364 N 1049.45 0.880621 1.30701 0
M  V30 11365 C 1050.68 0.51094 2.00182 0
M  V30 11366 C 1051.09 -0.903914 1.66211 0
M  V30 11367 O 1050.43 -1.60529 0.893089 0
M  V30 11368 C 1050.49 0.600775 3.54445 0
M  V30 11369 C 1050.16 1.97915 4.1192 0
M  V30 11370 C 1051.16 2.94802 4.28238 0
M  V30 11371 C 1048.84 2.28336 4.47401 0
M  V30 11372 C 1050.83 4.20245 4.79242 0
M  V30 11373 C 1048.52 3.54026 4.98105 0
M  V30 11374 C 1049.52 4.49796 5.13978 0
M  V30 11375 O 1049.21 5.73256 5.63589 0
M  V30 11376 H 1048.94 0.196477 0.646818 0
M  V30 11377 H 1051.49 1.18659 1.67658 0
M  V30 11378 H 1049.72 -0.131832 3.86475 0
M  V30 11379 H 1051.41 0.242996 4.05172 0
M  V30 11380 H 1052.18 2.7261 4.01134 0
M  V30 11381 H 1048.06 1.54564 4.34317 0
M  V30 11382 H 1051.6 4.95003 4.91546 0
M  V30 11383 H 1047.5 3.76057 5.24644 0
M  V30 11384 H 1048.27 5.75577 5.81939 0
M  V30 11385 N 1050.93 -1.4397 0.641131 0
M  V30 11386 C 1052.15 -2.06818 0.155318 0
M  V30 11387 C 1052.58 -1.47665 -1.16519 0
M  V30 11388 O 1051.94 -0.58192 -1.71707 0
M  V30 11389 C 1051.99 -3.60542 0.0647537 0
M  V30 11390 O 1051.09 -4.00674 -0.976447 0
M  V30 11391 H 1050.43 -0.657962 0.0893404 0
M  V30 11392 H 1052.96 -1.84678 0.88064 0
M  V30 11393 H 1052.97 -4.07816 -0.122552 0
M  V30 11394 H 1051.65 -4.02975 1.02878 0
M  V30 11395 H 1050.22 -3.65013 -0.762905 0
M  V30 11396 N 1052.41 -0.382291 -1.52893 0
M  V30 11397 C 1053.65 0.194935 -2.02464 0
M  V30 11398 C 1054.01 1.45051 -1.26404 0
M  V30 11399 O 1053.3 1.88302 -0.353968 0
M  V30 11400 C 1053.5 0.523437 -3.53546 0
M  V30 11401 C 1053.32 -0.698754 -4.44238 0
M  V30 11402 C 1052.09 -1.2159 -4.90453 0
M  V30 11403 C 1054.29 -1.56899 -4.89783 0
M  V30 11404 N 1052.27 -2.39637 -5.65197 0
M  V30 11405 C 1053.65 -2.59595 -5.63037 0
M  V30 11406 C 1055.7 -1.58991 -4.71833 0
M  V30 11407 C 1054.4 -3.6426 -6.20248 0
M  V30 11408 C 1056.43 -2.62559 -5.29922 0
M  V30 11409 C 1055.79 -3.63977 -6.03076 0
M  V30 11410 H 1051.89 0.0336043 -0.781278 0
M  V30 11411 H 1054.47 -0.530603 -1.8733 0
M  V30 11412 H 1052.65 1.21804 -3.68807 0
M  V30 11413 H 1054.38 1.0872 -3.89823 0
M  V30 11414 H 1051.13 -0.777967 -4.67167 0
M  V30 11415 H 1051.56 -2.99348 -6.07223 0
M  V30 11416 H 1056.2 -0.819305 -4.14786 0
M  V30 11417 H 1053.92 -4.42192 -6.76382 0
M  V30 11418 H 1057.5 -2.65052 -5.17918 0
M  V30 11419 H 1056.38 -4.42802 -6.47222 0
M  V30 11420 N 1053.89 1.57202 -0.111913 0
M  V30 11421 C 1055.12 1.99008 0.554907 0
M  V30 11422 C 1055.52 0.990323 1.61212 0
M  V30 11423 O 1054.87 -0.0259612 1.83682 0
M  V30 11424 C 1054.93 3.37218 1.24598 0
M  V30 11425 C 1054.59 4.55752 0.337549 0
M  V30 11426 C 1055.59 5.18192 -0.421026 0
M  V30 11427 C 1053.27 5.01674 0.25069 0
M  V30 11428 C 1055.27 6.24938 -1.25426 0
M  V30 11429 C 1052.96 6.08282 -0.586186 0
M  V30 11430 C 1053.95 6.6978 -1.3373 0
M  V30 11431 O 1053.64 7.7433 -2.16029 0
M  V30 11432 H 1053.37 0.658669 0.152091 0
M  V30 11433 H 1055.93 2.04492 -0.192937 0
M  V30 11434 H 1054.16 3.28467 2.04074 0
M  V30 11435 H 1055.85 3.63359 1.809 0
M  V30 11436 H 1056.61 4.83634 -0.363752 0
M  V30 11437 H 1052.49 4.53558 0.825005 0
M  V30 11438 H 1056.04 6.72869 -1.84102 0
M  V30 11439 H 1051.93 6.42271 -0.64488 0
M  V30 11440 H 1052.7 7.91395 -2.08894 0
M  V30 11441 N 1055.36 -0.161842 1.56767 0
M  V30 11442 C 1056.3 -1.22499 1.93718 0
M  V30 11443 C 1057.31 -1.39975 0.831314 0
M  V30 11444 O 1058.5 -1.3981 1.10975 0
M  V30 11445 C 1055.6 -2.59222 2.18306 0
M  V30 11446 C 1054.77 -2.6292 3.4956 0
M  V30 11447 C 1053.83 -3.81074 3.62863 0
M  V30 11448 O 1052.86 -3.66633 4.35395 0
M  V30 11449 N 1054.06 -4.97923 2.98418 0
M  V30 11450 H 1056.82 -0.911043 2.85517 0
M  V30 11451 H 1054.38 -0.351533 1.58038 0
M  V30 11452 H 1056.38 -3.36749 2.24461 0
M  V30 11453 H 1054.95 -2.82969 1.32844 0
M  V30 11454 H 1054.17 -1.71418 3.54978 0
M  V30 11455 H 1055.45 -2.62409 4.35911 0
M  V30 11456 H 1054.85 -5.12557 2.39378 0
M  V30 11457 H 1053.41 -5.73277 3.10155 0
M  V30 11458 N 1056.84 -1.516 -0.430713 0
M  V30 11459 C 1057.79 -1.69776 -1.52185 0
M  V30 11460 C 1058.78 -0.551692 -1.51146 0
M  V30 11461 O 1059.97 -0.807883 -1.57487 0
M  V30 11462 C 1057.1 -1.83222 -2.90318 0
M  V30 11463 C 1056.18 -3.03633 -2.96087 0
M  V30 11464 N 1056.57 -4.267 -2.71589 0
M  V30 11465 C 1054.87 -3.03024 -3.2725 0
M  V30 11466 C 1055.57 -5.08011 -2.83372 0
M  V30 11467 N 1054.55 -4.42798 -3.15327 0
M  V30 11468 H 1058.35 -2.62586 -1.32006 0
M  V30 11469 H 1055.86 -1.49338 -0.63812 0
M  V30 11470 H 1057.86 -1.94355 -3.68825 0
M  V30 11471 H 1056.52 -0.915971 -3.11513 0
M  V30 11472 H 1057.53 -4.55535 -2.46391 0
M  V30 11473 H 1054.21 -2.21055 -3.54176 0
M  V30 11474 H 1055.6 -6.15995 -2.68329 0
M  V30 11475 N 1058.32 0.686584 -1.41858 0
M  V30 11476 C 1059.25 1.81202 -1.40352 0
M  V30 11477 C 1060.26 1.5993 -0.304322 0
M  V30 11478 O 1061.45 1.69267 -0.566643 0
M  V30 11479 C 1058.55 3.18116 -1.16856 0
M  V30 11480 C 1057.73 3.66339 -2.38987 0
M  V30 11481 C 1056.79 4.8195 -2.11212 0
M  V30 11482 O 1055.81 4.93102 -2.84323 0
M  V30 11483 N 1057.01 5.69829 -1.10793 0
M  V30 11484 H 1059.78 1.82983 -2.37355 0
M  V30 11485 H 1057.34 0.869244 -1.36586 0
M  V30 11486 H 1059.33 3.93097 -0.962125 0
M  V30 11487 H 1057.9 3.11306 -0.284186 0
M  V30 11488 H 1057.12 2.82166 -2.75274 0
M  V30 11489 H 1058.41 3.95297 -3.2034 0
M  V30 11490 H 1057.81 5.63459 -0.503012 0
M  V30 11491 H 1056.36 6.44671 -0.961379 0
M  V30 11492 N 1059.8 1.27835 0.921735 0
M  V30 11493 C 1061.21 1.05369 1.19873 0
M  V30 11494 C 1061.41 -0.208997 2.00413 0
M  V30 11495 O 1060.47 -0.912861 2.35421 0
M  V30 11496 C 1061.78 2.29658 1.94108 0
M  V30 11497 C 1063.33 2.34756 2.07023 0
M  V30 11498 C 1063.81 3.5879 2.84664 0
M  V30 11499 N 1065.3 3.59383 2.9223 0
M  V30 11500 C 1066.03 4.52029 3.52785 0
M  V30 11501 N 1065.53 5.54986 4.14683 0
M  V30 11502 N 1067.32 4.39641 3.50246 0
M  V30 11503 H 1059.47 2.08903 0.383819 0
M  V30 11504 H 1061.73 0.919065 0.232429 0
M  V30 11505 H 1061.44 3.21604 1.4235 0
M  V30 11506 H 1061.31 2.35444 2.94696 0
M  V30 11507 H 1063.7 1.43312 2.57965 0
M  V30 11508 H 1063.78 2.32969 1.05636 0
M  V30 11509 H 1063.43 4.50574 2.34404 0
M  V30 11510 H 1063.36 3.57829 3.86349 0
M  V30 11511 H 1065.85 2.84927 2.48244 0
M  V30 11512 H 1066.16 6.21837 4.58845 0
M  V30 11513 H 1064.51 5.58822 4.13211 0
M  V30 11514 H 1067.7 3.58413 3.01094 0
M  V30 11515 H 1067.87 5.12033 3.97148 0
M  V30 11516 N 1061.28 -1.12907 1.09954 0
M  V30 11517 C 1062.24 -2.16673 0.747364 0
M  V30 11518 C 1063.24 -1.59208 -0.225741 0
M  V30 11519 O 1064.43 -1.742 -0.00322482 0
M  V30 11520 C 1061.56 -3.40735 0.106169 0
M  V30 11521 H 1062.75 -2.49341 1.6664 0
M  V30 11522 H 1060.31 -1.27828 0.899421 0
M  V30 11523 H 1061.04 -3.13661 -0.82384 0
M  V30 11524 H 1060.83 -3.83717 0.806434 0
M  V30 11525 H 1062.32 -4.17414 -0.12464 0
M  V30 11526 N 1062.75 -0.88754 -1.30232 0
M  V30 11527 C 1063.7 -0.327649 -2.25633 0
M  V30 11528 C 1064.69 0.545362 -1.51376 0
M  V30 11529 O 1065.88 0.389366 -1.72664 0
M  V30 11530 C 1063.01 0.454546 -3.40277 0
M  V30 11531 C 1062.09 -0.432698 -4.21887 0
M  V30 11532 N 1062.49 -1.53434 -4.81966 0
M  V30 11533 C 1060.78 -0.228275 -4.45415 0
M  V30 11534 C 1061.48 -2.08292 -5.43129 0
M  V30 11535 N 1060.46 -1.37754 -5.25856 0
M  V30 11536 H 1064.26 -1.16937 -2.69635 0
M  V30 11537 H 1061.78 -0.737232 -1.44702 0
M  V30 11538 H 1063.77 0.87231 -4.07672 0
M  V30 11539 H 1062.43 1.29367 -2.97816 0
M  V30 11540 H 1063.44 -1.91717 -4.81108 0
M  V30 11541 H 1060.12 0.573475 -4.13543 0
M  V30 11542 H 1061.51 -3.00818 -6.00798 0
M  V30 11543 N 1064.23 1.43628 -0.648757 0
M  V30 11544 C 1065.51 1.95391 -0.0904551 0
M  V30 11545 C 1065.89 1.59021 1.38837 0
M  V30 11546 O 1065.24 0.873078 2.11163 0
M  V30 11547 C 1065.45 3.47418 -0.33196 0
M  V30 11548 C 1066.8 4.23952 -0.234521 0
M  V30 11549 O 1067.82 3.55218 -0.264276 0
M  V30 11550 O 1066.68 5.46282 -0.154428 0
M  V30 11551 H 1063.77 0.82691 0.0121884 0
M  V30 11552 H 1066.32 1.5359 -0.721685 0
M  V30 11553 H 1065.09 3.67001 -1.35741 0
M  V30 11554 H 1064.71 3.96207 0.332556 0
M  V30 11555 N 1065.71 0.390394 1.52688 0
M  V30 11556 C 1066.99 -0.249068 1.94008 0
M  V30 11557 C 1067.37 -1.64263 1.32593 0
M  V30 11558 O 1066.72 -2.23086 0.494448 0
M  V30 11559 C 1066.93 -0.274318 3.4792 0
M  V30 11560 C 1068.27 -0.502743 4.21613 0
M  V30 11561 O 1069.3 -0.35448 3.54432 0
M  V30 11562 O 1068.16 -0.79334 5.40711 0
M  V30 11563 H 1065.25 -0.155116 0.812323 0
M  V30 11564 H 1067.8 0.44498 1.63762 0
M  V30 11565 H 1066.57 0.701766 3.84956 0
M  V30 11566 H 1066.19 -1.01324 3.84473 0
M  V30 11567 N 1067.19 -1.57141 0.120249 0
M  V30 11568 C 1068.6 -1.82256 -0.404931 0
M  V30 11569 C 1068.95 -1.03748 -1.66526 0
M  V30 11570 O 1068.08 -0.274456 -2.14653 0
M  V30 11571 C 1068.67 -3.30588 -0.741431 0
M  V30 11572 C 1067.23 -3.56379 -1.21124 0
M  V30 11573 C 1066.38 -2.76421 -0.220569 0
M  V30 11574 H 1069.33 -1.54897 0.345361 0
M  V30 11575 H 1069.35 -3.45284 -1.59872 0
M  V30 11576 H 1068.86 -3.87701 0.176036 0
M  V30 11577 H 1066.96 -3.04625 -2.14556 0
M  V30 11578 H 1067.07 -4.64952 -1.1557 0
M  V30 11579 H 1065.44 -2.44666 -0.707857 0
M  V30 11580 H 1066.22 -3.36294 0.690018 0
M  V30 11581 N 1068.67 0.153526 -1.5685 0
M  V30 11582 C 1069.91 0.868517 -1.83261 0
M  V30 11583 C 1070.25 1.81112 -0.700857 0
M  V30 11584 O 1069.52 1.92235 0.295989 0
M  V30 11585 C 1069.8 1.6487 -3.2014 0
M  V30 11586 C 1069.66 0.728021 -4.43869 0
M  V30 11587 C 1070.98 2.61259 -3.54163 0
M  V30 11588 H 1068.09 0.314297 -0.666623 0
M  V30 11589 H 1070.74 0.133971 -1.89527 0
M  V30 11590 H 1068.89 2.2749 -3.1493 0
M  V30 11591 H 1070.56 0.113328 -4.61161 0
M  V30 11592 H 1068.8 0.0371744 -4.33784 0
M  V30 11593 H 1069.47 1.30981 -5.36235 0
M  V30 11594 H 1071.95 2.0876 -3.59942 0
M  V30 11595 H 1070.82 3.12902 -4.50981 0
M  V30 11596 H 1071.09 3.42307 -2.79782 0
M  V30 11597 N 1070.14 1.51827 0.422667 0
M  V30 11598 C 1071.11 1.7359 1.49663 0
M  V30 11599 C 1072.11 0.605811 1.48952 0
M  V30 11600 O 1073.3 0.87354 1.50715 0
M  V30 11601 C 1070.43 1.80585 2.8914 0
M  V30 11602 H 1071.62 2.69453 1.31664 0
M  V30 11603 H 1069.18 1.42038 0.652298 0
M  V30 11604 H 1069.91 0.865895 3.12526 0
M  V30 11605 H 1069.7 2.62729 2.9106 0
M  V30 11606 H 1071.19 1.99212 3.67021 0
M  V30 11607 N 1071.62 -0.679052 1.4222 0
M  V30 11608 C 1072.55 -1.80481 1.48152 0
M  V30 11609 C 1073.53 -1.66698 0.338502 0
M  V30 11610 O 1074.72 -1.86183 0.552228 0
M  V30 11611 C 1071.85 -3.18746 1.37908 0
M  V30 11612 C 1070.8 -3.47258 2.50192 0
M  V30 11613 C 1070.13 -4.85052 2.25008 0
M  V30 11614 C 1071.43 -3.44576 3.92511 0
M  V30 11615 H 1073.12 -1.75774 2.42371 0
M  V30 11616 H 1070.67 -0.844241 1.16656 0
M  V30 11617 H 1072.62 -3.97229 1.40666 0
M  V30 11618 H 1071.35 -3.24119 0.401806 0
M  V30 11619 H 1070 -2.71133 2.46744 0
M  V30 11620 H 1069.65 -4.8707 1.25584 0
M  V30 11621 H 1069.35 -5.05092 3.00259 0
M  V30 11622 H 1070.88 -5.65825 2.29508 0
M  V30 11623 H 1072.29 -4.13036 3.97585 0
M  V30 11624 H 1070.69 -3.76151 4.67579 0
M  V30 11625 H 1071.76 -2.4323 4.19484 0
M  V30 11626 N 1073.1 -1.28322 -0.914942 0
M  V30 11627 C 1074.05 -1.12146 -2.01722 0
M  V30 11628 C 1075.02 -0.0189279 -1.66089 0
M  V30 11629 O 1076.2 -0.183638 -1.89914 0
M  V30 11630 C 1073.34 -0.78808 -3.35981 0
M  V30 11631 C 1072.46 -1.96954 -3.84491 0
M  V30 11632 C 1071.59 -1.57688 -5.07255 0
M  V30 11633 C 1070.63 -2.72506 -5.48094 0
M  V30 11634 N 1069.77 -2.33741 -6.62049 0
M  V30 11635 H 1074.61 -2.06461 -2.1489 0
M  V30 11636 H 1072.14 -1.0276 -1.05256 0
M  V30 11637 H 1074.1 -0.575546 -4.13211 0
M  V30 11638 H 1072.73 0.118132 -3.22584 0
M  V30 11639 H 1071.78 -2.29423 -3.03429 0
M  V30 11640 H 1073.1 -2.8304 -4.10719 0
M  V30 11641 H 1072.25 -1.32634 -5.92025 0
M  V30 11642 H 1070.99 -0.687291 -4.82833 0
M  V30 11643 H 1069.99 -2.9826 -4.61867 0
M  V30 11644 H 1071.22 -3.62106 -5.74505 0
M  V30 11645 H 1069.16 -1.4725 -6.3926 0
M  V30 11646 H 1069.08 -3.13364 -6.87997 0
M  V30 11647 H 1070.35 -2.11968 -7.50127 0
M  V30 11648 N 1074.58 1.12322 -1.10551 0
M  V30 11649 C 1075.81 1.87407 -0.869607 0
M  V30 11650 C 1076.22 1.79976 0.58356 0
M  V30 11651 O 1075.56 1.1725 1.41415 0
M  V30 11652 C 1075.62 3.37401 -1.24099 0
M  V30 11653 C 1075.29 3.68607 -2.70144 0
M  V30 11654 C 1076.28 3.66869 -3.68379 0
M  V30 11655 C 1073.97 3.97903 -3.06559 0
M  V30 11656 C 1075.96 3.93987 -5.01052 0
M  V30 11657 C 1073.65 4.24681 -4.39419 0
M  V30 11658 C 1074.65 4.2271 -5.36475 0
M  V30 11659 O 1074.33 4.48823 -6.66943 0
M  V30 11660 H 1074.07 0.59978 -0.311834 0
M  V30 11661 H 1076.62 1.43037 -1.4741 0
M  V30 11662 H 1074.85 3.82332 -0.579606 0
M  V30 11663 H 1076.54 3.93833 -0.982378 0
M  V30 11664 H 1077.31 3.44297 -3.41591 0
M  V30 11665 H 1073.18 3.98578 -2.31638 0
M  V30 11666 H 1076.73 3.92364 -5.76798 0
M  V30 11667 H 1072.63 4.46727 -4.65945 0
M  V30 11668 H 1073.39 4.66436 -6.72592 0
M  V30 11669 N 1076.06 0.894434 1.2976 0
M  V30 11670 C 1077.28 0.532916 1.99919 0
M  V30 11671 C 1077.7 -0.881022 1.66983 0
M  V30 11672 O 1077.06 -1.58076 0.912035 0
M  V30 11673 C 1077.11 0.70936 3.54472 0
M  V30 11674 O 1076.83 2.06764 3.86239 0
M  V30 11675 C 1078.33 0.352089 4.419 0
M  V30 11676 H 1075.55 0.205019 0.638912 0
M  V30 11677 H 1078.09 1.20233 1.65421 0
M  V30 11678 H 1076.25 0.0871901 3.87302 0
M  V30 11679 H 1076.66 2.09315 4.80924 0
M  V30 11680 H 1078.14 0.526405 5.49484 0
M  V30 11681 H 1078.61 -0.710527 4.33415 0
M  V30 11682 H 1079.22 0.950979 4.14532 0
M  V30 11683 N 1077.53 -1.43282 0.656365 0
M  V30 11684 C 1078.78 -2.01776 0.171039 0
M  V30 11685 C 1079.11 -1.51795 -1.21609 0
M  V30 11686 O 1078.36 -0.702864 -1.82643 0
M  V30 11687 C 1078.66 -3.57148 0.134225 0
M  V30 11688 C 1078.33 -4.26488 1.46352 0
M  V30 11689 C 1076.99 -4.45146 1.82753 0
M  V30 11690 C 1079.34 -4.65728 2.33981 0
M  V30 11691 C 1076.67 -5.0031 3.06443 0
M  V30 11692 C 1079.02 -5.22263 3.56966 0
M  V30 11693 C 1077.69 -5.39136 3.93559 0
M  V30 11694 H 1076.96 -0.738352 0.0625878 0
M  V30 11695 H 1079.6 -1.71716 0.847697 0
M  V30 11696 H 1077.91 -3.86768 -0.625892 0
M  V30 11697 H 1079.61 -4.00168 -0.258207 0
M  V30 11698 H 1076.2 -4.12313 1.1703 0
M  V30 11699 H 1080.38 -4.51003 2.07148 0
M  V30 11700 H 1075.64 -5.11559 3.34839 0
M  V30 11701 H 1079.81 -5.51614 4.25082 0
M  V30 11702 H 1077.44 -5.81646 4.89481 0
M  V30 11703 N 1079.01 -0.398486 -1.52479 0
M  V30 11704 C 1079.96 0.449343 -2.23528 0
M  V30 11705 C 1080.95 1.02218 -1.24259 0
M  V30 11706 O 1082.14 0.946757 -1.49551 0
M  V30 11707 C 1079.27 1.5712 -3.05235 0
M  V30 11708 C 1078.35 1.00966 -4.11906 0
M  V30 11709 N 1078.75 0.173855 -5.05501 0
M  V30 11710 C 1077.04 1.28124 -4.272 0
M  V30 11711 C 1077.74 -0.137391 -5.81538 0
M  V30 11712 N 1076.72 0.468972 -5.41573 0
M  V30 11713 H 1080.52 -0.195654 -2.93248 0
M  V30 11714 H 1078.04 -0.208305 -1.61059 0
M  V30 11715 H 1080.03 2.19108 -3.54679 0
M  V30 11716 H 1078.69 2.21893 -2.37052 0
M  V30 11717 H 1079.7 -0.189618 -5.17553 0
M  V30 11718 H 1076.38 1.92933 -3.70247 0
M  V30 11719 H 1077.77 -0.815159 -6.66937 0
M  V30 11720 N 1080.49 1.57075 -0.12858 0
M  V30 11721 C 1081.4 2.19369 0.831533 0
M  V30 11722 C 1082.42 1.17258 1.28555 0
M  V30 11723 O 1083.59 1.49766 1.34656 0
M  V30 11724 C 1080.66 2.78846 2.06024 0
M  V30 11725 C 1079.72 3.96024 1.65722 0
M  V30 11726 C 1078.95 4.52655 2.82735 0
M  V30 11727 O 1079.18 4.08175 3.98434 0
M  V30 11728 O 1078.11 5.43198 2.59268 0
M  V30 11729 H 1081.94 3.01887 0.331352 0
M  V30 11730 H 1079.52 1.49081 0.0975226 0
M  V30 11731 H 1081.4 3.16721 2.77967 0
M  V30 11732 H 1080.08 1.99353 2.5503 0
M  V30 11733 H 1078.98 3.62899 0.908574 0
M  V30 11734 H 1080.32 4.76981 1.21449 0
M  V30 11735 N 1081.97 -0.145205 1.5693 0
M  V30 11736 C 1083.22 -0.858786 1.83719 0
M  V30 11737 C 1083.55 -1.80738 0.710452 0
M  V30 11738 O 1082.82 -1.92389 -0.285791 0
M  V30 11739 C 1083.11 -1.6317 3.2101 0
M  V30 11740 C 1082.96 -0.704472 4.44249 0
M  V30 11741 C 1084.28 -2.59377 3.55544 0
M  V30 11742 H 1081.4 -0.310757 0.66828 0
M  V30 11743 H 1084.04 -0.123918 1.89595 0
M  V30 11744 H 1082.19 -2.25816 3.16132 0
M  V30 11745 H 1083.86 -0.08887 4.61214 0
M  V30 11746 H 1082.1 -0.0141693 4.33798 0
M  V30 11747 H 1082.78 -1.28135 5.36922 0
M  V30 11748 H 1085.25 -2.06848 3.61044 0
M  V30 11749 H 1084.13 -3.10506 4.52634 0
M  V30 11750 H 1084.39 -3.40819 2.81594 0
M  V30 11751 N 1083.45 -1.52049 -0.414609 0
M  V30 11752 C 1084.7 -1.65067 -1.15912 0
M  V30 11753 C 1085.01 -0.383969 -1.91794 0
M  V30 11754 O 1086.22 -0.393872 -2.68628 0
M  V30 11755 C 1084.67 -2.91611 -2.1093 0
M  V30 11756 C 1084.28 -4.25369 -1.4059 0
M  V30 11757 C 1086.02 -3.13992 -2.85674 0
M  V30 11758 C 1083.93 -5.43041 -2.34223 0
M  V30 11759 H 1082.86 -0.614884 -0.436387 0
M  V30 11760 H 1085.51 -1.78533 -0.424072 0
M  V30 11761 H 1083.89 -2.71831 -2.87965 0
M  V30 11762 H 1085.07 -4.55611 -0.689568 0
M  V30 11763 H 1083.38 -4.09047 -0.779088 0
M  V30 11764 H 1085.98 -3.99082 -3.55861 0
M  V30 11765 H 1086.32 -2.27998 -3.48314 0
M  V30 11766 H 1086.86 -3.34217 -2.1574 0
M  V30 11767 H 1083.59 -6.31364 -1.76238 0
M  V30 11768 H 1083.11 -5.17144 -3.03845 0
M  V30 11769 H 1084.79 -5.75901 -2.94868 0
M  V30 11770 N 1084.93 0.6715 -1.42579 0
M  V30 11771 C 1086.15 1.45972 -1.46628 0
M  V30 11772 C 1086.57 1.88636 -0.0785986 0
M  V30 11773 O 1085.93 1.58345 0.907372 0
M  V30 11774 C 1085.98 2.70668 -2.39627 0
M  V30 11775 O 1085.7 2.29793 -3.72997 0
M  V30 11776 C 1087.2 3.64201 -2.52731 0
M  V30 11777 H 1084.42 0.449044 -0.498598 0
M  V30 11778 H 1086.96 0.824811 -1.87129 0
M  V30 11779 H 1085.12 3.3034 -2.02371 0
M  V30 11780 H 1085.53 3.10341 -4.22834 0
M  V30 11781 H 1087.01 4.48412 -3.21918 0
M  V30 11782 H 1087.48 4.10323 -1.56626 0
M  V30 11783 H 1088.09 3.1042 -2.90722 0
M  V30 11784 N 1086.4 1.28806 0.908124 0
M  V30 11785 C 1087.37 1.13228 1.99279 0
M  V30 11786 C 1088.37 0.0702456 1.60646 0
M  V30 11787 O 1089.56 0.316494 1.71301 0
M  V30 11788 C 1086.69 0.729629 3.33 0
M  V30 11789 H 1087.88 2.09566 2.14528 0
M  V30 11790 H 1085.43 1.11872 1.09153 0
M  V30 11791 H 1086.17 -0.234268 3.23453 0
M  V30 11792 H 1085.95 1.49688 3.62403 0
M  V30 11793 H 1087.44 0.643449 4.12613 0
M  V30 11794 N 1087.88 -1.11734 1.11145 0
M  V30 11795 C 1089.13 -1.83043 0.856717 0
M  V30 11796 C 1089.45 -1.84901 -0.619407 0
M  V30 11797 O 1088.72 -1.31738 -1.44989 0
M  V30 11798 H 1087.3 -0.677823 0.31395 0
M  V30 11799 H 1089.96 -1.35262 1.40322 0
M  V30 11800 H 1089.06 -2.87005 1.22616 0
M  V30 11801 N 1089.36 -0.901303 -1.29284 0
M  V30 11802 C 1090.58 -0.542823 -2.0017 0
M  V30 11803 C 1091.01 0.865583 -1.67001 0
M  V30 11804 O 1090.37 1.5764 -0.895502 0
M  V30 11805 C 1090.42 -0.743987 -3.52842 0
M  V30 11806 O 1089.52 0.202771 -4.11901 0
M  V30 11807 H 1088.86 -0.211903 -0.62928 0
M  V30 11808 H 1091.39 -1.21333 -1.64741 0
M  V30 11809 H 1091.4 -0.64926 -4.02801 0
M  V30 11810 H 1090.08 -1.77077 -3.7632 0
M  V30 11811 H 1088.65 0.0603637 -3.72851 0
M  V30 11812 N 1090.84 1.42931 -0.663954 0
M  V30 11813 C 1092.11 1.95284 -0.111174 0
M  V30 11814 C 1092.49 1.60484 1.37142 0
M  V30 11815 O 1091.84 0.895425 2.10225 0
M  V30 11816 C 1092.05 3.47046 -0.368789 0
M  V30 11817 C 1093.4 4.23679 -0.279473 0
M  V30 11818 O 1094.42 3.54918 -0.301937 0
M  V30 11819 O 1093.28 5.46087 -0.21236 0
M  V30 11820 H 1090.38 0.826993 0.00341718 0
M  V30 11821 H 1092.92 1.52816 -0.737935 0
M  V30 11822 H 1091.7 3.65541 -1.39626 0
M  V30 11823 H 1091.32 3.96537 0.290514 0
M  V30 11824 N 1092.32 0.406567 1.52266 0
M  V30 11825 C 1093.28 -0.408251 2.25535 0
M  V30 11826 C 1094.28 -0.975795 1.27808 0
M  V30 11827 O 1095.47 -0.855077 1.5177 0
M  V30 11828 C 1092.6 -1.57443 3.02365 0
M  V30 11829 H 1093.79 0.233459 2.9899 0
M  V30 11830 H 1091.35 0.159032 1.55489 0
M  V30 11831 H 1092.08 -2.25308 2.33252 0
M  V30 11832 H 1091.87 -1.17399 3.74112 0
M  V30 11833 H 1093.36 -2.15088 3.57948 0
M  V30 11834 N 1093.79 -1.57004 0.136909 0
M  V30 11835 C 1095.02 -2.00587 -0.527209 0
M  V30 11836 C 1095.44 -1.01628 -1.58283 0
M  V30 11837 O 1094.8 0.00946934 -1.81298 0
M  V30 11838 C 1094.85 -3.42967 -1.11384 0
M  V30 11839 O 1093.95 -3.46973 -2.22898 0
M  V30 11840 H 1093.3 -0.651155 -0.129976 0
M  V30 11841 H 1095.83 -2.03296 0.230667 0
M  V30 11842 H 1095.84 -3.81555 -1.44499 0
M  V30 11843 H 1094.51 -4.14502 -0.340736 0
M  V30 11844 H 1093.09 -3.20219 -1.91087 0
M  V30 11845 N 1095.27 0.136881 -1.57004 0
M  V30 11846 C 1096.5 0.866405 -1.88436 0
M  V30 11847 C 1096.92 1.73483 -0.727006 0
M  V30 11848 O 1096.28 1.78398 0.323094 0
M  V30 11849 C 1096.33 1.69059 -3.18514 0
M  V30 11850 O 1095.43 2.79584 -3.03161 0
M  V30 11851 H 1094.77 0.240709 -0.618834 0
M  V30 11852 H 1097.3 0.124653 -2.0422 0
M  V30 11853 H 1097.31 2.08353 -3.50789 0
M  V30 11854 H 1095.99 1.05296 -4.0235 0
M  V30 11855 H 1094.57 2.43623 -2.82315 0
M  V30 11856 N 1096.75 1.52266 0.40654 0
M  V30 11857 C 1097.7 1.75794 1.4955 0
M  V30 11858 C 1098.67 0.600472 1.54866 0
M  V30 11859 O 1099.85 0.838305 1.71397 0
M  V30 11860 C 1096.99 1.91682 2.86971 0
M  V30 11861 C 1096.11 3.19337 2.90943 0
M  V30 11862 C 1095.24 3.25641 4.1968 0
M  V30 11863 C 1094.28 4.47488 4.17637 0
M  V30 11864 N 1093.42 4.51171 5.37949 0
M  V30 11865 H 1098.26 2.68733 1.28789 0
M  V30 11866 H 1095.79 1.33157 0.625102 0
M  V30 11867 H 1097.75 1.98877 3.66748 0
M  V30 11868 H 1096.38 1.02121 3.06221 0
M  V30 11869 H 1095.43 3.21301 2.03642 0
M  V30 11870 H 1096.75 4.09153 2.85299 0
M  V30 11871 H 1095.9 3.31922 5.07851 0
M  V30 11872 H 1094.64 2.33769 4.28023 0
M  V30 11873 H 1093.64 4.41351 3.27856 0
M  V30 11874 H 1094.87 5.40659 4.10932 0
M  V30 11875 H 1092.81 3.62182 5.46955 0
M  V30 11876 H 1092.73 5.34835 5.3431 0
M  V30 11877 H 1094 4.61685 6.28066 0
M  V30 11878 N 1098.23 -0.663929 1.42933 0
M  V30 11879 C 1099.16 -1.78899 1.50058 0
M  V30 11880 C 1100.14 -1.66329 0.356164 0
M  V30 11881 O 1101.32 -1.85587 0.571944 0
M  V30 11882 C 1098.45 -3.17265 1.41281 0
M  V30 11883 C 1097.41 -3.44584 2.53861 0
M  V30 11884 C 1096.73 -4.82638 2.3014 0
M  V30 11885 C 1098.03 -3.40394 3.96143 0
M  V30 11886 H 1099.73 -1.73194 2.44222 0
M  V30 11887 H 1097.27 -0.83182 1.17545 0
M  V30 11888 H 1099.23 -3.95715 1.44872 0
M  V30 11889 H 1097.95 -3.23675 0.43616 0
M  V30 11890 H 1096.61 -2.685 2.49606 0
M  V30 11891 H 1096.26 -4.85711 1.30743 0
M  V30 11892 H 1095.96 -5.01879 3.056 0
M  V30 11893 H 1097.48 -5.63359 2.35497 0
M  V30 11894 H 1098.9 -4.08796 4.01943 0
M  V30 11895 H 1097.29 -3.7117 4.71543 0
M  V30 11896 H 1098.36 -2.38767 4.22041 0
M  V30 11897 N 1099.71 -1.29285 -0.901281 0
M  V30 11898 C 1101.12 -1.07263 -1.18182 0
M  V30 11899 C 1101.32 0.177087 -2.0072 0
M  V30 11900 O 1100.38 0.875292 -2.36844 0
M  V30 11901 C 1101.69 -2.32717 -1.9043 0
M  V30 11902 C 1103.24 -2.3802 -2.03262 0
M  V30 11903 C 1103.71 -3.63273 -2.7892 0
M  V30 11904 N 1105.21 -3.63986 -2.86475 0
M  V30 11905 C 1105.94 -4.57585 -3.45549 0
M  V30 11906 N 1105.44 -5.61513 -4.05801 0
M  V30 11907 N 1107.23 -4.45157 -3.43208 0
M  V30 11908 H 1099.38 -2.09487 -0.350536 0
M  V30 11909 H 1101.64 -0.922647 -0.217778 0
M  V30 11910 H 1101.35 -3.23828 -1.37216 0
M  V30 11911 H 1101.22 -2.40102 -2.90913 0
M  V30 11912 H 1103.61 -1.47398 -2.55652 0
M  V30 11913 H 1103.69 -2.3462 -1.01916 0
M  V30 11914 H 1103.34 -4.54246 -2.27206 0
M  V30 11915 H 1103.27 -3.6393 -3.80608 0
M  V30 11916 H 1105.76 -2.8884 -2.43679 0
M  V30 11917 H 1106.07 -6.29058 -4.48894 0
M  V30 11918 H 1104.41 -5.65325 -4.04268 0
M  V30 11919 H 1107.61 -3.63158 -2.95354 0
M  V30 11920 H 1107.78 -5.18286 -3.88952 0
M  V30 11921 N 1101.18 1.11143 -1.11736 0
M  V30 11922 C 1102.15 2.15456 -0.78174 0
M  V30 11923 C 1103.15 1.59547 0.200383 0
M  V30 11924 O 1104.34 1.74183 -0.0244893 0
M  V30 11925 C 1101.47 3.40523 -0.160364 0
M  V30 11926 H 1102.66 2.46658 -1.70586 0
M  V30 11927 H 1100.22 1.26381 -0.919644 0
M  V30 11928 H 1100.95 3.14932 0.773835 0
M  V30 11929 H 1100.74 3.82386 -0.867378 0
M  V30 11930 H 1102.23 4.17559 0.0582175 0
M  V30 11931 N 1102.66 0.908147 1.28804 0
M  V30 11932 C 1103.59 0.409106 2.29888 0
M  V30 11933 C 1104.57 -0.520338 1.61946 0
M  V30 11934 O 1105.76 -0.429268 1.89396 0
M  V30 11935 C 1102.89 -0.35669 3.45463 0
M  V30 11936 C 1101.84 0.4831 4.25265 0
M  V30 11937 C 1101.17 -0.4107 5.3312 0
M  V30 11938 C 1102.47 1.73744 4.92555 0
M  V30 11939 H 1104.16 1.25386 2.7188 0
M  V30 11940 H 1101.71 0.604368 1.30703 0
M  V30 11941 H 1103.66 -0.71661 4.15262 0
M  V30 11942 H 1102.39 -1.2353 3.02337 0
M  V30 11943 H 1101.04 0.825464 3.57186 0
M  V30 11944 H 1100.69 -1.28769 4.86238 0
M  V30 11945 H 1100.39 0.14756 5.87415 0
M  V30 11946 H 1101.92 -0.766626 6.05768 0
M  V30 11947 H 1103.33 1.44676 5.54745 0
M  V30 11948 H 1101.73 2.23767 5.5682 0
M  V30 11949 H 1102.8 2.46853 4.17363 0
M  V30 11950 N 1104.14 -1.42577 0.671525 0
M  V30 11951 C 1105.07 -2.2915 -0.0477361 0
M  V30 11952 C 1106.09 -1.43503 -0.768805 0
M  V30 11953 O 1107.27 -1.67256 -0.623509 0
M  V30 11954 C 1104.37 -3.20851 -1.09122 0
M  V30 11955 C 1103.55 -4.35134 -0.44463 0
M  V30 11956 C 1102.61 -5.07579 -1.38745 0
M  V30 11957 O 1101.63 -5.62215 -0.889015 0
M  V30 11958 N 1102.83 -5.12786 -2.72086 0
M  V30 11959 H 1105.6 -2.9152 0.695415 0
M  V30 11960 H 1103.16 -1.53467 0.515689 0
M  V30 11961 H 1105.15 -3.66183 -1.72315 0
M  V30 11962 H 1103.72 -2.59956 -1.73614 0
M  V30 11963 H 1102.94 -3.9249 0.36675 0
M  V30 11964 H 1104.23 -5.088 0.00595927 0
M  V30 11965 H 1103.63 -4.69802 -3.15123 0
M  V30 11966 H 1102.19 -5.61774 -3.30535 0
M  V30 11967 N 1105.62 -0.414636 -1.52048 0
M  V30 11968 C 1106.57 0.422766 -2.28726 0
M  V30 11969 C 1107.56 1.04099 -1.3364 0
M  V30 11970 O 1108.77 0.978559 -1.51077 0
M  V30 11971 H 1105.14 0.155123 -0.735827 0
M  V30 11972 H 1107.11 -0.245091 -2.97392 0
M  V30 11973 C 1105.86 1.52418 -3.12513 0
M  V30 11974 H 1105.18 1.05781 -3.85552 0
M  V30 11975 H 1106.62 2.08382 -3.6926 0
M  V30 11976 C 1105.08 2.49465 -2.26426 0
M  V30 11977 O 1105.61 3.53479 -1.90829 0
M  V30 11978 N 1103.82 2.19806 -1.90088 0
M  V30 11979 H 1103.37 1.35253 -2.19236 0
M  V30 11980 H 1103.32 2.84984 -1.32783 0
M  V30 11981 N 1107.1 1.56929 -0.145233 0
M  V30 11982 C 1108.51 1.58196 0.211194 0
M  V30 11983 C 1108.71 1.15941 1.64803 0
M  V30 11984 O 1107.77 0.858888 2.37443 0
M  V30 11985 C 1109.08 3.00665 -0.0459569 0
M  V30 11986 C 1110.63 3.12995 0.0178913 0
M  V30 11987 C 1111.1 4.5751 -0.211905 0
M  V30 11988 N 1112.6 4.62928 -0.158772 0
M  V30 11989 C 1113.33 5.72555 -0.311111 0
M  V30 11990 N 1112.83 6.90838 -0.521074 0
M  V30 11991 N 1114.62 5.61549 -0.248838 0
M  V30 11992 H 1106.77 1.8269 -1.08342 0
M  V30 11993 H 1109.03 0.845514 -0.428731 0
M  V30 11994 H 1108.74 3.35962 -1.0403 0
M  V30 11995 H 1108.61 3.71125 0.674246 0
M  V30 11996 H 1111 2.7754 1.00278 0
M  V30 11997 H 1111.08 2.45025 -0.734612 0
M  V30 11998 H 1110.73 4.93669 -1.19389 0
M  V30 11999 H 1110.66 5.23604 0.560901 0
M  V30 12000 H 1113.15 3.779 -0.00107283 0
M  V30 12001 H 1113.46 7.70248 -0.62747 0
M  V30 12002 H 1111.8 6.92761 -0.557374 0
M  V30 12003 H 1115 4.68022 -0.0855821 0
M  V30 12004 H 1115.17 6.46937 -0.370997 0
M  V30 12005 N 1108.58 -0.128553 1.57075 0
M  V30 12006 C 1109.82 -0.844012 1.86161 0
M  V30 12007 C 1110.18 -1.77499 0.73198 0
M  V30 12008 O 1111.38 -2.5313 0.904357 0
M  V30 12009 C 1109.65 -1.58238 3.20462 0
M  V30 12010 S 1111.21 -2.34073 3.71154 0
M  V30 12011 H 1108.03 -0.281884 0.652734 0
M  V30 12012 H 1110.63 -0.102902 1.95229 0
M  V30 12013 H 1109.33 -0.890246 4.00628 0
M  V30 12014 H 1108.87 -2.36404 3.14446 0
M  V30 12015 H 1110.88 -3.59617 3.41892 0
M  V30 12016 N 1110.05 -1.5248 -0.398459 0
M  V30 12017 C 1110.98 -1.79549 -1.49279 0
M  V30 12018 C 1111.96 -0.647004 -1.57315 0
M  V30 12019 O 1113.15 -0.893661 -1.72416 0
M  V30 12020 C 1110.28 -1.95582 -2.86993 0
M  V30 12021 C 1109.23 -3.1123 -2.93803 0
M  V30 12022 C 1108.56 -3.12501 -4.33874 0
M  V30 12023 C 1109.86 -4.50485 -2.64312 0
M  V30 12024 H 1111.55 -2.71187 -1.26877 0
M  V30 12025 H 1109.1 -1.30492 -0.608924 0
M  V30 12026 H 1111.05 -2.13102 -3.63546 0
M  V30 12027 H 1109.78 -1.00625 -3.10712 0
M  V30 12028 H 1108.44 -2.93477 -2.19697 0
M  V30 12029 H 1108.08 -2.15245 -4.54619 0
M  V30 12030 H 1107.78 -3.90183 -4.39353 0
M  V30 12031 H 1109.31 -3.32164 -5.12347 0
M  V30 12032 H 1110.72 -4.68387 -3.30585 0
M  V30 12033 H 1109.12 -5.30163 -2.81153 0
M  V30 12034 H 1110.19 -4.57848 -1.59696 0
M  V30 12035 N 1111.53 0.65634 -1.43283 0
M  V30 12036 C 1112.78 1.41837 -1.44949 0
M  V30 12037 C 1113.11 1.94065 -0.0723212 0
M  V30 12038 O 1112.39 1.72092 0.906346 0
M  V30 12039 C 1112.67 2.60206 -2.48927 0
M  V30 12040 C 1112.52 2.1349 -3.95907 0
M  V30 12041 C 1113.84 3.62421 -2.49678 0
M  V30 12042 H 1110.96 0.514398 -0.527792 0
M  V30 12043 H 1113.6 0.74435 -1.74813 0
M  V30 12044 H 1111.75 3.17708 -2.23592 0
M  V30 12045 H 1113.42 1.61012 -4.32288 0
M  V30 12046 H 1111.67 1.4489 -4.08888 0
M  V30 12047 H 1112.34 2.98596 -4.64268 0
M  V30 12048 H 1114.81 3.14671 -2.72252 0
M  V30 12049 H 1113.69 4.42798 -3.24378 0
M  V30 12050 H 1113.95 4.14802 -1.52944 0
M  V30 12051 N 1113.01 1.29761 0.894412 0
M  V30 12052 C 1114.42 1.16275 1.46072 0
M  V30 12053 C 1114.77 -0.240123 1.94725 0
M  V30 12054 O 1113.9 -1.13606 1.84181 0
M  V30 12055 C 1114.49 2.10471 2.65494 0
M  V30 12056 C 1113.05 2.00992 3.18244 0
M  V30 12057 C 1112.2 2.01094 1.90936 0
M  V30 12058 H 1115.15 1.42169 0.705243 0
M  V30 12059 H 1115.17 1.68003 3.41402 0
M  V30 12060 H 1114.68 3.12566 2.30053 0
M  V30 12061 H 1112.78 1.02005 3.58365 0
M  V30 12062 H 1112.9 2.88916 3.82184 0
M  V30 12063 H 1111.26 1.45764 2.08866 0
M  V30 12064 H 1112.04 3.04902 1.57764 0
M  V30 12065 N 1114.49 -1.10549 1.12324 0
M  V30 12066 C 1115.74 -1.82124 0.876083 0
M  V30 12067 C 1116.06 -1.85547 -0.599761 0
M  V30 12068 O 1115.33 -1.33269 -1.43584 0
M  V30 12069 H 1113.91 -0.674455 0.321122 0
M  V30 12070 H 1116.57 -1.33766 1.41748 0
M  V30 12071 H 1115.66 -2.85688 1.25653 0
M  V30 12072 N 1115.97 -0.914965 -1.28321 0
M  V30 12073 C 1117.21 -0.559015 -1.95567 0
M  V30 12074 C 1117.57 0.887749 -1.70695 0
M  V30 12075 O 1116.86 1.62312 -1.0181 0
M  V30 12076 C 1117.05 -0.805805 -3.48198 0
M  V30 12077 C 1116.88 -2.27501 -3.87909 0
M  V30 12078 C 1115.65 -2.92534 -4.12009 0
M  V30 12079 C 1117.85 -3.25152 -3.98473 0
M  V30 12080 N 1115.83 -4.29739 -4.38403 0
M  V30 12081 C 1117.2 -4.47524 -4.29095 0
M  V30 12082 C 1119.26 -3.20534 -3.81001 0
M  V30 12083 C 1117.96 -5.65861 -4.44065 0
M  V30 12084 C 1119.99 -4.38172 -3.97189 0
M  V30 12085 C 1119.35 -5.59318 -4.28185 0
M  V30 12086 H 1115.45 -0.254451 -0.739445 0
M  V30 12087 H 1118.03 -1.17895 -1.54948 0
M  V30 12088 H 1116.2 -0.215134 -3.87804 0
M  V30 12089 H 1117.94 -0.413762 -4.02579 0
M  V30 12090 H 1114.69 -2.43258 -4.06352 0
M  V30 12091 H 1115.11 -5.00683 -4.55681 0
M  V30 12092 H 1119.76 -2.27949 -3.56088 0
M  V30 12093 H 1117.47 -6.58924 -4.67809 0
M  V30 12094 H 1121.06 -4.36102 -3.85105 0
M  V30 12095 H 1119.94 -6.48828 -4.40446 0
M  V30 12096 N 1117.44 1.42219 -0.679077 0
M  V30 12097 C 1118.67 2.05516 -0.211342 0
M  V30 12098 C 1119.08 1.5113 1.13826 0
M  V30 12099 O 1118.42 0.647593 1.71907 0
M  V30 12100 C 1118.49 3.59425 -0.0736007 0
M  V30 12101 C 1118.15 4.36525 -1.3526 0
M  V30 12102 C 1119.15 4.66897 -2.28698 0
M  V30 12103 C 1116.83 4.76089 -1.60139 0
M  V30 12104 C 1118.83 5.35775 -3.45288 0
M  V30 12105 C 1116.51 5.44706 -2.77017 0
M  V30 12106 C 1117.51 5.74474 -3.69416 0
M  V30 12107 O 1117.2 6.41683 -4.8425 0
M  V30 12108 H 1116.93 0.668662 -0.0993318 0
M  V30 12109 H 1119.49 1.8327 -0.927434 0
M  V30 12110 H 1117.72 3.80346 0.69811 0
M  V30 12111 H 1119.4 4.04346 0.354813 0
M  V30 12112 H 1120.17 4.36828 -2.10729 0
M  V30 12113 H 1116.05 4.5231 -0.890887 0
M  V30 12114 H 1119.59 5.58927 -4.17428 0
M  V30 12115 H 1115.49 5.74194 -2.9491 0
M  V30 12116 H 1116.26 6.60175 -4.8385 0
M  V30 12117 N 1118.92 0.422693 1.51826 0
M  V30 12118 C 1119.88 -0.384307 2.25955 0
M  V30 12119 C 1120.88 -0.962184 1.28836 0
M  V30 12120 O 1122.07 -0.838931 1.52668 0
M  V30 12121 C 1119.21 -1.54228 3.04018 0
M  V30 12122 H 1120.4 0.265157 2.98726 0
M  V30 12123 H 1117.95 0.175515 1.55311 0
M  V30 12124 H 1118.69 -2.22822 2.35629 0
M  V30 12125 H 1118.47 -1.13425 3.75336 0
M  V30 12126 H 1119.96 -2.1128 3.60209 0
M  V30 12127 N 1120.4 -1.5685 0.153553 0
M  V30 12128 C 1121.63 -2.00701 -0.502678 0
M  V30 12129 C 1122.04 -1.0337 -1.57988 0
M  V30 12130 O 1121.4 -0.0317233 -1.82472 0
M  V30 12131 C 1121.45 -3.44443 -1.09732 0
M  V30 12132 O 1121.17 -4.38054 -0.0631405 0
M  V30 12133 C 1122.67 -4.03605 -1.83352 0
M  V30 12134 H 1119.89 -0.658229 -0.130289 0
M  V30 12135 H 1122.44 -2.02965 0.250063 0
M  V30 12136 H 1120.59 -3.43009 -1.80065 0
M  V30 12137 H 1121.01 -5.22114 -0.499681 0
M  V30 12138 H 1122.48 -5.0616 -2.20241 0
M  V30 12139 H 1122.96 -3.44687 -2.7219 0
M  V30 12140 H 1123.56 -4.08688 -1.17703 0
M  V30 12141 N 1121.88 0.120221 -1.57141 0
M  V30 12142 C 1122.83 1.15332 -1.96679 0
M  V30 12143 C 1123.81 1.37134 -0.841607 0
M  V30 12144 O 1125 1.38247 -1.10529 0
M  V30 12145 C 1122.13 2.48021 -2.37361 0
M  V30 12146 C 1121.22 2.29699 -3.5651 0
M  V30 12147 N 1121.61 1.81186 -4.72234 0
M  V30 12148 C 1119.91 2.60359 -3.62118 0
M  V30 12149 C 1120.61 1.76542 -5.54263 0
M  V30 12150 N 1119.58 2.20843 -4.96719 0
M  V30 12151 H 1123.39 0.770763 -2.83613 0
M  V30 12152 H 1120.9 0.327979 -1.59054 0
M  V30 12153 H 1122.9 3.22739 -2.63903 0
M  V30 12154 H 1121.56 2.87036 -1.51791 0
M  V30 12155 H 1122.57 1.50751 -4.95474 0
M  V30 12156 H 1119.25 3.03067 -2.87152 0
M  V30 12157 H 1120.64 1.40298 -6.57089 0
M  V30 12158 N 1123.36 1.52689 0.390367 0
M  V30 12159 C 1124.61 1.6689 1.13272 0
M  V30 12160 C 1124.92 0.414433 1.91159 0
M  V30 12161 O 1126.12 0.436559 2.67967 0
M  V30 12162 C 1124.58 2.94929 2.06264 0
M  V30 12163 C 1124.19 4.27551 1.33805 0
M  V30 12164 C 1125.93 3.18497 2.80642 0
M  V30 12165 C 1123.84 5.46698 2.25554 0
M  V30 12166 H 1122.77 0.621749 0.426549 0
M  V30 12167 H 1125.42 1.79185 0.395615 0
M  V30 12168 H 1123.8 2.76378 2.83604 0
M  V30 12169 H 1124.98 4.56651 0.616997 0
M  V30 12170 H 1123.29 4.10234 0.713913 0
M  V30 12171 H 1125.89 4.04693 3.49467 0
M  V30 12172 H 1126.23 2.33511 3.44642 0
M  V30 12173 H 1126.76 3.37607 2.10395 0
M  V30 12174 H 1123.5 6.34088 1.66171 0
M  V30 12175 H 1123.02 5.21913 2.95579 0
M  V30 12176 H 1124.7 5.80519 2.85668 0
M  V30 12177 N 1124.83 -0.648732 1.43629 0
M  V30 12178 C 1125.74 -1.79046 1.51591 0
M  V30 12179 C 1126.76 -1.69276 0.402697 0
M  V30 12180 O 1127.94 -1.90366 0.657484 0
M  V30 12181 C 1125 -3.15347 1.44073 0
M  V30 12182 C 1124.06 -3.3688 2.66102 0
M  V30 12183 C 1123.3 -4.66679 2.58933 0
M  V30 12184 O 1123.52 -5.46328 1.63956 0
M  V30 12185 O 1122.45 -4.9003 3.49506 0
M  V30 12186 H 1126.28 -1.75283 2.48011 0
M  V30 12187 H 1123.86 -0.807774 1.2568 0
M  V30 12188 H 1125.75 -3.96633 1.42339 0
M  V30 12189 H 1124.42 -3.19691 0.50789 0
M  V30 12190 H 1123.33 -2.55341 2.73407 0
M  V30 12191 H 1124.66 -3.37386 3.58373 0
M  V30 12192 N 1126.31 -1.30234 -0.887518 0
M  V30 12193 C 1127.73 -1.0851 -1.17037 0
M  V30 12194 C 1127.93 0.155788 -2.00897 0
M  V30 12195 O 1126.98 0.850123 -2.37759 0
M  V30 12196 C 1128.3 -2.34723 -1.87951 0
M  V30 12197 C 1129.85 -2.40163 -2.00726 0
M  V30 12198 C 1130.32 -3.66211 -2.75051 0
M  V30 12199 N 1131.81 -3.67004 -2.82599 0
M  V30 12200 C 1132.55 -4.61224 -3.40676 0
M  V30 12201 N 1132.04 -5.65786 -3.99823 0
M  V30 12202 N 1133.84 -4.48772 -3.38467 0
M  V30 12203 H 1125.99 -2.09847 -0.328297 0
M  V30 12204 H 1128.25 -0.924904 -0.20798 0
M  V30 12205 H 1127.96 -3.25265 -1.33773 0
M  V30 12206 H 1127.83 -2.43175 -2.8835 0
M  V30 12207 H 1130.22 -1.50101 -2.54074 0
M  V30 12208 H 1130.3 -2.35688 -0.994218 0
M  V30 12209 H 1129.94 -4.56631 -2.22376 0
M  V30 12210 H 1129.87 -3.67947 -3.76726 0
M  V30 12211 H 1132.36 -2.91409 -2.40602 0
M  V30 12212 H 1132.68 -6.33783 -4.42197 0
M  V30 12213 H 1131.02 -5.69581 -3.9825 0
M  V30 12214 H 1134.21 -3.6627 -2.91485 0
M  V30 12215 H 1134.38 -5.22382 -3.83433 0
M  V30 12216 N 1127.79 1.09952 -1.12909 0
M  V30 12217 C 1129.04 1.82467 -0.898733 0
M  V30 12218 C 1129.39 1.83788 0.569196 0
M  V30 12219 O 1128.68 1.29117 1.4156 0
M  V30 12220 C 1128.88 3.28252 -1.41369 0
M  V30 12221 C 1128.71 3.41133 -2.93015 0
M  V30 12222 C 1127.48 3.53253 -3.61304 0
M  V30 12223 C 1129.68 3.34118 -3.90986 0
M  V30 12224 N 1127.66 3.54762 -5.01016 0
M  V30 12225 C 1129.03 3.42431 -5.16857 0
M  V30 12226 C 1131.08 3.1775 -3.83327 0
M  V30 12227 C 1129.79 3.36063 -6.35967 0
M  V30 12228 C 1131.81 3.12705 -5.01966 0
M  V30 12229 C 1131.17 3.21605 -6.26697 0
M  V30 12230 H 1127.27 0.682232 -0.382208 0
M  V30 12231 H 1129.86 1.31446 -1.43631 0
M  V30 12232 H 1128.03 3.77755 -0.903097 0
M  V30 12233 H 1129.76 3.88752 -1.12489 0
M  V30 12234 H 1126.52 3.56472 -3.11809 0
M  V30 12235 H 1126.94 3.59115 -5.73904 0
M  V30 12236 H 1131.58 3.09742 -2.87784 0
M  V30 12237 H 1129.3 3.42835 -7.31772 0
M  V30 12238 H 1132.89 3.01183 -4.97775 0
M  V30 12239 H 1131.77 3.1771 -7.16959 0
M  V30 12240 N 1129.27 0.921757 1.27833 0
M  V30 12241 C 1130.2 0.433466 2.29441 0
M  V30 12242 C 1131.18 -0.503133 1.62489 0
M  V30 12243 O 1132.36 -0.409156 1.89841 0
M  V30 12244 C 1129.49 -0.320029 3.45822 0
M  V30 12245 C 1128.45 0.528178 4.24728 0
M  V30 12246 C 1127.77 -0.354132 5.33526 0
M  V30 12247 C 1129.07 1.78959 4.90684 0
M  V30 12248 H 1130.77 1.28263 2.70535 0
M  V30 12249 H 1128.31 0.618197 1.30055 0
M  V30 12250 H 1130.27 -0.672526 4.15999 0
M  V30 12251 H 1128.99 -1.20317 3.0363 0
M  V30 12252 H 1127.65 0.863302 3.5629 0
M  V30 12253 H 1127.3 -1.23605 4.87576 0
M  V30 12254 H 1127 0.209855 5.87225 0
M  V30 12255 H 1128.52 -0.702333 6.06547 0
M  V30 12256 H 1129.94 1.50552 5.53179 0
M  V30 12257 H 1128.33 2.29661 5.54415 0
M  V30 12258 H 1129.4 2.51265 4.14721 0
M  V30 12259 N 1130.75 -1.41857 0.686609 0
M  V30 12260 C 1131.97 -2.06219 0.221037 0
M  V30 12261 C 1132.4 -1.51298 -1.11762 0
M  V30 12262 O 1131.75 -0.636253 -1.69769 0
M  V30 12263 C 1131.8 -3.60153 0.179425 0
M  V30 12264 O 1130.91 -4.03577 -0.848481 0
M  V30 12265 H 1130.25 -0.654787 0.110228 0
M  V30 12266 H 1132.78 -1.81783 0.938948 0
M  V30 12267 H 1132.79 -4.07999 0.00725332 0
M  V30 12268 H 1131.46 -3.99498 1.15647 0
M  V30 12269 H 1130.04 -3.67255 -0.646393 0
M  V30 12270 N 1132.22 -0.430739 -1.51599 0
M  V30 12271 C 1133.19 0.372319 -2.26156 0
M  V30 12272 C 1134.19 0.955338 -1.29344 0
M  V30 12273 O 1135.38 0.830823 -1.53111 0
M  V30 12274 C 1132.51 1.52613 -3.04831 0
M  V30 12275 H 1133.7 -0.280996 -2.98581 0
M  V30 12276 H 1131.26 -0.183749 -1.55216 0
M  V30 12277 H 1131.99 2.21569 -2.36807 0
M  V30 12278 H 1131.78 1.11433 -3.75932 0
M  V30 12279 H 1133.27 2.09366 -3.61325 0
M  V30 12280 N 1133.7 1.56767 -0.161869 0
M  V30 12281 C 1134.93 2.00673 0.491314 0
M  V30 12282 C 1135.34 1.04111 1.5798 0
M  V30 12283 O 1134.68 0.0324889 1.83671 0
M  V30 12284 C 1134.75 3.41011 1.13806 0
M  V30 12285 C 1134.41 4.56595 0.192384 0
M  V30 12286 C 1135.41 5.16591 -0.585671 0
M  V30 12287 C 1133.09 5.02218 0.0909594 0
M  V30 12288 C 1135.09 6.20631 -1.45245 0
M  V30 12289 C 1132.77 6.06109 -0.77941 0
M  V30 12290 C 1133.77 6.65187 -1.54971 0
M  V30 12291 O 1133.46 7.67065 -2.40555 0
M  V30 12292 H 1133.19 0.663174 0.131059 0
M  V30 12293 H 1135.74 2.03775 -0.257896 0
M  V30 12294 H 1133.97 3.34793 1.93521 0
M  V30 12295 H 1135.66 3.68931 1.69248 0
M  V30 12296 H 1136.43 4.82232 -0.517432 0
M  V30 12297 H 1132.31 4.55953 0.680292 0
M  V30 12298 H 1135.85 6.66671 -2.05415 0
M  V30 12299 H 1131.75 6.39894 -0.848887 0
M  V30 12300 H 1132.52 7.84348 -2.33966 0
M  V30 12301 N 1135.18 -0.111886 1.57202 0
M  V30 12302 C 1136.13 -1.14287 1.97288 0
M  V30 12303 C 1137.11 -1.36686 0.848868 0
M  V30 12304 O 1138.31 -1.37659 1.11261 0
M  V30 12305 C 1135.44 -2.46759 2.38673 0
M  V30 12306 C 1134.52 -2.27805 3.57723 0
M  V30 12307 N 1134.91 -1.78679 4.73189 0
M  V30 12308 C 1133.21 -2.58435 3.63494 0
M  V30 12309 C 1133.91 -1.736 5.55192 0
M  V30 12310 N 1132.89 -2.18205 4.97883 0
M  V30 12311 H 1136.69 -0.755711 2.84018 0
M  V30 12312 H 1134.2 -0.31954 1.59225 0
M  V30 12313 H 1136.2 -3.21335 2.65611 0
M  V30 12314 H 1134.86 -2.86227 1.53311 0
M  V30 12315 H 1135.87 -1.48121 4.96267 0
M  V30 12316 H 1132.55 -3.0154 2.88755 0
M  V30 12317 H 1133.94 -1.36812 6.57824 0
M  V30 12318 N 1136.66 -1.52894 -0.382264 0
M  V30 12319 C 1137.62 -1.77497 -1.45008 0
M  V30 12320 C 1138.62 -0.64509 -1.47293 0
M  V30 12321 O 1139.81 -0.913192 -1.48346 0
M  V30 12322 C 1136.94 -1.88188 -2.8425 0
M  V30 12323 H 1138.14 -2.72849 -1.24473 0
M  V30 12324 H 1135.69 -1.43717 -0.61441 0
M  V30 12325 H 1136.42 -0.948451 -3.10121 0
M  V30 12326 H 1136.21 -2.70353 -2.83992 0
M  V30 12327 H 1137.7 -2.08873 -3.6161 0
M  V30 12328 N 1138.14 0.641106 -1.43971 0
M  V30 12329 C 1139.09 1.77474 -1.50352 0
M  V30 12330 C 1140.08 1.65173 -0.376052 0
M  V30 12331 O 1141.29 1.71373 -0.550572 0
M  V30 12332 H 1137.66 0.585747 -0.471597 0
M  V30 12333 H 1139.63 1.69213 -2.45784 0
M  V30 12334 C 1138.38 3.15778 -1.45532 0
M  V30 12335 H 1137.7 3.25886 -2.316 0
M  V30 12336 H 1139.14 3.95022 -1.54058 0
M  V30 12337 C 1137.6 3.36447 -0.174624 0
M  V30 12338 O 1138.13 3.9446 0.759215 0
M  V30 12339 N 1136.34 2.90487 -0.0809383 0
M  V30 12340 H 1135.89 2.43461 -0.841691 0
M  V30 12341 H 1135.84 3.04693 0.775231 0
M  V30 12342 N 1139.62 1.30703 0.880598 0
M  V30 12343 C 1140.55 1.1327 1.99255 0
M  V30 12344 C 1141.56 0.0747186 1.62628 0
M  V30 12345 O 1142.75 0.321169 1.75587 0
M  V30 12346 C 1139.85 0.706179 3.31461 0
M  V30 12347 C 1139.02 1.84687 3.96497 0
M  V30 12348 C 1138.08 1.40817 5.07008 0
M  V30 12349 O 1137.11 2.1161 5.28403 0
M  V30 12350 N 1138.31 0.289619 5.79777 0
M  V30 12351 H 1141.07 2.09043 2.14759 0
M  V30 12352 H 1138.64 1.22896 1.05395 0
M  V30 12353 H 1140.63 0.395617 4.02762 0
M  V30 12354 H 1139.2 -0.159631 3.12192 0
M  V30 12355 H 1138.42 2.32531 3.18312 0
M  V30 12356 H 1139.71 2.61117 4.36687 0
M  V30 12357 H 1139.1 -0.300177 5.64903 0
M  V30 12358 H 1137.66 0.0385346 6.51789 0
M  V30 12359 N 1141.09 -1.09351 1.1349 0
M  V30 12360 C 1142.34 -1.80915 0.89177 0
M  V30 12361 C 1142.66 -1.86688 -0.5837 0
M  V30 12362 O 1143.86 -2.54568 -0.943788 0
M  V30 12363 C 1142.32 -3.25009 1.54587 0
M  V30 12364 C 1141.93 -3.27501 3.05691 0
M  V30 12365 C 1143.67 -4.01323 1.38346 0
M  V30 12366 C 1141.58 -4.66123 3.63983 0
M  V30 12367 H 1140.51 -0.677961 0.329978 0
M  V30 12368 H 1143.16 -1.22893 1.3627 0
M  V30 12369 H 1141.54 -3.83098 1.0026 0
M  V30 12370 H 1142.71 -2.79174 3.66604 0
M  V30 12371 H 1141.03 -2.64677 3.21457 0
M  V30 12372 H 1143.63 -5.03739 1.79307 0
M  V30 12373 H 1143.97 -4.15003 0.328404 0
M  V30 12374 H 1144.5 -3.49679 1.89656 0
M  V30 12375 H 1141.24 -4.57646 4.69298 0
M  V30 12376 H 1140.76 -5.14772 3.07848 0
M  V30 12377 H 1142.44 -5.35097 3.63703 0
M  V30 12378 N 1142.57 -0.928524 -1.27343 0
M  V30 12379 C 1143.5 -0.445627 -2.29208 0
M  V30 12380 C 1144.48 0.494508 -1.62753 0
M  V30 12381 O 1145.67 0.399082 -1.90055 0
M  V30 12382 C 1142.8 0.301684 -3.45987 0
M  V30 12383 C 1141.75 -0.550695 -4.24442 0
M  V30 12384 C 1141.08 0.325833 -5.33706 0
M  V30 12385 C 1142.38 -1.81559 -4.89728 0
M  V30 12386 H 1144.07 -1.29696 -2.69851 0
M  V30 12387 H 1141.62 -0.625085 -1.29725 0
M  V30 12388 H 1143.57 0.650455 -4.1635 0
M  V30 12389 H 1142.29 1.18705 -3.04264 0
M  V30 12390 H 1140.95 -0.882185 -3.55827 0
M  V30 12391 H 1140.6 1.21018 -4.88225 0
M  V30 12392 H 1140.3 -0.240994 -5.87106 0
M  V30 12393 H 1141.83 0.670156 -6.06911 0
M  V30 12394 H 1143.24 -1.53483 -5.52373 0
M  V30 12395 H 1141.64 -2.32598 -5.53189 0
M  V30 12396 H 1142.71 -2.53461 -4.13383 0
M  V30 12397 N 1144.05 1.41491 -0.694123 0
M  V30 12398 C 1145.3 2.0155 -0.224809 0
M  V30 12399 C 1145.63 1.54844 1.17205 0
M  V30 12400 O 1144.9 0.75899 1.7908 0
M  V30 12401 C 1145.19 3.59003 -0.280884 0
M  V30 12402 C 1145.04 4.15839 -1.71458 0
M  V30 12403 C 1146.36 4.38624 0.360122 0
M  V30 12404 H 1143.48 0.732293 -0.0831632 0
M  V30 12405 H 1146.12 1.68258 -0.882569 0
M  V30 12406 H 1144.27 3.87496 0.279164 0
M  V30 12407 H 1145.94 3.98227 -2.32837 0
M  V30 12408 H 1144.18 3.70936 -2.2492 0
M  V30 12409 H 1144.86 5.24997 -1.70536 0
M  V30 12410 H 1147.33 4.15936 -0.11683 0
M  V30 12411 H 1146.21 5.48132 0.290337 0
M  V30 12412 H 1146.47 4.1797 1.44062 0
M  V30 12413 N 1145.53 0.438773 1.51369 0
M  V30 12414 C 1146.46 -0.362467 2.3067 0
M  V30 12415 C 1147.44 -1.01973 1.36145 0
M  V30 12416 O 1148.62 -1.0231 1.65065 0
M  V30 12417 C 1145.75 -1.46313 3.14976 0
M  V30 12418 C 1144.71 -0.929272 4.1779 0
M  V30 12419 C 1144.03 -2.12579 4.90627 0
M  V30 12420 C 1145.33 0.0372782 5.22287 0
M  V30 12421 H 1147.03 0.29931 2.979 0
M  V30 12422 H 1144.57 0.14539 1.43264 0
M  V30 12423 H 1146.53 -2.03088 3.69233 0
M  V30 12424 H 1145.25 -2.15321 2.45569 0
M  V30 12425 H 1143.91 -0.383722 3.64586 0
M  V30 12426 H 1143.56 -2.8021 4.17722 0
M  V30 12427 H 1143.26 -1.77496 5.60151 0
M  V30 12428 H 1144.78 -2.69905 5.47708 0
M  V30 12429 H 1146.2 -0.44022 5.71607 0
M  V30 12430 H 1144.59 0.300748 5.99346 0
M  V30 12431 H 1145.66 0.973503 4.75027 0
M  V30 12432 N 1147.01 -1.56678 0.170181 0
M  V30 12433 C 1148.28 -1.88524 -0.521362 0
M  V30 12434 C 1148.66 -1.07989 -1.81388 0
M  V30 12435 O 1148.01 -0.17347 -2.27841 0
M  V30 12436 C 1148.22 -3.40527 -0.764367 0
M  V30 12437 C 1149.57 -4.10241 -1.09487 0
M  V30 12438 O 1150.59 -3.45837 -0.852945 0
M  V30 12439 O 1149.45 -5.24022 -1.55124 0
M  V30 12440 H 1146.55 -0.782161 -0.268614 0
M  V30 12441 H 1149.09 -1.68414 0.208531 0
M  V30 12442 H 1147.86 -3.91015 0.149416 0
M  V30 12443 H 1147.49 -3.66244 -1.54762 0
M  V30 12444 N 1148.48 0.103547 -1.57259 0
M  V30 12445 C 1149.73 0.806979 -1.8529 0
M  V30 12446 C 1150.05 1.79679 -0.757653 0
M  V30 12447 O 1149.32 1.94695 0.216913 0
M  V30 12448 H 1147.9 0.301012 -0.683667 0
M  V30 12449 H 1150.56 0.0871886 -1.94705 0
M  V30 12450 H 1149.66 1.34275 -2.81738 0
M  V30 12451 N 1149.96 1.53094 0.37415 0
M  V30 12452 C 1150.91 1.78927 1.45787 0
M  V30 12453 C 1151.88 0.633187 1.53558 0
M  V30 12454 O 1153.06 0.874472 1.69581 0
M  V30 12455 C 1150.2 1.97726 2.8284 0
M  V30 12456 C 1149.32 3.25436 2.84104 0
M  V30 12457 C 1148.45 3.3447 4.12678 0
M  V30 12458 C 1147.49 4.56246 4.08051 0
M  V30 12459 N 1146.63 4.6248 5.28258 0
M  V30 12460 H 1151.47 2.71404 1.2306 0
M  V30 12461 H 1149 1.34453 0.596716 0
M  V30 12462 H 1150.96 2.06611 3.62447 0
M  V30 12463 H 1149.59 1.08593 3.03986 0
M  V30 12464 H 1148.64 3.25548 1.96781 0
M  V30 12465 H 1149.96 4.15112 2.76556 0
M  V30 12466 H 1149.11 3.4262 5.00696 0
M  V30 12467 H 1147.85 2.42795 4.22968 0
M  V30 12468 H 1146.85 4.48206 3.1842 0
M  V30 12469 H 1148.08 5.49254 3.99371 0
M  V30 12470 H 1146.03 3.73703 5.3915 0
M  V30 12471 H 1145.94 5.46049 5.22845 0
M  V30 12472 H 1147.21 4.74903 6.18132 0
M  V30 12473 N 1151.44 -0.633461 1.44309 0
M  V30 12474 C 1152.37 -1.75676 1.53819 0
M  V30 12475 C 1153.35 -1.65537 0.391365 0
M  V30 12476 O 1154.54 -1.84332 0.611181 0
M  V30 12477 C 1151.67 -3.14197 1.47979 0
M  V30 12478 C 1150.62 -3.39122 2.61113 0
M  V30 12479 C 1149.95 -4.77648 2.40325 0
M  V30 12480 C 1151.25 -3.31914 4.03274 0
M  V30 12481 H 1152.94 -1.67974 2.47841 0
M  V30 12482 H 1150.49 -0.8067 1.19283 0
M  V30 12483 H 1152.44 -3.92553 1.53233 0
M  V30 12484 H 1151.16 -3.22677 0.504718 0
M  V30 12485 H 1149.82 -2.63145 2.55245 0
M  V30 12486 H 1149.47 -4.82829 1.41016 0
M  V30 12487 H 1149.17 -4.95284 3.16177 0
M  V30 12488 H 1150.69 -5.58237 2.47394 0
M  V30 12489 H 1152.11 -4.00178 4.10524 0
M  V30 12490 H 1150.5 -3.61085 4.7931 0
M  V30 12491 H 1151.57 -2.29761 4.2701 0
M  V30 12492 N 1152.92 -1.31168 -0.873655 0
M  V30 12493 C 1153.85 -1.21094 -1.99646 0
M  V30 12494 C 1154.83 -0.0989684 -1.69812 0
M  V30 12495 O 1156.01 -0.282939 -1.92128 0
M  V30 12496 C 1153.14 -0.913684 -3.35066 0
M  V30 12497 C 1152.1 -1.98482 -3.79195 0
M  V30 12498 C 1151.42 -1.54033 -5.12033 0
M  V30 12499 C 1152.72 -3.39745 -3.96699 0
M  V30 12500 H 1154.42 -2.1503 -2.08333 0
M  V30 12501 H 1151.96 -1.03521 -1.00097 0
M  V30 12502 H 1153.92 -0.829821 -4.13149 0
M  V30 12503 H 1152.64 0.0613471 -3.26542 0
M  V30 12504 H 1151.3 -2.05851 -3.03349 0
M  V30 12505 H 1150.95 -0.553261 -4.99948 0
M  V30 12506 H 1150.65 -2.25688 -5.4253 0
M  V30 12507 H 1152.17 -1.47047 -5.92629 0
M  V30 12508 H 1153.59 -3.35071 -4.65188 0
M  V30 12509 H 1151.98 -4.09585 -4.38589 0
M  V30 12510 H 1153.05 -3.80802 -3.00196 0
M  V30 12511 N 1154.4 1.08748 -1.14068 0
M  V30 12512 C 1155.81 1.33125 -0.880341 0
M  V30 12513 C 1156.01 1.9569 0.480396 0
M  V30 12514 O 1155.07 2.2077 1.22543 0
M  V30 12515 C 1156.38 2.23618 -2.01036 0
M  V30 12516 C 1157.93 2.37108 -2.04326 0
M  V30 12517 C 1158.4 3.30941 -3.1661 0
M  V30 12518 N 1159.9 3.38517 -3.16166 0
M  V30 12519 C 1160.63 4.11142 -3.99687 0
M  V30 12520 N 1160.13 4.86505 -4.93239 0
M  V30 12521 N 1161.92 4.06938 -3.87761 0
M  V30 12522 H 1154.07 0.665164 -2.01716 0
M  V30 12523 H 1156.33 0.355612 -0.878774 0
M  V30 12524 H 1156.04 1.84885 -2.99183 0
M  V30 12525 H 1155.91 3.24056 -1.93049 0
M  V30 12526 H 1158.3 2.75101 -1.06787 0
M  V30 12527 H 1158.38 1.36424 -2.16384 0
M  V30 12528 H 1158.03 2.93669 -4.14392 0
M  V30 12529 H 1157.96 4.31545 -3.01789 0
M  V30 12530 H 1160.45 2.84786 -2.48405 0
M  V30 12531 H 1160.76 5.39372 -5.53441 0
M  V30 12532 H 1159.1 4.8557 -4.9724 0
M  V30 12533 H 1162.3 3.47166 -3.13996 0
M  V30 12534 H 1162.47 4.63275 -4.53079 0
M  V30 12535 N 1155.87 0.935264 1.26849 0
M  V30 12536 C 1157.1 0.596249 1.98122 0
M  V30 12537 C 1157.52 -0.827452 1.69702 0
M  V30 12538 O 1156.87 -1.55095 0.961864 0
M  V30 12539 C 1156.93 0.821773 3.52036 0
M  V30 12540 O 1156.65 2.18947 3.79465 0
M  V30 12541 C 1158.15 0.492498 4.40556 0
M  V30 12542 H 1155.37 0.225242 0.632066 0
M  V30 12543 H 1157.91 1.25435 1.61512 0
M  V30 12544 H 1156.07 0.210363 3.86828 0
M  V30 12545 H 1156.48 2.24509 4.74021 0
M  V30 12546 H 1157.95 0.700953 5.47531 0
M  V30 12547 H 1158.43 -0.57228 4.35456 0
M  V30 12548 H 1159.04 1.08238 4.11296 0
M  V30 12549 N 1157.35 -1.41121 0.701616 0
M  V30 12550 C 1158.26 -2.34565 0.0407815 0
M  V30 12551 C 1159.28 -1.56555 -0.75937 0
M  V30 12552 O 1160.45 -1.89008 -0.695542 0
M  V30 12553 C 1157.52 -3.35347 -0.879954 0
M  V30 12554 C 1156.58 -4.29241 -0.0713279 0
M  V30 12555 C 1155.81 -5.25209 -0.948211 0
M  V30 12556 O 1156.04 -5.26781 -2.18766 0
M  V30 12557 O 1154.97 -6.00605 -0.394657 0
M  V30 12558 H 1158.8 -2.92666 0.811188 0
M  V30 12559 H 1156.38 -1.42077 0.461991 0
M  V30 12560 H 1158.26 -3.9719 -1.40776 0
M  V30 12561 H 1156.94 -2.7968 -1.62975 0
M  V30 12562 H 1155.85 -3.70727 0.50122 0
M  V30 12563 H 1157.18 -4.88022 0.639935 0
M  V30 12564 N 1158.83 -0.446794 -1.51134 0
M  V30 12565 C 1160.24 0.0141132 -1.86695 0
M  V30 12566 C 1160.59 1.41095 -1.36333 0
M  V30 12567 O 1159.72 2.04139 -0.718068 0
M  V30 12568 C 1160.31 0.0323866 -3.38785 0
M  V30 12569 C 1158.87 0.437737 -3.73846 0
M  V30 12570 C 1158.02 -0.363436 -2.74908 0
M  V30 12571 H 1160.97 -0.66221 -1.44224 0
M  V30 12572 H 1160.99 0.839865 -3.71115 0
M  V30 12573 H 1160.5 -0.984374 -3.75409 0
M  V30 12574 H 1158.6 1.45975 -3.42815 0
M  V30 12575 H 1158.72 0.155964 -4.78846 0
M  V30 12576 H 1157.08 0.179566 -2.54066 0
M  V30 12577 H 1157.86 -1.37925 -3.14375 0
M  V30 12578 N 1160.31 1.56586 -0.178487 0
M  V30 12579 C 1161.27 2.17091 0.73512 0
M  V30 12580 C 1162.27 1.12088 1.15295 0
M  V30 12581 O 1163.46 1.37563 1.06874 0
M  V30 12582 C 1160.59 2.75957 2.00151 0
M  V30 12583 H 1161.79 2.99176 0.208272 0
M  V30 12584 H 1159.34 1.56138 0.0710967 0
M  V30 12585 H 1160.07 1.97626 2.57127 0
M  V30 12586 H 1159.86 3.52809 1.7108 0
M  V30 12587 H 1161.35 3.2247 2.65335 0
M  V30 12588 N 1161.79 -0.095206 1.57312 0
M  V30 12589 C 1162.73 -1.11551 2.02052 0
M  V30 12590 C 1163.7 -1.39808 0.896818 0
M  V30 12591 O 1164.89 -1.51273 1.1628 0
M  V30 12592 C 1162.03 -2.43056 2.44985 0
M  V30 12593 C 1161.14 -2.21531 3.70875 0
M  V30 12594 C 1160.28 -3.46434 4.02687 0
M  V30 12595 C 1159.32 -3.2017 5.21687 0
M  V30 12596 N 1158.45 -4.37339 5.49253 0
M  V30 12597 H 1163.29 -0.727 2.88996 0
M  V30 12598 H 1160.83 -0.347441 1.42938 0
M  V30 12599 H 1162.79 -3.19803 2.67921 0
M  V30 12600 H 1161.42 -2.79754 1.61051 0
M  V30 12601 H 1160.47 -1.35587 3.55416 0
M  V30 12602 H 1161.78 -1.98116 4.57768 0
M  V30 12603 H 1160.94 -4.31589 4.26399 0
M  V30 12604 H 1159.67 -3.72904 3.14315 0
M  V30 12605 H 1158.68 -2.33409 4.97796 0
M  V30 12606 H 1159.9 -2.95047 6.11657 0
M  V30 12607 H 1157.85 -4.63885 4.6384 0
M  V30 12608 H 1157.77 -4.17114 6.30517 0
M  V30 12609 H 1159.04 -5.23559 5.775 0
M  V30 12610 N 1163.26 -1.53291 -0.366026 0
M  V30 12611 C 1164.51 -1.69702 -1.11036 0
M  V30 12612 C 1164.84 -0.44728 -1.88979 0
M  V30 12613 O 1164.12 0.55542 -1.86401 0
M  V30 12614 C 1164.4 -2.94661 -2.06995 0
M  V30 12615 C 1164.25 -4.29791 -1.32663 0
M  V30 12616 C 1165.57 -3.15219 -3.07123 0
M  V30 12617 H 1162.69 -0.617525 -0.402284 0
M  V30 12618 H 1165.33 -1.85929 -0.391223 0
M  V30 12619 H 1163.48 -2.80958 -2.68318 0
M  V30 12620 H 1165.16 -4.55305 -0.741266 0
M  V30 12621 H 1163.4 -4.29223 -0.628484 0
M  V30 12622 H 1164.07 -5.13359 -2.02896 0
M  V30 12623 H 1166.55 -3.28105 -2.55903 0
M  V30 12624 H 1165.42 -4.04088 -3.71489 0
M  V30 12625 H 1165.68 -2.30479 -3.77269 0
M  V30 12626 N 1164.74 0.6258 -1.44643 0
M  V30 12627 C 1165.68 1.75056 -1.46392 0
M  V30 12628 C 1166.65 1.59376 -0.322179 0
M  V30 12629 O 1167.84 1.81187 -0.519956 0
M  V30 12630 C 1164.96 3.12689 -1.30166 0
M  V30 12631 C 1164.01 3.47005 -2.47972 0
M  V30 12632 S 1164.84 3.43885 -4.10491 0
M  V30 12633 C 1166 4.84129 -3.96698 0
M  V30 12634 H 1166.23 1.73306 -2.41562 0
M  V30 12635 H 1163.77 0.800879 -1.32005 0
M  V30 12636 H 1165.72 3.9211 -1.21492 0
M  V30 12637 H 1164.38 3.11972 -0.364982 0
M  V30 12638 H 1163.58 4.47171 -2.32496 0
M  V30 12639 H 1163.18 2.75059 -2.53414 0
M  V30 12640 H 1165.47 5.73488 -3.60718 0
M  V30 12641 H 1166.41 5.0466 -4.96713 0
M  V30 12642 H 1166.82 4.58954 -3.28666 0
M  V30 12643 N 1166.22 1.31629 0.866686 0
M  V30 12644 C 1167.5 1.12136 1.60265 0
M  V30 12645 C 1167.88 -0.322729 2.08618 0
M  V30 12646 O 1167.23 -1.31738 1.86701 0
M  V30 12647 C 1167.44 2.13845 2.7581 0
M  V30 12648 C 1168.78 2.46541 3.45692 0
M  V30 12649 O 1169.81 2.12298 2.86021 0
M  V30 12650 O 1168.67 3.05194 4.53342 0
M  V30 12651 H 1165.76 0.431923 0.705246 0
M  V30 12652 H 1168.31 1.43119 0.911863 0
M  V30 12653 H 1167.08 3.10967 2.37518 0
M  V30 12654 H 1166.7 1.83786 3.52574 0
M  V30 12655 N 1167.7 -1.08142 1.14644 0
M  V30 12656 C 1168.63 -2.14476 0.779437 0
M  V30 12657 C 1169.61 -1.60812 -0.240454 0
M  V30 12658 O 1170.79 -1.88059 -0.128881 0
M  V30 12659 C 1167.92 -3.38333 0.157692 0
M  V30 12660 C 1166.97 -4.10754 1.14819 0
M  V30 12661 S 1167.8 -4.63227 2.68666 0
M  V30 12662 C 1168.96 -5.90367 2.07888 0
M  V30 12663 H 1169.19 -2.45276 1.68009 0
M  V30 12664 H 1166.72 -1.20292 0.967942 0
M  V30 12665 H 1168.68 -4.10038 -0.194607 0
M  V30 12666 H 1167.34 -3.05726 -0.720435 0
M  V30 12667 H 1166.53 -4.99644 0.661226 0
M  V30 12668 H 1166.14 -3.44974 1.44462 0
M  V30 12669 H 1168.43 -6.62107 1.43599 0
M  V30 12670 H 1169.37 -6.43764 2.94913 0
M  V30 12671 H 1169.78 -5.43507 1.52514 0
M  V30 12672 N 1169.18 -0.941978 -1.26351 0
M  V30 12673 C 1170.42 -0.590845 -1.94002 0
M  V30 12674 C 1170.76 0.868004 -1.73722 0
M  V30 12675 O 1170.03 1.62111 -1.07472 0
M  V30 12676 C 1170.31 -0.934901 -3.47752 0
M  V30 12677 C 1170.17 -2.44855 -3.77314 0
M  V30 12678 C 1171.49 -0.450888 -4.37784 0
M  V30 12679 H 1168.61 -0.21613 -0.704597 0
M  V30 12680 H 1171.25 -1.17634 -1.49205 0
M  V30 12681 H 1169.4 -0.436648 -3.86038 0
M  V30 12682 H 1171.07 -3.01959 -3.48738 0
M  V30 12683 H 1169.31 -2.89169 -3.23363 0
M  V30 12684 H 1169.98 -2.6398 -4.84787 0
M  V30 12685 H 1172.46 -0.878107 -4.06729 0
M  V30 12686 H 1171.34 -0.720439 -5.44152 0
M  V30 12687 H 1171.6 0.649162 -4.37308 0
M  V30 12688 N 1170.66 1.40747 -0.709091 0
M  V30 12689 C 1171.59 2.29196 -0.0130359 0
M  V30 12690 C 1172.6 1.45491 0.730487 0
M  V30 12691 O 1173.79 1.6885 0.578944 0
M  V30 12692 C 1170.89 3.23632 1.00577 0
M  V30 12693 C 1170.06 4.3616 0.329105 0
M  V30 12694 C 1169.12 5.11079 1.25239 0
M  V30 12695 O 1168.15 5.64374 0.739641 0
M  V30 12696 N 1169.35 5.1982 2.58394 0
M  V30 12697 H 1172.11 2.89574 -0.772462 0
M  V30 12698 H 1169.68 1.52046 -0.556197 0
M  V30 12699 H 1171.67 3.70622 1.62546 0
M  V30 12700 H 1170.24 2.64467 1.66661 0
M  V30 12701 H 1169.46 3.9138 -0.470683 0
M  V30 12702 H 1170.75 5.08605 -0.140856 0
M  V30 12703 H 1170.14 4.77992 3.02556 0
M  V30 12704 H 1168.7 5.7034 3.15524 0
M  V30 12705 N 1172.13 0.454803 1.50895 0
M  V30 12706 C 1173.08 -0.347769 2.28165 0
M  V30 12707 C 1174.05 -1.00158 1.32505 0
M  V30 12708 O 1175.24 -1.01715 1.61427 0
M  V30 12709 C 1172.38 -1.43315 3.13934 0
M  V30 12710 C 1171.49 -0.795736 4.24608 0
M  V30 12711 C 1170.62 -1.85763 4.9766 0
M  V30 12712 C 1169.66 -1.19959 6.0023 0
M  V30 12713 N 1168.8 -2.20361 6.66622 0
M  V30 12714 H 1173.64 0.317493 2.96304 0
M  V30 12715 H 1171.18 0.168418 1.46133 0
M  V30 12716 H 1173.13 -2.07391 3.62001 0
M  V30 12717 H 1171.76 -2.0678 2.47875 0
M  V30 12718 H 1170.82 -0.0428173 3.80376 0
M  V30 12719 H 1172.13 -0.275477 4.98039 0
M  V30 12720 H 1171.28 -2.5746 5.49363 0
M  V30 12721 H 1170.02 -2.41166 4.23899 0
M  V30 12722 H 1169.03 -0.46817 5.47803 0
M  V30 12723 H 1170.25 -0.652666 6.75956 0
M  V30 12724 H 1168.2 -2.74812 5.95663 0
M  V30 12725 H 1168.11 -1.73275 7.35875 0
M  V30 12726 H 1169.38 -2.91488 7.22949 0
M  V30 12727 N 1173.61 -1.56489 0.186789 0
M  V30 12728 C 1174.86 -1.97341 -0.454158 0
M  V30 12729 C 1175.19 -1.07337 -1.622 0
M  V30 12730 O 1174.44 -0.1107 -1.95387 0
M  V30 12731 C 1174.74 -3.44145 -0.964315 0
M  V30 12732 C 1174.41 -4.50812 0.0892734 0
M  V30 12733 C 1173.07 -4.79707 0.378794 0
M  V30 12734 C 1175.42 -5.14968 0.8036 0
M  V30 12735 C 1172.75 -5.70051 1.38776 0
M  V30 12736 C 1175.1 -6.06402 1.80166 0
M  V30 12737 C 1173.76 -6.33657 2.09847 0
M  V30 12738 H 1173.03 -0.722124 -0.166188 0
M  V30 12739 H 1175.68 -1.89412 0.282008 0
M  V30 12740 H 1173.99 -3.49103 -1.7786 0
M  V30 12741 H 1175.68 -3.73104 -1.4695 0
M  V30 12742 H 1172.27 -4.28349 -0.146552 0
M  V30 12743 H 1176.46 -4.92743 0.593147 0
M  V30 12744 H 1171.71 -5.89445 1.62373 0
M  V30 12745 H 1175.89 -6.55176 2.36045 0
M  V30 12746 H 1173.51 -7.03462 2.88175 0
M  V30 12747 N 1175.09 0.086862 -1.5736 0
M  V30 12748 C 1176.02 1.10538 -2.05678 0
M  V30 12749 C 1177 1.41281 -0.947293 0
M  V30 12750 O 1178.19 1.51169 -1.21908 0
M  V30 12751 C 1175.32 2.42302 -2.48812 0
M  V30 12752 C 1174.27 2.25948 -3.63499 0
M  V30 12753 C 1173.6 3.62961 -3.92637 0
M  V30 12754 C 1174.9 1.69319 -4.94094 0
M  V30 12755 H 1176.59 0.703371 -2.91021 0
M  V30 12756 H 1174.14 0.336895 -1.40004 0
M  V30 12757 H 1176.09 3.13833 -2.81224 0
M  V30 12758 H 1174.81 2.84454 -1.60479 0
M  V30 12759 H 1173.47 1.5686 -3.31347 0
M  V30 12760 H 1173.12 4.02656 -3.01459 0
M  V30 12761 H 1172.82 3.52862 -4.69853 0
M  V30 12762 H 1174.34 4.35946 -4.27531 0
M  V30 12763 H 1175.76 2.30699 -5.24834 0
M  V30 12764 H 1174.15 1.69957 -5.7553 0
M  V30 12765 H 1175.22 0.653318 -4.80479 0
M  V30 12766 N 1176.57 1.53483 0.357892 0
M  V30 12767 C 1177.82 1.69701 1.09754 0
M  V30 12768 C 1178.14 0.455389 1.89608 0
M  V30 12769 O 1177.41 -0.530623 1.88577 0
M  V30 12770 H 1175.99 0.62562 0.408178 0
M  V30 12771 H 1178.65 1.90696 0.402641 0
M  V30 12772 H 1177.74 2.56154 1.78302 0
M  V30 12773 N 1178.05 -0.61812 1.44973 0
M  V30 12774 C 1179.29 -1.37944 1.48658 0
M  V30 12775 C 1179.62 -1.93805 0.123749 0
M  V30 12776 O 1178.9 -1.74434 -0.860401 0
M  V30 12777 C 1179.18 -2.53515 2.55739 0
M  V30 12778 C 1179.04 -2.02918 4.01428 0
M  V30 12779 C 1180.35 -3.55674 2.59199 0
M  V30 12780 H 1177.47 -0.500223 0.541244 0
M  V30 12781 H 1180.12 -0.69774 1.76725 0
M  V30 12782 H 1178.27 -3.11669 2.31937 0
M  V30 12783 H 1179.94 -1.49494 4.36405 0
M  V30 12784 H 1178.18 -1.33999 4.12586 0
M  V30 12785 H 1178.85 -2.86181 4.72021 0
M  V30 12786 H 1181.33 -3.07343 2.80499 0
M  V30 12787 H 1180.2 -4.34042 3.36004 0
M  V30 12788 H 1180.46 -4.10601 1.63888 0
M  V30 12789 N 1179.52 -1.32087 -0.859693 0
M  V30 12790 C 1180.75 -1.25348 -1.64607 0
M  V30 12791 C 1181.17 0.179425 -1.87945 0
M  V30 12792 O 1180.52 1.11487 -1.44489 0
M  V30 12793 C 1180.57 -2.0047 -3.00822 0
M  V30 12794 O 1180.3 -3.38169 -2.7852 0
M  V30 12795 C 1181.8 -2.00694 -3.95268 0
M  V30 12796 H 1179.02 -0.432692 -0.512854 0
M  V30 12797 H 1181.56 -1.7413 -1.07234 0
M  V30 12798 H 1179.72 -1.55423 -3.54855 0
M  V30 12799 H 1180.13 -3.76553 -3.65113 0
M  V30 12800 H 1181.6 -2.57748 -4.88129 0
M  V30 12801 H 1182.08 -0.99196 -4.27851 0
M  V30 12802 H 1182.69 -2.45666 -3.47172 0
M  V30 12803 N 1181 1.07532 -1.15215 0
M  V30 12804 C 1181.95 2.16785 -0.843022 0
M  V30 12805 C 1182.94 1.68411 0.182802 0
M  V30 12806 O 1184.15 1.7996 0.0380164 0
M  V30 12807 H 1180.52 0.707465 -0.254945 0
M  V30 12808 H 1182.5 2.40078 -1.77215 0
M  V30 12809 C 1181.24 3.45967 -0.346699 0
M  V30 12810 H 1180.57 3.83574 -1.12744 0
M  V30 12811 H 1182.01 4.23663 -0.169039 0
M  V30 12812 C 1180.47 3.23768 0.931437 0
M  V30 12813 O 1181 3.48179 2.00336 0
M  V30 12814 N 1179.2 2.77264 0.870217 0
M  V30 12815 H 1178.75 2.576 -0.00226223 0
M  V30 12816 H 1178.71 2.6279 1.72594 0
M  V30 12817 N 1182.48 0.948665 1.2585 0
M  V30 12818 C 1183.71 0.617229 1.97479 0
M  V30 12819 C 1184.12 -0.809406 1.7057 0
M  V30 12820 O 1183.48 -1.54066 0.97826 0
M  V30 12821 C 1183.53 0.859065 3.51144 0
M  V30 12822 O 1183.25 2.2296 3.77121 0
M  V30 12823 C 1184.75 0.539197 4.40009 0
M  V30 12824 H 1181.97 0.231933 0.629641 0
M  V30 12825 H 1184.52 1.27141 1.60173 0
M  V30 12826 H 1182.67 0.25138 3.86584 0
M  V30 12827 H 1183.09 2.29524 4.71613 0
M  V30 12828 H 1184.56 0.758986 5.46757 0
M  V30 12829 H 1185.04 -0.526062 4.36038 0
M  V30 12830 H 1185.64 1.12594 4.10125 0
M  V30 12831 N 1183.96 -1.40369 0.716545 0
M  V30 12832 C 1185.21 -2.00101 0.253452 0
M  V30 12833 C 1185.52 -1.57471 -1.16027 0
M  V30 12834 O 1186.73 -2.09909 -1.72193 0
M  V30 12835 C 1185.18 -3.57645 0.402213 0
M  V30 12836 C 1184.79 -4.09248 1.82264 0
M  V30 12837 C 1186.53 -4.245 -3.88526e-05 0
M  V30 12838 C 1184.44 -5.59299 1.92193 0
M  V30 12839 H 1183.37 -0.748488 0.0910047 0
M  V30 12840 H 1186.02 -1.60595 0.887772 0
M  V30 12841 H 1184.4 -3.94857 -0.300706 0
M  V30 12842 H 1185.58 -3.83412 2.55601 0
M  V30 12843 H 1183.89 -3.54993 2.17644 0
M  V30 12844 H 1186.49 -5.34673 0.0534202 0
M  V30 12845 H 1186.83 -4.03046 -1.04208 0
M  V30 12846 H 1187.37 -3.92398 0.65336 0
M  V30 12847 H 1184.11 -5.85608 2.94522 0
M  V30 12848 H 1183.63 -5.86997 1.23268 0
M  V30 12849 H 1185.3 -6.24416 1.6945 0
M  V30 12850 N 1185.44 -0.462799 -1.50652 0
M  V30 12851 C 1186.71 0.156221 -1.94975 0
M  V30 12852 C 1187.09 1.5775 -1.40279 0
M  V30 12853 O 1186.44 2.20473 -0.600323 0
M  V30 12854 C 1186.65 0.108008 -3.48833 0
M  V30 12855 C 1188 0.301013 -4.23532 0
M  V30 12856 O 1189.02 0.184973 -3.55719 0
M  V30 12857 O 1187.88 0.534457 -5.4388 0
M  V30 12858 H 1184.98 0.116182 -0.818798 0
M  V30 12859 H 1187.52 -0.522607 -1.61453 0
M  V30 12860 H 1186.29 -0.884634 -3.81169 0
M  V30 12861 H 1185.92 0.828653 -3.88869 0
M  V30 12862 N 1186.91 1.56388 -0.195085 0
M  V30 12863 C 1188.14 2.0167 0.448637 0
M  V30 12864 C 1188.55 1.07439 1.55736 0
M  V30 12865 O 1187.9 0.071441 1.83561 0
M  V30 12866 C 1187.96 3.43348 1.06547 0
M  V30 12867 C 1187.62 4.569 0.0954901 0
M  V30 12868 C 1188.62 5.15232 -0.695116 0
M  V30 12869 C 1186.3 5.02298 -0.0155889 0
M  V30 12870 C 1188.3 6.1741 -1.58377 0
M  V30 12871 C 1185.98 6.0432 -0.907799 0
M  V30 12872 C 1186.98 6.6175 -1.69045 0
M  V30 12873 O 1186.67 7.6179 -2.56771 0
M  V30 12874 H 1186.4 0.665805 0.116962 0
M  V30 12875 H 1188.96 2.03182 -0.301062 0
M  V30 12876 H 1187.19 3.38823 1.86376 0
M  V30 12877 H 1188.88 3.72438 1.61385 0
M  V30 12878 H 1189.64 4.81026 -0.619604 0
M  V30 12879 H 1185.52 4.57293 0.583424 0
M  V30 12880 H 1189.06 6.62164 -2.1951 0
M  V30 12881 H 1184.96 6.37949 -0.984427 0
M  V30 12882 H 1185.73 7.79209 -2.50551 0
M  V30 12883 N 1188.39 -0.0785156 1.57404 0
M  V30 12884 C 1189.34 -1.10077 1.99668 0
M  V30 12885 C 1190.33 -1.34855 0.87767 0
M  V30 12886 O 1191.52 -1.35268 1.14156 0
M  V30 12887 C 1188.65 -2.41641 2.43854 0
M  V30 12888 C 1187.73 -2.20166 3.62475 0
M  V30 12889 N 1188.12 -1.68602 4.76872 0
M  V30 12890 C 1186.42 -2.50666 3.68894 0
M  V30 12891 C 1187.12 -1.61785 5.58749 0
M  V30 12892 N 1186.1 -2.07595 5.02399 0
M  V30 12893 H 1189.9 -0.695297 2.85557 0
M  V30 12894 H 1187.42 -0.285694 1.59867 0
M  V30 12895 H 1189.41 -3.15629 2.72367 0
M  V30 12896 H 1188.07 -2.8291 1.59348 0
M  V30 12897 H 1189.08 -1.37561 4.99297 0
M  V30 12898 H 1185.76 -2.95348 2.95087 0
M  V30 12899 H 1187.15 -1.22828 6.60578 0
M  V30 12900 N 1189.87 -1.5367 -0.349747 0
M  V30 12901 C 1190.82 -1.81223 -1.42922 0
M  V30 12902 C 1191.79 -0.657536 -1.52531 0
M  V30 12903 O 1192.97 -0.90134 -1.68168 0
M  V30 12904 C 1190.11 -2.022 -2.79659 0
M  V30 12905 C 1189.23 -3.29915 -2.78891 0
M  V30 12906 C 1188.36 -3.40993 -4.07305 0
M  V30 12907 C 1187.4 -4.6268 -4.00741 0
M  V30 12908 N 1186.54 -4.70826 -5.20833 0
M  V30 12909 H 1191.38 -2.73328 -1.18727 0
M  V30 12910 H 1188.91 -1.35386 -0.57525 0
M  V30 12911 H 1190.87 -2.12351 -3.59114 0
M  V30 12912 H 1189.5 -1.13416 -3.0222 0
M  V30 12913 H 1188.55 -3.28637 -1.91577 0
M  V30 12914 H 1189.87 -4.19459 -2.69917 0
M  V30 12915 H 1189.02 -3.50542 -4.95182 0
M  V30 12916 H 1187.76 -2.49493 -4.19052 0
M  V30 12917 H 1186.76 -4.53215 -3.11249 0
M  V30 12918 H 1187.99 -5.55538 -3.90582 0
M  V30 12919 H 1185.93 -3.82233 -5.33136 0
M  V30 12920 H 1185.85 -5.54297 -5.14092 0
M  V30 12921 H 1187.12 -4.84677 -6.10499 0
M  V30 12922 N 1191.35 0.610423 -1.45298 0
M  V30 12923 C 1192.58 1.39621 -1.52688 0
M  V30 12924 C 1192.99 1.88133 -0.158535 0
M  V30 12925 O 1192.35 1.62051 0.839396 0
M  V30 12926 C 1192.4 2.60261 -2.50891 0
M  V30 12927 O 1192.12 2.13766 -3.82408 0
M  V30 12928 C 1193.62 3.53154 -2.6795 0
M  V30 12929 H 1190.84 0.427493 -0.517195 0
M  V30 12930 H 1193.39 0.744701 -1.90459 0
M  V30 12931 H 1191.54 3.2146 -2.162 0
M  V30 12932 H 1191.95 2.92128 -4.35616 0
M  V30 12933 H 1193.43 4.34355 -3.40647 0
M  V30 12934 H 1193.91 4.03311 -1.73888 0
M  V30 12935 H 1194.51 2.9781 -3.03627 0
M  V30 12936 N 1192.83 1.32541 0.852676 0
M  V30 12937 C 1193.76 1.24254 1.97694 0
M  V30 12938 C 1194.74 0.125971 1.69633 0
M  V30 12939 O 1195.92 0.31347 1.91653 0
M  V30 12940 C 1193.05 0.966874 3.3357 0
M  V30 12941 C 1192.01 2.0449 3.75989 0
M  V30 12942 C 1191.33 1.6216 5.09518 0
M  V30 12943 C 1192.63 3.46013 3.91244 0
M  V30 12944 H 1194.33 2.18317 2.04886 0
M  V30 12945 H 1191.87 1.05101 0.984371 0
M  V30 12946 H 1193.83 0.895444 4.11776 0
M  V30 12947 H 1192.55 -0.0093893 3.26599 0
M  V30 12948 H 1191.21 2.10651 3.00036 0
M  V30 12949 H 1190.86 0.632729 4.99005 0
M  V30 12950 H 1190.56 2.3429 5.38871 0
M  V30 12951 H 1192.08 1.56457 5.90215 0
M  V30 12952 H 1193.49 3.4243 4.59799 0
M  V30 12953 H 1191.89 4.1651 4.32017 0
M  V30 12954 H 1192.96 3.8553 2.941 0
M  V30 12955 N 1194.3 -1.0692 1.15784 0
M  V30 12956 C 1195.27 -2.12407 0.861167 0
M  V30 12957 C 1196.27 -1.6018 -0.141031 0
M  V30 12958 O 1197.46 -1.73972 0.0891192 0
M  V30 12959 C 1194.59 -3.39693 0.286636 0
M  V30 12960 H 1195.78 -2.40157 1.79623 0
M  V30 12961 H 1193.34 -1.22881 0.965916 0
M  V30 12962 H 1194.07 -3.17587 -0.656417 0
M  V30 12963 H 1193.86 -3.78903 1.0087 0
M  V30 12964 H 1195.35 -4.17488 0.0967971 0
M  V30 12965 N 1195.78 -0.955326 -1.25345 0
M  V30 12966 C 1197.03 -0.610484 -1.93079 0
M  V30 12967 C 1197.36 0.852591 -1.74817 0
M  V30 12968 O 1196.61 1.6272 -1.08723 0
M  V30 12969 C 1196.91 -0.916173 -3.45458 0
M  V30 12970 C 1196.58 -2.36539 -3.83875 0
M  V30 12971 C 1195.24 -2.76152 -3.94073 0
M  V30 12972 C 1197.59 -3.30652 -4.02888 0
M  V30 12973 C 1194.92 -4.08944 -4.20692 0
M  V30 12974 C 1197.27 -4.63057 -4.31 0
M  V30 12975 C 1195.94 -5.02464 -4.39415 0
M  V30 12976 H 1195.21 -0.223392 -0.706525 0
M  V30 12977 H 1197.85 -1.20449 -1.48877 0
M  V30 12978 H 1196.16 -0.23978 -3.91066 0
M  V30 12979 H 1197.85 -0.627929 -3.96053 0
M  V30 12980 H 1194.44 -2.04819 -3.76493 0
M  V30 12981 H 1198.63 -3.01237 -3.94423 0
M  V30 12982 H 1193.88 -4.39118 -4.25423 0
M  V30 12983 H 1198.06 -5.3596 -4.44657 0
M  V30 12984 H 1195.69 -6.05386 -4.59795 0
M  V30 12985 N 1197.26 1.39987 -0.723979 0
M  V30 12986 C 1198.54 1.94637 -0.1939 0
M  V30 12987 C 1198.92 1.66156 1.30212 0
M  V30 12988 O 1198.27 0.983783 2.06238 0
M  V30 12989 C 1198.48 3.4517 -0.515652 0
M  V30 12990 C 1199.82 4.22113 -0.458919 0
M  V30 12991 O 1200.85 3.53318 -0.452198 0
M  V30 12992 O 1199.71 5.44695 -0.443783 0
M  V30 12993 H 1196.8 0.826394 -0.0316615 0
M  V30 12994 H 1199.35 1.49548 -0.802085 0
M  V30 12995 H 1198.12 3.5929 -1.55004 0
M  V30 12996 H 1197.74 3.97413 0.122067 0
M  V30 12997 N 1198.74 0.470782 1.50404 0
M  V30 12998 C 1200.15 0.0155901 1.86693 0
M  V30 12999 C 1200.5 -1.38908 1.38561 0
M  V30 13000 O 1199.63 -2.02971 0.750454 0
M  V30 13001 C 1200.22 0.0215152 3.38793 0
M  V30 13002 C 1198.78 -0.378206 3.74495 0
M  V30 13003 C 1197.93 0.407126 2.74295 0
M  V30 13004 H 1200.88 0.68507 1.43152 0
M  V30 13005 H 1200.9 -0.780717 3.72404 0
M  V30 13006 H 1200.41 1.04397 3.73795 0
M  V30 13007 H 1198.51 -1.40503 3.45094 0
M  V30 13008 H 1198.63 -0.0797643 4.79034 0
M  V30 13009 H 1196.99 -0.139123 2.5432 0
M  V30 13010 H 1197.77 1.42909 3.12141 0
M  V30 13011 N 1200.22 -1.56282 0.203376 0
M  V30 13012 C 1201.16 -2.19473 -0.714164 0
M  V30 13013 C 1202.13 -1.14454 -1.20372 0
M  V30 13014 O 1203.32 -1.42739 -1.26611 0
M  V30 13015 C 1200.46 -2.86451 -1.92457 0
M  V30 13016 C 1199.57 -4.06017 -1.47561 0
M  V30 13017 C 1198.71 -4.60829 -2.64216 0
M  V30 13018 C 1197.75 -5.72734 -2.15967 0
M  V30 13019 N 1196.88 -6.21916 -3.25829 0
M  V30 13020 H 1201.72 -2.97523 -0.168558 0
M  V30 13021 H 1199.26 -1.46926 -0.0714525 0
M  V30 13022 H 1201.22 -3.23459 -2.63496 0
M  V30 13023 H 1199.85 -2.10951 -2.44335 0
M  V30 13024 H 1198.9 -3.74617 -0.660784 0
M  V30 13025 H 1200.21 -4.8693 -1.08168 0
M  V30 13026 H 1199.37 -5.00185 -3.43366 0
M  V30 13027 H 1198.11 -3.7904 -3.06887 0
M  V30 13028 H 1197.11 -5.32899 -1.35273 0
M  V30 13029 H 1198.34 -6.56346 -1.74316 0
M  V30 13030 H 1196.28 -5.43047 -3.68016 0
M  V30 13031 H 1196.2 -6.97904 -2.90631 0
M  V30 13032 H 1197.47 -6.65927 -4.05168 0
M  V30 13033 N 1201.7 0.070167 -1.57444 0
M  V30 13034 C 1202.64 1.08322 -2.03801 0
M  V30 13035 C 1203.61 1.38364 -0.918946 0
M  V30 13036 O 1204.8 1.49404 -1.18672 0
M  V30 13037 C 1201.94 2.39128 -2.48821 0
M  V30 13038 C 1201.05 2.15603 -3.74352 0
M  V30 13039 C 1200.19 3.39984 -4.08148 0
M  V30 13040 C 1199.22 3.1183 -5.26715 0
M  V30 13041 N 1198.36 4.28546 -5.56141 0
M  V30 13042 H 1203.2 0.680931 -2.90116 0
M  V30 13043 H 1200.74 0.324657 -1.43473 0
M  V30 13044 H 1202.7 3.15501 -2.72975 0
M  V30 13045 H 1201.33 2.77157 -1.65481 0
M  V30 13046 H 1200.38 1.29915 -3.57528 0
M  V30 13047 H 1201.69 1.90808 -4.60862 0
M  V30 13048 H 1200.84 4.2475 -4.33211 0
M  V30 13049 H 1199.58 3.67856 -3.20208 0
M  V30 13050 H 1198.59 2.2546 -5.01446 0
M  V30 13051 H 1199.81 2.85278 -6.16273 0
M  V30 13052 H 1197.76 4.56447 -4.71161 0
M  V30 13053 H 1197.68 4.0703 -6.37073 0
M  V30 13054 H 1198.94 5.14305 -5.85757 0
M  V30 13055 N 1203.17 1.53854 0.341593 0
M  V30 13056 C 1204.42 1.70856 1.07948 0
M  V30 13057 C 1204.74 0.475474 1.89114 0
M  V30 13058 O 1204.01 -0.510592 1.89129 0
M  V30 13059 H 1202.59 0.629914 0.401519 0
M  V30 13060 H 1205.25 1.91112 0.382393 0
M  V30 13061 H 1204.35 2.5803 1.75575 0
M  V30 13062 N 1204.65 -0.602709 1.4562 0
M  V30 13063 C 1205.9 -1.36158 1.49891 0
M  V30 13064 C 1206.23 -1.93977 0.142581 0
M  V30 13065 O 1205.48 -1.75822 -0.859374 0
M  V30 13066 C 1205.78 -2.52474 2.52966 0
M  V30 13067 C 1205.45 -2.12772 3.97541 0
M  V30 13068 C 1204.11 -2.01658 4.36907 0
M  V30 13069 C 1206.46 -1.8186 4.88443 0
M  V30 13070 C 1203.79 -1.57862 5.65063 0
M  V30 13071 C 1206.14 -1.39548 6.17016 0
M  V30 13072 C 1204.8 -1.26997 6.55308 0
M  V30 13073 H 1204.07 -0.498236 0.54849 0
M  V30 13074 H 1206.72 -0.680738 1.78992 0
M  V30 13075 H 1205.03 -3.25917 2.17452 0
M  V30 13076 H 1206.72 -3.10701 2.53507 0
M  V30 13077 H 1203.31 -2.22349 3.66413 0
M  V30 13078 H 1207.5 -1.89341 4.58763 0
M  V30 13079 H 1202.75 -1.46771 5.93522 0
M  V30 13080 H 1206.93 -1.14677 6.86893 0
M  V30 13081 H 1204.55 -0.928346 7.5451 0
M  V30 13082 N 1206.13 -1.32992 -0.845635 0
M  V30 13083 C 1207.38 -1.25258 -1.60256 0
M  V30 13084 C 1207.73 0.181685 -1.9154 0
M  V30 13085 O 1207.02 1.12193 -1.55316 0
M  V30 13086 C 1207.22 -2.05454 -2.92444 0
M  V30 13087 C 1207.05 -3.56533 -2.7407 0
M  V30 13088 C 1205.82 -4.25857 -2.71981 0
M  V30 13089 C 1208.01 -4.51003 -2.47186 0
M  V30 13090 N 1206 -5.6293 -2.44913 0
M  V30 13091 C 1207.37 -5.75917 -2.29607 0
M  V30 13092 C 1209.42 -4.40162 -2.32727 0
M  V30 13093 C 1208.13 -6.91214 -1.99037 0
M  V30 13094 C 1210.15 -5.55267 -2.0355 0
M  V30 13095 C 1209.51 -6.79186 -1.86777 0
M  V30 13096 H 1205.61 -0.513536 -0.58975 0
M  V30 13097 H 1208.2 -1.67458 -0.993277 0
M  V30 13098 H 1206.37 -1.65585 -3.51335 0
M  V30 13099 H 1208.1 -1.89543 -3.57569 0
M  V30 13100 H 1204.85 -3.78064 -2.85245 0
M  V30 13101 H 1205.28 -6.3517 -2.34282 0
M  V30 13102 H 1209.92 -3.44998 -2.4441 0
M  V30 13103 H 1207.64 -7.86381 -1.86091 0
M  V30 13104 H 1211.22 -5.48811 -1.93127 0
M  V30 13105 H 1210.1 -7.66748 -1.64523 0
M  V30 13106 N 1207.61 1.06304 -1.1635 0
M  V30 13107 C 1208.85 1.80686 -0.955614 0
M  V30 13108 C 1209.21 1.85171 0.507525 0
M  V30 13109 O 1210.41 2.55531 0.834103 0
M  V30 13110 C 1208.68 3.21276 -1.56577 0
M  V30 13111 S 1210.24 4.12274 -1.50251 0
M  V30 13112 H 1207.06 0.622426 -0.343666 0
M  V30 13113 H 1209.66 1.27628 -1.48092 0
M  V30 13114 H 1208.37 3.15607 -2.62336 0
M  V30 13115 H 1207.9 3.7941 -1.03978 0
M  V30 13116 H 1209.91 4.93647 -0.502703 0
M  V30 13117 N 1209.09 0.96196 1.24836 0
M  V30 13118 C 1210.02 0.445329 2.24832 0
M  V30 13119 C 1211.03 -0.442797 1.56663 0
M  V30 13120 O 1212.22 -0.249896 1.76742 0
M  V30 13121 C 1209.32 -0.376953 3.36797 0
M  V30 13122 C 1208.49 0.499908 4.34534 0
M  V30 13123 C 1207.55 -0.265402 5.2553 0
M  V30 13124 O 1206.58 0.338707 5.68191 0
M  V30 13125 N 1207.78 -1.55654 5.59243 0
M  V30 13126 H 1210.54 1.30505 2.69793 0
M  V30 13127 H 1208.11 0.833137 1.38818 0
M  V30 13128 H 1210.1 -0.896831 3.94638 0
M  V30 13129 H 1208.67 -1.13757 2.91167 0
M  V30 13130 H 1207.89 1.20082 3.75465 0
M  V30 13131 H 1209.18 1.09814 4.96808 0
M  V30 13132 H 1208.57 -2.06916 5.265 0
M  V30 13133 H 1207.13 -2.02223 6.19636 0
M  V30 13134 N 1210.56 -1.39601 0.731392 0
M  V30 13135 C 1211.49 -2.33268 0.1041 0
M  V30 13136 C 1212.47 -1.53724 -0.728219 0
M  V30 13137 O 1213.66 -1.82131 -0.673933 0
M  V30 13138 C 1210.79 -3.37802 -0.806646 0
M  V30 13139 C 1209.74 -4.27928 -0.0787588 0
M  V30 13140 C 1209.07 -5.23131 -1.10628 0
M  V30 13141 C 1210.37 -5.11086 1.07651 0
M  V30 13142 H 1212.06 -2.85975 0.886496 0
M  V30 13143 H 1209.61 -1.375 0.427746 0
M  V30 13144 H 1211.56 -4.02278 -1.25499 0
M  V30 13145 H 1210.29 -2.83527 -1.62112 0
M  V30 13146 H 1208.95 -3.64926 0.349926 0
M  V30 13147 H 1208.59 -4.65152 -1.91422 0
M  V30 13148 H 1208.29 -5.84277 -0.624043 0
M  V30 13149 H 1209.82 -5.90483 -1.5544 0
M  V30 13150 H 1211.23 -5.68927 0.706781 0
M  V30 13151 H 1209.63 -5.81356 1.48814 0
M  V30 13152 H 1210.7 -4.46131 1.89988 0
M  V30 13153 N 1212.04 -0.478751 -1.50152 0
M  V30 13154 C 1212.97 0.301182 -2.31549 0
M  V30 13155 C 1213.95 0.983276 -1.38801 0
M  V30 13156 O 1215.14 0.978973 -1.67719 0
M  V30 13157 C 1212.27 1.3791 -3.18745 0
M  V30 13158 C 1211.22 0.818175 -4.20107 0
M  V30 13159 C 1210.55 1.99496 -4.9609 0
M  V30 13160 C 1211.85 -0.17574 -5.22004 0
M  V30 13161 H 1213.54 -0.378188 -2.97002 0
M  V30 13162 H 1211.09 -0.183323 -1.42828 0
M  V30 13163 H 1213.04 1.93227 -3.74488 0
M  V30 13164 H 1211.77 2.08735 -2.51192 0
M  V30 13165 H 1210.42 0.286924 -3.65475 0
M  V30 13166 H 1210.07 2.69036 -4.25004 0
M  V30 13167 H 1209.77 1.62582 -5.6466 0
M  V30 13168 H 1211.3 2.55288 -5.54671 0
M  V30 13169 H 1212.71 0.288513 -5.72574 0
M  V30 13170 H 1211.11 -0.459549 -5.98338 0
M  V30 13171 H 1212.18 -1.09911 -4.72279 0
M  V30 13172 N 1213.52 1.56172 -0.211661 0
M  V30 13173 C 1214.43 2.23468 0.714081 0
M  V30 13174 C 1215.45 1.23908 1.22159 0
M  V30 13175 O 1216.62 1.56693 1.26528 0
M  V30 13176 C 1213.69 2.89375 1.90953 0
M  V30 13177 C 1212.75 4.04251 1.44497 0
M  V30 13178 C 1211.98 4.67006 2.58343 0
M  V30 13179 O 1212.2 4.28721 3.76237 0
M  V30 13180 O 1211.14 5.56177 2.3011 0
M  V30 13181 H 1214.96 3.03219 0.170862 0
M  V30 13182 H 1212.55 1.49389 0.0183607 0
M  V30 13183 H 1214.43 3.3101 2.60787 0
M  V30 13184 H 1213.11 2.12591 2.44104 0
M  V30 13185 H 1212.01 3.67205 0.714932 0
M  V30 13186 H 1213.35 4.82748 0.959947 0
M  V30 13187 N 1215 -0.0618163 1.57479 0
M  V30 13188 C 1216.25 -0.757569 1.87364 0
M  V30 13189 C 1216.57 -1.77607 0.805025 0
M  V30 13190 O 1215.84 -1.95202 -0.165216 0
M  V30 13191 H 1214.42 -0.28278 0.691408 0
M  V30 13192 H 1217.08 -0.0355354 1.94868 0
M  V30 13193 H 1216.18 -1.26758 2.85199 0
M  V30 13194 N 1216.48 -1.54033 -0.333429 0
M  V30 13195 C 1217.72 -1.71426 -1.0704 0
M  V30 13196 C 1218.05 -0.485496 -1.8886 0
M  V30 13197 O 1217.32 0.500555 -1.89397 0
M  V30 13198 H 1215.9 -0.632034 -0.398173 0
M  V30 13199 H 1218.56 -1.91312 -0.372252 0
M  V30 13200 H 1217.65 -2.58958 -1.74205 0
M  V30 13201 N 1217.95 0.594978 -1.45938 0
M  V30 13202 C 1218.9 1.70489 -1.5557 0
M  V30 13203 C 1219.87 1.61193 -0.400751 0
M  V30 13204 O 1221.06 1.80587 -0.615882 0
M  V30 13205 C 1218.2 3.08817 -1.54033 0
M  V30 13206 C 1217.31 3.28827 -2.80173 0
M  V30 13207 C 1216.44 4.57333 -2.70222 0
M  V30 13208 C 1215.48 4.70644 -3.91357 0
M  V30 13209 N 1214.62 5.90463 -3.79865 0
M  V30 13210 H 1219.46 1.61593 -2.50383 0
M  V30 13211 H 1217 0.787747 -1.24229 0
M  V30 13212 H 1218.96 3.88865 -1.51129 0
M  V30 13213 H 1217.59 3.1664 -0.627617 0
M  V30 13214 H 1216.64 2.42467 -2.9311 0
M  V30 13215 H 1217.95 3.34534 -3.69985 0
M  V30 13216 H 1217.1 5.45593 -2.65354 0
M  V30 13217 H 1215.84 4.54045 -1.7803 0
M  V30 13218 H 1214.85 3.80805 -3.9657 0
M  V30 13219 H 1216.07 4.75721 -4.8463 0
M  V30 13220 H 1214.02 5.88196 -2.90451 0
M  V30 13221 H 1213.94 5.97385 -4.63322 0
M  V30 13222 H 1215.2 6.81187 -3.78952 0
M  V30 13223 N 1219.43 1.33438 0.838571 0
M  V30 13224 C 1220.66 1.27951 1.62592 0
M  V30 13225 C 1221.08 -0.149502 1.88207 0
M  V30 13226 O 1220.43 -1.09174 1.46244 0
M  V30 13227 C 1220.48 2.0523 2.97595 0
M  V30 13228 O 1220.2 3.42557 2.73105 0
M  V30 13229 C 1221.71 2.06957 3.92025 0
M  V30 13230 H 1218.93 0.440796 0.505905 0
M  V30 13231 H 1221.47 1.75814 1.0445 0
M  V30 13232 H 1219.62 1.61049 3.52338 0
M  V30 13233 H 1220.04 3.82314 3.59076 0
M  V30 13234 H 1221.51 2.65481 4.83967 0
M  V30 13235 H 1221.99 1.0599 4.26219 0
M  V30 13236 H 1222.6 2.51158 3.4322 0
M  V30 13237 N 1220.91 -1.05686 1.16912 0
M  V30 13238 C 1221.86 -2.13312 0.88129 0
M  V30 13239 C 1222.83 -1.65199 -0.172783 0
M  V30 13240 O 1224.01 -1.90765 -0.0366542 0
M  V30 13241 C 1221.15 -3.42829 0.395264 0
M  V30 13242 C 1220.27 -4.04643 1.51288 0
M  V30 13243 C 1219.4 -5.22059 0.981238 0
M  V30 13244 C 1218.44 -5.75869 2.07464 0
M  V30 13245 N 1217.58 -6.84592 1.55813 0
M  V30 13246 H 1222.42 -2.37271 1.80295 0
M  V30 13247 H 1219.95 -1.16407 0.899322 0
M  V30 13248 H 1221.91 -4.17092 0.0950633 0
M  V30 13249 H 1220.54 -3.19068 -0.489445 0
M  V30 13250 H 1219.59 -3.27867 1.92891 0
M  V30 13251 H 1220.91 -4.40626 2.33774 0
M  V30 13252 H 1220.06 -6.03372 0.634586 0
M  V30 13253 H 1218.8 -4.87538 0.125754 0
M  V30 13254 H 1217.8 -4.93188 2.42992 0
M  V30 13255 H 1219.03 -6.12439 2.93419 0
M  V30 13256 H 1216.97 -6.51978 0.725283 0
M  V30 13257 H 1216.89 -7.19551 2.31911 0
M  V30 13258 H 1218.16 -7.6957 1.24025 0
M  V30 13259 N 1222.39 -0.968567 -1.24324 0
M  V30 13260 C 1223.63 -0.63879 -1.94162 0
M  V30 13261 C 1223.99 0.81112 -1.74025 0
M  V30 13262 O 1225.19 1.25116 -2.37906 0
M  V30 13263 C 1223.46 -1.00432 -3.42999 0
M  V30 13264 S 1225.02 -0.789227 -4.31644 0
M  V30 13265 H 1221.84 -0.234322 -0.671278 0
M  V30 13266 H 1224.44 -1.2457 -1.50673 0
M  V30 13267 H 1223.15 -2.05643 -3.55161 0
M  V30 13268 H 1222.68 -0.388221 -3.9148 0
M  V30 13269 H 1224.69 0.332976 -4.95082 0
M  V30 13270 N 1223.87 1.39211 -0.738786 0
M  V30 13271 C 1224.8 2.33209 -0.11647 0
M  V30 13272 C 1225.78 1.54108 0.720056 0
M  V30 13273 O 1226.96 1.82486 0.664264 0
M  V30 13274 C 1224.09 3.38226 0.78872 0
M  V30 13275 C 1223.05 4.27963 0.0560636 0
M  V30 13276 C 1222.37 5.2371 1.07852 0
M  V30 13277 C 1223.67 5.10508 -1.1036 0
M  V30 13278 H 1225.37 2.85501 -0.901649 0
M  V30 13279 H 1222.91 1.37272 -0.435032 0
M  V30 13280 H 1224.87 4.02938 1.23364 0
M  V30 13281 H 1223.59 2.84382 1.60606 0
M  V30 13282 H 1222.25 3.64735 -0.369274 0
M  V30 13283 H 1221.9 4.66161 1.88953 0
M  V30 13284 H 1221.6 5.846 0.593048 0
M  V30 13285 H 1223.12 5.91299 1.52307 0
M  V30 13286 H 1224.53 5.68544 -0.736943 0
M  V30 13287 H 1222.93 5.80558 -1.51895 0
M  V30 13288 H 1224 4.45117 -1.92352 0
M  V30 13289 N 1225.34 0.486708 1.49896 0
M  V30 13290 C 1226.59 -0.0627279 2.02003 0
M  V30 13291 C 1226.91 -1.38799 1.36967 0
M  V30 13292 O 1226.18 -1.88868 0.520173 0
M  V30 13293 H 1224.76 -0.0261718 0.746541 0
M  V30 13294 H 1227.43 0.640692 1.84068 0
M  V30 13295 H 1226.52 -0.202856 3.1144 0
M  V30 13296 N 1226.82 -1.56058 0.219941 0
M  V30 13297 C 1227.77 -2.20218 -0.690846 0
M  V30 13298 C 1228.74 -1.15725 -1.19151 0
M  V30 13299 O 1229.93 -1.44073 -1.2509 0
M  V30 13300 C 1227.07 -2.88477 -1.89408 0
M  V30 13301 C 1226.18 -4.07559 -1.43246 0
M  V30 13302 C 1225.31 -4.63605 -2.59314 0
M  V30 13303 C 1224.35 -5.74993 -2.0988 0
M  V30 13304 N 1223.49 -6.25337 -3.19214 0
M  V30 13305 H 1228.33 -2.97685 -0.136992 0
M  V30 13306 H 1225.87 -1.46994 -0.055865 0
M  V30 13307 H 1227.82 -3.26235 -2.60051 0
M  V30 13308 H 1226.45 -2.1353 -2.42084 0
M  V30 13309 H 1225.51 -3.75297 -0.621013 0
M  V30 13310 H 1226.82 -4.8805 -1.02997 0
M  V30 13311 H 1225.97 -5.03798 -3.38041 0
M  V30 13312 H 1224.71 -3.82274 -3.0285 0
M  V30 13313 H 1223.72 -5.34304 -1.29613 0
M  V30 13314 H 1224.94 -6.58158 -1.67345 0
M  V30 13315 H 1222.89 -5.4692 -3.62236 0
M  V30 13316 H 1222.8 -7.00947 -2.83213 0
M  V30 13317 H 1224.07 -6.70187 -3.98083 0
M  V30 13318 N 1228.3 0.053464 -1.57509 0
M  V30 13319 C 1229.53 0.765301 -1.92764 0
M  V30 13320 C 1229.95 1.69385 -0.817943 0
M  V30 13321 O 1229.31 1.7986 0.228075 0
M  V30 13322 C 1229.36 1.51938 -3.27028 0
M  V30 13323 O 1228.46 2.63121 -3.17555 0
M  V30 13324 H 1227.8 0.207567 -0.630723 0
M  V30 13325 H 1230.33 0.0162254 -2.04594 0
M  V30 13326 H 1230.34 1.89466 -3.6134 0
M  V30 13327 H 1229.02 0.838207 -4.07366 0
M  V30 13328 H 1227.59 2.28316 -2.94832 0
M  V30 13329 N 1229.78 1.54207 0.325255 0
M  V30 13330 C 1230.73 1.83474 1.40021 0
M  V30 13331 C 1231.7 0.681719 1.51466 0
M  V30 13332 O 1232.88 0.92798 1.66713 0
M  V30 13333 C 1230.02 2.06624 2.76407 0
M  V30 13334 C 1229.13 3.3431 2.73607 0
M  V30 13335 C 1228.27 3.4743 4.01828 0
M  V30 13336 C 1227.31 4.68997 3.93329 0
M  V30 13337 N 1226.45 4.79052 5.13277 0
M  V30 13338 H 1231.29 2.75182 1.14363 0
M  V30 13339 H 1228.82 1.36284 0.553639 0
M  V30 13340 H 1230.78 2.18037 3.5569 0
M  V30 13341 H 1229.41 1.18209 3.00377 0
M  V30 13342 H 1228.46 3.31643 1.86324 0
M  V30 13343 H 1229.77 4.237 2.6321 0
M  V30 13344 H 1228.93 3.58376 4.89542 0
M  V30 13345 H 1227.67 2.56128 4.1503 0
M  V30 13346 H 1226.67 4.58109 3.04 0
M  V30 13347 H 1227.9 5.61681 3.81695 0
M  V30 13348 H 1225.84 3.90666 5.26988 0
M  V30 13349 H 1225.76 5.62406 5.05208 0
M  V30 13350 H 1227.03 4.94328 6.02711 0
M  V30 13351 N 1231.26 -0.58723 1.46251 0
M  V30 13352 C 1232.51 -1.34294 1.51028 0
M  V30 13353 C 1232.83 -1.94329 0.161623 0
M  V30 13354 O 1232.1 -1.78309 -0.811342 0
M  V30 13355 H 1230.68 -0.498607 0.556238 0
M  V30 13356 H 1233.34 -0.688074 1.8235 0
M  V30 13357 H 1232.43 -2.15197 2.26045 0
M  V30 13358 N 1232.74 -1.33881 -0.831482 0
M  V30 13359 C 1234.15 -1.13376 -1.1233 0
M  V30 13360 C 1234.35 0.0704402 -2.01377 0
M  V30 13361 O 1233.41 0.748516 -2.4115 0
M  V30 13362 C 1234.72 -2.42484 -1.77826 0
M  V30 13363 C 1236.27 -2.4846 -1.90359 0
M  V30 13364 C 1236.74 -3.77548 -2.59272 0
M  V30 13365 N 1238.23 -3.7866 -2.66778 0
M  V30 13366 C 1238.97 -4.75258 -3.20807 0
M  V30 13367 N 1238.47 -5.82234 -3.75466 0
M  V30 13368 N 1240.26 -4.62724 -3.19128 0
M  V30 13369 H 1232.41 -2.11051 -0.238998 0
M  V30 13370 H 1234.67 -0.932893 -0.168565 0
M  V30 13371 H 1234.38 -3.30647 -1.19857 0
M  V30 13372 H 1234.25 -2.55186 -2.77777 0
M  V30 13373 H 1236.64 -1.60742 -2.47479 0
M  V30 13374 H 1236.72 -2.39693 -0.893359 0
M  V30 13375 H 1236.36 -4.65651 -2.02808 0
M  V30 13376 H 1236.29 -3.83594 -3.60781 0
M  V30 13377 H 1238.79 -3.01351 -2.28026 0
M  V30 13378 H 1239.1 -6.51968 -4.14918 0
M  V30 13379 H 1237.44 -5.85959 -3.73733 0
M  V30 13380 H 1240.63 -3.78303 -2.75688 0
M  V30 13381 H 1240.81 -5.38175 -3.60932 0
M  V30 13382 N 1234.21 1.05064 -1.1747 0
M  V30 13383 C 1235.16 2.12841 -0.89259 0
M  V30 13384 C 1236.13 1.65288 0.16402 0
M  V30 13385 O 1237.32 1.90782 0.026537 0
M  V30 13386 C 1234.46 3.42614 -0.41344 0
M  V30 13387 C 1233.57 4.03835 -1.53432 0
M  V30 13388 C 1232.7 5.21531 -1.00891 0
M  V30 13389 C 1231.74 5.74761 -2.10515 0
M  V30 13390 N 1230.88 6.83756 -1.59442 0
M  V30 13391 H 1235.72 2.36312 -1.81551 0
M  V30 13392 H 1233.26 1.15929 -0.905483 0
M  V30 13393 H 1235.21 4.17035 -0.117181 0
M  V30 13394 H 1233.84 3.19323 0.472517 0
M  V30 13395 H 1232.9 3.2684 -1.94627 0
M  V30 13396 H 1234.21 4.3938 -2.36108 0
M  V30 13397 H 1233.36 6.03027 -0.666575 0
M  V30 13398 H 1232.1 4.87464 -0.151608 0
M  V30 13399 H 1231.11 4.91893 -2.45604 0
M  V30 13400 H 1232.33 6.10875 -2.96663 0
M  V30 13401 H 1230.28 6.51584 -0.759849 0
M  V30 13402 H 1230.19 7.18311 -2.35724 0
M  V30 13403 H 1231.46 7.68901 -1.28105 0
M  V30 13404 N 1235.69 0.975146 1.23809 0
M  V30 13405 C 1236.92 0.658023 1.95841 0
M  V30 13406 C 1237.33 -0.778132 1.72458 0
M  V30 13407 O 1236.67 -1.53462 1.00971 0
M  V30 13408 C 1236.73 0.862038 3.49012 0
M  V30 13409 C 1236.4 2.27925 3.96105 0
M  V30 13410 C 1237.4 3.25755 4.05191 0
M  V30 13411 C 1235.08 2.60894 4.29231 0
M  V30 13412 C 1237.07 4.54636 4.46749 0
M  V30 13413 C 1234.76 3.89999 4.70472 0
M  V30 13414 C 1235.76 4.86682 4.79197 0
M  V30 13415 O 1235.45 6.13483 5.19513 0
M  V30 13416 H 1235.18 0.243915 0.630461 0
M  V30 13417 H 1237.73 1.30768 1.58395 0
M  V30 13418 H 1235.96 0.155209 3.86388 0
M  V30 13419 H 1237.65 0.542873 4.02253 0
M  V30 13420 H 1238.42 3.01614 3.79808 0
M  V30 13421 H 1234.3 1.86355 4.21655 0
M  V30 13422 H 1237.84 5.30101 4.53474 0
M  V30 13423 H 1233.74 4.13937 4.95304 0
M  V30 13424 H 1234.51 6.17158 5.37641 0
M  V30 13425 N 1237.17 -1.38817 0.746158 0
M  V30 13426 C 1238.58 -1.83045 0.367629 0
M  V30 13427 C 1238.93 -1.62285 -1.10263 0
M  V30 13428 O 1238.06 -1.12001 -1.85162 0
M  V30 13429 C 1238.65 -3.323 0.660482 0
M  V30 13430 C 1237.21 -3.74903 0.335318 0
M  V30 13431 C 1236.36 -2.61683 0.917446 0
M  V30 13432 H 1239.31 -1.27651 0.94291 0
M  V30 13433 H 1239.33 -3.80446 -0.0639061 0
M  V30 13434 H 1238.84 -3.47377 1.73062 0
M  V30 13435 H 1236.94 -3.65408 -0.728538 0
M  V30 13436 H 1237.06 -4.71932 0.825677 0
M  V30 13437 H 1235.42 -2.52376 0.343316 0
M  V30 13438 H 1236.2 -2.79563 1.99247 0
M  V30 13439 N 1238.65 -0.49465 -1.49636 0
M  V30 13440 C 1239.56 0.291881 -2.32777 0
M  V30 13441 C 1240.57 0.973468 -1.44221 0
M  V30 13442 O 1241.75 0.956252 -1.77251 0
M  V30 13443 C 1238.81 1.34609 -3.19502 0
M  V30 13444 C 1237.88 0.678611 -4.23903 0
M  V30 13445 C 1237.11 1.68259 -5.06483 0
M  V30 13446 O 1237.33 2.91176 -4.90482 0
M  V30 13447 O 1236.27 1.24141 -5.88959 0
M  V30 13448 H 1240.09 -0.388459 -3.01205 0
M  V30 13449 H 1237.68 -0.256086 -1.47189 0
M  V30 13450 H 1239.56 1.95617 -3.73245 0
M  V30 13451 H 1238.23 2.00947 -2.53775 0
M  V30 13452 H 1237.14 0.0289541 -3.74089 0
M  V30 13453 H 1238.47 0.0577817 -4.92166 0
M  V30 13454 N 1240.13 1.55939 -0.228214 0
M  V30 13455 C 1241.06 2.16566 0.719321 0
M  V30 13456 C 1242.04 1.11204 1.18627 0
M  V30 13457 O 1243.22 1.39495 1.2678 0
M  V30 13458 C 1240.35 2.75132 1.97536 0
M  V30 13459 C 1239.39 3.93381 1.64783 0
M  V30 13460 S 1240.23 5.29982 0.76678 0
M  V30 13461 C 1241.38 5.91989 2.03223 0
M  V30 13462 H 1241.62 2.96599 0.204035 0
M  V30 13463 H 1239.15 1.54395 -0.0128406 0
M  V30 13464 H 1241.11 3.09512 2.69652 0
M  V30 13465 H 1239.77 1.95079 2.46176 0
M  V30 13466 H 1238.96 4.32884 2.58122 0
M  V30 13467 H 1238.56 3.60181 1.00724 0
M  V30 13468 H 1240.85 6.08368 2.98152 0
M  V30 13469 H 1241.8 6.87858 1.68099 0
M  V30 13470 H 1242.21 5.20883 2.1758 0
M  V30 13471 N 1241.6 -0.0451101 1.57535 0
M  V30 13472 C 1242.88 -0.773625 1.79651 0
M  V30 13473 C 1243.26 -1.94422 0.822391 0
M  V30 13474 O 1242.61 -2.28077 -0.138913 0
M  V30 13475 C 1242.82 -1.22168 3.26919 0
M  V30 13476 C 1244.17 -1.64419 3.91474 0
M  V30 13477 O 1245.19 -1.31668 3.30971 0
M  V30 13478 O 1244.05 -2.25148 4.97967 0
M  V30 13479 H 1241.14 -0.372786 0.738214 0
M  V30 13480 H 1243.69 -0.0231245 1.69684 0
M  V30 13481 H 1242.46 -0.385302 3.89398 0
M  V30 13482 H 1242.09 -2.03269 3.41713 0
M  V30 13483 N 1243.08 -1.54377 -0.317073 0
M  V30 13484 C 1244.01 -1.8721 -1.39552 0
M  V30 13485 C 1244.99 -0.729483 -1.53664 0
M  V30 13486 O 1246.18 -0.983799 -1.67437 0
M  V30 13487 C 1243.31 -2.1052 -2.76222 0
M  V30 13488 C 1242.26 -3.26366 -2.76892 0
M  V30 13489 C 1241.59 -3.35061 -4.16699 0
M  V30 13490 C 1242.89 -4.63862 -2.40061 0
M  V30 13491 H 1244.58 -2.77532 -1.12323 0
M  V30 13492 H 1242.13 -1.33536 -0.538897 0
M  V30 13493 H 1244.08 -2.32073 -3.51739 0
M  V30 13494 H 1242.81 -1.16953 -3.04942 0
M  V30 13495 H 1241.46 -3.0471 -2.03831 0
M  V30 13496 H 1241.11 -2.39041 -4.4257 0
M  V30 13497 H 1240.81 -4.12923 -4.18053 0
M  V30 13498 H 1242.34 -3.58856 -4.94019 0
M  V30 13499 H 1243.75 -4.85252 -3.05292 0
M  V30 13500 H 1242.15 -5.44321 -2.52655 0
M  V30 13501 H 1243.22 -4.6567 -1.35202 0
M  V30 13502 N 1244.56 0.579466 -1.4656 0
M  V30 13503 C 1245.84 1.33973 -1.42515 0
M  V30 13504 C 1246.22 2.10812 -0.110317 0
M  V30 13505 O 1245.57 2.09679 0.908135 0
M  V30 13506 C 1245.78 2.26301 -2.65686 0
M  V30 13507 C 1247.12 2.88027 -3.1197 0
M  V30 13508 O 1248.15 2.36612 -2.66257 0
M  V30 13509 O 1247.01 3.81423 -3.9138 0
M  V30 13510 H 1244.1 0.602121 -0.566903 0
M  V30 13511 H 1246.65 0.600214 -1.58731 0
M  V30 13512 H 1245.42 1.68973 -3.52936 0
M  V30 13513 H 1245.04 3.07586 -2.51945 0
M  V30 13514 N 1246.04 1.3432 0.824371 0
M  V30 13515 C 1247.26 1.2982 1.61745 0
M  V30 13516 C 1247.69 -0.125298 1.87682 0
M  V30 13517 O 1247.05 -1.08658 1.45131 0
M  V30 13518 C 1247.09 2.09327 2.93623 0
M  V30 13519 O 1246.2 1.4618 3.85623 0
M  V30 13520 H 1245.54 0.445929 0.491979 0
M  V30 13521 H 1248.07 1.77101 1.02452 0
M  V30 13522 H 1248.08 2.20629 3.43201 0
M  V30 13523 H 1246.75 3.12825 2.74069 0
M  V30 13524 H 1245.33 1.43611 3.44137 0
M  V30 13525 N 1247.52 -1.0444 1.18026 0
M  V30 13526 C 1248.93 -1.29766 0.929143 0
M  V30 13527 C 1249.13 -1.97338 -0.407436 0
M  V30 13528 O 1248.19 -2.25166 -1.14265 0
M  V30 13529 C 1249.5 -2.16002 2.09197 0
M  V30 13530 C 1251.05 -2.29361 2.12985 0
M  V30 13531 C 1251.52 -3.18962 3.28675 0
M  V30 13532 N 1253.02 -3.26549 3.28512 0
M  V30 13533 C 1253.75 -3.96025 4.14671 0
M  V30 13534 N 1253.25 -4.67863 5.10956 0
M  V30 13535 N 1255.04 -3.92266 4.02597 0
M  V30 13536 H 1247.19 -0.58984 2.04046 0
M  V30 13537 H 1249.45 -0.322752 0.891367 0
M  V30 13538 H 1249.16 -1.73653 3.05839 0
M  V30 13539 H 1249.03 -3.16667 2.04943 0
M  V30 13540 H 1251.42 -2.70948 1.16924 0
M  V30 13541 H 1251.5 -1.28299 2.21298 0
M  V30 13542 H 1251.15 -2.78087 4.25006 0
M  V30 13543 H 1251.08 -4.20047 3.17598 0
M  V30 13544 H 1253.57 -2.75371 2.58804 0
M  V30 13545 H 1253.88 -5.1846 5.73079 0
M  V30 13546 H 1252.22 -4.6678 5.14919 0
M  V30 13547 H 1255.42 -3.35273 3.26665 0
M  V30 13548 H 1255.59 -4.4614 4.69961 0
M  V30 13549 N 1248.99 -0.981699 -1.2329 0
M  V30 13550 C 1249.96 -0.527992 -2.23036 0
M  V30 13551 C 1250.96 0.383083 -1.5617 0
M  V30 13552 O 1252.15 0.176595 -1.73303 0
M  V30 13553 C 1249.28 0.233501 -3.40099 0
M  V30 13554 H 1250.47 -1.40995 -2.64689 0
M  V30 13555 H 1248.03 -0.767724 -1.36146 0
M  V30 13556 H 1248.76 1.13194 -3.03904 0
M  V30 13557 H 1248.55 -0.420505 -3.89839 0
M  V30 13558 H 1250.04 0.539485 -4.14101 0
M  V30 13559 N 1250.47 1.3842 -0.753509 0
M  V30 13560 C 1251.72 2.00119 -0.309633 0
M  V30 13561 C 1252.05 1.59811 1.10863 0
M  V30 13562 O 1251.3 0.827013 1.77367 0
M  V30 13563 C 1251.6 3.55375 -0.379937 0
M  V30 13564 C 1251.27 4.15393 -1.75384 0
M  V30 13565 C 1249.93 4.31499 -2.12984 0
M  V30 13566 C 1252.28 4.48503 -2.65508 0
M  V30 13567 C 1249.61 4.78011 -3.4018 0
M  V30 13568 C 1251.96 4.96431 -3.92095 0
M  V30 13569 C 1250.63 5.10744 -4.29764 0
M  V30 13570 H 1249.9 0.732286 -0.113303 0
M  V30 13571 H 1252.54 1.65468 -0.963975 0
M  V30 13572 H 1250.85 3.90161 0.357969 0
M  V30 13573 H 1252.54 4.00996 -0.0180738 0
M  V30 13574 H 1249.13 4.03271 -1.45156 0
M  V30 13575 H 1253.32 4.35661 -2.37724 0
M  V30 13576 H 1248.57 4.87277 -3.69284 0
M  V30 13577 H 1252.75 5.21021 -4.62072 0
M  V30 13578 H 1250.38 5.46545 -5.28387 0
M  V30 13579 N 1251.95 0.502579 1.49372 0
M  V30 13580 C 1252.88 -0.264307 2.31999 0
M  V30 13581 C 1253.86 -0.96107 1.40348 0
M  V30 13582 O 1255.05 -0.952167 1.69255 0
M  V30 13583 C 1252.18 -1.32822 3.20898 0
M  V30 13584 C 1251.13 -0.751236 4.21355 0
M  V30 13585 C 1250.46 -1.91578 4.99201 0
M  V30 13586 C 1251.76 0.258764 5.21659 0
M  V30 13587 H 1253.45 0.425391 2.96363 0
M  V30 13588 H 1251 0.206022 1.42519 0
M  V30 13589 H 1252.95 -1.87245 3.77515 0
M  V30 13590 H 1251.67 -2.04712 2.54481 0
M  V30 13591 H 1250.33 -0.228743 3.65886 0
M  V30 13592 H 1249.98 -2.62241 4.2923 0
M  V30 13593 H 1249.68 -1.53578 5.67175 0
M  V30 13594 H 1251.2 -2.46432 5.58663 0
M  V30 13595 H 1252.62 -0.197385 5.7296 0
M  V30 13596 H 1251.02 0.554681 5.97531 0
M  V30 13597 H 1252.09 1.1741 4.70471 0
M  V30 13598 N 1253.43 -1.55816 0.23648 0
M  V30 13599 C 1254.38 -2.20938 -0.66745 0
M  V30 13600 C 1255.35 -1.16982 -1.17917 0
M  V30 13601 O 1256.53 -1.45392 -1.23555 0
M  V30 13602 C 1253.67 -2.90469 -1.86337 0
M  V30 13603 C 1252.78 -4.09056 -1.38915 0
M  V30 13604 C 1251.92 -4.6633 -2.54382 0
M  V30 13605 C 1250.96 -5.77187 -2.0377 0
M  V30 13606 N 1250.09 -6.28688 -3.12564 0
M  V30 13607 H 1254.93 -2.97814 -0.105411 0
M  V30 13608 H 1252.47 -1.47045 -0.0402712 0
M  V30 13609 H 1254.43 -3.28975 -2.56576 0
M  V30 13610 H 1253.06 -2.16086 -2.39806 0
M  V30 13611 H 1252.11 -3.75934 -0.581173 0
M  V30 13612 H 1253.42 -4.89115 -0.978152 0
M  V30 13613 H 1252.58 -5.07355 -3.32679 0
M  V30 13614 H 1251.32 -3.85464 -2.98778 0
M  V30 13615 H 1250.32 -5.35648 -1.23939 0
M  V30 13616 H 1251.55 -6.59896 -1.60355 0
M  V30 13617 H 1249.49 -5.50731 -3.56414 0
M  V30 13618 H 1249.41 -7.03911 -2.75762 0
M  V30 13619 H 1250.68 -6.74371 -3.90952 0
M  V30 13620 N 1254.91 0.036755 -1.57557 0
M  V30 13621 C 1256.18 0.764087 -1.80059 0
M  V30 13622 C 1256.56 1.93983 -0.83269 0
M  V30 13623 O 1255.91 2.28148 0.126815 0
M  V30 13624 C 1256.12 1.20433 -3.27562 0
M  V30 13625 C 1257.47 1.6234 -3.9234 0
M  V30 13626 O 1258.49 1.29911 -3.31665 0
M  V30 13627 O 1257.35 2.22504 -4.99154 0
M  V30 13628 H 1254.45 0.368866 -0.74018 0
M  V30 13629 H 1256.99 0.0141254 -1.69694 0
M  V30 13630 H 1255.76 0.364646 -3.89597 0
M  V30 13631 H 1255.39 2.01454 -3.42786 0
M  V30 13632 N 1256.39 1.54543 0.308881 0
M  V30 13633 C 1257.62 1.77174 1.06268 0
M  V30 13634 C 1258.02 0.527461 1.81699 0
M  V30 13635 O 1257.37 -0.512027 1.7642 0
M  V30 13636 C 1257.43 2.92115 2.09545 0
M  V30 13637 C 1257.09 4.30492 1.5338 0
M  V30 13638 C 1258.09 5.1081 0.967923 0
M  V30 13639 C 1255.77 4.77074 1.5718 0
M  V30 13640 C 1257.77 6.35827 0.447517 0
M  V30 13641 C 1255.46 6.02055 1.04753 0
M  V30 13642 C 1256.45 6.81266 0.486345 0
M  V30 13643 O 1256.14 8.03894 -0.0300055 0
M  V30 13644 H 1255.87 0.594773 0.321281 0
M  V30 13645 H 1258.43 2.02289 0.356136 0
M  V30 13646 H 1256.66 2.62606 2.83857 0
M  V30 13647 H 1258.35 3.02394 2.70763 0
M  V30 13648 H 1259.11 4.7597 0.931523 0
M  V30 13649 H 1254.99 4.15453 1.998 0
M  V30 13650 H 1258.54 6.97599 0.00884212 0
M  V30 13651 H 1254.43 6.36383 1.08105 0
M  V30 13652 H 1255.2 8.18457 0.0840381 0
M  V30 13653 N 1257.86 -0.571685 1.46866 0
M  V30 13654 C 1259.09 -1.35327 1.56109 0
M  V30 13655 C 1259.5 -1.88086 0.20504 0
M  V30 13656 O 1258.84 -1.64896 -0.809626 0
M  V30 13657 C 1258.91 -2.56939 2.51441 0
M  V30 13658 C 1258.57 -2.2557 3.97451 0
M  V30 13659 C 1259.57 -1.83737 4.86351 0
M  V30 13660 C 1257.25 -2.37375 4.42672 0
M  V30 13661 C 1259.25 -1.54118 6.18487 0
M  V30 13662 C 1256.93 -2.07368 5.7484 0
M  V30 13663 C 1257.93 -1.65806 6.62569 0
M  V30 13664 O 1257.62 -1.36173 7.92283 0
M  V30 13665 H 1257.35 -0.419368 0.530194 0
M  V30 13666 H 1259.91 -0.700859 1.93073 0
M  V30 13667 H 1258.14 -3.25023 2.09517 0
M  V30 13668 H 1259.82 -3.19012 2.5097 0
M  V30 13669 H 1260.59 -1.74122 4.52666 0
M  V30 13670 H 1256.47 -2.68686 3.74605 0
M  V30 13671 H 1260.01 -1.21603 6.8692 0
M  V30 13672 H 1255.91 -2.16611 6.08071 0
M  V30 13673 H 1256.68 -1.49926 8.04652 0
M  V30 13674 N 1259.34 -1.34755 -0.817236 0
M  V30 13675 C 1260.76 -1.14561 -1.11121 0
M  V30 13676 C 1260.96 0.0490776 -2.0144 0
M  V30 13677 O 1260.01 0.722897 -2.41931 0
M  V30 13678 C 1261.33 -2.44356 -1.75244 0
M  V30 13679 C 1262.87 -2.50465 -1.87713 0
M  V30 13680 C 1263.35 -3.80276 -2.55253 0
M  V30 13681 N 1264.84 -3.81468 -2.62747 0
M  V30 13682 C 1265.58 -4.78634 -3.15749 0
M  V30 13683 N 1265.07 -5.86184 -3.6927 0
M  V30 13684 N 1266.86 -4.66083 -3.14203 0
M  V30 13685 H 1259.02 -2.11293 -0.2166 0
M  V30 13686 H 1261.28 -0.934629 -0.158661 0
M  V30 13687 H 1260.98 -3.31899 -1.16344 0
M  V30 13688 H 1260.86 -2.58117 -2.75055 0
M  V30 13689 H 1263.25 -1.63358 -2.45761 0
M  V30 13690 H 1263.33 -2.40627 -0.867887 0
M  V30 13691 H 1262.97 -4.67776 -1.97858 0
M  V30 13692 H 1262.9 -3.87399 -3.56693 0
M  V30 13693 H 1265.39 -3.03753 -2.24817 0
M  V30 13694 H 1265.7 -6.56332 -4.0798 0
M  V30 13695 H 1264.05 -5.8989 -3.67498 0
M  V30 13696 H 1267.24 -3.81206 -2.7166 0
M  V30 13697 H 1267.41 -5.41973 -3.55203 0
M  V30 13698 N 1260.82 1.03812 -1.18578 0
M  V30 13699 C 1262.1 1.74062 -0.892288 0
M  V30 13700 C 1262.48 2.02267 0.604256 0
M  V30 13701 O 1261.82 1.66988 1.55972 0
M  V30 13702 C 1262.03 3.024 -1.74228 0
M  V30 13703 C 1263.38 3.76088 -1.97087 0
M  V30 13704 O 1264.41 3.12305 -1.71302 0
M  V30 13705 O 1263.27 4.90732 -2.40509 0
M  V30 13706 H 1260.36 0.757567 -0.331695 0
M  V30 13707 H 1262.91 1.09855 -1.29345 0
M  V30 13708 H 1261.68 2.77713 -2.75665 0
M  V30 13709 H 1261.3 3.74346 -1.3398 0
M  V30 13710 N 1262.3 0.988223 1.22768 0
M  V30 13711 C 1263.25 0.505913 2.22316 0
M  V30 13712 C 1264.23 -0.423346 1.55231 0
M  V30 13713 O 1265.42 -0.250927 1.75212 0
M  V30 13714 C 1262.55 -0.182707 3.42813 0
M  V30 13715 C 1261.64 0.766582 4.17114 0
M  V30 13716 N 1262.03 1.91248 4.6825 0
M  V30 13717 C 1260.33 0.581503 4.42193 0
M  V30 13718 C 1261.03 2.50793 5.2486 0
M  V30 13719 N 1260 1.79106 5.13247 0
M  V30 13720 H 1263.81 1.37994 2.5949 0
M  V30 13721 H 1261.32 0.849888 1.38386 0
M  V30 13722 H 1263.32 -0.545595 4.13315 0
M  V30 13723 H 1261.98 -1.05292 3.07154 0
M  V30 13724 H 1262.99 2.29342 4.64352 0
M  V30 13725 H 1259.67 -0.243039 4.16792 0
M  V30 13726 H 1261.06 3.47609 5.74994 0
M  V30 13727 N 1263.78 -1.38018 0.760839 0
M  V30 13728 C 1264.72 -2.32251 0.127425 0
M  V30 13729 C 1265.72 -1.54387 -0.69722 0
M  V30 13730 O 1266.92 -1.69864 -0.595505 0
M  V30 13731 H 1263.3 -0.751666 0.0224141 0
M  V30 13732 H 1265.27 -2.8327 0.93813 0
M  V30 13733 C 1264.02 -3.39606 -0.745849 0
M  V30 13734 H 1263.34 -3.99618 -0.120679 0
M  V30 13735 H 1264.78 -4.07931 -1.15621 0
M  V30 13736 C 1263.24 -2.78778 -1.89167 0
M  V30 13737 O 1263.77 -2.68661 -2.98637 0
M  V30 13738 N 1261.98 -2.36481 -1.68894 0
M  V30 13739 H 1261.52 -2.4491 -0.798551 0
M  V30 13740 H 1261.48 -1.96126 -2.45728 0
M  V30 13741 N 1265.25 -0.510493 -1.49103 0
M  V30 13742 C 1266.5 0.0325393 -2.01674 0
M  V30 13743 C 1266.82 1.37162 -1.39448 0
M  V30 13744 O 1268.02 2.00189 -1.83402 0
M  V30 13745 C 1266.48 0.108433 -3.59737 0
M  V30 13746 C 1266.09 -1.22458 -4.30939 0
M  V30 13747 C 1267.83 0.601326 -4.20219 0
M  V30 13748 C 1265.74 -1.11033 -5.80884 0
M  V30 13749 H 1264.67 0.0159333 -0.753832 0
M  V30 13750 H 1267.32 -0.651344 -1.71551 0
M  V30 13751 H 1265.7 0.856974 -3.86616 0
M  V30 13752 H 1266.87 -1.98715 -4.15751 0
M  V30 13753 H 1265.19 -1.65166 -3.82242 0
M  V30 13754 H 1267.79 0.704462 -5.30039 0
M  V30 13755 H 1268.13 1.60247 -3.84222 0
M  V30 13756 H 1268.66 -0.0909561 -3.97696 0
M  V30 13757 H 1265.4 -2.08603 -6.21422 0
M  V30 13758 H 1264.92 -0.388798 -5.98539 0
M  V30 13759 H 1266.6 -0.792949 -6.42123 0
M  V30 13760 N 1266.73 1.55688 -0.24474 0
M  V30 13761 C 1267.64 2.24933 0.666519 0
M  V30 13762 C 1268.66 1.26471 1.19503 0
M  V30 13763 O 1269.83 1.59342 1.23176 0
M  V30 13764 C 1266.9 2.9336 1.84772 0
M  V30 13765 C 1265.96 4.07225 1.35889 0
M  V30 13766 C 1265.19 4.72381 2.48379 0
M  V30 13767 O 1265.42 4.36605 3.67059 0
M  V30 13768 O 1264.35 5.60933 2.18261 0
M  V30 13769 H 1268.18 3.03513 0.106507 0
M  V30 13770 H 1265.76 1.49394 -0.0133309 0
M  V30 13771 H 1267.64 3.36468 2.53708 0
M  V30 13772 H 1266.32 2.17721 2.39539 0
M  V30 13773 H 1265.22 3.68639 0.636881 0
M  V30 13774 H 1266.56 4.84676 0.857333 0
M  V30 13775 N 1268.21 -0.0283989 1.57574 0
M  V30 13776 C 1269.14 -1.02828 2.09639 0
M  V30 13777 C 1270.12 -1.37668 0.999076 0
M  V30 13778 O 1271.31 -1.4654 1.27435 0
M  V30 13779 C 1268.44 -2.329 2.57633 0
M  V30 13780 C 1267.39 -2.12301 3.71635 0
M  V30 13781 C 1266.72 -3.48138 4.05837 0
M  V30 13782 C 1268.02 -1.50864 5.00037 0
M  V30 13783 H 1269.71 -0.594876 2.93431 0
M  V30 13784 H 1267.26 -0.284701 1.41158 0
M  V30 13785 H 1269.21 -3.03179 2.92678 0
M  V30 13786 H 1267.93 -2.78302 1.70926 0
M  V30 13787 H 1266.59 -1.44454 3.3694 0
M  V30 13788 H 1266.24 -3.9119 3.16195 0
M  V30 13789 H 1265.94 -3.3518 4.82626 0
M  V30 13790 H 1267.46 -4.19779 4.43417 0
M  V30 13791 H 1268.88 -2.11062 5.33035 0
M  V30 13792 H 1267.27 -1.48479 5.81441 0
M  V30 13793 H 1268.34 -0.474541 4.82572 0
M  V30 13794 N 1269.69 -1.54705 -0.300681 0
M  V30 13795 C 1270.91 -1.78318 -1.05913 0
M  V30 13796 C 1271.34 -0.541177 -1.80147 0
M  V30 13797 O 1270.7 0.508291 -1.74029 0
M  V30 13798 C 1270.74 -2.99041 -2.01511 0
M  V30 13799 O 1269.85 -2.72188 -3.09818 0
M  V30 13800 H 1269.19 -0.590197 -0.304242 0
M  V30 13801 H 1271.72 -2.01789 -0.338006 0
M  V30 13802 H 1271.73 -3.2702 -2.43971 0
M  V30 13803 H 1270.4 -3.89098 -1.46886 0
M  V30 13804 H 1268.98 -2.55227 -2.71871 0
M  V30 13805 N 1271.17 0.563888 -1.47167 0
M  V30 13806 C 1272.11 1.67151 -1.59152 0
M  V30 13807 C 1273.08 1.60307 -0.434852 0
M  V30 13808 O 1274.27 1.7924 -0.654049 0
M  V30 13809 C 1271.41 3.0548 -1.60549 0
M  V30 13810 C 1270.52 3.2281 -2.87085 0
M  V30 13811 C 1269.66 4.51498 -2.79862 0
M  V30 13812 C 1268.7 4.62237 -4.01252 0
M  V30 13813 N 1267.83 5.82273 -3.92305 0
M  V30 13814 H 1272.67 1.56245 -2.53755 0
M  V30 13815 H 1270.21 0.761219 -1.25872 0
M  V30 13816 H 1272.17 3.85572 -1.59343 0
M  V30 13817 H 1270.8 3.15237 -0.69464 0
M  V30 13818 H 1269.85 2.36196 -2.98188 0
M  V30 13819 H 1271.16 3.2661 -3.76997 0
M  V30 13820 H 1270.32 5.39842 -2.76867 0
M  V30 13821 H 1269.05 4.50166 -1.87621 0
M  V30 13822 H 1268.06 3.72307 -4.04558 0
M  V30 13823 H 1269.28 4.65334 -4.94612 0
M  V30 13824 H 1267.23 5.81902 -3.02862 0
M  V30 13825 H 1267.15 5.87422 -4.7589 0
M  V30 13826 H 1268.42 6.72996 -3.93315 0
M  V30 13827 N 1272.64 1.35187 0.810078 0
M  V30 13828 C 1273.57 1.30481 1.93641 0
M  V30 13829 C 1274.56 0.179875 1.69146 0
M  V30 13830 O 1275.74 0.374284 1.90559 0
M  V30 13831 C 1272.87 1.07251 3.30325 0
M  V30 13832 C 1271.82 2.16348 3.69293 0
M  V30 13833 C 1271.15 1.78288 5.04101 0
M  V30 13834 C 1272.45 3.58285 3.80038 0
M  V30 13835 H 1274.14 2.24725 1.97836 0
M  V30 13836 H 1271.69 1.08179 0.950436 0
M  V30 13837 H 1273.64 1.02599 4.08719 0
M  V30 13838 H 1272.37 0.0945203 3.26463 0
M  V30 13839 H 1271.03 2.2009 2.93182 0
M  V30 13840 H 1270.67 0.791163 4.96739 0
M  V30 13841 H 1270.37 2.51315 5.31144 0
M  V30 13842 H 1271.9 1.75155 5.84938 0
M  V30 13843 H 1273.31 3.56884 4.48672 0
M  V30 13844 H 1271.71 4.30044 4.18548 0
M  V30 13845 H 1272.78 3.94691 2.81685 0
M  V30 13846 N 1274.12 -1.03182 1.19127 0
M  V30 13847 C 1275.05 -2.13301 0.94999 0
M  V30 13848 C 1276.03 -1.69707 -0.115577 0
M  V30 13849 O 1277.22 -1.94161 0.0388395 0
M  V30 13850 C 1274.35 -3.43902 0.484637 0
M  V30 13851 C 1273.3 -4.01164 1.4917 0
M  V30 13852 C 1272.63 -5.2735 0.883537 0
M  V30 13853 C 1273.93 -4.36311 2.87107 0
M  V30 13854 H 1275.62 -2.33743 1.87095 0
M  V30 13855 H 1273.17 -1.12332 0.900977 0
M  V30 13856 H 1275.12 -4.20308 0.30315 0
M  V30 13857 H 1273.85 -3.23173 -0.471909 0
M  V30 13858 H 1272.5 -3.26849 1.66028 0
M  V30 13859 H 1272.15 -5.02936 -0.0804712 0
M  V30 13860 H 1271.85 -5.66624 1.55599 0
M  V30 13861 H 1273.38 -6.06425 0.71278 0
M  V30 13862 H 1274.79 -5.03666 2.73848 0
M  V30 13863 H 1273.19 -4.86659 3.51117 0
M  V30 13864 H 1274.26 -3.45743 3.39985 0
M  V30 13865 N 1275.6 -0.99472 -1.22242 0
M  V30 13866 C 1276.83 -0.689096 -1.94769 0
M  V30 13867 C 1277.24 0.750597 -1.73674 0
M  V30 13868 O 1276.58 1.51836 -1.03399 0
M  V30 13869 C 1276.64 -0.917454 -3.47596 0
M  V30 13870 C 1276.31 -2.34198 -3.92429 0
M  V30 13871 C 1277.3 -3.3216 -3.99957 0
M  V30 13872 C 1274.99 -2.6769 -4.25026 0
M  V30 13873 C 1276.98 -4.61686 -4.3946 0
M  V30 13874 C 1274.67 -3.97435 -4.64208 0
M  V30 13875 C 1275.67 -4.94244 -4.71394 0
M  V30 13876 O 1275.36 -6.2167 -5.09688 0
M  V30 13877 H 1275.09 -0.253914 -0.626501 0
M  V30 13878 H 1277.64 -1.33271 -1.56294 0
M  V30 13879 H 1275.87 -0.21666 -3.86093 0
M  V30 13880 H 1277.56 -0.6068 -4.01339 0
M  V30 13881 H 1278.33 -3.07619 -3.74961 0
M  V30 13882 H 1274.21 -1.93039 -4.18637 0
M  V30 13883 H 1277.75 -5.37248 -4.44983 0
M  V30 13884 H 1273.65 -4.21765 -4.88656 0
M  V30 13885 H 1274.42 -6.25634 -5.27755 0
M  V30 13886 N 1277.08 1.37613 -0.768148 0
M  V30 13887 C 1278.03 2.30311 -0.150176 0
M  V30 13888 C 1279 1.50918 0.69376 0
M  V30 13889 O 1280.18 1.795 0.64687 0
M  V30 13890 C 1277.32 3.37382 0.72576 0
M  V30 13891 C 1276.43 4.31791 -0.13439 0
M  V30 13892 C 1275.57 5.25937 0.745915 0
M  V30 13893 C 1274.61 6.11988 -0.116988 0
M  V30 13894 N 1273.74 6.98387 0.721091 0
M  V30 13895 H 1278.58 2.82579 -0.946212 0
M  V30 13896 H 1276.12 1.3911 -0.478217 0
M  V30 13897 H 1278.08 3.98084 1.24839 0
M  V30 13898 H 1276.71 2.86488 1.48743 0
M  V30 13899 H 1275.76 3.72426 -0.774793 0
M  V30 13900 H 1277.07 4.9234 -0.800163 0
M  V30 13901 H 1276.23 5.91826 1.33516 0
M  V30 13902 H 1274.97 4.6579 1.44538 0
M  V30 13903 H 1273.97 5.45081 -0.7188 0
M  V30 13904 H 1275.2 6.74207 -0.813732 0
M  V30 13905 H 1273.14 6.40772 1.40524 0
M  V30 13906 H 1273.06 7.55916 0.112536 0
M  V30 13907 H 1274.33 7.6867 1.29485 0
M  V30 13908 N 1278.56 0.518393 1.4883 0
M  V30 13909 C 1279.49 -0.297703 2.2625 0
M  V30 13910 C 1280.47 -0.955096 1.31593 0
M  V30 13911 O 1281.65 -0.981776 1.60914 0
M  V30 13912 C 1278.78 -1.42065 3.07466 0
M  V30 13913 C 1277.82 -0.875854 4.1741 0
M  V30 13914 S 1278.66 0.247153 5.34929 0
M  V30 13915 C 1279.81 -0.878544 6.19703 0
M  V30 13916 H 1280.05 0.359358 2.9512 0
M  V30 13917 H 1277.58 0.303976 1.51378 0
M  V30 13918 H 1279.54 -2.06398 3.54838 0
M  V30 13919 H 1278.2 -2.04939 2.38031 0
M  V30 13920 H 1277.39 -1.71793 4.73818 0
M  V30 13921 H 1276.99 -0.30943 3.72718 0
M  V30 13922 H 1279.29 -1.77986 6.53703 0
M  V30 13923 H 1280.23 -0.3527 7.07221 0
M  V30 13924 H 1280.64 -1.15372 5.52584 0
M  V30 13925 N 1280.03 -1.55556 0.252993 0
M  V30 13926 C 1281.28 -1.98697 -0.369319 0
M  V30 13927 C 1281.6 -1.14256 -1.58021 0
M  V30 13928 O 1280.87 -0.226779 -1.94583 0
M  V30 13929 H 1279.45 -0.733869 -0.139444 0
M  V30 13930 H 1282.12 -1.91673 0.353197 0
M  V30 13931 H 1281.21 -3.04728 -0.674312 0
M  V30 13932 N 1281.51 0.0200419 -1.57587 0
M  V30 13933 C 1282.44 1.0456 -2.0396 0
M  V30 13934 C 1283.46 1.31922 -0.953962 0
M  V30 13935 O 1284.65 1.2925 -1.23112 0
M  V30 13936 C 1281.75 2.38514 -2.40758 0
M  V30 13937 C 1280.92 2.3038 -3.71812 0
M  V30 13938 C 1279.98 3.46856 -3.95698 0
M  V30 13939 O 1279 3.25944 -4.66636 0
M  V30 13940 N 1280.21 4.69033 -3.42036 0
M  V30 13941 H 1282.97 0.650282 -2.9256 0
M  V30 13942 H 1280.53 0.207818 -1.60561 0
M  V30 13943 H 1282.52 3.15172 -2.53868 0
M  V30 13944 H 1281.09 2.69859 -1.57781 0
M  V30 13945 H 1280.31 1.38762 -3.6897 0
M  V30 13946 H 1281.6 2.22097 -4.57767 0
M  V30 13947 H 1281 4.88923 -2.84553 0
M  V30 13948 H 1279.56 5.43025 -3.6051 0
M  V30 13949 N 1282.99 1.54862 0.292472 0
M  V30 13950 C 1284.22 1.7855 1.04534 0
M  V30 13951 C 1284.63 0.549161 1.80637 0
M  V30 13952 O 1283.99 -0.481268 1.7604 0
M  V30 13953 C 1284.04 2.99849 2.01923 0
M  V30 13954 O 1283.76 4.18706 1.28907 0
M  V30 13955 C 1285.26 3.35991 2.8918 0
M  V30 13956 H 1282.48 0.595279 0.309652 0
M  V30 13957 H 1285.03 2.01834 0.329159 0
M  V30 13958 H 1283.18 2.78749 2.69032 0
M  V30 13959 H 1283.6 4.87151 1.94383 0
M  V30 13960 H 1285.07 4.24085 3.53349 0
M  V30 13961 H 1285.55 2.54524 3.57931 0
M  V30 13962 H 1286.15 3.59281 2.27591 0
M  V30 13963 N 1284.47 -0.556076 1.47464 0
M  V30 13964 C 1285.4 -1.67275 1.62915 0
M  V30 13965 C 1286.38 -1.63229 0.478562 0
M  V30 13966 O 1287.56 -1.80833 0.708032 0
M  V30 13967 C 1284.69 -3.05911 1.64426 0
M  V30 13968 C 1283.65 -3.24804 2.78722 0
M  V30 13969 C 1282.97 -4.64238 2.65307 0
M  V30 13970 C 1284.27 -3.10071 4.20302 0
M  V30 13971 H 1285.97 -1.54601 2.56396 0
M  V30 13972 H 1283.51 -0.742337 1.23391 0
M  V30 13973 H 1285.47 -3.83878 1.73826 0
M  V30 13974 H 1284.19 -3.19547 0.675053 0
M  V30 13975 H 1282.85 -2.49246 2.68835 0
M  V30 13976 H 1282.5 -4.74675 1.66412 0
M  V30 13977 H 1282.2 -4.77828 3.41986 0
M  V30 13978 H 1283.72 -5.44339 2.76637 0
M  V30 13979 H 1285.14 -3.77855 4.3116 0
M  V30 13980 H 1283.53 -3.3517 4.97776 0
M  V30 13981 H 1284.6 -2.06803 4.38589 0
M  V30 13982 N 1285.95 -1.35615 -0.802897 0
M  V30 13983 C 1287.36 -1.26062 -1.37715 0
M  V30 13984 C 1287.71 0.105411 -1.95917 0
M  V30 13985 O 1286.83 1.00648 -1.91569 0
M  V30 13986 C 1287.43 -2.28261 -2.50365 0
M  V30 13987 C 1285.99 -2.22437 -3.03642 0
M  V30 13988 C 1285.14 -2.1377 -1.76629 0
M  V30 13989 H 1288.09 -1.46689 -0.605631 0
M  V30 13990 H 1288.11 -1.91122 -3.29017 0
M  V30 13991 H 1287.62 -3.27671 -2.07975 0
M  V30 13992 H 1285.72 -1.2645 -3.50487 0
M  V30 13993 H 1285.83 -3.14558 -3.61373 0
M  V30 13994 H 1284.2 -1.59806 -1.98328 0
M  V30 13995 H 1284.98 -3.15046 -1.36385 0
M  V30 13996 N 1287.43 1.02549 -1.19673 0
M  V30 13997 C 1288.65 1.79623 -1.0268 0
M  V30 13998 C 1289.07 1.83969 0.424345 0
M  V30 13999 O 1288.43 1.28621 1.29472 0
M  V30 14000 C 1288.48 3.24514 -1.59289 0
M  V30 14001 O 1288.2 3.20462 -2.98723 0
M  V30 14002 C 1289.7 4.18173 -1.47126 0
M  V30 14003 H 1286.92 0.565167 -0.3617 0
M  V30 14004 H 1289.46 1.29143 -1.58564 0
M  V30 14005 H 1287.62 3.72173 -1.07546 0
M  V30 14006 H 1288.03 4.11341 -3.25421 0
M  V30 14007 H 1289.51 5.17714 -1.9151 0
M  V30 14008 H 1289.98 4.37165 -0.422315 0
M  V30 14009 H 1290.59 3.7639 -1.98017 0
M  V30 14010 N 1288.9 1.00119 1.21713 0
M  V30 14011 C 1290.15 0.692409 1.91252 0
M  V30 14012 C 1290.5 -0.768052 1.76405 0
M  V30 14013 O 1289.8 -1.54913 1.1275 0
M  V30 14014 C 1289.99 1.04376 3.41819 0
M  V30 14015 C 1289.82 2.53682 3.71316 0
M  V30 14016 C 1288.59 3.20222 3.90879 0
M  V30 14017 C 1290.79 3.51829 3.75127 0
M  V30 14018 N 1288.77 4.58919 4.07758 0
M  V30 14019 C 1290.14 4.7602 3.97246 0
M  V30 14020 C 1292.2 3.46019 3.58015 0
M  V30 14021 C 1290.9 5.95108 4.04029 0
M  V30 14022 C 1292.93 4.64492 3.66061 0
M  V30 14023 C 1292.29 5.87486 3.88638 0
M  V30 14024 H 1288.39 0.304785 0.72016 0
M  V30 14025 H 1290.97 1.28289 1.46459 0
M  V30 14026 H 1289.14 0.481773 3.854 0
M  V30 14027 H 1290.87 0.690108 3.98773 0
M  V30 14028 H 1287.63 2.70673 3.8863 0
M  V30 14029 H 1288.05 5.30884 4.20108 0
M  V30 14030 H 1292.69 2.51938 3.3954 0
M  V30 14031 H 1290.41 6.89585 4.21305 0
M  V30 14032 H 1294 4.61595 3.54148 0
M  V30 14033 H 1292.88 6.77628 3.94703 0
M  V30 14034 N 1290.38 -1.37203 0.775435 0
M  V30 14035 C 1291.31 -2.32819 0.17826 0
M  V30 14036 C 1292.29 -1.55963 -0.678944 0
M  V30 14037 O 1293.48 -1.84183 -0.615648 0
M  V30 14038 C 1290.61 -3.40198 -0.698768 0
M  V30 14039 C 1289.56 -4.27961 0.057423 0
M  V30 14040 C 1288.89 -5.26385 -0.93929 0
M  V30 14041 C 1290.19 -5.07402 1.23856 0
M  V30 14042 H 1291.88 -2.8301 0.977028 0
M  V30 14043 H 1289.43 -1.3607 0.471274 0
M  V30 14044 H 1291.38 -4.06067 -1.12637 0
M  V30 14045 H 1290.1 -2.88541 -1.53009 0
M  V30 14046 H 1288.76 -3.63628 0.465848 0
M  V30 14047 H 1288.41 -4.71007 -1.76527 0
M  V30 14048 H 1288.11 -5.85966 -0.437844 0
M  V30 14049 H 1289.64 -5.9513 -1.36576 0
M  V30 14050 H 1291.05 -5.6639 0.887423 0
M  V30 14051 H 1289.45 -5.76327 1.67234 0
M  V30 14052 H 1290.52 -4.3986 2.04085 0
M  V30 14053 N 1291.86 -0.526279 -1.48553 0
M  V30 14054 C 1293.28 -0.183886 -1.58537 0
M  V30 14055 C 1293.48 1.31272 -1.52872 0
M  V30 14056 O 1292.53 2.09069 -1.41585 0
M  V30 14057 C 1293.84 -0.78313 -2.90323 0
M  V30 14058 C 1295.39 -0.751527 -3.03844 0
M  V30 14059 C 1295.87 -1.32928 -4.38285 0
M  V30 14060 N 1297.36 -1.29109 -4.44843 0
M  V30 14061 C 1298.09 -1.70806 -5.47369 0
M  V30 14062 N 1297.59 -2.20215 -6.56869 0
M  V30 14063 N 1299.38 -1.62065 -5.3823 0
M  V30 14064 H 1291.53 -1.499 -1.50478 0
M  V30 14065 H 1293.8 -0.623294 -0.714289 0
M  V30 14066 H 1293.5 -1.83371 -3.00113 0
M  V30 14067 H 1293.38 -0.25808 -3.76316 0
M  V30 14068 H 1295.76 0.290282 -2.93669 0
M  V30 14069 H 1295.84 -1.314 -2.19471 0
M  V30 14070 H 1295.49 -2.37 -4.49214 0
M  V30 14071 H 1295.42 -0.742516 -5.21339 0
M  V30 14072 H 1297.91 -0.929348 -3.66294 0
M  V30 14073 H 1298.22 -2.50035 -7.31233 0
M  V30 14074 H 1296.57 -2.24206 -6.57842 0
M  V30 14075 H 1299.76 -1.23265 -4.51579 0
M  V30 14076 H 1299.93 -1.94883 -6.18001 0
M  V30 14077 N 1293.34 1.5542 -0.261239 0
M  V30 14078 C 1294.25 2.25627 0.642625 0
M  V30 14079 C 1295.26 1.27732 1.18155 0
M  V30 14080 O 1296.44 1.60639 1.21479 0
M  V30 14081 C 1293.5 2.95303 1.8165 0
M  V30 14082 C 1292.57 4.08644 1.31563 0
M  V30 14083 C 1291.8 4.74988 2.43355 0
M  V30 14084 O 1292.02 4.40474 3.62407 0
M  V30 14085 O 1290.96 5.63217 2.12299 0
M  V30 14086 H 1294.78 3.03609 0.0743091 0
M  V30 14087 H 1292.37 1.49372 -0.0291754 0
M  V30 14088 H 1294.25 3.3914 2.50125 0
M  V30 14089 H 1292.92 2.2025 2.37217 0
M  V30 14090 H 1291.83 3.69294 0.597746 0
M  V30 14091 H 1293.16 4.85558 0.805878 0
M  V30 14092 N 1294.82 -0.0116844 1.57596 0
M  V30 14093 C 1296.09 -0.735344 1.81251 0
M  V30 14094 C 1296.47 -1.92634 0.863446 0
M  V30 14095 O 1295.82 -2.28321 -0.0905028 0
M  V30 14096 C 1296.03 -1.15206 3.29437 0
M  V30 14097 C 1297.38 -1.56078 3.94873 0
M  V30 14098 O 1298.4 -1.24618 3.3369 0
M  V30 14099 O 1297.26 -2.14534 5.0263 0
M  V30 14100 H 1294.36 -0.357044 0.745955 0
M  V30 14101 H 1296.9 0.0128733 1.69695 0
M  V30 14102 H 1295.67 -0.302619 3.90128 0
M  V30 14103 H 1295.3 -1.95975 3.45947 0
M  V30 14104 N 1296.29 -1.55015 -0.284256 0
M  V30 14105 C 1297.22 -1.90128 -1.3555 0
M  V30 14106 C 1298.2 -0.761914 -1.52082 0
M  V30 14107 O 1299.39 -1.01909 -1.65312 0
M  V30 14108 C 1296.52 -2.16332 -2.71695 0
M  V30 14109 C 1295.47 -3.32166 -2.69907 0
M  V30 14110 C 1294.8 -3.43824 -4.09498 0
M  V30 14111 C 1296.1 -4.6885 -2.30168 0
M  V30 14112 H 1297.79 -2.79852 -1.06411 0
M  V30 14113 H 1295.34 -1.34649 -0.510451 0
M  V30 14114 H 1297.29 -2.39482 -3.46737 0
M  V30 14115 H 1296.02 -1.23395 -3.02392 0
M  V30 14116 H 1294.68 -3.08965 -1.97322 0
M  V30 14117 H 1294.32 -2.48375 -4.374 0
M  V30 14118 H 1294.02 -4.21698 -4.092 0
M  V30 14119 H 1295.55 -3.69254 -4.86296 0
M  V30 14120 H 1296.96 -4.91619 -2.9493 0
M  V30 14121 H 1295.36 -5.49558 -2.41052 0
M  V30 14122 H 1296.43 -4.68433 -1.25294 0
M  V30 14123 N 1297.77 0.548248 -1.47757 0
M  V30 14124 C 1298.7 1.66999 -1.56984 0
M  V30 14125 C 1299.72 1.56302 -0.455372 0
M  V30 14126 O 1300.91 1.63096 -0.725399 0
M  V30 14127 C 1298.01 3.0553 -1.46645 0
M  V30 14128 C 1297.18 3.41892 -2.72816 0
M  V30 14129 C 1296.24 4.59624 -2.56187 0
M  V30 14130 O 1295.26 4.63757 -3.30028 0
M  V30 14131 N 1296.47 5.56675 -1.64601 0
M  V30 14132 H 1299.23 1.59527 -2.53715 0
M  V30 14133 H 1296.79 0.735101 -1.44249 0
M  V30 14134 H 1298.78 3.82137 -1.33242 0
M  V30 14135 H 1297.35 3.0718 -0.57961 0
M  V30 14136 H 1296.57 2.54644 -3.00916 0
M  V30 14137 H 1297.86 3.62965 -3.56559 0
M  V30 14138 H 1297.26 5.561 -1.03778 0
M  V30 14139 H 1295.82 6.32573 -1.57146 0
M  V30 14140 N 1299.25 1.36039 0.795694 0
M  V30 14141 C 1300.2 1.29902 1.92946 0
M  V30 14142 C 1301.19 0.191943 1.68309 0
M  V30 14143 O 1302.4 0.358577 1.76392 0
M  V30 14144 H 1298.77 0.404252 0.634101 0
M  V30 14145 H 1300.74 2.25663 1.95241 0
M  V30 14146 C 1299.49 1.09887 3.29879 0
M  V30 14147 H 1298.82 1.94318 3.494 0
M  V30 14148 H 1300.26 1.09638 4.0958 0
M  V30 14149 C 1298.71 -0.196802 3.36325 0
M  V30 14150 O 1299.24 -1.18883 3.83705 0
M  V30 14151 N 1297.45 -0.239325 2.89613 0
M  V30 14152 H 1297 0.568571 2.51247 0
M  V30 14153 H 1296.96 -1.10593 2.94307 0
M  V30 14154 N 1300.73 -1.01913 1.20215 0
M  V30 14155 C 1301.96 -1.79076 1.03631 0
M  V30 14156 C 1302.37 -1.84192 -0.414583 0
M  V30 14157 O 1301.73 -1.29306 -1.28788 0
M  V30 14158 C 1301.78 -3.23665 1.61008 0
M  V30 14159 O 1301.5 -3.18873 3.00419 0
M  V30 14160 C 1303 -4.17387 1.49342 0
M  V30 14161 H 1300.22 -0.563241 0.364692 0
M  V30 14162 H 1302.77 -1.283 1.59246 0
M  V30 14163 H 1300.92 -3.71597 1.09518 0
M  V30 14164 H 1301.33 -4.09609 3.27598 0
M  V30 14165 H 1302.81 -5.16691 1.94253 0
M  V30 14166 H 1303.29 -4.36935 0.445493 0
M  V30 14167 H 1303.89 -3.75335 2.0001 0
M  V30 14168 N 1302.21 -1.00763 -1.2118 0
M  V30 14169 C 1303.62 -0.720905 -1.42391 0
M  V30 14170 C 1303.82 0.702918 -1.88842 0
M  V30 14171 O 1302.88 1.47191 -2.05161 0
M  V30 14172 C 1304.19 -1.739 -2.45315 0
M  V30 14173 C 1305.74 -1.75611 -2.59094 0
M  V30 14174 C 1306.21 -2.76323 -3.65253 0
M  V30 14175 N 1307.71 -2.75007 -3.72727 0
M  V30 14176 C 1308.44 -3.49594 -4.54502 0
M  V30 14177 N 1307.94 -4.33828 -5.40153 0
M  V30 14178 N 1309.73 -3.38232 -4.4895 0
M  V30 14179 H 1301.88 -1.92697 -0.893404 0
M  V30 14180 H 1304.14 -0.831888 -0.454606 0
M  V30 14181 H 1303.85 -2.75859 -2.18162 0
M  V30 14182 H 1303.72 -1.5438 -3.44161 0
M  V30 14183 H 1306.11 -0.743416 -2.85582 0
M  V30 14184 H 1306.19 -1.99203 -1.60474 0
M  V30 14185 H 1305.84 -3.77751 -3.39509 0
M  V30 14186 H 1305.77 -2.49996 -4.63476 0
M  V30 14187 H 1308.26 -2.13897 -3.11539 0
M  V30 14188 H 1308.57 -4.8753 -5.99612 0
M  V30 14189 H 1306.91 -4.3791 -5.39685 0
M  V30 14190 H 1310.11 -2.71855 -3.81068 0
M  V30 14191 H 1310.28 -3.96615 -5.12445 0
M  V30 14192 O 1303.72 1.32792 -0.919162 0
M  V30 14193 H 1304.41 1.86078 -0.538019 0
M  V30 END ATOM
M  V30 BEGIN BOND
M  V30 END BOND
M  V30 END CTAB
M  END
$$$$
