drugbank_target|Q74EF5 Sensor cyclic diguanylate phosphodiesterase, GAF and GAF domain-containing (DB02580)
 OpenBabel12092120503D

  0  0  0     0  0            999 V3000
M  V30 BEGIN CTAB
M  V30 COUNTS 8573 8646 0 0 0
M  V30 BEGIN ATOM
M  V30 1 H -0.908 1.98254 -0.117106 0
M  V30 2 N 0 1.576 0 0
M  V30 3 C 0.933 2.03868 1.02534 0
M  V30 4 C 1.911 0.928543 1.3348 0
M  V30 5 O 3.095 1.19667 1.45644 0
M  V30 6 C 0.222 2.43627 2.35294 0
M  V30 7 C -0.732 3.65373 2.2001 0
M  V30 8 S 0.101 5.13292 1.52614 0
M  V30 9 C 1.257 5.56322 2.86805 0
M  V30 10 H 1.49 2.90518 0.631377 0
M  V30 11 H -0.977 1.52953 0.210867 0
M  V30 12 H 0.981 2.67203 3.11629 0
M  V30 13 H -0.358 1.57376 2.7183 0
M  V30 14 H -1.165 3.90944 3.18086 0
M  V30 15 H -1.563 3.418 1.51819 0
M  V30 16 H 0.729 5.58782 3.83104 0
M  V30 17 H 1.672 6.56266 2.65933 0
M  V30 18 H 2.08 4.83886 2.90714 0
M  V30 19 N 1.4781 -0.272755 1.55222 0
M  V30 20 C 2.7061 -1.02255 1.79865 0
M  V30 21 C 3.1211 -1.79924 0.572088 0
M  V30 22 O 2.4781 -1.76638 -0.458842 0
M  V30 23 C 2.5291 -1.98094 3.02392 0
M  V30 24 O 2.2501 -1.23572 4.20311 0
M  V30 25 C 3.7511 -2.84884 3.39641 0
M  V30 26 H 0.9711 -0.302057 0.599168 0
M  V30 27 H 3.5151 -0.303465 2.02236 0
M  V30 28 H 1.6701 -2.65465 2.82147 0
M  V30 29 H 2.0841 -1.88172 4.89583 0
M  V30 30 H 3.5581 -3.47927 4.28545 0
M  V30 31 H 4.0351 -3.54665 2.59055 0
M  V30 32 H 4.6411 -2.23003 3.62146 0
M  V30 33 N 2.9562 -1.48159 -0.537278 0
M  V30 34 C 4.2042 -1.55497 -1.29094 0
M  V30 35 C 4.5252 -0.227454 -1.93669 0
M  V30 36 O 3.7952 0.750386 -1.80959 0
M  V30 37 H 2.3752 -0.572832 -0.47945 0
M  V30 38 H 5.0372 -1.84579 -0.625818 0
M  V30 39 H 4.1332 -2.33216 -2.07405 0
M  V30 40 N 4.4343 0.785586 -1.36625 0
M  V30 41 C 5.6623 1.57448 -1.3423 0
M  V30 42 C 6.0773 1.88649 0.0755653 0
M  V30 43 O 5.4343 1.50414 1.03354 0
M  V30 44 C 5.4853 2.89316 -2.16745 0
M  V30 45 O 5.2063 2.59459 -3.53005 0
M  V30 46 C 6.7073 3.83606 -2.22174 0
M  V30 47 H 3.9273 0.488226 -0.4603 0
M  V30 48 H 6.4713 0.974733 -1.79775 0
M  V30 49 H 4.6263 3.4575 -1.74745 0
M  V30 50 H 5.0403 3.43804 -3.96105 0
M  V30 51 H 6.5143 4.73181 -2.8426 0
M  V30 52 H 6.9913 4.21734 -1.22627 0
M  V30 53 H 7.5973 3.33104 -2.64427 0
M  V30 54 N 5.9124 1.20967 1.01018 0
M  V30 55 C 7.1424 1.04803 1.78044 0
M  V30 56 C 7.5504 -0.405462 1.84804 0
M  V30 57 O 6.8934 -1.2932 1.30468 0
M  V30 58 C 6.9554 1.56377 3.23707 0
M  V30 59 C 6.6194 3.04767 3.40538 0
M  V30 60 C 7.6164 4.02366 3.29239 0
M  V30 61 C 5.3014 3.43862 3.66147 0
M  V30 62 C 7.2954 5.37049 3.43304 0
M  V30 63 C 4.9824 4.78699 3.79855 0
M  V30 64 C 5.9804 5.75101 3.68439 0
M  V30 65 O 5.6684 7.07493 3.81719 0
M  V30 66 H 5.4004 0.368778 0.56655 0
M  V30 67 H 7.9544 1.60642 1.27997 0
M  V30 68 H 6.1844 0.949297 3.74867 0
M  V30 69 H 7.8734 1.36136 3.8239 0
M  V30 70 H 8.6394 3.73506 3.09384 0
M  V30 71 H 4.5184 2.69364 3.74118 0
M  V30 72 H 8.0624 6.12277 3.34309 0
M  V30 73 H 3.9594 5.07247 3.99213 0
M  V30 74 H 4.7274 7.1483 3.98697 0
M  V30 75 N 7.3905 -1.2043 1.01659 0
M  V30 76 C 8.6185 -1.93777 0.725132 0
M  V30 77 C 9.0335 -1.74772 -0.714166 0
M  V30 78 O 8.3905 -1.06169 -1.4844 0
M  V30 79 C 8.4415 -3.45876 1.05129 0
M  V30 80 O 8.1625 -3.6426 2.43406 0
M  V30 81 C 9.6635 -4.36368 0.780891 0
M  V30 82 H 6.8835 -0.615901 0.266284 0
M  V30 83 H 9.4275 -1.52922 1.35776 0
M  V30 84 H 7.5825 -3.8461 0.464065 0
M  V30 85 H 7.9965 -4.58246 2.55169 0
M  V30 86 H 9.4705 -5.41743 1.05918 0
M  V30 87 H 9.9475 -4.38275 -0.284937 0
M  V30 88 H 10.5535 -4.03296 1.35027 0
M  V30 89 N 8.8686 -0.792821 -1.36206 0
M  V30 90 C 9.7786 -0.194808 -2.3379 0
M  V30 91 C 10.7946 0.654869 -1.61206 0
M  V30 92 O 11.9706 0.569856 -1.9317 0
M  V30 93 C 9.0356 0.657721 -3.40404 0
M  V30 94 C 8.0966 -0.210849 -4.28782 0
M  V30 95 C 7.3296 0.601086 -5.30304 0
M  V30 96 O 7.5526 1.83682 -5.40016 0
M  V30 97 O 6.4866 -0.000808277 -6.019 0
M  V30 98 H 10.3126 -1.00172 -2.86704 0
M  V30 99 H 7.8976 -0.554341 -1.38735 0
M  V30 100 H 9.7796 1.14375 -4.05581 0
M  V30 101 H 8.4546 1.44247 -2.89784 0
M  V30 102 H 7.3616 -0.743714 -3.66633 0
M  V30 103 H 8.6946 -0.959195 -4.82763 0
M  V30 104 N 10.3467 1.47872 -0.545128 0
M  V30 105 C 11.2767 2.32661 0.197793 0
M  V30 106 C 12.2577 1.43041 0.920504 0
M  V30 107 O 13.4427 1.71912 0.90333 0
M  V30 108 C 10.5727 3.24569 1.23582 0
M  V30 109 C 9.5267 4.23333 0.630323 0
M  V30 110 C 8.8527 5.0448 1.77211 0
M  V30 111 C 10.1527 5.20704 -0.407974 0
M  V30 112 H 11.8467 2.95024 -0.510045 0
M  V30 113 H 9.3927 1.4187 -0.246731 0
M  V30 114 H 11.3457 3.8272 1.76362 0
M  V30 115 H 10.0697 2.60236 1.97344 0
M  V30 116 H 8.7287 3.6639 0.123922 0
M  V30 117 H 8.3767 4.36561 2.49847 0
M  V30 118 H 8.0767 5.71339 1.37281 0
M  V30 119 H 9.6007 5.65487 2.3034 0
M  V30 120 H 11.0147 5.7329 0.033305 0
M  V30 121 H 9.4117 5.95699 -0.725486 0
M  V30 122 H 10.4817 4.66917 -1.30828 0
M  V30 123 N 11.8248 0.280983 1.55075 0
M  V30 124 C 13.0738 -0.334784 1.98902 0
M  V30 125 C 13.3868 -1.56534 1.17288 0
M  V30 126 O 14.5928 -2.25443 1.51287 0
M  V30 127 C 13.0488 -0.646994 3.54037 0
M  V30 128 C 12.6568 0.564085 4.44435 0
M  V30 129 C 14.4008 -1.22506 4.06439 0
M  V30 130 C 12.3078 0.226137 5.90967 0
M  V30 131 H 11.2378 -0.128866 0.742906 0
M  V30 132 H 13.8888 0.386556 1.79382 0
M  V30 133 H 12.2708 -1.42739 3.6938 0
M  V30 134 H 13.4448 1.34082 4.40861 0
M  V30 135 H 11.7598 1.0594 4.02698 0
M  V30 136 H 14.3568 -1.49182 5.13468 0
M  V30 137 H 14.6998 -2.16085 3.55827 0
M  V30 138 H 15.2328 -0.50682 3.94558 0
M  V30 139 H 11.9718 1.12996 6.45687 0
M  V30 140 H 11.4918 -0.513717 5.97596 0
M  V30 141 H 13.1708 -0.179539 6.46751 0
M  V30 142 N 13.3029 -1.57598 0.00835791 0
M  V30 143 C 14.2129 -2.12385 -0.996487 0
M  V30 144 C 15.2289 -1.07108 -1.37127 0
M  V30 145 O 16.4049 -1.39055 -1.4569 0
M  V30 146 C 13.4699 -2.62314 -2.26699 0
M  V30 147 C 12.5309 -3.82225 -1.95456 0
M  V30 148 C 11.7639 -4.29763 -3.16449 0
M  V30 149 O 11.9869 -3.76584 -4.28416 0
M  V30 150 O 10.9209 -5.21832 -2.99958 0
M  V30 151 H 14.7469 -2.98479 -0.560725 0
M  V30 152 H 12.3319 -1.47903 -0.210987 0
M  V30 153 H 14.2139 -2.94589 -3.01322 0
M  V30 154 H 12.8889 -1.79313 -2.69497 0
M  V30 155 H 11.7959 -3.54909 -1.18282 0
M  V30 156 H 13.1289 -4.66324 -1.57489 0
M  V30 157 N 14.781 0.264519 -1.55364 0
M  V30 158 C 16.029 0.993021 -1.76021 0
M  V30 159 C 16.35 1.86511 -0.569099 0
M  V30 160 O 15.62 1.91438 0.415735 0
M  V30 161 H 14.2 0.369639 -0.649135 0
M  V30 162 H 16.862 0.286707 -1.9278 0
M  V30 163 H 15.958 1.62502 -2.66457 0
M  V30 164 N 16.2591 1.48442 0.529413 0
M  V30 165 C 17.4841 1.60406 1.31471 0
M  V30 166 C 17.9091 0.264738 1.86228 0
M  V30 167 O 17.2671 -0.763668 1.64432 0
M  V30 168 C 17.3151 2.65419 2.44101 0
M  V30 169 O 16.4191 2.22618 3.47153 0
M  V30 170 H 15.7601 0.537863 0.389357 0
M  V30 171 H 18.2901 1.94432 0.636965 0
M  V30 172 H 18.3001 2.86709 2.90279 0
M  V30 173 H 16.9751 3.62652 2.03608 0
M  V30 174 H 15.5521 2.11543 3.0709 0
M  V30 175 N 17.7372 -0.778329 1.37039 0
M  V30 176 C 18.6472 -1.92253 1.34446 0
M  V30 177 C 19.6632 -1.72267 0.244991 0
M  V30 178 O 20.8392 -1.95615 0.479258 0
M  V30 179 C 17.9042 -3.27282 1.144 0
M  V30 180 C 16.9652 -3.59969 2.33925 0
M  V30 181 C 16.1982 -4.88555 2.14825 0
M  V30 182 O 16.4212 -5.59113 1.12912 0
M  V30 183 O 15.3552 -5.20153 3.02861 0
M  V30 184 H 19.1812 -1.97392 2.30803 0
M  V30 185 H 16.7662 -0.920154 1.17701 0
M  V30 186 H 18.6482 -4.08062 1.05182 0
M  V30 187 H 17.3232 -3.23011 0.211124 0
M  V30 188 H 16.2302 -2.7945 2.48714 0
M  V30 189 H 17.5632 -3.68976 3.25757 0
M  V30 190 N 19.2153 -1.21501 -1.00376 0
M  V30 191 C 20.6313 -0.972629 -1.26539 0
M  V30 192 C 20.8313 0.340257 -1.98606 0
M  V30 193 O 19.8873 1.06561 -2.28913 0
M  V30 194 C 21.2003 -2.16404 -2.08781 0
M  V30 195 C 22.7483 -2.20643 -2.22004 0
M  V30 196 C 23.2233 -3.39306 -3.07629 0
M  V30 197 N 24.7143 -3.39401 -3.15217 0
M  V30 198 C 25.4493 -4.27867 -3.81729 0
M  V30 199 N 24.9453 -5.26533 -4.5026 0
M  V30 200 N 26.7383 -4.15672 -3.78382 0
M  V30 201 H 18.8893 -2.05929 -0.520281 0
M  V30 202 H 21.1523 -0.901803 -0.292328 0
M  V30 203 H 20.8583 -3.11554 -1.63178 0
M  V30 204 H 20.7323 -2.15567 -3.09533 0
M  V30 205 H 23.1193 -1.26048 -2.66825 0
M  V30 206 H 23.2003 -2.25523 -1.20718 0
M  V30 207 H 22.8443 -4.34195 -2.63509 0
M  V30 208 H 22.7743 -3.31665 -4.09031 0
M  V30 209 H 25.2653 -2.67997 -2.66432 0
M  V30 210 H 25.5783 -5.90337 -4.98721 0
M  V30 211 H 23.9233 -5.30457 -4.49044 0
M  V30 212 H 27.1143 -3.3785 -3.23998 0
M  V30 213 H 27.2873 -4.84825 -4.2994 0
M  V30 214 N 20.6934 1.19889 -1.02296 0
M  V30 215 C 21.6234 2.25141 -0.619174 0
M  V30 216 C 22.6044 1.66051 0.368915 0
M  V30 217 O 23.7894 1.92546 0.252941 0
M  V30 218 C 20.9194 3.4728 0.0368783 0
M  V30 219 C 19.8734 4.19005 -0.872865 0
M  V30 220 C 19.1994 5.34637 -0.0822402 0
M  V30 221 C 20.4994 4.74452 -2.18387 0
M  V30 222 H 22.1934 2.59171 -1.49903 0
M  V30 223 H 19.7394 1.24579 -0.722222 0
M  V30 224 H 21.6924 4.20098 0.330958 0
M  V30 225 H 20.4164 3.12433 0.95149 0
M  V30 226 H 19.0754 3.48061 -1.15105 0
M  V30 227 H 18.7234 4.96034 0.83422 0
M  V30 228 H 18.4234 5.83557 -0.688149 0
M  V30 229 H 19.9474 6.10255 0.205238 0
M  V30 230 H 21.3614 5.39055 -1.95172 0
M  V30 231 H 19.7584 5.33834 -2.74119 0
M  V30 232 H 20.8284 3.92844 -2.84257 0
M  V30 233 N 22.1715 0.800033 1.35784 0
M  V30 234 C 23.3965 0.388511 2.03729 0
M  V30 235 C 23.8215 -0.990481 1.5991 0
M  V30 236 O 23.1795 -1.64013 0.772612 0
M  V30 237 C 23.2275 0.4726 3.5749 0
M  V30 238 O 22.3315 -0.51646 4.09153 0
M  V30 239 H 21.6725 0.163271 0.643614 0
M  V30 240 H 24.2025 1.0841 1.73518 0
M  V30 241 H 24.2125 0.34003 4.06581 0
M  V30 242 H 22.8875 1.47848 3.88734 0
M  V30 243 H 21.4645 -0.344673 3.71304 0
M  V30 244 N 23.6496 -1.47581 0.552962 0
M  V30 245 C 24.8976 -2.02082 0.0272703 0
M  V30 246 C 25.2186 -1.4301 -1.32563 0
M  V30 247 O 24.4886 -0.603745 -1.86365 0
M  V30 248 H 23.0686 -0.746966 0.00709182 0
M  V30 249 H 25.7306 -1.81033 0.722008 0
M  V30 250 H 24.8266 -3.12034 -0.0639951 0
M  V30 251 N 25.1277 -0.289203 -1.54924 0
M  V30 252 C 26.0577 0.58549 -2.2604 0
M  V30 253 C 27.0387 1.14753 -1.25562 0
M  V30 254 O 28.2237 1.17906 -1.54311 0
M  V30 255 C 25.3537 1.76305 -2.99222 0
M  V30 256 C 24.3077 1.33191 -4.06748 0
M  V30 257 C 23.6337 2.5937 -4.6758 0
M  V30 258 C 24.9337 0.471775 -5.20165 0
M  V30 259 H 26.6277 -0.00763532 -2.99399 0
M  V30 260 H 24.1737 -0.00511229 -1.43999 0
M  V30 261 H 26.1267 2.38097 -3.47689 0
M  V30 262 H 24.8507 2.38223 -2.23422 0
M  V30 263 H 23.5097 0.737121 -3.59113 0
M  V30 264 H 23.1577 3.19576 -3.88433 0
M  V30 265 H 22.8577 2.31228 -5.40192 0
M  V30 266 H 24.3817 3.21985 -5.18804 0
M  V30 267 H 25.7957 0.995056 -5.64599 0
M  V30 268 H 24.1927 0.284639 -5.99425 0
M  V30 269 H 25.2627 -0.506041 -4.82252 0
M  V30 270 N 26.6058 1.57591 -0.0167156 0
M  V30 271 C 27.8338 1.95575 0.675128 0
M  V30 272 C 28.2488 0.892542 1.6637 0
M  V30 273 O 27.6058 -0.126912 1.82058 0
M  V30 274 C 27.6568 3.33608 1.39239 0
M  V30 275 O 27.3778 4.3585 0.443444 0
M  V30 276 C 28.8788 3.86151 2.17721 0
M  V30 277 H 26.0988 0.644423 0.186978 0
M  V30 278 H 28.6428 2.0437 -0.0728 0
M  V30 279 H 26.7978 3.2607 2.09182 0
M  V30 280 H 27.2118 5.158 0.951358 0
M  V30 281 H 28.6858 4.85114 2.63379 0
M  V30 282 H 29.1628 3.19738 3.01105 0
M  V30 283 H 29.7688 3.96918 1.52761 0
M  V30 284 N 28.0839 -0.256276 1.55502 0
M  V30 285 C 29.3609 -1.00789 1.67633 0
M  V30 286 C 29.7409 -2.03706 0.553826 0
M  V30 287 O 29.0889 -2.24145 -0.443969 0
M  V30 288 C 29.2989 -1.64968 3.07549 0
M  V30 289 C 30.6469 -2.15505 3.65845 0
M  V30 290 O 31.6709 -1.74925 3.1029 0
M  V30 291 O 30.5299 -2.89986 4.63217 0
M  V30 292 H 27.6239 -0.468553 0.681459 0
M  V30 293 H 30.1699 -0.250806 1.67836 0
M  V30 294 H 28.9419 -0.904785 3.80696 0
M  V30 295 H 28.5649 -2.47321 3.11317 0
M  V30 296 N 29.562 -1.4872 -0.521534 0
M  V30 297 C 30.808 -1.574 -1.27879 0
M  V30 298 C 31.141 -0.250817 -1.92573 0
M  V30 299 O 30.416 0.743934 -1.79711 0
M  V30 300 C 30.699 -2.71843 -2.36164 0
M  V30 301 C 30.552 -4.13893 -1.76105 0
M  V30 302 C 31.871 -2.82008 -3.37875 0
M  V30 303 H 28.99 -0.572941 -0.463581 0
M  V30 304 H 31.632 -1.80927 -0.580119 0
M  V30 305 H 29.782 -2.51914 -2.95756 0
M  V30 306 H 31.454 -4.45284 -1.20499 0
M  V30 307 H 29.697 -4.20498 -1.06601 0
M  V30 308 H 30.368 -4.89804 -2.5455 0
M  V30 309 H 32.844 -3.00086 -2.88249 0
M  V30 310 H 31.72 -3.63796 -4.11028 0
M  V30 311 H 31.981 -1.90511 -3.98946 0
M  V30 312 N 31.0401 0.771051 -1.3745 0
M  V30 313 C 32.3171 1.519 -1.23231 0
M  V30 314 C 32.6971 2.10383 0.173809 0
M  V30 315 O 32.0451 1.95583 1.18151 0
M  V30 316 C 32.2551 2.59933 -2.32886 0
M  V30 317 C 33.6031 3.27316 -2.70461 0
M  V30 318 O 34.6271 2.70228 -2.32068 0
M  V30 319 O 33.4861 4.30531 -3.36608 0
M  V30 320 H 30.5801 0.672803 -0.480901 0
M  V30 321 H 33.1261 0.807957 -1.49232 0
M  V30 322 H 31.8981 2.14842 -3.27045 0
M  V30 323 H 31.5211 3.38637 -2.08353 0
M  V30 324 N 32.5182 1.22032 0.997298 0
M  V30 325 C 33.4282 1.00271 2.12092 0
M  V30 326 C 34.4442 -0.047621 1.73935 0
M  V30 327 O 35.6202 0.144136 2.00884 0
M  V30 328 C 32.6852 0.578449 3.4184 0
M  V30 329 C 31.7462 1.70189 3.94125 0
M  V30 330 C 30.9792 1.29778 5.17681 0
M  V30 331 O 31.2022 0.174676 5.70132 0
M  V30 332 O 30.1362 2.11261 5.63607 0
M  V30 333 H 33.9622 1.94398 2.3333 0
M  V30 334 H 31.5472 1.00587 1.10465 0
M  V30 335 H 33.4292 0.351998 4.19927 0
M  V30 336 H 32.1042 -0.334019 3.21972 0
M  V30 337 H 31.0112 1.98282 3.1723 0
M  V30 338 H 32.3442 2.59206 4.18417 0
M  V30 339 N 33.9963 -1.19345 1.0293 0
M  V30 340 C 35.2423 -1.89318 0.727083 0
M  V30 341 C 35.5753 -1.79446 -0.742483 0
M  V30 342 O 34.8503 -1.1871 -1.54072 0
M  V30 343 C 35.1333 -3.40238 1.17942 0
M  V30 344 C 34.9863 -3.58979 2.71024 0
M  V30 345 C 36.3053 -4.33479 0.760548 0
M  V30 346 H 33.4243 -0.687475 0.265606 0
M  V30 347 H 36.0663 -1.40477 1.2793 0
M  V30 348 H 34.2163 -3.81964 0.709608 0
M  V30 349 H 35.8883 -3.26421 3.25955 0
M  V30 350 H 34.1313 -3.02018 3.11396 0
M  V30 351 H 34.8023 -4.64823 2.9773 0
M  V30 352 H 37.2783 -3.99469 1.16464 0
M  V30 353 H 36.1543 -5.37664 1.10493 0
M  V30 354 H 36.4153 -4.40813 -0.337063 0
M  V30 355 N 35.4744 -0.807222 -1.35358 0
M  V30 356 C 36.7234 -0.384376 -1.98004 0
M  V30 357 C 37.0364 1.0543 -1.64754 0
M  V30 358 O 38.2424 1.58029 -2.20769 0
M  V30 359 C 36.6984 -0.636326 -3.5423 0
M  V30 360 C 36.3064 -2.08759 -3.96388 0
M  V30 361 C 38.0504 -0.278869 -4.23583 0
M  V30 362 C 35.9574 -2.28525 -5.45463 0
M  V30 363 H 34.8874 -0.139986 -0.740891 0
M  V30 364 H 37.5384 -0.991369 -1.54415 0
M  V30 365 H 35.9204 0.0406256 -3.95979 0
M  V30 366 H 37.0944 -2.8024 -3.6579 0
M  V30 367 H 35.4094 -2.40497 -3.39926 0
M  V30 368 H 38.0064 -0.404599 -5.33167 0
M  V30 369 H 38.3494 0.775012 -4.09022 0
M  V30 370 H 38.8824 -0.909764 -3.87257 0
M  V30 371 H 35.6214 -3.32361 -5.64992 0
M  V30 372 H 35.1414 -1.61569 -5.77629 0
M  V30 373 H 36.8204 -2.10109 -6.11934 0
M  V30 374 N 36.9525 1.47285 -0.560781 0
M  V30 375 C 37.8995 2.30058 0.18491 0
M  V30 376 C 38.8695 1.39281 0.904986 0
M  V30 377 O 40.0545 1.68241 0.899979 0
M  V30 378 C 37.1945 3.23317 1.20666 0
M  V30 379 C 36.3075 4.29186 0.492285 0
M  V30 380 C 35.4425 5.09592 1.49964 0
M  V30 381 C 34.4815 6.07232 0.770439 0
M  V30 382 N 33.6185 6.80584 1.72479 0
M  V30 383 H 38.4585 2.93302 -0.527048 0
M  V30 384 H 35.9955 1.44568 -0.271738 0
M  V30 385 H 37.9535 3.75811 1.81168 0
M  V30 386 H 36.5835 2.61929 1.88661 0
M  V30 387 H 35.6355 3.7972 -0.227333 0
M  V30 388 H 36.9475 4.98738 -0.0787929 0
M  V30 389 H 36.1015 5.66254 2.17809 0
M  V30 390 H 34.8405 4.3995 2.10464 0
M  V30 391 H 33.8455 5.49745 0.0780846 0
M  V30 392 H 35.0705 6.78884 0.171134 0
M  V30 393 H 33.0165 6.1367 2.3183 0
M  V30 394 H 32.9335 7.46319 1.20596 0
M  V30 395 H 34.2015 7.41818 2.39428 0
M  V30 396 N 38.4306 0.297415 1.54768 0
M  V30 397 C 39.7076 -0.365847 1.92148 0
M  V30 398 C 40.0876 -1.71975 1.22424 0
M  V30 399 O 39.4356 -2.25666 0.358739 0
M  V30 400 C 39.6456 -0.484056 3.45627 0
M  V30 401 C 40.9936 -0.756594 4.17805 0
M  V30 402 O 42.0176 -0.568007 3.51642 0
M  V30 403 O 40.8766 -1.11863 5.34929 0
M  V30 404 H 37.9706 -0.203919 0.801465 0
M  V30 405 H 40.5166 0.34521 1.66152 0
M  V30 406 H 39.2886 0.467865 3.88493 0
M  V30 407 H 38.9116 -1.24372 3.77647 0
M  V30 408 N 39.9087 -1.5758 0.0250728 0
M  V30 409 C 40.8387 -2.13007 -0.956575 0
M  V30 410 C 41.8197 -1.0452 -1.342 0
M  V30 411 O 43.0047 -1.32332 -1.42133 0
M  V30 412 C 40.1347 -2.65386 -2.24026 0
M  V30 413 C 39.0887 -3.78623 -1.99571 0
M  V30 414 C 38.4147 -4.17414 -3.3417 0
M  V30 415 C 39.7147 -5.04867 -1.33814 0
M  V30 416 H 41.4087 -2.9528 -0.494991 0
M  V30 417 H 38.9547 -1.42042 -0.236651 0
M  V30 418 H 40.9077 -3.02794 -2.93076 0
M  V30 419 H 39.6317 -1.80268 -2.72343 0
M  V30 420 H 38.2907 -3.41646 -1.32941 0
M  V30 421 H 37.9387 -3.29284 -3.80238 0
M  V30 422 H 37.6387 -4.93719 -3.18615 0
M  V30 423 H 39.1627 -4.57402 -4.04495 0
M  V30 424 H 40.5767 -5.39888 -1.92857 0
M  V30 425 H 38.9737 -5.86144 -1.28669 0
M  V30 426 H 40.0437 -4.83904 -0.310561 0
M  V30 427 N 41.3868 0.248026 -1.55636 0
M  V30 428 C 42.6118 0.998028 -1.81808 0
M  V30 429 C 43.0368 1.78207 -0.601979 0
M  V30 430 O 42.3948 1.75653 0.448961 0
M  V30 431 C 42.4428 1.9125 -3.05705 0
M  V30 432 O 41.5468 3.00406 -2.82542 0
M  V30 433 H 40.8878 0.284045 -0.600179 0
M  V30 434 H 43.4178 0.269357 -2.02819 0
M  V30 435 H 43.4278 2.32737 -3.35108 0
M  V30 436 H 42.1028 1.33602 -3.93857 0
M  V30 437 H 40.6798 2.63056 -2.64303 0
M  V30 438 N 42.8649 1.48995 0.513639 0
M  V30 439 C 44.2809 1.35478 0.843682 0
M  V30 440 C 44.4809 0.378213 1.97919 0
M  V30 441 O 43.5369 -0.194689 2.51748 0
M  V30 442 C 44.8499 2.75901 1.1958 0
M  V30 443 C 46.3979 2.84509 1.30474 0
M  V30 444 C 46.8729 4.25671 1.69021 0
M  V30 445 N 48.3639 4.28422 1.76094 0
M  V30 446 C 49.0989 5.34601 2.07338 0
M  V30 447 N 48.5949 6.5104 2.36894 0
M  V30 448 N 50.3879 5.22007 2.08483 0
M  V30 449 H 42.5389 2.11092 -0.235328 0
M  V30 450 H 44.8019 0.947039 -0.0426669 0
M  V30 451 H 44.5079 3.49001 0.434913 0
M  V30 452 H 44.3819 3.10467 2.1422 0
M  V30 453 H 46.7689 2.11655 2.05637 0
M  V30 454 H 46.8499 2.53542 0.339155 0
M  V30 455 H 46.4939 4.99048 0.944135 0
M  V30 456 H 46.4239 4.54094 2.66658 0
M  V30 457 H 48.9149 3.44441 1.55464 0
M  V30 458 H 49.2279 7.2779 2.59887 0
M  V30 459 H 47.5729 6.54287 2.34378 0
M  V30 460 H 50.7639 4.30051 1.84861 0
M  V30 461 H 50.9369 6.04854 2.325 0
M  V30 462 N 44.343 -0.763751 1.37857 0
M  V30 463 C 45.273 -1.89103 1.36975 0
M  V30 464 C 46.254 -1.68439 0.237152 0
M  V30 465 O 47.439 -1.8918 0.438713 0
M  V30 466 C 44.569 -3.26496 1.18395 0
M  V30 467 C 43.523 -3.61741 2.28751 0
M  V30 468 C 42.849 -4.97762 1.95286 0
M  V30 469 C 44.149 -3.67665 3.70972 0
M  V30 470 H 45.843 -1.90099 2.31307 0
M  V30 471 H 43.389 -0.91319 1.11341 0
M  V30 472 H 45.342 -4.05003 1.16406 0
M  V30 473 H 44.066 -3.25955 0.205215 0
M  V30 474 H 42.725 -2.85547 2.29909 0
M  V30 475 H 42.373 -4.93769 0.959221 0
M  V30 476 H 42.073 -5.22313 2.69189 0
M  V30 477 H 43.597 -5.7866 1.94898 0
M  V30 478 H 45.011 -4.36307 3.719 0
M  V30 479 H 43.408 -4.03718 4.43995 0
M  V30 480 H 44.478 -2.68134 4.0402 0
M  V30 481 N 45.8211 -1.22559 -0.990812 0
M  V30 482 C 46.7511 -1.0218 -2.09956 0
M  V30 483 C 47.7321 0.0579394 -1.70001 0
M  V30 484 O 48.9171 -0.104684 -1.93918 0
M  V30 485 C 46.0471 -0.601023 -3.4206 0
M  V30 486 C 45.0011 -1.62694 -3.95872 0
M  V30 487 C 44.3271 -1.06193 -5.24049 0
M  V30 488 C 45.6271 -3.01743 -4.2632 0
M  V30 489 H 47.3211 -1.94916 -2.27262 0
M  V30 490 H 44.8671 -0.938566 -1.09211 0
M  V30 491 H 46.8201 -0.445561 -4.19038 0
M  V30 492 H 45.5441 0.362005 -3.24588 0
M  V30 493 H 44.2031 -1.77021 -3.21028 0
M  V30 494 H 43.8511 -0.0901903 -5.02919 0
M  V30 495 H 43.5511 -1.74732 -5.61019 0
M  V30 496 H 45.0751 -0.918092 -6.03658 0
M  V30 497 H 46.4891 -2.90777 -4.94087 0
M  V30 498 H 44.8861 -3.67425 -4.74467 0
M  V30 499 H 45.9561 -3.51518 -3.34011 0
M  V30 500 N 47.2992 1.18797 -1.03562 0
M  V30 501 C 48.7152 1.40671 -0.753917 0
M  V30 502 C 48.9152 1.9043 0.658686 0
M  V30 503 O 47.9712 2.08538 1.42366 0
M  V30 504 C 49.2842 2.41192 -1.79574 0
M  V30 505 C 50.8322 2.54928 -1.81606 0
M  V30 506 C 51.3072 3.58709 -2.84766 0
M  V30 507 N 52.7982 3.66212 -2.83625 0
M  V30 508 C 53.5332 4.46225 -3.60098 0
M  V30 509 N 53.0292 5.29888 -4.46308 0
M  V30 510 N 54.8222 4.40939 -3.4861 0
M  V30 511 H 46.9732 0.848221 -1.94728 0
M  V30 512 H 49.2362 0.435081 -0.842264 0
M  V30 513 H 48.9422 2.11669 -2.80872 0
M  V30 514 H 48.8162 3.40467 -1.62365 0
M  V30 515 H 51.2032 2.83771 -0.809817 0
M  V30 516 H 51.2842 1.55784 -2.02891 0
M  V30 517 H 50.9282 3.30607 -3.85566 0
M  V30 518 H 50.8582 4.57519 -2.60737 0
M  V30 519 H 53.3492 3.06466 -2.21105 0
M  V30 520 H 53.6622 5.88078 -5.01382 0
M  V30 521 H 52.0072 5.29326 -4.50377 0
M  V30 522 H 55.1982 3.74624 -2.80668 0
M  V30 523 H 55.3712 5.03056 -4.08459 0
M  V30 524 N 48.7773 0.814389 1.34928 0
M  V30 525 C 49.7243 0.22822 2.29669 0
M  V30 526 C 50.6943 -0.642164 1.53184 0
M  V30 527 O 51.8793 -0.585605 1.81591 0
M  V30 528 C 49.0193 -0.61089 3.3965 0
M  V30 529 C 48.1323 0.280792 4.31086 0
M  V30 530 C 47.2673 -0.567067 5.28165 0
M  V30 531 C 46.3063 0.324531 6.11239 0
M  V30 532 N 45.4433 -0.483756 7.00431 0
M  V30 533 H 50.2833 1.04153 2.79206 0
M  V30 534 H 47.8203 0.525133 1.37407 0
M  V30 535 H 49.7783 -1.11263 4.0209 0
M  V30 536 H 48.4083 -1.38939 2.91369 0
M  V30 537 H 47.4603 0.900688 3.69583 0
M  V30 538 H 48.7723 0.966723 4.89342 0
M  V30 539 H 47.9263 -1.13363 5.96015 0
M  V30 540 H 46.6653 -1.28654 4.70425 0
M  V30 541 H 45.6703 0.903298 5.42329 0
M  V30 542 H 46.8953 1.04198 6.71059 0
M  V30 543 H 44.8413 -1.18706 6.45171 0
M  V30 544 H 44.7583 0.143965 7.55863 0
M  V30 545 H 46.0263 -1.03334 7.7262 0
M  V30 546 N 50.2554 -1.46986 0.568584 0
M  V30 547 C 51.1854 -2.32946 -0.160753 0
M  V30 548 C 52.1664 -1.44487 -0.897631 0
M  V30 549 O 53.3514 -1.73327 -0.875867 0
M  V30 550 C 50.4814 -3.26494 -1.18403 0
M  V30 551 C 49.4354 -4.24282 -0.562895 0
M  V30 552 C 48.7614 -5.07236 -1.69163 0
M  V30 553 C 50.0614 -5.19989 0.490761 0
M  V30 554 H 51.7554 -2.94175 0.556916 0
M  V30 555 H 49.3014 -1.4146 0.26927 0
M  V30 556 H 51.2544 -3.85477 -1.70251 0
M  V30 557 H 49.9784 -2.63343 -1.93179 0
M  V30 558 H 48.6374 -3.66541 -0.0656164 0
M  V30 559 H 48.2854 -4.4048 -2.42871 0
M  V30 560 H 47.9854 -5.7345 -1.28174 0
M  V30 561 H 49.5094 -5.6908 -2.21314 0
M  V30 562 H 50.9234 -5.73271 0.0579047 0
M  V30 563 H 49.3204 -5.94469 0.820165 0
M  V30 564 H 50.3904 -4.64777 1.3824 0
M  V30 565 N 51.7335 -0.305618 -1.54608 0
M  V30 566 C 52.9795 0.302746 -2.00528 0
M  V30 567 C 53.3125 1.53184 -1.19367 0
M  V30 568 O 52.5875 1.92598 -0.271321 0
M  V30 569 C 52.8705 0.654756 -3.54097 0
M  V30 570 C 52.7235 -0.583793 -4.45995 0
M  V30 571 C 54.0425 1.47947 -4.14487 0
M  V30 572 H 51.1615 0.108564 -0.72896 0
M  V30 573 H 53.8035 -0.418634 -1.85331 0
M  V30 574 H 51.9535 1.26935 -3.67178 0
M  V30 575 H 53.6255 -1.22224 -4.44814 0
M  V30 576 H 51.8685 -1.21615 -4.16404 0
M  V30 577 H 52.5395 -0.293287 -5.5122 0
M  V30 578 H 55.0155 0.96013 -4.04871 0
M  V30 579 H 53.8915 1.69454 -5.22088 0
M  V30 580 H 54.1525 2.47011 -3.66658 0
M  V30 581 N 53.2116 1.57565 -0.0334293 0
M  V30 582 C 54.1586 2.10478 0.946981 0
M  V30 583 C 55.1286 1.00787 1.32027 0
M  V30 584 O 56.3136 1.28232 1.41284 0
M  V30 585 C 53.4536 2.63994 2.22263 0
M  V30 586 C 52.5666 3.87709 1.90541 0
M  V30 587 C 51.7016 4.29604 3.12433 0
M  V30 588 C 50.7406 5.46065 2.76549 0
M  V30 589 N 49.8776 5.83096 3.9108 0
M  V30 590 H 54.7176 2.93963 0.488846 0
M  V30 591 H 52.2546 1.45296 0.22969 0
M  V30 592 H 54.2126 2.93114 2.96884 0
M  V30 593 H 52.8426 1.83333 2.65685 0
M  V30 594 H 51.8946 3.65291 1.06144 0
M  V30 595 H 53.2066 4.72403 1.60116 0
M  V30 596 H 52.3606 4.60182 3.9537 0
M  V30 597 H 51.0996 3.43685 3.46023 0
M  V30 598 H 50.1046 5.15176 1.92026 0
M  V30 599 H 51.3296 6.33685 2.44171 0
M  V30 600 H 49.2756 5.00132 4.24504 0
M  V30 601 H 49.1926 6.6244 3.64293 0
M  V30 602 H 50.4606 6.18282 4.74708 0
M  V30 603 N 54.6897 -0.239769 1.55765 0
M  V30 604 C 55.9177 -0.98417 1.81994 0
M  V30 605 C 56.3327 -1.7867 0.610124 0
M  V30 606 O 55.6897 -1.77571 -0.421271 0
M  V30 607 C 55.7407 -1.91635 3.06526 0
M  V30 608 O 55.4617 -1.14629 4.22838 0
M  V30 609 C 56.9627 -2.77616 3.45607 0
M  V30 610 H 54.1827 -0.28928 0.605441 0
M  V30 611 H 56.7267 -0.260499 2.02834 0
M  V30 612 H 54.8817 -2.5942 2.87715 0
M  V30 613 H 55.2957 -1.77745 4.93464 0
M  V30 614 H 56.7697 -3.38759 4.35828 0
M  V30 615 H 57.2467 -3.4909 2.6652 0
M  V30 616 H 57.8527 -2.15271 3.66795 0
M  V30 617 N 56.1678 -1.49265 -0.50573 0
M  V30 618 C 57.5838 -1.35923 -0.836486 0
M  V30 619 C 57.7838 -0.388704 -1.97715 0
M  V30 620 O 56.8398 0.181336 -2.51848 0
M  V30 621 C 58.1528 -2.76531 -1.18115 0
M  V30 622 C 59.7008 -2.85197 -1.28964 0
M  V30 623 C 60.1758 -4.26561 -1.66761 0
M  V30 624 N 61.6668 -4.2935 -1.73819 0
M  V30 625 C 62.4018 -5.35693 -2.045 0
M  V30 626 N 61.8978 -6.52287 -2.33438 0
M  V30 627 N 63.6908 -5.23105 -2.05711 0
M  V30 628 H 55.8418 -2.10965 0.246519 0
M  V30 629 H 58.1048 -0.9468 0.0476887 0
M  V30 630 H 57.8108 -3.49226 -0.416398 0
M  V30 631 H 57.6848 -3.11599 -2.1257 0
M  V30 632 H 60.0718 -2.12742 -2.04511 0
M  V30 633 H 60.1528 -2.53718 -0.325704 0
M  V30 634 H 59.7968 -4.99541 -0.917656 0
M  V30 635 H 59.7268 -4.55502 -2.64246 0
M  V30 636 H 62.2178 -3.4526 -1.53635 0
M  V30 637 H 62.5308 -7.29158 -2.56024 0
M  V30 638 H 60.8758 -6.55521 -2.30905 0
M  V30 639 H 64.0668 -4.31026 -1.82577 0
M  V30 640 H 64.2398 -6.06078 -2.29289 0
M  V30 641 N 57.6459 0.756429 -1.3826 0
M  V30 642 C 58.8919 1.5168 -1.35517 0
M  V30 643 C 59.2469 1.9232 0.0554451 0
M  V30 644 O 58.5399 1.62352 1.01746 0
M  V30 645 C 58.7339 2.78313 -2.24224 0
M  V30 646 C 58.5629 2.50053 -3.7377 0
M  V30 647 C 57.3329 2.43414 -4.42807 0
M  V30 648 C 59.5309 2.1702 -4.66269 0
M  V30 649 N 57.5129 2.07398 -5.77805 0
M  V30 650 C 58.8839 1.91271 -5.89759 0
M  V30 651 C 60.9389 2.03305 -4.54501 0
M  V30 652 C 59.6419 1.53192 -7.02798 0
M  V30 653 C 61.6679 1.66627 -5.67441 0
M  V30 654 C 61.0299 1.4175 -6.8999 0
M  V30 655 H 57.1289 0.554735 -0.551174 0
M  V30 656 H 59.7129 0.881106 -1.73622 0
M  V30 657 H 57.8839 3.39696 -1.88311 0
M  V30 658 H 59.6159 3.44343 -2.12627 0
M  V30 659 H 56.3709 2.59789 -3.95988 0
M  V30 660 H 56.7949 1.92044 -6.4919 0
M  V30 661 H 61.4369 2.21215 -3.60311 0
M  V30 662 H 59.1549 1.34022 -7.96909 0
M  V30 663 H 62.7409 1.56652 -5.60314 0
M  V30 664 H 61.6209 1.1379 -7.759 0
M  V30 665 N 59.124 1.23083 0.984299 0
M  V30 666 C 60.373 1.05466 1.71929 0
M  V30 667 C 60.686 -0.409211 1.91272 0
M  V30 668 O 61.892 -0.705226 2.62181 0
M  V30 669 C 60.348 1.83874 3.09384 0
M  V30 670 C 59.956 3.34566 2.97943 0
M  V30 671 C 61.7 1.74734 3.8687 0
M  V30 672 C 59.607 4.05381 4.30605 0
M  V30 673 H 58.537 0.391039 0.644674 0
M  V30 674 H 61.188 1.47013 1.09815 0
M  V30 675 H 59.57 1.35131 3.72231 0
M  V30 676 H 60.744 3.90767 2.44209 0
M  V30 677 H 59.059 3.44476 2.33934 0
M  V30 678 H 61.656 2.24957 4.85076 0
M  V30 679 H 61.999 0.709372 4.10212 0
M  V30 680 H 62.532 2.21067 3.30717 0
M  V30 681 H 59.271 5.09467 4.1246 0
M  V30 682 H 58.791 3.53967 4.84218 0
M  V30 683 H 60.47 4.11458 4.99311 0
M  V30 684 N 60.6021 -1.18246 1.0419 0
M  V30 685 C 61.5651 -2.20128 0.638452 0
M  V30 686 C 62.5651 -1.57885 -0.304805 0
M  V30 687 O 63.7551 -1.73967 -0.0900369 0
M  V30 688 C 60.8871 -3.4084 -0.0637751 0
M  V30 689 H 62.0801 -2.57336 1.54007 0
M  V30 690 H 59.6331 -1.32152 0.834598 0
M  V30 691 H 60.3681 -3.09166 -0.979136 0
M  V30 692 H 60.1531 -3.8726 0.614198 0
M  V30 693 H 61.6431 -4.16274 -0.332512 0
M  V30 694 N 62.0802 -0.821533 -1.34494 0
M  V30 695 C 63.3262 -0.409552 -1.98622 0
M  V30 696 C 63.6592 1.0244 -1.64984 0
M  V30 697 O 62.9342 1.71325 -0.920758 0
M  V30 698 C 63.2172 -0.610458 -3.54888 0
M  V30 699 C 63.0702 -2.09043 -3.98273 0
M  V30 700 C 64.3892 -0.0455379 -4.40076 0
M  V30 701 H 61.5082 -0.15028 -0.721516 0
M  V30 702 H 64.1502 -1.03384 -1.59411 0
M  V30 703 H 62.3002 -0.079044 -3.8842 0
M  V30 704 H 63.9722 -2.68537 -3.75081 0
M  V30 705 H 62.2152 -2.58139 -3.48635 0
M  V30 706 H 62.8862 -2.18182 -5.07051 0
M  V30 707 H 65.3622 -0.499557 -4.1309 0
M  V30 708 H 64.2382 -0.215922 -5.48475 0
M  V30 709 H 64.4992 1.04939 -4.29465 0
M  V30 710 N 63.5583 1.46682 -0.576371 0
M  V30 711 C 64.7883 2.06498 -0.0648694 0
M  V30 712 C 65.1963 1.42665 1.24271 0
M  V30 713 O 64.5393 0.523886 1.76071 0
M  V30 714 C 64.6013 3.5904 0.181816 0
M  V30 715 C 64.2653 4.45028 -1.0392 0
M  V30 716 C 65.2623 4.81959 -1.94966 0
M  V30 717 C 62.9473 4.86259 -1.25927 0
M  V30 718 C 64.9413 5.58942 -3.06371 0
M  V30 719 C 62.6283 5.63002 -2.37638 0
M  V30 720 C 63.6263 5.99257 -3.2769 0
M  V30 721 O 63.3143 6.7445 -4.37461 0
M  V30 722 H 63.0463 0.674028 -0.0515987 0
M  V30 723 H 65.6003 1.89393 -0.794951 0
M  V30 724 H 63.8303 3.74429 0.966436 0
M  V30 725 H 65.5193 4.00806 0.641047 0
M  V30 726 H 66.2853 4.50689 -1.79177 0
M  V30 727 H 62.1643 4.57494 -0.567448 0
M  V30 728 H 65.7083 5.87158 -3.76684 0
M  V30 729 H 61.6053 5.93686 -2.53392 0
M  V30 730 H 62.3733 6.92867 -4.35749 0
M  V30 731 N 65.0364 0.313813 1.54444 0
M  V30 732 C 66.2834 -0.291675 2.00388 0
M  V30 733 C 66.6114 -1.52904 1.2021 0
M  V30 734 O 65.8664 -1.93833 0.269707 0
M  V30 735 C 66.1654 -0.680386 3.50864 0
M  V30 736 C 65.8314 0.456699 4.48581 0
M  V30 737 C 64.4934 0.768824 4.75018 0
M  V30 738 C 66.8454 1.22098 5.06697 0
M  V30 739 C 64.1734 1.84812 5.56831 0
M  V30 740 C 66.5254 2.29029 5.89685 0
M  V30 741 C 65.1894 2.60834 6.14428 0
M  V30 742 H 64.4594 -0.106732 0.733273 0
M  V30 743 H 67.1064 0.43557 1.86481 0
M  V30 744 H 65.4114 -1.48791 3.62448 0
M  V30 745 H 67.1084 -1.16026 3.83847 0
M  V30 746 H 63.6984 0.203337 4.28117 0
M  V30 747 H 67.8824 0.993096 4.86263 0
M  V30 748 H 63.1384 2.09912 5.74236 0
M  V30 749 H 67.3124 2.887 6.33739 0
M  V30 750 H 64.9394 3.44596 6.77612 0
M  V30 751 N 66.5145 -1.57545 0.0417849 0
M  V30 752 C 67.7615 -1.92317 -0.634082 0
M  V30 753 C 68.0895 -0.919334 -1.71402 0
M  V30 754 O 67.3445 0.0698253 -1.95575 0
M  V30 755 C 67.6435 -3.33794 -1.27735 0
M  V30 756 C 67.3095 -4.49716 -0.326543 0
M  V30 757 C 65.9715 -4.81156 -0.0648814 0
M  V30 758 C 68.3235 -5.20182 0.325623 0
M  V30 759 C 65.6515 -5.80414 0.856539 0
M  V30 760 C 68.0035 -6.20424 1.23518 0
M  V30 761 C 66.6675 -6.50298 1.5056 0
M  V30 762 H 65.9375 -0.703736 -0.232027 0
M  V30 763 H 68.5845 -1.91205 0.106259 0
M  V30 764 H 66.8895 -3.31228 -2.09274 0
M  V30 765 H 68.5865 -3.57975 -1.80707 0
M  V30 766 H 65.1765 -4.25176 -0.540665 0
M  V30 767 H 69.3605 -4.96112 0.136546 0
M  V30 768 H 64.6165 -6.019 1.07363 0
M  V30 769 H 68.7905 -6.74141 1.74664 0
M  V30 770 H 66.4175 -7.27025 2.22123 0
M  V30 771 N 67.9926 0.231505 -1.5589 0
M  V30 772 C 69.2696 0.981096 -1.69215 0
M  V30 773 C 69.6496 2.02799 -0.586164 0
M  V30 774 O 68.9976 2.24823 0.408253 0
M  V30 775 C 69.2076 1.60054 -3.10135 0
M  V30 776 C 70.5556 2.09658 -3.69227 0
M  V30 777 O 71.5796 1.69967 -3.13033 0
M  V30 778 O 70.4386 2.8258 -4.67772 0
M  V30 779 H 67.5326 0.457653 -0.688827 0
M  V30 780 H 70.0786 0.224073 -1.68214 0
M  V30 781 H 68.8506 0.844105 -3.82087 0
M  V30 782 H 68.4736 2.42336 -3.15212 0
M  V30 783 N 69.4707 1.49531 0.497807 0
M  V30 784 C 70.8867 1.36365 0.829266 0
M  V30 785 C 71.0867 0.399184 1.97506 0
M  V30 786 O 70.1427 -0.167977 2.51941 0
M  V30 787 C 71.4557 2.77153 1.16647 0
M  V30 788 C 73.0037 2.85877 1.27449 0
M  V30 789 C 73.4787 4.2744 1.64497 0
M  V30 790 N 74.9697 4.30265 1.7154 0
M  V30 791 C 75.7047 5.3677 2.01656 0
M  V30 792 N 75.2007 6.53516 2.29976 0
M  V30 793 N 76.9937 5.24189 2.02934 0
M  V30 794 H 69.1447 2.10831 -0.257703 0
M  V30 795 H 71.4077 0.946534 -0.0527091 0
M  V30 796 H 71.1137 3.49442 0.397872 0
M  V30 797 H 70.9877 3.12722 2.10915 0
M  V30 798 H 73.3747 2.13824 2.0338 0
M  V30 799 H 73.4557 2.53887 0.312244 0
M  V30 800 H 73.0997 5.00021 0.891151 0
M  V30 801 H 73.0297 4.56896 2.61827 0
M  V30 802 H 75.5207 3.4607 1.51802 0
M  V30 803 H 75.8337 7.30506 2.52153 0
M  V30 804 H 74.1787 6.56737 2.27425 0
M  V30 805 H 77.3697 4.31988 1.80289 0
M  V30 806 H 77.5427 6.07286 2.26071 0
M  V30 807 N 70.9488 -0.749086 1.3866 0
M  V30 808 C 71.8588 -1.89358 1.38494 0
M  V30 809 C 72.8748 -1.71708 0.281476 0
M  V30 810 O 74.0508 -1.94554 0.520643 0
M  V30 811 C 71.1158 -3.24782 1.21316 0
M  V30 812 C 70.1768 -3.54926 2.41508 0
M  V30 813 C 69.4098 -4.83888 2.2514 0
M  V30 814 O 69.6328 -5.56592 1.24746 0
M  V30 815 O 68.5668 -5.13612 3.13826 0
M  V30 816 H 72.3928 -1.92452 2.34938 0
M  V30 817 H 69.9778 -0.894981 1.19626 0
M  V30 818 H 71.8598 -4.05739 1.13814 0
M  V30 819 H 70.5348 -3.2249 0.279592 0
M  V30 820 H 69.4418 -2.74112 2.54585 0
M  V30 821 H 70.7748 -3.61983 3.3351 0
M  V30 822 N 72.4269 -1.23603 -0.977757 0
M  V30 823 C 73.8429 -0.999251 -1.24447 0
M  V30 824 C 74.0429 0.298053 -1.99283 0
M  V30 825 O 73.0989 1.01681 -2.31122 0
M  V30 826 C 74.4119 -2.20784 -2.04144 0
M  V30 827 C 75.9599 -2.25303 -2.17273 0
M  V30 828 C 76.4349 -3.45755 -3.00362 0
M  V30 829 N 77.9259 -3.4601 -3.07947 0
M  V30 830 C 78.6609 -4.35868 -3.72568 0
M  V30 831 N 78.1569 -5.35966 -4.38991 0
M  V30 832 N 79.9499 -4.23605 -3.6948 0
M  V30 833 H 72.1009 -2.06986 -0.476483 0
M  V30 834 H 74.3639 -0.907801 -0.273134 0
M  V30 835 H 74.0699 -3.14945 -1.56533 0
M  V30 836 H 73.9439 -2.22085 -3.04891 0
M  V30 837 H 76.3309 -1.3168 -2.64092 0
M  V30 838 H 76.4119 -2.28033 -1.15907 0
M  V30 839 H 76.0559 -4.39687 -2.5424 0
M  V30 840 H 75.9859 -3.40266 -4.01904 0
M  V30 841 H 78.4769 -2.73588 -2.60688 0
M  V30 842 H 78.7899 -6.00783 -4.86086 0
M  V30 843 H 77.1349 -5.39863 -4.37691 0
M  V30 844 H 80.3259 -3.44647 -3.16759 0
M  V30 845 H 80.4989 -4.93836 -4.1956 0
M  V30 846 N 73.905 1.17692 -1.04816 0
M  V30 847 C 75.321 1.39863 -0.768794 0
M  V30 848 C 75.521 1.91118 0.638451 0
M  V30 849 O 74.577 2.10036 1.40146 0
M  V30 850 C 75.89 2.39274 -1.82122 0
M  V30 851 C 77.438 2.52987 -1.843 0
M  V30 852 C 77.913 3.55669 -2.88555 0
M  V30 853 N 79.404 3.63183 -2.87493 0
M  V30 854 C 80.139 4.42381 -3.64811 0
M  V30 855 N 79.635 5.25125 -4.51903 0
M  V30 856 N 81.428 4.37217 -3.53267 0
M  V30 857 H 73.579 0.82752 -1.95617 0
M  V30 858 H 75.842 0.426123 -0.846831 0
M  V30 859 H 75.548 2.08678 -2.83102 0
M  V30 860 H 75.422 3.38725 -1.65967 0
M  V30 861 H 77.809 2.82896 -0.839869 0
M  V30 862 H 77.89 1.53623 -2.04532 0
M  V30 863 H 77.534 3.26499 -3.89051 0
M  V30 864 H 77.464 4.54728 -2.65575 0
M  V30 865 H 79.955 3.04103 -2.24343 0
M  V30 866 H 80.268 5.82728 -5.07591 0
M  V30 867 H 78.613 5.24519 -4.55966 0
M  V30 868 H 81.804 3.71626 -2.84625 0
M  V30 869 H 81.977 4.98696 -4.13771 0
M  V30 870 N 75.3831 0.828654 1.34056 0
M  V30 871 C 76.6601 0.341809 1.9259 0
M  V30 872 C 77.0401 -1.17158 1.75605 0
M  V30 873 O 76.3881 -1.98132 1.13824 0
M  V30 874 C 76.5981 0.777453 3.4023 0
M  V30 875 C 77.9461 0.779579 4.17382 0
M  V30 876 O 78.9701 0.7204 3.48839 0
M  V30 877 O 77.8291 0.857996 5.39723 0
M  V30 878 H 74.9231 0.0946085 0.821571 0
M  V30 879 H 77.4691 0.913827 1.42994 0
M  V30 880 H 76.2411 1.8196 3.46419 0
M  V30 881 H 75.8641 0.181444 3.97186 0
M  V30 882 N 76.8612 -1.46375 0.584142 0
M  V30 883 C 78.1082 -2.02378 0.0702675 0
M  V30 884 C 78.4362 -1.45545 -1.29023 0
M  V30 885 O 77.6912 -0.610967 -1.85918 0
M  V30 886 C 77.9902 -3.57373 -0.0439342 0
M  V30 887 C 77.6562 -4.33252 1.24915 0
M  V30 888 C 76.3182 -4.53701 1.60341 0
M  V30 889 C 78.6702 -4.7681 2.1048 0
M  V30 890 C 75.9982 -5.1496 2.81128 0
M  V30 891 C 78.3502 -5.39404 3.30494 0
M  V30 892 C 77.0142 -5.5808 3.66201 0
M  V30 893 H 76.2842 -0.740554 0.0257127 0
M  V30 894 H 78.9312 -1.75727 0.761065 0
M  V30 895 H 77.2362 -3.83169 -0.817869 0
M  V30 896 H 78.9332 -3.98384 -0.457318 0
M  V30 897 H 75.5232 -4.17633 0.963364 0
M  V30 898 H 79.7072 -4.60766 1.84414 0
M  V30 899 H 74.9632 -5.27611 3.08928 0
M  V30 900 H 79.1372 -5.72114 3.97063 0
M  V30 901 H 76.7642 -6.05318 4.59885 0
M  V30 902 N 78.3393 -0.321999 -1.54275 0
M  V30 903 C 79.3023 0.531975 -2.22941 0
M  V30 904 C 80.3023 1.04478 -1.22234 0
M  V30 905 O 81.4923 0.937452 -1.46825 0
M  V30 906 C 78.6243 1.73874 -2.93224 0
M  V30 907 H 79.8173 -0.0682612 -2.99822 0
M  V30 908 H 77.3703 -0.0730644 -1.56129 0
M  V30 909 H 78.1053 2.37825 -2.20476 0
M  V30 910 H 77.8903 1.37847 -3.6707 0
M  V30 911 H 79.3803 2.34496 -3.45545 0
M  V30 912 N 79.8174 1.5752 -0.0501392 0
M  V30 913 C 81.2284 1.80271 0.485705 0
M  V30 914 C 81.5794 0.96228 1.70981 0
M  V30 915 O 80.7044 0.178578 2.15662 0
M  V30 916 C 81.2994 3.26957 0.887938 0
M  V30 917 C 79.8584 3.5063 1.36877 0
M  V30 918 C 79.0054 2.75165 0.343468 0
M  V30 919 H 81.9564 1.56281 -0.276028 0
M  V30 920 H 81.9774 3.37821 1.75093 0
M  V30 921 H 81.4894 3.881 -0.0031809 0
M  V30 922 H 79.5904 2.94766 2.27911 0
M  V30 923 H 79.7034 4.59343 1.36164 0
M  V30 924 H 78.0674 2.4127 0.816128 0
M  V30 925 H 78.8504 3.39034 -0.539548 0
M  V30 926 N 81.2955 -0.223234 1.56011 0
M  V30 927 C 82.2585 -1.26014 1.9145 0
M  V30 928 C 83.2585 -1.3989 0.792937 0
M  V30 929 O 84.4485 -1.38184 1.0607 0
M  V30 930 C 81.5805 -2.63422 2.16383 0
M  V30 931 H 82.7735 -0.95796 2.84189 0
M  V30 932 H 80.3265 -0.463576 1.49267 0
M  V30 933 H 81.0615 -2.98741 1.2619 0
M  V30 934 H 80.8465 -2.54728 2.98088 0
M  V30 935 H 82.3365 -3.38249 2.44903 0
M  V30 936 N 82.7736 -1.49793 -0.48987 0
M  V30 937 C 84.1896 -1.36803 -0.822022 0
M  V30 938 C 84.3896 -0.409652 -1.97292 0
M  V30 939 O 83.4456 0.154614 -2.52026 0
M  V30 940 C 84.7586 -2.77768 -1.15175 0
M  V30 941 C 86.3066 -2.86549 -1.25931 0
M  V30 942 C 86.7816 -4.28306 -1.62228 0
M  V30 943 N 88.2726 -4.31169 -1.69256 0
M  V30 944 C 89.0076 -5.37832 -1.98807 0
M  V30 945 N 88.5036 -6.54726 -2.26507 0
M  V30 946 N 90.2966 -5.25258 -2.00152 0
M  V30 947 H 82.4476 -2.10691 0.268881 0
M  V30 948 H 84.7106 -0.946241 0.057728 0
M  V30 949 H 84.4166 -3.49648 -0.379335 0
M  V30 950 H 84.2906 -3.13836 -2.09253 0
M  V30 951 H 86.6776 -2.14899 -2.02243 0
M  V30 952 H 86.7586 -2.54049 -0.298776 0
M  V30 953 H 86.4026 -5.00486 -0.864622 0
M  V30 954 H 86.3326 -4.58279 -2.594 0
M  V30 955 H 88.8236 -3.4687 -1.49965 0
M  V30 956 H 89.1366 -7.31833 -2.48276 0
M  V30 957 H 87.4816 -6.57933 -2.23939 0
M  V30 958 H 90.6726 -4.32938 -1.77996 0
M  V30 959 H 90.8456 -6.08476 -2.22848 0
M  V30 960 N 84.2517 0.741722 -1.39055 0
M  V30 961 C 85.4767 1.53607 -1.39354 0
M  V30 962 C 85.9017 1.88096 0.0116905 0
M  V30 963 O 85.2597 1.5143 0.996924 0
M  V30 964 C 85.3077 2.80441 -2.26682 0
M  V30 965 O 84.4117 3.76088 -1.69208 0
M  V30 966 H 83.7527 0.464142 -0.474835 0
M  V30 967 H 86.2827 0.915665 -1.82967 0
M  V30 968 H 86.2927 3.29246 -2.40959 0
M  V30 969 H 84.9677 2.5467 -3.2881 0
M  V30 970 H 83.5447 3.34833 -1.64138 0
M  V30 971 N 85.7298 1.2412 0.971189 0
M  V30 972 C 86.9578 1.10575 1.74874 0
M  V30 973 C 87.3728 -0.342017 1.85676 0
M  V30 974 O 86.7298 -1.23617 1.34258 0
M  V30 975 C 86.7808 1.73579 3.171 0
M  V30 976 O 86.5018 3.12695 3.06844 0
M  V30 977 C 88.0028 1.65598 4.11208 0
M  V30 978 H 85.2228 0.386504 0.548503 0
M  V30 979 H 87.7668 1.64156 1.21955 0
M  V30 980 H 85.9218 1.24009 3.67016 0
M  V30 981 H 86.3358 3.43412 3.96445 0
M  V30 982 H 87.8098 2.1437 5.08674 0
M  V30 983 H 88.2868 0.616532 4.34851 0
M  V30 984 H 88.8928 2.14578 3.67201 0
M  V30 985 N 87.2079 -1.17134 1.05439 0
M  V30 986 C 88.4559 -1.87085 0.764429 0
M  V30 987 C 88.7769 -1.81584 -0.710787 0
M  V30 988 O 88.0469 -1.24349 -1.51374 0
M  V30 989 H 86.6269 -0.692627 0.279779 0
M  V30 990 H 89.2889 -1.42087 1.33406 0
M  V30 991 H 88.3849 -2.92759 1.0816 0
M  V30 992 N 88.686 -0.835752 -1.33615 0
M  V30 993 C 89.616 -0.281739 -2.31794 0
M  V30 994 C 90.597 0.608833 -1.58831 0
M  V30 995 O 91.782 0.533035 -1.86741 0
M  V30 996 C 88.912 0.546612 -3.42971 0
M  V30 997 C 87.866 -0.247904 -4.27281 0
M  V30 998 C 87.192 0.704001 -5.30045 0
M  V30 999 C 88.492 -1.46324 -5.01385 0
M  V30 1000 H 90.186 -1.10206 -2.78379 0
M  V30 1001 H 87.732 -0.531388 -1.33837 0
M  V30 1002 H 89.685 0.944467 -4.1068 0
M  V30 1003 H 88.409 1.40011 -2.95067 0
M  V30 1004 H 87.068 -0.627281 -3.61194 0
M  V30 1005 H 86.716 1.55381 -4.78399 0
M  V30 1006 H 86.416 0.176524 -5.87335 0
M  V30 1007 H 87.94 1.09944 -6.0062 0
M  V30 1008 H 89.354 -1.13871 -5.61877 0
M  V30 1009 H 87.751 -1.92728 -5.6831 0
M  V30 1010 H 88.821 -2.23467 -4.30338 0
M  V30 1011 N 90.1641 1.46063 -0.591896 0
M  V30 1012 C 91.5751 1.85944 -0.167822 0
M  V30 1013 C 91.9261 1.49429 1.27143 0
M  V30 1014 O 91.0511 0.913515 1.96173 0
M  V30 1015 C 91.6461 3.37489 -0.297794 0
M  V30 1016 C 90.2051 3.76332 0.0714732 0
M  V30 1017 C 89.3521 2.7006 -0.629509 0
M  V30 1018 H 92.3031 1.37087 -0.799555 0
M  V30 1019 H 92.3241 3.77532 0.474349 0
M  V30 1020 H 91.8361 3.64034 -1.3454 0
M  V30 1021 H 89.9371 3.55405 1.11886 0
M  V30 1022 H 90.0501 4.78088 -0.311245 0
M  V30 1023 H 88.4141 2.54607 -0.0687867 0
M  V30 1024 H 89.1971 2.99444 -1.67894 0
M  V30 1025 N 91.6422 0.330177 1.54103 0
M  V30 1026 C 92.6052 -0.520144 2.2322 0
M  V30 1027 C 93.6052 -1.03828 1.22786 0
M  V30 1028 O 94.7952 -0.929652 1.4732 0
M  V30 1029 C 91.9272 -1.72317 2.94142 0
M  V30 1030 H 93.1202 0.0841605 2.99782 0
M  V30 1031 H 90.6732 0.0813433 1.56088 0
M  V30 1032 H 91.4082 -2.36653 2.21734 0
M  V30 1033 H 91.1932 -1.35898 3.67796 0
M  V30 1034 H 92.6832 -2.3266 3.46784 0
M  V30 1035 N 93.1203 -1.57491 0.0584922 0
M  V30 1036 C 94.3453 -1.97711 -0.62652 0
M  V30 1037 C 94.7703 -0.936132 -1.63151 0
M  V30 1038 O 94.1283 0.099811 -1.81025 0
M  V30 1039 C 94.1763 -3.36989 -1.28338 0
M  V30 1040 O 93.2803 -3.35433 -2.39913 0
M  V30 1041 H 92.6213 -0.643868 -0.162266 0
M  V30 1042 H 95.1513 -2.04193 0.129064 0
M  V30 1043 H 95.1613 -3.73879 -1.63335 0
M  V30 1044 H 93.8363 -4.12289 -0.546889 0
M  V30 1045 H 92.4133 -3.10298 -2.06809 0
M  V30 1046 N 94.5984 0.214957 -1.56127 0
M  V30 1047 C 95.8454 0.938372 -1.79446 0
M  V30 1048 C 96.1734 1.8407 -0.628378 0
M  V30 1049 O 95.4284 1.91837 0.386925 0
M  V30 1050 C 95.7274 1.80314 -3.0858 0
M  V30 1051 C 95.3934 1.05349 -4.3842 0
M  V30 1052 C 94.0554 0.846435 -4.73697 0
M  V30 1053 C 96.4074 0.524588 -5.18553 0
M  V30 1054 C 93.7354 0.098683 -5.86617 0
M  V30 1055 C 96.0874 -0.209853 -6.32252 0
M  V30 1056 C 94.7514 -0.428102 -6.66126 0
M  V30 1057 H 94.0214 0.343375 -0.656639 0
M  V30 1058 H 96.6684 0.206077 -1.90388 0
M  V30 1059 H 94.9734 2.6035 -2.92789 0
M  V30 1060 H 96.6704 2.36513 -3.23825 0
M  V30 1061 H 93.2604 1.22486 -4.10725 0
M  V30 1062 H 97.4444 0.672008 -4.91729 0
M  V30 1063 H 92.7004 -0.0805753 -6.11347 0
M  V30 1064 H 96.8744 -0.627157 -6.9357 0
M  V30 1065 H 94.5014 -1.00944 -7.53468 0
M  V30 1066 N 96.0765 1.50051 0.48192 0
M  V30 1067 C 97.0065 1.71046 1.58951 0
M  V30 1068 C 97.9875 0.559288 1.60642 0
M  V30 1069 O 99.1725 0.797243 1.77081 0
M  V30 1070 C 96.3025 1.79462 2.97339 0
M  V30 1071 C 95.2565 2.94558 3.10515 0
M  V30 1072 C 94.5825 2.88105 4.50444 0
M  V30 1073 C 95.8825 4.35227 2.88747 0
M  V30 1074 H 97.5765 2.6378 1.41635 0
M  V30 1075 H 95.1225 1.26936 0.679942 0
M  V30 1076 H 97.0755 1.92734 3.74742 0
M  V30 1077 H 95.7995 0.833412 3.15788 0
M  V30 1078 H 94.4585 2.80918 2.35543 0
M  V30 1079 H 94.1065 1.89853 4.65795 0
M  V30 1080 H 93.8065 3.65366 4.60197 0
M  V30 1081 H 95.3305 3.03412 5.29881 0
M  V30 1082 H 96.7445 4.49449 3.55905 0
M  V30 1083 H 95.1415 5.13856 3.09955 0
M  V30 1084 H 96.2115 4.48347 1.84696 0
M  V30 1085 N 97.5546 -0.734337 1.39446 0
M  V30 1086 C 98.9656 -1.31264 1.32766 0
M  V30 1087 C 99.3166 -1.96198 -0.00767497 0
M  V30 1088 O 98.4416 -1.96346 -0.909796 0
M  V30 1089 C 99.0366 -2.38682 2.4045 0
M  V30 1090 C 97.5956 -2.92184 2.37288 0
M  V30 1091 C 96.7426 -1.6576 2.22304 0
M  V30 1092 H 99.6936 -0.531799 1.49525 0
M  V30 1093 H 99.7146 -3.19087 2.07276 0
M  V30 1094 H 99.2266 -1.91392 3.37625 0
M  V30 1095 H 97.3276 -3.43752 1.43754 0
M  V30 1096 H 97.4406 -3.45253 3.3217 0
M  V30 1097 H 95.8046 -1.9012 1.69489 0
M  V30 1098 H 96.5876 -1.20521 3.21449 0
M  V30 1099 N 99.0327 -1.24633 -0.964593 0
M  V30 1100 C 100.279 -1.08949 -1.71049 0
M  V30 1101 C 100.612 0.370302 -1.90637 0
M  V30 1102 O 99.8867 1.27349 -1.47011 0
M  V30 1103 C 100.17 -1.83329 -3.0994 0
M  V30 1104 C 100.023 -3.37077 -2.97824 0
M  V30 1105 C 101.342 -1.60846 -4.09654 0
M  V30 1106 H 98.4607 -0.397178 -0.620821 0
M  V30 1107 H 101.103 -1.5334 -1.12191 0
M  V30 1108 H 99.2527 -1.45597 -3.60186 0
M  V30 1109 H 100.925 -3.84425 -2.5498 0
M  V30 1110 H 99.1677 -3.65298 -2.33965 0
M  V30 1111 H 99.8387 -3.84324 -3.96231 0
M  V30 1112 H 102.315 -1.93674 -3.68279 0
M  V30 1113 H 101.191 -2.1534 -5.04896 0
M  V30 1114 H 101.452 -0.547434 -4.38698 0
M  V30 1115 N 100.511 1.16574 -1.06058 0
M  V30 1116 C 101.758 1.87047 -0.775873 0
M  V30 1117 C 102.086 1.81562 0.697534 0
M  V30 1118 O 101.341 1.22445 1.52662 0
M  V30 1119 C 101.64 3.36195 -1.21275 0
M  V30 1120 C 101.306 3.6188 -2.68986 0
M  V30 1121 C 99.9678 3.68599 -3.09335 0
M  V30 1122 C 102.32 3.72648 -3.64394 0
M  V30 1123 C 99.6478 3.83584 -4.43937 0
M  V30 1124 C 102 3.89154 -4.98741 0
M  V30 1125 C 100.664 3.94114 -5.3873 0
M  V30 1126 H 99.9338 0.684452 -0.283912 0
M  V30 1127 H 102.581 1.37853 -1.32925 0
M  V30 1128 H 100.886 3.87505 -0.578528 0
M  V30 1129 H 102.583 3.89103 -0.969542 0
M  V30 1130 H 99.1728 3.57281 -2.36744 0
M  V30 1131 H 103.357 3.66769 -3.34356 0
M  V30 1132 H 98.6128 3.85677 -4.74409 0
M  V30 1133 H 102.787 3.96427 -5.72554 0
M  V30 1134 H 100.414 4.05478 -6.43033 0
M  V30 1135 N 101.989 0.842826 1.3317 0
M  V30 1136 C 103.405 0.531128 1.50503 0
M  V30 1137 C 103.605 -0.940734 1.78192 0
M  V30 1138 O 102.661 -1.72436 1.84451 0
M  V30 1139 C 103.974 1.40789 2.65705 0
M  V30 1140 C 105.522 1.40708 2.79589 0
M  V30 1141 C 105.997 2.26878 3.97857 0
M  V30 1142 N 107.488 2.24609 4.05099 0
M  V30 1143 C 108.223 2.88019 4.95815 0
M  V30 1144 N 107.719 3.60496 5.9162 0
M  V30 1145 N 109.512 2.77469 4.88843 0
M  V30 1146 H 101.663 1.79557 1.1346 0
M  V30 1147 H 103.926 0.766267 0.558156 0
M  V30 1148 H 103.632 2.454 2.51936 0
M  V30 1149 H 103.506 1.08677 3.61205 0
M  V30 1150 H 105.893 0.368668 2.92788 0
M  V30 1151 H 105.974 1.76829 1.84838 0
M  V30 1152 H 105.618 3.3078 3.85418 0
M  V30 1153 H 105.548 1.88096 4.91861 0
M  V30 1154 H 108.039 1.71906 3.36536 0
M  V30 1155 H 108.352 4.06076 6.57512 0
M  V30 1156 H 106.697 3.64604 5.91683 0
M  V30 1157 H 109.888 2.20406 4.12963 0
M  V30 1158 H 110.061 3.2717 5.59342 0
M  V30 1159 N 103.467 -1.45747 0.599634 0
M  V30 1160 C 104.377 -2.34262 -0.125888 0
M  V30 1161 C 105.393 -1.50768 -0.868625 0
M  V30 1162 O 106.569 -1.83592 -0.828003 0
M  V30 1163 C 103.634 -3.28252 -1.11587 0
M  V30 1164 C 102.695 -4.27651 -0.375956 0
M  V30 1165 C 101.928 -5.1715 -1.31877 0
M  V30 1166 O 102.151 -5.09916 -2.55621 0
M  V30 1167 O 101.085 -5.96286 -0.820157 0
M  V30 1168 H 104.911 -2.97688 0.601315 0
M  V30 1169 H 102.496 -1.44999 0.359934 0
M  V30 1170 H 104.378 -3.86191 -1.68626 0
M  V30 1171 H 103.053 -2.67401 -1.82424 0
M  V30 1172 H 101.96 -3.7335 0.236698 0
M  V30 1173 H 103.293 -4.91334 0.29177 0
M  V30 1174 N 104.945 -0.338344 -1.53925 0
M  V30 1175 C 105.878 0.563758 -2.21127 0
M  V30 1176 C 106.856 1.10433 -1.19345 0
M  V30 1177 O 108.04 1.16557 -1.48144 0
M  V30 1178 C 105.167 1.77505 -2.88461 0
M  V30 1179 C 104.213 1.3644 -4.04087 0
M  V30 1180 S 105.046 0.388593 -5.34088 0
M  V30 1181 C 106.202 1.60683 -6.04923 0
M  V30 1182 H 106.435 -0.00704546 -2.97299 0
M  V30 1183 H 103.968 -0.122418 -1.53914 0
M  V30 1184 H 105.926 2.46999 -3.27875 0
M  V30 1185 H 104.587 2.31706 -2.12064 0
M  V30 1186 H 103.78 2.26739 -4.50117 0
M  V30 1187 H 103.382 0.748998 -3.66423 0
M  V30 1188 H 105.674 2.54209 -6.28 0
M  V30 1189 H 106.617 1.18842 -6.98056 0
M  V30 1190 H 107.025 1.80052 -5.35015 0
M  V30 1191 N 106.423 1.57458 -0.0668435 0
M  V30 1192 C 107.834 1.80776 0.466558 0
M  V30 1193 C 108.185 0.980361 1.69951 0
M  V30 1194 O 107.31 0.201441 2.1546 0
M  V30 1195 C 107.905 3.27881 0.85321 0
M  V30 1196 C 106.464 3.52062 1.3315 0
M  V30 1197 C 105.611 2.75513 0.314264 0
M  V30 1198 H 108.562 1.5598 -0.292588 0
M  V30 1199 H 108.583 3.39659 1.715 0
M  V30 1200 H 108.095 3.88075 -0.0443439 0
M  V30 1201 H 106.196 2.97167 2.24772 0
M  V30 1202 H 106.309 4.60762 1.31285 0
M  V30 1203 H 104.673 2.42123 0.790492 0
M  V30 1204 H 105.456 3.38442 -0.575477 0
M  V30 1205 N 107.901 -0.206675 1.56239 0
M  V30 1206 C 108.831 -1.25909 1.96645 0
M  V30 1207 C 109.812 -1.48097 0.836734 0
M  V30 1208 O 110.997 -1.6003 1.10019 0
M  V30 1209 C 108.127 -2.6058 2.29599 0
M  V30 1210 C 107.081 -2.53024 3.452 0
M  V30 1211 C 106.407 -3.91861 3.63798 0
M  V30 1212 C 107.707 -2.06524 4.79734 0
M  V30 1213 H 109.401 -0.923369 2.84806 0
M  V30 1214 H 106.947 -0.442735 1.37025 0
M  V30 1215 H 108.9 -3.34375 2.56459 0
M  V30 1216 H 107.624 -2.95869 1.38307 0
M  V30 1217 H 106.283 -1.81684 3.18412 0
M  V30 1218 H 105.931 -4.24483 2.69857 0
M  V30 1219 H 105.631 -3.87683 4.4156 0
M  V30 1220 H 107.155 -4.67296 3.93022 0
M  V30 1221 H 108.569 -2.70072 5.05702 0
M  V30 1222 H 106.966 -2.13374 5.60885 0
M  V30 1223 H 108.036 -1.01802 4.74093 0
M  V30 1224 N 109.379 -1.50304 -0.473955 0
M  V30 1225 C 110.342 -1.6841 -1.55469 0
M  V30 1226 C 111.342 -0.554905 -1.50922 0
M  V30 1227 O 112.532 -0.821882 -1.53593 0
M  V30 1228 C 109.664 -1.70667 -2.95102 0
M  V30 1229 H 110.857 -2.64828 -1.40733 0
M  V30 1230 H 108.41 -1.39742 -0.700132 0
M  V30 1231 H 109.145 -0.75932 -3.15285 0
M  V30 1232 H 108.93 -2.52698 -2.9981 0
M  V30 1233 H 110.42 -1.8664 -3.73571 0
M  V30 1234 N 110.857 0.726932 -1.39834 0
M  V30 1235 C 112.268 1.30558 -1.3346 0
M  V30 1236 C 112.619 1.962 -0.00273003 0
M  V30 1237 O 111.744 1.96826 0.899371 0
M  V30 1238 C 112.339 2.37404 -2.41713 0
M  V30 1239 C 110.898 2.90921 -2.38835 0
M  V30 1240 C 110.045 1.64578 -2.2318 0
M  V30 1241 H 112.996 0.523862 -1.49804 0
M  V30 1242 H 113.017 3.17984 -2.08966 0
M  V30 1243 H 112.529 1.89599 -3.38635 0
M  V30 1244 H 110.63 3.42985 -1.45575 0
M  V30 1245 H 110.743 3.43487 -3.33997 0
M  V30 1246 H 109.107 1.89219 -1.70494 0
M  V30 1247 H 109.89 1.18814 -3.22084 0
M  V30 1248 N 112.336 1.25143 0.95797 0
M  V30 1249 C 113.613 1.00472 1.67823 0
M  V30 1250 C 113.993 -0.470056 2.058 0
M  V30 1251 O 113.341 -1.44663 1.76875 0
M  V30 1252 C 113.551 1.9372 2.90299 0
M  V30 1253 C 114.899 2.21371 3.62326 0
M  V30 1254 O 115.923 1.91451 3.00375 0
M  V30 1255 O 114.782 2.72231 4.7387 0
M  V30 1256 H 111.876 0.380752 0.734137 0
M  V30 1257 H 114.422 1.36283 1.01119 0
M  V30 1258 H 113.194 2.93316 2.59001 0
M  V30 1259 H 112.817 1.58286 3.64735 0
M  V30 1260 N 113.814 -1.1601 1.06675 0
M  V30 1261 C 114.761 -2.20525 0.680967 0
M  V30 1262 C 115.731 -1.62904 -0.324283 0
M  V30 1263 O 116.916 -1.89615 -0.212294 0
M  V30 1264 C 114.056 -3.45013 0.0776551 0
M  V30 1265 C 113.169 -4.16863 1.13355 0
M  V30 1266 C 112.304 -5.2888 0.49597 0
M  V30 1267 C 111.343 -5.92537 1.53513 0
M  V30 1268 N 110.48 -6.96038 0.920631 0
M  V30 1269 H 115.32 -2.52876 1.57663 0
M  V30 1270 H 112.857 -1.24199 0.788223 0
M  V30 1271 H 114.815 -4.16193 -0.289704 0
M  V30 1272 H 113.445 -3.132 -0.781393 0
M  V30 1273 H 112.497 -3.44248 1.61857 0
M  V30 1274 H 113.809 -4.60294 1.92174 0
M  V30 1275 H 112.963 -6.06653 0.0758604 0
M  V30 1276 H 111.702 -4.86622 -0.324062 0
M  V30 1277 H 110.707 -5.13482 1.9651 0
M  V30 1278 H 111.932 -6.36873 2.35733 0
M  V30 1279 H 109.878 -6.55888 0.12138 0
M  V30 1280 H 109.795 -7.3786 1.64616 0
M  V30 1281 H 111.063 -7.77725 0.525795 0
M  V30 1282 N 115.292 -0.849877 -1.32721 0
M  V30 1283 C 116.541 -0.447175 -1.96681 0
M  V30 1284 C 116.854 1.00135 -1.68025 0
M  V30 1285 O 118.06 1.50926 -2.25685 0
M  V30 1286 C 116.516 -0.7487 -3.52026 0
M  V30 1287 C 116.124 -2.21264 -3.89546 0
M  V30 1288 C 117.868 -0.413487 -4.22481 0
M  V30 1289 C 115.775 -2.45763 -5.37917 0
M  V30 1290 H 114.705 -0.163486 -0.736063 0
M  V30 1291 H 117.356 -1.03999 -1.51183 0
M  V30 1292 H 115.738 -0.0853727 -3.95908 0
M  V30 1293 H 116.912 -2.91736 -3.56689 0
M  V30 1294 H 115.227 -2.5119 -3.32103 0
M  V30 1295 H 117.824 -0.574017 -5.3161 0
M  V30 1296 H 118.167 0.644492 -4.11281 0
M  V30 1297 H 118.7 -1.03251 -3.84167 0
M  V30 1298 H 115.439 -3.50168 -5.54132 0
M  V30 1299 H 114.959 -1.79864 -5.72197 0
M  V30 1300 H 116.638 -2.29471 -6.0494 0
M  V30 1301 N 116.77 1.45427 -0.607355 0
M  V30 1302 C 118.181 1.85756 -0.187535 0
M  V30 1303 C 118.532 1.5077 1.25551 0
M  V30 1304 O 117.657 0.93427 1.95193 0
M  V30 1305 C 118.252 3.37154 -0.333572 0
M  V30 1306 C 116.811 3.76387 0.0315542 0
M  V30 1307 C 115.958 2.69377 -0.658117 0
M  V30 1308 H 118.909 1.36231 -0.81405 0
M  V30 1309 H 118.93 3.78014 0.43428 0
M  V30 1310 H 118.442 3.62586 -1.38393 0
M  V30 1311 H 116.543 3.56571 1.0811 0
M  V30 1312 H 116.656 4.77731 -0.361935 0
M  V30 1313 H 115.02 2.5452 -0.0957873 0
M  V30 1314 H 115.803 2.97646 -1.7106 0
M  V30 1315 N 118.248 0.346503 1.53744 0
M  V30 1316 C 119.178 -0.501193 2.28058 0
M  V30 1317 C 120.159 -1.10014 1.29734 0
M  V30 1318 O 121.344 -1.12097 1.58581 0
M  V30 1319 C 118.474 -1.65078 3.05559 0
M  V30 1320 C 117.428 -1.18003 4.11411 0
M  V30 1321 C 116.754 -2.41837 4.76884 0
M  V30 1322 C 118.054 -0.278394 5.21558 0
M  V30 1323 H 119.748 0.11875 2.99164 0
M  V30 1324 H 117.294 0.0585531 1.43881 0
M  V30 1325 H 119.247 -2.25028 3.56287 0
M  V30 1326 H 117.971 -2.29767 2.32109 0
M  V30 1327 H 116.63 -0.603331 3.61601 0
M  V30 1328 H 116.278 -3.0494 4.00026 0
M  V30 1329 H 115.978 -2.1102 5.48402 0
M  V30 1330 H 117.502 -3.02508 5.30397 0
M  V30 1331 H 118.916 -0.784823 5.67903 0
M  V30 1332 H 117.313 -0.0619707 6.00068 0
M  V30 1333 H 118.383 0.684677 4.80042 0
M  V30 1334 N 119.726 -1.57421 0.075193 0
M  V30 1335 C 120.656 -2.15942 -0.888324 0
M  V30 1336 C 121.637 -1.08737 -1.30806 0
M  V30 1337 O 122.822 -1.36787 -1.37851 0
M  V30 1338 C 119.952 -2.72379 -2.1547 0
M  V30 1339 C 118.906 -3.8478 -1.87425 0
M  V30 1340 C 118.232 -4.27834 -3.20721 0
M  V30 1341 C 119.532 -5.08869 -1.17684 0
M  V30 1342 H 121.226 -2.96705 -0.400799 0
M  V30 1343 H 118.772 -1.42723 -0.191342 0
M  V30 1344 H 120.725 -3.11965 -2.83295 0
M  V30 1345 H 119.449 -1.88841 -2.6647 0
M  V30 1346 H 118.108 -3.45703 -1.22004 0
M  V30 1347 H 117.756 -3.41214 -3.6957 0
M  V30 1348 H 117.456 -5.03605 -3.02746 0
M  V30 1349 H 118.98 -4.70039 -3.89738 0
M  V30 1350 H 120.394 -5.4575 -1.75584 0
M  V30 1351 H 118.791 -5.8994 -1.09956 0
M  V30 1352 H 119.861 -4.84648 -0.156453 0
M  V30 1353 N 121.204 0.198386 -1.56346 0
M  V30 1354 C 122.151 1.24589 -1.94284 0
M  V30 1355 C 123.121 1.454 -0.802997 0
M  V30 1356 O 124.306 1.58588 -1.06087 0
M  V30 1357 C 121.446 2.58631 -2.28482 0
M  V30 1358 C 120.559 2.45426 -3.55514 0
M  V30 1359 C 119.694 3.7215 -3.79049 0
M  V30 1360 C 118.733 3.53763 -4.99518 0
M  V30 1361 N 117.87 4.72491 -5.19323 0
M  V30 1362 H 122.71 0.915356 -2.83593 0
M  V30 1363 H 120.247 0.440629 -1.40346 0
M  V30 1364 H 122.205 3.3672 -2.46324 0
M  V30 1365 H 120.835 2.89734 -1.42317 0
M  V30 1366 H 119.887 1.58652 -3.45737 0
M  V30 1367 H 121.199 2.27772 -4.43758 0
M  V30 1368 H 120.353 4.58679 -3.97113 0
M  V30 1369 H 119.092 3.92754 -2.89129 0
M  V30 1370 H 118.097 2.65619 -4.8138 0
M  V30 1371 H 119.322 3.34607 -5.90944 0
M  V30 1372 H 117.268 4.93365 -4.3235 0
M  V30 1373 H 117.185 4.5765 -6.01741 0
M  V30 1374 H 118.453 5.6038 -5.41843 0
M  V30 1375 N 122.682 1.50554 0.465978 0
M  V30 1376 C 123.907 1.65838 1.24549 0
M  V30 1377 C 124.332 0.343486 1.84937 0
M  V30 1378 O 123.69 -0.69324 1.67523 0
M  V30 1379 C 123.738 2.75533 2.32624 0
M  V30 1380 O 122.842 2.37142 3.37398 0
M  V30 1381 H 122.183 0.553893 0.366194 0
M  V30 1382 H 124.713 1.96959 0.553927 0
M  V30 1383 H 124.723 2.98763 2.77857 0
M  V30 1384 H 123.398 3.70962 1.88043 0
M  V30 1385 H 121.975 2.24377 2.97841 0
M  V30 1386 N 124.16 -0.719506 1.40217 0
M  V30 1387 C 125.093 -1.84298 1.34571 0
M  V30 1388 C 126.071 -1.61149 0.216741 0
M  V30 1389 O 127.255 -1.84212 0.399756 0
M  V30 1390 C 124.382 -3.20568 1.09335 0
M  V30 1391 C 123.428 -3.62551 2.24631 0
M  V30 1392 S 124.261 -3.7012 3.87004 0
M  V30 1393 C 125.417 -5.09154 3.64024 0
M  V30 1394 H 125.65 -1.88807 2.2965 0
M  V30 1395 H 123.183 -0.885901 1.26456 0
M  V30 1396 H 125.141 -3.99246 0.954602 0
M  V30 1397 H 123.802 -3.13696 0.159164 0
M  V30 1398 H 122.995 -4.61483 2.02606 0
M  V30 1399 H 122.597 -2.91119 2.34789 0
M  V30 1400 H 124.889 -5.95955 3.22248 0
M  V30 1401 H 125.832 -5.36213 4.62473 0
M  V30 1402 H 126.24 -4.79562 2.97793 0
M  V30 1403 N 125.638 -1.25649 -0.95132 0
M  V30 1404 C 126.568 -1.08808 -2.06599 0
M  V30 1405 C 127.549 0.00382547 -1.701 0
M  V30 1406 O 128.734 -0.166325 -1.93486 0
M  V30 1407 C 125.864 -0.709542 -3.39975 0
M  V30 1408 C 124.818 -1.75206 -3.90496 0
M  V30 1409 C 124.144 -1.22811 -5.20405 0
M  V30 1410 C 125.444 -3.15153 -4.16504 0
M  V30 1411 H 127.138 -2.02048 -2.20946 0
M  V30 1412 H 124.684 -0.972835 -1.06169 0
M  V30 1413 H 126.637 -0.578649 -4.17408 0
M  V30 1414 H 125.361 0.258556 -3.25575 0
M  V30 1415 H 124.02 -1.87145 -3.15234 0
M  V30 1416 H 123.668 -0.250145 -5.02378 0
M  V30 1417 H 123.368 -1.92492 -5.55176 0
M  V30 1418 H 124.892 -1.10968 -6.00432 0
M  V30 1419 H 126.306 -3.06349 -4.84586 0
M  V30 1420 H 124.703 -3.82333 -4.62538 0
M  V30 1421 H 125.773 -3.61966 -3.22658 0
M  V30 1422 N 127.117 1.15442 -1.07289 0
M  V30 1423 C 128.533 1.38201 -0.798288 0
M  V30 1424 C 128.733 1.92429 0.597769 0
M  V30 1425 O 127.789 2.12962 1.3566 0
M  V30 1426 C 129.102 2.35357 -1.87156 0
M  V30 1427 C 130.65 2.49021 -1.89624 0
M  V30 1428 C 131.125 3.49468 -2.96034 0
M  V30 1429 N 132.616 3.57003 -2.95132 0
M  V30 1430 C 133.351 4.34543 -3.74112 0
M  V30 1431 N 132.847 5.15421 -4.6294 0
M  V30 1432 N 134.64 4.29625 -3.62462 0
M  V30 1433 H 126.791 0.78584 -1.97328 0
M  V30 1434 H 129.054 0.408065 -0.855679 0
M  V30 1435 H 128.76 2.02626 -2.87464 0
M  V30 1436 H 128.634 3.35129 -1.73114 0
M  V30 1437 H 131.021 2.81051 -0.899687 0
M  V30 1438 H 131.102 1.4925 -2.07745 0
M  V30 1439 H 130.746 3.18173 -3.95889 0
M  V30 1440 H 130.676 4.48992 -2.75161 0
M  V30 1441 H 133.167 2.99276 -2.30743 0
M  V30 1442 H 133.48 5.7183 -5.19837 0
M  V30 1443 H 131.825 5.14729 -4.66989 0
M  V30 1444 H 135.016 3.65505 -2.92444 0
M  V30 1445 H 135.189 4.89807 -4.24256 0
M  V30 1446 N 128.595 0.856903 1.32268 0
M  V30 1447 C 129.542 0.301172 2.28827 0
M  V30 1448 C 130.512 -0.593104 1.5515 0
M  V30 1449 O 131.697 -0.527537 1.83362 0
M  V30 1450 C 128.837 -0.502523 3.41422 0
M  V30 1451 C 127.95 0.417797 4.29975 0
M  V30 1452 C 127.085 -0.398749 5.29701 0
M  V30 1453 C 126.124 0.518827 6.09897 0
M  V30 1454 N 125.261 -0.260674 7.01616 0
M  V30 1455 H 130.101 1.12983 2.75751 0
M  V30 1456 H 127.638 0.568582 1.35667 0
M  V30 1457 H 129.596 -0.984141 4.05426 0
M  V30 1458 H 128.226 -1.29599 2.95642 0
M  V30 1459 H 127.278 1.01781 3.66531 0
M  V30 1460 H 128.59 1.12191 4.86019 0
M  V30 1461 H 127.744 -0.943435 5.9932 0
M  V30 1462 H 126.483 -1.13622 4.7428 0
M  V30 1463 H 125.488 1.07538 5.39181 0
M  V30 1464 H 126.713 1.25495 6.67404 0
M  V30 1465 H 124.659 -0.981198 6.4862 0
M  V30 1466 H 124.576 0.384364 7.55022 0
M  V30 1467 H 125.844 -0.787014 7.75517 0
M  V30 1468 N 130.073 -1.45103 0.615059 0
M  V30 1469 C 131.489 -1.57137 0.279322 0
M  V30 1470 C 131.689 -1.60523 -1.21797 0
M  V30 1471 O 130.745 -1.53956 -2.00134 0
M  V30 1472 C 132.058 -2.85062 0.957083 0
M  V30 1473 C 133.606 -2.98749 0.933706 0
M  V30 1474 C 134.081 -4.29455 1.59162 0
M  V30 1475 N 135.572 -4.36231 1.55746 0
M  V30 1476 C 136.307 -5.36051 2.0356 0
M  V30 1477 N 135.803 -6.42367 2.59494 0
M  V30 1478 N 137.596 -5.27456 1.94284 0
M  V30 1479 H 129.747 -1.41148 1.58717 0
M  V30 1480 H 132.01 -0.675331 0.665306 0
M  V30 1481 H 131.716 -2.88488 2.01166 0
M  V30 1482 H 131.59 -3.7407 0.48494 0
M  V30 1483 H 133.977 -2.94886 -0.112347 0
M  V30 1484 H 134.058 -2.11132 1.44419 0
M  V30 1485 H 133.702 -4.34077 2.63704 0
M  V30 1486 H 133.632 -5.15901 1.0561 0
M  V30 1487 H 136.123 -3.60011 1.14893 0
M  V30 1488 H 136.436 -7.14793 2.93752 0
M  V30 1489 H 134.781 -6.43097 2.63537 0
M  V30 1490 H 137.972 -4.43308 1.5032 0
M  V30 1491 H 138.145 -6.05099 2.3186 0
M  V30 1492 N 131.551 -0.354651 -1.53558 0
M  V30 1493 C 132.483 0.5315 -2.22952 0
M  V30 1494 C 133.496 1.05503 -1.23988 0
M  V30 1495 O 134.685 0.963279 -1.50277 0
M  V30 1496 C 131.785 1.74538 -2.90499 0
M  V30 1497 C 130.958 1.35524 -4.15875 0
M  V30 1498 C 130.017 2.42999 -4.66731 0
M  V30 1499 O 129.043 2.05844 -5.30676 0
M  V30 1500 N 130.245 3.74423 -4.43608 0
M  V30 1501 H 133.01 -0.0628615 -2.99634 0
M  V30 1502 H 130.571 -0.179302 -1.60904 0
M  V30 1503 H 132.563 2.45892 -3.21433 0
M  V30 1504 H 131.133 2.24686 -2.17336 0
M  V30 1505 H 130.353 0.471998 -3.91364 0
M  V30 1506 H 131.641 1.07071 -4.97406 0
M  V30 1507 H 131.039 4.07391 -3.92491 0
M  V30 1508 H 129.596 4.41913 -4.7912 0
M  V30 1509 N 133.029 1.57378 -0.0835403 0
M  V30 1510 C 133.979 2.09916 0.889905 0
M  V30 1511 C 134.963 1.01151 1.25129 0
M  V30 1512 O 136.155 1.27443 1.2283 0
M  V30 1513 C 133.284 2.67379 2.15322 0
M  V30 1514 C 132.37 3.83167 1.81779 0
M  V30 1515 N 132.761 4.91665 1.18739 0
M  V30 1516 C 131.059 3.92685 2.11459 0
M  V30 1517 C 131.76 5.72409 1.0355 0
M  V30 1518 N 130.736 5.21062 1.54906 0
M  V30 1519 H 134.538 2.91188 0.398378 0
M  V30 1520 H 132.052 1.61956 0.120013 0
M  V30 1521 H 134.049 3.0334 2.8599 0
M  V30 1522 H 132.709 1.87558 2.65051 0
M  V30 1523 H 133.72 5.10784 0.855604 0
M  V30 1524 H 130.397 3.23856 2.63483 0
M  V30 1525 H 131.787 6.69699 0.543425 0
M  V30 1526 N 134.507 -0.190092 1.56449 0
M  V30 1527 C 135.437 -1.23816 1.97969 0
M  V30 1528 C 136.418 -1.47201 0.852395 0
M  V30 1529 O 137.603 -1.58854 1.1171 0
M  V30 1530 C 134.733 -2.5813 2.3235 0
M  V30 1531 C 133.687 -2.49348 3.47864 0
M  V30 1532 C 133.013 -3.8798 3.67934 0
M  V30 1533 C 134.313 -2.01424 4.81898 0
M  V30 1534 H 136.007 -0.89311 2.85769 0
M  V30 1535 H 133.553 -0.428177 1.37487 0
M  V30 1536 H 135.506 -3.31637 2.59991 0
M  V30 1537 H 134.23 -2.94386 1.41438 0
M  V30 1538 H 132.889 -1.78297 3.20321 0
M  V30 1539 H 132.537 -4.21597 2.74344 0
M  V30 1540 H 132.237 -3.82978 4.45648 0
M  V30 1541 H 133.761 -4.63101 3.97957 0
M  V30 1542 H 135.175 -2.64693 5.08538 0
M  V30 1543 H 133.572 -2.07413 5.63116 0
M  V30 1544 H 134.642 -0.967677 4.75146 0
M  V30 1545 N 135.985 -1.50799 -0.457987 0
M  V30 1546 C 136.918 -1.65273 -1.57353 0
M  V30 1547 C 137.896 -0.500578 -1.54703 0
M  V30 1548 O 139.08 -0.721781 -1.74134 0
M  V30 1549 C 136.207 -1.64737 -2.95938 0
M  V30 1550 C 135.253 -2.8567 -3.16693 0
M  V30 1551 S 136.086 -4.46791 -2.95191 0
M  V30 1552 C 137.242 -4.48968 -4.36095 0
M  V30 1553 H 137.475 -2.59633 -1.44838 0
M  V30 1554 H 135.008 -1.40225 -0.64625 0
M  V30 1555 H 136.966 -1.65112 -3.7583 0
M  V30 1556 H 135.627 -0.715899 -3.05833 0
M  V30 1557 H 134.82 -2.81637 -4.17967 0
M  V30 1558 H 134.422 -2.8293 -2.44594 0
M  V30 1559 H 136.714 -4.23337 -5.28954 0
M  V30 1560 H 137.657 -5.50664 -4.45168 0
M  V30 1561 H 138.065 -3.78522 -4.18786 0
M  V30 1562 N 137.463 0.71206 -1.40597 0
M  V30 1563 C 138.393 1.83889 -1.43899 0
M  V30 1564 C 139.374 1.67442 -0.299504 0
M  V30 1565 O 140.559 1.87421 -0.508624 0
M  V30 1566 C 137.689 3.21877 -1.30431 0
M  V30 1567 C 136.643 3.53002 -2.42019 0
M  V30 1568 C 135.969 4.90172 -2.13626 0
M  V30 1569 C 137.269 3.53643 -3.84362 0
M  V30 1570 H 138.963 1.81383 -2.38203 0
M  V30 1571 H 136.509 0.871237 -1.14654 0
M  V30 1572 H 138.462 4.00404 -1.31357 0
M  V30 1573 H 137.186 3.24968 -0.326049 0
M  V30 1574 H 135.845 2.76818 -2.40349 0
M  V30 1575 H 135.493 4.89869 -1.14182 0
M  V30 1576 H 135.193 5.11962 -2.88389 0
M  V30 1577 H 136.717 5.71028 -2.1624 0
M  V30 1578 H 138.131 4.22203 -3.87837 0
M  V30 1579 H 136.528 3.86961 -4.58673 0
M  V30 1580 H 137.598 2.52954 -4.13693 0
M  V30 1581 N 138.941 1.26152 0.944643 0
M  V30 1582 C 140.169 1.14259 1.72489 0
M  V30 1583 C 140.584 -0.302555 1.8636 0
M  V30 1584 O 139.941 -1.20741 1.36849 0
M  V30 1585 C 139.992 1.80266 3.13347 0
M  V30 1586 O 139.713 3.19133 3.00143 0
M  V30 1587 C 141.214 1.74283 4.07603 0
M  V30 1588 H 138.434 0.398051 0.540181 0
M  V30 1589 H 140.978 1.66706 1.18446 0
M  V30 1590 H 139.133 1.31766 3.64303 0
M  V30 1591 H 139.547 3.51744 3.89071 0
M  V30 1592 H 141.021 2.25111 5.04013 0
M  V30 1593 H 141.498 0.708631 4.33446 0
M  V30 1594 H 142.104 2.22319 3.62567 0
M  V30 1595 N 140.419 -1.14872 1.07899 0
M  V30 1596 C 141.696 -1.81928 0.71845 0
M  V30 1597 C 142.076 -1.95417 -0.798455 0
M  V30 1598 O 141.424 -1.50997 -1.715 0
M  V30 1599 C 141.634 -3.17937 1.43935 0
M  V30 1600 C 142.982 -3.93501 1.59506 0
M  V30 1601 O 144.006 -3.27509 1.40058 0
M  V30 1602 O 142.865 -5.1183 1.91551 0
M  V30 1603 H 139.959 -0.78628 0.256305 0
M  V30 1604 H 142.505 -1.21934 1.18026 0
M  V30 1605 H 141.277 -3.0325 2.47295 0
M  V30 1606 H 140.9 -3.85619 0.968687 0
M  V30 1607 N 141.898 -0.863906 -1.31812 0
M  V30 1608 C 143.309 -0.52522 -1.7916 0
M  V30 1609 C 143.66 0.957518 -1.71248 0
M  V30 1610 O 142.785 1.74734 -1.27659 0
M  V30 1611 C 143.38 -0.9466 -3.25307 0
M  V30 1612 C 141.939 -0.659668 -3.70574 0
M  V30 1613 C 141.086 -1.14126 -2.52726 0
M  V30 1614 H 144.037 -1.05022 -1.1898 0
M  V30 1615 H 144.058 -0.266766 -3.79564 0
M  V30 1616 H 143.57 -2.02579 -3.31034 0
M  V30 1617 H 141.671 0.408416 -3.70355 0
M  V30 1618 H 141.784 -1.23245 -4.62977 0
M  V30 1619 H 140.148 -0.561216 -2.4844 0
M  V30 1620 H 140.931 -2.22775 -2.61201 0
M  V30 1621 N 143.376 1.44774 -0.622745 0
M  V30 1622 C 144.624 2.01721 -0.123655 0
M  V30 1623 C 144.945 1.49172 1.25589 0
M  V30 1624 O 144.215 0.691974 1.83272 0
M  V30 1625 H 142.795 0.745777 -0.0427225 0
M  V30 1626 H 145.457 1.77382 -0.807559 0
M  V30 1627 H 144.553 3.11984 -0.0849534 0
M  V30 1628 N 144.854 0.36279 1.53368 0
M  V30 1629 C 146.079 -0.231226 2.06107 0
M  V30 1630 C 146.504 -1.419 1.23474 0
M  V30 1631 O 145.862 -1.79524 0.253128 0
M  V30 1632 C 145.91 -0.605523 3.5548 0
M  V30 1633 O 145.014 -1.70312 3.7559 0
M  V30 1634 H 144.355 -0.034327 0.663112 0
M  V30 1635 H 146.885 0.522584 1.97814 0
M  V30 1636 H 146.895 -0.877314 3.98456 0
M  V30 1637 H 145.57 0.263004 4.15068 0
M  V30 1638 H 144.147 -1.4271 3.44512 0
M  V30 1639 N 146.332 -1.57332 0.0918853 0
M  V30 1640 C 147.557 -1.98995 -0.584442 0
M  V30 1641 C 147.982 -0.970528 -1.61128 0
M  V30 1642 O 147.34 0.0613904 -1.81196 0
M  V30 1643 C 147.388 -3.39636 -1.21161 0
M  V30 1644 O 146.492 -3.40447 -2.32744 0
M  V30 1645 H 145.833 -0.647165 -0.148572 0
M  V30 1646 H 148.363 -2.03873 0.172347 0
M  V30 1647 H 148.373 -3.7726 -1.55367 0
M  V30 1648 H 147.048 -4.13356 -0.459313 0
M  V30 1649 H 145.625 -3.14614 -2.0018 0
M  V30 1650 N 147.81 0.181792 -1.56548 0
M  V30 1651 C 149.087 0.926765 -1.72251 0
M  V30 1652 C 149.467 2.00831 -0.650386 0
M  V30 1653 O 148.815 2.26008 0.336521 0
M  V30 1654 C 149.025 1.50106 -3.1507 0
M  V30 1655 C 150.373 1.97805 -3.75711 0
M  V30 1656 O 151.397 1.59922 -3.18282 0
M  V30 1657 O 150.256 2.67555 -4.76525 0
M  V30 1658 H 147.35 0.435506 -0.703039 0
M  V30 1659 H 149.896 0.170443 -1.68842 0
M  V30 1660 H 148.668 0.72212 -3.84579 0
M  V30 1661 H 148.291 2.32186 -3.22763 0
M  V30 1662 N 149.288 1.51039 0.449983 0
M  V30 1663 C 150.218 1.74379 1.55288 0
M  V30 1664 C 151.199 0.593236 1.5942 0
M  V30 1665 O 152.384 0.834625 1.7535 0
M  V30 1666 C 149.514 1.85728 2.93466 0
M  V30 1667 C 148.468 3.01078 3.04197 0
M  V30 1668 C 147.794 2.97595 4.44231 0
M  V30 1669 C 149.094 4.41254 2.7945 0
M  V30 1670 H 150.788 2.66725 1.36008 0
M  V30 1671 H 148.334 1.2835 0.652864 0
M  V30 1672 H 150.287 2.0064 3.70569 0
M  V30 1673 H 149.011 0.900207 3.13949 0
M  V30 1674 H 147.67 2.85851 2.29531 0
M  V30 1675 H 147.318 1.99691 4.61663 0
M  V30 1676 H 147.018 3.75046 4.52343 0
M  V30 1677 H 148.542 3.14583 5.23326 0
M  V30 1678 H 149.956 4.56897 3.46292 0
M  V30 1679 H 148.353 5.20315 2.98985 0
M  V30 1680 H 149.423 4.52164 1.75144 0
M  V30 1681 N 150.766 -0.704594 1.40972 0
M  V30 1682 C 151.696 -1.83124 1.44872 0
M  V30 1683 C 152.677 -1.67281 0.30838 0
M  V30 1684 O 153.862 -1.87149 0.518556 0
M  V30 1685 C 150.992 -3.21181 1.32136 0
M  V30 1686 C 149.946 -3.51714 2.43888 0
M  V30 1687 C 149.272 -4.89032 2.16222 0
M  V30 1688 C 150.572 -3.516 3.86232 0
M  V30 1689 H 152.266 -1.80117 2.39161 0
M  V30 1690 H 149.812 -0.865145 1.15114 0
M  V30 1691 H 151.765 -3.99702 1.33479 0
M  V30 1692 H 150.489 -3.24791 0.343279 0
M  V30 1693 H 149.148 -2.75539 2.41813 0
M  V30 1694 H 148.796 -4.89256 1.16778 0
M  V30 1695 H 148.496 -5.10426 2.911 0
M  V30 1696 H 150.02 -5.69873 2.19265 0
M  V30 1697 H 151.434 -4.2014 3.9007 0
M  V30 1698 H 149.831 -3.84523 4.60719 0
M  V30 1699 H 150.901 -2.50757 4.15029 0
M  V30 1700 N 152.244 -1.26651 -0.937939 0
M  V30 1701 C 153.472 -1.15173 -1.7188 0
M  V30 1702 C 153.887 0.292668 -1.86518 0
M  V30 1703 O 153.244 1.20014 -1.37488 0
M  V30 1704 C 153.295 -1.81925 -3.12387 0
M  V30 1705 O 153.016 -3.2072 -2.98446 0
M  V30 1706 C 154.517 -1.76442 -4.06673 0
M  V30 1707 H 151.737 -0.400911 -0.538063 0
M  V30 1708 H 154.281 -1.67332 -1.1756 0
M  V30 1709 H 152.436 -1.33696 -3.63599 0
M  V30 1710 H 152.85 -3.53802 -3.872 0
M  V30 1711 H 154.324 -2.27781 -5.02812 0
M  V30 1712 H 154.801 -0.731608 -4.33064 0
M  V30 1713 H 155.407 -2.24238 -3.61382 0
M  V30 1714 N 153.722 1.14298 -1.08507 0
M  V30 1715 C 155.133 1.66926 -0.836227 0
M  V30 1716 C 155.484 1.85576 0.63686 0
M  V30 1717 O 154.609 1.56767 1.49175 0
M  V30 1718 C 155.204 3.03219 -1.51142 0
M  V30 1719 C 153.763 3.52876 -1.30979 0
M  V30 1720 C 152.91 2.2833 -1.57356 0
M  V30 1721 H 155.861 0.983491 -1.24552 0
M  V30 1722 H 155.882 3.68726 -0.939211 0
M  V30 1723 H 155.394 2.89612 -2.58353 0
M  V30 1724 H 153.495 3.71703 -0.258429 0
M  V30 1725 H 153.608 4.33586 -2.03814 0
M  V30 1726 H 151.972 2.34454 -0.995164 0
M  V30 1727 H 152.755 2.17298 -2.65775 0
M  V30 1728 N 155.201 0.870884 1.31352 0
M  V30 1729 C 156.148 0.325425 2.28494 0
M  V30 1730 C 157.118 -0.576615 1.5577 0
M  V30 1731 O 158.303 -0.508059 1.83911 0
M  V30 1732 C 155.443 -0.466283 3.41935 0
M  V30 1733 C 154.556 0.463378 4.29508 0
M  V30 1734 C 153.691 -0.342544 5.30094 0
M  V30 1735 C 152.73 0.583486 6.09313 0
M  V30 1736 N 151.867 -0.186244 7.01853 0
M  V30 1737 H 156.707 1.15901 2.74538 0
M  V30 1738 H 154.244 0.58294 1.35056 0
M  V30 1739 H 156.202 -0.941085 4.06447 0
M  V30 1740 H 154.832 -1.26456 2.97 0
M  V30 1741 H 153.884 1.05663 3.65431 0
M  V30 1742 H 155.196 1.1734 4.84802 0
M  V30 1743 H 154.35 -0.879816 6.00287 0
M  V30 1744 H 153.089 -1.08585 4.75458 0
M  V30 1745 H 152.094 1.13251 5.3801 0
M  V30 1746 H 153.319 1.32566 6.66035 0
M  V30 1747 H 151.265 -0.912348 6.49625 0
M  V30 1748 H 151.182 0.464422 7.54572 0
M  V30 1749 H 152.45 -0.704716 7.76308 0
M  V30 1750 N 156.679 -1.44442 0.630414 0
M  V30 1751 C 157.609 -2.33418 -0.0618083 0
M  V30 1752 C 158.59 -1.48165 -0.835541 0
M  V30 1753 O 159.775 -1.76886 -0.801564 0
M  V30 1754 C 156.905 -3.31222 -1.04449 0
M  V30 1755 C 155.859 -4.26288 -0.382436 0
M  V30 1756 C 155.185 -5.13954 -1.47497 0
M  V30 1757 C 156.485 -5.1744 0.710865 0
M  V30 1758 H 158.179 -2.91548 0.681184 0
M  V30 1759 H 155.725 -1.40191 0.329026 0
M  V30 1760 H 157.678 -3.92351 -1.53748 0
M  V30 1761 H 156.402 -2.71299 -1.81836 0
M  V30 1762 H 155.061 -3.6649 0.0899054 0
M  V30 1763 H 154.709 -4.50385 -2.2397 0
M  V30 1764 H 154.409 -5.7837 -1.03737 0
M  V30 1765 H 155.933 -5.77955 -1.96979 0
M  V30 1766 H 157.347 -5.72509 0.300996 0
M  V30 1767 H 155.744 -5.90455 1.07156 0
M  V30 1768 H 156.814 -4.58496 1.57829 0
M  V30 1769 N 158.157 -0.370918 -1.53173 0
M  V30 1770 C 159.573 -0.0200818 -1.59587 0
M  V30 1771 C 159.773 1.46279 -1.38581 0
M  V30 1772 O 158.829 2.22506 -1.19363 0
M  V30 1773 C 160.142 -0.4808 -2.96831 0
M  V30 1774 C 161.69 -0.435477 -3.09956 0
M  V30 1775 C 162.165 -0.872092 -4.4962 0
M  V30 1776 N 163.656 -0.827364 -4.55751 0
M  V30 1777 C 164.391 -1.13683 -5.62018 0
M  V30 1778 N 163.887 -1.51584 -6.76014 0
M  V30 1779 N 165.68 -1.05927 -5.52029 0
M  V30 1780 H 157.831 -1.33652 -1.65079 0
M  V30 1781 H 160.094 -0.546634 -0.774529 0
M  V30 1782 H 159.8 -1.51577 -3.1736 0
M  V30 1783 H 159.674 0.129796 -3.76977 0
M  V30 1784 H 162.061 0.590371 -2.89134 0
M  V30 1785 H 162.142 -1.08164 -2.31806 0
M  V30 1786 H 161.786 -1.89608 -4.71181 0
M  V30 1787 H 161.716 -0.203127 -5.26208 0
M  V30 1788 H 164.207 -0.548216 -3.73902 0
M  V30 1789 H 164.52 -1.73609 -7.53047 0
M  V30 1790 H 162.865 -1.55454 -6.77391 0
M  V30 1791 H 166.056 -0.762321 -4.61851 0
M  V30 1792 H 166.229 -1.30378 -6.34749 0
M  V30 1793 N 159.635 1.57281 -0.100228 0
M  V30 1794 C 160.582 2.14305 0.856858 0
M  V30 1795 C 161.552 1.06296 1.27634 0
M  V30 1796 O 162.737 1.34109 1.35718 0
M  V30 1797 C 159.877 2.73184 2.10866 0
M  V30 1798 C 158.99 3.95442 1.73925 0
M  V30 1799 C 158.125 4.42468 2.93931 0
M  V30 1800 C 157.164 5.57303 2.5314 0
M  V30 1801 N 156.301 5.99158 3.65997 0
M  V30 1802 H 161.141 2.95772 0.363726 0
M  V30 1803 H 158.678 1.46139 0.167858 0
M  V30 1804 H 160.636 3.05442 2.84185 0
M  V30 1805 H 159.266 1.94437 2.57671 0
M  V30 1806 H 158.318 3.69464 0.905554 0
M  V30 1807 H 159.63 4.78769 1.39935 0
M  V30 1808 H 158.784 4.76537 3.75496 0
M  V30 1809 H 157.523 3.58052 3.31134 0
M  V30 1810 H 156.528 5.22857 1.70003 0
M  V30 1811 H 157.753 6.43471 2.17075 0
M  V30 1812 H 155.699 5.17687 4.02909 0
M  V30 1813 H 155.616 6.77295 3.35869 0
M  V30 1814 H 156.884 6.3786 4.48057 0
M  V30 1815 N 161.113 -0.173488 1.56642 0
M  V30 1816 C 162.043 -1.2171 1.99271 0
M  V30 1817 C 163.024 -1.46289 0.867959 0
M  V30 1818 O 164.209 -1.5766 1.13388 0
M  V30 1819 C 161.339 -2.55651 2.35074 0
M  V30 1820 C 160.293 -2.45645 3.50489 0
M  V30 1821 C 159.619 -3.84056 3.72028 0
M  V30 1822 C 160.919 -1.96302 4.84007 0
M  V30 1823 H 162.613 -0.86275 2.867 0
M  V30 1824 H 160.159 -0.413571 1.37933 0
M  V30 1825 H 162.112 -3.2886 2.63494 0
M  V30 1826 H 160.836 -2.92869 1.44552 0
M  V30 1827 H 159.495 -1.7489 3.22194 0
M  V30 1828 H 159.143 -4.18664 2.788 0
M  V30 1829 H 158.843 -3.7823 4.49684 0
M  V30 1830 H 160.367 -4.58854 4.02846 0
M  V30 1831 H 161.781 -2.59284 5.11317 0
M  V30 1832 H 160.178 -2.01429 5.65284 0
M  V30 1833 H 161.248 -0.917226 4.76146 0
M  V30 1834 N 162.591 -1.51276 -0.441967 0
M  V30 1835 C 163.521 -1.752 -1.54361 0
M  V30 1836 C 164.502 -0.601682 -1.59103 0
M  V30 1837 O 165.687 -0.843913 -1.74905 0
M  V30 1838 C 162.817 -1.87282 -2.92477 0
M  V30 1839 C 161.771 -3.02687 -3.02596 0
M  V30 1840 C 161.097 -2.99947 -4.42647 0
M  V30 1841 C 162.397 -4.4273 -2.77106 0
M  V30 1842 H 164.091 -2.67442 -1.34592 0
M  V30 1843 H 161.637 -1.28694 -0.646048 0
M  V30 1844 H 163.59 -2.02602 -3.695 0
M  V30 1845 H 162.314 -0.916844 -3.13467 0
M  V30 1846 H 160.973 -2.87065 -2.28012 0
M  V30 1847 H 160.621 -2.02136 -4.60597 0
M  V30 1848 H 160.321 -3.77439 -4.50348 0
M  V30 1849 H 161.845 -3.17354 -5.2165 0
M  V30 1850 H 163.259 -4.58727 -3.43864 0
M  V30 1851 H 161.656 -5.21893 -2.96222 0
M  V30 1852 H 162.726 -4.53087 -1.72744 0
M  V30 1853 N 164.069 0.697108 -1.41344 0
M  V30 1854 C 165.485 1.00751 -1.2378 0
M  V30 1855 C 165.685 2.01105 -0.126066 0
M  V30 1856 O 164.741 2.47295 0.51004 0
M  V30 1857 C 166.054 1.53359 -2.58653 0
M  V30 1858 C 167.602 1.6525 -2.65822 0
M  V30 1859 C 168.077 2.2126 -4.01009 0
M  V30 1860 N 169.568 2.28622 -4.02847 0
M  V30 1861 C 170.303 2.72984 -5.04249 0
M  V30 1862 N 169.799 3.16962 -6.16041 0
M  V30 1863 N 171.592 2.72534 -4.91611 0
M  V30 1864 H 163.743 0.0322662 -2.12375 0
M  V30 1865 H 166.006 0.0768853 -0.944877 0
M  V30 1866 H 165.712 0.870773 -3.4075 0
M  V30 1867 H 165.586 2.51597 -2.81032 0
M  V30 1868 H 167.973 2.30644 -1.84086 0
M  V30 1869 H 168.054 0.655614 -2.47256 0
M  V30 1870 H 167.698 1.56482 -4.83193 0
M  V30 1871 H 167.628 3.21698 -4.16915 0
M  V30 1872 H 170.119 1.97585 -3.22131 0
M  V30 1873 H 170.432 3.49434 -6.89287 0
M  V30 1874 H 168.777 3.14875 -6.1958 0
M  V30 1875 H 171.968 2.37525 -4.0336 0
M  V30 1876 H 172.141 3.06789 -5.70775 0
M  V30 1877 N 165.547 1.27147 0.931209 0
M  V30 1878 C 166.495 1.09398 2.05268 0
M  V30 1879 C 167.489 0.0180591 1.6939 0
M  V30 1880 O 168.695 0.17551 1.79142 0
M  V30 1881 H 165.07 0.336986 0.672268 0
M  V30 1882 H 167.041 2.04416 2.17386 0
M  V30 1883 C 165.79 0.75424 3.39421 0
M  V30 1884 H 165.113 1.57404 3.67511 0
M  V30 1885 H 166.553 0.669903 4.18674 0
M  V30 1886 C 165.012 -0.541197 3.32525 0
M  V30 1887 O 165.542 -1.57664 3.69466 0
M  V30 1888 N 163.748 -0.535517 2.85623 0
M  V30 1889 H 163.295 0.307511 2.55758 0
M  V30 1890 H 163.253 -1.40236 2.81392 0
M  V30 1891 N 167.025 -1.13721 1.09112 0
M  V30 1892 C 167.955 -2.21148 0.749385 0
M  V30 1893 C 168.936 -1.6792 -0.271475 0
M  V30 1894 O 170.121 -1.93693 -0.140251 0
M  V30 1895 C 167.251 -3.46905 0.165659 0
M  V30 1896 C 166.205 -4.13203 1.11567 0
M  V30 1897 C 165.531 -5.33248 0.393809 0
M  V30 1898 C 166.831 -4.60912 2.45678 0
M  V30 1899 H 168.525 -2.4999 1.64758 0
M  V30 1900 H 166.071 -1.20156 0.793626 0
M  V30 1901 H 168.024 -4.21313 -0.085466 0
M  V30 1902 H 166.748 -3.17449 -0.767714 0
M  V30 1903 H 165.407 -3.40758 1.35202 0
M  V30 1904 H 165.055 -5.00054 -0.543599 0
M  V30 1905 H 164.755 -5.78552 1.02721 0
M  V30 1906 H 166.279 -6.10413 0.150908 0
M  V30 1907 H 167.693 -5.26759 2.26269 0
M  V30 1908 H 166.09 -5.16944 3.04776 0
M  V30 1909 H 167.16 -3.75603 3.06677 0
M  V30 1910 N 168.503 -0.877838 -1.30888 0
M  V30 1911 C 169.743 -0.499301 -1.98208 0
M  V30 1912 C 170.107 0.932649 -1.67826 0
M  V30 1913 O 171.308 1.41694 -2.28421 0
M  V30 1914 C 169.579 -0.758221 -3.49265 0
M  V30 1915 S 171.138 -0.480719 -4.36159 0
M  V30 1916 H 167.956 -0.186062 -0.686223 0
M  V30 1917 H 170.558 -1.13556 -1.59139 0
M  V30 1918 H 169.262 -1.79903 -3.68867 0
M  V30 1919 H 168.793 -0.109247 -3.93248 0
M  V30 1920 H 170.808 0.683698 -4.91467 0
M  V30 1921 N 169.982 1.44106 -0.638065 0
M  V30 1922 C 171.228 2.02277 -0.145546 0
M  V30 1923 C 171.561 1.50125 1.23191 0
M  V30 1924 O 170.836 0.688133 1.8192 0
M  V30 1925 C 171.119 3.59829 -0.139791 0
M  V30 1926 C 170.972 4.22247 -1.55008 0
M  V30 1927 C 172.291 4.36873 0.531966 0
M  V30 1928 H 169.41 0.734992 -0.0543632 0
M  V30 1929 H 172.052 1.71592 -0.815863 0
M  V30 1930 H 170.202 3.86102 0.431007 0
M  V30 1931 H 171.874 4.07057 -2.1703 0
M  V30 1932 H 170.117 3.79476 -2.10191 0
M  V30 1933 H 170.788 5.31284 -1.49804 0
M  V30 1934 H 173.264 4.16074 0.0464781 0
M  V30 1935 H 172.14 5.4657 0.505206 0
M  V30 1936 H 172.401 4.11995 1.60352 0
M  V30 1937 N 171.46 0.379036 1.52974 0
M  V30 1938 C 172.39 -0.452706 2.29069 0
M  V30 1939 C 173.371 -1.07237 1.32039 0
M  V30 1940 O 174.556 -1.08708 1.60923 0
M  V30 1941 C 171.686 -1.5856 3.08992 0
M  V30 1942 C 170.64 -1.0925 4.13822 0
M  V30 1943 C 169.966 -2.31668 4.81907 0
M  V30 1944 C 171.266 -0.167702 5.22031 0
M  V30 1945 H 172.96 0.182181 2.98845 0
M  V30 1946 H 170.506 0.0890592 1.43724 0
M  V30 1947 H 172.459 -2.1742 3.6098 0
M  V30 1948 H 171.183 -2.24792 2.36931 0
M  V30 1949 H 169.842 -0.526494 3.628 0
M  V30 1950 H 169.49 -2.96386 4.06404 0
M  V30 1951 H 169.19 -1.9934 5.52754 0
M  V30 1952 H 170.714 -2.91189 5.36695 0
M  V30 1953 H 172.128 -0.664186 5.6944 0
M  V30 1954 H 170.525 0.0653265 6.00064 0
M  V30 1955 H 171.595 0.786347 4.78482 0
M  V30 1956 N 172.938 -1.57226 0.108567 0
M  V30 1957 C 173.901 -2.13602 -0.831082 0
M  V30 1958 C 174.901 -1.06841 -1.20173 0
M  V30 1959 O 176.091 -1.32666 -1.12895 0
M  V30 1960 C 173.223 -2.66769 -2.12243 0
M  V30 1961 H 174.416 -2.97951 -0.341317 0
M  V30 1962 H 171.969 -1.55667 -0.14057 0
M  V30 1963 H 172.704 -1.85977 -2.65675 0
M  V30 1964 H 172.489 -3.44839 -1.86625 0
M  V30 1965 H 173.979 -3.10332 -2.79435 0
M  V30 1966 N 174.416 0.165178 -1.56732 0
M  V30 1967 C 175.662 0.882112 -1.82611 0
M  V30 1968 C 175.995 1.81628 -0.687378 0
M  V30 1969 O 175.27 1.92009 0.310267 0
M  V30 1970 C 175.553 1.67245 -3.18906 0
M  V30 1971 C 175.406 0.760987 -4.43316 0
M  V30 1972 C 176.725 2.63884 -3.52212 0
M  V30 1973 H 173.844 0.319242 -0.664269 0
M  V30 1974 H 176.486 0.148052 -1.89422 0
M  V30 1975 H 174.636 2.29824 -3.1323 0
M  V30 1976 H 176.308 0.147596 -4.61064 0
M  V30 1977 H 174.551 0.0694102 -4.33744 0
M  V30 1978 H 175.222 1.34962 -5.35247 0
M  V30 1979 H 177.698 2.11429 -3.58381 0
M  V30 1980 H 176.574 3.16245 -4.48643 0
M  V30 1981 H 176.835 3.44377 -2.77231 0
M  V30 1982 N 175.894 1.51508 0.433938 0
M  V30 1983 C 177.305 1.56784 1.01369 0
M  V30 1984 C 177.656 0.393349 1.92217 0
M  V30 1985 O 176.781 -0.489441 2.10792 0
M  V30 1986 C 177.376 2.84144 1.8452 0
M  V30 1987 C 175.935 2.9198 2.37539 0
M  V30 1988 C 175.082 2.51482 1.16843 0
M  V30 1989 H 178.033 1.57236 0.215081 0
M  V30 1990 H 178.054 2.68098 2.70007 0
M  V30 1991 H 177.566 3.69607 1.18373 0
M  V30 1992 H 175.667 2.10955 3.0713 0
M  V30 1993 H 175.78 3.95704 2.70103 0
M  V30 1994 H 174.144 2.04758 1.51481 0
M  V30 1995 H 174.927 3.39293 0.523015 0
M  V30 1996 N 177.372 -0.689602 1.41712 0
M  V30 1997 C 178.305 -1.81403 1.3845 0
M  V30 1998 C 179.283 -1.60653 0.250874 0
M  V30 1999 O 180.467 -1.83323 0.43874 0
M  V30 2000 C 177.594 -3.18176 1.1611 0
M  V30 2001 C 176.64 -3.57705 2.3227 0
M  V30 2002 S 177.473 -3.61827 3.94767 0
M  V30 2003 C 178.629 -5.01318 3.74742 0
M  V30 2004 H 178.862 -1.83893 2.33603 0
M  V30 2005 H 176.395 -0.858878 1.28307 0
M  V30 2006 H 178.353 -3.97132 1.03907 0
M  V30 2007 H 177.014 -3.13288 0.225668 0
M  V30 2008 H 176.207 -4.57082 2.12349 0
M  V30 2009 H 175.809 -2.86073 2.40911 0
M  V30 2010 H 178.101 -5.88986 3.34817 0
M  V30 2011 H 179.044 -5.26283 4.73743 0
M  V30 2012 H 179.452 -4.73138 3.07898 0
M  V30 2013 N 178.85 -1.27639 -0.924453 0
M  V30 2014 C 180.096 -1.14336 -1.67497 0
M  V30 2015 C 180.429 0.309465 -1.91718 0
M  V30 2016 O 179.704 1.22608 -1.50989 0
M  V30 2017 C 179.987 -1.93096 -3.0395 0
M  V30 2018 C 179.84 -3.46381 -2.8695 0
M  V30 2019 C 181.159 -1.73798 -4.0433 0
M  V30 2020 H 178.278 -0.416728 -0.607871 0
M  V30 2021 H 180.92 -1.56832 -1.07256 0
M  V30 2022 H 179.07 -1.56982 -3.55372 0
M  V30 2023 H 180.742 -3.92343 -2.42621 0
M  V30 2024 H 178.985 -3.72557 -2.22225 0
M  V30 2025 H 179.656 -3.96735 -3.83804 0
M  V30 2026 H 182.132 -2.05293 -3.61931 0
M  V30 2027 H 181.008 -2.31294 -4.97789 0
M  V30 2028 H 181.269 -0.686725 -4.36734 0
M  V30 2029 N 180.328 1.1314 -1.09713 0
M  V30 2030 C 181.574 1.84757 -0.836224 0
M  V30 2031 C 181.907 1.8347 0.636598 0
M  V30 2032 O 181.182 1.27491 1.46889 0
M  V30 2033 C 181.465 3.32782 -1.37578 0
M  V30 2034 C 181.318 3.42567 -2.91493 0
M  V30 2035 C 182.637 4.28307 -1.01198 0
M  V30 2036 H 179.756 0.67082 -0.305236 0
M  V30 2037 H 182.398 1.3278 -1.35903 0
M  V30 2038 H 180.548 3.77177 -0.931097 0
M  V30 2039 H 182.22 3.06862 -3.44432 0
M  V30 2040 H 180.463 2.83349 -3.28475 0
M  V30 2041 H 181.134 4.46674 -3.24324 0
M  V30 2042 H 183.61 3.91999 -1.39556 0
M  V30 2043 H 182.486 5.30307 -1.41653 0
M  V30 2044 H 182.747 4.42029 0.0794833 0
M  V30 2045 N 181.806 0.884767 1.30421 0
M  V30 2046 C 183.222 0.57874 1.48737 0
M  V30 2047 C 183.422 -0.883567 1.81095 0
M  V30 2048 O 182.478 -1.6648 1.89844 0
M  V30 2049 C 183.791 1.49171 2.61091 0
M  V30 2050 C 185.339 1.49532 2.74971 0
M  V30 2051 C 185.814 2.39421 3.90438 0
M  V30 2052 N 187.305 2.37383 3.97748 0
M  V30 2053 C 188.04 3.03647 4.86401 0
M  V30 2054 N 187.536 3.79136 5.79852 0
M  V30 2055 N 189.329 2.9288 4.79768 0
M  V30 2056 H 181.48 1.83075 1.0769 0
M  V30 2057 H 183.743 0.783637 0.533495 0
M  V30 2058 H 183.449 2.53291 2.44001 0
M  V30 2059 H 183.323 1.20113 3.57565 0
M  V30 2060 H 185.71 0.46163 2.91467 0
M  V30 2061 H 185.791 1.8262 1.79119 0
M  V30 2062 H 185.435 3.42874 3.74699 0
M  V30 2063 H 185.365 2.03649 4.85628 0
M  V30 2064 H 187.856 1.82525 3.30897 0
M  V30 2065 H 188.169 4.26789 6.4426 0
M  V30 2066 H 186.514 3.83243 5.79784 0
M  V30 2067 H 189.705 2.33433 4.05742 0
M  V30 2068 H 189.878 3.448 5.4865 0
M  V30 2069 N 183.284 -1.43765 0.645699 0
M  V30 2070 C 184.512 -2.06253 0.163556 0
M  V30 2071 C 184.927 -1.48352 -1.16778 0
M  V30 2072 O 184.284 -0.611932 -1.71935 0
M  V30 2073 C 184.335 -3.61453 0.0583186 0
M  V30 2074 O 184.056 -4.172 1.33702 0
M  V30 2075 C 185.557 -4.41002 -0.450795 0
M  V30 2076 H 182.777 -0.665413 0.0864077 0
M  V30 2077 H 185.321 -1.84396 0.884222 0
M  V30 2078 H 183.476 -3.82522 -0.612865 0
M  V30 2079 H 183.89 -5.10791 1.19131 0
M  V30 2080 H 185.364 -5.49966 -0.473403 0
M  V30 2081 H 185.841 -4.13488 -1.48068 0
M  V30 2082 H 186.447 -4.24886 0.187637 0
M  V30 2083 N 184.763 -0.387143 -1.52771 0
M  V30 2084 C 185.695 0.484089 -2.2403 0
M  V30 2085 C 186.708 1.02849 -1.26198 0
M  V30 2086 O 187.897 0.931186 -1.52286 0
M  V30 2087 C 184.997 1.68337 -2.94136 0
M  V30 2088 C 184.17 1.26672 -4.18656 0
M  V30 2089 C 183.229 2.33045 -4.7178 0
M  V30 2090 O 182.255 1.94541 -5.34923 0
M  V30 2091 N 183.457 3.64929 -4.5145 0
M  V30 2092 H 186.222 -0.126404 -2.99433 0
M  V30 2093 H 183.783 -0.213392 -1.60488 0
M  V30 2094 H 185.775 2.39019 -3.26577 0
M  V30 2095 H 184.345 2.20025 -2.22053 0
M  V30 2096 H 183.565 0.388878 -3.92277 0
M  V30 2097 H 184.853 0.964964 -4.99566 0
M  V30 2098 H 184.251 3.98974 -4.01044 0
M  V30 2099 H 182.808 4.31651 -4.88386 0
M  V30 2100 N 186.241 1.57166 -0.116904 0
M  V30 2101 C 187.487 1.95412 0.542405 0
M  V30 2102 C 187.82 1.00019 1.66463 0
M  V30 2103 O 187.095 0.0370346 1.94465 0
M  V30 2104 C 187.378 3.43615 1.07708 0
M  V30 2105 C 187.231 4.49781 -0.0415868 0
M  V30 2106 C 188.55 3.93616 1.96861 0
M  V30 2107 H 185.669 0.710543 0.195696 0
M  V30 2108 H 188.311 1.89027 -0.192038 0
M  V30 2109 H 186.461 3.49187 1.70296 0
M  V30 2110 H 188.133 4.56308 -0.676793 0
M  V30 2111 H 186.376 4.28033 -0.705019 0
M  V30 2112 H 187.047 5.50733 0.373717 0
M  V30 2113 H 189.523 3.90335 1.44146 0
M  V30 2114 H 188.399 4.97838 2.3119 0
M  V30 2115 H 188.66 3.34188 2.89432 0
M  V30 2116 N 187.719 -0.156864 1.56817 0
M  V30 2117 C 188.968 -0.869504 1.81996 0
M  V30 2118 C 189.281 -1.82777 0.696545 0
M  V30 2119 O 190.487 -2.58384 0.833658 0
M  V30 2120 C 188.943 -1.59679 3.22538 0
M  V30 2121 C 188.551 -0.681431 4.42787 0
M  V30 2122 C 190.295 -2.2968 3.56997 0
M  V30 2123 C 188.202 -1.40978 5.74351 0
M  V30 2124 H 187.132 -0.328438 0.678708 0
M  V30 2125 H 189.783 -0.1223 1.83092 0
M  V30 2126 H 188.165 -2.38927 3.158 0
M  V30 2127 H 189.339 0.0751166 4.60739 0
M  V30 2128 H 187.654 -0.0903431 4.16302 0
M  V30 2129 H 190.251 -2.84794 4.52544 0
M  V30 2130 H 190.594 -3.05707 2.82576 0
M  V30 2131 H 191.127 -1.57361 3.65352 0
M  V30 2132 H 187.866 -0.691561 6.51842 0
M  V30 2133 H 187.386 -2.13929 5.60352 0
M  V30 2134 H 189.065 -1.95337 6.16808 0
M  V30 2135 N 189.197 -1.51736 -0.425897 0
M  V30 2136 C 190.445 -1.64644 -1.17204 0
M  V30 2137 C 190.766 -0.370486 -1.91448 0
M  V30 2138 O 190.036 0.614088 -1.86026 0
M  V30 2139 H 188.616 -0.606819 -0.435638 0
M  V30 2140 H 191.278 -1.88713 -0.487177 0
M  V30 2141 H 190.374 -2.47958 -1.89534 0
M  V30 2142 N 190.675 0.682077 -1.42076 0
M  V30 2143 C 191.638 1.77756 -1.44691 0
M  V30 2144 C 192.638 1.5726 -0.335535 0
M  V30 2145 O 193.828 1.63686 -0.596037 0
M  V30 2146 C 190.96 3.16301 -1.27146 0
M  V30 2147 H 192.153 1.76826 -2.42224 0
M  V30 2148 H 189.706 0.891012 -1.28416 0
M  V30 2149 H 190.441 3.22862 -0.305075 0
M  V30 2150 H 190.226 3.32581 -2.07683 0
M  V30 2151 H 191.716 3.96241 -1.31843 0
M  V30 2152 N 192.153 1.28127 0.917671 0
M  V30 2153 C 193.399 1.15223 1.66888 0
M  V30 2154 C 193.732 -0.299293 1.9188 0
M  V30 2155 O 193.007 -1.21805 1.51637 0
M  V30 2156 C 193.29 1.94706 3.02922 0
M  V30 2157 C 193.143 3.47898 2.85109 0
M  V30 2158 C 194.462 1.75939 4.03402 0
M  V30 2159 H 191.581 0.419946 0.605652 0
M  V30 2160 H 194.223 1.57398 1.06423 0
M  V30 2161 H 192.373 1.58864 3.54534 0
M  V30 2162 H 194.045 3.93624 2.40537 0
M  V30 2163 H 192.288 3.7373 2.20246 0
M  V30 2164 H 192.959 3.98765 3.81694 0
M  V30 2165 H 195.435 2.07209 3.60837 0
M  V30 2166 H 194.311 2.33931 4.96556 0
M  V30 2167 H 194.572 0.709877 4.36364 0
M  V30 2168 N 193.631 -1.12557 1.10312 0
M  V30 2169 C 194.878 -1.84038 0.844759 0
M  V30 2170 C 195.206 -1.84026 -0.629668 0
M  V30 2171 O 194.461 -1.28026 -1.48013 0
M  V30 2172 C 194.76 -3.31462 1.33669 0
M  V30 2173 C 194.426 -3.51647 2.82232 0
M  V30 2174 C 193.088 -3.56864 3.22802 0
M  V30 2175 C 195.44 -3.58867 3.77974 0
M  V30 2176 C 192.768 -3.66844 4.57867 0
M  V30 2177 C 195.12 -3.70375 5.1284 0
M  V30 2178 C 193.784 -3.73848 5.52986 0
M  V30 2179 H 193.054 -0.673444 0.309119 0
M  V30 2180 H 195.701 -1.32824 1.37949 0
M  V30 2181 H 194.006 -3.85091 0.721949 0
M  V30 2182 H 195.703 -3.85236 1.11329 0
M  V30 2183 H 192.293 -3.48249 2.49842 0
M  V30 2184 H 196.477 -3.54107 3.47738 0
M  V30 2185 H 191.733 -3.67804 4.88396 0
M  V30 2186 H 195.907 -3.74904 5.86873 0
M  V30 2187 H 193.534 -3.81333 6.57639 0
M  V30 2188 N 195.109 -0.891671 -1.2995 0
M  V30 2189 C 196.042 -0.307994 -2.26112 0
M  V30 2190 C 197.02 0.575262 -1.52084 0
M  V30 2191 O 198.204 0.523864 -1.81074 0
M  V30 2192 C 195.331 0.561734 -3.34009 0
M  V30 2193 C 194.377 -0.253107 -4.25748 0
M  V30 2194 S 195.21 -1.64572 -5.09584 0
M  V30 2195 C 196.366 -0.782699 -6.20987 0
M  V30 2196 H 196.599 -1.12309 -2.75271 0
M  V30 2197 H 194.132 -0.691509 -1.38049 0
M  V30 2198 H 196.09 1.05777 -3.96638 0
M  V30 2199 H 194.751 1.35099 -2.83561 0
M  V30 2200 H 193.944 0.410908 -5.02322 0
M  V30 2201 H 193.546 -0.682004 -3.67729 0
M  V30 2202 H 195.838 -0.00257476 -6.775 0
M  V30 2203 H 196.781 -1.52026 -6.91588 0
M  V30 2204 H 197.189 -0.340638 -5.63471 0
M  V30 2205 N 196.587 1.43421 -0.653314 0
M  V30 2206 C 197.55 2.29182 0.0287951 0
M  V30 2207 C 198.55 1.42213 0.750465 0
M  V30 2208 O 199.74 1.63843 0.591701 0
M  V30 2209 C 196.872 3.24278 1.05151 0
M  V30 2210 H 198.065 2.90985 -0.725786 0
M  V30 2211 H 195.618 1.50702 -0.414545 0
M  V30 2212 H 196.353 2.6737 1.83532 0
M  V30 2213 H 196.138 3.88396 0.537687 0
M  V30 2214 H 197.628 3.88647 1.52786 0
M  V30 2215 N 198.065 0.39524 1.52563 0
M  V30 2216 C 199.481 0.0454682 1.59535 0
M  V30 2217 C 199.681 -1.44056 1.4089 0
M  V30 2218 O 198.737 -2.20579 1.22888 0
M  V30 2219 C 200.05 0.527963 2.96029 0
M  V30 2220 C 201.598 0.484733 3.09224 0
M  V30 2221 C 202.073 0.943512 4.48176 0
M  V30 2222 N 203.564 0.899765 4.54377 0
M  V30 2223 C 204.299 1.22609 5.60138 0
M  V30 2224 N 203.795 1.62319 6.73516 0
M  V30 2225 N 205.588 1.14696 5.50274 0
M  V30 2226 H 197.739 1.36261 1.62931 0
M  V30 2227 H 200.002 0.558887 0.765735 0
M  V30 2228 H 199.708 1.56607 3.14908 0
M  V30 2229 H 199.582 -0.0698056 3.77135 0
M  V30 2230 H 201.969 -0.544298 2.90037 0
M  V30 2231 H 202.05 1.11838 2.30056 0
M  V30 2232 H 201.694 1.9708 4.68104 0
M  V30 2233 H 201.624 0.286817 5.25818 0
M  V30 2234 H 204.115 0.607632 3.72983 0
M  V30 2235 H 204.428 1.85567 7.5019 0
M  V30 2236 H 202.773 1.66211 6.74833 0
M  V30 2237 H 205.964 0.835701 4.6058 0
M  V30 2238 H 206.137 1.40459 6.32594 0
M  V30 2239 N 199.544 -1.57102 0.125237 0
M  V30 2240 C 200.772 -1.99761 -0.538797 0
M  V30 2241 C 201.187 -1.00503 -1.59827 0
M  V30 2242 O 200.544 0.00119474 -1.825 0
M  V30 2243 C 200.595 -3.42408 -1.15927 0
M  V30 2244 O 200.316 -4.37869 -0.142143 0
M  V30 2245 C 201.817 -4.00232 -1.90602 0
M  V30 2246 H 199.037 -0.655772 -0.14214 0
M  V30 2247 H 201.581 -2.03383 0.213413 0
M  V30 2248 H 199.736 -3.39706 -1.86223 0
M  V30 2249 H 200.15 -5.21128 -0.593775 0
M  V30 2250 H 201.624 -5.02105 -2.29335 0
M  V30 2251 H 202.101 -3.39721 -2.78363 0
M  V30 2252 H 202.707 -4.06499 -1.25055 0
M  V30 2253 N 201.022 0.148545 -1.56898 0
M  V30 2254 C 202.438 0.501131 -1.51528 0
M  V30 2255 C 202.638 1.83458 -0.833399 0
M  V30 2256 O 201.694 2.49259 -0.40328 0
M  V30 2257 C 203.007 0.512864 -2.96294 0
M  V30 2258 C 204.555 0.598487 -3.07225 0
M  V30 2259 C 205.03 0.640897 -4.53494 0
M  V30 2260 N 206.521 0.703163 -4.57832 0
M  V30 2261 C 207.256 0.756935 -5.68382 0
M  V30 2262 N 206.752 0.770147 -6.88506 0
M  V30 2263 N 208.545 0.797698 -5.56411 0
M  V30 2264 H 200.696 -0.725532 -1.99624 0
M  V30 2265 H 202.959 -0.264358 -0.910395 0
M  V30 2266 H 202.665 -0.398691 -3.49433 0
M  V30 2267 H 202.539 1.35133 -3.52163 0
M  V30 2268 H 204.926 1.50046 -2.54106 0
M  V30 2269 H 205.007 -0.267093 -2.54402 0
M  V30 2270 H 204.651 -0.256915 -5.0725 0
M  V30 2271 H 204.581 1.52295 -5.04097 0
M  V30 2272 H 207.072 0.700314 -3.71354 0
M  V30 2273 H 207.385 0.812983 -7.68512 0
M  V30 2274 H 205.73 0.738049 -6.9107 0
M  V30 2275 H 208.921 0.784535 -4.61479 0
M  V30 2276 H 209.094 0.83614 -6.42583 0
M  V30 2277 N 202.5 1.5196 0.417844 0
M  V30 2278 C 203.777 1.56146 1.17803 0
M  V30 2279 C 204.157 0.337275 2.08388 0
M  V30 2280 O 203.505 -0.676447 2.18258 0
M  V30 2281 C 203.715 2.88566 1.96293 0
M  V30 2282 C 205.063 3.41244 2.52662 0
M  V30 2283 O 206.087 2.90247 2.06483 0
M  V30 2284 O 204.946 4.30273 3.36938 0
M  V30 2285 H 202.04 0.628598 0.537395 0
M  V30 2286 H 204.586 1.64283 0.425331 0
M  V30 2287 H 203.358 3.69116 1.2988 0
M  V30 2288 H 202.981 2.83681 2.78587 0
M  V30 2289 N 203.978 -0.674533 1.42435 0
M  V30 2290 C 204.926 -1.80934 1.46169 0
M  V30 2291 C 205.92 -1.66006 0.3374 0
M  V30 2292 O 207.126 -1.72611 0.510425 0
M  V30 2293 H 203.501 -0.596594 0.457798 0
M  V30 2294 H 205.472 -1.74903 2.41767 0
M  V30 2295 C 204.221 -3.19088 1.38123 0
M  V30 2296 H 203.544 -3.31203 2.23931 0
M  V30 2297 H 204.984 -3.9851 1.44797 0
M  V30 2298 C 203.443 -3.36763 0.0960517 0
M  V30 2299 O 203.973 -3.92581 -0.851073 0
M  V30 2300 N 202.179 -2.90597 0.0131186 0
M  V30 2301 H 201.726 -2.45359 0.784639 0
M  V30 2302 H 201.684 -3.028 -0.846133 0
M  V30 2303 N 205.456 -1.28612 -0.910864 0
M  V30 2304 C 206.867 -1.14406 -1.47541 0
M  V30 2305 C 207.218 0.264901 -1.94403 0
M  V30 2306 O 206.343 1.15942 -1.82719 0
M  V30 2307 C 206.938 -2.07073 -2.68153 0
M  V30 2308 C 205.497 -1.96923 -3.20778 0
M  V30 2309 C 204.644 -1.98646 -1.93481 0
M  V30 2310 H 207.595 -1.41259 -0.723291 0
M  V30 2311 H 207.616 -1.63642 -3.43514 0
M  V30 2312 H 207.128 -3.09611 -2.34015 0
M  V30 2313 H 205.229 -0.97433 -3.59635 0
M  V30 2314 H 205.342 -2.84026 -3.85832 0
M  V30 2315 H 203.706 -1.43093 -2.10705 0
M  V30 2316 H 204.489 -3.02868 -1.61634 0
M  V30 2317 N 206.934 1.1197 -1.10907 0
M  V30 2318 C 208.345 1.65114 -0.871446 0
M  V30 2319 C 208.696 1.86885 0.597353 0
M  V30 2320 O 207.821 1.59896 1.45816 0
M  V30 2321 C 208.416 2.99944 -1.5754 0
M  V30 2322 C 206.975 3.50018 -1.38435 0
M  V30 2323 C 206.122 2.24941 -1.62164 0
M  V30 2324 H 209.073 0.956851 -1.2661 0
M  V30 2325 H 209.094 3.66651 -1.01721 0
M  V30 2326 H 208.606 2.84067 -2.64438 0
M  V30 2327 H 206.707 3.71071 -0.337214 0
M  V30 2328 H 206.82 4.29165 -2.12965 0
M  V30 2329 H 205.184 2.3229 -1.04467 0
M  V30 2330 H 205.967 2.11612 -2.70324 0
M  V30 2331 N 208.412 0.89855 1.29475 0
M  V30 2332 C 209.659 0.523882 1.95606 0
M  V30 2333 C 209.987 -0.929608 1.70847 0
M  V30 2334 O 209.242 -1.67401 1.01367 0
M  V30 2335 C 209.541 0.761398 3.49195 0
M  V30 2336 C 209.207 2.19207 3.94029 0
M  V30 2337 C 207.869 2.58326 4.05982 0
M  V30 2338 C 210.221 3.12379 4.17216 0
M  V30 2339 C 207.549 3.898 4.38489 0
M  V30 2340 C 209.901 4.43401 4.51197 0
M  V30 2341 C 208.565 4.82394 4.61359 0
M  V30 2342 H 207.835 0.191702 0.715773 0
M  V30 2343 H 210.482 1.13699 1.54094 0
M  V30 2344 H 208.787 0.0653622 3.91745 0
M  V30 2345 H 210.484 0.450904 3.98457 0
M  V30 2346 H 207.074 1.87846 3.85242 0
M  V30 2347 H 211.258 2.83371 4.07449 0
M  V30 2348 H 206.514 4.19734 4.44559 0
M  V30 2349 H 210.688 5.15623 4.68087 0
M  V30 2350 H 208.315 5.84306 4.86303 0
M  V30 2351 N 209.89 -1.43072 0.660911 0
M  V30 2352 C 211.115 -2.06584 0.183805 0
M  V30 2353 C 211.54 -1.49257 -1.14472 0
M  V30 2354 O 210.898 -0.605528 -1.70889 0
M  V30 2355 C 210.946 -3.60418 0.114434 0
M  V30 2356 O 210.05 -4.01981 -0.921137 0
M  V30 2357 H 209.391 -0.656669 0.0983994 0
M  V30 2358 H 211.921 -1.83447 0.906006 0
M  V30 2359 H 211.931 -4.07946 -0.0663394 0
M  V30 2360 H 210.606 -4.01519 1.08422 0
M  V30 2361 H 209.183 -3.66029 -0.71253 0
M  V30 2362 N 211.368 -0.403325 -1.52352 0
M  V30 2363 C 212.645 0.232611 -1.94212 0
M  V30 2364 C 213.025 1.63133 -1.33981 0
M  V30 2365 O 212.373 2.22659 -0.513344 0
M  V30 2366 C 212.583 0.244811 -3.4814 0
M  V30 2367 C 213.931 0.46698 -4.22024 0
M  V30 2368 O 214.955 0.324419 -3.5472 0
M  V30 2369 O 213.814 0.74747 -5.41364 0
M  V30 2370 H 210.908 0.148223 -0.813609 0
M  V30 2371 H 213.454 -0.458848 -1.63379 0
M  V30 2372 H 212.226 -0.734378 -3.84347 0
M  V30 2373 H 211.849 0.980611 -3.85318 0
M  V30 2374 N 212.846 1.57033 -0.133567 0
M  V30 2375 C 213.809 2.14897 0.796995 0
M  V30 2376 C 214.809 1.0874 1.18458 0
M  V30 2377 O 215.999 1.34446 1.1077 0
M  V30 2378 C 213.131 2.70112 2.07973 0
M  V30 2379 H 214.324 2.98457 0.293873 0
M  V30 2380 H 211.877 1.55871 0.115787 0
M  V30 2381 H 212.612 1.9018 2.62682 0
M  V30 2382 H 212.397 3.47764 1.81115 0
M  V30 2383 H 213.887 3.14738 2.74462 0
M  V30 2384 N 214.325 -0.140222 1.56975 0
M  V30 2385 C 215.235 -1.19223 2.02047 0
M  V30 2386 C 216.251 -1.46612 0.937062 0
M  V30 2387 O 217.427 -1.58148 1.24704 0
M  V30 2388 C 214.492 -2.50414 2.39778 0
M  V30 2389 C 213.553 -2.30612 3.621 0
M  V30 2390 C 212.786 -3.55547 3.98023 0
M  V30 2391 O 213.009 -4.62004 3.34528 0
M  V30 2392 O 211.943 -3.47808 4.91237 0
M  V30 2393 H 215.769 -0.839559 2.91865 0
M  V30 2394 H 213.354 -0.349453 1.45256 0
M  V30 2395 H 215.236 -3.27747 2.64877 0
M  V30 2396 H 213.911 -2.85198 1.53114 0
M  V30 2397 H 212.818 -1.51207 3.4218 0
M  V30 2398 H 214.151 -2.00741 4.49404 0
M  V30 2399 N 215.803 -1.52179 -0.40978 0
M  V30 2400 C 217.031 -1.70054 -1.17853 0
M  V30 2401 C 217.446 -0.409735 -1.843 0
M  V30 2402 O 216.803 0.614183 -1.71855 0
M  V30 2403 C 216.854 -2.83568 -2.24213 0
M  V30 2404 O 216.575 -4.0765 -1.60478 0
M  V30 2405 C 218.076 -3.12947 -3.13973 0
M  V30 2406 H 215.296 -0.569917 -0.354169 0
M  V30 2407 H 217.84 -1.98734 -0.482198 0
M  V30 2408 H 215.995 -2.57409 -2.89516 0
M  V30 2409 H 216.409 -4.70899 -2.30986 0
M  V30 2410 H 217.883 -3.95889 -3.84677 0
M  V30 2411 H 218.36 -2.26472 -3.76307 0
M  V30 2412 H 218.966 -3.40868 -2.5434 0
M  V30 2413 N 217.281 0.66697 -1.42791 0
M  V30 2414 C 218.244 1.76211 -1.46568 0
M  V30 2415 C 219.244 1.56896 -0.352196 0
M  V30 2416 O 220.434 1.63044 -0.613364 0
M  V30 2417 C 217.566 3.14935 -1.30494 0
M  V30 2418 H 218.759 1.74247 -2.44086 0
M  V30 2419 H 216.312 0.877342 -1.29354 0
M  V30 2420 H 217.047 3.2252 -0.339301 0
M  V30 2421 H 216.832 3.30359 -2.11199 0
M  V30 2422 H 218.322 3.94821 -1.36038 0
M  V30 2423 N 218.759 1.29093 0.90403 0
M  V30 2424 C 220.008 1.16187 1.64874 0
M  V30 2425 C 220.321 -0.286742 1.93487 0
M  V30 2426 O 221.527 -0.537062 2.66135 0
M  V30 2427 C 219.983 2.03177 2.97064 0
M  V30 2428 C 219.591 3.52836 2.76062 0
M  V30 2429 C 221.335 1.98984 3.74974 0
M  V30 2430 C 219.242 4.31945 4.03952 0
M  V30 2431 H 218.172 0.431246 0.618501 0
M  V30 2432 H 220.823 1.53699 1.00243 0
M  V30 2433 H 219.205 1.5853 3.62883 0
M  V30 2434 H 220.379 4.05507 2.18863 0
M  V30 2435 H 218.694 3.58656 2.11553 0
M  V30 2436 H 221.291 2.55351 4.69787 0
M  V30 2437 H 221.634 0.968815 4.0487 0
M  V30 2438 H 222.167 2.41652 3.15989 0
M  V30 2439 H 218.906 5.34667 3.79225 0
M  V30 2440 H 218.426 3.84045 4.60727 0
M  V30 2441 H 220.105 4.42379 4.72133 0
M  V30 2442 N 220.237 -1.11381 1.11499 0
M  V30 2443 C 221.486 -1.82494 0.858993 0
M  V30 2444 C 221.799 -1.85605 -0.617278 0
M  V30 2445 O 223.005 -2.52824 -0.989552 0
M  V30 2446 C 221.461 -3.27745 1.48699 0
M  V30 2447 C 221.069 -3.32961 2.99735 0
M  V30 2448 C 222.813 -4.03754 1.31085 0
M  V30 2449 C 220.72 -4.72612 3.55516 0
M  V30 2450 H 219.65 -0.683802 0.317696 0
M  V30 2451 H 222.301 -1.25331 1.34031 0
M  V30 2452 H 220.683 -3.84844 0.933339 0
M  V30 2453 H 221.857 -2.85741 3.61509 0
M  V30 2454 H 220.172 -2.70433 3.16631 0
M  V30 2455 H 222.769 -5.06891 1.70192 0
M  V30 2456 H 223.112 -4.15527 0.253496 0
M  V30 2457 H 223.645 -3.53043 1.83318 0
M  V30 2458 H 220.384 -4.66036 4.60967 0
M  V30 2459 H 219.904 -5.2024 2.98513 0
M  V30 2460 H 221.583 -5.4157 3.53992 0
M  V30 2461 N 221.715 -0.905404 -1.28997 0
M  V30 2462 C 223.131 -0.60233 -1.47798 0
M  V30 2463 C 223.331 0.854645 -1.82478 0
M  V30 2464 O 222.387 1.63439 -1.92468 0
M  V30 2465 C 223.7 -1.53306 -2.58685 0
M  V30 2466 C 225.248 -1.53887 -2.72558 0
M  V30 2467 C 225.723 -2.45602 -3.86579 0
M  V30 2468 N 227.214 -2.43681 -3.93921 0
M  V30 2469 C 227.949 -3.11347 -4.81509 0
M  V30 2470 N 227.445 -3.88313 -5.73746 0
M  V30 2471 N 229.238 -3.00476 -4.75048 0
M  V30 2472 H 221.389 -1.84765 -1.04764 0
M  V30 2473 H 223.652 -0.792025 -0.520961 0
M  V30 2474 H 223.358 -2.57141 -2.39941 0
M  V30 2475 H 223.232 -1.25787 -3.55609 0
M  V30 2476 H 225.619 -0.507941 -2.90696 0
M  V30 2477 H 225.7 -1.85447 -1.76191 0
M  V30 2478 H 225.344 -3.48792 -3.69197 0
M  V30 2479 H 225.274 -2.11349 -4.82327 0
M  V30 2480 H 227.765 -1.87767 -3.27951 0
M  V30 2481 H 228.078 -4.36985 -6.37389 0
M  V30 2482 H 226.423 -3.92419 -5.73614 0
M  V30 2483 H 229.614 -2.39858 -4.01977 0
M  V30 2484 H 229.787 -3.53485 -5.43095 0
M  V30 2485 N 223.193 1.4272 -0.668489 0
M  V30 2486 C 224.47 1.95248 -0.117373 0
M  V30 2487 C 224.85 1.60919 1.36632 0
M  V30 2488 O 224.198 0.902095 2.09939 0
M  V30 2489 C 224.408 3.46927 -0.379806 0
M  V30 2490 C 225.756 4.23588 -0.292923 0
M  V30 2491 O 226.78 3.5482 -0.313204 0
M  V30 2492 O 225.639 5.46017 -0.229697 0
M  V30 2493 H 222.733 0.827 0.00079152 0
M  V30 2494 H 225.279 1.52581 -0.742783 0
M  V30 2495 H 224.051 3.65096 -1.40786 0
M  V30 2496 H 223.674 3.96627 0.277923 0
M  V30 2497 N 224.671 0.411399 1.52136 0
M  V30 2498 C 225.601 -0.404015 2.29978 0
M  V30 2499 C 226.582 -1.04412 1.34284 0
M  V30 2500 O 227.767 -1.0527 1.63192 0
M  V30 2501 C 224.897 -1.5197 3.12286 0
M  V30 2502 C 223.851 -1.00448 4.16046 0
M  V30 2503 C 223.177 -2.21393 4.86712 0
M  V30 2504 C 224.477 -0.0569336 5.22269 0
M  V30 2505 H 226.171 0.245529 2.98392 0
M  V30 2506 H 223.717 0.119525 1.43503 0
M  V30 2507 H 225.67 -2.09715 3.6551 0
M  V30 2508 H 224.394 -2.19716 2.41646 0
M  V30 2509 H 223.053 -0.449421 3.63835 0
M  V30 2510 H 222.701 -2.87699 4.12599 0
M  V30 2511 H 222.401 -1.87571 5.56858 0
M  V30 2512 H 223.925 -2.7974 5.4275 0
M  V30 2513 H 225.339 -0.54325 5.7072 0
M  V30 2514 H 223.736 0.192594 5.99791 0
M  V30 2515 H 224.806 0.887663 4.76706 0
M  V30 2516 N 226.149 -1.5696 0.141893 0
M  V30 2517 C 227.395 -1.9625 -0.511248 0
M  V30 2518 C 227.728 -1.02654 -1.64851 0
M  V30 2519 O 227.003 -0.0679676 -1.94381 0
M  V30 2520 C 227.286 -3.45285 -1.02227 0
M  V30 2521 C 227.139 -4.49658 0.113138 0
M  V30 2522 C 228.458 -3.96698 -1.90574 0
M  V30 2523 H 225.577 -0.713567 -0.184367 0
M  V30 2524 H 228.219 -1.88698 0.222087 0
M  V30 2525 H 226.369 -3.51852 -1.64719 0
M  V30 2526 H 228.041 -4.55174 0.749302 0
M  V30 2527 H 226.284 -4.26857 0.773026 0
M  V30 2528 H 226.955 -5.51258 -0.286053 0
M  V30 2529 H 229.431 -3.92578 -1.37918 0
M  V30 2530 H 228.307 -5.01453 -2.2324 0
M  V30 2531 H 228.568 -3.3875 -2.84079 0
M  V30 2532 N 227.627 0.131896 -1.57047 0
M  V30 2533 C 228.852 0.860418 -1.8871 0
M  V30 2534 C 229.277 1.73251 -0.73251 0
M  V30 2535 O 228.635 1.785 0.317429 0
M  V30 2536 C 228.683 1.68047 -3.19049 0
M  V30 2537 O 227.787 2.7862 -3.04047 0
M  V30 2538 H 227.128 0.238743 -0.619595 0
M  V30 2539 H 229.658 0.118169 -2.04258 0
M  V30 2540 H 229.668 2.07238 -3.51449 0
M  V30 2541 H 228.343 1.04018 -4.02682 0
M  V30 2542 H 226.92 2.42726 -2.83088 0
M  V30 2543 N 229.106 1.52395 0.401703 0
M  V30 2544 C 230.056 1.72649 1.48917 0
M  V30 2545 C 231.04 0.580436 1.50066 0
M  V30 2546 O 232.232 0.83779 1.55917 0
M  V30 2547 C 229.361 1.88729 2.86769 0
M  V30 2548 C 228.447 3.09228 2.90239 0
M  V30 2549 N 228.838 4.31805 2.63396 0
M  V30 2550 C 227.136 3.09214 3.21408 0
M  V30 2551 C 227.837 5.13326 2.73625 0
M  V30 2552 N 226.813 4.48735 3.06819 0
M  V30 2553 H 230.615 2.65058 1.26971 0
M  V30 2554 H 228.129 1.50528 0.609504 0
M  V30 2555 H 230.126 2.01358 3.65049 0
M  V30 2556 H 228.786 0.975252 3.09708 0
M  V30 2557 H 229.797 4.60154 2.37653 0
M  V30 2558 H 226.474 2.27774 3.49893 0
M  V30 2559 H 227.864 6.21003 2.56524 0
M  V30 2560 N 230.584 -0.659388 1.43143 0
M  V30 2561 C 231.547 -1.75432 1.47501 0
M  V30 2562 C 232.547 -1.56707 0.360512 0
M  V30 2563 O 233.737 -1.62717 0.622002 0
M  V30 2564 C 230.869 -3.14239 1.32162 0
M  V30 2565 H 232.062 -1.7295 2.45006 0
M  V30 2566 H 229.615 -0.870469 1.29817 0
M  V30 2567 H 230.35 -3.22336 0.356401 0
M  V30 2568 H 230.135 -3.29235 2.12948 0
M  V30 2569 H 231.625 -3.94094 1.3813 0
M  V30 2570 N 232.062 -1.29571 -0.897171 0
M  V30 2571 C 233.025 -1.14913 -1.98312 0
M  V30 2572 C 234.025 -0.0838629 -1.60581 0
M  V30 2573 O 235.215 -0.331006 -1.71026 0
M  V30 2574 C 232.347 -0.757835 -3.3237 0
M  V30 2575 H 233.54 -2.11377 -2.12743 0
M  V30 2576 H 231.093 -1.12793 -1.08201 0
M  V30 2577 H 231.828 0.206837 -3.2364 0
M  V30 2578 H 231.613 -1.52755 -3.61121 0
M  V30 2579 H 233.103 -0.678408 -4.12053 0
M  V30 2580 N 233.54 1.10788 -1.12088 0
M  V30 2581 C 234.47 2.19083 -0.807755 0
M  V30 2582 C 235.451 1.6858 0.226859 0
M  V30 2583 O 236.636 1.93997 0.0888475 0
M  V30 2584 C 233.766 3.46344 -0.257576 0
M  V30 2585 C 232.72 4.101 -1.22483 0
M  V30 2586 C 232.046 5.32016 -0.535052 0
M  V30 2587 C 233.346 4.54236 -2.57811 0
M  V30 2588 H 235.04 2.45534 -1.71328 0
M  V30 2589 H 232.586 1.1801 -0.825205 0
M  V30 2590 H 234.539 4.21392 -0.0262679 0
M  V30 2591 H 233.263 3.19373 0.683278 0
M  V30 2592 H 231.922 3.37054 -1.44189 0
M  V30 2593 H 231.57 5.01319 0.410827 0
M  V30 2594 H 231.27 5.75625 -1.18024 0
M  V30 2595 H 232.794 6.09799 -0.312695 0
M  V30 2596 H 234.208 5.20575 -2.40155 0
M  V30 2597 H 232.605 5.08682 -3.18375 0
M  V30 2598 H 233.675 3.6734 -3.16528 0
M  V30 2599 N 235.018 0.912232 1.28515 0
M  V30 2600 C 236.264 0.545405 1.95328 0
M  V30 2601 C 236.597 -0.908313 1.71649 0
M  V30 2602 O 235.872 -1.64575 1.03659 0
M  V30 2603 C 236.155 0.853483 3.4984 0
M  V30 2604 C 236.008 2.35982 3.82926 0
M  V30 2605 C 237.327 0.348589 4.38717 0
M  V30 2606 H 234.446 0.199626 0.709449 0
M  V30 2607 H 237.088 1.1412 1.5191 0
M  V30 2608 H 235.238 0.34643 3.86952 0
M  V30 2609 H 236.91 2.93738 3.55691 0
M  V30 2610 H 235.153 2.81543 3.30024 0
M  V30 2611 H 235.824 2.52593 4.90816 0
M  V30 2612 H 238.3 0.78294 4.08668 0
M  V30 2613 H 237.176 0.593242 5.45685 0
M  V30 2614 H 237.437 -0.751049 4.35674 0
M  V30 2615 N 236.496 -1.42363 0.676048 0
M  V30 2616 C 237.742 -2.0182 0.199125 0
M  V30 2617 C 238.075 -1.53339 -1.19168 0
M  V30 2618 O 237.35 -0.736124 -1.80032 0
M  V30 2619 C 237.633 -3.59331 0.235144 0
M  V30 2620 C 237.486 -4.17989 1.66149 0
M  V30 2621 C 238.805 -4.3813 -0.41595 0
M  V30 2622 H 235.924 -0.733293 0.0738311 0
M  V30 2623 H 238.566 -1.69368 0.86107 0
M  V30 2624 H 236.716 -3.87109 -0.328487 0
M  V30 2625 H 238.388 -4.0116 2.27747 0
M  V30 2626 H 236.631 -3.7377 2.20178 0
M  V30 2627 H 237.302 -5.27126 1.63837 0
M  V30 2628 H 239.778 -4.16051 0.0638529 0
M  V30 2629 H 238.654 -5.47717 -0.360115 0
M  V30 2630 H 238.915 -4.16101 -1.49373 0
M  V30 2631 N 237.974 -0.419461 -1.51915 0
M  V30 2632 C 239.199 0.154572 -2.06823 0
M  V30 2633 C 239.624 1.3722 -1.28656 0
M  V30 2634 O 238.982 1.78461 -0.319583 0
M  V30 2635 C 239.03 0.473172 -3.57482 0
M  V30 2636 O 238.134 1.56255 -3.81652 0
M  V30 2637 H 237.475 0.0096924 -0.663929 0
M  V30 2638 H 240.005 -0.595642 -1.95738 0
M  V30 2639 H 240.015 0.728825 -4.01438 0
M  V30 2640 H 238.69 -0.416873 -4.13805 0
M  V30 2641 H 237.267 1.29825 -3.49571 0
M  V30 2642 N 239.452 1.56882 -0.150215 0
M  V30 2643 C 240.402 2.13501 0.800071 0
M  V30 2644 C 241.386 1.06368 1.20726 0
M  V30 2645 O 242.578 1.32538 1.17314 0
M  V30 2646 C 239.707 2.76271 2.03787 0
M  V30 2647 C 238.793 3.90533 1.65364 0
M  V30 2648 N 239.184 4.96259 0.977794 0
M  V30 2649 C 237.482 4.013 1.94613 0
M  V30 2650 C 238.183 5.76286 0.791794 0
M  V30 2651 N 237.159 5.27163 1.32666 0
M  V30 2652 H 240.961 2.92615 0.274517 0
M  V30 2653 H 238.475 1.62319 0.0512144 0
M  V30 2654 H 240.472 3.15197 2.72867 0
M  V30 2655 H 239.132 1.98631 2.56857 0
M  V30 2656 H 240.143 5.13953 0.638193 0
M  V30 2657 H 236.82 3.3474 2.4951 0
M  V30 2658 H 238.21 6.71401 0.258894 0
M  V30 2659 N 240.93 -0.123565 1.57115 0
M  V30 2660 C 241.863 -1.18202 1.95201 0
M  V30 2661 C 242.841 -1.40349 0.821031 0
M  V30 2662 O 244.025 -1.54578 1.07879 0
M  V30 2663 C 241.152 -2.53671 2.24429 0
M  V30 2664 C 240.198 -2.4798 3.46999 0
M  V30 2665 S 241.031 -1.92389 4.99747 0
M  V30 2666 C 242.187 -3.2954 5.32123 0
M  V30 2667 H 242.42 -0.857212 2.84674 0
M  V30 2668 H 239.953 -0.33014 1.50829 0
M  V30 2669 H 241.911 -3.3162 2.41947 0
M  V30 2670 H 240.572 -2.83332 1.35579 0
M  V30 2671 H 239.765 -3.47758 3.64801 0
M  V30 2672 H 239.367 -1.7815 3.28844 0
M  V30 2673 H 241.659 -4.25736 5.27025 0
M  V30 2674 H 242.602 -3.16569 6.33395 0
M  V30 2675 H 243.01 -3.27758 4.59603 0
M  V30 2676 N 242.408 -1.52605 -0.393616 0
M  V30 2677 C 243.34 -1.73303 -1.49995 0
M  V30 2678 C 244.353 -0.613473 -1.50799 0
M  V30 2679 O 245.542 -0.889049 -1.54784 0
M  V30 2680 C 242.642 -1.77245 -2.88855 0
M  V30 2681 C 241.815 -3.06483 -3.12069 0
M  V30 2682 C 240.874 -3.02033 -4.30886 0
M  V30 2683 O 239.9 -3.75907 -4.27414 0
M  V30 2684 N 241.102 -2.20897 -5.36828 0
M  V30 2685 H 243.867 -2.68756 -1.32629 0
M  V30 2686 H 241.428 -1.51036 -0.583083 0
M  V30 2687 H 243.42 -1.7178 -3.66434 0
M  V30 2688 H 241.99 -0.891993 -2.99603 0
M  V30 2689 H 241.21 -3.25474 -2.22396 0
M  V30 2690 H 242.498 -3.91947 -3.2443 0
M  V30 2691 H 241.896 -1.60336 -5.42502 0
M  V30 2692 H 240.453 -2.21275 -6.13091 0
M  V30 2693 N 243.887 0.651787 -1.4349 0
M  V30 2694 C 244.817 1.77621 -1.51569 0
M  V30 2695 C 245.798 1.66022 -0.370253 0
M  V30 2696 O 246.983 1.85095 -0.587658 0
M  V30 2697 C 244.113 3.16056 -1.43966 0
M  V30 2698 C 243.067 3.4242 -2.56774 0
M  V30 2699 C 242.393 4.8067 -2.34223 0
M  V30 2700 C 243.693 3.37023 -3.99015 0
M  V30 2701 H 245.387 1.71117 -2.45681 0
M  V30 2702 H 242.933 0.821825 -1.18246 0
M  V30 2703 H 244.886 3.94472 -1.48221 0
M  V30 2704 H 243.61 3.23293 -0.463586 0
M  V30 2705 H 242.269 2.66375 -2.51873 0
M  V30 2706 H 241.917 4.84585 -1.34856 0
M  V30 2707 H 241.617 4.9927 -3.09844 0
M  V30 2708 H 243.141 5.61342 -2.40265 0
M  V30 2709 H 244.555 4.05374 -4.05395 0
M  V30 2710 H 242.952 3.67159 -4.74673 0
M  V30 2711 H 244.022 2.3518 -4.2405 0
M  V30 2712 N 245.365 1.30045 0.890287 0
M  V30 2713 C 246.612 1.18561 1.64163 0
M  V30 2714 C 246.94 -0.260852 1.92743 0
M  V30 2715 O 246.195 -1.20376 1.54299 0
M  V30 2716 C 246.494 1.95409 2.99249 0
M  V30 2717 C 246.16 3.45066 2.90242 0
M  V30 2718 C 244.822 3.85878 2.87492 0
M  V30 2719 C 247.174 4.4039 2.78758 0
M  V30 2720 C 244.502 5.20314 2.7109 0
M  V30 2721 C 246.854 5.74928 2.63894 0
M  V30 2722 C 245.518 6.14986 2.59516 0
M  V30 2723 H 244.788 0.433846 0.600715 0
M  V30 2724 H 247.435 1.61088 1.03552 0
M  V30 2725 H 245.74 1.45501 3.63781 0
M  V30 2726 H 247.437 1.8392 3.56334 0
M  V30 2727 H 244.027 3.12631 2.93189 0
M  V30 2728 H 248.211 4.09806 2.79952 0
M  V30 2729 H 243.467 5.50449 2.66112 0
M  V30 2730 H 247.641 6.48434 2.53981 0
M  V30 2731 H 245.268 7.19104 2.46565 0
M  V30 2732 N 246.843 -1.10192 1.12674 0
M  V30 2733 C 248.12 -1.78717 0.794965 0
M  V30 2734 C 248.5 -1.98628 -0.714853 0
M  V30 2735 O 247.848 -1.58135 -1.64941 0
M  V30 2736 C 248.058 -3.11546 1.5729 0
M  V30 2737 C 249.406 -3.86382 1.76052 0
M  V30 2738 O 250.43 -3.21274 1.53823 0
M  V30 2739 O 249.289 -5.03246 2.13087 0
M  V30 2740 H 246.383 -0.774702 0.289423 0
M  V30 2741 H 248.929 -1.16819 1.23091 0
M  V30 2742 H 247.701 -2.92489 2.59935 0
M  V30 2743 H 247.324 -3.81164 1.13137 0
M  V30 2744 N 248.321 -0.919034 -1.28029 0
M  V30 2745 C 249.231 -0.416756 -2.30869 0
M  V30 2746 C 250.247 0.498235 -1.66714 0
M  V30 2747 O 251.423 0.383144 -1.97722 0
M  V30 2748 C 248.488 0.330274 -3.45123 0
M  V30 2749 C 247.549 -0.618578 -4.2482 0
M  V30 2750 C 246.782 0.0928959 -5.33619 0
M  V30 2751 O 247.005 1.31375 -5.55065 0
M  V30 2752 O 245.939 -0.574499 -5.99152 0
M  V30 2753 H 249.765 -1.27043 -2.75851 0
M  V30 2754 H 247.35 -0.684052 -1.3282 0
M  V30 2755 H 249.232 0.751972 -4.14636 0
M  V30 2756 H 247.907 1.1597 -3.02213 0
M  V30 2757 H 246.814 -1.08978 -3.57875 0
M  V30 2758 H 248.147 -1.41497 -4.71423 0
M  V30 2759 N 249.799 1.42003 -0.683588 0
M  V30 2760 C 251.024 2.06265 -0.216647 0
M  V30 2761 C 251.449 1.51059 1.12083 0
M  V30 2762 O 250.807 0.632638 1.69904 0
M  V30 2763 C 250.855 3.60191 -0.171759 0
M  V30 2764 O 249.959 4.03396 0.857069 0
M  V30 2765 H 249.3 0.65502 -0.108834 0
M  V30 2766 H 251.83 1.81982 -0.935077 0
M  V30 2767 H 251.84 4.08 0.0014303 0
M  V30 2768 H 250.515 3.99743 -1.14796 0
M  V30 2769 H 249.092 3.67117 0.654208 0
M  V30 2770 N 251.277 0.427512 1.51691 0
M  V30 2771 C 252.207 -0.3796 2.30394 0
M  V30 2772 C 253.188 -1.02982 1.35384 0
M  V30 2773 O 254.373 -1.03534 1.643 0
M  V30 2774 C 251.503 -1.48649 3.1388 0
M  V30 2775 C 250.457 -0.960294 4.17088 0
M  V30 2776 C 249.783 -2.16219 4.89033 0
M  V30 2777 C 251.083 -0.00153679 5.223 0
M  V30 2778 H 252.777 0.277164 2.98114 0
M  V30 2779 H 250.323 0.134739 1.43368 0
M  V30 2780 H 252.276 -2.05826 3.67714 0
M  V30 2781 H 251 -2.1714 2.43962 0
M  V30 2782 H 249.659 -0.410806 3.64291 0
M  V30 2783 H 249.307 -2.83307 4.15628 0
M  V30 2784 H 249.007 -1.81654 5.58816 0
M  V30 2785 H 250.531 -2.73968 5.45687 0
M  V30 2786 H 251.945 -0.482687 5.71264 0
M  V30 2787 H 250.342 0.256199 5.99553 0
M  V30 2788 H 251.412 0.938174 4.75738 0
M  V30 2789 N 252.755 -1.56801 0.158532 0
M  V30 2790 C 254.032 -1.88131 -0.535357 0
M  V30 2791 C 254.412 -1.06638 -1.82186 0
M  V30 2792 O 253.76 -0.156533 -2.27963 0
M  V30 2793 C 253.97 -3.39949 -0.789653 0
M  V30 2794 C 255.318 -4.09416 -1.12533 0
M  V30 2795 O 256.342 -3.45194 -0.878622 0
M  V30 2796 O 255.201 -5.22855 -1.59014 0
M  V30 2797 H 252.295 -0.780143 -0.27442 0
M  V30 2798 H 254.841 -1.68564 0.19601 0
M  V30 2799 H 253.613 -3.91115 0.120353 0
M  V30 2800 H 253.236 -3.65084 -1.57479 0
M  V30 2801 N 254.233 0.115231 -1.57178 0
M  V30 2802 C 255.166 1.17166 -1.95825 0
M  V30 2803 C 256.144 1.39912 -0.828463 0
M  V30 2804 O 257.328 1.54004 -1.08697 0
M  V30 2805 C 254.455 2.52478 -2.25771 0
M  V30 2806 C 253.501 2.46136 -3.48309 0
M  V30 2807 S 254.334 1.89736 -5.0076 0
M  V30 2808 C 255.49 3.26713 -5.33863 0
M  V30 2809 H 255.723 0.842103 -2.85124 0
M  V30 2810 H 253.256 0.322136 -1.51002 0
M  V30 2811 H 255.214 3.30332 -2.43702 0
M  V30 2812 H 253.875 2.82609 -1.37079 0
M  V30 2813 H 253.068 3.45819 -3.66641 0
M  V30 2814 H 252.67 1.76404 -3.29784 0
M  V30 2815 H 254.962 4.22935 -5.29275 0
M  V30 2816 H 255.905 3.13205 -6.35065 0
M  V30 2817 H 256.313 3.25316 -4.61335 0
M  V30 2818 N 255.711 1.52812 0.385517 0
M  V30 2819 C 256.674 1.77188 1.45386 0
M  V30 2820 C 257.674 0.641953 1.4743 0
M  V30 2821 O 258.864 0.910033 1.4854 0
M  V30 2822 C 255.996 1.87582 2.8465 0
M  V30 2823 H 257.189 2.72583 1.25054 0
M  V30 2824 H 254.742 1.43586 0.617467 0
M  V30 2825 H 255.477 0.941849 3.10322 0
M  V30 2826 H 255.262 2.69748 2.84567 0
M  V30 2827 H 256.752 2.08102 3.62054 0
M  V30 2828 N 257.189 -0.644168 1.43834 0
M  V30 2829 C 258.119 -1.76814 1.52509 0
M  V30 2830 C 259.1 -1.65823 0.379052 0
M  V30 2831 O 260.285 -1.84781 0.597466 0
M  V30 2832 C 257.415 -3.15288 1.4564 0
M  V30 2833 C 256.369 -3.41053 2.58586 0
M  V30 2834 C 255.695 -4.79421 2.36769 0
M  V30 2835 C 256.995 -3.34902 4.00797 0
M  V30 2836 H 258.689 -1.69812 2.46586 0
M  V30 2837 H 256.235 -0.815542 1.1868 0
M  V30 2838 H 258.188 -3.93681 1.50311 0
M  V30 2839 H 256.912 -3.23043 0.480725 0
M  V30 2840 H 255.571 -2.65035 2.53282 0
M  V30 2841 H 255.219 -4.83863 1.37424 0
M  V30 2842 H 254.919 -4.9762 3.12487 0
M  V30 2843 H 256.443 -5.6006 2.43238 0
M  V30 2844 H 257.857 -4.03218 4.07539 0
M  V30 2845 H 256.254 -3.64637 4.76613 0
M  V30 2846 H 257.324 -2.32928 4.25291 0
M  V30 2847 N 258.668 -1.30515 -0.883378 0
M  V30 2848 C 259.945 -1.10086 -1.6168 0
M  V30 2849 C 260.325 0.349269 -2.08191 0
M  V30 2850 O 259.673 1.34105 -1.85008 0
M  V30 2851 C 259.883 -2.10315 -2.78511 0
M  V30 2852 C 261.231 -2.42119 -3.48803 0
M  V30 2853 O 262.255 -2.08638 -2.88702 0
M  V30 2854 O 261.114 -2.99396 -4.57192 0
M  V30 2855 H 258.208 -0.422907 -0.710689 0
M  V30 2856 H 260.754 -1.41947 -0.930015 0
M  V30 2857 H 259.526 -3.07917 -2.41459 0
M  V30 2858 H 259.149 -1.79282 -3.54886 0
M  V30 2859 N 260.146 1.09593 -1.13257 0
M  V30 2860 C 261.076 2.18214 -0.830946 0
M  V30 2861 C 262.057 1.68812 0.208966 0
M  V30 2862 O 263.242 1.9408 0.0682666 0
M  V30 2863 C 260.372 3.46051 -0.294296 0
M  V30 2864 C 259.326 4.08778 -1.26826 0
M  V30 2865 C 258.652 5.31419 -0.591449 0
M  V30 2866 C 259.952 4.51476 -2.62615 0
M  V30 2867 H 261.646 2.43703 -1.73923 0
M  V30 2868 H 259.192 1.17128 -0.837675 0
M  V30 2869 H 261.145 4.2134 -0.0709606 0
M  V30 2870 H 259.869 3.20079 0.649366 0
M  V30 2871 H 258.528 3.35505 -1.47756 0
M  V30 2872 H 258.176 5.01727 0.357633 0
M  V30 2873 H 257.876 5.74341 -1.24123 0
M  V30 2874 H 259.4 6.09433 -0.377355 0
M  V30 2875 H 260.814 5.17999 -2.45663 0
M  V30 2876 H 259.211 5.05277 -3.23752 0
M  V30 2877 H 260.281 3.63962 -3.20406 0
M  V30 2878 N 261.624 0.925811 1.2754 0
M  V30 2879 C 262.587 0.428129 2.25166 0
M  V30 2880 C 263.587 -0.452261 1.54309 0
M  V30 2881 O 264.777 -0.253608 1.72344 0
M  V30 2882 C 261.909 -0.384749 3.38722 0
M  V30 2883 H 263.102 1.29066 2.70706 0
M  V30 2884 H 260.655 0.706323 1.3943 0
M  V30 2885 H 261.39 -1.26618 2.98561 0
M  V30 2886 H 261.175 0.246454 3.91325 0
M  V30 2887 H 262.665 -0.723389 4.11287 0
M  V30 2888 N 263.102 -1.41638 0.69111 0
M  V30 2889 C 264.35 -2.00902 0.219758 0
M  V30 2890 C 264.671 -1.54994 -1.18329 0
M  V30 2891 O 263.941 -0.778628 -1.79762 0
M  V30 2892 H 262.521 -0.74289 0.0782558 0
M  V30 2893 H 265.183 -1.73327 0.891271 0
M  V30 2894 H 264.279 -3.11224 0.233708 0
M  V30 2895 N 264.58 -0.43555 -1.51462 0
M  V30 2896 C 265.996 -0.0877501 -1.59359 0
M  V30 2897 C 266.196 1.4027 -1.4466 0
M  V30 2898 O 265.252 2.17243 -1.28693 0
M  V30 2899 C 266.565 -0.606264 -2.94525 0
M  V30 2900 C 268.113 -0.566548 -3.0783 0
M  V30 2901 C 268.588 -1.06201 -4.45517 0
M  V30 2902 N 270.079 -1.01992 -4.51832 0
M  V30 2903 C 270.814 -1.37417 -5.5669 0
M  V30 2904 N 270.31 -1.80119 -6.68976 0
M  V30 2905 N 272.103 -1.29245 -5.47039 0
M  V30 2906 H 264.254 -1.40533 -1.59261 0
M  V30 2907 H 266.517 -0.578992 -0.750648 0
M  V30 2908 H 266.223 -1.64901 -3.10645 0
M  V30 2909 H 266.097 -0.0302097 -3.77188 0
M  V30 2910 H 268.484 0.467208 -2.91378 0
M  V30 2911 H 268.565 -1.17898 -2.2701 0
M  V30 2912 H 268.209 -2.09422 -4.62715 0
M  V30 2913 H 268.139 -0.426127 -5.24873 0
M  V30 2914 H 270.63 -0.706308 -3.71241 0
M  V30 2915 H 270.943 -2.05392 -7.45006 0
M  V30 2916 H 269.288 -1.84044 -6.70189 0
M  V30 2917 H 272.479 -0.957522 -4.58202 0
M  V30 2918 H 272.652 -1.57182 -6.28648 0
M  V30 2919 N 266.058 1.56714 -0.166846 0
M  V30 2920 C 267.307 1.95922 0.479318 0
M  V30 2921 C 267.62 1.05529 1.6469 0
M  V30 2922 O 268.826 1.34399 2.35901 0
M  V30 2923 C 267.282 3.48359 0.90412 0
M  V30 2924 C 266.89 4.47369 -0.237621 0
M  V30 2925 C 268.634 3.96394 1.51896 0
M  V30 2926 C 266.541 5.91039 0.206561 0
M  V30 2927 H 265.471 0.731495 0.18284 0
M  V30 2928 H 268.122 1.81728 -0.254363 0
M  V30 2929 H 266.504 3.57955 1.69365 0
M  V30 2930 H 267.678 4.49485 -1.01489 0
M  V30 2931 H 265.993 4.09366 -0.762128 0
M  V30 2932 H 268.59 5.01186 1.86325 0
M  V30 2933 H 268.933 3.39075 2.41524 0
M  V30 2934 H 269.466 3.89796 0.79395 0
M  V30 2935 H 266.205 6.52221 -0.654834 0
M  V30 2936 H 265.725 5.9224 0.949282 0
M  V30 2937 H 267.404 6.43707 0.651939 0
M  V30 2938 N 267.536 -0.106894 1.57237 0
M  V30 2939 C 268.813 -0.843526 1.76477 0
M  V30 2940 C 269.193 -1.97499 0.745464 0
M  V30 2941 O 268.541 -2.27357 -0.228306 0
M  V30 2942 C 268.751 -1.34903 3.21873 0
M  V30 2943 C 270.099 -1.79654 3.8472 0
M  V30 2944 O 271.123 -1.44554 3.2555 0
M  V30 2945 O 269.982 -2.44515 4.88748 0
M  V30 2946 H 267.076 -0.401468 0.723016 0
M  V30 2947 H 269.622 -0.0896927 1.69463 0
M  V30 2948 H 268.394 -0.53781 3.87586 0
M  V30 2949 H 268.017 -2.16522 3.33473 0
M  V30 2950 N 269.014 -1.53014 -0.377408 0
M  V30 2951 C 270.26 -1.68872 -1.12294 0
M  V30 2952 C 270.593 -0.433224 -1.89306 0
M  V30 2953 O 269.868 0.569258 -1.85983 0
M  V30 2954 C 270.151 -2.93115 -2.09179 0
M  V30 2955 C 270.004 -4.28794 -1.35853 0
M  V30 2956 C 271.323 -3.12928 -3.09458 0
M  V30 2957 H 268.442 -0.614518 -0.406862 0
M  V30 2958 H 271.084 -1.85633 -0.40503 0
M  V30 2959 H 269.234 -2.78956 -2.70399 0
M  V30 2960 H 270.906 -4.54742 -0.775082 0
M  V30 2961 H 269.149 -4.28744 -0.660364 0
M  V30 2962 H 269.82 -5.11837 -2.06706 0
M  V30 2963 H 272.296 -3.26194 -2.58334 0
M  V30 2964 H 271.172 -4.01316 -3.74482 0
M  V30 2965 H 271.433 -2.27669 -3.78971 0
M  V30 2966 N 270.492 0.636531 -1.44174 0
M  V30 2967 C 271.741 1.39213 -1.45954 0
M  V30 2968 C 272.054 1.95374 -0.0939119 0
M  V30 2969 O 273.26 2.71498 0.0107767 0
M  V30 2970 C 271.716 2.52025 -2.56927 0
M  V30 2971 C 271.324 2.024 -3.99673 0
M  V30 2972 C 273.068 3.29269 -2.67922 0
M  V30 2973 C 270.975 3.12521 -5.0208 0
M  V30 2974 H 269.905 0.523132 -0.542999 0
M  V30 2975 H 272.556 0.685349 -1.70221 0
M  V30 2976 H 270.938 3.25253 -2.25891 0
M  V30 2977 H 272.112 1.36073 -4.40251 0
M  V30 2978 H 270.427 1.37987 -3.92872 0
M  V30 2979 H 273.024 4.11352 -3.41605 0
M  V30 2980 H 273.367 3.78397 -1.73555 0
M  V30 2981 H 273.9 2.63129 -2.98342 0
M  V30 2982 H 270.639 2.68343 -5.98057 0
M  V30 2983 H 270.159 3.77507 -4.66099 0
M  V30 2984 H 271.838 3.77385 -5.25538 0
M  V30 2985 N 271.97 1.30982 0.876444 0
M  V30 2986 C 272.9 1.20668 1.99903 0
M  V30 2987 C 273.881 0.095354 1.69833 0
M  V30 2988 O 275.066 0.27885 1.92188 0
M  V30 2989 C 272.196 0.90655 3.3526 0
M  V30 2990 C 271.15 1.97675 3.79617 0
M  V30 2991 C 270.476 1.52943 5.1236 0
M  V30 2992 C 271.776 3.389 3.97422 0
M  V30 2993 H 273.47 2.14586 2.0879 0
M  V30 2994 H 271.016 1.03308 1.00317 0
M  V30 2995 H 272.969 0.821025 4.13324 0
M  V30 2996 H 271.693 -0.0682969 3.26529 0
M  V30 2997 H 270.352 2.05205 3.03787 0
M  V30 2998 H 270 0.54262 5.00065 0
M  V30 2999 H 269.7 2.24532 5.43009 0
M  V30 3000 H 271.224 1.45786 5.92941 0
M  V30 3001 H 272.638 3.34081 4.659 0
M  V30 3002 H 271.035 4.0865 4.3946 0
M  V30 3003 H 272.105 3.80163 3.01006 0
M  V30 3004 N 273.449 -1.08991 1.13837 0
M  V30 3005 C 274.677 -1.85011 0.926202 0
M  V30 3006 C 275.092 -1.8135 -0.525127 0
M  V30 3007 O 274.449 -1.21287 -1.36366 0
M  V30 3008 C 274.5 -3.32802 1.41155 0
M  V30 3009 O 274.221 -3.36444 2.80601 0
M  V30 3010 C 275.722 -4.25649 1.23847 0
M  V30 3011 H 272.942 -0.584249 0.32999 0
M  V30 3012 H 275.486 -1.37688 1.51202 0
M  V30 3013 H 273.641 -3.77536 0.868631 0
M  V30 3014 H 274.055 -4.28657 3.02248 0
M  V30 3015 H 275.529 -5.27485 1.62675 0
M  V30 3016 H 276.006 -4.38828 0.18065 0
M  V30 3017 H 276.612 -3.86735 1.76964 0
M  V30 3018 N 274.927 -0.932562 -1.27047 0
M  V30 3019 C 276.176 -0.571351 -1.93439 0
M  V30 3020 C 276.489 0.892467 -1.74053 0
M  V30 3021 O 277.695 1.36267 -2.34826 0
M  V30 3022 C 276.151 -0.97106 -3.46552 0
M  V30 3023 C 275.759 -2.4559 -3.74686 0
M  V30 3024 C 277.503 -0.681333 -4.18997 0
M  V30 3025 C 275.41 -2.79475 -5.21198 0
M  V30 3026 H 274.34 -0.209966 -0.724176 0
M  V30 3027 H 276.991 -1.13403 -1.44263 0
M  V30 3028 H 275.373 -0.336983 -3.94564 0
M  V30 3029 H 276.547 -3.13829 -3.37414 0
M  V30 3030 H 274.862 -2.71802 -3.15456 0
M  V30 3031 H 277.459 -0.910939 -5.26883 0
M  V30 3032 H 277.802 0.381628 -4.14547 0
M  V30 3033 H 278.335 -1.27473 -3.76823 0
M  V30 3034 H 275.074 -3.847 -5.30741 0
M  V30 3035 H 274.594 -2.1589 -5.596 0
M  V30 3036 H 276.273 -2.67478 -5.89122 0
M  V30 3037 N 276.405 1.4127 -0.698611 0
M  V30 3038 C 277.682 1.94955 -0.158762 0
M  V30 3039 C 278.062 1.63781 1.33188 0
M  V30 3040 O 277.41 0.946423 2.07979 0
M  V30 3041 C 277.62 3.46044 -0.453309 0
M  V30 3042 C 278.968 4.22872 -0.382707 0
M  V30 3043 O 279.992 3.54076 -0.388396 0
M  V30 3044 O 278.851 5.45407 -0.345463 0
M  V30 3045 H 275.945 0.82683 -0.0167505 0
M  V30 3046 H 278.491 1.50971 -0.77498 0
M  V30 3047 H 277.263 3.62028 -1.48498 0
M  V30 3048 H 276.886 3.97128 0.19373 0
M  V30 3049 N 277.883 0.443576 1.51229 0
M  V30 3050 C 278.793 -0.370721 2.31652 0
M  V30 3051 C 279.809 -1.02186 1.40833 0
M  V30 3052 O 280.985 -1.01586 1.73903 0
M  V30 3053 C 278.05 -1.45376 3.14749 0
M  V30 3054 C 277.111 -0.822099 4.21355 0
M  V30 3055 C 276.344 -1.85353 5.0048 0
M  V30 3056 O 276.567 -3.07656 4.80316 0
M  V30 3057 O 275.501 -1.4406 5.84406 0
M  V30 3058 H 279.327 0.286002 3.0235 0
M  V30 3059 H 276.912 0.20598 1.47973 0
M  V30 3060 H 278.794 -2.08173 3.66391 0
M  V30 3061 H 277.469 -2.09445 2.46809 0
M  V30 3062 H 276.376 -0.155909 3.73775 0
M  V30 3063 H 277.709 -0.224797 4.91686 0
M  V30 3064 N 279.361 -1.56624 0.175154 0
M  V30 3065 C 280.61 -1.96173 -0.468921 0
M  V30 3066 C 280.923 -1.06401 -1.64128 0
M  V30 3067 O 282.129 -1.35648 -2.35185 0
M  V30 3068 C 280.585 -3.48833 -0.885633 0
M  V30 3069 C 280.193 -4.47237 0.261343 0
M  V30 3070 C 281.937 -3.97194 -1.49791 0
M  V30 3071 C 279.844 -5.9114 -0.175214 0
M  V30 3072 H 278.774 -0.732455 -0.178958 0
M  V30 3073 H 281.425 -1.81591 0.263997 0
M  V30 3074 H 279.807 -3.58848 -1.67464 0
M  V30 3075 H 280.981 -4.4894 1.03871 0
M  V30 3076 H 279.296 -4.08956 0.783827 0
M  V30 3077 H 281.893 -5.02167 -1.83665 0
M  V30 3078 H 282.236 -3.40351 -2.39722 0
M  V30 3079 H 282.769 -3.90212 -0.773267 0
M  V30 3080 H 279.508 -6.51865 0.689414 0
M  V30 3081 H 279.028 -5.92735 -0.91786 0
M  V30 3082 H 280.707 -6.44044 -0.617792 0
M  V30 3083 N 280.839 0.0985539 -1.57292 0
M  V30 3084 C 281.787 1.1387 -2.02821 0
M  V30 3085 C 282.781 1.41676 -0.928666 0
M  V30 3086 O 283.987 1.41398 -1.11385 0
M  V30 3087 H 280.362 0.384419 -0.646317 0
M  V30 3088 H 282.333 0.728347 -2.89375 0
M  V30 3089 C 281.082 2.45166 -2.46554 0
M  V30 3090 H 280.405 2.24613 -3.3074 0
M  V30 3091 H 281.845 3.16456 -2.8219 0
M  V30 3092 C 280.304 3.09216 -1.33742 0
M  V30 3093 O 280.834 3.96163 -0.66464 0
M  V30 3094 N 279.04 2.69413 -1.08928 0
M  V30 3095 H 278.587 1.98801 -1.63817 0
M  V30 3096 H 278.545 3.12594 -0.336458 0
M  V30 3097 N 282.317 1.53212 0.369288 0
M  V30 3098 C 283.264 1.79388 1.45219 0
M  V30 3099 C 284.234 0.638059 1.53356 0
M  V30 3100 O 285.419 0.879852 1.69302 0
M  V30 3101 C 282.559 1.98623 2.82211 0
M  V30 3102 C 281.672 3.26337 2.8307 0
M  V30 3103 C 280.807 3.35779 4.11614 0
M  V30 3104 C 279.846 4.5754 4.06601 0
M  V30 3105 N 278.983 4.64155 5.26787 0
M  V30 3106 H 283.823 2.71794 1.22198 0
M  V30 3107 H 281.36 1.34642 0.592444 0
M  V30 3108 H 283.318 2.07761 3.61789 0
M  V30 3109 H 281.948 1.09558 3.03639 0
M  V30 3110 H 281 3.26171 1.95747 0
M  V30 3111 H 282.312 4.15988 2.75237 0
M  V30 3112 H 281.466 3.44208 4.99606 0
M  V30 3113 H 280.205 2.44137 4.22195 0
M  V30 3114 H 279.21 4.49215 3.16996 0
M  V30 3115 H 280.435 5.50519 3.97625 0
M  V30 3116 H 278.381 3.75413 5.3796 0
M  V30 3117 H 278.298 5.47706 5.21109 0
M  V30 3118 H 279.566 4.76863 6.16621 0
M  V30 3119 N 283.795 -0.628877 1.44509 0
M  V30 3120 C 284.758 -1.72263 1.51188 0
M  V30 3121 C 285.758 -1.55907 0.39367 0
M  V30 3122 O 286.948 -1.61361 0.656377 0
M  V30 3123 C 284.08 -3.11365 1.38798 0
M  V30 3124 H 285.273 -1.67714 2.4862 0
M  V30 3125 H 282.826 -0.842737 1.31634 0
M  V30 3126 H 283.561 -3.21507 0.424693 0
M  V30 3127 H 283.346 -3.24644 2.19884 0
M  V30 3128 H 284.836 -3.91075 1.46458 0
M  V30 3129 N 285.273 -1.31445 -0.869486 0
M  V30 3130 C 286.522 -1.20517 -1.61736 0
M  V30 3131 C 286.835 0.235341 -1.94179 0
M  V30 3132 O 288.041 0.466312 -2.67465 0
M  V30 3133 C 286.497 -2.10982 -2.91573 0
M  V30 3134 C 286.105 -3.60032 -2.66611 0
M  V30 3135 C 287.849 -2.08856 -3.69567 0
M  V30 3136 C 285.756 -4.42503 -3.92358 0
M  V30 3137 H 284.686 -0.447493 -0.606849 0
M  V30 3138 H 287.337 -1.56303 -0.96133 0
M  V30 3139 H 285.719 -1.68095 -3.58553 0
M  V30 3140 H 286.893 -4.11167 -2.08035 0
M  V30 3141 H 285.208 -3.64139 -2.0197 0
M  V30 3142 H 287.805 -2.67716 -4.62852 0
M  V30 3143 H 288.148 -1.07582 -4.02159 0
M  V30 3144 H 288.681 -2.49945 -3.09471 0
M  V30 3145 H 285.42 -5.44533 -3.64916 0
M  V30 3146 H 284.94 -3.96125 -4.50383 0
M  V30 3147 H 286.619 -4.54741 -4.60238 0
M  V30 3148 N 286.751 1.08385 -1.14413 0
M  V30 3149 C 287.976 1.85057 -0.936413 0
M  V30 3150 C 288.401 1.81055 0.509971 0
M  V30 3151 O 287.759 1.1958 1.36273 0
M  V30 3152 C 287.807 3.30505 -1.44217 0
M  V30 3153 O 286.911 4.07491 -0.634409 0
M  V30 3154 H 286.252 0.573425 -0.334784 0
M  V30 3155 H 288.782 1.36799 -1.52142 0
M  V30 3156 H 288.792 3.81348 -1.45043 0
M  V30 3157 H 287.467 3.32734 -2.49522 0
M  V30 3158 H 286.044 3.66368 -0.694902 0
M  V30 3159 N 288.23 0.939286 1.26551 0
M  V30 3160 C 289.455 0.602008 1.98471 0
M  V30 3161 C 289.88 -0.815624 1.69497 0
M  V30 3162 O 289.238 -1.54912 0.941905 0
M  V30 3163 C 289.286 0.848407 3.50477 0
M  V30 3164 O 288.39 -0.0804009 4.12322 0
M  V30 3165 H 287.731 0.23049 0.622712 0
M  V30 3166 H 290.261 1.2617 1.61066 0
M  V30 3167 H 290.271 0.768553 4.00696 0
M  V30 3168 H 288.946 1.88171 3.70897 0
M  V30 3169 H 287.523 0.0503508 3.72866 0
M  V30 3170 N 289.708 -1.40897 0.706093 0
M  V30 3171 C 290.933 -2.05895 0.249435 0
M  V30 3172 C 291.358 -1.52823 -1.09666 0
M  V30 3173 O 290.716 -0.659589 -1.68876 0
M  V30 3174 C 290.764 -3.59872 0.22904 0
M  V30 3175 O 289.868 -4.04708 -0.792784 0
M  V30 3176 H 289.209 -0.653206 0.119241 0
M  V30 3177 H 291.739 -1.80471 0.96391 0
M  V30 3178 H 291.749 -4.07951 0.0634791 0
M  V30 3179 H 290.424 -3.97866 1.21141 0
M  V30 3180 H 289.001 -3.68111 -0.59572 0
M  V30 3181 N 291.186 -0.45159 -1.50991 0
M  V30 3182 C 292.116 0.342898 -2.30969 0
M  V30 3183 C 293.097 1.00815 -1.37005 0
M  V30 3184 O 294.282 1.00907 -1.65926 0
M  V30 3185 C 291.412 1.43637 -3.16205 0
M  V30 3186 C 290.366 0.893818 -4.18563 0
M  V30 3187 C 289.692 2.08411 -4.92411 0
M  V30 3188 C 290.992 -0.0815568 -5.22236 0
M  V30 3189 H 292.686 -0.324556 -2.97636 0
M  V30 3190 H 290.232 -0.157531 -1.43136 0
M  V30 3191 H 292.185 1.9995 -3.70942 0
M  V30 3192 H 290.909 2.13232 -2.47386 0
M  V30 3193 H 289.568 0.352798 -3.64898 0
M  V30 3194 H 289.216 2.76658 -4.20082 0
M  V30 3195 H 288.916 1.72741 -5.61636 0
M  V30 3196 H 290.44 2.65251 -5.49976 0
M  V30 3197 H 291.854 0.391742 -5.7196 0
M  V30 3198 H 290.251 -0.351551 -5.99069 0
M  V30 3199 H 291.321 -1.01374 -4.74185 0
M  V30 3200 N 292.664 1.56529 -0.183458 0
M  V30 3201 C 293.889 2.02064 0.467428 0
M  V30 3202 C 294.314 1.06282 1.55196 0
M  V30 3203 O 293.672 0.0443565 1.81246 0
M  V30 3204 C 293.72 3.46122 1.01153 0
M  V30 3205 O 292.824 3.53437 2.12499 0
M  V30 3206 H 292.165 0.654726 0.110588 0
M  V30 3207 H 294.695 2.02521 -0.290917 0
M  V30 3208 H 294.705 3.85676 1.33108 0
M  V30 3209 H 293.38 4.15331 0.217533 0
M  V30 3210 H 291.957 3.2575 1.81497 0
M  V30 3211 N 294.142 -0.090211 1.57342 0
M  V30 3212 C 295.558 -0.444547 1.53284 0
M  V30 3213 C 295.758 -1.80238 0.900914 0
M  V30 3214 O 294.814 -2.4759 0.495513 0
M  V30 3215 C 296.127 -0.402543 2.97993 0
M  V30 3216 C 297.675 -0.48405 3.09234 0
M  V30 3217 C 298.15 -0.472144 4.5556 0
M  V30 3218 N 299.641 -0.532757 4.60126 0
M  V30 3219 C 300.376 -0.545462 5.708 0
M  V30 3220 N 299.872 -0.514082 6.9089 0
M  V30 3221 N 301.665 -0.59064 5.58988 0
M  V30 3222 H 293.816 0.799121 1.96794 0
M  V30 3223 H 296.079 0.297965 0.899956 0
M  V30 3224 H 295.785 0.528106 3.47712 0
M  V30 3225 H 295.659 -1.21969 3.56936 0
M  V30 3226 H 298.046 -1.40512 2.595 0
M  V30 3227 H 298.127 0.361328 2.53235 0
M  V30 3228 H 297.771 0.445 5.05947 0
M  V30 3229 H 297.701 -1.3348 5.09402 0
M  V30 3230 H 300.192 -0.562006 3.73698 0
M  V30 3231 H 300.505 -0.527195 7.71 0
M  V30 3232 H 298.85 -0.481054 6.93333 0
M  V30 3233 H 302.041 -0.61272 4.64073 0
M  V30 3234 H 302.214 -0.597073 6.45243 0
M  V30 3235 N 295.62 -1.53406 -0.361157 0
M  V30 3236 C 296.53 -1.83122 -1.4664 0
M  V30 3237 C 297.546 -0.719943 -1.58407 0
M  V30 3238 O 298.722 -1.01046 -1.74218 0
M  V30 3239 C 295.787 -2.01891 -2.81853 0
M  V30 3240 C 294.848 -3.25784 -2.79577 0
M  V30 3241 C 294.081 -3.43648 -4.0834 0
M  V30 3242 O 294.304 -2.65714 -5.0473 0
M  V30 3243 O 293.238 -4.37018 -4.13883 0
M  V30 3244 H 297.064 -2.7703 -1.24451 0
M  V30 3245 H 294.649 -1.38841 -0.551678 0
M  V30 3246 H 296.531 -2.15782 -3.61962 0
M  V30 3247 H 295.206 -1.11173 -3.0401 0
M  V30 3248 H 294.113 -3.17312 -1.98151 0
M  V30 3249 H 295.446 -4.16439 -2.62373 0
M  V30 3250 N 297.098 0.621204 -1.44841 0
M  V30 3251 C 298.514 0.94048 -1.28946 0
M  V30 3252 C 298.714 2.00154 -0.23249 0
M  V30 3253 O 297.77 2.49651 0.378237 0
M  V30 3254 C 299.083 1.39433 -2.66419 0
M  V30 3255 C 300.631 1.50927 -2.74208 0
M  V30 3256 C 301.106 1.99692 -4.12174 0
M  V30 3257 N 302.597 2.06947 -4.144 0
M  V30 3258 C 303.332 2.45871 -5.1801 0
M  V30 3259 N 302.828 2.83862 -6.31977 0
M  V30 3260 N 304.621 2.46092 -5.05366 0
M  V30 3261 H 296.772 -0.0803548 -2.12248 0
M  V30 3262 H 299.035 0.0266913 -0.947624 0
M  V30 3263 H 298.741 0.688925 -3.44887 0
M  V30 3264 H 298.615 2.36347 -2.93973 0
M  V30 3265 H 301.002 2.20561 -1.96053 0
M  V30 3266 H 301.083 0.523627 -2.50383 0
M  V30 3267 H 300.727 1.30649 -4.90809 0
M  V30 3268 H 300.657 2.99146 -4.33381 0
M  V30 3269 H 303.148 1.80232 -3.32152 0
M  V30 3270 H 303.461 3.12405 -7.0684 0
M  V30 3271 H 301.806 2.8159 -6.35399 0
M  V30 3272 H 304.997 2.1581 -4.15384 0
M  V30 3273 H 305.17 2.76102 -5.86235 0
M  V30 3274 N 298.576 1.31904 0.862503 0
M  V30 3275 C 299.825 1.21373 1.61094 0
M  V30 3276 C 300.138 -0.22504 1.94301 0
M  V30 3277 O 301.344 -0.452121 2.67709 0
M  V30 3278 C 299.8 2.12525 2.9045 0
M  V30 3279 C 299.408 3.61441 2.64697 0
M  V30 3280 C 301.152 2.10813 3.68454 0
M  V30 3281 C 299.059 4.44578 3.90006 0
M  V30 3282 H 297.989 0.450705 0.604468 0
M  V30 3283 H 300.64 1.56811 0.953027 0
M  V30 3284 H 299.022 1.69994 3.57656 0
M  V30 3285 H 300.196 4.12264 2.05851 0
M  V30 3286 H 298.511 3.65205 2.00036 0
M  V30 3287 H 301.108 2.70167 4.61426 0
M  V30 3288 H 301.451 1.09713 4.01583 0
M  V30 3289 H 301.984 2.51583 3.08141 0
M  V30 3290 H 298.723 5.46461 3.62023 0
M  V30 3291 H 298.243 3.98508 4.48276 0
M  V30 3292 H 299.922 4.57176 4.5782 0
M  V30 3293 N 300.054 -1.07777 1.14986 0
M  V30 3294 C 300.987 -2.14228 0.786243 0
M  V30 3295 C 301.965 -1.60888 -0.235347 0
M  V30 3296 O 303.149 -1.88099 -0.122909 0
M  V30 3297 C 300.276 -3.38281 0.168433 0
M  V30 3298 C 299.322 -4.10387 1.16123 0
M  V30 3299 S 300.155 -4.62371 2.70135 0
M  V30 3300 C 301.311 -5.89704 2.09762 0
M  V30 3301 H 301.544 -2.44741 1.68787 0
M  V30 3302 H 299.077 -1.19984 0.971756 0
M  V30 3303 H 301.035 -4.10098 -0.181588 0
M  V30 3304 H 299.696 -3.05953 -0.710725 0
M  V30 3305 H 298.889 -4.99431 0.677086 0
M  V30 3306 H 298.491 -3.44513 1.45556 0
M  V30 3307 H 300.783 -6.61648 1.45701 0
M  V30 3308 H 301.726 -6.42824 2.96955 0
M  V30 3309 H 302.134 -5.4302 1.54239 0
M  V30 3310 N 301.532 -0.945985 -1.26051 0
M  V30 3311 C 302.442 -0.465633 -2.29933 0
M  V30 3312 C 303.458 0.462761 -1.67733 0
M  V30 3313 O 304.634 0.341118 -1.9849 0
M  V30 3314 C 301.699 0.256994 -3.45746 0
M  V30 3315 C 300.76 -0.708549 -4.23412 0
M  V30 3316 C 299.993 -0.0203135 -5.33696 0
M  V30 3317 O 300.216 1.19571 -5.57726 0
M  V30 3318 O 299.15 -0.701459 -5.97799 0
M  V30 3319 H 302.976 -1.32866 -2.73094 0
M  V30 3320 H 300.561 -0.712071 -1.31339 0
M  V30 3321 H 302.443 0.663852 -4.16138 0
M  V30 3322 H 301.118 1.09533 -3.04605 0
M  V30 3323 H 300.025 -1.16545 -3.55483 0
M  V30 3324 H 301.358 -1.51465 -4.68315 0
M  V30 3325 N 303.011 1.40521 -0.713556 0
M  V30 3326 C 304.239 2.05237 -0.261775 0
M  V30 3327 C 304.654 1.53755 1.09567 0
M  V30 3328 O 304.011 0.693268 1.6882 0
M  V30 3329 C 304.062 3.60763 -0.230706 0
M  V30 3330 O 303.783 4.10345 -1.53455 0
M  V30 3331 C 305.284 4.42651 0.239874 0
M  V30 3332 H 302.504 0.660533 -0.118057 0
M  V30 3333 H 305.048 1.79967 -0.971192 0
M  V30 3334 H 303.203 3.8501 0.429661 0
M  V30 3335 H 303.617 5.04526 -1.43366 0
M  V30 3336 H 305.091 5.51599 0.210468 0
M  V30 3337 H 305.568 4.20082 1.28171 0
M  V30 3338 H 306.174 4.23507 -0.390142 0
M  V30 3339 N 304.489 0.459591 1.5075 0
M  V30 3340 C 305.452 -0.329093 2.26825 0
M  V30 3341 C 306.452 -0.930481 1.31144 0
M  V30 3342 O 307.642 -0.801453 1.54669 0
M  V30 3343 C 304.774 -1.46768 3.07688 0
M  V30 3344 H 305.967 0.337924 2.9799 0
M  V30 3345 H 303.52 0.213336 1.54837 0
M  V30 3346 H 304.255 -2.17009 2.40993 0
M  V30 3347 H 304.04 -1.04238 3.77991 0
M  V30 3348 H 305.53 -2.02433 3.65254 0
M  V30 3349 N 305.967 -1.56429 0.191757 0
M  V30 3350 C 306.9 -2.14829 -0.76967 0
M  V30 3351 C 307.878 -1.08405 -1.2119 0
M  V30 3352 O 309.062 -1.36498 -1.30002 0
M  V30 3353 C 306.189 -2.70446 -2.03903 0
M  V30 3354 C 305.235 -3.89428 -1.7392 0
M  V30 3355 S 306.068 -5.28048 -0.890265 0
M  V30 3356 C 307.224 -5.87085 -2.16984 0
M  V30 3357 H 307.457 -2.96042 -0.273204 0
M  V30 3358 H 304.99 -1.54383 -0.0231975 0
M  V30 3359 H 306.948 -3.03134 -2.76803 0
M  V30 3360 H 305.609 -1.89281 -2.50662 0
M  V30 3361 H 304.802 -4.26742 -2.68155 0
M  V30 3362 H 304.404 -3.57732 -1.09103 0
M  V30 3363 H 306.696 -6.01244 -3.12269 0
M  V30 3364 H 307.639 -6.83747 -1.84108 0
M  V30 3365 H 308.047 -5.15663 -2.29678 0
M  V30 3366 N 307.445 0.0818655 -1.57387 0
M  V30 3367 C 308.408 1.08265 -2.02018 0
M  V30 3368 C 309.408 1.32183 -0.915664 0
M  V30 3369 O 310.598 1.28073 -1.18081 0
M  V30 3370 C 307.73 2.42871 -2.39221 0
M  V30 3371 H 308.923 0.698204 -2.91659 0
M  V30 3372 H 306.476 0.327303 -1.52835 0
M  V30 3373 H 307.211 2.86167 -1.52575 0
M  V30 3374 H 306.996 2.26855 -3.19811 0
M  V30 3375 H 308.486 3.14826 -2.74362 0
M  V30 3376 N 308.923 1.53595 0.353017 0
M  V30 3377 C 309.855 1.77219 1.45348 0
M  V30 3378 C 310.868 0.65324 1.49119 0
M  V30 3379 O 312.057 0.929775 1.52373 0
M  V30 3380 C 309.157 1.84841 2.84055 0
M  V30 3381 C 308.33 3.14649 3.03833 0
M  V30 3382 C 307.389 3.13351 4.22727 0
M  V30 3383 O 306.415 3.87107 4.17297 0
M  V30 3384 N 307.617 2.35052 5.30783 0
M  V30 3385 H 310.382 2.72178 1.25457 0
M  V30 3386 H 307.943 1.52528 0.542833 0
M  V30 3387 H 309.935 1.81435 3.61751 0
M  V30 3388 H 308.505 0.971114 2.97133 0
M  V30 3389 H 307.725 3.31256 2.13689 0
M  V30 3390 H 309.013 4.00411 3.13925 0
M  V30 3391 H 308.411 1.74663 5.38061 0
M  V30 3392 H 306.968 2.37453 6.07009 0
M  V30 3393 N 310.401 -0.613514 1.45168 0
M  V30 3394 C 311.647 -1.37471 1.49096 0
M  V30 3395 C 311.98 -1.93765 0.129901 0
M  V30 3396 O 311.255 -1.74707 -0.854858 0
M  V30 3397 C 311.538 -2.52701 2.56542 0
M  V30 3398 C 311.391 -2.01643 4.0207 0
M  V30 3399 C 312.71 -3.54849 2.60327 0
M  V30 3400 H 309.829 -0.498502 0.54283 0
M  V30 3401 H 312.471 -0.692125 1.76945 0
M  V30 3402 H 310.621 -3.10931 2.32926 0
M  V30 3403 H 312.293 -1.48108 4.36877 0
M  V30 3404 H 310.536 -1.32688 4.13009 0
M  V30 3405 H 311.207 -2.84681 4.72928 0
M  V30 3406 H 313.683 -3.0645 2.81474 0
M  V30 3407 H 312.559 -4.32973 3.37381 0
M  V30 3408 H 312.82 -4.10079 1.6519 0
M  V30 3409 N 311.879 -1.3236 -0.855495 0
M  V30 3410 C 312.789 -1.23221 -1.99634 0
M  V30 3411 C 313.805 -0.145983 -1.73387 0
M  V30 3412 O 314.981 -0.366502 -1.98037 0
M  V30 3413 C 312.046 -0.954782 -3.33294 0
M  V30 3414 C 311.107 -2.12937 -3.72769 0
M  V30 3415 C 310.34 -1.86508 -5.00051 0
M  V30 3416 O 310.563 -0.807231 -5.64659 0
M  V30 3417 O 309.497 -2.72591 -5.36636 0
M  V30 3418 H 313.323 -2.19126 -2.1028 0
M  V30 3419 H 310.908 -1.12241 -0.986018 0
M  V30 3420 H 312.79 -0.816519 -4.13414 0
M  V30 3421 H 311.465 -0.0258854 -3.2369 0
M  V30 3422 H 310.372 -2.3231 -2.93228 0
M  V30 3423 H 311.705 -3.04102 -3.87018 0
M  V30 3424 N 313.357 1.07166 -1.15556 0
M  V30 3425 C 314.773 1.31899 -0.898603 0
M  V30 3426 C 314.973 1.96333 0.453383 0
M  V30 3427 O 314.029 2.22438 1.19489 0
M  V30 3428 C 315.342 2.20826 -2.04099 0
M  V30 3429 C 316.89 2.34269 -2.07574 0
M  V30 3430 C 317.365 3.26546 -3.21141 0
M  V30 3431 N 318.856 3.34127 -3.20801 0
M  V30 3432 C 319.591 4.05595 -4.05315 0
M  V30 3433 N 319.087 4.79661 -4.99897 0
M  V30 3434 N 320.88 4.01555 -3.93332 0
M  V30 3435 H 313.031 0.637302 -2.02613 0
M  V30 3436 H 315.294 0.343468 -0.883591 0
M  V30 3437 H 315 1.80744 -3.01703 0
M  V30 3438 H 314.874 3.21364 -1.97496 0
M  V30 3439 H 317.261 2.73603 -1.10568 0
M  V30 3440 H 317.342 1.33429 -2.18244 0
M  V30 3441 H 316.986 2.87931 -4.184 0
M  V30 3442 H 316.916 4.27345 -3.07708 0
M  V30 3443 H 319.407 2.81336 -2.52306 0
M  V30 3444 H 319.72 5.31694 -5.60822 0
M  V30 3445 H 318.065 4.78671 -5.03884 0
M  V30 3446 H 321.256 3.42806 -3.18751 0
M  V30 3447 H 321.429 4.56987 -4.5942 0
M  V30 3448 N 314.835 0.952656 1.25548 0
M  V30 3449 C 316.084 0.602053 1.92505 0
M  V30 3450 C 316.397 -0.864663 1.75451 0
M  V30 3451 O 317.603 -1.32514 2.36965 0
M  V30 3452 C 316.059 1.02607 3.44963 0
M  V30 3453 C 315.667 2.51519 3.70732 0
M  V30 3454 C 317.411 0.747905 4.1786 0
M  V30 3455 C 315.318 2.87732 5.16686 0
M  V30 3456 H 314.248 0.22146 0.720744 0
M  V30 3457 H 316.899 1.15684 1.42441 0
M  V30 3458 H 315.281 0.399712 3.93978 0
M  V30 3459 H 316.455 3.19157 3.32378 0
M  V30 3460 H 314.77 2.76786 3.11092 0
M  V30 3461 H 317.367 0.994647 5.25367 0
M  V30 3462 H 317.71 -0.315629 4.15102 0
M  V30 3463 H 318.243 1.33452 3.74747 0
M  V30 3464 H 314.982 3.93095 5.24554 0
M  V30 3465 H 314.502 2.24765 5.56094 0
M  V30 3466 H 316.181 2.76817 5.84792 0
M  V30 3467 N 316.313 -1.40141 0.720998 0
M  V30 3468 C 317.541 -2.05096 0.272656 0
M  V30 3469 C 317.956 -1.54334 -1.0875 0
M  V30 3470 O 317.313 -0.702211 -1.6845 0
M  V30 3471 C 317.364 -3.60636 0.249835 0
M  V30 3472 O 317.085 -4.09526 1.55629 0
M  V30 3473 C 318.586 -4.42772 -0.216396 0
M  V30 3474 H 315.806 -0.659897 0.121558 0
M  V30 3475 H 318.35 -1.79449 0.980723 0
M  V30 3476 H 316.505 -3.85232 -0.409237 0
M  V30 3477 H 316.919 -5.03758 1.4604 0
M  V30 3478 H 318.393 -5.51702 -0.181212 0
M  V30 3479 H 318.87 -4.20756 -1.25941 0
M  V30 3480 H 319.476 -4.23294 0.412596 0
M  V30 3481 N 317.792 -0.46758 -1.50504 0
M  V30 3482 C 319.04 0.0884469 -2.01906 0
M  V30 3483 C 319.361 1.40532 -1.35188 0
M  V30 3484 O 318.631 1.89515 -0.496079 0
M  V30 3485 H 317.211 0.0356765 -0.746148 0
M  V30 3486 H 319.873 -0.6172 -1.84869 0
M  V30 3487 H 318.969 0.2425 -3.11156 0
M  V30 3488 N 319.27 1.56325 -0.20005 0
M  V30 3489 C 320.51 1.99619 0.439519 0
M  V30 3490 C 320.874 1.08423 1.58456 0
M  V30 3491 O 322.075 1.40973 2.28867 0
M  V30 3492 C 320.346 3.46314 0.883258 0
M  V30 3493 S 321.905 4.11634 1.51997 0
M  V30 3494 H 318.723 0.697007 0.140363 0
M  V30 3495 H 321.325 1.93118 -0.304282 0
M  V30 3496 H 320.029 4.10381 0.0398967 0
M  V30 3497 H 319.56 3.56643 1.6604 0
M  V30 3498 H 321.575 4.09049 2.8088 0
M  V30 3499 N 320.748 -0.0735177 1.57428 0
M  V30 3500 C 321.658 -1.10547 2.06922 0
M  V30 3501 C 322.674 -1.42506 0.998402 0
M  V30 3502 O 323.85 -1.52717 1.31299 0
M  V30 3503 C 320.915 -2.40019 2.50184 0
M  V30 3504 C 319.976 -2.15046 3.71556 0
M  V30 3505 C 319.209 -3.38345 4.12745 0
M  V30 3506 O 319.432 -4.47399 3.53822 0
M  V30 3507 O 318.366 -3.2666 5.05546 0
M  V30 3508 H 322.192 -0.715013 2.95163 0
M  V30 3509 H 319.777 -0.287531 1.46607 0
M  V30 3510 H 321.659 -3.16218 2.78539 0
M  V30 3511 H 320.334 -2.78447 1.65072 0
M  V30 3512 H 319.241 -1.36558 3.48285 0
M  V30 3513 H 320.574 -1.81499 4.57514 0
M  V30 3514 N 322.226 -1.5378 -0.344866 0
M  V30 3515 C 323.473 -1.70963 -1.08526 0
M  V30 3516 C 323.801 -0.472126 -1.88683 0
M  V30 3517 O 323.056 0.546116 -1.87926 0
M  V30 3518 C 323.355 -2.92407 -2.05506 0
M  V30 3519 C 323.021 -4.28066 -1.41671 0
M  V30 3520 C 321.683 -4.64951 -1.2399 0
M  V30 3521 C 324.035 -5.12344 -0.956726 0
M  V30 3522 C 321.363 -5.83733 -0.589277 0
M  V30 3523 C 323.715 -6.3179 -0.320015 0
M  V30 3524 C 322.379 -6.67372 -0.130881 0
M  V30 3525 H 321.649 -0.625598 -0.397124 0
M  V30 3526 H 324.296 -1.87995 -0.36469 0
M  V30 3527 H 322.601 -2.69973 -2.8394 0
M  V30 3528 H 324.298 -3.02895 -2.62784 0
M  V30 3529 H 320.888 -3.99034 -1.56429 0
M  V30 3530 H 325.072 -4.8438 -1.08118 0
M  V30 3531 H 320.328 -6.09877 -0.431344 0
M  V30 3532 H 324.502 -6.96386 0.0445072 0
M  V30 3533 H 322.129 -7.59273 0.375318 0
M  V30 3534 N 323.704 0.605807 -1.45491 0
M  V30 3535 C 324.95 1.36679 -1.49823 0
M  V30 3536 C 325.283 1.93693 -0.140175 0
M  V30 3537 O 324.558 1.75158 0.845581 0
M  V30 3538 C 324.841 2.51337 -2.57879 0
M  V30 3539 C 324.694 1.99508 -4.03134 0
M  V30 3540 C 326.013 3.53463 -2.62205 0
M  V30 3541 H 323.132 0.495617 -0.545466 0
M  V30 3542 H 325.774 0.682732 -1.7731 0
M  V30 3543 H 323.924 3.09691 -2.34571 0
M  V30 3544 H 325.596 1.45789 -4.37656 0
M  V30 3545 H 323.839 1.30496 -4.13707 0
M  V30 3546 H 324.51 2.82169 -4.74431 0
M  V30 3547 H 326.986 3.04953 -2.83095 0
M  V30 3548 H 325.862 4.31178 -3.39672 0
M  V30 3549 H 326.123 4.09197 -1.67363 0
M  V30 3550 N 325.182 1.32811 0.848464 0
M  V30 3551 C 326.145 1.22194 1.9391 0
M  V30 3552 C 327.145 0.143404 1.60159 0
M  V30 3553 O 328.335 0.394253 1.6968 0
M  V30 3554 C 325.467 0.88067 3.29328 0
M  V30 3555 H 326.66 2.19127 2.04752 0
M  V30 3556 H 324.213 1.16731 1.0394 0
M  V30 3557 H 324.948 -0.0865776 3.24184 0
M  V30 3558 H 324.733 1.66052 3.55203 0
M  V30 3559 H 326.223 0.830871 4.09251 0
M  V30 3560 N 326.66 -1.06551 1.16123 0
M  V30 3561 C 327.909 -1.78687 0.935622 0
M  V30 3562 C 328.222 -1.88056 -0.538001 0
M  V30 3563 O 329.428 -2.56794 -0.88143 0
M  V30 3564 C 327.884 -3.21143 1.62466 0
M  V30 3565 C 327.492 -3.19949 3.13587 0
M  V30 3566 C 329.236 -3.9783 1.48092 0
M  V30 3567 C 327.143 -4.57108 3.75241 0
M  V30 3568 H 326.073 -0.669712 0.346412 0
M  V30 3569 H 328.724 -1.19534 1.39226 0
M  V30 3570 H 327.106 -3.80539 1.09572 0
M  V30 3571 H 328.28 -2.70151 3.73303 0
M  V30 3572 H 326.595 -2.5676 3.27816 0
M  V30 3573 H 329.192 -4.99217 1.91538 0
M  V30 3574 H 329.535 -4.14078 0.429507 0
M  V30 3575 H 330.068 -3.4495 1.98127 0
M  V30 3576 H 326.807 -4.46065 4.80319 0
M  V30 3577 H 326.327 -5.07111 3.20309 0
M  V30 3578 H 328.006 -5.26069 3.76644 0
M  V30 3579 N 328.138 -0.959301 -1.25041 0
M  V30 3580 C 329.068 -0.501388 -2.28053 0
M  V30 3581 C 330.049 0.454673 -1.63911 0
M  V30 3582 O 331.234 0.352618 -1.90972 0
M  V30 3583 C 328.364 0.217224 -3.4662 0
M  V30 3584 C 327.318 -0.654034 -4.22973 0
M  V30 3585 C 326.644 0.195589 -5.34342 0
M  V30 3586 C 327.944 -1.93447 -4.85155 0
M  V30 3587 H 329.638 -1.36238 -2.66608 0
M  V30 3588 H 327.184 -0.656534 -1.28163 0
M  V30 3589 H 329.137 0.548732 -4.17812 0
M  V30 3590 H 327.861 1.1125 -3.07068 0
M  V30 3591 H 326.52 -0.968693 -3.5357 0
M  V30 3592 H 326.168 1.09076 -4.91031 0
M  V30 3593 H 325.868 -0.384091 -5.86343 0
M  V30 3594 H 327.392 0.521958 -6.08365 0
M  V30 3595 H 328.806 -1.66908 -5.48466 0
M  V30 3596 H 327.203 -2.46018 -5.47353 0
M  V30 3597 H 328.273 -2.63466 -4.07079 0
M  V30 3598 N 329.616 1.39756 -0.72842 0
M  V30 3599 C 330.548 2.29157 -0.0446202 0
M  V30 3600 C 331.561 1.46484 0.710367 0
M  V30 3601 O 332.75 1.69632 0.55562 0
M  V30 3602 C 329.85 3.24987 0.961071 0
M  V30 3603 C 329.023 4.36572 0.268967 0
M  V30 3604 C 328.082 5.12756 1.18184 0
M  V30 3605 O 327.108 5.6534 0.661794 0
M  V30 3606 N 328.31 5.23331 2.51206 0
M  V30 3607 H 331.075 2.88482 -0.812295 0
M  V30 3608 H 328.636 1.51265 -0.577098 0
M  V30 3609 H 330.628 3.72827 1.57423 0
M  V30 3610 H 329.198 2.66739 1.63 0
M  V30 3611 H 328.418 3.90694 -0.524574 0
M  V30 3612 H 329.706 5.08363 -0.210934 0
M  V30 3613 H 329.104 4.82116 2.9594 0
M  V30 3614 H 327.661 5.74634 3.07634 0
M  V30 3615 N 331.094 0.475555 1.50254 0
M  V30 3616 C 332.057 -0.305016 2.27161 0
M  V30 3617 C 333.057 -0.916519 1.32123 0
M  V30 3618 O 334.247 -0.785003 1.5551 0
M  V30 3619 C 331.379 -1.43496 3.09227 0
M  V30 3620 H 332.572 0.369511 2.97615 0
M  V30 3621 H 330.125 0.229747 1.54602 0
M  V30 3622 H 330.86 -2.14441 2.43281 0
M  V30 3623 H 330.645 -1.00223 3.79075 0
M  V30 3624 H 332.135 -1.98548 3.67381 0
M  V30 3625 N 332.573 -1.56217 0.208337 0
M  V30 3626 C 333.483 -2.23316 -0.718836 0
M  V30 3627 C 334.499 -1.23648 -1.22422 0
M  V30 3628 O 335.675 -1.56423 -1.26861 0
M  V30 3629 C 332.74 -2.88968 -1.91568 0
M  V30 3630 C 331.801 -4.03943 -1.45357 0
M  V30 3631 C 331.034 -4.66455 -2.59337 0
M  V30 3632 O 331.257 -4.27919 -3.77149 0
M  V30 3633 O 330.191 -5.55686 -2.31293 0
M  V30 3634 H 334.017 -3.03182 -0.177315 0
M  V30 3635 H 331.602 -1.49384 -0.0215402 0
M  V30 3636 H 333.484 -3.30455 -2.61491 0
M  V30 3637 H 332.159 -2.12071 -2.44556 0
M  V30 3638 H 331.066 -3.67052 -0.722746 0
M  V30 3639 H 332.399 -4.82543 -0.970219 0
M  V30 3640 N 334.051 0.0651679 -1.57465 0
M  V30 3641 C 334.999 1.09542 -2.05191 0
M  V30 3642 C 335.993 1.39675 -0.958509 0
M  V30 3643 O 337.199 1.39003 -1.14359 0
M  V30 3644 H 333.574 0.370623 -0.654326 0
M  V30 3645 H 335.545 0.666802 -2.90854 0
M  V30 3646 C 334.294 2.39881 -2.51699 0
M  V30 3647 H 333.617 2.17547 -3.3543 0
M  V30 3648 H 335.057 3.104 -2.88839 0
M  V30 3649 C 333.516 3.0631 -1.40271 0
M  V30 3650 O 334.046 3.94664 -0.748523 0
M  V30 3651 N 332.252 2.67041 -1.14618 0
M  V30 3652 H 331.799 1.95281 -1.67997 0
M  V30 3653 H 331.757 3.1181 -0.402688 0
M  V30 3654 N 335.529 1.53961 0.336706 0
M  V30 3655 C 336.777 1.71197 1.07405 0
M  V30 3656 C 337.098 0.481475 1.88962 0
M  V30 3657 O 336.368 -0.504585 1.8929 0
M  V30 3658 H 334.948 0.631185 0.399517 0
M  V30 3659 H 337.61 1.91232 0.376323 0
M  V30 3660 H 336.706 2.58587 1.74755 0
M  V30 3661 N 337.007 -0.598083 1.45811 0
M  V30 3662 C 338.255 -1.35413 1.50026 0
M  V30 3663 C 338.576 -1.94444 0.147177 0
M  V30 3664 O 337.846 -1.77701 -0.824571 0
M  V30 3665 H 336.426 -0.502727 0.552517 0
M  V30 3666 H 339.088 -0.701606 1.81834 0
M  V30 3667 H 338.184 -2.16871 2.2444 0
M  V30 3668 N 338.485 -1.33259 -0.841409 0
M  V30 3669 C 339.415 -1.25926 -1.96634 0
M  V30 3670 C 340.396 -0.140349 -1.6952 0
M  V30 3671 O 341.581 -0.329707 -1.91381 0
M  V30 3672 C 338.711 -0.99512 -3.32738 0
M  V30 3673 C 337.665 -2.0767 -3.74242 0
M  V30 3674 C 336.991 -1.66474 -5.08125 0
M  V30 3675 C 338.291 -3.49318 -3.88297 0
M  V30 3676 H 339.985 -2.20046 -2.03027 0
M  V30 3677 H 337.531 -1.05931 -0.975425 0
M  V30 3678 H 339.484 -0.930323 -4.11002 0
M  V30 3679 H 338.208 -0.0183004 -3.26595 0
M  V30 3680 H 336.867 -2.13187 -2.98239 0
M  V30 3681 H 336.515 -0.675012 -4.9845 0
M  V30 3682 H 336.215 -2.3885 -5.36865 0
M  V30 3683 H 337.739 -1.61455 -5.88867 0
M  V30 3684 H 339.153 -3.46316 -4.56879 0
M  V30 3685 H 337.55 -4.20158 -4.28471 0
M  V30 3686 H 338.62 -3.8801 -2.9082 0
M  V30 3687 N 339.963 1.05934 -1.16686 0
M  V30 3688 C 340.91 2.13499 -0.876748 0
M  V30 3689 C 341.88 1.65162 0.176299 0
M  V30 3690 O 343.065 1.90757 0.0407143 0
M  V30 3691 C 340.205 3.42912 -0.387967 0
M  V30 3692 C 339.318 4.04964 -1.50426 0
M  V30 3693 C 338.453 5.22266 -0.970125 0
M  V30 3694 C 337.492 5.76309 -2.06238 0
M  V30 3695 N 336.629 6.84922 -1.54356 0
M  V30 3696 H 341.469 2.37654 -1.7979 0
M  V30 3697 H 339.006 1.16598 -0.896843 0
M  V30 3698 H 340.964 4.17111 -0.086186 0
M  V30 3699 H 339.594 3.18963 0.496235 0
M  V30 3700 H 338.646 3.28277 -1.92193 0
M  V30 3701 H 339.958 4.41122 -2.32836 0
M  V30 3702 H 339.112 6.03506 -0.621743 0
M  V30 3703 H 337.851 4.87564 -0.115377 0
M  V30 3704 H 336.856 4.93704 -2.41942 0
M  V30 3705 H 338.081 6.13062 -2.92115 0
M  V30 3706 H 336.027 6.52131 -0.711406 0
M  V30 3707 H 335.944 7.20043 -2.30379 0
M  V30 3708 H 337.212 7.69832 -1.22387 0
M  V30 3709 N 341.441 0.965919 1.2453 0
M  V30 3710 C 342.687 0.62776 1.92839 0
M  V30 3711 C 343.02 -0.834694 1.75347 0
M  V30 3712 O 342.295 -1.60031 1.10546 0
M  V30 3713 C 342.578 1.00109 3.45905 0
M  V30 3714 C 342.431 2.52011 3.72573 0
M  V30 3715 C 343.75 0.53435 4.36844 0
M  V30 3716 H 340.869 0.229537 0.700344 0
M  V30 3717 H 343.511 1.2046 1.46933 0
M  V30 3718 H 341.661 0.510238 3.85135 0
M  V30 3719 H 343.333 3.08559 3.42912 0
M  V30 3720 H 341.576 2.95287 3.17786 0
M  V30 3721 H 342.247 2.73183 4.79661 0
M  V30 3722 H 344.723 0.955565 4.04979 0
M  V30 3723 H 343.599 0.824152 5.42678 0
M  V30 3724 H 343.86 -0.565589 4.38467 0
M  V30 3725 N 342.919 -1.39368 0.735821 0
M  V30 3726 C 343.852 -2.28155 0.0451175 0
M  V30 3727 C 344.83 -1.44433 -0.746852 0
M  V30 3728 O 346.014 -1.73823 -0.729237 0
M  V30 3729 C 343.141 -3.253 -0.943266 0
M  V30 3730 C 342.187 -4.25826 -0.239685 0
M  V30 3731 S 343.02 -5.25166 1.04693 0
M  V30 3732 C 344.176 -6.2587 0.0611639 0
M  V30 3733 H 344.409 -2.86388 0.79807 0
M  V30 3734 H 341.942 -1.45104 0.527653 0
M  V30 3735 H 343.9 -3.81789 -1.50824 0
M  V30 3736 H 342.561 -2.66085 -1.66906 0
M  V30 3737 H 341.754 -4.94229 -0.987596 0
M  V30 3738 H 341.356 -3.73141 0.253274 0
M  V30 3739 H 343.648 -6.73007 -0.778941 0
M  V30 3740 H 344.591 -7.04508 0.712362 0
M  V30 3741 H 344.999 -5.63639 -0.311602 0
M  V30 3742 N 344.397 -0.483516 -1.5 0
M  V30 3743 C 345.622 0.0667119 -2.07293 0
M  V30 3744 C 346.047 1.3164 -1.3436 0
M  V30 3745 O 345.405 1.76945 -0.394987 0
M  V30 3746 C 345.453 0.321126 -3.59167 0
M  V30 3747 O 344.557 1.39927 -3.87936 0
M  V30 3748 H 343.898 -0.0184758 -0.663743 0
M  V30 3749 H 346.428 -0.678125 -1.93035 0
M  V30 3750 H 346.438 0.557906 -4.04168 0
M  V30 3751 H 345.113 -0.592007 -4.11665 0
M  V30 3752 H 343.69 1.14882 -3.54763 0
M  V30 3753 N 345.875 1.56104 -0.216619 0
M  V30 3754 C 347.1 2.0301 0.424462 0
M  V30 3755 C 347.525 1.0955 1.52907 0
M  V30 3756 O 346.883 0.0827914 1.81111 0
M  V30 3757 C 346.931 3.4819 0.937883 0
M  V30 3758 O 346.035 3.57865 2.04955 0
M  V30 3759 H 345.376 0.656925 0.0966755 0
M  V30 3760 H 347.906 2.01859 -0.33381 0
M  V30 3761 H 347.916 3.88413 1.24897 0
M  V30 3762 H 346.591 4.15699 0.129387 0
M  V30 3763 H 345.168 3.29527 1.74546 0
M  V30 3764 N 347.353 -0.0568162 1.57498 0
M  V30 3765 C 348.303 -1.07315 2.01166 0
M  V30 3766 C 349.287 -1.33632 0.896171 0
M  V30 3767 O 350.479 -1.33682 1.16009 0
M  V30 3768 C 347.608 -2.38257 2.47161 0
M  V30 3769 C 346.694 -2.1515 3.65474 0
M  V30 3770 N 347.085 -1.62014 4.7915 0
M  V30 3771 C 345.383 -2.45559 3.72313 0
M  V30 3772 C 346.084 -1.54069 5.60926 0
M  V30 3773 N 345.06 -2.00652 5.05213 0
M  V30 3774 H 348.862 -0.655878 2.86488 0
M  V30 3775 H 346.376 -0.263635 1.60246 0
M  V30 3776 H 348.373 -3.11845 2.76691 0
M  V30 3777 H 347.033 -2.80687 1.63232 0
M  V30 3778 H 348.044 -1.30667 5.01145 0
M  V30 3779 H 344.721 -2.91253 2.99129 0
M  V30 3780 H 346.111 -1.13712 6.62208 0
M  V30 3781 N 348.832 -1.54138 -0.328536 0
M  V30 3782 C 349.795 -1.82462 -1.38709 0
M  V30 3783 C 350.795 -0.696229 -1.44946 0
M  V30 3784 O 351.985 -0.964535 -1.4506 0
M  V30 3785 C 349.117 -1.98018 -2.77492 0
M  V30 3786 H 350.31 -2.77037 -1.14851 0
M  V30 3787 H 347.863 -1.45779 -0.563751 0
M  V30 3788 H 348.598 -1.05637 -3.06613 0
M  V30 3789 H 348.383 -2.80124 -2.74359 0
M  V30 3790 H 349.873 -2.21396 -3.54081 0
M  V30 3791 N 350.31 0.590341 -1.46126 0
M  V30 3792 C 351.535 1.37991 -1.54833 0
M  V30 3793 C 351.96 1.87163 -0.187506 0
M  V30 3794 O 351.318 1.61133 0.831008 0
M  V30 3795 C 351.366 2.54867 -2.55098 0
M  V30 3796 O 350.47 3.56061 -2.08073 0
M  V30 3797 H 349.811 0.411265 -0.521303 0
M  V30 3798 H 352.341 0.716819 -1.91632 0
M  V30 3799 H 352.351 3.01886 -2.74461 0
M  V30 3800 H 351.026 2.18429 -3.53923 0
M  V30 3801 H 349.603 3.15574 -1.98664 0
M  V30 3802 N 351.788 1.33704 0.83433 0
M  V30 3803 C 353.036 1.25169 1.58673 0
M  V30 3804 C 353.357 -0.18127 1.94156 0
M  V30 3805 O 352.627 -1.11113 1.6134 0
M  V30 3806 H 351.207 0.4603 0.58833 0
M  V30 3807 H 353.869 1.67478 0.996847 0
M  V30 3808 H 352.965 1.84856 2.51465 0
M  V30 3809 N 353.266 -1.05314 1.17247 0
M  V30 3810 C 354.196 -2.1498 0.911362 0
M  V30 3811 C 355.177 -1.69471 -0.146169 0
M  V30 3812 O 356.362 -1.942 0.003812 0
M  V30 3813 C 353.492 -3.4472 0.422528 0
M  V30 3814 C 352.446 -4.03789 1.4191 0
M  V30 3815 C 351.772 -5.28858 0.788274 0
M  V30 3816 C 353.072 -4.41418 2.7919 0
M  V30 3817 H 354.766 -2.3708 1.82848 0
M  V30 3818 H 352.312 -1.13938 0.880569 0
M  V30 3819 H 354.265 -4.20787 0.227289 0
M  V30 3820 H 352.989 -3.22269 -0.530123 0
M  V30 3821 H 351.648 -3.2979 1.60106 0
M  V30 3822 H 351.296 -5.02709 -0.171173 0
M  V30 3823 H 350.996 -5.69338 1.45353 0
M  V30 3824 H 352.52 -6.07612 0.603282 0
M  V30 3825 H 353.934 -5.08524 2.64719 0
M  V30 3826 H 352.331 -4.92913 3.42282 0
M  V30 3827 H 353.401 -3.51819 3.33693 0
M  V30 3828 N 354.744 -0.972509 -1.24016 0
M  V30 3829 C 355.654 -0.5143 -2.28893 0
M  V30 3830 C 356.67 0.427078 -1.68677 0
M  V30 3831 O 357.846 0.298939 -1.99169 0
M  V30 3832 C 354.911 0.183598 -3.46214 0
M  V30 3833 C 353.972 -0.798202 -4.21814 0
M  V30 3834 C 353.205 -0.133514 -5.33533 0
M  V30 3835 O 353.428 1.07714 -5.60137 0
M  V30 3836 O 352.362 -0.828103 -5.96176 0
M  V30 3837 H 356.188 -1.38629 -2.70214 0
M  V30 3838 H 353.773 -0.739769 -1.29799 0
M  V30 3839 H 355.655 0.575433 -4.17453 0
M  V30 3840 H 354.33 1.03048 -3.0686 0
M  V30 3841 H 353.237 -1.24059 -3.52931 0
M  V30 3842 H 354.57 -1.61364 -4.64997 0
M  V30 3843 N 356.222 1.38976 -0.743202 0
M  V30 3844 C 357.471 1.99581 -0.291592 0
M  V30 3845 C 357.784 1.59656 1.13001 0
M  V30 3846 O 358.99 2.13157 1.68156 0
M  V30 3847 C 357.446 3.56813 -0.470391 0
M  V30 3848 C 357.054 4.05695 -1.90041 0
M  V30 3849 C 358.798 4.24423 -0.0809709 0
M  V30 3850 C 356.705 5.5553 -2.02832 0
M  V30 3851 H 355.635 0.746615 -0.105272 0
M  V30 3852 H 358.286 1.58872 -0.918258 0
M  V30 3853 H 356.668 3.95359 0.225299 0
M  V30 3854 H 357.842 3.78464 -2.62872 0
M  V30 3855 H 356.157 3.50775 -2.24379 0
M  V30 3856 H 358.754 5.34474 -0.155445 0
M  V30 3857 H 359.097 4.04962 0.96497 0
M  V30 3858 H 359.63 3.9108 -0.728124 0
M  V30 3859 H 356.369 5.79881 -3.05643 0
M  V30 3860 H 355.889 5.84537 -1.34448 0
M  V30 3861 H 357.568 6.21069 -1.81335 0
M  V30 3862 N 357.7 0.491464 1.49741 0
M  V30 3863 C 359.111 0.0413169 1.86654 0
M  V30 3864 C 359.462 -1.36985 1.40462 0
M  V30 3865 O 358.587 -2.01917 0.778354 0
M  V30 3866 C 359.182 0.0682023 3.38731 0
M  V30 3867 C 357.741 -0.32656 3.74981 0
M  V30 3868 C 356.888 0.444888 2.73708 0
M  V30 3869 H 359.839 0.704733 1.42194 0
M  V30 3870 H 359.86 -0.729322 3.73445 0
M  V30 3871 H 359.372 1.09539 3.72321 0
M  V30 3872 H 357.473 -1.35734 3.46997 0
M  V30 3873 H 357.586 -0.013741 4.79098 0
M  V30 3874 H 355.95 -0.104062 2.54487 0
M  V30 3875 H 356.733 1.47197 3.10142 0
M  V30 3876 N 359.178 -1.55987 0.224894 0
M  V30 3877 C 360.141 -2.19178 -0.670348 0
M  V30 3878 C 361.141 -1.15461 -1.11917 0
M  V30 3879 O 362.331 -1.40675 -1.02743 0
M  V30 3880 C 359.463 -2.81777 -1.9187 0
M  V30 3881 H 360.656 -2.99662 -0.119364 0
M  V30 3882 H 358.209 -1.5628 -0.0247128 0
M  V30 3883 H 358.944 -2.05172 -2.51147 0
M  V30 3884 H 358.729 -3.57732 -1.60531 0
M  V30 3885 H 360.219 -3.30205 -2.55645 0
M  V30 3886 N 360.656 0.0484629 -1.57525 0
M  V30 3887 C 361.619 1.03956 -2.04269 0
M  V30 3888 C 362.619 1.30211 -0.943496 0
M  V30 3889 O 363.809 1.25539 -1.20771 0
M  V30 3890 C 360.941 2.37742 -2.44319 0
M  V30 3891 H 362.134 0.636182 -2.93075 0
M  V30 3892 H 359.687 0.294811 -1.53494 0
M  V30 3893 H 360.422 2.82866 -1.5861 0
M  V30 3894 H 360.207 2.20021 -3.24551 0
M  V30 3895 H 361.697 3.08936 -2.80978 0
M  V30 3896 N 362.134 1.5431 0.320358 0
M  V30 3897 C 363.064 1.86912 1.3995 0
M  V30 3898 C 364.045 0.726211 1.53819 0
M  V30 3899 O 365.23 0.980233 1.67646 0
M  V30 3900 C 362.36 2.09932 2.7667 0
M  V30 3901 C 361.314 3.25776 2.77586 0
M  V30 3902 C 360.64 3.34173 4.17412 0
M  V30 3903 C 361.94 4.6335 2.41048 0
M  V30 3904 H 363.634 2.77292 1.12914 0
M  V30 3905 H 361.18 1.33421 0.541738 0
M  V30 3906 H 363.133 2.31324 3.52232 0
M  V30 3907 H 361.857 1.16304 3.0519 0
M  V30 3908 H 360.516 3.04276 2.04479 0
M  V30 3909 H 360.164 2.38098 4.43078 0
M  V30 3910 H 359.864 4.12033 4.18931 0
M  V30 3911 H 361.388 3.57803 4.94782 0
M  V30 3912 H 362.802 4.84602 3.06324 0
M  V30 3913 H 361.199 5.43782 2.53813 0
M  V30 3914 H 362.269 4.65381 1.36193 0
M  V30 3915 N 363.613 -0.582584 1.46437 0
M  V30 3916 C 365.029 -0.905962 1.31394 0
M  V30 3917 C 365.229 -1.99468 0.285476 0
M  V30 3918 O 364.285 -2.50566 -0.311914 0
M  V30 3919 C 365.598 -1.3232 2.70022 0
M  V30 3920 C 367.146 -1.43604 2.78113 0
M  V30 3921 C 367.621 -1.88694 4.17323 0
M  V30 3922 N 369.112 -1.95887 4.19741 0
M  V30 3923 C 369.847 -2.32051 5.24347 0
M  V30 3924 N 369.343 -2.67006 6.39281 0
M  V30 3925 N 371.136 -2.32606 5.11713 0
M  V30 3926 H 363.287 0.1366 2.1196 0
M  V30 3927 H 365.55 -0.00155736 0.947999 0
M  V30 3928 H 365.256 -0.597242 3.46592 0
M  V30 3929 H 365.13 -2.28469 3.00136 0
M  V30 3930 H 367.517 -2.15286 2.01832 0
M  V30 3931 H 367.598 -0.457059 2.51684 0
M  V30 3932 H 367.242 -1.1759 4.941 0
M  V30 3933 H 367.172 -2.8755 4.4116 0
M  V30 3934 H 369.663 -1.71362 3.36814 0
M  V30 3935 H 369.976 -2.93554 7.14875 0
M  V30 3936 H 368.321 -2.64644 6.42642 0
M  V30 3937 H 371.512 -2.04721 4.2096 0
M  V30 3938 H 371.685 -2.60462 5.93349 0
M  V30 3939 N 365.091 -1.34144 -0.827227 0
M  V30 3940 C 366.502 -1.23557 -1.39966 0
M  V30 3941 C 366.853 0.140731 -1.95695 0
M  V30 3942 O 365.978 1.04087 -1.89723 0
M  V30 3943 C 366.573 -2.23708 -2.54441 0
M  V30 3944 C 365.132 -2.16924 -3.07605 0
M  V30 3945 C 364.279 -2.10549 -1.80456 0
M  V30 3946 H 367.23 -1.45573 -0.631991 0
M  V30 3947 H 367.251 -1.85157 -3.32411 0
M  V30 3948 H 366.763 -3.23866 -2.13851 0
M  V30 3949 H 364.864 -1.20107 -3.52711 0
M  V30 3950 H 364.977 -3.07988 -3.66988 0
M  V30 3951 H 363.341 -1.56203 -2.01178 0
M  V30 3952 H 364.124 -3.12535 -1.42046 0
M  V30 3953 N 366.569 1.04691 -1.17803 0
M  V30 3954 C 367.817 1.7743 -0.967617 0
M  V30 3955 C 368.138 1.88359 0.504574 0
M  V30 3956 O 367.408 1.40402 1.36617 0
M  V30 3957 H 365.988 0.657242 -0.355024 0
M  V30 3958 H 368.65 1.2638 -1.48371 0
M  V30 3959 H 367.746 2.78924 -1.40027 0
M  V30 3960 N 368.047 0.979072 1.23499 0
M  V30 3961 C 369.01 0.523244 2.23147 0
M  V30 3962 C 370.01 -0.386406 1.56088 0
M  V30 3963 O 371.2 -0.180283 1.73265 0
M  V30 3964 C 368.332 -0.240739 3.40049 0
M  V30 3965 H 369.525 1.40432 2.64989 0
M  V30 3966 H 367.078 0.764824 1.36309 0
M  V30 3967 H 367.813 -1.13841 3.03662 0
M  V30 3968 H 367.598 0.412207 3.89927 0
M  V30 3969 H 369.088 -0.548297 4.13985 0
M  V30 3970 N 369.525 -1.3858 0.750561 0
M  V30 3971 C 370.936 -1.82927 0.373438 0
M  V30 3972 C 371.287 -1.62634 -1.09748 0
M  V30 3973 O 370.412 -1.12588 -1.84805 0
M  V30 3974 C 371.007 -3.32088 0.671029 0
M  V30 3975 C 369.566 -3.74795 0.34722 0
M  V30 3976 C 368.713 -2.61391 0.92575 0
M  V30 3977 H 371.664 -1.27351 0.946958 0
M  V30 3978 H 371.685 -3.80465 -0.0518269 0
M  V30 3979 H 371.197 -3.46826 1.74164 0
M  V30 3980 H 369.298 -3.65638 -0.716933 0
M  V30 3981 H 369.411 -4.71667 0.840656 0
M  V30 3982 H 367.775 -2.52265 0.351327 0
M  V30 3983 H 368.558 -2.78929 2.00133 0
M  V30 3984 N 371.003 -0.499398 -1.49478 0
M  V30 3985 C 371.933 0.269244 -2.31943 0
M  V30 3986 C 372.914 0.964054 -1.40143 0
M  V30 3987 O 374.099 0.955767 -1.69052 0
M  V30 3988 C 371.229 1.33504 -3.20615 0
M  V30 3989 C 370.183 0.760202 -4.21195 0
M  V30 3990 C 369.509 1.9264 -4.98792 0
M  V30 3991 C 370.809 -0.247661 -5.21712 0
M  V30 3992 H 372.503 -0.419082 -2.96452 0
M  V30 3993 H 370.049 -0.202988 -1.42562 0
M  V30 3994 H 372.002 1.88048 -3.77115 0
M  V30 3995 H 370.726 2.05253 -2.54045 0
M  V30 3996 H 369.385 0.23653 -3.65836 0
M  V30 3997 H 369.033 2.63154 -4.28671 0
M  V30 3998 H 368.733 1.54785 -5.66847 0
M  V30 3999 H 370.257 2.4762 -5.58137 0
M  V30 4000 H 371.671 0.209579 -5.72917 0
M  V30 4001 H 370.068 -0.541962 -5.97648 0
M  V30 4002 H 371.138 -1.16409 -4.7072 0
M  V30 4003 N 372.481 1.55866 -0.233164 0
M  V30 4004 C 373.706 2.03449 0.402906 0
M  V30 4005 C 374.131 1.11166 1.51736 0
M  V30 4006 O 373.489 0.101996 1.81013 0
M  V30 4007 C 373.537 3.49165 0.9009 0
M  V30 4008 O 372.641 3.60019 2.01147 0
M  V30 4009 H 371.982 0.657913 0.0897025 0
M  V30 4010 H 374.512 2.01493 -0.355201 0
M  V30 4011 H 374.522 3.89716 1.2077 0
M  V30 4012 H 373.197 4.15813 0.0852889 0
M  V30 4013 H 371.774 3.3136 1.71042 0
M  V30 4014 N 373.959 -0.0401083 1.57549 0
M  V30 4015 C 374.889 -1.04384 2.08869 0
M  V30 4016 C 375.87 -1.38407 0.988817 0
M  V30 4017 O 377.055 -1.47483 1.26342 0
M  V30 4018 C 374.185 -2.34808 2.55895 0
M  V30 4019 C 373.139 -2.15057 3.70047 0
M  V30 4020 C 372.465 -3.51145 4.03239 0
M  V30 4021 C 373.765 -1.54576 4.98902 0
M  V30 4022 H 375.459 -0.616666 2.92981 0
M  V30 4023 H 373.005 -0.295184 1.40942 0
M  V30 4024 H 374.958 -3.05346 2.90417 0
M  V30 4025 H 373.682 -2.79565 1.68853 0
M  V30 4026 H 372.341 -1.46954 3.35857 0
M  V30 4027 H 371.989 -3.93529 3.13279 0
M  V30 4028 H 371.689 -3.38758 4.80122 0
M  V30 4029 H 373.213 -4.23062 4.40285 0
M  V30 4030 H 374.627 -2.15017 5.31451 0
M  V30 4031 H 373.024 -1.52796 5.80322 0
M  V30 4032 H 374.094 -0.51039 4.82206 0
M  V30 4033 N 375.437 -1.54477 -0.31217 0
M  V30 4034 C 376.4 -1.83923 -1.36766 0
M  V30 4035 C 377.4 -0.711563 -1.44199 0
M  V30 4036 O 378.59 -0.979866 -1.44029 0
M  V30 4037 C 375.722 -2.0095 -2.75376 0
M  V30 4038 H 376.915 -2.78239 -1.11906 0
M  V30 4039 H 374.468 -1.46369 -0.548257 0
M  V30 4040 H 375.203 -1.08883 -3.05475 0
M  V30 4041 H 374.988 -2.83018 -2.71373 0
M  V30 4042 H 376.478 -2.2514 -3.51713 0
M  V30 4043 N 376.915 0.57481 -1.46744 0
M  V30 4044 C 378.163 1.33009 -1.52161 0
M  V30 4045 C 378.484 1.94185 -0.178092 0
M  V30 4046 O 377.754 1.7899 0.796196 0
M  V30 4047 H 376.334 0.493873 -0.560445 0
M  V30 4048 H 378.996 0.672589 -1.82927 0
M  V30 4049 H 378.092 2.13273 -2.27862 0
M  V30 4050 N 378.394 1.34581 0.820102 0
M  V30 4051 C 379.634 1.28448 1.58998 0
M  V30 4052 C 379.998 -0.142883 1.91468 0
M  V30 4053 O 381.199 -0.328422 2.66786 0
M  V30 4054 C 379.47 2.153 2.85273 0
M  V30 4055 S 381.029 2.26548 3.75794 0
M  V30 4056 H 377.847 0.456685 0.54494 0
M  V30 4057 H 380.449 1.69825 0.968487 0
M  V30 4058 H 379.153 3.18008 2.59421 0
M  V30 4059 H 378.684 1.7483 3.52417 0
M  V30 4060 H 380.699 1.44034 4.74835 0
M  V30 4061 N 379.872 -1.04064 1.18357 0
M  V30 4062 C 381.1 -1.80916 1.00384 0
M  V30 4063 C 381.515 -1.83414 -0.447738 0
M  V30 4064 O 380.872 -1.26962 -1.31099 0
M  V30 4065 C 380.923 -3.26516 1.55144 0
M  V30 4066 O 380.644 -3.2424 2.94618 0
M  V30 4067 C 382.145 -4.20013 1.41789 0
M  V30 4068 H 379.365 -0.569728 0.354474 0
M  V30 4069 H 381.909 -1.31151 1.56906 0
M  V30 4070 H 380.064 -3.73512 1.02798 0
M  V30 4071 H 380.478 -4.15452 3.20156 0
M  V30 4072 H 381.952 -5.20111 1.84901 0
M  V30 4073 H 382.429 -4.37667 0.36661 0
M  V30 4074 H 383.035 -3.78881 1.93207 0
M  V30 4075 N 381.35 -0.985608 -1.22978 0
M  V30 4076 C 382.313 -0.535071 -2.22867 0
M  V30 4077 C 383.313 0.378123 -1.56291 0
M  V30 4078 O 384.503 0.171092 -1.73358 0
M  V30 4079 C 381.635 0.222702 -3.40172 0
M  V30 4080 H 382.828 -1.41835 -2.6424 0
M  V30 4081 H 380.381 -0.772042 -1.35901 0
M  V30 4082 H 381.116 1.12229 -3.04262 0
M  V30 4083 H 380.901 -0.43288 -3.89703 0
M  V30 4084 H 382.391 0.526335 -4.1427 0
M  V30 4085 N 382.828 1.3818 -0.7579 0
M  V30 4086 C 384.074 2.0078 -0.325423 0
M  V30 4087 C 384.429 1.59085 1.08211 0
M  V30 4088 O 383.722 0.820394 1.73148 0
M  V30 4089 C 383.916 3.55252 -0.391218 0
M  V30 4090 C 383.745 4.11947 -1.8036 0
M  V30 4091 C 382.515 4.43519 -2.42113 0
M  V30 4092 C 384.713 4.33908 -2.76095 0
M  V30 4093 N 382.695 4.85847 -3.75267 0
M  V30 4094 C 384.066 4.78692 -3.94023 0
M  V30 4095 C 386.121 4.16015 -2.73561 0
M  V30 4096 C 384.824 5.07459 -5.09782 0
M  V30 4097 C 386.85 4.45909 -3.88483 0
M  V30 4098 C 386.212 4.90921 -5.0515 0
M  V30 4099 H 382.311 0.764215 -0.165831 0
M  V30 4100 H 384.895 1.67724 -0.988776 0
M  V30 4101 H 383.066 3.87646 0.241886 0
M  V30 4102 H 384.798 4.04653 0.061989 0
M  V30 4103 H 381.553 4.32113 -1.93842 0
M  V30 4104 H 381.977 5.11339 -4.4369 0
M  V30 4105 H 386.619 3.80399 -1.84544 0
M  V30 4106 H 384.337 5.4197 -5.99412 0
M  V30 4107 H 387.923 4.33666 -3.87847 0
M  V30 4108 H 386.803 5.1361 -5.92599 0
M  V30 4109 N 384.306 0.507319 1.49211 0
M  V30 4110 C 385.534 -0.0315749 2.06876 0
M  V30 4111 C 385.949 -1.30241 1.36685 0
M  V30 4112 O 385.306 -1.76937 0.447152 0
M  V30 4113 C 385.357 -0.282627 3.60393 0
M  V30 4114 O 385.078 0.937835 4.27944 0
M  V30 4115 C 386.579 -0.864453 4.3479 0
M  V30 4116 H 383.799 0.0233048 0.670595 0
M  V30 4117 H 386.343 0.706484 1.91909 0
M  V30 4118 H 384.498 -0.97068 3.75042 0
M  V30 4119 H 384.912 0.704567 5.19746 0
M  V30 4120 H 386.386 -0.989664 5.43056 0
M  V30 4121 H 386.863 -1.86382 3.97692 0
M  V30 4122 H 387.469 -0.213672 4.24763 0
M  V30 4123 N 385.784 -1.5574 0.241426 0
M  V30 4124 C 386.747 -2.19877 -0.647063 0
M  V30 4125 C 387.747 -1.16642 -1.10686 0
M  V30 4126 O 388.937 -1.41757 -1.01245 0
M  V30 4127 C 386.069 -2.83797 -1.88871 0
M  V30 4128 H 387.262 -2.99772 -0.087574 0
M  V30 4129 H 384.815 -1.56298 -0.00813574 0
M  V30 4130 H 385.55 -2.07824 -2.48957 0
M  V30 4131 H 385.335 -3.59414 -1.56728 0
M  V30 4132 H 386.825 -3.32898 -2.52129 0
M  V30 4133 N 387.262 0.0317525 -1.57568 0
M  V30 4134 C 388.509 0.723104 -1.89149 0
M  V30 4135 C 388.837 1.75504 -0.838377 0
M  V30 4136 O 388.092 1.95037 0.160982 0
M  V30 4137 C 388.391 1.43167 -3.27472 0
M  V30 4138 C 388.057 0.535972 -4.47703 0
M  V30 4139 C 386.719 0.289262 -4.8033 0
M  V30 4140 C 389.071 -0.0826125 -5.21135 0
M  V30 4141 C 386.399 -0.584853 -5.83778 0
M  V30 4142 C 388.751 -0.944414 -6.25511 0
M  V30 4143 C 387.415 -1.20061 -6.56614 0
M  V30 4144 H 386.685 0.264602 -0.692146 0
M  V30 4145 H 389.332 -0.0169496 -1.91492 0
M  V30 4146 H 387.637 2.24497 -3.21105 0
M  V30 4147 H 389.334 1.97209 -3.49155 0
M  V30 4148 H 385.924 0.738414 -4.22191 0
M  V30 4149 H 390.108 0.0950302 -4.96209 0
M  V30 4150 H 385.364 -0.79168 -6.06253 0
M  V30 4151 H 389.538 -1.43026 -6.81554 0
M  V30 4152 H 387.165 -1.87967 -7.36595 0
M  V30 4153 N 388.74 1.54641 0.303973 0
M  V30 4154 C 390.156 1.45788 0.649463 0
M  V30 4155 C 390.356 0.64666 1.90842 0
M  V30 4156 O 389.412 0.153183 2.52035 0
M  V30 4157 C 390.725 2.89718 0.805227 0
M  V30 4158 C 392.273 2.99742 0.901305 0
M  V30 4159 C 392.748 4.44863 1.08909 0
M  V30 4160 N 394.239 4.48559 1.15536 0
M  V30 4161 C 394.974 5.58026 1.3189 0
M  V30 4162 N 394.47 6.77422 1.45161 0
M  V30 4163 N 396.263 5.45708 1.34755 0
M  V30 4164 H 388.414 2.05854 -0.523237 0
M  V30 4165 H 390.677 0.932186 -0.172431 0
M  V30 4166 H 390.383 3.51666 -0.0489108 0
M  V30 4167 H 390.257 3.36964 1.69513 0
M  V30 4168 H 392.644 2.3791 1.74593 0
M  V30 4169 H 392.725 2.55797 -0.0125531 0
M  V30 4170 H 392.369 5.07288 0.249241 0
M  V30 4171 H 392.299 4.86436 2.01713 0
M  V30 4172 H 394.79 3.6254 1.06646 0
M  V30 4173 H 395.103 7.56604 1.57387 0
M  V30 4174 H 393.448 6.80292 1.42223 0
M  V30 4175 H 396.639 4.51378 1.23996 0
M  V30 4176 H 396.812 6.3107 1.47157 0
M  V30 4177 N 390.218 -0.567019 1.47046 0
M  V30 4178 C 391.446 -1.35027 1.56765 0
M  V30 4179 C 391.861 -1.8758 0.214316 0
M  V30 4180 O 391.218 -1.64471 -0.790919 0
M  V30 4181 C 391.269 -2.52698 2.58507 0
M  V30 4182 O 390.99 -2.0232 3.88585 0
M  V30 4183 C 392.491 -3.45043 2.78316 0
M  V30 4184 H 389.711 -0.41195 0.529658 0
M  V30 4185 H 392.255 -0.687832 1.92585 0
M  V30 4186 H 390.41 -3.149 2.25648 0
M  V30 4187 H 390.824 -2.79068 4.44096 0
M  V30 4188 H 392.298 -4.2405 3.53391 0
M  V30 4189 H 392.775 -3.97971 1.85784 0
M  V30 4190 H 393.381 -2.88665 3.12334 0
M  V30 4191 N 391.696 -1.35014 -0.812953 0
M  V30 4192 C 392.944 -1.27678 -1.56661 0
M  V30 4193 C 393.265 0.150359 -1.94419 0
M  V30 4194 O 392.535 1.08532 -1.63088 0
M  V30 4195 H 391.115 -0.469602 -0.580933 0
M  V30 4196 H 393.777 -1.69043 -0.970076 0
M  V30 4197 H 392.873 -1.88833 -2.48492 0
M  V30 4198 N 393.175 1.03435 -1.18907 0
M  V30 4199 C 394.591 1.28973 -0.940111 0
M  V30 4200 C 394.791 1.97676 0.390691 0
M  V30 4201 O 393.847 2.26127 1.12352 0
M  V30 4202 C 395.16 2.14221 -2.11021 0
M  V30 4203 C 396.708 2.27547 -2.14922 0
M  V30 4204 C 397.183 3.16164 -3.31367 0
M  V30 4205 N 398.674 3.23752 -3.31269 0
M  V30 4206 C 399.409 3.92495 -4.18014 0
M  V30 4207 N 398.905 4.63515 -5.14904 0
M  V30 4208 N 400.698 3.88838 -4.05908 0
M  V30 4209 H 392.849 0.57252 -2.04538 0
M  V30 4210 H 395.112 0.315184 -0.894071 0
M  V30 4211 H 394.818 1.71054 -3.073 0
M  V30 4212 H 394.692 3.14919 -2.0762 0
M  V30 4213 H 397.079 2.69947 -1.19217 0
M  V30 4214 H 397.16 1.26418 -2.22378 0
M  V30 4215 H 396.804 2.74474 -4.27348 0
M  V30 4216 H 396.734 4.17339 -3.21148 0
M  V30 4217 H 399.225 2.73167 -2.61129 0
M  V30 4218 H 399.538 5.13583 -5.77453 0
M  V30 4219 H 397.883 4.62398 -5.18857 0
M  V30 4220 H 401.074 3.32491 -3.29495 0
M  V30 4221 H 401.247 4.4214 -4.73726 0
M  V30 4222 N 394.653 0.992116 1.22453 0
M  V30 4223 C 395.878 0.685644 1.95739 0
M  V30 4224 C 396.303 -0.743 1.72804 0
M  V30 4225 O 395.661 -1.50778 1.00676 0
M  V30 4226 C 395.709 0.996293 3.46564 0
M  V30 4227 O 394.813 0.0945512 4.12292 0
M  V30 4228 H 394.154 0.256694 0.612376 0
M  V30 4229 H 396.684 1.32888 1.5557 0
M  V30 4230 H 396.694 0.93781 3.97076 0
M  V30 4231 H 395.369 2.03733 3.62582 0
M  V30 4232 H 393.946 0.208451 3.72317 0
M  V30 4233 N 396.131 -1.37776 0.765217 0
M  V30 4234 C 397.094 -2.28686 0.153416 0
M  V30 4235 C 398.094 -1.47727 -0.635081 0
M  V30 4236 O 399.284 -1.68027 -0.459632 0
M  V30 4237 C 396.416 -3.31608 -0.790495 0
M  V30 4238 H 397.609 -2.84297 0.954723 0
M  V30 4239 H 395.162 -1.46932 0.53299 0
M  V30 4240 H 395.897 -2.81109 -1.61705 0
M  V30 4241 H 395.682 -3.9144 -0.227348 0
M  V30 4242 H 397.172 -3.99559 -1.21419 0
M  V30 4243 N 397.609 -0.515225 -1.4894 0
M  V30 4244 C 398.834 0.022727 -2.07388 0
M  V30 4245 C 399.259 1.2876 -1.37122 0
M  V30 4246 O 398.617 1.76067 -0.432431 0
M  V30 4247 C 398.665 0.244869 -3.59768 0
M  V30 4248 O 397.769 1.31667 -3.90817 0
M  V30 4249 H 397.11 -0.0325506 -0.663202 0
M  V30 4250 H 399.64 -0.718918 -1.91553 0
M  V30 4251 H 399.65 0.47205 -4.0526 0
M  V30 4252 H 398.325 -0.679194 -4.10317 0
M  V30 4253 H 396.902 1.07331 -3.5712 0
M  V30 4254 N 399.087 1.5561 -0.249682 0
M  V30 4255 C 400.336 1.98187 0.37479 0
M  V30 4256 C 400.649 1.14111 1.58865 0
M  V30 4257 O 401.855 1.46714 2.28445 0
M  V30 4258 C 400.311 3.52661 0.718192 0
M  V30 4259 C 399.919 4.45481 -0.474428 0
M  V30 4260 C 401.663 4.03888 1.3067 0
M  V30 4261 C 399.57 5.91303 -0.107026 0
M  V30 4262 H 398.5 0.740159 0.143808 0
M  V30 4263 H 401.151 1.80125 -0.350336 0
M  V30 4264 H 399.533 3.66429 1.50152 0
M  V30 4265 H 400.707 4.43473 -1.25172 0
M  V30 4266 H 399.022 4.04751 -0.978052 0
M  V30 4267 H 401.619 5.10358 1.59496 0
M  V30 4268 H 401.962 3.51401 2.23211 0
M  V30 4269 H 402.495 3.93457 0.586211 0
M  V30 4270 H 399.234 6.47833 -0.999642 0
M  V30 4271 H 398.754 5.9644 0.634013 0
M  V30 4272 H 400.433 6.46258 0.309807 0
M  V30 4273 N 400.565 -0.0233959 1.57583 0
M  V30 4274 C 401.528 -1.00693 2.05897 0
M  V30 4275 C 402.528 -1.28693 0.964092 0
M  V30 4276 O 403.718 -1.23602 1.22753 0
M  V30 4277 C 400.85 -2.33825 2.4807 0
M  V30 4278 H 402.043 -0.589476 2.9405 0
M  V30 4279 H 399.596 -0.270354 1.53944 0
M  V30 4280 H 400.331 -2.80307 1.6309 0
M  V30 4281 H 400.116 -2.1483 3.2801 0
M  V30 4282 H 401.606 -3.04426 2.85857 0
M  V30 4283 N 402.043 -1.548 -0.295768 0
M  V30 4284 C 403.32 -1.65014 -1.05023 0
M  V30 4285 C 403.7 -0.501805 -2.05049 0
M  V30 4286 O 403.048 0.500869 -2.22943 0
M  V30 4287 C 403.258 -3.03252 -1.72741 0
M  V30 4288 C 404.606 -3.60242 -2.24746 0
M  V30 4289 O 405.63 -3.05737 -1.82765 0
M  V30 4290 O 404.489 -4.55687 -3.01681 0
M  V30 4291 H 401.583 -0.669314 -0.485744 0
M  V30 4292 H 404.129 -1.67144 -0.293438 0
M  V30 4293 H 402.901 -3.7827 -1.00138 0
M  V30 4294 H 402.524 -3.04922 -2.55163 0
M  V30 4295 N 403.521 0.559213 -1.47345 0
M  V30 4296 C 404.451 1.67622 -1.62558 0
M  V30 4297 C 405.432 1.63331 -0.475087 0
M  V30 4298 O 406.617 1.80983 -0.704182 0
M  V30 4299 C 403.747 3.0626 -1.63774 0
M  V30 4300 C 402.701 3.25397 -2.7803 0
M  V30 4301 C 402.027 4.64801 -2.64318 0
M  V30 4302 C 403.327 3.10965 -4.19641 0
M  V30 4303 H 405.021 1.55146 -2.56067 0
M  V30 4304 H 402.567 0.744961 -1.23233 0
M  V30 4305 H 404.52 3.84247 -1.73008 0
M  V30 4306 H 403.244 3.1969 -0.66825 0
M  V30 4307 H 401.903 2.49817 -2.68304 0
M  V30 4308 H 401.551 4.75028 -1.65401 0
M  V30 4309 H 401.251 4.78555 -3.40968 0
M  V30 4310 H 402.775 5.44926 -2.75478 0
M  V30 4311 H 404.189 3.78772 -4.30354 0
M  V30 4312 H 402.586 3.36229 -4.97062 0
M  V30 4313 H 403.656 2.07736 -4.38148 0
M  V30 4314 N 404.999 1.35443 0.805782 0
M  V30 4315 C 405.962 1.28301 1.89925 0
M  V30 4316 C 406.962 0.194285 1.59622 0
M  V30 4317 O 408.152 0.448036 1.6834 0
M  V30 4318 C 405.284 0.984997 3.2636 0
M  V30 4319 H 406.477 2.2553 1.97677 0
M  V30 4320 H 404.03 1.19979 1.00173 0
M  V30 4321 H 404.765 0.016603 3.24296 0
M  V30 4322 H 404.55 1.77269 3.4974 0
M  V30 4323 H 406.04 0.960651 4.064 0
M  V30 4324 N 406.477 -1.02803 1.19454 0
M  V30 4325 C 407.754 -1.73299 0.907013 0
M  V30 4326 C 408.134 -2.02772 -0.587086 0
M  V30 4327 O 407.482 -1.68304 -1.54551 0
M  V30 4328 C 407.692 -3.00912 1.76785 0
M  V30 4329 C 409.04 -3.74403 2.00268 0
M  V30 4330 O 410.064 -3.10841 1.73943 0
M  V30 4331 O 408.923 -4.88675 2.4466 0
M  V30 4332 H 406.017 -0.754727 0.338106 0
M  V30 4333 H 408.563 -1.08754 1.30271 0
M  V30 4334 H 407.335 -2.75366 2.7801 0
M  V30 4335 H 406.958 -3.73197 1.37149 0
M  V30 4336 N 407.956 -0.998596 -1.21925 0
M  V30 4337 C 409.184 -0.696286 -1.94832 0
M  V30 4338 C 409.599 0.740032 -1.73692 0
M  V30 4339 O 408.956 1.5 -1.03953 0
M  V30 4340 C 409.007 -0.999833 -3.47398 0
M  V30 4341 O 408.728 -2.37972 -3.67833 0
M  V30 4342 C 410.229 -0.716025 -4.37479 0
M  V30 4343 H 407.449 -0.257111 -0.619786 0
M  V30 4344 H 409.993 -1.33491 -1.54921 0
M  V30 4345 H 408.148 -0.406918 -3.85257 0
M  V30 4346 H 408.562 -2.48338 -4.61983 0
M  V30 4347 H 410.036 -0.978642 -5.43256 0
M  V30 4348 H 410.513 0.349968 -4.37803 0
M  V30 4349 H 411.119 -1.29025 -4.05256 0
M  V30 4350 N 409.434 1.37368 -0.772513 0
M  V30 4351 C 410.85 1.53059 -0.452231 0
M  V30 4352 C 411.05 1.73065 1.03203 0
M  V30 4353 O 410.106 1.75245 1.81784 0
M  V30 4354 C 411.419 2.72659 -1.26797 0
M  V30 4355 C 412.967 2.86521 -1.25995 0
M  V30 4356 C 413.442 4.09105 -2.05905 0
M  V30 4357 N 414.933 4.16219 -2.03263 0
M  V30 4358 C 415.668 5.10107 -2.61875 0
M  V30 4359 N 415.164 6.09547 -3.29278 0
M  V30 4360 N 416.957 5.02596 -2.51701 0
M  V30 4361 H 409.108 1.22634 -1.7342 0
M  V30 4362 H 411.371 0.597206 -0.736239 0
M  V30 4363 H 411.077 2.64343 -2.31982 0
M  V30 4364 H 410.951 3.66363 -0.897672 0
M  V30 4365 H 413.338 2.94308 -0.216081 0
M  V30 4366 H 413.419 1.93774 -1.66989 0
M  V30 4367 H 413.063 4.0208 -3.10313 0
M  V30 4368 H 412.993 5.00968 -1.62292 0
M  V30 4369 H 415.484 3.45012 -1.54192 0
M  V30 4370 H 415.797 6.77718 -3.71374 0
M  V30 4371 H 414.142 6.09824 -3.33377 0
M  V30 4372 H 417.333 4.23855 -1.98657 0
M  V30 4373 H 417.506 5.75582 -2.97673 0
M  V30 4374 N 410.912 0.523116 1.48665 0
M  V30 4375 C 411.859 -0.243398 2.29513 0
M  V30 4376 C 412.829 -0.940139 1.36933 0
M  V30 4377 O 414.014 -0.942503 1.65896 0
M  V30 4378 C 411.154 -1.28855 3.20141 0
M  V30 4379 C 410.267 -0.60135 4.27794 0
M  V30 4380 C 409.402 -1.62884 5.05611 0
M  V30 4381 C 408.441 -0.924726 6.05075 0
M  V30 4382 N 407.578 -1.89744 6.75975 0
M  V30 4383 H 412.418 0.452234 2.94549 0
M  V30 4384 H 409.955 0.234858 1.45213 0
M  V30 4385 H 411.913 -1.90674 3.71079 0
M  V30 4386 H 410.543 -1.95266 2.57043 0
M  V30 4387 H 409.595 0.130623 3.80176 0
M  V30 4388 H 410.907 -0.0481585 4.98777 0
M  V30 4389 H 410.061 -2.32149 5.60528 0
M  V30 4390 H 408.8 -2.21592 4.34452 0
M  V30 4391 H 407.805 -0.217966 5.49368 0
M  V30 4392 H 409.03 -0.343851 6.78229 0
M  V30 4393 H 406.976 -2.47373 6.07571 0
M  V30 4394 H 406.893 -1.3955 7.43009 0
M  V30 4395 H 408.161 -2.58229 7.35485 0
M  V30 4396 N 412.39 -1.55475 0.257931 0
M  V30 4397 C 413.801 -1.8511 -0.243135 0
M  V30 4398 C 414.152 -1.17986 -1.5676 0
M  V30 4399 O 413.277 -0.462102 -2.11409 0
M  V30 4400 C 413.872 -3.35826 -0.447929 0
M  V30 4401 C 412.431 -3.65647 -0.893245 0
M  V30 4402 C 411.578 -2.7729 0.0232965 0
M  V30 4403 H 414.529 -1.51261 0.480199 0
M  V30 4404 H 414.55 -3.58002 -1.28898 0
M  V30 4405 H 414.062 -3.84652 0.516196 0
M  V30 4406 H 412.163 -3.22308 -1.86945 0
M  V30 4407 H 412.276 -4.73312 -0.742469 0
M  V30 4408 H 410.64 -2.49942 -0.490021 0
M  V30 4409 H 411.423 -3.28926 0.982994 0
M  V30 4410 N 413.868 0.0150385 -1.57593 0
M  V30 4411 C 415.116 0.701613 -1.8953 0
M  V30 4412 C 415.437 1.75139 -0.857396 0
M  V30 4413 O 414.707 1.95607 0.107194 0
M  V30 4414 H 413.287 0.26213 -0.699498 0
M  V30 4415 H 415.949 -0.0223304 -1.94887 0
M  V30 4416 H 415.045 1.18236 -2.88837 0
M  V30 4417 N 415.346 1.54954 0.287554 0
M  V30 4418 C 416.574 1.78881 1.03967 0
M  V30 4419 C 416.989 0.554894 1.80462 0
M  V30 4420 O 416.346 -0.475676 1.76192 0
M  V30 4421 C 416.397 3.00488 2.0097 0
M  V30 4422 O 416.118 4.19113 1.27577 0
M  V30 4423 C 417.619 3.36907 2.88112 0
M  V30 4424 H 414.839 0.596259 0.307761 0
M  V30 4425 H 417.383 2.01937 0.322749 0
M  V30 4426 H 415.538 2.79601 2.68145 0
M  V30 4427 H 415.952 4.87765 1.92835 0
M  V30 4428 H 417.426 4.25205 3.52001 0
M  V30 4429 H 417.903 2.55659 3.57121 0
M  V30 4430 H 418.509 3.60001 2.26449 0
M  V30 4431 N 416.824 -0.551391 1.4764 0
M  V30 4432 C 418.07 -1.31024 1.54792 0
M  V30 4433 C 418.403 -1.9304 0.211967 0
M  V30 4434 O 417.678 -1.78175 -0.77999 0
M  V30 4435 C 417.961 -2.41593 2.67029 0
M  V30 4436 C 417.814 -1.84408 4.10261 0
M  V30 4437 C 419.133 -3.43488 2.75143 0
M  V30 4438 H 416.252 -0.475031 0.563485 0
M  V30 4439 H 418.894 -0.616454 1.79722 0
M  V30 4440 H 417.044 -3.00772 2.45904 0
M  V30 4441 H 418.716 -1.29445 4.42766 0
M  V30 4442 H 416.959 -1.15051 4.18265 0
M  V30 4443 H 417.63 -2.64367 4.84576 0
M  V30 4444 H 420.106 -2.94236 2.94218 0
M  V30 4445 H 418.982 -4.18274 3.55441 0
M  V30 4446 H 419.243 -4.02703 1.82435 0
M  V30 4447 N 418.302 -1.35869 -0.798587 0
M  V30 4448 C 419.527 -1.32883 -1.59238 0
M  V30 4449 C 419.952 0.0894587 -1.87887 0
M  V30 4450 O 419.31 1.05869 -1.47178 0
M  V30 4451 C 419.358 -2.14892 -2.89575 0
M  V30 4452 O 418.462 -1.53512 -3.82763 0
M  V30 4453 H 417.803 -0.455236 -0.48338 0
M  V30 4454 H 420.333 -1.79024 -0.990539 0
M  V30 4455 H 420.343 -2.27139 -3.38928 0
M  V30 4456 H 419.018 -3.17998 -2.68049 0
M  V30 4457 H 417.595 -1.50153 -3.41334 0
M  V30 4458 N 419.78 1.02168 -1.19998 0
M  V30 4459 C 421.196 1.27969 -0.953737 0
M  V30 4460 C 421.396 1.98079 0.369703 0
M  V30 4461 O 420.452 2.27306 1.09947 0
M  V30 4462 C 421.765 2.11971 -2.13281 0
M  V30 4463 C 423.313 2.25255 -2.17323 0
M  V30 4464 C 423.788 3.12632 -3.34702 0
M  V30 4465 N 425.279 3.2022 -3.34684 0
M  V30 4466 C 426.014 3.88039 -4.22153 0
M  V30 4467 N 425.51 4.58027 -5.19791 0
M  V30 4468 N 427.303 3.84511 -4.10009 0
M  V30 4469 H 419.454 0.550794 -2.05134 0
M  V30 4470 H 421.717 0.305683 -0.897364 0
M  V30 4471 H 421.423 1.67785 -3.09097 0
M  V30 4472 H 421.297 3.12699 -2.10949 0
M  V30 4473 H 423.684 2.68667 -1.22073 0
M  V30 4474 H 423.765 1.24053 -2.23706 0
M  V30 4475 H 423.409 2.69926 -4.30235 0
M  V30 4476 H 423.339 4.13909 -3.25556 0
M  V30 4477 H 425.83 2.70382 -2.64012 0
M  V30 4478 H 426.143 5.07429 -5.82868 0
M  V30 4479 H 424.488 4.56869 -5.23733 0
M  V30 4480 H 427.679 3.28978 -3.33003 0
M  V30 4481 H 427.852 4.3709 -4.78389 0
M  V30 4482 N 421.258 1.00505 1.21394 0
M  V30 4483 C 422.486 0.706609 1.9446 0
M  V30 4484 C 422.901 -0.73081 1.74082 0
M  V30 4485 O 422.258 -1.49446 1.04747 0
M  V30 4486 C 422.309 1.01824 3.46863 0
M  V30 4487 O 422.03 2.39919 3.66566 0
M  V30 4488 C 423.531 0.739216 4.37093 0
M  V30 4489 H 420.751 0.260394 0.618414 0
M  V30 4490 H 423.295 1.34311 1.54211 0
M  V30 4491 H 421.45 0.427343 3.85036 0
M  V30 4492 H 421.864 2.50784 4.6066 0
M  V30 4493 H 423.338 1.00744 5.42729 0
M  V30 4494 H 423.815 -0.326746 4.37983 0
M  V30 4495 H 424.421 1.31173 4.04566 0
M  V30 4496 N 422.737 -1.36956 0.779787 0
M  V30 4497 C 423.667 -2.32761 0.185651 0
M  V30 4498 C 424.648 -1.56177 -0.673989 0
M  V30 4499 O 425.833 -1.84378 -0.609797 0
M  V30 4500 C 422.963 -3.40418 -0.687964 0
M  V30 4501 C 421.917 -4.27941 0.0710102 0
M  V30 4502 C 421.243 -5.26681 -0.922573 0
M  V30 4503 C 422.543 -5.07006 1.25467 0
M  V30 4504 H 424.237 -2.82698 0.986008 0
M  V30 4505 H 421.783 -1.3592 0.475592 0
M  V30 4506 H 423.736 -4.06423 -1.11348 0
M  V30 4507 H 422.46 -2.89025 -1.52093 0
M  V30 4508 H 421.119 -3.63478 0.47739 0
M  V30 4509 H 420.767 -4.71565 -1.7503 0
M  V30 4510 H 420.467 -5.86103 -0.419237 0
M  V30 4511 H 421.991 -5.9556 -1.34686 0
M  V30 4512 H 423.405 -5.66105 0.905401 0
M  V30 4513 H 421.802 -5.75793 1.69063 0
M  V30 4514 H 422.872 -4.3921 2.05481 0
M  V30 4515 N 424.215 -0.530993 -1.48385 0
M  V30 4516 C 425.145 0.219985 -2.32461 0
M  V30 4517 C 426.126 0.934111 -1.42156 0
M  V30 4518 O 427.311 0.919694 -1.71042 0
M  V30 4519 C 424.441 1.26674 -3.23375 0
M  V30 4520 C 423.395 0.67069 -4.22712 0
M  V30 4521 C 422.721 1.82017 -5.02766 0
M  V30 4522 C 424.021 -0.358268 -5.2107 0
M  V30 4523 H 425.715 -0.48187 -2.95497 0
M  V30 4524 H 423.261 -0.233182 -1.42099 0
M  V30 4525 H 425.214 1.80006 -3.81019 0
M  V30 4526 H 423.938 1.99818 -2.58341 0
M  V30 4527 H 422.597 0.158878 -3.66256 0
M  V30 4528 H 422.245 2.54002 -4.34157 0
M  V30 4529 H 421.945 1.42727 -5.70003 0
M  V30 4530 H 423.469 2.35725 -5.63264 0
M  V30 4531 H 424.883 0.0880081 -5.73232 0
M  V30 4532 H 423.28 -0.66861 -5.96364 0
M  V30 4533 H 424.35 -1.26367 -4.68145 0
M  V30 4534 N 425.693 1.55336 -0.266172 0
M  V30 4535 C 426.656 2.20878 0.612001 0
M  V30 4536 C 427.656 1.18388 1.08816 0
M  V30 4537 O 428.846 1.4335 0.989774 0
M  V30 4538 C 425.978 2.86765 1.84332 0
M  V30 4539 H 427.171 2.99873 0.0398718 0
M  V30 4540 H 424.724 1.56291 -0.0167309 0
M  V30 4541 H 425.459 2.11759 2.45619 0
M  V30 4542 H 425.244 3.61862 1.5099 0
M  V30 4543 H 426.734 3.36867 2.46801 0
M  V30 4544 N 427.171 -0.0066808 1.57599 0
M  V30 4545 C 428.134 -0.985035 2.06953 0
M  V30 4546 C 429.134 -1.27663 0.977687 0
M  V30 4547 O 430.324 -1.22293 1.24057 0
M  V30 4548 C 427.456 -2.3118 2.50536 0
M  V30 4549 H 428.649 -0.558255 2.94658 0
M  V30 4550 H 426.202 -0.254011 1.54222 0
M  V30 4551 H 426.937 -2.78561 1.66054 0
M  V30 4552 H 426.722 -2.11338 3.3027 0
M  V30 4553 H 428.212 -3.01377 2.8907 0
M  V30 4554 N 428.649 -1.55105 -0.279332 0
M  V30 4555 C 429.897 -1.75066 -1.00977 0
M  V30 4556 C 430.218 -0.551276 -1.87045 0
M  V30 4557 O 429.488 0.433984 -1.91032 0
M  V30 4558 H 428.068 -0.645578 -0.375816 0
M  V30 4559 H 430.73 -1.92497 -0.305089 0
M  V30 4560 H 429.826 -2.64894 -1.65038 0
M  V30 4561 N 430.127 0.543554 -1.4793 0
M  V30 4562 C 431.376 1.29649 -1.54512 0
M  V30 4563 C 431.689 1.94382 -0.217973 0
M  V30 4564 O 432.895 2.71017 -0.161908 0
M  V30 4565 C 431.351 2.35175 -2.72435 0
M  V30 4566 C 430.959 1.76572 -4.11736 0
M  V30 4567 C 432.703 3.11564 -2.8832 0
M  V30 4568 C 430.61 2.79958 -5.20939 0
M  V30 4569 H 429.54 0.487541 -0.57517 0
M  V30 4570 H 432.191 0.575708 -1.74235 0
M  V30 4571 H 430.573 3.10229 -2.46118 0
M  V30 4572 H 431.747 1.07799 -4.48013 0
M  V30 4573 H 430.062 1.12722 -4.00852 0
M  V30 4574 H 432.659 3.88794 -3.67074 0
M  V30 4575 H 433.002 3.66594 -1.97268 0
M  V30 4576 H 433.535 2.43623 -3.14472 0
M  V30 4577 H 430.274 2.29766 -6.13912 0
M  V30 4578 H 429.794 3.47101 -4.89164 0
M  V30 4579 H 431.473 3.43198 -5.48474 0
M  V30 4580 N 431.605 1.3629 0.791371 0
M  V30 4581 C 433.021 1.16661 1.08914 0
M  V30 4582 C 433.221 -0.0106266 2.01497 0
M  V30 4583 O 432.277 -0.676596 2.43266 0
M  V30 4584 C 433.59 2.47656 1.70549 0
M  V30 4585 C 435.138 2.54002 1.82899 0
M  V30 4586 C 435.613 3.85078 2.47949 0
M  V30 4587 N 437.104 3.86413 2.5542 0
M  V30 4588 C 437.839 4.84572 3.06557 0
M  V30 4589 N 437.335 5.93124 3.58016 0
M  V30 4590 N 439.128 4.71994 3.05251 0
M  V30 4591 H 431.279 2.11668 0.176238 0
M  V30 4592 H 433.542 0.937486 0.140796 0
M  V30 4593 H 433.248 3.34059 1.09989 0
M  V30 4594 H 433.122 2.63319 2.70079 0
M  V30 4595 H 435.509 1.68018 2.42598 0
M  V30 4596 H 435.59 2.42239 0.821808 0
M  V30 4597 H 435.234 4.71467 1.88895 0
M  V30 4598 H 435.164 3.94135 3.49235 0
M  V30 4599 H 437.655 3.07988 2.18979 0
M  V30 4600 H 437.968 6.63999 3.95381 0
M  V30 4601 H 436.313 5.96796 3.56173 0
M  V30 4602 H 439.504 3.86321 2.64336 0
M  V30 4603 H 439.677 5.48653 3.44796 0
M  V30 4604 N 433.083 -1.0153 1.20538 0
M  V30 4605 C 434.308 -1.79283 1.04271 0
M  V30 4606 C 434.733 -1.8372 -0.403544 0
M  V30 4607 O 434.091 -1.27321 -1.2907 0
M  V30 4608 C 434.139 -3.21535 1.63241 0
M  V30 4609 O 433.243 -4.03099 0.870908 0
M  V30 4610 H 432.584 -0.55293 0.367647 0
M  V30 4611 H 435.114 -1.27696 1.59859 0
M  V30 4612 H 435.124 -3.72243 1.6703 0
M  V30 4613 H 433.799 -3.1762 2.68497 0
M  V30 4614 H 432.376 -3.61693 0.907323 0
M  V30 4615 N 434.561 -1.01147 -1.20859 0
M  V30 4616 C 435.491 -0.597663 -2.25722 0
M  V30 4617 C 436.472 0.384744 -1.65692 0
M  V30 4618 O 437.657 0.271303 -1.92296 0
M  V30 4619 C 434.787 0.0700149 -3.47229 0
M  V30 4620 C 433.741 -0.832843 -4.19819 0
M  V30 4621 C 433.067 -0.0312202 -5.34691 0
M  V30 4622 C 434.367 -2.1385 -4.76514 0
M  V30 4623 H 436.061 -1.47423 -2.60589 0
M  V30 4624 H 433.607 -0.710301 -1.25263 0
M  V30 4625 H 435.56 0.37103 -4.19763 0
M  V30 4626 H 434.284 0.981259 -3.11511 0
M  V30 4627 H 432.943 -1.11778 -3.49144 0
M  V30 4628 H 432.591 0.881515 -4.95215 0
M  V30 4629 H 432.291 -0.632434 -5.84187 0
M  V30 4630 H 433.815 0.26346 -6.10031 0
M  V30 4631 H 435.229 -1.9002 -5.40893 0
M  V30 4632 H 433.626 -2.69012 -5.36426 0
M  V30 4633 H 434.696 -2.80495 -3.95538 0
M  V30 4634 N 436.039 1.36541 -0.78704 0
M  V30 4635 C 436.969 2.32659 -0.197992 0
M  V30 4636 C 437.95 1.56533 0.665697 0
M  V30 4637 O 439.135 1.84698 0.60001 0
M  V30 4638 C 436.265 3.40778 0.669901 0
M  V30 4639 C 435.219 4.27897 -0.0937039 0
M  V30 4640 C 434.545 5.27163 0.894629 0
M  V30 4641 C 435.845 5.06334 -1.28154 0
M  V30 4642 H 437.539 2.82171 -1.00099 0
M  V30 4643 H 435.085 1.35665 -0.482793 0
M  V30 4644 H 437.038 4.07008 1.09191 0
M  V30 4645 H 435.762 2.89827 1.50558 0
M  V30 4646 H 434.421 3.6322 -0.49666 0
M  V30 4647 H 434.069 4.72486 1.72527 0
M  V30 4648 H 433.769 5.86317 0.388149 0
M  V30 4649 H 435.293 5.96266 1.31525 0
M  V30 4650 H 436.707 5.65617 -0.93541 0
M  V30 4651 H 435.104 5.74888 -1.72115 0
M  V30 4652 H 436.174 4.38114 -2.07807 0
M  V30 4653 N 437.518 0.538854 1.48102 0
M  V30 4654 C 438.481 -0.208395 2.28251 0
M  V30 4655 C 439.481 -0.859656 1.35892 0
M  V30 4656 O 440.671 -0.71834 1.58699 0
M  V30 4657 C 437.803 -1.30252 3.15035 0
M  V30 4658 H 438.996 0.495407 2.9578 0
M  V30 4659 H 436.549 0.295112 1.53489 0
M  V30 4660 H 437.284 -2.0393 2.52157 0
M  V30 4661 H 437.069 -0.840551 3.82985 0
M  V30 4662 H 438.559 -1.82787 3.75471 0
M  V30 4663 N 438.996 -1.55193 0.274407 0
M  V30 4664 C 440.245 -1.98758 -0.343213 0
M  V30 4665 C 440.558 -1.16624 -1.5703 0
M  V30 4666 O 441.764 -1.5033 -2.26082 0
M  V30 4667 C 440.22 -3.53759 -0.661996 0
M  V30 4668 C 439.828 -4.4467 0.54524 0
M  V30 4669 C 441.572 -4.05916 -1.24228 0
M  V30 4670 C 439.479 -5.91058 0.201084 0
M  V30 4671 H 438.409 -0.742353 -0.132014 0
M  V30 4672 H 441.06 -1.79545 0.378948 0
M  V30 4673 H 439.442 -3.68772 -1.44304 0
M  V30 4674 H 440.616 -4.41426 1.32212 0
M  V30 4675 H 438.931 -4.03143 1.04232 0
M  V30 4676 H 441.528 -5.12831 -1.51357 0
M  V30 4677 H 441.871 -3.54908 -2.17592 0
M  V30 4678 H 442.404 -3.9434 -0.523542 0
M  V30 4679 H 439.143 -6.46161 1.10258 0
M  V30 4680 H 438.663 -5.97373 -0.539045 0
M  V30 4681 H 440.342 -6.46669 -0.206954 0
M  V30 4682 N 440.474 -0.00167713 -1.576 0
M  V30 4683 C 441.885 0.54091 -1.78693 0
M  V30 4684 C 442.236 1.7386 -0.909247 0
M  V30 4685 O 441.361 2.16109 -0.112176 0
M  V30 4686 C 441.956 0.98806 -3.24072 0
M  V30 4687 C 440.515 1.47594 -3.46256 0
M  V30 4688 C 439.662 0.42792 -2.73978 0
M  V30 4689 H 442.613 -0.22784 -1.57056 0
M  V30 4690 H 442.634 1.85398 -3.32277 0
M  V30 4691 H 442.146 0.116164 -3.87926 0
M  V30 4692 H 440.247 2.36868 -2.87618 0
M  V30 4693 H 440.36 1.50225 -4.54939 0
M  V30 4694 H 438.724 0.889934 -2.38647 0
M  V30 4695 H 439.507 -0.435038 -3.40532 0
M  V30 4696 N 441.952 1.55251 0.271103 0
M  V30 4697 C 442.882 1.9127 1.33933 0
M  V30 4698 C 443.863 0.77478 1.5143 0
M  V30 4699 O 445.048 1.03307 1.64442 0
M  V30 4700 C 442.178 2.18627 2.69851 0
M  V30 4701 C 441.132 3.34442 2.67081 0
M  V30 4702 C 440.458 3.47284 4.06569 0
M  V30 4703 C 441.758 4.70784 2.26185 0
M  V30 4704 H 443.452 2.80744 1.04035 0
M  V30 4705 H 440.998 1.35077 0.499017 0
M  V30 4706 H 442.951 2.42413 3.44694 0
M  V30 4707 H 441.675 1.25955 3.01335 0
M  V30 4708 H 440.334 3.10627 1.94695 0
M  V30 4709 H 439.982 2.52074 4.35279 0
M  V30 4710 H 439.682 4.25152 4.0561 0
M  V30 4711 H 441.206 3.73363 4.83148 0
M  V30 4712 H 442.62 4.94102 2.90751 0
M  V30 4713 H 441.017 5.51582 2.36384 0
M  V30 4714 H 442.087 4.69478 1.21319 0
M  V30 4715 N 443.43 -0.535701 1.48216 0
M  V30 4716 C 444.363 -1.65726 1.56876 0
M  V30 4717 C 445.341 -1.57094 0.419542 0
M  V30 4718 O 446.525 -1.77648 0.630352 0
M  V30 4719 C 443.652 -3.04096 1.49142 0
M  V30 4720 C 442.698 -3.31105 2.68834 0
M  V30 4721 S 443.531 -3.18001 4.30854 0
M  V30 4722 C 444.687 -4.58828 4.25709 0
M  V30 4723 H 444.92 -1.58129 2.51759 0
M  V30 4724 H 442.453 -0.718218 1.36678 0
M  V30 4725 H 444.411 -3.839 1.45366 0
M  V30 4726 H 443.072 -3.09139 0.556067 0
M  V30 4727 H 442.265 -4.32033 2.59545 0
M  V30 4728 H 441.867 -2.58961 2.69843 0
M  V30 4729 H 444.159 -5.5023 3.95289 0
M  V30 4730 H 445.102 -4.73172 5.26796 0
M  V30 4731 H 445.51 -4.37883 3.56257 0
M  V30 4732 N 444.908 -1.36708 -0.784132 0
M  V30 4733 C 446.133 -1.34565 -1.5782 0
M  V30 4734 C 446.558 0.0695257 -1.87971 0
M  V30 4735 O 445.916 1.04302 -1.48293 0
M  V30 4736 C 445.964 -2.17952 -2.87279 0
M  V30 4737 O 445.068 -1.57563 -3.81114 0
M  V30 4738 H 444.409 -0.460337 -0.478524 0
M  V30 4739 H 446.939 -1.80064 -0.971495 0
M  V30 4740 H 446.949 -2.30721 -3.365 0
M  V30 4741 H 445.624 -3.20823 -2.64661 0
M  V30 4742 H 444.201 -1.53764 -3.39722 0
M  V30 4743 N 446.386 1.0089 -1.21074 0
M  V30 4744 C 447.802 1.2695 -0.967257 0
M  V30 4745 C 448.002 1.9846 0.348673 0
M  V30 4746 O 447.058 2.28459 1.0753 0
M  V30 4747 C 448.371 2.09697 -2.15517 0
M  V30 4748 C 449.919 2.22937 -2.197 0
M  V30 4749 C 450.394 3.09064 -3.37999 0
M  V30 4750 N 451.885 3.16653 -3.38061 0
M  V30 4751 C 452.62 3.8354 -4.26245 0
M  V30 4752 N 452.116 4.52488 -5.2462 0
M  V30 4753 N 453.909 3.80141 -4.14064 0
M  V30 4754 H 446.06 0.529005 -2.05707 0
M  V30 4755 H 448.323 0.296148 -0.900556 0
M  V30 4756 H 448.029 1.64497 -3.10859 0
M  V30 4757 H 447.903 3.10444 -2.14253 0
M  V30 4758 H 450.29 2.67357 -1.24916 0
M  V30 4759 H 450.371 1.21673 -2.2501 0
M  V30 4760 H 450.015 2.65347 -4.33074 0
M  V30 4761 H 449.945 4.10433 -3.29928 0
M  V30 4762 H 452.436 2.67566 -2.66865 0
M  V30 4763 H 452.749 5.01219 -5.88217 0
M  V30 4764 H 451.094 4.51288 -5.28549 0
M  V30 4765 H 454.285 3.25427 -3.36474 0
M  V30 4766 H 454.458 4.31992 -4.82998 0
M  V30 4767 N 447.864 1.01787 1.20321 0
M  V30 4768 C 449.141 0.622978 1.85414 0
M  V30 4769 C 449.521 -0.898887 1.91006 0
M  V30 4770 O 448.869 -1.79112 1.41884 0
M  V30 4771 C 449.079 1.27226 3.24984 0
M  V30 4772 C 450.427 1.3885 4.01255 0
M  V30 4773 O 451.451 1.22857 3.34342 0
M  V30 4774 O 450.31 1.64705 5.2109 0
M  V30 4775 H 447.404 0.215116 0.798533 0
M  V30 4776 H 449.95 1.11533 1.27901 0
M  V30 4777 H 448.722 2.31209 3.15687 0
M  V30 4778 H 448.345 0.767069 3.90131 0
M  V30 4779 N 449.342 -1.36122 0.79427 0
M  V30 4780 C 450.274 -2.28683 0.153903 0
M  V30 4781 C 451.287 -1.49707 -0.639669 0
M  V30 4782 O 452.476 -1.7209 -0.474054 0
M  V30 4783 C 449.576 -3.29202 -0.804921 0
M  V30 4784 C 448.749 -4.37358 -0.060366 0
M  V30 4785 C 447.808 -5.17811 -0.935849 0
M  V30 4786 O 446.834 -5.67853 -0.391309 0
M  V30 4787 N 448.036 -5.34721 -2.25951 0
M  V30 4788 H 450.801 -2.84278 0.949008 0
M  V30 4789 H 448.362 -1.4834 0.648611 0
M  V30 4790 H 450.354 -3.79914 -1.39455 0
M  V30 4791 H 448.924 -2.74212 -1.50088 0
M  V30 4792 H 448.144 -3.87746 0.710382 0
M  V30 4793 H 449.432 -5.06777 0.45324 0
M  V30 4794 H 448.83 -4.95687 -2.72601 0
M  V30 4795 H 447.387 -5.88657 -2.79867 0
M  V30 4796 N 450.82 -0.546701 -1.47814 0
M  V30 4797 C 452.066 -0.0187684 -2.02791 0
M  V30 4798 C 452.399 1.32338 -1.42128 0
M  V30 4799 O 451.674 1.85867 -0.573023 0
M  V30 4800 C 451.957 0.0854985 -3.59998 0
M  V30 4801 C 451.81 -1.283 -4.31114 0
M  V30 4802 C 453.129 0.80412 -4.32691 0
M  V30 4803 H 450.248 -0.0082946 -0.736953 0
M  V30 4804 H 452.89 -0.706962 -1.76358 0
M  V30 4805 H 451.04 0.671609 -3.82651 0
M  V30 4806 H 452.712 -1.91151 -4.19832 0
M  V30 4807 H 450.955 -1.86049 -3.91878 0
M  V30 4808 H 451.626 -1.16287 -5.39612 0
M  V30 4809 H 454.102 0.306576 -4.14969 0
M  V30 4810 H 452.978 0.846011 -5.42341 0
M  V30 4811 H 453.239 1.85802 -4.01161 0
M  V30 4812 N 452.299 1.55045 -0.282633 0
M  V30 4813 C 453.246 2.22822 0.601566 0
M  V30 4814 C 454.216 1.20431 1.14392 0
M  V30 4815 O 455.401 1.48996 1.19184 0
M  V30 4816 C 452.541 2.95873 1.77632 0
M  V30 4817 C 451.654 4.12999 1.26711 0
M  V30 4818 C 450.789 4.73676 2.40426 0
M  V30 4819 C 449.828 5.82981 1.86545 0
M  V30 4820 N 448.965 6.3769 2.93762 0
M  V30 4821 H 453.805 2.97995 0.0169528 0
M  V30 4822 H 451.342 1.471 -0.00339964 0
M  V30 4823 H 453.3 3.36447 2.46697 0
M  V30 4824 H 451.93 2.2311 2.33285 0
M  V30 4825 H 450.982 3.77494 0.469314 0
M  V30 4826 H 452.294 4.91803 0.832518 0
M  V30 4827 H 451.448 5.17008 3.17471 0
M  V30 4828 H 450.187 3.94164 2.87203 0
M  V30 4829 H 449.192 5.39092 1.07983 0
M  V30 4830 H 450.417 6.64366 1.40694 0
M  V30 4831 H 448.363 5.61069 3.39908 0
M  V30 4832 H 448.28 7.11788 2.54744 0
M  V30 4833 H 449.548 6.8568 3.7076 0
M  V30 4834 N 453.777 0.010035 1.57597 0
M  V30 4835 C 455.025 -0.671371 1.90623 0
M  V30 4836 C 455.346 -1.73753 0.885151 0
M  V30 4837 O 454.616 -1.95752 -0.0760611 0
M  V30 4838 H 453.196 -0.250968 0.703579 0
M  V30 4839 H 455.858 0.0533325 1.94827 0
M  V30 4840 H 454.954 -1.13626 2.90681 0
M  V30 4841 N 455.255 -1.55392 -0.262866 0
M  V30 4842 C 456.501 -1.76737 -0.99458 0
M  V30 4843 C 456.834 -0.572453 -1.85571 0
M  V30 4844 O 456.109 0.429732 -1.89693 0
M  V30 4845 C 456.392 -3.07824 -1.8686 0
M  V30 4846 C 456.245 -4.3769 -1.03672 0
M  V30 4847 C 457.564 -3.35021 -2.85393 0
M  V30 4848 H 454.683 -0.643005 -0.360157 0
M  V30 4849 H 457.325 -1.88126 -0.266216 0
M  V30 4850 H 455.475 -2.98245 -2.48962 0
M  V30 4851 H 457.147 -4.59238 -0.43563 0
M  V30 4852 H 455.39 -4.32461 -0.340513 0
M  V30 4853 H 456.061 -5.25759 -1.6817 0
M  V30 4854 H 458.537 -3.44458 -2.33426 0
M  V30 4855 H 457.413 -4.27989 -3.43681 0
M  V30 4856 H 457.674 -2.55153 -3.61039 0
M  V30 4857 N 456.733 0.527833 -1.48498 0
M  V30 4858 C 457.663 1.64136 -1.66077 0
M  V30 4859 C 458.644 1.62286 -0.509625 0
M  V30 4860 O 459.829 1.79449 -0.742413 0
M  V30 4861 C 456.959 3.02717 -1.70234 0
M  V30 4862 C 455.913 3.19426 -2.8487 0
M  V30 4863 C 455.239 4.5909 -2.74118 0
M  V30 4864 C 456.539 3.01993 -4.26142 0
M  V30 4865 H 458.233 1.4968 -2.593 0
M  V30 4866 H 455.779 0.718654 -1.24785 0
M  V30 4867 H 457.732 3.80491 -1.8112 0
M  V30 4868 H 456.456 3.18201 -0.735911 0
M  V30 4869 H 455.115 2.4407 -2.73542 0
M  V30 4870 H 454.763 4.71413 -1.7544 0
M  V30 4871 H 454.463 4.71214 -3.51042 0
M  V30 4872 H 455.987 5.3896 -2.86974 0
M  V30 4873 H 457.401 3.69558 -4.38292 0
M  V30 4874 H 455.798 3.2561 -5.04082 0
M  V30 4875 H 456.868 1.98396 -4.42456 0
M  V30 4876 N 458.211 1.37122 0.776871 0
M  V30 4877 C 459.141 1.35164 1.90402 0
M  V30 4878 C 460.122 0.221069 1.68657 0
M  V30 4879 O 461.307 0.420642 1.8959 0
M  V30 4880 C 458.437 1.15274 3.27611 0
M  V30 4881 C 457.391 2.25289 3.63908 0
M  V30 4882 C 456.717 1.90527 4.99603 0
M  V30 4883 C 458.017 3.67446 3.71188 0
M  V30 4884 H 459.711 2.29482 1.92297 0
M  V30 4885 H 457.257 1.10465 0.923773 0
M  V30 4886 H 459.21 1.12536 4.06096 0
M  V30 4887 H 457.934 0.174102 3.26136 0
M  V30 4888 H 456.593 2.27174 2.87728 0
M  V30 4889 H 456.241 0.91206 4.94662 0
M  V30 4890 H 455.941 2.64193 5.24858 0
M  V30 4891 H 457.465 1.89367 5.80493 0
M  V30 4892 H 458.879 3.67719 4.39836 0
M  V30 4893 H 457.276 4.40123 4.07936 0
M  V30 4894 H 458.346 4.01443 2.71977 0
M  V30 4895 N 459.689 -1.00246 1.21608 0
M  V30 4896 C 460.619 -2.10921 1.00172 0
M  V30 4897 C 461.6 -1.69938 -0.0741587 0
M  V30 4898 O 462.785 -1.94009 0.0861753 0
M  V30 4899 C 459.915 -3.42618 0.568355 0
M  V30 4900 C 458.869 -3.97407 1.58909 0
M  V30 4901 C 458.195 -5.25038 1.01187 0
M  V30 4902 C 459.495 -4.2918 2.97661 0
M  V30 4903 H 461.189 -2.29112 1.92739 0
M  V30 4904 H 458.735 -1.10101 0.928102 0
M  V30 4905 H 460.688 -4.19444 0.405555 0
M  V30 4906 H 459.412 -3.24227 -0.392961 0
M  V30 4907 H 458.071 -3.22703 1.73949 0
M  V30 4908 H 457.719 -5.02982 0.0421965 0
M  V30 4909 H 457.419 -5.62661 1.6937 0
M  V30 4910 H 458.943 -6.04507 0.860448 0
M  V30 4911 H 460.357 -4.96839 2.86049 0
M  V30 4912 H 458.754 -4.77952 3.6288 0
M  V30 4913 H 459.824 -3.3735 3.48315 0
M  V30 4914 N 461.167 -1.02423 -1.1978 0
M  V30 4915 C 462.415 -0.716569 -1.8897 0
M  V30 4916 C 462.736 0.756769 -1.79716 0
M  V30 4917 O 462.006 1.5449 -1.20456 0
M  V30 4918 H 460.586 -0.262062 -0.699523 0
M  V30 4919 H 463.248 -1.29747 -1.45436 0
M  V30 4920 H 462.344 -1.00675 -2.95417 0
M  V30 4921 N 462.645 1.35699 -0.801477 0
M  V30 4922 C 463.922 1.9324 -0.302937 0
M  V30 4923 C 464.302 1.73209 1.20672 0
M  V30 4924 O 463.65 1.09809 2.00385 0
M  V30 4925 C 463.86 3.41728 -0.708747 0
M  V30 4926 C 465.208 4.18868 -0.695328 0
M  V30 4927 O 466.232 3.5022 -0.649971 0
M  V30 4928 O 465.091 5.41342 -0.749081 0
M  V30 4929 H 462.185 0.82331 -0.0780367 0
M  V30 4930 H 464.731 1.44806 -0.884832 0
M  V30 4931 H 463.503 3.50015 -1.74944 0
M  V30 4932 H 463.126 3.97471 -0.101384 0
M  V30 4933 N 464.123 0.554532 1.47522 0
M  V30 4934 C 465.351 0.034257 2.06872 0
M  V30 4935 C 465.766 -1.25826 1.40759 0
M  V30 4936 O 465.123 -1.75425 0.503217 0
M  V30 4937 C 465.174 -0.167827 3.6111 0
M  V30 4938 O 464.895 1.07351 4.24744 0
M  V30 4939 C 466.396 -0.72569 4.3732 0
M  V30 4940 H 463.616 0.0446275 0.669514 0
M  V30 4941 H 466.16 0.767181 1.89564 0
M  V30 4942 H 464.315 -0.850872 3.7794 0
M  V30 4943 H 464.729 0.869563 5.17242 0
M  V30 4944 H 466.203 -0.816394 5.45929 0
M  V30 4945 H 466.68 -1.73635 4.0342 0
M  V30 4946 H 467.286 -0.0784292 4.25228 0
M  V30 4947 N 465.601 -1.54893 0.290851 0
M  V30 4948 C 466.511 -2.26812 -0.59945 0
M  V30 4949 C 467.527 -1.29963 -1.15696 0
M  V30 4950 O 468.703 -1.62928 -1.18391 0
M  V30 4951 C 465.768 -2.98716 -1.75982 0
M  V30 4952 C 464.829 -4.1108 -1.2374 0
M  V30 4953 C 464.062 -4.79546 -2.34246 0
M  V30 4954 O 464.285 -4.47309 -3.53936 0
M  V30 4955 O 463.219 -5.67165 -2.01512 0
M  V30 4956 H 467.045 -3.03696 -0.0163561 0
M  V30 4957 H 464.63 -1.49289 0.0576755 0
M  V30 4958 H 466.512 -3.43851 -2.43607 0
M  V30 4959 H 465.187 -2.24737 -2.3297 0
M  V30 4960 H 464.094 -3.70367 -0.527163 0
M  V30 4961 H 465.427 -4.87007 -0.71307 0
M  V30 4962 N 467.08 -0.0183926 -1.57589 0
M  V30 4963 C 468.491 0.521927 -1.79256 0
M  V30 4964 C 468.842 1.72885 -0.927636 0
M  V30 4965 O 467.967 2.15978 -0.135091 0
M  V30 4966 C 468.562 0.953632 -3.25102 0
M  V30 4967 C 467.121 1.43913 -3.47801 0
M  V30 4968 C 466.268 0.398837 -2.74417 0
M  V30 4969 H 469.219 -0.244485 -1.56805 0
M  V30 4970 H 469.24 1.81863 -3.34224 0
M  V30 4971 H 468.752 0.0750123 -3.88028 0
M  V30 4972 H 466.853 2.33804 -2.90115 0
M  V30 4973 H 466.966 1.45391 -4.56507 0
M  V30 4974 H 465.33 0.864572 -2.39577 0
M  V30 4975 H 466.113 -0.471132 -3.40052 0
M  V30 4976 N 468.558 1.5553 0.254621 0
M  V30 4977 C 469.835 1.6774 1.00611 0
M  V30 4978 C 470.215 0.555993 2.03647 0
M  V30 4979 O 469.563 -0.441583 2.24193 0
M  V30 4980 C 469.773 3.07725 1.6464 0
M  V30 4981 C 471.121 3.66074 2.15116 0
M  V30 4982 O 472.145 3.10476 1.74595 0
M  V30 4983 O 471.004 4.63526 2.89493 0
M  V30 4984 H 468.098 0.681958 0.467828 0
M  V30 4985 H 470.644 1.67863 0.24902 0
M  V30 4986 H 469.416 3.80792 0.900734 0
M  V30 4987 H 469.039 3.1158 2.46989 0
M  V30 4988 N 470.036 -0.519951 1.48776 0
M  V30 4989 C 470.983 -1.62352 1.64044 0
M  V30 4990 C 471.953 -1.58945 0.482251 0
M  V30 4991 O 473.138 -1.77219 0.706971 0
M  V30 4992 C 470.278 -3.00579 1.69547 0
M  V30 4993 C 469.391 -3.14145 2.96541 0
M  V30 4994 C 468.526 -4.42991 2.93142 0
M  V30 4995 C 467.565 -4.50122 4.14797 0
M  V30 4996 N 466.702 -5.7037 4.09418 0
M  V30 4997 H 471.542 -1.48643 2.58281 0
M  V30 4998 H 469.079 -0.723516 1.28077 0
M  V30 4999 H 471.037 -3.80671 1.70719 0
M  V30 5000 H 469.667 -3.13036 0.787918 0
M  V30 5001 H 468.719 -2.27239 3.05068 0
M  V30 5002 H 470.031 -3.15275 3.86527 0
M  V30 5003 H 469.185 -5.31385 2.92772 0
M  V30 5004 H 467.924 -4.44398 2.00902 0
M  V30 5005 H 466.929 -3.60133 4.15433 0
M  V30 5006 H 468.154 -4.50445 5.08208 0
M  V30 5007 H 466.1 -5.72655 3.20004 0
M  V30 5008 H 466.017 -5.73036 4.93119 0
M  V30 5009 H 467.285 -6.61023 4.13121 0
M  V30 5010 N 471.514 -1.37532 -0.769588 0
M  V30 5011 C 472.761 -1.3286 -1.52822 0
M  V30 5012 C 473.089 0.0862597 -1.94309 0
M  V30 5013 O 472.344 1.05995 -1.6451 0
M  V30 5014 C 472.643 -2.21558 -2.8044 0
M  V30 5015 C 472.309 -3.69796 -2.57996 0
M  V30 5016 C 470.971 -4.10194 -2.51583 0
M  V30 5017 C 473.323 -4.63699 -2.37976 0
M  V30 5018 C 470.651 -5.42608 -2.23144 0
M  V30 5019 C 473.003 -5.96353 -2.1106 0
M  V30 5020 C 471.667 -6.35853 -2.03093 0
M  V30 5021 H 470.937 -0.486168 -0.559215 0
M  V30 5022 H 473.584 -1.69757 -0.886277 0
M  V30 5023 H 471.889 -1.77663 -3.49204 0
M  V30 5024 H 473.586 -2.15256 -3.38328 0
M  V30 5025 H 470.176 -3.37759 -2.63851 0
M  V30 5026 H 474.36 -4.33346 -2.41919 0
M  V30 5027 H 469.616 -5.72173 -2.15472 0
M  V30 5028 H 473.79 -6.68667 -1.94568 0
M  V30 5029 H 471.417 -7.38382 -1.8082 0
M  V30 5030 N 472.992 0.995999 -1.22138 0
M  V30 5031 C 473.955 2.06711 -0.990109 0
M  V30 5032 C 474.955 1.60744 0.0422978 0
M  V30 5033 O 476.145 1.73095 -0.195895 0
M  V30 5034 C 473.277 3.37288 -0.49491 0
M  V30 5035 H 474.47 2.28661 -1.94047 0
M  V30 5036 H 472.023 1.16711 -1.03963 0
M  V30 5037 H 472.758 3.21022 0.459948 0
M  V30 5038 H 472.543 3.71986 -1.23971 0
M  V30 5039 H 474.033 4.16103 -0.353253 0
M  V30 5040 N 474.47 1.03057 1.19235 0
M  V30 5041 C 475.886 0.747947 1.40989 0
M  V30 5042 C 476.086 -0.666752 1.90149 0
M  V30 5043 O 475.142 -1.43249 2.07933 0
M  V30 5044 C 476.455 1.7855 2.41951 0
M  V30 5045 C 478.003 1.80524 2.55695 0
M  V30 5046 C 478.478 2.83243 3.59913 0
M  V30 5047 N 479.969 2.8207 3.67411 0
M  V30 5048 C 480.704 3.58204 4.47747 0
M  V30 5049 N 480.2 4.44057 5.31775 0
M  V30 5050 N 481.993 3.46738 4.42413 0
M  V30 5051 H 474.144 1.94367 0.856468 0
M  V30 5052 H 476.407 0.840412 0.438647 0
M  V30 5053 H 476.113 2.79973 2.12857 0
M  V30 5054 H 475.987 1.6092 3.41152 0
M  V30 5055 H 478.374 0.79778 2.84112 0
M  V30 5056 H 478.455 2.02229 1.56643 0
M  V30 5057 H 478.099 3.84161 3.32239 0
M  V30 5058 H 478.029 2.58795 4.5862 0
M  V30 5059 H 480.52 2.19803 3.074 0
M  V30 5060 H 480.833 4.98884 5.90199 0
M  V30 5061 H 479.178 4.48129 5.3123 0
M  V30 5062 H 482.369 2.79077 3.75811 0
M  V30 5063 H 482.542 4.06322 5.04783 0
M  V30 5064 N 475.948 -1.35272 0.808662 0
M  V30 5065 C 477.196 -1.98316 0.389233 0
M  V30 5066 C 477.517 -1.64465 -1.04767 0
M  V30 5067 O 476.787 -0.928175 -1.72516 0
M  V30 5068 H 475.367 -0.733585 0.140935 0
M  V30 5069 H 478.029 -1.6515 1.03496 0
M  V30 5070 H 477.125 -3.08123 0.496631 0
M  V30 5071 N 477.426 -0.562348 -1.47226 0
M  V30 5072 C 478.336 0.185466 -2.33866 0
M  V30 5073 C 479.352 0.906713 -1.48508 0
M  V30 5074 O 480.528 0.874458 -1.81425 0
M  V30 5075 C 477.593 1.19904 -3.25306 0
M  V30 5076 C 476.654 0.484669 -4.26555 0
M  V30 5077 C 475.887 1.44996 -5.13626 0
M  V30 5078 O 476.11 2.68515 -5.03245 0
M  V30 5079 O 475.044 0.971642 -5.94006 0
M  V30 5080 H 478.87 -0.525361 -2.99121 0
M  V30 5081 H 476.455 -0.322916 -1.45868 0
M  V30 5082 H 478.337 1.78399 -3.81774 0
M  V30 5083 H 477.012 1.8917 -2.62672 0
M  V30 5084 H 475.919 -0.141605 -3.73832 0
M  V30 5085 H 477.252 -0.166634 -4.91918 0
M  V30 5086 N 478.904 1.54736 -0.299062 0
M  V30 5087 C 480.132 2.04512 0.313447 0
M  V30 5088 C 480.547 1.17643 1.47667 0
M  V30 5089 O 479.904 0.20164 1.81383 0
M  V30 5090 C 479.955 3.53171 0.771542 0
M  V30 5091 O 479.676 4.36736 -0.345379 0
M  V30 5092 C 481.177 4.18936 1.4494 0
M  V30 5093 H 478.397 0.667507 0.0683784 0
M  V30 5094 H 480.941 1.99752 -0.438129 0
M  V30 5095 H 479.096 3.58298 1.47314 0
M  V30 5096 H 479.51 5.24499 0.0109219 0
M  V30 5097 H 480.984 5.24482 1.72111 0
M  V30 5098 H 481.461 3.68554 2.38883 0
M  V30 5099 H 482.067 4.17879 0.791028 0
M  V30 5100 N 480.382 0.0267497 1.57577 0
M  V30 5101 C 481.629 -0.652404 1.91703 0
M  V30 5102 C 481.957 -1.72271 0.902936 0
M  V30 5103 O 481.212 -1.955 -0.0884843 0
M  V30 5104 C 481.511 -1.30914 3.3256 0
M  V30 5105 C 481.177 -0.369441 4.49384 0
M  V30 5106 C 479.839 -0.110791 4.81072 0
M  V30 5107 C 482.191 0.275971 5.20469 0
M  V30 5108 C 479.519 0.801116 5.81205 0
M  V30 5109 C 481.871 1.17592 6.21575 0
M  V30 5110 C 480.535 1.44348 6.51705 0
M  V30 5111 H 479.805 -0.238732 0.70149 0
M  V30 5112 H 482.452 0.0880091 1.91298 0
M  V30 5113 H 480.757 -2.12425 3.29216 0
M  V30 5114 H 482.454 -1.84115 3.56234 0
M  V30 5115 H 479.044 -0.581211 4.24641 0
M  V30 5116 H 483.228 0.0892 4.9622 0
M  V30 5117 H 478.484 1.01614 6.02897 0
M  V30 5118 H 482.658 1.68223 6.75777 0
M  V30 5119 H 480.285 2.15176 7.29111 0
M  V30 5120 N 481.861 -1.55662 -0.24637 0
M  V30 5121 C 483.089 -1.81575 -0.991876 0
M  V30 5122 C 483.504 -0.602545 -1.78927 0
M  V30 5123 O 482.861 0.428795 -1.77391 0
M  V30 5124 C 482.912 -3.05711 -1.92933 0
M  V30 5125 O 482.633 -4.22348 -1.1642 0
M  V30 5126 C 484.134 -3.44428 -2.79078 0
M  V30 5127 H 481.354 -0.604209 -0.291844 0
M  V30 5128 H 483.898 -2.02722 -0.269095 0
M  V30 5129 H 482.053 -2.86612 -2.60638 0
M  V30 5130 H 482.467 -4.92706 -1.79835 0
M  V30 5131 H 483.941 -4.34388 -3.40603 0
M  V30 5132 H 484.418 -2.65037 -3.50217 0
M  V30 5133 H 485.024 -3.65879 -2.16824 0
M  V30 5134 N 483.339 0.512053 -1.4905 0
M  V30 5135 C 484.588 1.26343 -1.57227 0
M  V30 5136 C 484.901 1.93876 -0.259155 0
M  V30 5137 O 486.107 2.70612 -0.219358 0
M  V30 5138 C 484.563 2.29343 -2.77362 0
M  V30 5139 C 484.171 1.67799 -4.15388 0
M  V30 5140 C 485.915 3.05378 -2.94864 0
M  V30 5141 C 483.822 2.68845 -5.2676 0
M  V30 5142 H 482.752 0.475231 -0.585382 0
M  V30 5143 H 485.403 0.53862 -1.75417 0
M  V30 5144 H 483.785 3.04938 -2.52643 0
M  V30 5145 H 484.959 0.982715 -4.50199 0
M  V30 5146 H 483.274 1.04194 -4.03153 0
M  V30 5147 H 485.871 3.80921 -3.75238 0
M  V30 5148 H 486.214 3.62327 -2.05 0
M  V30 5149 H 486.747 2.36898 -3.19569 0
M  V30 5150 H 483.486 2.16692 -6.18647 0
M  V30 5151 H 483.006 3.36647 -4.96416 0
M  V30 5152 H 484.685 3.31487 -5.5563 0
M  V30 5153 N 484.817 1.37938 0.762283 0
M  V30 5154 C 485.727 1.36681 1.90671 0
M  V30 5155 C 486.743 0.265078 1.71969 0
M  V30 5156 O 487.919 0.502055 1.95042 0
M  V30 5157 C 484.984 1.18211 3.25925 0
M  V30 5158 C 484.045 2.3811 3.57214 0
M  V30 5159 C 483.278 2.20512 4.86014 0
M  V30 5160 O 483.501 1.19429 5.57757 0
M  V30 5161 O 482.435 3.08911 5.16583 0
M  V30 5162 H 486.261 2.33091 1.94685 0
M  V30 5163 H 483.846 1.18767 0.906356 0
M  V30 5164 H 485.728 1.09937 4.06807 0
M  V30 5165 H 484.403 0.248807 3.22742 0
M  V30 5166 H 483.31 2.51958 2.76529 0
M  V30 5167 H 484.643 3.30041 3.65149 0
M  V30 5168 N 486.295 -0.989507 1.22664 0
M  V30 5169 C 487.242 -2.08024 0.999733 0
M  V30 5170 C 488.212 -1.65909 -0.0797047 0
M  V30 5171 O 489.397 -1.90669 0.0705715 0
M  V30 5172 C 486.537 -3.40067 0.587234 0
M  V30 5173 C 485.65 -3.95505 1.73781 0
M  V30 5174 C 484.785 -5.15722 1.27297 0
M  V30 5175 C 483.824 -5.63305 2.39488 0
M  V30 5176 N 482.961 -6.74758 1.94026 0
M  V30 5177 H 487.801 -2.26768 1.9334 0
M  V30 5178 H 485.338 -1.11171 0.963297 0
M  V30 5179 H 487.296 -4.15899 0.329227 0
M  V30 5180 H 485.926 -3.21314 -0.309426 0
M  V30 5181 H 484.978 -3.16513 2.11006 0
M  V30 5182 H 486.29 -4.26797 2.58158 0
M  V30 5183 H 485.444 -5.98854 0.972546 0
M  V30 5184 H 484.183 -4.86061 0.399445 0
M  V30 5185 H 483.188 -4.78759 2.70315 0
M  V30 5186 H 484.413 -5.94988 3.27362 0
M  V30 5187 H 482.359 -6.46874 1.09041 0
M  V30 5188 H 482.276 -7.05386 2.71968 0
M  V30 5189 H 483.544 -7.61387 1.67062 0
M  V30 5190 N 487.773 -1.03688 -1.18687 0
M  V30 5191 C 489.022 -0.733235 -1.879 0
M  V30 5192 C 489.335 0.741745 -1.8099 0
M  V30 5193 O 490.541 1.15875 -2.4553 0
M  V30 5194 C 488.997 -1.26127 -3.37076 0
M  V30 5195 C 488.605 -2.76461 -3.52524 0
M  V30 5196 C 490.349 -1.03398 -4.11715 0
M  V30 5197 C 488.256 -3.22642 -4.95637 0
M  V30 5198 H 487.186 -0.270584 -0.703776 0
M  V30 5199 H 489.837 -1.25222 -1.34133 0
M  V30 5200 H 488.219 -0.670165 -3.90288 0
M  V30 5201 H 489.393 -3.41296 -3.09602 0
M  V30 5202 H 487.708 -2.97559 -2.91286 0
M  V30 5203 H 490.305 -1.3542 -5.17267 0
M  V30 5204 H 490.648 0.0289246 -4.1629 0
M  V30 5205 H 491.181 -1.5895 -3.64664 0
M  V30 5206 H 487.92 -4.28296 -4.96228 0
M  V30 5207 H 487.44 -2.62539 -5.39289 0
M  V30 5208 H 489.119 -3.16444 -5.64333 0
M  V30 5209 N 489.251 1.34841 -0.815825 0
M  V30 5210 C 490.214 2.27959 -0.238185 0
M  V30 5211 C 491.214 1.49983 0.579816 0
M  V30 5212 O 492.404 1.69617 0.396953 0
M  V30 5213 C 489.536 3.34314 0.666876 0
M  V30 5214 H 490.729 2.80558 -1.05958 0
M  V30 5215 H 488.282 1.44852 -0.587156 0
M  V30 5216 H 489.017 2.86916 1.5116 0
M  V30 5217 H 488.802 3.92014 0.0819106 0
M  V30 5218 H 490.292 4.0379 1.06506 0
M  V30 5219 N 490.729 0.570148 1.46925 0
M  V30 5220 C 491.954 0.0542592 2.07329 0
M  V30 5221 C 492.379 -1.23582 1.41806 0
M  V30 5222 O 491.737 -1.74341 0.497479 0
M  V30 5223 C 491.785 -0.111175 3.60429 0
M  V30 5224 O 490.889 -1.17071 3.95434 0
M  V30 5225 H 490.23 0.0571425 0.661537 0
M  V30 5226 H 492.76 0.789516 1.88753 0
M  V30 5227 H 492.77 -0.321315 4.06733 0
M  V30 5228 H 491.445 0.831012 4.07513 0
M  V30 5229 H 490.022 -0.940029 3.60857 0
M  V30 5230 N 492.207 -1.54576 0.307264 0
M  V30 5231 C 493.139 -2.21212 -0.599807 0
M  V30 5232 C 494.152 -1.20685 -1.09266 0
M  V30 5233 O 495.341 -1.47244 -1.00903 0
M  V30 5234 C 492.441 -2.84994 -1.83389 0
M  V30 5235 C 491.614 -4.11511 -1.48248 0
M  V30 5236 C 490.673 -4.59038 -2.57237 0
M  V30 5237 O 489.699 -5.24095 -2.22065 0
M  V30 5238 N 490.901 -4.31884 -3.87887 0
M  V30 5239 H 493.666 -2.99686 -0.0293075 0
M  V30 5240 H 491.227 -1.61379 0.129738 0
M  V30 5241 H 493.219 -3.1372 -2.5566 0
M  V30 5242 H 491.789 -2.10324 -2.31263 0
M  V30 5243 H 491.009 -3.89728 -0.592122 0
M  V30 5244 H 492.297 -4.93879 -1.22316 0
M  V30 5245 H 491.695 -3.79778 -4.19268 0
M  V30 5246 H 490.252 -4.65304 -4.56438 0
M  V30 5247 N 493.685 -0.035106 -1.57561 0
M  V30 5248 C 494.618 0.979673 -2.06101 0
M  V30 5249 C 495.596 1.31378 -0.958046 0
M  V30 5250 O 496.78 1.42942 -1.22881 0
M  V30 5251 C 493.907 2.29809 -2.48808 0
M  V30 5252 C 492.953 2.11817 -3.70184 0
M  V30 5253 S 493.786 1.41143 -5.16565 0
M  V30 5254 C 494.942 2.74341 -5.62572 0
M  V30 5255 H 495.175 0.566506 -2.91853 0
M  V30 5256 H 492.708 0.176744 -1.53385 0
M  V30 5257 H 494.666 3.056 -2.74078 0
M  V30 5258 H 493.327 2.68257 -1.63392 0
M  V30 5259 H 492.52 3.09299 -3.97933 0
M  V30 5260 H 492.122 1.44168 -3.45097 0
M  V30 5261 H 494.414 3.70562 -5.67177 0
M  V30 5262 H 495.357 2.51249 -6.62027 0
M  V30 5263 H 495.765 2.79863 -4.90242 0
M  V30 5264 N 495.163 1.55791 0.238111 0
M  V30 5265 C 496.126 1.90239 1.27835 0
M  V30 5266 C 497.126 0.779552 1.4064 0
M  V30 5267 O 498.316 1.04747 1.3919 0
M  V30 5268 C 495.448 2.13859 2.65475 0
M  V30 5269 H 496.641 2.83262 0.985034 0
M  V30 5270 H 494.194 1.48818 0.477799 0
M  V30 5271 H 494.929 1.23334 2.99932 0
M  V30 5272 H 494.714 2.95643 2.57561 0
M  V30 5273 H 496.204 2.41664 3.40571 0
M  V30 5274 N 496.642 -0.504142 1.49319 0
M  V30 5275 C 497.888 -1.26033 1.58882 0
M  V30 5276 C 498.221 -1.92268 0.273274 0
M  V30 5277 O 497.496 -1.80567 -0.72291 0
M  V30 5278 C 497.779 -2.32976 2.7458 0
M  V30 5279 C 497.632 -1.71263 4.1592 0
M  V30 5280 C 498.951 -3.34561 2.85932 0
M  V30 5281 H 496.07 -0.456863 0.578312 0
M  V30 5282 H 498.712 -0.558965 1.81592 0
M  V30 5283 H 496.862 -2.92796 2.55348 0
M  V30 5284 H 498.534 -1.15294 4.4666 0
M  V30 5285 H 496.777 -1.01686 4.21714 0
M  V30 5286 H 497.448 -2.48816 4.92742 0
M  V30 5287 H 499.924 -2.84727 3.0343 0
M  V30 5288 H 498.8 -4.06754 3.68568 0
M  V30 5289 H 499.061 -3.96695 1.95154 0
M  V30 5290 N 498.12 -1.38341 -0.754957 0
M  V30 5291 C 499.083 -1.35262 -1.85032 0
M  V30 5292 C 500.083 -0.253393 -1.58791 0
M  V30 5293 O 501.273 -0.510205 -1.66561 0
M  V30 5294 C 498.405 -1.10544 -3.22479 0
M  V30 5295 H 499.598 -2.32712 -1.8917 0
M  V30 5296 H 497.151 -1.23614 -0.956515 0
M  V30 5297 H 497.886 -0.136952 -3.24011 0
M  V30 5298 H 497.671 -1.90127 -3.4292 0
M  V30 5299 H 499.161 -1.11082 -4.02555 0
M  V30 5300 N 499.598 0.982988 -1.23187 0
M  V30 5301 C 500.528 2.09301 -1.03515 0
M  V30 5302 C 501.509 1.70035 0.0471136 0
M  V30 5303 O 502.694 1.93847 -0.117029 0
M  V30 5304 C 499.824 3.4167 -0.622791 0
M  V30 5305 C 498.778 3.94828 -1.65211 0
M  V30 5306 C 498.104 5.23362 -1.09527 0
M  V30 5307 C 499.404 4.2439 -3.04451 0
M  V30 5308 H 501.098 2.26016 -1.96359 0
M  V30 5309 H 498.644 1.08611 -0.945501 0
M  V30 5310 H 500.597 4.18746 -0.472233 0
M  V30 5311 H 499.321 3.24811 0.341329 0
M  V30 5312 H 497.98 3.19895 -1.79061 0
M  V30 5313 H 497.628 5.02852 -0.122211 0
M  V30 5314 H 497.328 5.59895 -1.783 0
M  V30 5315 H 498.852 6.03062 -0.956511 0
M  V30 5316 H 500.266 4.92225 -2.93917 0
M  V30 5317 H 498.663 4.72118 -3.70438 0
M  V30 5318 H 499.733 3.31765 -3.53638 0
M  V30 5319 N 501.076 1.04316 1.18135 0
M  V30 5320 C 501.986 0.646876 2.25505 0
M  V30 5321 C 503.002 -0.328008 1.7088 0
M  V30 5322 O 504.178 -0.182309 2.00573 0
M  V30 5323 C 501.243 0.0185664 3.46695 0
M  V30 5324 C 500.304 1.04277 4.16443 0
M  V30 5325 C 499.537 0.444352 5.31847 0
M  V30 5326 O 499.76 -0.748735 5.65465 0
M  V30 5327 O 498.694 1.17428 5.90334 0
M  V30 5328 H 502.52 1.54147 2.61672 0
M  V30 5329 H 500.105 0.814188 1.25265 0
M  V30 5330 H 501.987 -0.331068 4.20097 0
M  V30 5331 H 500.662 -0.849814 3.12346 0
M  V30 5332 H 499.569 1.44425 3.45098 0
M  V30 5333 H 500.902 1.882 4.54798 0
M  V30 5334 N 502.554 -1.34406 0.822964 0
M  V30 5335 C 503.502 -2.31428 0.233165 0
M  V30 5336 C 504.496 -1.57404 -0.626118 0
M  V30 5337 O 505.702 -1.72402 -0.517453 0
M  V30 5338 H 502.077 -0.749863 0.0566557 0
M  V30 5339 H 504.048 -2.78699 1.06628 0
M  V30 5340 C 502.797 -3.42653 -0.590264 0
M  V30 5341 H 502.12 -3.99753 0.0616129 0
M  V30 5342 H 503.56 -4.12778 -0.969054 0
M  V30 5343 C 502.019 -2.87112 -1.76262 0
M  V30 5344 O 502.549 -2.81995 -2.8608 0
M  V30 5345 N 500.755 -2.43934 -1.57938 0
M  V30 5346 H 500.302 -2.48296 -0.686078 0
M  V30 5347 H 500.26 -2.07123 -2.36532 0
M  V30 5348 N 504.032 -0.577932 -1.46621 0
M  V30 5349 C 504.995 0.147805 -2.28723 0
M  V30 5350 C 505.995 0.823325 -1.38123 0
M  V30 5351 O 507.185 0.676011 -1.60548 0
M  V30 5352 C 504.317 1.21853 -3.18378 0
M  V30 5353 H 505.51 -0.573654 -2.94362 0
M  V30 5354 H 503.063 -0.335703 -1.52652 0
M  V30 5355 H 503.798 1.97173 -2.57475 0
M  V30 5356 H 503.583 0.738714 -3.85078 0
M  V30 5357 H 505.073 1.72768 -3.80186 0
M  V30 5358 N 505.51 1.54411 -0.315457 0
M  V30 5359 C 506.926 1.59556 0.037464 0
M  V30 5360 C 507.126 1.33217 1.5118 0
M  V30 5361 O 506.182 1.11264 2.26664 0
M  V30 5362 C 507.495 2.98372 -0.373477 0
M  V30 5363 C 509.043 3.11324 -0.323452 0
M  V30 5364 C 509.518 4.52472 -0.709433 0
M  V30 5365 N 511.009 4.58437 -0.662524 0
M  V30 5366 C 511.744 5.65751 -0.933474 0
M  V30 5367 N 511.24 6.81039 -1.27114 0
M  V30 5368 N 513.033 5.55489 -0.859573 0
M  V30 5369 H 505.184 1.6979 -1.27614 0
M  V30 5370 H 507.447 0.793732 -0.518356 0
M  V30 5371 H 507.153 3.22618 -1.40037 0
M  V30 5372 H 507.027 3.76264 0.265615 0
M  V30 5373 H 509.414 2.86818 0.694223 0
M  V30 5374 H 509.495 2.35555 -0.997367 0
M  V30 5375 H 509.139 4.7771 -1.72498 0
M  V30 5376 H 509.069 5.26598 -0.0132923 0
M  V30 5377 H 511.56 3.75636 -0.413065 0
M  V30 5378 H 511.873 7.58816 -1.46348 0
M  V30 5379 H 510.218 6.82555 -1.30932 0
M  V30 5380 H 513.409 4.64299 -0.595324 0
M  V30 5381 H 513.582 6.39036 -1.0741 0
M  V30 5382 N 506.988 0.0434614 1.5754 0
M  V30 5383 C 507.918 -0.931651 2.14109 0
M  V30 5384 C 508.899 -1.32971 1.06079 0
M  V30 5385 O 510.084 -1.40579 1.33982 0
M  V30 5386 C 507.214 -2.20914 2.67982 0
M  V30 5387 C 506.168 -1.95139 3.80926 0
M  V30 5388 C 505.494 -3.29276 4.21285 0
M  V30 5389 C 506.794 -1.27913 5.06395 0
M  V30 5390 H 508.488 -0.460497 2.95837 0
M  V30 5391 H 506.034 -0.220058 1.42309 0
M  V30 5392 H 507.987 -2.89522 3.06194 0
M  V30 5393 H 506.711 -2.70221 1.83434 0
M  V30 5394 H 505.37 -1.28945 3.43175 0
M  V30 5395 H 505.018 -3.76369 3.33699 0
M  V30 5396 H 504.718 -3.12831 4.97404 0
M  V30 5397 H 506.242 -3.99129 4.62091 0
M  V30 5398 H 507.656 -1.86544 5.42102 0
M  V30 5399 H 506.053 -1.2182 5.87605 0
M  V30 5400 H 507.123 -0.254066 4.84234 0
M  V30 5401 N 508.466 -1.55915 -0.229846 0
M  V30 5402 C 509.696 -1.82352 -0.971152 0
M  V30 5403 C 510.104 -0.619231 -1.7878 0
M  V30 5404 O 509.447 0.421597 -1.78797 0
M  V30 5405 C 509.509 -3.02399 -1.9441 0
M  V30 5406 C 509.173 -4.37739 -1.31277 0
M  V30 5407 C 510.17 -5.15074 -0.706757 0
M  V30 5408 C 507.855 -4.84454 -1.32702 0
M  V30 5409 C 509.849 -6.37281 -0.123413 0
M  V30 5410 C 507.536 -6.06605 -0.739831 0
M  V30 5411 C 508.534 -6.82858 -0.139071 0
M  V30 5412 O 508.222 -8.027 0.439007 0
M  V30 5413 H 507.954 -0.61035 -0.290601 0
M  V30 5414 H 510.508 -2.03839 -0.252746 0
M  V30 5415 H 508.738 -2.76709 -2.70128 0
M  V30 5416 H 510.427 -3.15779 -2.55026 0
M  V30 5417 H 511.193 -4.80093 -0.688131 0
M  V30 5418 H 507.072 -4.25081 -1.78402 0
M  V30 5419 H 510.616 -6.96741 0.346124 0
M  V30 5420 H 506.513 -6.4106 -0.755841 0
M  V30 5421 H 507.281 -8.17824 0.332521 0
M  V30 5422 N 509.944 0.496216 -1.49584 0
M  V30 5423 C 510.854 1.62352 -1.69349 0
M  V30 5424 C 511.87 1.64184 -0.576147 0
M  V30 5425 O 513.046 1.82517 -0.85144 0
M  V30 5426 C 510.111 2.98698 -1.76013 0
M  V30 5427 C 509.172 3.07454 -2.99617 0
M  V30 5428 C 508.405 4.37296 -3.05953 0
M  V30 5429 O 508.628 5.2637 -2.19752 0
M  V30 5430 O 507.562 4.51124 -3.9846 0
M  V30 5431 H 511.388 1.48606 -2.64859 0
M  V30 5432 H 508.973 0.673022 -1.33382 0
M  V30 5433 H 510.855 3.79725 -1.82721 0
M  V30 5434 H 509.53 3.12696 -0.836828 0
M  V30 5435 H 508.437 2.25597 -2.98424 0
M  V30 5436 H 509.77 2.98385 -3.91443 0
M  V30 5437 N 511.423 1.38739 0.74761 0
M  V30 5438 C 512.7 1.25791 1.49786 0
M  V30 5439 C 513.08 -0.138075 2.10648 0
M  V30 5440 O 512.428 -1.14815 1.9756 0
M  V30 5441 C 512.638 2.37265 2.55942 0
M  V30 5442 C 513.986 2.75978 3.22679 0
M  V30 5443 O 515.01 2.36621 2.6625 0
M  V30 5444 O 513.869 3.43867 4.24756 0
M  V30 5445 H 510.963 0.492251 0.664543 0
M  V30 5446 H 513.509 1.50582 0.782511 0
M  V30 5447 H 512.281 3.30644 2.0926 0
M  V30 5448 H 511.904 2.14071 3.35051 0
M  V30 5449 N 512.901 -0.976442 1.23707 0
M  V30 5450 C 513.834 -2.06793 0.964973 0
M  V30 5451 C 514.812 -1.62304 -0.0981472 0
M  V30 5452 O 515.996 -1.88464 0.0369477 0
M  V30 5453 C 513.123 -3.35636 0.454522 0
M  V30 5454 C 512.169 -3.99069 1.50485 0
M  V30 5455 S 513.002 -4.37814 3.0835 0
M  V30 5456 C 514.158 -5.69805 2.58985 0
M  V30 5457 H 514.391 -2.29556 1.88922 0
M  V30 5458 H 511.924 -1.11317 1.06995 0
M  V30 5459 H 513.882 -4.10162 0.166626 0
M  V30 5460 H 512.543 -3.10876 -0.448871 0
M  V30 5461 H 511.736 -4.91896 1.09792 0
M  V30 5462 H 511.338 -3.30938 1.7423 0
M  V30 5463 H 513.63 -6.46919 2.01252 0
M  V30 5464 H 514.573 -6.15345 3.50366 0
M  V30 5465 H 514.981 -5.27994 1.99705 0
M  V30 5466 N 514.379 -1.04941 -1.1758 0
M  V30 5467 C 515.795 -0.770282 -1.39781 0
M  V30 5468 C 515.995 0.636417 -1.91186 0
M  V30 5469 O 515.051 1.39923 -2.10185 0
M  V30 5470 C 516.364 -1.82376 -2.3908 0
M  V30 5471 C 517.912 -1.84569 -2.52791 0
M  V30 5472 C 518.387 -2.88933 -3.55361 0
M  V30 5473 N 519.878 -2.8788 -3.62877 0
M  V30 5474 C 520.613 -3.65282 -4.41992 0
M  V30 5475 N 520.109 -4.52461 -5.24643 0
M  V30 5476 N 521.902 -3.53732 -4.36841 0
M  V30 5477 H 514.053 -1.95705 -0.825438 0
M  V30 5478 H 516.316 -0.847284 -0.425222 0
M  V30 5479 H 516.022 -2.83323 -2.08376 0
M  V30 5480 H 515.896 -1.66327 -3.38549 0
M  V30 5481 H 518.283 -0.842879 -2.82807 0
M  V30 5482 H 518.364 -2.04696 -1.53406 0
M  V30 5483 H 518.008 -3.89398 -3.26085 0
M  V30 5484 H 517.938 -2.66059 -4.54445 0
M  V30 5485 H 520.429 -2.24666 -3.03864 0
M  V30 5486 H 520.742 -5.08211 -5.82187 0
M  V30 5487 H 519.087 -4.56524 -5.24033 0
M  V30 5488 H 522.278 -2.85021 -3.71323 0
M  V30 5489 H 522.451 -4.14302 -4.98255 0
M  V30 5490 N 515.857 1.33968 -0.830081 0
M  V30 5491 C 517.082 2.02813 -0.433796 0
M  V30 5492 C 517.507 1.62076 0.954614 0
M  V30 5493 O 516.865 0.808955 1.62252 0
M  V30 5494 C 516.913 3.56348 -0.552115 0
M  V30 5495 O 516.017 4.10202 0.425191 0
M  V30 5496 H 515.358 0.639817 -0.177567 0
M  V30 5497 H 517.888 1.7106 -1.12248 0
M  V30 5498 H 517.898 4.05722 -0.430513 0
M  V30 5499 H 516.573 3.85344 -1.56471 0
M  V30 5500 H 515.15 3.71979 0.261878 0
M  V30 5501 N 517.335 0.585699 1.46312 0
M  V30 5502 C 518.265 -0.133556 2.33118 0
M  V30 5503 C 519.246 -0.880707 1.45525 0
M  V30 5504 O 520.431 -0.855579 1.74337 0
M  V30 5505 C 517.561 -1.14585 3.27853 0
M  V30 5506 C 516.515 -0.513341 4.2491 0
M  V30 5507 C 515.841 -1.63231 5.09175 0
M  V30 5508 C 517.141 0.551413 5.19381 0
M  V30 5509 H 518.835 0.59121 2.93505 0
M  V30 5510 H 516.381 0.285761 1.41136 0
M  V30 5511 H 518.334 -1.65741 3.87438 0
M  V30 5512 H 517.058 -1.90093 2.65579 0
M  V30 5513 H 515.717 -0.0228349 3.66593 0
M  V30 5514 H 515.365 -2.37713 4.43285 0
M  V30 5515 H 515.065 -1.21473 5.74907 0
M  V30 5516 H 516.589 -2.14658 5.71624 0
M  V30 5517 H 518.003 0.124804 5.73164 0
M  V30 5518 H 516.4 0.889486 5.93471 0
M  V30 5519 H 517.47 1.43655 4.63132 0
M  V30 5520 N 518.813 -1.54241 0.323641 0
M  V30 5521 C 520.06 -2.0057 -0.27891 0
M  V30 5522 C 520.388 -1.21181 -1.52136 0
M  V30 5523 O 519.643 -0.282043 -1.93657 0
M  V30 5524 C 519.942 -3.5129 -0.658031 0
M  V30 5525 C 519.608 -4.48281 0.485252 0
M  V30 5526 C 518.27 -4.74519 0.799055 0
M  V30 5527 C 520.622 -5.05909 1.25322 0
M  V30 5528 C 517.95 -5.55643 1.88354 0
M  V30 5529 C 520.302 -5.88215 2.32779 0
M  V30 5530 C 518.966 -6.12755 2.64741 0
M  V30 5531 H 518.236 -0.733938 -0.10206 0
M  V30 5532 H 520.883 -1.862 0.447435 0
M  V30 5533 H 519.188 -3.63388 -1.4648 0
M  V30 5534 H 520.885 -3.84578 -1.1358 0
M  V30 5535 H 517.475 -4.27979 0.230593 0
M  V30 5536 H 521.659 -4.8562 1.02404 0
M  V30 5537 H 516.915 -5.72888 2.13564 0
M  V30 5538 H 521.089 -6.31888 2.92729 0
M  V30 5539 H 518.716 -6.75404 3.48904 0
M  V30 5540 N 520.291 -0.0518155 -1.57515 0
M  V30 5541 C 521.538 0.621823 -1.92716 0
M  V30 5542 C 521.866 1.70813 -0.930229 0
M  V30 5543 O 521.121 1.95616 0.0573708 0
M  V30 5544 C 521.42 1.25607 -3.34601 0
M  V30 5545 C 521.086 0.297901 -4.49915 0
M  V30 5546 C 519.748 0.034243 -4.81188 0
M  V30 5547 C 522.1 -0.358738 -5.19964 0
M  V30 5548 C 519.428 -0.893479 -5.79857 0
M  V30 5549 C 521.78 -1.27466 -6.19625 0
M  V30 5550 C 520.444 -1.54698 -6.49326 0
M  V30 5551 H 519.714 0.227541 -0.705199 0
M  V30 5552 H 522.361 -0.118432 -1.91133 0
M  V30 5553 H 520.666 2.07161 -3.32553 0
M  V30 5554 H 522.363 1.78424 -3.59118 0
M  V30 5555 H 518.953 0.513581 -4.25512 0
M  V30 5556 H 523.137 -0.168133 -4.96015 0
M  V30 5557 H 518.393 -1.11193 -6.01204 0
M  V30 5558 H 522.567 -1.78953 -6.73015 0
M  V30 5559 H 520.194 -2.26748 -7.25596 0
M  V30 5560 N 521.769 1.56035 0.221574 0
M  V30 5561 C 522.717 1.93269 1.29421 0
M  V30 5562 C 523.711 0.814727 1.48521 0
M  V30 5563 O 524.917 0.999559 1.49696 0
M  V30 5564 H 521.292 0.614188 0.43391 0
M  V30 5565 H 523.263 2.82773 0.952987 0
M  V30 5566 C 522.012 2.26573 2.63742 0
M  V30 5567 H 521.335 3.12112 2.49853 0
M  V30 5568 H 522.775 2.5651 3.37607 0
M  V30 5569 C 521.234 1.09086 3.1875 0
M  V30 5570 O 521.764 0.351985 4.00155 0
M  V30 5571 N 519.97 0.874693 2.77124 0
M  V30 5572 H 519.517 1.47726 2.11033 0
M  V30 5573 H 519.475 0.0903349 3.1427 0
M  V30 5574 N 523.247 -0.488276 1.49845 0
M  V30 5575 C 524.475 -1.26527 1.63702 0
M  V30 5576 C 524.89 -1.8618 0.313447 0
M  V30 5577 O 524.247 -1.68432 -0.702624 0
M  V30 5578 C 524.298 -2.3864 2.71538 0
M  V30 5579 O 524.019 -1.81437 3.98763 0
M  V30 5580 C 525.52 -3.29805 2.96215 0
M  V30 5581 H 522.74 -0.383295 0.55075 0
M  V30 5582 H 525.284 -0.584779 1.95961 0
M  V30 5583 H 523.439 -3.02496 2.42023 0
M  V30 5584 H 523.853 -2.55135 4.58265 0
M  V30 5585 H 525.327 -4.04722 3.75372 0
M  V30 5586 H 525.804 -3.87563 2.06619 0
M  V30 5587 H 526.41 -2.71703 3.27196 0
M  V30 5588 N 524.725 -1.39134 -0.740242 0
M  V30 5589 C 525.971 -1.36273 -1.50192 0
M  V30 5590 C 526.304 0.0430136 -1.94152 0
M  V30 5591 O 525.579 1.00691 -1.66408 0
M  V30 5592 C 525.862 -2.33041 -2.74525 0
M  V30 5593 C 525.715 -3.82535 -2.36617 0
M  V30 5594 C 527.034 -2.27723 -3.76604 0
M  V30 5595 H 524.153 -0.496323 -0.544823 0
M  V30 5596 H 526.795 -1.70085 -0.846815 0
M  V30 5597 H 524.945 -2.04337 -3.30422 0
M  V30 5598 H 526.617 -4.21967 -1.86391 0
M  V30 5599 H 524.86 -3.99565 -1.68909 0
M  V30 5600 H 525.531 -4.45723 -3.2563 0
M  V30 5601 H 528.007 -2.53091 -3.30279 0
M  V30 5602 H 526.883 -2.97519 -4.61274 0
M  V30 5603 H 527.144 -1.28049 -4.2315 0
M  V30 5604 N 526.204 0.969867 -1.24223 0
M  V30 5605 C 527.429 1.75289 -1.10853 0
M  V30 5606 C 527.854 1.85091 0.335079 0
M  V30 5607 O 527.212 1.32024 1.24255 0
M  V30 5608 C 527.26 3.15255 -1.75062 0
M  V30 5609 O 526.364 3.99589 -1.01992 0
M  V30 5610 H 525.705 0.538904 -0.387915 0
M  V30 5611 H 528.235 1.21675 -1.64488 0
M  V30 5612 H 528.245 3.65787 -1.80731 0
M  V30 5613 H 526.92 3.07436 -2.801 0
M  V30 5614 H 525.497 3.58077 -1.04094 0
M  V30 5615 N 527.682 1.05563 1.17022 0
M  V30 5616 C 528.907 0.788437 1.91829 0
M  V30 5617 C 529.332 -0.650356 1.76499 0
M  V30 5618 O 528.69 -1.45229 1.08527 0
M  V30 5619 C 528.738 1.1786 3.40795 0
M  V30 5620 O 527.842 0.312965 4.11211 0
M  V30 5621 H 527.183 0.288794 0.597908 0
M  V30 5622 H 529.713 1.40948 1.48307 0
M  V30 5623 H 529.723 1.14697 3.91546 0
M  V30 5624 H 528.398 2.22666 3.51273 0
M  V30 5625 H 526.975 0.405515 3.70689 0
M  V30 5626 N 529.16 -1.33526 0.837174 0
M  V30 5627 C 530.09 -2.31764 0.284206 0
M  V30 5628 C 531.071 -1.58896 -0.607142 0
M  V30 5629 O 532.256 -1.86798 -0.531047 0
M  V30 5630 C 529.386 -3.43029 -0.542962 0
M  V30 5631 C 528.34 -4.27255 0.252451 0
M  V30 5632 C 527.666 -5.3012 -0.69836 0
M  V30 5633 C 528.966 -5.01229 1.46858 0
M  V30 5634 H 530.66 -2.78262 1.10502 0
M  V30 5635 H 528.206 -1.3378 0.532812 0
M  V30 5636 H 530.159 -4.1078 -0.940096 0
M  V30 5637 H 528.883 -2.95216 -1.39697 0
M  V30 5638 H 527.542 -3.61127 0.631124 0
M  V30 5639 H 527.19 -4.78564 -1.54872 0
M  V30 5640 H 526.89 -5.87353 -0.170274 0
M  V30 5641 H 528.414 -6.00737 -1.09305 0
M  V30 5642 H 529.828 -5.61756 1.14469 0
M  V30 5643 H 528.225 -5.68104 1.93333 0
M  V30 5644 H 529.295 -4.301 2.23924 0
M  V30 5645 N 530.638 -0.59345 -1.46 0
M  V30 5646 C 531.601 0.123538 -2.28867 0
M  V30 5647 C 532.601 0.808628 -1.38989 0
M  V30 5648 O 533.791 0.658945 -1.61256 0
M  V30 5649 C 530.923 1.1847 -3.19653 0
M  V30 5650 H 532.116 -0.604843 -2.93737 0
M  V30 5651 H 529.669 -0.351875 -1.52288 0
M  V30 5652 H 530.404 1.94431 -2.59552 0
M  V30 5653 H 530.189 0.69783 -3.8584 0
M  V30 5654 H 531.679 1.68726 -3.81997 0
M  V30 5655 N 532.116 1.54067 -0.331816 0
M  V30 5656 C 533.064 2.26105 0.54582 0
M  V30 5657 C 534.058 1.27816 1.11173 0
M  V30 5658 O 535.264 1.45565 1.05882 0
M  V30 5659 H 531.639 0.726363 0.194683 0
M  V30 5660 H 533.61 2.98282 -0.083931 0
M  V30 5661 C 532.359 3.03814 1.69092 0
M  V30 5662 H 531.682 3.79269 1.26473 0
M  V30 5663 H 533.122 3.57453 2.28043 0
M  V30 5664 C 531.581 2.12606 2.61343 0
M  V30 5665 O 532.111 1.71437 3.6328 0
M  V30 5666 N 530.317 1.77925 2.29763 0
M  V30 5667 H 529.864 2.11602 1.46909 0
M  V30 5668 H 529.822 1.1718 2.91747 0
M  V30 5669 N 533.594 0.0601682 1.57485 0
M  V30 5670 C 534.557 -0.896373 2.10945 0
M  V30 5671 C 535.557 -1.23402 1.03095 0
M  V30 5672 O 536.747 -1.16921 1.29132 0
M  V30 5673 C 533.879 -2.20346 2.60116 0
M  V30 5674 H 535.072 -0.432778 2.96761 0
M  V30 5675 H 532.625 -0.188372 1.55161 0
M  V30 5676 H 533.36 -2.71268 1.7772 0
M  V30 5677 H 533.145 -1.9714 3.38937 0
M  V30 5678 H 534.635 -2.88846 3.01592 0
M  V30 5679 N 535.072 -1.5615 -0.213296 0
M  V30 5680 C 536.321 -1.78743 -0.93455 0
M  V30 5681 C 536.634 -0.630199 -1.8517 0
M  V30 5682 O 537.84 -0.739966 -2.61222 0
M  V30 5683 C 536.296 -3.16571 -1.71203 0
M  V30 5684 C 535.904 -4.40043 -0.840617 0
M  V30 5685 C 537.648 -3.48485 -2.42401 0
M  V30 5686 C 535.555 -5.68895 -1.61592 0
M  V30 5687 H 534.485 -0.666426 -0.352692 0
M  V30 5688 H 537.136 -1.82532 -0.188227 0
M  V30 5689 H 535.518 -3.06981 -2.50157 0
M  V30 5690 H 536.692 -4.6071 -0.0910326 0
M  V30 5691 H 535.007 -4.15706 -0.240365 0
M  V30 5692 H 537.604 -4.41983 -3.00924 0
M  V30 5693 H 537.947 -2.71371 -3.15695 0
M  V30 5694 H 538.48 -3.59442 -1.7043 0
M  V30 5695 H 535.219 -6.48925 -0.926106 0
M  V30 5696 H 534.739 -5.52275 -2.33991 0
M  V30 5697 H 536.418 -6.09365 -2.17447 0
M  V30 5698 N 536.55 0.480323 -1.50102 0
M  V30 5699 C 537.827 1.24159 -1.51142 0
M  V30 5700 C 538.207 2.09605 -0.250818 0
M  V30 5701 O 537.555 2.15274 0.766118 0
M  V30 5702 C 537.765 2.08057 -2.80202 0
M  V30 5703 C 539.113 2.66556 -3.30504 0
M  V30 5704 O 540.137 2.18308 -2.81461 0
M  V30 5705 O 538.996 3.54442 -4.15973 0
M  V30 5706 H 536.09 0.562928 -0.605839 0
M  V30 5707 H 538.636 0.492899 -1.62384 0
M  V30 5708 H 537.408 1.45032 -3.6343 0
M  V30 5709 H 537.031 2.90079 -2.71919 0
M  V30 5710 N 538.028 1.39524 0.732853 0
M  V30 5711 C 538.991 1.38189 1.82857 0
M  V30 5712 C 539.991 0.278624 1.58368 0
M  V30 5713 O 541.181 0.536639 1.65728 0
M  V30 5714 C 538.313 1.15661 3.2068 0
M  V30 5715 H 539.506 2.35692 1.85444 0
M  V30 5716 H 537.059 1.2512 0.936728 0
M  V30 5717 H 537.794 0.188482 3.23752 0
M  V30 5718 H 537.579 1.95559 3.39852 0
M  V30 5719 H 539.069 1.17472 4.00737 0
M  V30 5720 N 539.506 -0.963266 1.24736 0
M  V30 5721 C 540.453 -2.05857 1.04363 0
M  V30 5722 C 541.423 -1.6604 -0.0444951 0
M  V30 5723 O 542.608 -1.90477 0.110999 0
M  V30 5724 C 539.748 -3.38745 0.659235 0
M  V30 5725 C 538.861 -3.9173 1.82131 0
M  V30 5726 C 537.996 -5.12906 1.38208 0
M  V30 5727 C 537.035 -5.58098 2.51382 0
M  V30 5728 N 536.172 -6.7049 2.08295 0
M  V30 5729 H 541.012 -2.22616 1.98107 0
M  V30 5730 H 538.549 -1.09103 0.986661 0
M  V30 5731 H 540.507 -4.15107 0.417371 0
M  V30 5732 H 539.137 -3.21898 -0.241201 0
M  V30 5733 H 538.189 -3.11966 2.17672 0
M  V30 5734 H 539.501 -4.21225 2.67153 0
M  V30 5735 H 538.655 -5.96657 1.09935 0
M  V30 5736 H 537.394 -4.85105 0.502456 0
M  V30 5737 H 536.399 -4.72917 2.80409 0
M  V30 5738 H 537.624 -5.87911 3.39909 0
M  V30 5739 H 535.57 -6.44416 1.22737 0
M  V30 5740 H 535.487 -6.99458 2.86869 0
M  V30 5741 H 536.755 -7.57672 1.83175 0
M  V30 5742 N 540.985 -1.06182 -1.16461 0
M  V30 5743 C 542.21 -0.798599 -1.91408 0
M  V30 5744 C 542.635 0.640987 -1.76842 0
M  V30 5745 O 541.993 1.44652 -1.09296 0
M  V30 5746 C 542.041 -1.19665 -3.40165 0
M  V30 5747 O 541.145 -0.334768 -4.11039 0
M  V30 5748 H 540.486 -0.291961 -0.596368 0
M  V30 5749 H 543.016 -1.41732 -1.47557 0
M  V30 5750 H 543.026 -1.16772 -3.90933 0
M  V30 5751 H 541.701 -2.24526 -3.50087 0
M  V30 5752 H 540.278 -0.425168 -3.70468 0
M  V30 5753 N 542.463 1.3308 -0.844243 0
M  V30 5754 C 543.874 1.7992 -0.498566 0
M  V30 5755 C 544.225 1.69808 0.982834 0
M  V30 5756 O 543.35 1.25051 1.7661 0
M  V30 5757 C 543.945 3.26677 -0.898204 0
M  V30 5758 C 542.504 3.71513 -0.604583 0
M  V30 5759 C 541.651 2.54393 -1.10362 0
M  V30 5760 H 544.602 1.20526 -1.03244 0
M  V30 5761 H 544.623 3.79918 -0.21039 0
M  V30 5762 H 544.135 3.34004 -1.97643 0
M  V30 5763 H 542.236 3.69708 0.46335 0
M  V30 5764 H 542.349 4.64755 -1.16358 0
M  V30 5765 H 540.713 2.49246 -0.524273 0
M  V30 5766 H 541.496 2.6448 -2.18873 0
M  V30 5767 N 543.941 0.601185 1.45683 0
M  V30 5768 C 545.187 0.102425 2.03142 0
M  V30 5769 C 545.542 -1.25066 1.46207 0
M  V30 5770 O 544.835 -1.81126 0.624806 0
M  V30 5771 C 545.029 -0.00222425 3.574 0
M  V30 5772 C 544.858 1.33917 4.29298 0
M  V30 5773 C 543.628 1.91818 4.67476 0
M  V30 5774 C 545.826 2.26652 4.61664 0
M  V30 5775 N 543.808 3.19504 5.24204 0
M  V30 5776 C 545.179 3.38933 5.19157 0
M  V30 5777 C 547.234 2.26103 4.43601 0
M  V30 5778 C 545.937 4.50823 5.60492 0
M  V30 5779 C 547.963 3.37036 4.85964 0
M  V30 5780 C 547.325 4.48039 5.43545 0
M  V30 5781 H 543.424 0.0806974 0.777825 0
M  V30 5782 H 546.008 0.798134 1.77589 0
M  V30 5783 H 544.179 -0.66714 3.82627 0
M  V30 5784 H 545.911 -0.507058 4.01511 0
M  V30 5785 H 542.666 1.45097 4.50826 0
M  V30 5786 H 543.09 3.84705 5.57073 0
M  V30 5787 H 547.732 1.41547 3.98402 0
M  V30 5788 H 545.45 5.36108 6.0466 0
M  V30 5789 H 549.036 3.37752 4.73725 0
M  V30 5790 H 547.916 5.32459 5.75723 0
M  V30 5791 N 545.419 -1.53889 0.339982 0
M  V30 5792 C 546.647 -2.05271 -0.259114 0
M  V30 5793 C 547.062 -1.21517 -1.44496 0
M  V30 5794 O 546.419 -0.24966 -1.80784 0
M  V30 5795 C 546.47 -3.55092 -0.677634 0
M  V30 5796 O 546.191 -4.35667 0.461051 0
M  V30 5797 C 547.692 -4.22631 -1.33782 0
M  V30 5798 H 544.912 -0.669085 -0.0506566 0
M  V30 5799 H 547.456 -1.9852 0.490935 0
M  V30 5800 H 545.611 -3.62077 -1.37763 0
M  V30 5801 H 546.025 -5.24343 0.128144 0
M  V30 5802 H 547.499 -5.28861 -1.58145 0
M  V30 5803 H 547.976 -3.74758 -2.29027 0
M  V30 5804 H 548.582 -4.19829 -0.679957 0
M  V30 5805 N 546.897 -0.0685191 -1.57451 0
M  V30 5806 C 547.844 0.899861 -2.12535 0
M  V30 5807 C 548.814 1.29749 -1.03703 0
M  V30 5808 O 549.999 1.38392 -1.31348 0
M  V30 5809 C 547.139 2.16328 -2.6888 0
M  V30 5810 C 546.252 1.81857 -3.91857 0
M  V30 5811 C 545.387 3.02786 -4.36457 0
M  V30 5812 C 544.426 2.64317 -5.5209 0
M  V30 5813 N 543.563 3.77994 -5.91663 0
M  V30 5814 H 548.403 0.423243 -2.94979 0
M  V30 5815 H 545.94 0.197268 -1.45771 0
M  V30 5816 H 547.898 2.90281 -2.99655 0
M  V30 5817 H 546.528 2.61536 -1.89206 0
M  V30 5818 H 545.58 0.979808 -3.67565 0
M  V30 5819 H 546.892 1.49553 -4.75852 0
M  V30 5820 H 546.046 3.85021 -4.68875 0
M  V30 5821 H 544.785 3.38281 -3.51308 0
M  V30 5822 H 543.79 1.80503 -5.19325 0
M  V30 5823 H 545.015 2.29995 -6.38967 0
M  V30 5824 H 542.961 4.13258 -5.09464 0
M  V30 5825 H 542.878 3.49447 -6.7039 0
M  V30 5826 H 544.146 4.60818 -6.28703 0
M  V30 5827 N 548.375 1.56261 0.205012 0
M  V30 5828 C 549.623 1.79684 0.925096 0
M  V30 5829 C 549.944 0.63989 1.84202 0
M  V30 5830 O 549.214 -0.342345 1.92885 0
M  V30 5831 H 547.794 0.662774 0.344587 0
M  V30 5832 H 550.456 1.93734 0.212899 0
M  V30 5833 H 549.552 2.72467 1.52211 0
M  V30 5834 N 549.853 -0.472356 1.50355 0
M  V30 5835 C 550.803 -1.56809 1.65514 0
M  V30 5836 C 551.787 -1.5261 0.509801 0
M  V30 5837 O 552.979 -1.59655 0.764145 0
M  V30 5838 C 550.108 -2.9526 1.75146 0
M  V30 5839 C 549.194 -3.04348 2.95353 0
M  V30 5840 N 549.585 -2.83253 4.19048 0
M  V30 5841 C 547.883 -3.35482 2.93884 0
M  V30 5842 C 548.584 -2.97273 5.00003 0
M  V30 5843 N 547.56 -3.27418 4.33934 0
M  V30 5844 H 551.362 -1.39197 2.58846 0
M  V30 5845 H 548.876 -0.67906 1.47521 0
M  V30 5846 H 550.873 -3.74044 1.8411 0
M  V30 5847 H 549.533 -3.1392 0.829717 0
M  V30 5848 H 550.544 -2.5886 4.48567 0
M  V30 5849 H 547.221 -3.60138 2.11204 0
M  V30 5850 H 548.611 -2.85214 6.08361 0
M  V30 5851 N 551.331 -1.39911 -0.725443 0
M  V30 5852 C 552.556 -1.41137 -1.5197 0
M  V30 5853 C 552.981 -0.010262 -1.88097 0
M  V30 5854 O 552.339 0.979184 -1.52583 0
M  V30 5855 C 552.387 -2.2994 -2.77777 0
M  V30 5856 O 551.491 -1.73586 -3.74088 0
M  V30 5857 H 550.832 -0.480219 -0.458569 0
M  V30 5858 H 553.362 -1.84023 -0.894249 0
M  V30 5859 H 553.372 -2.44785 -3.26411 0
M  V30 5860 H 552.047 -3.31759 -2.50816 0
M  V30 5861 H 550.624 -1.68035 -3.32894 0
M  V30 5862 N 552.809 0.956637 -1.25245 0
M  V30 5863 C 553.719 2.0868 -1.0719 0
M  V30 5864 C 554.735 1.73997 -0.00959074 0
M  V30 5865 O 555.911 2.00301 -0.210104 0
M  V30 5866 C 552.976 3.39754 -0.690526 0
M  V30 5867 C 552.037 3.88316 -1.83055 0
M  V30 5868 C 551.27 5.13134 -1.46728 0
M  V30 5869 O 551.493 5.6925 -0.362029 0
M  V30 5870 O 550.427 5.56356 -2.29677 0
M  V30 5871 H 554.253 2.26813 -2.01965 0
M  V30 5872 H 551.838 1.07098 -1.04165 0
M  V30 5873 H 553.72 4.18543 -0.489871 0
M  V30 5874 H 552.395 3.22896 0.227981 0
M  V30 5875 H 551.302 3.1054 -2.08604 0
M  V30 5876 H 552.635 4.09669 -2.72822 0
M  V30 5877 N 554.287 1.06798 1.15896 0
M  V30 5878 C 555.703 0.792423 1.38538 0
M  V30 5879 C 555.903 -0.60592 1.92174 0
M  V30 5880 O 554.959 -1.36561 2.12385 0
M  V30 5881 C 556.272 1.86157 2.36149 0
M  V30 5882 C 557.82 1.88567 2.49823 0
M  V30 5883 C 558.295 2.9455 3.5072 0
M  V30 5884 N 559.786 2.93616 3.58251 0
M  V30 5885 C 560.521 3.72267 4.36125 0
M  V30 5886 N 560.017 4.60751 5.17379 0
M  V30 5887 N 561.81 3.60637 4.31158 0
M  V30 5888 H 553.961 1.96993 0.794198 0
M  V30 5889 H 556.224 0.853942 0.411688 0
M  V30 5890 H 555.93 2.86603 2.03843 0
M  V30 5891 H 555.804 1.71692 3.3586 0
M  V30 5892 H 558.191 0.887765 2.8143 0
M  V30 5893 H 558.272 2.0711 1.5013 0
M  V30 5894 H 557.916 3.94537 3.19849 0
M  V30 5895 H 557.846 2.73255 4.50155 0
M  V30 5896 H 560.337 2.29472 3.00252 0
M  V30 5897 H 560.65 5.17408 5.74028 0
M  V30 5898 H 558.995 4.64803 5.16704 0
M  V30 5899 H 562.186 2.90892 3.66742 0
M  V30 5900 H 562.359 4.22176 4.91601 0
M  V30 5901 N 555.766 -1.3263 0.851289 0
M  V30 5902 C 557.012 -1.9766 0.453694 0
M  V30 5903 C 557.345 -1.67225 -0.987396 0
M  V30 5904 O 556.62 -0.958693 -1.69232 0
M  V30 5905 C 556.903 -3.5344 0.68936 0
M  V30 5906 C 556.756 -3.93517 2.17862 0
M  V30 5907 C 558.075 -4.39866 0.143555 0
M  V30 5908 H 555.194 -0.717989 0.166314 0
M  V30 5909 H 557.836 -1.57068 1.06909 0
M  V30 5910 H 555.986 -3.88147 0.165546 0
M  V30 5911 H 557.658 -3.69006 2.76826 0
M  V30 5912 H 555.901 -3.42798 2.65841 0
M  V30 5913 H 556.572 -5.02065 2.29422 0
M  V30 5914 H 559.048 -4.11875 0.591451 0
M  V30 5915 H 557.924 -5.47858 0.338043 0
M  V30 5916 H 558.185 -4.31696 -0.953466 0
M  V30 5917 N 557.244 -0.608902 -1.45362 0
M  V30 5918 C 558.177 0.158059 -2.27652 0
M  V30 5919 C 559.155 0.872397 -1.37215 0
M  V30 5920 O 560.339 0.881002 -1.66645 0
M  V30 5921 C 557.466 1.22896 -3.15617 0
M  V30 5922 C 556.512 0.617607 -4.22005 0
M  V30 5923 S 557.345 -0.575518 -5.32398 0
M  V30 5924 C 558.501 0.495938 -6.23932 0
M  V30 5925 H 558.734 -0.540095 -2.92353 0
M  V30 5926 H 556.267 -0.396456 -1.49223 0
M  V30 5927 H 558.225 1.84195 -3.66855 0
M  V30 5928 H 556.886 1.89919 -2.50179 0
M  V30 5929 H 556.079 1.42341 -4.83482 0
M  V30 5930 H 555.681 0.0797273 -3.73915 0
M  V30 5931 H 557.973 1.37465 -6.63408 0
M  V30 5932 H 558.916 -0.0827108 -7.08052 0
M  V30 5933 H 559.324 0.811856 -5.58631 0
M  V30 5934 N 558.722 1.53707 -0.348139 0
M  V30 5935 C 559.672 2.2193 0.522592 0
M  V30 5936 C 560.656 1.20831 1.06248 0
M  V30 5937 O 561.848 1.46357 0.995415 0
M  V30 5938 C 558.977 2.99904 1.6707 0
M  V30 5939 C 558.063 4.08364 1.14454 0
M  V30 5940 N 558.454 5.04656 0.339958 0
M  V30 5941 C 556.752 4.22757 1.421 0
M  V30 5942 C 557.453 5.81675 0.0538806 0
M  V30 5943 N 556.429 5.39739 0.646776 0
M  V30 5944 H 560.231 2.93733 -0.099135 0
M  V30 5945 H 557.745 1.61656 -0.15524 0
M  V30 5946 H 559.742 3.47284 2.30651 0
M  V30 5947 H 558.402 2.29629 2.29566 0
M  V30 5948 H 559.413 5.17896 -0.0193552 0
M  V30 5949 H 556.09 3.63704 2.05002 0
M  V30 5950 H 557.48 6.69256 -0.595443 0
M  V30 5951 N 560.2 0.0768682 1.57412 0
M  V30 5952 C 561.449 -0.590679 1.92857 0
M  V30 5953 C 561.762 -1.70461 0.959293 0
M  V30 5954 O 562.968 -2.43207 1.20675 0
M  V30 5955 C 561.424 -1.10204 3.42612 0
M  V30 5956 C 561.032 -0.0188447 4.47996 0
M  V30 5957 C 562.776 -1.74336 3.87049 0
M  V30 5958 C 560.683 -0.544536 5.88888 0
M  V30 5959 H 559.613 -0.224411 0.71983 0
M  V30 5960 H 562.264 0.149924 1.82887 0
M  V30 5961 H 560.646 -1.89577 3.47673 0
M  V30 5962 H 561.82 0.755936 4.54557 0
M  V30 5963 H 560.135 0.526555 4.13057 0
M  V30 5964 H 562.732 -2.14708 4.89699 0
M  V30 5965 H 563.075 -2.60537 3.24694 0
M  V30 5966 H 563.608 -1.01577 3.84613 0
M  V30 5967 H 560.347 0.280426 6.549 0
M  V30 5968 H 559.867 -1.28673 5.85836 0
M  V30 5969 H 561.546 -1.01933 6.3892 0
M  V30 5970 N 561.678 -1.56367 -0.196722 0
M  V30 5971 C 562.903 -1.84991 -0.937714 0
M  V30 5972 C 563.328 -0.660244 -1.76132 0
M  V30 5973 O 562.686 0.390967 -1.77034 0
M  V30 5974 C 562.734 -3.11828 -1.81096 0
M  V30 5975 O 561.838 -2.92266 -2.90955 0
M  V30 5976 H 561.179 -0.609193 -0.264159 0
M  V30 5977 H 563.709 -2.03595 -0.202529 0
M  V30 5978 H 563.719 -3.42579 -2.21594 0
M  V30 5979 H 562.394 -3.98037 -1.2058 0
M  V30 5980 H 560.971 -2.72809 -2.54224 0
M  V30 5981 N 563.156 0.464375 -1.50603 0
M  V30 5982 C 564.384 1.23907 -1.65695 0
M  V30 5983 C 564.799 1.85658 -0.343027 0
M  V30 5984 O 564.156 1.69529 0.675739 0
M  V30 5985 C 564.207 2.3429 -2.75301 0
M  V30 5986 O 563.928 1.7507 -4.01599 0
M  V30 5987 C 565.429 3.25051 -3.01424 0
M  V30 5988 H 562.649 0.374485 -0.556778 0
M  V30 5989 H 565.193 0.55353 -1.96866 0
M  V30 5990 H 563.348 2.98607 -2.46804 0
M  V30 5991 H 563.762 2.47812 -4.62266 0
M  V30 5992 H 565.236 3.98699 -3.81763 0
M  V30 5993 H 565.713 3.84227 -2.12758 0
M  V30 5994 H 566.319 2.66463 -3.31477 0
M  V30 5995 N 564.634 1.40294 0.718013 0
M  V30 5996 C 566.05 1.2227 1.02577 0
M  V30 5997 C 566.25 0.0961976 2.0127 0
M  V30 5998 O 565.306 -0.546695 2.46511 0
M  V30 5999 C 566.619 2.56348 1.57182 0
M  V30 6000 C 568.167 2.6334 1.69178 0
M  V30 6001 C 568.642 3.9768 2.27188 0
M  V30 6002 N 570.133 3.99409 2.34578 0
M  V30 6003 C 570.868 5.00141 2.8044 0
M  V30 6004 N 570.364 6.11268 3.26073 0
M  V30 6005 N 572.157 4.87511 2.79802 0
M  V30 6006 H 564.308 2.12304 0.0637899 0
M  V30 6007 H 566.571 0.943632 0.0909036 0
M  V30 6008 H 566.277 3.3942 0.921262 0
M  V30 6009 H 566.151 2.77266 2.55741 0
M  V30 6010 H 568.538 1.80641 2.33351 0
M  V30 6011 H 568.619 2.46255 0.692247 0
M  V30 6012 H 568.263 4.80817 1.63638 0
M  V30 6013 H 568.193 4.12093 3.27852 0
M  V30 6014 H 570.684 3.19162 2.02346 0
M  V30 6015 H 570.997 6.84023 3.59628 0
M  V30 6016 H 569.342 6.14837 3.24038 0
M  V30 6017 H 572.533 3.9979 2.43487 0
M  V30 6018 H 572.706 5.66158 3.15228 0
M  V30 6019 N 566.112 -0.949982 1.2575 0
M  V30 6020 C 567.361 -1.68956 1.10168 0
M  V30 6021 C 567.674 -1.92327 -0.356309 0
M  V30 6022 O 568.88 -2.64026 -0.632657 0
M  V30 6023 C 567.336 -3.04196 1.92336 0
M  V30 6024 C 566.944 -2.88603 3.42655 0
M  V30 6025 C 568.688 -3.81904 1.85336 0
M  V30 6026 C 566.595 -4.19262 4.17101 0
M  V30 6027 H 565.525 -0.633645 0.408668 0
M  V30 6028 H 568.176 -1.05719 1.49986 0
M  V30 6029 H 566.558 -3.68363 1.45344 0
M  V30 6030 H 567.732 -2.3334 3.97353 0
M  V30 6031 H 566.047 -2.24345 3.50796 0
M  V30 6032 H 568.644 -4.78688 2.38248 0
M  V30 6033 H 568.987 -4.08099 0.822226 0
M  V30 6034 H 569.52 -3.24495 2.30104 0
M  V30 6035 H 566.259 -3.98254 5.20648 0
M  V30 6036 H 565.779 -4.74273 3.67186 0
M  V30 6037 H 567.458 -4.87775 4.25071 0
M  V30 6038 N 567.59 -1.07411 -1.15328 0
M  V30 6039 C 568.553 -0.698914 -2.18284 0
M  V30 6040 C 569.553 0.261149 -1.58665 0
M  V30 6041 O 570.743 0.0420277 -1.74149 0
M  V30 6042 C 567.875 -0.0302427 -3.40887 0
M  V30 6043 H 569.068 -1.61045 -2.52991 0
M  V30 6044 H 566.621 -0.870724 -1.298 0
M  V30 6045 H 567.356 0.893505 -3.11748 0
M  V30 6046 H 567.141 -0.720759 -3.85419 0
M  V30 6047 H 568.631 0.21759 -4.17033 0
M  V30 6048 N 569.068 1.32177 -0.85831 0
M  V30 6049 C 570.015 2.28794 -0.303607 0
M  V30 6050 C 570.985 1.55213 0.591453 0
M  V30 6051 O 572.17 1.83418 0.525585 0
M  V30 6052 C 569.31 3.41475 0.49889 0
M  V30 6053 C 568.423 4.2993 -0.422373 0
M  V30 6054 C 567.558 5.29743 0.393111 0
M  V30 6055 C 566.597 6.09842 -0.525317 0
M  V30 6056 N 565.734 7.01643 0.253208 0
M  V30 6057 H 570.574 2.75631 -1.13276 0
M  V30 6058 H 568.111 1.35606 -0.570026 0
M  V30 6059 H 570.069 4.05531 0.979826 0
M  V30 6060 H 568.699 2.95779 1.29284 0
M  V30 6061 H 567.751 3.66422 -1.02171 0
M  V30 6062 H 569.063 4.85899 -1.12709 0
M  V30 6063 H 568.217 5.9942 0.937056 0
M  V30 6064 H 566.956 4.744 1.13117 0
M  V30 6065 H 565.961 5.39066 -1.08112 0
M  V30 6066 H 567.186 6.6727 -1.26205 0
M  V30 6067 H 565.132 6.48725 0.974295 0
M  V30 6068 H 565.049 7.54981 -0.392398 0
M  V30 6069 H 566.317 7.756 0.778761 0
M  V30 6070 N 570.547 0.616602 1.45037 0
M  V30 6071 C 571.457 -0.0985401 2.34393 0
M  V30 6072 C 572.473 -0.850971 1.51771 0
M  V30 6073 O 573.649 -0.806521 1.84546 0
M  V30 6074 C 570.714 -1.07748 3.29532 0
M  V30 6075 C 569.775 -0.326022 4.2806 0
M  V30 6076 C 569.008 -1.25833 5.18654 0
M  V30 6077 O 569.231 -2.49652 5.12864 0
M  V30 6078 O 568.165 -0.750512 5.97203 0
M  V30 6079 H 571.991 0.636016 2.96966 0
M  V30 6080 H 569.576 0.376832 1.44569 0
M  V30 6081 H 571.458 -1.64107 3.88133 0
M  V30 6082 H 570.133 -1.79291 2.69512 0
M  V30 6083 H 569.04 0.280253 3.73049 0
M  V30 6084 H 570.373 0.349091 4.9096 0
M  V30 6085 N 572.025 -1.5352 0.356285 0
M  V30 6086 C 572.958 -2.2177 -0.537913 0
M  V30 6087 C 573.936 -1.20626 -1.09033 0
M  V30 6088 O 575.12 -1.49494 -1.1482 0
M  V30 6089 C 572.247 -2.90513 -1.74126 0
M  V30 6090 C 571.293 -4.05652 -1.31715 0
M  V30 6091 S 572.126 -5.34505 -0.326236 0
M  V30 6092 C 573.282 -6.06757 -1.53612 0
M  V30 6093 H 573.515 -2.97271 0.0417411 0
M  V30 6094 H 571.048 -1.53761 0.140372 0
M  V30 6095 H 573.006 -3.30735 -2.43155 0
M  V30 6096 H 571.667 -2.14754 -2.29215 0
M  V30 6097 H 570.86 -4.52733 -2.21471 0
M  V30 6098 H 570.462 -3.67272 -0.706183 0
M  V30 6099 H 572.754 -6.30924 -2.46863 0
M  V30 6100 H 573.697 -6.99395 -1.10687 0
M  V30 6101 H 574.105 -5.3708 -1.73796 0
M  V30 6102 N 573.503 -0.0852151 -1.57369 0
M  V30 6103 C 574.751 0.579658 -1.93609 0
M  V30 6104 C 575.072 1.69332 -0.967043 0
M  V30 6105 O 574.342 1.95892 -0.0174215 0
M  V30 6106 H 572.922 0.217113 -0.714752 0
M  V30 6107 H 575.584 -0.146226 -1.94351 0
M  V30 6108 H 574.68 0.996276 -2.95771 0
M  V30 6109 N 574.981 1.5647 0.188427 0
M  V30 6110 C 575.911 1.98101 1.23606 0
M  V30 6111 C 576.892 0.853961 1.47111 0
M  V30 6112 O 578.077 1.11879 1.58735 0
M  V30 6113 C 575.207 2.32624 2.57882 0
M  V30 6114 C 574.161 3.48129 2.48978 0
M  V30 6115 C 573.487 3.68347 3.87588 0
M  V30 6116 C 574.787 4.82112 2.00911 0
M  V30 6117 H 576.481 2.85864 0.890068 0
M  V30 6118 H 574.027 1.37532 0.426714 0
M  V30 6119 H 575.98 2.60343 3.3136 0
M  V30 6120 H 574.704 1.41751 2.94235 0
M  V30 6121 H 573.363 3.20511 1.77956 0
M  V30 6122 H 573.011 2.74793 4.21305 0
M  V30 6123 H 572.711 4.46055 3.82503 0
M  V30 6124 H 574.235 3.98449 4.62678 0
M  V30 6125 H 575.649 5.08819 2.64151 0
M  V30 6126 H 574.046 5.63337 2.06814 0
M  V30 6127 H 575.116 4.75249 0.96262 0
M  V30 6128 N 576.459 -0.456382 1.50847 0
M  V30 6129 C 577.684 -1.2349 1.66628 0
M  V30 6130 C 578.109 -1.84715 0.355254 0
M  V30 6131 O 577.467 -1.67961 -0.682559 0
M  V30 6132 C 577.515 -2.30865 2.77009 0
M  V30 6133 O 576.619 -3.35882 2.39285 0
M  V30 6134 H 575.96 -0.36266 0.556214 0
M  V30 6135 H 578.49 -0.541374 1.97308 0
M  V30 6136 H 578.5 -2.75949 3.00526 0
M  V30 6137 H 577.175 -1.85677 3.72152 0
M  V30 6138 H 575.752 -2.96406 2.26269 0
M  V30 6139 N 577.937 -1.40673 -0.710563 0
M  V30 6140 C 578.847 -1.43663 -1.85467 0
M  V30 6141 C 579.863 -0.328721 -1.70867 0
M  V30 6142 O 581.039 -0.574098 -1.93044 0
M  V30 6143 C 578.104 -1.30226 -3.21313 0
M  V30 6144 C 577.165 -2.51204 -3.48131 0
M  V30 6145 C 576.398 -2.38398 -4.77495 0
M  V30 6146 O 576.621 -1.40048 -5.5294 0
M  V30 6147 O 575.555 -3.2787 -5.04762 0
M  V30 6148 H 579.381 -2.40156 -1.859 0
M  V30 6149 H 576.966 -1.22049 -0.861652 0
M  V30 6150 H 578.848 -1.2496 -4.02446 0
M  V30 6151 H 577.523 -0.368419 -3.21597 0
M  V30 6152 H 576.43 -2.62048 -2.66987 0
M  V30 6153 H 577.763 -3.43366 -3.52648 0
M  V30 6154 N 579.415 0.9433 -1.26252 0
M  V30 6155 C 580.347 2.04542 -1.03417 0
M  V30 6156 C 581.36 1.62799 0.0046911 0
M  V30 6157 O 582.549 1.76944 -0.235146 0
M  V30 6158 C 579.649 3.34511 -0.543671 0
M  V30 6159 C 578.822 4.05033 -1.65128 0
M  V30 6160 C 577.881 5.13273 -1.1592 0
M  V30 6161 O 576.907 5.38095 -1.85586 0
M  V30 6162 N 578.109 5.805 -0.00649279 0
M  V30 6163 H 580.874 2.24699 -1.98319 0
M  V30 6164 H 578.435 1.11264 -1.1761 0
M  V30 6165 H 580.427 4.04212 -0.198703 0
M  V30 6166 H 578.997 3.11042 0.311711 0
M  V30 6167 H 578.217 3.29275 -2.16729 0
M  V30 6168 H 579.505 4.48903 -2.39508 0
M  V30 6169 H 578.903 5.62767 0.575347 0
M  V30 6170 H 577.46 6.51201 0.279416 0
M  V30 6171 N 580.893 1.08022 1.14757 0
M  V30 6172 C 581.803 0.718292 2.23333 0
M  V30 6173 C 582.819 -0.273477 1.71837 0
M  V30 6174 O 583.995 -0.118406 2.01052 0
M  V30 6175 C 581.06 0.128855 3.4646 0
M  V30 6176 C 580.121 1.17473 4.12915 0
M  V30 6177 C 579.354 0.61333 5.30164 0
M  V30 6178 O 579.577 -0.568458 5.6756 0
M  V30 6179 O 578.511 1.3615 5.86299 0
M  V30 6180 H 582.337 1.62394 2.56636 0
M  V30 6181 H 579.922 0.853628 1.22611 0
M  V30 6182 H 581.804 -0.197249 4.20938 0
M  V30 6183 H 580.479 -0.750014 3.14891 0
M  V30 6184 H 579.386 1.5533 3.40328 0
M  V30 6185 H 580.719 2.02574 4.48581 0
M  V30 6186 N 582.371 -1.3172 0.865308 0
M  V30 6187 C 583.617 -1.97168 0.474633 0
M  V30 6188 C 583.95 -1.68263 -0.969604 0
M  V30 6189 O 583.225 -0.976588 -1.68205 0
M  V30 6190 C 583.508 -3.52689 0.726808 0
M  V30 6191 C 583.361 -3.91185 2.22024 0
M  V30 6192 C 584.68 -4.39689 0.190201 0
M  V30 6193 H 581.799 -0.716185 0.17392 0
M  V30 6194 H 584.441 -1.55925 1.08569 0
M  V30 6195 H 582.591 -3.8795 0.206705 0
M  V30 6196 H 584.263 -3.66049 2.80724 0
M  V30 6197 H 582.506 -3.3996 2.69462 0
M  V30 6198 H 583.177 -4.99604 2.34735 0
M  V30 6199 H 585.653 -4.11225 0.635103 0
M  V30 6200 H 584.529 -5.47469 0.396132 0
M  V30 6201 H 584.79 -4.32683 -0.907625 0
M  V30 6202 N 583.85 -0.624285 -1.44708 0
M  V30 6203 C 584.76 0.0861083 -2.34442 0
M  V30 6204 C 585.776 0.84291 -1.5222 0
M  V30 6205 O 586.952 0.796723 -1.84971 0
M  V30 6206 C 584.017 1.05999 -3.30099 0
M  V30 6207 C 583.077 0.303316 -4.28227 0
M  V30 6208 C 582.311 1.23081 -5.19314 0
M  V30 6209 O 582.534 2.46929 -5.14181 0
M  V30 6210 O 581.468 0.71883 -5.97592 0
M  V30 6211 H 585.293 -0.651756 -2.96624 0
M  V30 6212 H 582.879 -0.384493 -1.44368 0
M  V30 6213 H 584.76 1.62046 -3.88997 0
M  V30 6214 H 583.436 1.77859 -2.70459 0
M  V30 6215 H 582.343 -0.300033 -3.72895 0
M  V30 6216 H 583.676 -0.375123 -4.90768 0
M  V30 6217 N 585.328 1.53329 -0.364422 0
M  V30 6218 C 586.26 2.23286 0.517293 0
M  V30 6219 C 587.273 1.24657 1.04711 0
M  V30 6220 O 588.462 1.50887 0.95369 0
M  V30 6221 C 585.562 2.91604 1.72685 0
M  V30 6222 C 584.735 4.1673 1.32873 0
M  V30 6223 C 583.794 4.68269 2.40022 0
M  V30 6224 O 582.82 5.31976 2.02461 0
M  V30 6225 N 584.022 4.45983 3.7159 0
M  V30 6226 H 586.787 2.99588 -0.0819391 0
M  V30 6227 H 584.348 1.60787 -0.189544 0
M  V30 6228 H 586.34 3.22992 2.4384 0
M  V30 6229 H 584.91 2.18763 2.23297 0
M  V30 6230 H 584.13 3.91657 0.447069 0
M  V30 6231 H 585.418 4.98078 1.03902 0
M  V30 6232 H 584.816 3.95077 4.04883 0
M  V30 6233 H 583.373 4.81924 4.38854 0
M  V30 6234 N 586.806 0.0935595 1.57322 0
M  V30 6235 C 588.055 -0.570191 1.93473 0
M  V30 6236 C 588.368 -1.69434 0.977318 0
M  V30 6237 O 589.574 -2.41914 1.23248 0
M  V30 6238 C 588.03 -1.06564 3.43762 0
M  V30 6239 C 587.638 0.0286723 4.47991 0
M  V30 6240 C 589.382 -1.70221 3.88877 0
M  V30 6241 C 587.289 -0.482046 5.89432 0
M  V30 6242 H 586.219 -0.216764 0.72217 0
M  V30 6243 H 588.87 0.169313 1.82717 0
M  V30 6244 H 587.252 -1.85878 3.49664 0
M  V30 6245 H 588.426 0.804106 4.5373 0
M  V30 6246 H 586.741 0.570336 4.12476 0
M  V30 6247 H 589.338 -2.09502 4.91948 0
M  V30 6248 H 589.681 -2.57078 3.27439 0
M  V30 6249 H 590.214 -0.974919 3.85668 0
M  V30 6250 H 586.953 0.349871 6.54566 0
M  V30 6251 H 586.473 -1.22452 5.87167 0
M  V30 6252 H 588.152 -0.951508 6.39965 0
M  V30 6253 N 588.284 -1.56567 -0.180126 0
M  V30 6254 C 589.7 -1.50488 -0.531559 0
M  V30 6255 C 589.9 -0.796267 -1.851 0
M  V30 6256 O 588.956 -0.352978 -2.50021 0
M  V30 6257 C 590.269 -2.95201 -0.572456 0
M  V30 6258 C 591.817 -3.05957 -0.660264 0
M  V30 6259 C 592.292 -4.5211 -0.732135 0
M  V30 6260 N 593.783 -4.56322 -0.795262 0
M  V30 6261 C 594.518 -5.66742 -0.871296 0
M  V30 6262 N 594.014 -6.86815 -0.908708 0
M  V30 6263 N 595.807 -5.54691 -0.909639 0
M  V30 6264 H 587.958 -2.01045 0.685165 0
M  V30 6265 H 590.221 -0.915536 0.245962 0
M  V30 6266 H 589.927 -3.50165 0.328208 0
M  V30 6267 H 589.801 -3.49369 -1.422 0
M  V30 6268 H 592.188 -2.51032 -1.55136 0
M  V30 6269 H 592.269 -2.54888 0.215783 0
M  V30 6270 H 591.913 -5.07664 0.154664 0
M  V30 6271 H 591.843 -5.00926 -1.6242 0
M  V30 6272 H 594.334 -3.69868 -0.77499 0
M  V30 6273 H 594.647 -7.66718 -0.967654 0
M  V30 6274 H 592.992 -6.89443 -0.877132 0
M  V30 6275 H 596.183 -4.59804 -0.877353 0
M  V30 6276 H 596.356 -6.40768 -0.965434 0
M  V30 6277 N 589.762 0.448376 -1.51087 0
M  V30 6278 C 590.692 1.55102 -1.74544 0
M  V30 6279 C 591.673 1.59357 -0.594932 0
M  V30 6280 O 592.858 1.75261 -0.836491 0
M  V30 6281 C 589.988 2.93268 -1.86041 0
M  V30 6282 C 588.942 3.03877 -3.01402 0
M  V30 6283 C 588.268 4.43914 -2.98068 0
M  V30 6284 C 589.568 2.7898 -4.41551 0
M  V30 6285 H 591.262 1.35724 -2.66869 0
M  V30 6286 H 588.808 0.651498 -1.28419 0
M  V30 6287 H 590.761 3.70356 -2.01034 0
M  V30 6288 H 589.485 3.13853 -0.903548 0
M  V30 6289 H 588.144 2.29227 -2.86096 0
M  V30 6290 H 587.792 4.6145 -2.00182 0
M  V30 6291 H 587.492 4.51944 -3.75527 0
M  V30 6292 H 589.016 5.22991 -3.1514 0
M  V30 6293 H 590.43 3.45805 -4.57265 0
M  V30 6294 H 588.827 2.98431 -5.20633 0
M  V30 6295 H 589.897 1.74663 -4.5235 0
M  V30 6296 N 591.24 1.41047 0.703093 0
M  V30 6297 C 592.488 1.39723 1.4602 0
M  V30 6298 C 592.809 0.00461257 1.94999 0
M  V30 6299 O 592.079 -0.952292 1.71196 0
M  V30 6300 H 590.659 0.514281 0.541779 0
M  V30 6301 H 593.321 1.76217 0.832678 0
M  V30 6302 H 592.417 2.07982 2.32701 0
M  V30 6303 N 592.718 -0.936591 1.26751 0
M  V30 6304 C 593.966 -1.67998 1.12343 0
M  V30 6305 C 594.287 -1.92137 -0.332938 0
M  V30 6306 O 593.557 -1.52132 -1.23421 0
M  V30 6307 H 592.137 -0.622609 0.412756 0
M  V30 6308 H 594.799 -1.12509 1.59147 0
M  V30 6309 H 593.895 -2.65185 1.64571 0
M  V30 6310 N 594.196 -1.08629 -1.14182 0
M  V30 6311 C 595.126 -0.740003 -2.21464 0
M  V30 6312 C 596.107 0.278591 -1.67803 0
M  V30 6313 O 597.292 0.148461 -1.93632 0
M  V30 6314 C 594.422 -0.150952 -3.46972 0
M  V30 6315 C 593.376 -1.09815 -4.13672 0
M  V30 6316 C 592.702 -0.3712 -5.3341 0
M  V30 6317 C 594.002 -2.43722 -4.61949 0
M  V30 6318 H 595.696 -1.63697 -2.50686 0
M  V30 6319 H 593.242 -0.788526 -1.20492 0
M  V30 6320 H 595.195 0.103325 -4.21273 0
M  V30 6321 H 593.919 0.781164 -3.1712 0
M  V30 6322 H 592.578 -1.33756 -3.41328 0
M  V30 6323 H 592.226 0.564792 -4.99819 0
M  V30 6324 H 591.926 -1.00267 -5.78982 0
M  V30 6325 H 593.45 -0.12503 -6.10472 0
M  V30 6326 H 594.864 -2.24034 -5.27714 0
M  V30 6327 H 593.261 -3.02582 -5.18232 0
M  V30 6328 H 594.331 -3.05082 -3.76899 0
M  V30 6329 N 595.674 1.31259 -0.872281 0
M  V30 6330 C 596.604 2.30929 -0.345554 0
M  V30 6331 C 597.585 1.60449 0.5648 0
M  V30 6332 O 598.77 1.8814 0.481335 0
M  V30 6333 C 595.9 3.44348 0.451823 0
M  V30 6334 C 594.854 4.26435 -0.365641 0
M  V30 6335 C 594.18 5.31785 0.557562 0
M  V30 6336 C 595.48 4.97159 -1.60095 0
M  V30 6337 H 597.174 2.75234 -1.17841 0
M  V30 6338 H 594.72 1.3232 -0.568094 0
M  V30 6339 H 596.673 4.13128 0.830854 0
M  V30 6340 H 595.397 2.98816 1.31821 0
M  V30 6341 H 594.056 3.59326 -0.726649 0
M  V30 6342 H 593.704 4.82502 1.4213 0
M  V30 6343 H 593.404 5.87598 0.0144878 0
M  V30 6344 H 594.928 6.03424 0.933387 0
M  V30 6345 H 596.342 5.58523 -1.29323 0
M  V30 6346 H 594.739 5.62779 -2.08327 0
M  V30 6347 H 595.809 4.24012 -2.35249 0
M  V30 6348 N 597.152 0.631951 1.44375 0
M  V30 6349 C 598.102 -0.0943862 2.27805 0
M  V30 6350 C 599.086 -0.815359 1.38711 0
M  V30 6351 O 600.278 -0.701331 1.62513 0
M  V30 6352 C 597.407 -1.07472 3.26044 0
M  V30 6353 C 596.493 -0.353329 4.22626 0
M  V30 6354 N 596.884 0.618512 5.02004 0
M  V30 6355 C 595.182 -0.597662 4.41977 0
M  V30 6356 C 595.883 1.0448 5.7224 0
M  V30 6357 N 594.859 0.383413 5.42246 0
M  V30 6358 H 598.661 0.651672 2.86584 0
M  V30 6359 H 596.175 0.45752 1.55822 0
M  V30 6360 H 598.172 -1.60969 3.84571 0
M  V30 6361 H 596.832 -1.82107 2.68825 0
M  V30 6362 H 597.843 0.996356 5.08226 0
M  V30 6363 H 594.52 -1.32682 3.95856 0
M  V30 6364 H 595.91 1.84773 6.45994 0
M  V30 6365 N 598.631 -1.53133 0.372548 0
M  V30 6366 C 599.908 -1.93704 -0.271693 0
M  V30 6367 C 600.288 -1.30667 -1.65799 0
M  V30 6368 O 599.636 -0.46838 -2.23648 0
M  V30 6369 C 599.846 -3.47576 -0.314903 0
M  V30 6370 C 601.194 -4.20998 -0.551912 0
M  V30 6371 O 602.218 -3.53994 -0.39582 0
M  V30 6372 O 601.077 -5.39748 -0.85639 0
M  V30 6373 H 598.171 -0.810457 -0.164586 0
M  V30 6374 H 600.717 -1.6427 0.425838 0
M  V30 6375 H 599.489 -3.85749 0.656792 0
M  V30 6376 H 599.112 -3.83264 -1.05804 0
M  V30 6377 N 600.109 -0.101901 -1.5727 0
M  V30 6378 C 601.358 0.559922 -1.93772 0
M  V30 6379 C 601.671 1.68913 -0.98629 0
M  V30 6380 O 602.877 2.41256 -1.24529 0
M  V30 6381 C 601.333 1.04739 -3.44322 0
M  V30 6382 C 600.941 -0.05243 -4.47969 0
M  V30 6383 C 602.685 1.68157 -3.89774 0
M  V30 6384 C 600.592 0.450781 -5.8968 0
M  V30 6385 H 599.522 0.212931 -0.723309 0
M  V30 6386 H 602.173 -0.179001 -1.82625 0
M  V30 6387 H 600.555 1.84021 -3.50645 0
M  V30 6388 H 601.729 -0.828157 -4.53297 0
M  V30 6389 H 600.044 -0.592202 -4.12167 0
M  V30 6390 H 602.641 2.0689 -4.93052 0
M  V30 6391 H 602.984 2.55338 -3.28798 0
M  V30 6392 H 603.517 0.954453 -3.8618 0
M  V30 6393 H 600.256 -0.38458 -6.54371 0
M  V30 6394 H 599.776 1.19336 -5.87809 0
M  V30 6395 H 601.455 0.917555 -6.40461 0
M  V30 6396 N 601.587 1.56661 0.17182 0
M  V30 6397 C 602.835 1.81606 0.886774 0
M  V30 6398 C 603.156 0.678818 1.82803 0
M  V30 6399 O 602.426 -0.301354 1.93568 0
M  V30 6400 H 601.006 0.669934 0.330451 0
M  V30 6401 H 603.668 1.94142 0.171757 0
M  V30 6402 H 602.764 2.75634 1.46398 0
M  V30 6403 N 603.065 -0.440357 1.51323 0
M  V30 6404 C 604.012 -1.53429 1.72419 0
M  V30 6405 C 604.982 -1.56165 0.565826 0
M  V30 6406 O 606.167 -1.73222 0.799917 0
M  V30 6407 C 603.307 -2.91169 1.85242 0
M  V30 6408 C 602.42 -2.97985 3.12777 0
M  V30 6409 C 601.555 -4.26829 3.16212 0
M  V30 6410 C 600.594 -4.27501 4.38074 0
M  V30 6411 N 599.731 -5.47866 4.39076 0
M  V30 6412 H 604.571 -1.34743 2.65797 0
M  V30 6413 H 602.108 -0.654608 1.31732 0
M  V30 6414 H 604.066 -3.71087 1.90658 0
M  V30 6415 H 602.696 -3.0842 0.952744 0
M  V30 6416 H 601.748 -2.10749 3.16685 0
M  V30 6417 H 603.06 -2.94342 4.02696 0
M  V30 6418 H 602.214 -5.15118 3.20527 0
M  V30 6419 H 600.953 -4.33124 2.24176 0
M  V30 6420 H 599.958 -3.37606 4.33938 0
M  V30 6421 H 601.183 -4.22873 5.31371 0
M  V30 6422 H 599.129 -5.54887 3.49909 0
M  V30 6423 H 599.046 -5.46091 5.22801 0
M  V30 6424 H 600.314 -6.38195 4.4758 0
M  V30 6425 N 604.543 -1.41418 -0.695603 0
M  V30 6426 C 605.792 -1.40073 -1.4513 0
M  V30 6427 C 606.105 -0.0130439 -1.95596 0
M  V30 6428 O 607.311 0.123032 -2.71221 0
M  V30 6429 C 605.767 -2.46286 -2.62433 0
M  V30 6430 C 605.375 -3.90962 -2.18753 0
M  V30 6431 C 607.119 -2.54077 -3.40066 0
M  V30 6432 C 605.026 -4.88728 -3.33015 0
M  V30 6433 H 603.956 -0.520903 -0.545138 0
M  V30 6434 H 606.607 -1.67242 -0.75515 0
M  V30 6435 H 604.989 -2.12248 -3.34315 0
M  V30 6436 H 606.163 -4.34248 -1.54161 0
M  V30 6437 H 604.478 -3.86831 -1.54114 0
M  V30 6438 H 607.075 -3.24303 -4.25125 0
M  V30 6439 H 607.418 -1.5776 -3.8525 0
M  V30 6440 H 607.951 -2.87206 -2.75241 0
M  V30 6441 H 604.69 -5.86449 -2.92844 0
M  V30 6442 H 604.21 -4.50091 -3.96457 0
M  V30 6443 H 605.889 -5.09483 -3.98793 0
M  V30 6444 N 606.021 0.929856 -1.27246 0
M  V30 6445 C 607.269 1.674 -1.13233 0
M  V30 6446 C 607.59 1.92311 0.322744 0
M  V30 6447 O 606.86 1.52784 1.22612 0
M  V30 6448 H 605.44 0.620411 -0.416052 0
M  V30 6449 H 608.102 1.11663 -1.59741 0
M  V30 6450 H 607.198 2.64308 -1.65975 0
M  V30 6451 N 607.499 1.09233 1.13605 0
M  V30 6452 C 608.745 0.828385 1.8511 0
M  V30 6453 C 609.078 -0.64437 1.83198 0
M  V30 6454 O 608.353 -1.47428 1.26867 0
M  V30 6455 C 608.636 1.36167 3.33363 0
M  V30 6456 C 608.489 2.90038 3.438 0
M  V30 6457 C 609.808 0.993819 4.28732 0
M  V30 6458 H 606.927 0.30239 0.672108 0
M  V30 6459 H 609.569 1.35339 1.33355 0
M  V30 6460 H 607.719 0.9151 3.77569 0
M  V30 6461 H 609.391 3.43128 3.08319 0
M  V30 6462 H 607.634 3.27271 2.84739 0
M  V30 6463 H 608.305 3.22428 4.48045 0
M  V30 6464 H 610.781 1.37893 3.92587 0
M  V30 6465 H 609.657 1.39403 5.30903 0
M  V30 6466 H 609.918 -0.0982206 4.41991 0
M  V30 6467 N 608.977 -1.30795 0.87923 0
M  V30 6468 C 610.226 -1.95636 0.490875 0
M  V30 6469 C 610.539 -1.70214 -0.963674 0
M  V30 6470 O 611.745 -2.28991 -1.45861 0
M  V30 6471 C 610.201 -3.50271 0.826929 0
M  V30 6472 C 609.809 -3.84521 2.29886 0
M  V30 6473 C 611.553 -4.21456 0.507494 0
M  V30 6474 C 609.46 -5.32309 2.57685 0
M  V30 6475 H 608.39 -0.732238 0.179841 0
M  V30 6476 H 611.041 -1.48829 1.07341 0
M  V30 6477 H 609.423 -3.9562 0.173542 0
M  V30 6478 H 610.597 -3.50102 2.99609 0
M  V30 6479 H 608.912 -3.26425 2.58526 0
M  V30 6480 H 611.509 -5.30199 0.692293 0
M  V30 6481 H 611.852 -4.12614 -0.552718 0
M  V30 6482 H 612.385 -3.81772 1.11782 0
M  V30 6483 H 609.124 -5.46195 3.62424 0
M  V30 6484 H 608.644 -5.68048 1.92566 0
M  V30 6485 H 610.323 -5.99678 2.42889 0
M  V30 6486 N 610.455 -0.639598 -1.44038 0
M  V30 6487 C 611.365 0.0612377 -2.3452 0
M  V30 6488 C 612.381 0.826717 -1.53106 0
M  V30 6489 O 613.557 0.777059 -1.85806 0
M  V30 6490 C 610.622 1.02492 -3.31204 0
M  V30 6491 C 609.683 0.25788 -4.28525 0
M  V30 6492 C 608.916 1.17566 -5.2059 0
M  V30 6493 O 609.139 2.41461 -5.16771 0
M  V30 6494 O 608.073 0.655407 -5.98321 0
M  V30 6495 H 611.899 -0.68318 -2.95916 0
M  V30 6496 H 609.484 -0.399784 -1.43952 0
M  V30 6497 H 611.366 1.57911 -3.90694 0
M  V30 6498 H 610.041 1.7498 -2.7233 0
M  V30 6499 H 608.948 -0.339566 -3.72556 0
M  V30 6500 H 610.281 -0.427154 -4.90343 0
M  V30 6501 N 611.933 1.52934 -0.380664 0
M  V30 6502 C 612.896 2.24809 0.446473 0
M  V30 6503 C 613.896 1.26133 0.997347 0
M  V30 6504 O 615.086 1.50297 0.880714 0
M  V30 6505 C 612.218 2.99649 1.62553 0
M  V30 6506 H 613.411 2.99343 -0.182677 0
M  V30 6507 H 610.964 1.55736 -0.132618 0
M  V30 6508 H 611.699 2.29395 2.29235 0
M  V30 6509 H 611.484 3.72066 1.23732 0
M  V30 6510 H 612.974 3.54246 2.21133 0
M  V30 6511 N 613.412 0.11024 1.57214 0
M  V30 6512 C 614.342 -0.840002 2.17867 0
M  V30 6513 C 615.323 -1.28352 1.11624 0
M  V30 6514 O 616.508 -1.3477 1.39824 0
M  V30 6515 C 613.638 -2.09349 2.77111 0
M  V30 6516 C 612.592 -1.78807 3.8886 0
M  V30 6517 C 611.918 -3.11112 4.34872 0
M  V30 6518 C 613.218 -1.0632 5.11364 0
M  V30 6519 H 614.912 -0.334608 2.97524 0
M  V30 6520 H 612.458 -0.159502 1.43114 0
M  V30 6521 H 614.411 -2.76275 3.18198 0
M  V30 6522 H 613.135 -2.62198 1.9473 0
M  V30 6523 H 611.794 -1.14273 3.48335 0
M  V30 6524 H 611.442 -3.61877 3.49362 0
M  V30 6525 H 611.142 -2.91453 5.10224 0
M  V30 6526 H 612.666 -3.79171 4.78604 0
M  V30 6527 H 614.08 -1.63383 5.49526 0
M  V30 6528 H 612.477 -0.967876 5.92243 0
M  V30 6529 H 613.547 -0.0484569 4.84876 0
M  V30 6530 N 614.89 -1.56749 -0.16351 0
M  V30 6531 C 615.82 -2.00042 -1.20438 0
M  V30 6532 C 616.801 -0.877256 -1.45733 0
M  V30 6533 O 617.986 -1.1439 -1.56935 0
M  V30 6534 C 615.116 -2.36697 -2.54149 0
M  V30 6535 C 614.07 -3.52046 -2.43408 0
M  V30 6536 C 613.396 -3.74466 -3.81679 0
M  V30 6537 C 614.696 -4.85247 -1.93216 0
M  V30 6538 H 616.39 -2.87244 -0.844477 0
M  V30 6539 H 613.936 -1.38194 -0.40478 0
M  V30 6540 H 615.889 -2.65582 -3.27176 0
M  V30 6541 H 614.613 -1.46414 -2.91943 0
M  V30 6542 H 613.272 -3.23301 -1.72834 0
M  V30 6543 H 612.92 -2.81461 -4.1688 0
M  V30 6544 H 612.62 -4.52084 -3.75359 0
M  V30 6545 H 614.144 -4.0576 -4.5628 0
M  V30 6546 H 615.558 -5.12957 -2.56023 0
M  V30 6547 H 613.955 -5.66556 -1.97825 0
M  V30 6548 H 615.025 -4.7672 -0.88689 0
M  V30 6549 N 616.368 0.432326 -1.51554 0
M  V30 6550 C 617.278 1.55023 -1.76082 0
M  V30 6551 C 618.294 1.61593 -0.645265 0
M  V30 6552 O 619.47 1.78742 -0.928086 0
M  V30 6553 C 616.535 2.90964 -1.88523 0
M  V30 6554 C 615.596 2.9447 -3.12388 0
M  V30 6555 C 614.829 4.23926 -3.24225 0
M  V30 6556 O 615.052 5.16576 -2.4188 0
M  V30 6557 O 613.986 4.33818 -4.17235 0
M  V30 6558 H 617.812 1.37238 -2.70923 0
M  V30 6559 H 615.397 0.615845 -1.36117 0
M  V30 6560 H 617.279 3.71633 -1.98662 0
M  V30 6561 H 615.954 3.08865 -0.9687 0
M  V30 6562 H 614.861 2.12737 -3.07723 0
M  V30 6563 H 616.194 2.81514 -4.03746 0
M  V30 6564 N 617.846 1.41785 0.688094 0
M  V30 6565 C 618.793 1.44221 1.80191 0
M  V30 6566 C 619.763 0.295688 1.63447 0
M  V30 6567 O 620.948 0.49783 1.84191 0
M  V30 6568 C 618.088 1.33743 3.1813 0
M  V30 6569 C 617.201 2.58325 3.46254 0
M  V30 6570 C 616.336 2.40086 4.73848 0
M  V30 6571 C 615.375 3.60107 4.94964 0
M  V30 6572 N 614.512 3.40892 6.13789 0
M  V30 6573 H 619.352 2.39411 1.77444 0
M  V30 6574 H 616.889 1.18876 0.866423 0
M  V30 6575 H 618.847 1.25669 3.97823 0
M  V30 6576 H 617.477 0.42157 3.20035 0
M  V30 6577 H 616.529 2.7682 2.60912 0
M  V30 6578 H 617.841 3.4758 3.57756 0
M  V30 6579 H 616.995 2.29522 5.61609 0
M  V30 6580 H 615.734 1.483 4.64606 0
M  V30 6581 H 614.739 3.71118 4.05649 0
M  V30 6582 H 615.964 4.52857 5.06061 0
M  V30 6583 H 613.91 2.51812 6.05745 0
M  V30 6584 H 613.827 4.23727 6.26092 0
M  V30 6585 H 615.095 3.34114 7.04264 0
M  V30 6586 N 619.324 -0.923095 1.27737 0
M  V30 6587 C 620.735 -1.48626 1.12993 0
M  V30 6588 C 621.086 -1.94142 -0.283439 0
M  V30 6589 O 620.211 -1.81605 -1.17681 0
M  V30 6590 C 620.806 -2.70117 2.04505 0
M  V30 6591 C 619.365 -3.22642 1.93853 0
M  V30 6592 C 618.512 -1.95368 1.96791 0
M  V30 6593 H 621.463 -0.736737 1.40563 0
M  V30 6594 H 621.484 -3.4506 1.60356 0
M  V30 6595 H 620.996 -2.36959 3.07363 0
M  V30 6596 H 619.097 -3.60549 0.939968 0
M  V30 6597 H 619.21 -3.88525 2.80331 0
M  V30 6598 H 617.574 -2.12061 1.41076 0
M  V30 6599 H 618.357 -1.64517 3.01312 0
M  V30 6600 N 620.802 -1.09834 -1.13024 0
M  V30 6601 C 621.765 -0.745058 -2.16752 0
M  V30 6602 C 622.765 0.227435 -1.59183 0
M  V30 6603 O 623.955 0.0050786 -1.74199 0
M  V30 6604 C 621.087 -0.102543 -3.40746 0
M  V30 6605 H 622.28 -1.66375 -2.49518 0
M  V30 6606 H 619.833 -0.898061 -1.27924 0
M  V30 6607 H 620.568 0.827177 -3.13573 0
M  V30 6608 H 620.353 -0.80235 -3.83803 0
M  V30 6609 H 621.843 0.129082 -4.174 0
M  V30 6610 N 622.28 1.30327 -0.886154 0
M  V30 6611 C 623.21 2.30549 -0.370028 0
M  V30 6612 C 624.191 1.61039 0.547751 0
M  V30 6613 O 625.376 1.8864 0.461353 0
M  V30 6614 C 622.506 3.44808 0.415275 0
M  V30 6615 C 621.46 4.26024 -0.41085 0
M  V30 6616 C 620.786 5.32347 0.501128 0
M  V30 6617 C 622.086 4.95433 -1.65359 0
M  V30 6618 H 623.78 2.73969 -1.20754 0
M  V30 6619 H 621.326 1.3171 -0.582097 0
M  V30 6620 H 623.279 4.13986 0.78699 0
M  V30 6621 H 622.003 3.00197 1.28644 0
M  V30 6622 H 620.662 3.58535 -0.764719 0
M  V30 6623 H 620.31 4.83982 1.37004 0
M  V30 6624 H 620.01 5.87581 -0.0478356 0
M  V30 6625 H 621.534 6.0438 0.869333 0
M  V30 6626 H 622.948 5.5712 -1.35239 0
M  V30 6627 H 621.345 5.60537 -2.14284 0
M  V30 6628 H 622.415 4.21493 -2.39733 0
M  V30 6629 N 623.758 0.647228 1.43697 0
M  V30 6630 C 624.688 -0.0345631 2.33474 0
M  V30 6631 C 625.669 -0.818193 1.4913 0
M  V30 6632 O 626.854 -0.780867 1.77809 0
M  V30 6633 C 623.984 -1.00576 3.32418 0
M  V30 6634 C 622.938 -0.33266 4.26705 0
M  V30 6635 C 622.264 -1.41489 5.1564 0
M  V30 6636 C 623.564 0.771204 5.16575 0
M  V30 6637 H 625.258 0.715163 2.90733 0
M  V30 6638 H 622.804 0.345364 1.39797 0
M  V30 6639 H 624.757 -1.49159 3.94119 0
M  V30 6640 H 623.481 -1.78657 2.73403 0
M  V30 6641 H 622.14 0.13267 3.6636 0
M  V30 6642 H 621.788 -2.18698 4.52968 0
M  V30 6643 H 621.488 -0.969799 5.79542 0
M  V30 6644 H 623.012 -1.9022 5.80214 0
M  V30 6645 H 624.426 0.36779 5.72119 0
M  V30 6646 H 622.823 1.1404 5.89165 0
M  V30 6647 H 623.893 1.63169 4.56622 0
M  V30 6648 N 625.236 -1.5273 0.388769 0
M  V30 6649 C 626.461 -2.0647 -0.19621 0
M  V30 6650 C 626.886 -1.25865 -1.39784 0
M  V30 6651 O 626.244 -0.283562 -1.79069 0
M  V30 6652 C 626.292 -3.56456 -0.5451 0
M  V30 6653 O 625.396 -3.78426 -1.63912 0
M  V30 6654 H 624.737 -0.663599 -0.023067 0
M  V30 6655 H 627.267 -1.96898 0.556084 0
M  V30 6656 H 627.277 -3.99888 -0.809557 0
M  V30 6657 H 625.952 -4.14561 0.333417 0
M  V30 6658 H 624.529 -3.46884 -1.36842 0
M  V30 6659 N 626.714 -0.118576 -1.57153 0
M  V30 6660 C 627.624 0.845484 -2.18835 0
M  V30 6661 C 628.64 1.29299 -1.16438 0
M  V30 6662 O 629.816 1.35607 -1.48905 0
M  V30 6663 C 626.881 2.07795 -2.77529 0
M  V30 6664 C 625.942 1.6824 -3.9496 0
M  V30 6665 C 625.175 2.85612 -4.50845 0
M  V30 6666 O 625.398 4.01025 -4.05629 0
M  V30 6667 O 624.332 2.62721 -5.41536 0
M  V30 6668 H 628.158 0.350568 -3.0167 0
M  V30 6669 H 625.743 0.107013 -1.49016 0
M  V30 6670 H 627.625 2.79978 -3.14945 0
M  V30 6671 H 626.3 2.56294 -1.97725 0
M  V30 6672 H 625.207 0.931663 -3.62313 0
M  V30 6673 H 626.54 1.24484 -4.76198 0
M  V30 6674 N 628.193 1.56834 0.155195 0
M  V30 6675 C 629.47 1.73799 0.897395 0
M  V30 6676 C 629.85 0.684379 1.99698 0
M  V30 6677 O 629.198 -0.298111 2.26547 0
M  V30 6678 C 629.408 3.17572 1.44737 0
M  V30 6679 C 630.756 3.79014 1.91399 0
M  V30 6680 O 631.78 3.20951 1.54496 0
M  V30 6681 O 630.639 4.80998 2.59429 0
M  V30 6682 H 627.733 0.710329 0.423511 0
M  V30 6683 H 630.279 1.69107 0.141761 0
M  V30 6684 H 629.051 3.85749 0.656741 0
M  V30 6685 H 628.674 3.26657 2.26674 0
M  V30 6686 N 629.671 -0.424282 1.51781 0
M  V30 6687 C 630.581 -1.54087 1.76902 0
M  V30 6688 C 631.597 -1.61249 0.653826 0
M  V30 6689 O 632.773 -1.78247 0.937552 0
M  V30 6690 C 629.838 -2.8996 1.90063 0
M  V30 6691 C 628.899 -2.92809 3.13945 0
M  V30 6692 C 628.132 -4.22201 3.26469 0
M  V30 6693 O 628.355 -5.15286 2.44616 0
M  V30 6694 O 627.289 -4.31599 4.1953 0
M  V30 6695 H 631.115 -1.358 2.71647 0
M  V30 6696 H 628.7 -0.608618 1.36441 0
M  V30 6697 H 630.582 -3.70575 2.0063 0
M  V30 6698 H 629.257 -3.08347 0.985067 0
M  V30 6699 H 628.164 -2.11102 3.08847 0
M  V30 6700 H 629.497 -2.79369 4.05233 0
M  V30 6701 N 631.149 -1.42148 -0.680565 0
M  V30 6702 C 632.396 -1.4231 -1.44063 0
M  V30 6703 C 632.724 -0.037488 -1.94464 0
M  V30 6704 O 631.979 0.953184 -1.70918 0
M  V30 6705 C 632.278 -2.38945 -2.65782 0
M  V30 6706 C 631.944 -3.85455 -2.33956 0
M  V30 6707 C 630.606 -4.25364 -2.24987 0
M  V30 6708 C 632.958 -4.77895 -2.08004 0
M  V30 6709 C 630.286 -5.55701 -1.88184 0
M  V30 6710 C 632.638 -6.08568 -1.72706 0
M  V30 6711 C 631.302 -6.47482 -1.62244 0
M  V30 6712 H 630.572 -0.520748 -0.527164 0
M  V30 6713 H 633.219 -1.7505 -0.776524 0
M  V30 6714 H 631.524 -1.99511 -3.37198 0
M  V30 6715 H 633.221 -2.36336 -3.23954 0
M  V30 6716 H 629.811 -3.53855 -2.41836 0
M  V30 6717 H 633.995 -4.47854 -2.1387 0
M  V30 6718 H 629.251 -5.84718 -1.78648 0
M  V30 6719 H 633.425 -6.79688 -1.5165 0
M  V30 6720 H 631.052 -7.48387 -1.33496 0
M  V30 6721 N 632.627 0.916307 -1.28225 0
M  V30 6722 C 634.038 1.48024 -1.13779 0
M  V30 6723 C 634.389 1.94289 0.273139 0
M  V30 6724 O 633.514 1.82226 1.16716 0
M  V30 6725 C 634.109 2.69029 -2.05935 0
M  V30 6726 C 632.668 3.2161 -1.95561 0
M  V30 6727 C 631.815 1.94321 -1.97825 0
M  V30 6728 H 634.766 0.729272 -1.40951 0
M  V30 6729 H 634.787 3.44204 -1.62184 0
M  V30 6730 H 634.299 2.35325 -3.08616 0
M  V30 6731 H 632.4 3.60045 -0.959076 0
M  V30 6732 H 632.513 3.87032 -2.82388 0
M  V30 6733 H 630.877 2.1131 -1.42198 0
M  V30 6734 H 631.66 1.62917 -3.0218 0
M  V30 6735 N 634.105 1.10431 1.1244 0
M  V30 6736 C 635.516 0.864439 1.65482 0
M  V30 6737 C 635.867 -0.60527 1.8663 0
M  V30 6738 O 634.992 -1.46492 1.59276 0
M  V30 6739 C 635.587 1.56267 3.0061 0
M  V30 6740 C 634.146 1.3695 3.50602 0
M  V30 6741 C 633.293 1.61209 2.25626 0
M  V30 6742 H 636.244 1.26203 0.962209 0
M  V30 6743 H 636.265 1.00166 3.67079 0
M  V30 6744 H 635.777 2.63231 2.85186 0
M  V30 6745 H 633.878 0.321481 3.71211 0
M  V30 6746 H 633.991 2.11143 4.30064 0
M  V30 6747 H 632.355 1.03482 2.32731 0
M  V30 6748 H 633.138 2.69425 2.12756 0
M  V30 6749 N 635.583 -1.29855 0.893053 0
M  V30 6750 C 636.516 -2.26079 0.3104 0
M  V30 6751 C 637.494 -1.52145 -0.573644 0
M  V30 6752 O 638.678 -1.8113 -0.521937 0
M  V30 6753 C 635.805 -3.34069 -0.558179 0
M  V30 6754 C 634.851 -4.25721 0.257638 0
M  V30 6755 S 635.684 -5.09409 1.65114 0
M  V30 6756 C 636.84 -6.20903 0.789307 0
M  V30 6757 H 637.073 -2.75151 1.12602 0
M  V30 6758 H 634.606 -1.37975 0.692978 0
M  V30 6759 H 636.564 -3.9675 -1.05355 0
M  V30 6760 H 635.225 -2.83705 -1.34797 0
M  V30 6761 H 634.418 -5.02366 -0.405562 0
M  V30 6762 H 634.02 -3.67656 0.685917 0
M  V30 6763 H 636.312 -6.77499 0.00978451 0
M  V30 6764 H 637.255 -6.91426 1.52762 0
M  V30 6765 H 637.663 -5.63435 0.346634 0
M  V30 6766 N 637.061 -0.65484 -1.43351 0
M  V30 6767 C 638.477 -0.32255 -1.56307 0
M  V30 6768 C 638.677 1.17324 -1.63821 0
M  V30 6769 O 637.733 1.95813 -1.59417 0
M  V30 6770 C 639.046 -1.03533 -2.82314 0
M  V30 6771 C 640.594 -1.01574 -2.9606 0
M  V30 6772 C 641.069 -1.70945 -4.24902 0
M  V30 6773 N 642.56 -1.67716 -4.3177 0
M  V30 6774 C 643.295 -2.18265 -5.30234 0
M  V30 6775 N 642.791 -2.7711 -6.34966 0
M  V30 6776 N 644.584 -2.08756 -5.21898 0
M  V30 6777 H 636.735 -1.62549 -1.36717 0
M  V30 6778 H 638.998 -0.683676 -0.656727 0
M  V30 6779 H 638.704 -2.09045 -2.8283 0
M  V30 6780 H 638.578 -0.587913 -3.7259 0
M  V30 6781 H 640.965 0.0309834 -2.95084 0
M  V30 6782 H 641.046 -1.50186 -2.07069 0
M  V30 6783 H 640.69 -2.75574 -4.26639 0
M  V30 6784 H 640.62 -1.19797 -5.12793 0
M  V30 6785 H 643.111 -1.24777 -3.56706 0
M  V30 6786 H 643.424 -3.13353 -7.06421 0
M  V30 6787 H 641.769 -2.81171 -6.35585 0
M  V30 6788 H 644.96 -1.62488 -4.38994 0
M  V30 6789 H 645.133 -2.48459 -5.98475 0
M  V30 6790 N 638.539 1.52521 -0.396863 0
M  V30 6791 C 639.469 2.29582 0.425941 0
M  V30 6792 C 640.45 1.33281 1.05689 0
M  V30 6793 O 641.635 1.62181 1.06823 0
M  V30 6794 C 638.765 3.10821 1.54943 0
M  V30 6795 C 637.719 4.15069 1.04413 0
M  V30 6796 C 637.045 4.84578 2.26028 0
M  V30 6797 C 638.345 5.22191 0.106767 0
M  V30 6798 H 640.039 2.98612 -0.217045 0
M  V30 6799 H 637.585 1.43611 -0.105826 0
M  V30 6800 H 639.538 3.63492 2.13193 0
M  V30 6801 H 638.262 2.39538 2.22011 0
M  V30 6802 H 636.921 3.63389 0.484118 0
M  V30 6803 H 636.569 4.09835 2.91623 0
M  V30 6804 H 636.269 5.55043 1.92876 0
M  V30 6805 H 637.793 5.40056 2.84906 0
M  V30 6806 H 639.207 5.70176 0.597685 0
M  V30 6807 H 637.604 5.99947 -0.135352 0
M  V30 6808 H 638.674 4.77531 -0.842134 0
M  V30 6809 N 640.017 0.126909 1.57088 0
M  V30 6810 C 640.967 -0.831678 2.1229 0
M  V30 6811 C 641.951 -1.22292 1.04564 0
M  V30 6812 O 643.143 -1.19269 1.30782 0
M  V30 6813 C 640.272 -2.07866 2.73215 0
M  V30 6814 C 639.358 -1.71143 3.88035 0
M  V30 6815 N 639.749 -1.05136 4.94753 0
M  V30 6816 C 638.047 -2.00549 3.98367 0
M  V30 6817 C 638.748 -0.877257 5.75047 0
M  V30 6818 N 637.724 -1.40477 5.25135 0
M  V30 6819 H 641.526 -0.317926 2.92175 0
M  V30 6820 H 639.04 -0.0753052 1.62225 0
M  V30 6821 H 641.037 -2.77516 3.11111 0
M  V30 6822 H 639.697 -2.59778 1.94796 0
M  V30 6823 H 640.708 -0.71442 5.12949 0
M  V30 6824 H 637.385 -2.54452 3.30999 0
M  V30 6825 H 638.775 -0.358536 6.70943 0
M  V30 6826 N 641.495 -1.56914 -0.146875 0
M  V30 6827 C 642.906 -1.72799 -0.706928 0
M  V30 6828 C 643.257 -0.741329 -1.81656 0
M  V30 6829 O 642.382 0.0920162 -2.16204 0
M  V30 6830 C 642.977 -3.13317 -1.28911 0
M  V30 6831 C 641.536 -3.30803 -1.79573 0
M  V30 6832 C 640.683 -2.68725 -0.684252 0
M  V30 6833 H 643.634 -1.58504 0.0787931 0
M  V30 6834 H 643.655 -3.13323 -2.15891 0
M  V30 6835 H 643.167 -3.85104 -0.481284 0
M  V30 6836 H 641.268 -2.64012 -2.62923 0
M  V30 6837 H 641.381 -4.38754 -1.92436 0
M  V30 6838 H 639.745 -2.29196 -1.11091 0
M  V30 6839 H 640.528 -3.43117 0.112134 0
M  V30 6840 N 642.974 0.416227 -1.52004 0
M  V30 6841 C 643.884 1.53147 -1.77717 0
M  V30 6842 C 644.9 1.609 -0.662368 0
M  V30 6843 O 646.076 1.77747 -0.946991 0
M  V30 6844 C 643.141 2.88948 -1.91598 0
M  V30 6845 C 642.202 2.9114 -3.15493 0
M  V30 6846 C 641.435 4.20464 -3.28703 0
M  V30 6847 O 641.658 5.13981 -2.47345 0
M  V30 6848 O 640.592 4.29368 -4.21813 0
M  V30 6849 H 644.418 1.34357 -2.72363 0
M  V30 6850 H 642.003 0.601373 -1.36762 0
M  V30 6851 H 643.885 3.69505 -2.02593 0
M  V30 6852 H 642.56 3.07821 -1.00141 0
M  V30 6853 H 641.467 2.09461 -3.09962 0
M  V30 6854 H 642.8 2.77216 -4.06709 0
M  V30 6855 N 644.452 1.42507 0.673017 0
M  V30 6856 C 645.399 1.46124 1.78651 0
M  V30 6857 C 646.369 0.313007 1.63124 0
M  V30 6858 O 647.554 0.517337 1.83653 0
M  V30 6859 C 644.694 1.3711 3.16694 0
M  V30 6860 C 643.807 2.61983 3.43495 0
M  V30 6861 C 642.942 2.45098 4.71275 0
M  V30 6862 C 641.981 3.65336 4.91117 0
M  V30 6863 N 641.118 3.47383 6.10139 0
M  V30 6864 H 645.958 2.4128 1.74895 0
M  V30 6865 H 643.495 1.19788 0.853766 0
M  V30 6866 H 645.453 1.29881 3.96468 0
M  V30 6867 H 644.083 0.45549 3.1957 0
M  V30 6868 H 643.135 2.79571 2.57961 0
M  V30 6869 H 644.447 3.51355 3.5405 0
M  V30 6870 H 643.601 2.35466 5.59143 0
M  V30 6871 H 642.34 1.53219 4.63007 0
M  V30 6872 H 641.345 3.754 4.0169 0
M  V30 6873 H 642.57 4.58199 5.01229 0
M  V30 6874 H 640.516 2.58222 6.0304 0
M  V30 6875 H 640.433 4.30344 6.21563 0
M  V30 6876 H 641.701 3.41565 7.00681 0
M  V30 6877 N 645.93 -0.909495 1.28709 0
M  V30 6878 C 647.178 -1.65577 1.15882 0
M  V30 6879 C 647.499 -1.928 -0.292108 0
M  V30 6880 O 646.769 -1.54716 -1.20166 0
M  V30 6881 H 645.349 -0.613714 0.425869 0
M  V30 6882 H 648.011 -1.09108 1.61498 0
M  V30 6883 H 647.107 -2.61634 1.70159 0
M  V30 6884 N 647.408 -1.11026 -1.11852 0
M  V30 6885 C 648.654 -0.857729 -1.83768 0
M  V30 6886 C 648.987 0.615143 -1.842 0
M  V30 6887 O 648.262 1.45391 -1.29196 0
M  V30 6888 C 648.545 -1.41453 -3.31154 0
M  V30 6889 C 648.398 -2.95471 -3.39142 0
M  V30 6890 C 649.717 -1.0619 -4.27097 0
M  V30 6891 H 646.836 -0.313044 -0.667212 0
M  V30 6892 H 649.478 -1.37443 -1.31185 0
M  V30 6893 H 647.628 -0.975052 -3.76065 0
M  V30 6894 H 649.3 -3.4799 -3.02821 0
M  V30 6895 H 647.543 -3.31759 -2.79497 0
M  V30 6896 H 648.214 -3.29515 -4.42859 0
M  V30 6897 H 650.69 -1.44122 -3.90344 0
M  V30 6898 H 649.566 -1.47832 -5.28618 0
M  V30 6899 H 649.827 0.0278912 -4.42091 0
M  V30 6900 N 648.886 1.2938 -0.899927 0
M  V30 6901 C 649.849 2.25983 -0.382677 0
M  V30 6902 C 650.849 1.53366 0.483259 0
M  V30 6903 O 652.039 1.71798 0.28828 0
M  V30 6904 C 649.171 3.37878 0.452915 0
M  V30 6905 H 650.364 2.73252 -1.23586 0
M  V30 6906 H 647.917 1.40825 -0.678088 0
M  V30 6907 H 648.652 2.95949 1.32608 0
M  V30 6908 H 648.437 3.91742 -0.167562 0
M  V30 6909 H 649.927 4.09746 0.806107 0
M  V30 6910 N 650.364 0.662433 1.43002 0
M  V30 6911 C 651.613 0.176873 2.00923 0
M  V30 6912 C 651.926 -1.21954 1.52927 0
M  V30 6913 O 653.132 -1.80081 2.03182 0
M  V30 6914 C 651.588 0.265379 3.5892 0
M  V30 6915 C 651.196 1.66507 4.15908 0
M  V30 6916 C 652.94 -0.162103 4.2419 0
M  V30 6917 C 650.847 1.707 5.66229 0
M  V30 6918 H 649.777 0.0623627 0.751417 0
M  V30 6919 H 652.428 0.825813 1.63868 0
M  V30 6920 H 650.81 -0.451235 3.93421 0
M  V30 6921 H 651.984 2.40777 3.92891 0
M  V30 6922 H 650.299 2.03932 3.63044 0
M  V30 6923 H 652.896 -0.150745 5.34487 0
M  V30 6924 H 653.239 -1.19519 3.98774 0
M  V30 6925 H 653.772 0.503075 3.94606 0
M  V30 6926 H 650.511 2.7195 5.96426 0
M  V30 6927 H 650.031 1.00768 5.91275 0
M  V30 6928 H 651.71 1.45487 6.3043 0
M  V30 6929 N 651.842 -1.52309 0.404946 0
M  V30 6930 C 652.772 -2.29805 -0.41376 0
M  V30 6931 C 653.753 -1.3384 -1.0498 0
M  V30 6932 O 654.938 -1.62745 -1.05961 0
M  V30 6933 C 652.068 -3.11639 -1.53292 0
M  V30 6934 C 651.022 -4.15616 -1.02211 0
M  V30 6935 C 650.348 -4.8577 -2.23455 0
M  V30 6936 C 651.648 -5.2224 -0.0790725 0
M  V30 6937 H 653.342 -2.98493 0.232878 0
M  V30 6938 H 650.888 -1.43552 0.113441 0
M  V30 6939 H 652.841 -3.64618 -2.11262 0
M  V30 6940 H 651.565 -2.40712 -2.20738 0
M  V30 6941 H 650.224 -3.63641 -0.46484 0
M  V30 6942 H 649.872 -4.11376 -2.89445 0
M  V30 6943 H 649.572 -5.56058 -1.89929 0
M  V30 6944 H 651.096 -5.4156 -2.82038 0
M  V30 6945 H 652.51 -5.70485 -0.567438 0
M  V30 6946 H 650.907 -5.99867 0.167167 0
M  V30 6947 H 651.977 -4.77078 0.867447 0
M  V30 6948 N 653.32 -0.135238 -1.57019 0
M  V30 6949 C 654.283 0.794707 -2.14981 0
M  V30 6950 C 655.283 1.18342 -1.08866 0
M  V30 6951 O 656.473 1.10627 -1.34563 0
M  V30 6952 C 653.605 2.07685 -2.70333 0
M  V30 6953 H 654.798 0.290696 -2.98488 0
M  V30 6954 H 652.351 0.114128 -1.55883 0
M  V30 6955 H 653.086 2.6248 -1.9046 0
M  V30 6956 H 652.871 1.80745 -3.47957 0
M  V30 6957 H 654.361 2.74127 -3.1503 0
M  V30 6958 N 654.798 1.5699 0.138552 0
M  V30 6959 C 656.209 1.73171 0.697754 0
M  V30 6960 C 656.56 0.750952 1.8126 0
M  V30 6961 O 655.685 -0.080549 2.1625 0
M  V30 6962 C 656.28 3.13996 1.27248 0
M  V30 6963 C 654.839 3.3175 1.77816 0
M  V30 6964 C 653.986 2.69084 0.669991 0
M  V30 6965 H 656.937 1.5846 -0.0871979 0
M  V30 6966 H 656.958 3.14463 2.14227 0
M  V30 6967 H 656.47 3.85354 0.460855 0
M  V30 6968 H 654.571 2.65403 2.61519 0
M  V30 6969 H 654.684 4.39768 1.90107 0
M  V30 6970 H 653.048 2.29782 1.09874 0
M  V30 6971 H 653.831 3.43053 -0.130329 0
M  V30 6972 N 656.276 -0.40816 1.52223 0
M  V30 6973 C 657.525 -1.15212 1.65557 0
M  V30 6974 C 657.838 -1.9163 0.392096 0
M  V30 6975 O 659.044 -2.68458 0.405256 0
M  V30 6976 C 657.5 -2.09691 2.92502 0
M  V30 6977 C 657.108 -1.38785 4.25961 0
M  V30 6978 C 658.852 -2.8434 3.152 0
M  V30 6979 C 656.759 -2.31919 5.44029 0
M  V30 6980 H 655.689 -0.433776 0.616729 0
M  V30 6981 H 658.34 -0.4165 1.78711 0
M  V30 6982 H 656.722 -2.8681 2.7305 0
M  V30 6983 H 657.896 -0.670248 4.55899 0
M  V30 6984 H 656.211 -0.761741 4.09373 0
M  V30 6985 H 658.808 -3.54166 4.00587 0
M  V30 6986 H 659.151 -3.47344 2.29473 0
M  V30 6987 H 659.684 -2.14321 3.35129 0
M  V30 6988 H 656.423 -1.7356 6.32105 0
M  V30 6989 H 655.943 -3.0165 5.18428 0
M  V30 6990 H 657.622 -2.92424 5.77146 0
M  V30 6991 N 657.755 -1.42862 -0.66545 0
M  V30 6992 C 658.718 -1.46756 -1.76055 0
M  V30 6993 C 659.718 -0.353866 -1.56858 0
M  V30 6994 O 660.908 -0.615099 -1.62979 0
M  V30 6995 C 658.04 -1.30829 -3.14796 0
M  V30 6996 H 659.233 -2.44271 -1.73987 0
M  V30 6997 H 656.786 -1.29447 -0.875965 0
M  V30 6998 H 657.521 -0.342733 -3.22484 0
M  V30 6999 H 657.306 -2.11551 -3.30134 0
M  V30 7000 H 658.796 -1.36458 -3.94676 0
M  V30 7001 N 659.233 0.902656 -1.29189 0
M  V30 7002 C 660.165 2.01149 -1.09872 0
M  V30 7003 C 661.178 1.62732 -0.0471046 0
M  V30 7004 O 662.367 1.76107 -0.29132 0
M  V30 7005 C 659.467 3.32612 -0.649818 0
M  V30 7006 C 658.64 3.99574 -1.7793 0
M  V30 7007 C 657.699 5.09325 -1.32191 0
M  V30 7008 O 656.725 5.31919 -2.02611 0
M  V30 7009 N 657.927 5.80185 -0.191171 0
M  V30 7010 H 660.692 2.18276 -2.05368 0
M  V30 7011 H 658.253 1.07466 -1.2109 0
M  V30 7012 H 660.245 4.03375 -0.327199 0
M  V30 7013 H 658.815 3.11876 0.212597 0
M  V30 7014 H 658.035 3.22213 -2.27095 0
M  V30 7015 H 659.323 4.41056 -2.53668 0
M  V30 7016 H 658.721 5.64312 0.396016 0
M  V30 7017 H 657.278 6.5176 0.0721001 0
M  V30 7018 N 660.711 1.11618 1.11262 0
M  V30 7019 C 661.641 0.79846 2.19424 0
M  V30 7020 C 662.622 -0.234003 1.68483 0
M  V30 7021 O 663.807 -0.0970704 1.93957 0
M  V30 7022 C 660.937 0.242892 3.4645 0
M  V30 7023 C 659.891 1.20744 4.10615 0
M  V30 7024 C 659.217 0.512494 5.32238 0
M  V30 7025 C 660.517 2.55884 4.55325 0
M  V30 7026 H 662.211 1.70286 2.46258 0
M  V30 7027 H 659.757 0.820195 1.18359 0
M  V30 7028 H 661.71 0.00840447 4.21399 0
M  V30 7029 H 660.434 -0.696811 3.1908 0
M  V30 7030 H 659.093 1.42759 3.37662 0
M  V30 7031 H 658.741 -0.432075 5.01141 0
M  V30 7032 H 658.441 1.15583 5.7612 0
M  V30 7033 H 659.965 0.286842 6.09926 0
M  V30 7034 H 661.379 2.37946 5.21588 0
M  V30 7035 H 659.776 3.16216 5.10027 0
M  V30 7036 H 660.846 3.14968 3.68678 0
M  V30 7037 N 662.189 -1.289 0.906776 0
M  V30 7038 C 663.136 -2.2751 0.388313 0
M  V30 7039 C 664.106 -1.57301 -0.533439 0
M  V30 7040 O 665.291 -1.85243 -0.457148 0
M  V30 7041 C 662.431 -3.43091 -0.37181 0
M  V30 7042 C 661.544 -4.28066 0.581647 0
M  V30 7043 C 660.679 -5.30837 -0.19623 0
M  V30 7044 C 659.718 -6.07472 0.751294 0
M  V30 7045 N 658.855 -7.021 0.00737727 0
M  V30 7046 H 663.695 -2.71237 1.23428 0
M  V30 7047 H 661.232 -1.33397 0.619962 0
M  V30 7048 H 663.19 -4.08888 -0.828641 0
M  V30 7049 H 661.82 -3.00374 -1.18218 0
M  V30 7050 H 660.872 -3.62378 1.157 0
M  V30 7051 H 662.184 -4.81382 1.30665 0
M  V30 7052 H 661.338 -6.02485 -0.71394 0
M  V30 7053 H 660.077 -4.78272 -0.954324 0
M  V30 7054 H 659.082 -5.34682 1.28044 0
M  V30 7055 H 660.307 -6.62126 1.50883 0
M  V30 7056 H 658.253 -6.51894 -0.732854 0
M  V30 7057 H 658.17 -7.53004 0.672334 0
M  V30 7058 H 659.438 -7.77956 -0.490365 0
M  V30 7059 N 663.667 -0.670007 -1.42649 0
M  V30 7060 C 664.577 0.0114788 -2.34597 0
M  V30 7061 C 665.593 0.794055 -1.54825 0
M  V30 7062 O 666.769 0.737472 -1.87412 0
M  V30 7063 C 663.834 0.954436 -3.33304 0
M  V30 7064 C 662.895 0.166925 -4.28975 0
M  V30 7065 C 662.128 1.06497 -5.22967 0
M  V30 7066 O 662.351 2.30446 -5.21777 0
M  V30 7067 O 661.285 0.528347 -5.99577 0
M  V30 7068 H 665.111 -0.745794 -2.944 0
M  V30 7069 H 662.696 -0.430228 -1.43071 0
M  V30 7070 H 664.578 1.49589 -3.93956 0
M  V30 7071 H 663.253 1.69164 -2.7598 0
M  V30 7072 H 662.16 -0.418515 -3.71752 0
M  V30 7073 H 663.493 -0.531067 -4.89327 0
M  V30 7074 N 665.145 1.52092 -0.413018 0
M  V30 7075 C 666.391 2.02154 0.161737 0
M  V30 7076 C 666.724 1.29789 1.44459 0
M  V30 7077 O 665.999 0.405378 1.90229 0
M  V30 7078 C 666.282 3.5781 0.405463 0
M  V30 7079 C 666.135 4.40819 -0.894335 0
M  V30 7080 C 667.454 4.23821 1.18591 0
M  V30 7081 H 664.573 0.734769 0.0573077 0
M  V30 7082 H 667.215 1.81948 -0.547247 0
M  V30 7083 H 665.365 3.75158 1.0094 0
M  V30 7084 H 667.037 4.35175 -1.53039 0
M  V30 7085 H 665.28 4.06877 -1.50444 0
M  V30 7086 H 665.951 5.47819 -0.678144 0
M  V30 7087 H 668.427 4.10596 0.674573 0
M  V30 7088 H 667.303 5.32663 1.3252 0
M  V30 7089 H 667.564 3.83038 2.20758 0
M  V30 7090 N 666.623 0.143563 1.56945 0
M  V30 7091 C 667.553 -0.7936 2.196 0
M  V30 7092 C 668.534 -1.25955 1.14321 0
M  V30 7093 O 669.719 -1.31773 1.42651 0
M  V30 7094 C 666.849 -2.03424 2.81489 0
M  V30 7095 C 665.803 -1.70519 3.92565 0
M  V30 7096 C 665.129 -3.01817 4.41373 0
M  V30 7097 C 666.429 -0.95449 5.13504 0
M  V30 7098 H 668.123 -0.271423 2.98167 0
M  V30 7099 H 665.669 -0.12911 1.4342 0
M  V30 7100 H 667.622 -2.69463 3.23987 0
M  V30 7101 H 666.346 -2.58008 2.00248 0
M  V30 7102 H 665.005 -1.06859 3.5068 0
M  V30 7103 H 664.653 -3.54386 3.56959 0
M  V30 7104 H 664.353 -2.80565 5.16292 0
M  V30 7105 H 665.877 -3.68934 4.86539 0
M  V30 7106 H 667.291 -1.5169 5.52868 0
M  V30 7107 H 665.688 -0.842035 5.94163 0
M  V30 7108 H 666.758 0.0544033 4.84869 0
M  V30 7109 N 668.101 -1.57061 -0.130224 0
M  V30 7110 C 669.512 -1.73539 -0.68856 0
M  V30 7111 C 669.863 -0.760554 -1.80859 0
M  V30 7112 O 668.988 0.0690796 -2.1629 0
M  V30 7113 C 669.583 -3.14666 -1.25581 0
M  V30 7114 C 668.142 -3.32689 -1.76055 0
M  V30 7115 C 667.289 -2.69436 -0.655712 0
M  V30 7116 H 670.24 -1.58412 0.0956002 0
M  V30 7117 H 670.261 -3.15595 -2.12556 0
M  V30 7118 H 669.773 -3.85593 -0.440412 0
M  V30 7119 H 667.874 -2.66786 -2.60108 0
M  V30 7120 H 667.987 -4.4077 -1.87772 0
M  V30 7121 H 666.351 -2.30362 -1.08654 0
M  V30 7122 H 667.134 -3.42979 0.14852 0
M  V30 7123 N 669.579 0.400081 -1.52437 0
M  V30 7124 C 670.825 1.14788 -1.67187 0
M  V30 7125 C 671.158 1.89928 -0.405074 0
M  V30 7126 O 670.433 1.85118 0.596804 0
M  V30 7127 C 670.716 2.13507 -2.89977 0
M  V30 7128 C 670.569 1.42204 -4.2673 0
M  V30 7129 C 671.888 3.14069 -3.083 0
M  V30 7130 H 669.007 0.415939 -0.608411 0
M  V30 7131 H 671.649 0.432542 -1.85011 0
M  V30 7132 H 669.799 2.7451 -2.74912 0
M  V30 7133 H 671.471 0.842503 -4.53541 0
M  V30 7134 H 669.714 0.723939 -4.27717 0
M  V30 7135 H 670.385 2.14281 -5.08712 0
M  V30 7136 H 672.861 2.63148 -3.22323 0
M  V30 7137 H 671.737 3.80398 -3.95713 0
M  V30 7138 H 671.998 3.82309 -2.22018 0
M  V30 7139 N 671.057 1.43213 0.657864 0
M  V30 7140 C 672.306 1.43871 1.41365 0
M  V30 7141 C 672.619 0.064898 1.95492 0
M  V30 7142 O 673.825 -0.0510796 2.71452 0
M  V30 7143 C 672.281 2.53158 2.55811 0
M  V30 7144 C 671.889 3.96624 2.08311 0
M  V30 7145 C 673.633 2.63004 3.3321 0
M  V30 7146 C 671.54 4.97385 3.1994 0
M  V30 7147 H 670.47 0.535174 0.531136 0
M  V30 7148 H 673.121 1.69185 0.710543 0
M  V30 7149 H 671.503 2.21037 3.2857 0
M  V30 7150 H 672.677 4.38182 1.42593 0
M  V30 7151 H 670.992 3.90781 1.43804 0
M  V30 7152 H 673.589 3.3546 4.16378 0
M  V30 7153 H 673.932 1.67918 3.80932 0
M  V30 7154 H 674.465 2.94403 2.67529 0
M  V30 7155 H 671.204 5.94007 2.77192 0
M  V30 7156 H 670.724 4.60444 3.84385 0
M  V30 7157 H 672.403 5.19877 3.85145 0
M  V30 7158 N 672.536 -0.895792 1.29666 0
M  V30 7159 C 673.466 -2.01673 1.17688 0
M  V30 7160 C 674.447 -1.69955 0.0701317 0
M  V30 7161 O 675.632 -1.9258 0.250289 0
M  V30 7162 C 672.762 -3.36568 0.856681 0
M  V30 7163 C 671.716 -3.82509 1.92017 0
M  V30 7164 C 671.042 -5.14574 1.4532 0
M  V30 7165 C 672.342 -4.02409 3.32963 0
M  V30 7166 H 674.036 -2.11953 2.11463 0
M  V30 7167 H 671.582 -1.01839 1.01807 0
M  V30 7168 H 673.535 -4.14498 0.759577 0
M  V30 7169 H 672.259 -3.26391 -0.116763 0
M  V30 7170 H 670.918 -3.068 2.00673 0
M  V30 7171 H 670.566 -5.00815 0.468325 0
M  V30 7172 H 670.266 -5.46283 2.16447 0
M  V30 7173 H 671.79 -5.9504 1.36968 0
M  V30 7174 H 673.204 -4.70808 3.27127 0
M  V30 7175 H 671.601 -4.45478 4.02082 0
M  V30 7176 H 672.671 -3.06616 3.75652 0
M  V30 7177 N 674.014 -1.12206 -1.10668 0
M  V30 7178 C 675.244 -0.897332 -1.86095 0
M  V30 7179 C 675.652 0.556778 -1.80822 0
M  V30 7180 O 674.995 1.39658 -1.19337 0
M  V30 7181 C 675.057 -1.29095 -3.35522 0
M  V30 7182 C 674.721 -2.75586 -3.64556 0
M  V30 7183 C 675.718 -3.73785 -3.6136 0
M  V30 7184 C 673.403 -3.12432 -3.93309 0
M  V30 7185 C 675.397 -5.06845 -3.86506 0
M  V30 7186 C 673.084 -4.45675 -4.18111 0
M  V30 7187 C 674.082 -5.42691 -4.147 0
M  V30 7188 O 673.77 -6.73532 -4.38873 0
M  V30 7189 H 673.502 -0.320704 -0.595084 0
M  V30 7190 H 676.056 -1.49517 -1.40833 0
M  V30 7191 H 674.286 -0.636299 -3.81429 0
M  V30 7192 H 675.975 -1.04073 -3.92331 0
M  V30 7193 H 676.741 -3.46664 -3.39189 0
M  V30 7194 H 672.62 -2.3753 -3.95096 0
M  V30 7195 H 676.164 -5.82559 -3.83758 0
M  V30 7196 H 672.061 -4.72526 -4.39761 0
M  V30 7197 H 672.829 -6.79442 -4.564 0
M  V30 7198 N 675.492 1.28418 -0.913599 0
M  V30 7199 C 676.442 2.24928 -0.373042 0
M  V30 7200 C 677.426 1.52444 0.514753 0
M  V30 7201 O 678.618 1.73414 0.3545 0
M  V30 7202 C 675.747 3.41124 0.385896 0
M  V30 7203 C 674.833 4.20929 -0.51761 0
M  V30 7204 N 675.224 4.78777 -1.63113 0
M  V30 7205 C 673.522 4.44865 -0.317969 0
M  V30 7206 C 674.223 5.38822 -2.19193 0
M  V30 7207 N 673.199 5.22974 -1.48321 0
M  V30 7208 H 677.001 2.67224 -1.22346 0
M  V30 7209 H 674.515 1.43187 -0.766236 0
M  V30 7210 H 676.512 4.09347 0.789997 0
M  V30 7211 H 675.172 3.00362 1.23341 0
M  V30 7212 H 676.183 4.77148 -2.01372 0
M  V30 7213 H 672.86 4.14614 0.49004 0
M  V30 7214 H 674.25 5.94615 -3.12861 0
M  V30 7215 N 676.97 0.677563 1.42291 0
M  V30 7216 C 677.92 -0.0218641 2.2799 0
M  V30 7217 C 678.904 -0.770816 1.41235 0
M  V30 7218 O 680.096 -0.649273 1.64662 0
M  V30 7219 C 677.225 -0.970449 3.29298 0
M  V30 7220 C 676.311 -0.218695 4.23536 0
M  V30 7221 N 676.702 0.777908 4.99782 0
M  V30 7222 C 675 -0.456748 4.43655 0
M  V30 7223 C 675.701 1.22632 5.68627 0
M  V30 7224 N 674.677 0.55573 5.40752 0
M  V30 7225 H 678.479 0.742516 2.84366 0
M  V30 7226 H 675.993 0.506862 1.54288 0
M  V30 7227 H 677.99 -1.48652 3.89497 0
M  V30 7228 H 676.65 -1.73463 2.74483 0
M  V30 7229 H 677.661 1.15754 5.04798 0
M  V30 7230 H 674.338 -1.20021 3.99877 0
M  V30 7231 H 675.728 2.05231 6.39789 0
M  V30 7232 N 678.448 -1.51871 0.421078 0
M  V30 7233 C 679.358 -2.31077 -0.405069 0
M  V30 7234 C 680.374 -1.39301 -1.04265 0
M  V30 7235 O 681.55 -1.72376 -1.04157 0
M  V30 7236 C 678.615 -3.12556 -1.50032 0
M  V30 7237 C 677.676 -4.20088 -0.884559 0
M  V30 7238 C 676.909 -4.97673 -1.92762 0
M  V30 7239 O 677.132 -4.75696 -3.14753 0
M  V30 7240 O 676.066 -5.82203 -1.52719 0
M  V30 7241 H 679.892 -3.02742 0.241086 0
M  V30 7242 H 677.477 -1.48263 0.183991 0
M  V30 7243 H 679.359 -3.6326 -2.13589 0
M  V30 7244 H 678.034 -2.43672 -2.13086 0
M  V30 7245 H 676.941 -3.73502 -0.211379 0
M  V30 7246 H 678.274 -4.91298 -0.297763 0
M  V30 7247 N 679.926 -0.151884 -1.56866 0
M  V30 7248 C 681.342 0.204486 -1.58285 0
M  V30 7249 C 681.542 1.6431 -1.16639 0
M  V30 7250 O 680.598 2.37077 -0.868946 0
M  V30 7251 C 681.911 -0.0587019 -3.00643 0
M  V30 7252 C 683.459 0.00462303 -3.13 0
M  V30 7253 C 683.934 -0.231297 -4.57416 0
M  V30 7254 N 685.425 -0.178394 -4.62856 0
M  V30 7255 C 686.16 -0.335379 -5.72418 0
M  V30 7256 N 685.656 -0.550355 -6.90611 0
M  V30 7257 N 687.449 -0.272641 -5.61438 0
M  V30 7258 H 679.6 -1.09116 -1.82229 0
M  V30 7259 H 681.863 -0.432311 -0.843689 0
M  V30 7260 H 681.569 -1.05453 -3.35518 0
M  V30 7261 H 681.443 0.658508 -3.71407 0
M  V30 7262 H 683.83 0.991009 -2.77962 0
M  V30 7263 H 683.911 -0.744992 -2.44711 0
M  V30 7264 H 683.555 -1.2148 -4.93158 0
M  V30 7265 H 683.485 0.5387 -5.23837 0
M  V30 7266 H 685.976 -0.0170923 -3.77896 0
M  V30 7267 H 686.289 -0.660116 -7.69976 0
M  V30 7268 H 684.634 -0.586736 -6.92519 0
M  V30 7269 H 687.825 -0.105421 -4.67981 0
M  V30 7270 H 687.998 -0.398418 -6.46774 0
M  V30 7271 N 681.404 1.57128 0.121893 0
M  V30 7272 C 682.334 2.03165 1.15092 0
M  V30 7273 C 683.315 0.915587 1.43356 0
M  V30 7274 O 684.5 1.1851 1.53847 0
M  V30 7275 C 681.63 2.43352 2.47784 0
M  V30 7276 C 680.584 3.58376 2.33989 0
M  V30 7277 C 679.91 3.84454 3.71617 0
M  V30 7278 C 681.21 4.90199 1.80283 0
M  V30 7279 H 682.904 2.89382 0.768023 0
M  V30 7280 H 680.45 1.39218 0.367998 0
M  V30 7281 H 682.403 2.74163 3.20019 0
M  V30 7282 H 681.127 1.54103 2.87958 0
M  V30 7283 H 679.786 3.2777 1.64202 0
M  V30 7284 H 679.434 2.92414 4.09271 0
M  V30 7285 H 679.134 4.61877 3.6324 0
M  V30 7286 H 680.658 4.17714 4.45362 0
M  V30 7287 H 682.072 5.19565 2.42333 0
M  V30 7288 H 680.469 5.71601 1.82735 0
M  V30 7289 H 681.539 4.78904 0.760184 0
M  V30 7290 N 682.882 -0.391992 1.52647 0
M  V30 7291 C 684.159 -1.15136 1.58123 0
M  V30 7292 C 684.539 -2.07786 0.372597 0
M  V30 7293 O 683.887 -2.19374 -0.639304 0
M  V30 7294 C 684.097 -1.91367 2.91856 0
M  V30 7295 C 685.445 -2.46833 3.45483 0
M  V30 7296 O 686.469 -2.01527 2.9371 0
M  V30 7297 O 685.328 -3.29587 4.3593 0
M  V30 7298 H 682.422 -0.526649 0.637629 0
M  V30 7299 H 684.968 -0.397386 1.64982 0
M  V30 7300 H 683.74 -1.23597 3.71268 0
M  V30 7301 H 683.363 -2.73732 2.88369 0
M  V30 7302 N 684.36 -1.4356 -0.65026 0
M  V30 7303 C 685.608 -1.45046 -1.40734 0
M  V30 7304 C 685.929 -0.0769822 -1.94848 0
M  V30 7305 O 685.199 0.888098 -1.74613 0
M  V30 7306 H 683.779 -0.534034 -0.522318 0
M  V30 7307 H 686.441 -1.79186 -0.766703 0
M  V30 7308 H 685.537 -2.16476 -2.24822 0
M  V30 7309 N 685.838 0.888903 -1.30139 0
M  V30 7310 C 687.063 1.67884 -1.21777 0
M  V30 7311 C 687.488 1.86848 0.216689 0
M  V30 7312 O 686.846 1.39659 1.15608 0
M  V30 7313 C 686.894 3.03483 -1.94757 0
M  V30 7314 O 685.998 3.92294 -1.27198 0
M  V30 7315 H 685.339 0.513144 -0.421402 0
M  V30 7316 H 687.869 1.10968 -1.71893 0
M  V30 7317 H 687.879 3.53553 -2.03627 0
M  V30 7318 H 686.554 2.89 -2.99085 0
M  V30 7319 H 685.131 3.50732 -1.26655 0
M  V30 7320 N 687.317 1.12792 1.10072 0
M  V30 7321 C 688.565 0.883796 1.81751 0
M  V30 7322 C 688.886 -0.591891 1.858 0
M  V30 7323 O 688.156 -1.43017 1.33876 0
M  V30 7324 H 686.736 0.323978 0.673088 0
M  V30 7325 H 689.398 1.42314 1.33164 0
M  V30 7326 H 688.494 1.26863 2.85153 0
M  V30 7327 N 688.795 -1.27931 0.920396 0
M  V30 7328 C 690.025 -1.98516 0.572256 0
M  V30 7329 C 690.433 -1.68912 -0.852375 0
M  V30 7330 O 689.776 -0.94203 -1.57707 0
M  V30 7331 C 689.838 -3.5243 0.709485 0
M  V30 7332 C 689.502 -4.0564 2.10489 0
M  V30 7333 C 690.499 -4.1897 3.07831 0
M  V30 7334 C 688.184 -4.40168 2.41986 0
M  V30 7335 C 690.178 -4.66093 4.34783 0
M  V30 7336 C 687.865 -4.86983 3.69176 0
M  V30 7337 C 688.863 -4.99903 4.65388 0
M  V30 7338 O 688.551 -5.45694 5.90316 0
M  V30 7339 H 688.283 -0.64047 0.216274 0
M  V30 7340 H 690.837 -1.6393 1.23758 0
M  V30 7341 H 689.067 -3.86698 -0.0129263 0
M  V30 7342 H 690.756 -4.04233 0.367474 0
M  V30 7343 H 691.522 -3.92562 2.84816 0
M  V30 7344 H 687.401 -4.29358 1.67846 0
M  V30 7345 H 690.945 -4.76092 5.09884 0
M  V30 7346 H 686.842 -5.12832 3.92012 0
M  V30 7347 H 687.61 -5.63965 5.932 0
M  V30 7348 N 690.273 -0.685099 -1.4193 0
M  V30 7349 C 691.684 -0.287699 -1.8447 0
M  V30 7350 C 692.035 1.17215 -1.57338 0
M  V30 7351 O 691.16 1.89856 -1.03845 0
M  V30 7352 C 691.755 -0.515385 -3.34857 0
M  V30 7353 C 690.314 -0.172006 -3.76007 0
M  V30 7354 C 689.461 -0.802808 -2.65425 0
M  V30 7355 H 692.412 -0.88652 -1.3163 0
M  V30 7356 H 692.433 0.229251 -3.79809 0
M  V30 7357 H 691.945 -1.57796 -3.54573 0
M  V30 7358 H 690.046 0.886716 -3.61895 0
M  V30 7359 H 690.159 -0.619717 -4.75075 0
M  V30 7360 H 688.523 -0.233267 -2.5363 0
M  V30 7361 H 689.306 -1.86904 -2.87961 0
M  V30 7362 N 691.751 1.51645 -0.429126 0
M  V30 7363 C 692.661 2.31288 0.392809 0
M  V30 7364 C 693.677 1.39852 1.03525 0
M  V30 7365 O 694.853 1.72926 1.03241 0
M  V30 7366 C 691.918 3.13347 1.48372 0
M  V30 7367 C 690.979 4.20551 0.862268 0
M  V30 7368 C 690.212 4.98688 1.9012 0
M  V30 7369 O 690.435 4.77359 3.12225 0
M  V30 7370 O 689.369 5.83005 1.4963 0
M  V30 7371 H 693.195 3.02609 -0.257138 0
M  V30 7372 H 690.78 1.48163 -0.191851 0
M  V30 7373 H 692.662 3.64387 2.1166 0
M  V30 7374 H 691.337 2.44799 2.1179 0
M  V30 7375 H 690.244 3.73609 0.191568 0
M  V30 7376 H 691.577 4.91449 0.271704 0
M  V30 7377 N 693.229 0.160201 1.56784 0
M  V30 7378 C 694.477 -0.486625 1.96154 0
M  V30 7379 C 694.798 -1.64525 1.04673 0
M  V30 7380 O 694.068 -1.95586 0.110864 0
M  V30 7381 H 692.648 -0.182764 0.724297 0
M  V30 7382 H 695.31 0.238787 1.93432 0
M  V30 7383 H 694.406 -0.854025 3.00188 0
M  V30 7384 N 694.707 -1.5719 -0.113559 0
M  V30 7385 C 695.637 -2.03772 -1.14013 0
M  V30 7386 C 696.618 -0.923176 -1.42869 0
M  V30 7387 O 697.803 -1.19325 -1.53216 0
M  V30 7388 C 694.933 -2.44663 -2.4649 0
M  V30 7389 C 693.887 -3.59612 -2.32085 0
M  V30 7390 C 693.213 -3.8642 -3.69573 0
M  V30 7391 C 694.513 -4.91149 -1.7768 0
M  V30 7392 H 696.207 -2.89785 -0.752665 0
M  V30 7393 H 693.753 -1.39412 -0.360609 0
M  V30 7394 H 695.706 -2.75857 -3.18561 0
M  V30 7395 H 694.43 -1.55628 -2.87137 0
M  V30 7396 H 693.089 -3.28636 -1.62461 0
M  V30 7397 H 692.737 -2.94581 -4.07715 0
M  V30 7398 H 692.437 -4.63797 -3.60786 0
M  V30 7399 H 693.961 -4.2007 -4.4314 0
M  V30 7400 H 695.375 -5.20843 -2.39574 0
M  V30 7401 H 693.772 -5.72562 -1.79701 0
M  V30 7402 H 694.842 -4.79301 -0.734776 0
M  V30 7403 N 696.185 0.383891 -1.52853 0
M  V30 7404 C 697.413 1.1495 -1.7203 0
M  V30 7405 C 697.828 1.83578 -0.440957 0
M  V30 7406 O 697.185 1.72872 0.584925 0
M  V30 7407 C 697.236 2.19368 -2.87333 0
M  V30 7408 O 696.957 1.53536 -4.10315 0
M  V30 7409 C 698.458 3.08616 -3.18231 0
M  V30 7410 H 695.678 0.344445 -0.575846 0
M  V30 7411 H 698.222 0.448397 -1.99524 0
M  V30 7412 H 696.377 2.85105 -2.62286 0
M  V30 7413 H 696.791 2.2296 -4.74752 0
M  V30 7414 H 698.265 3.77902 -4.02361 0
M  V30 7415 H 698.742 3.72409 -2.32826 0
M  V30 7416 H 699.348 2.48518 -3.45136 0
M  V30 7417 N 697.663 1.43903 0.642637 0
M  V30 7418 C 698.911 1.45791 1.39962 0
M  V30 7419 C 699.232 0.0873144 1.94804 0
M  V30 7420 O 698.502 -0.878825 1.75081 0
M  V30 7421 H 697.082 0.536797 0.519479 0
M  V30 7422 H 699.744 1.7959 0.757189 0
M  V30 7423 H 698.84 2.17665 2.2367 0
M  V30 7424 N 699.141 -0.881989 1.30609 0
M  V30 7425 C 700.418 -1.61563 1.10258 0
M  V30 7426 C 700.798 -2.08228 -0.347053 0
M  V30 7427 O 700.146 -1.85151 -1.33908 0
M  V30 7428 C 700.356 -2.78287 2.10612 0
M  V30 7429 C 701.704 -3.48545 2.4249 0
M  V30 7430 O 702.728 -2.88479 2.08945 0
M  V30 7431 O 701.587 -4.56873 2.99883 0
M  V30 7432 H 698.681 -0.710238 0.423663 0
M  V30 7433 H 701.227 -0.928503 1.42045 0
M  V30 7434 H 699.999 -2.41131 3.08174 0
M  V30 7435 H 699.622 -3.54695 1.79659 0
M  V30 7436 N 700.619 -1.13374 -1.09472 0
M  V30 7437 C 701.569 -0.77946 -2.14263 0
M  V30 7438 C 702.553 0.226271 -1.59301 0
M  V30 7439 O 703.745 0.0302581 -1.76974 0
M  V30 7440 C 700.874 -0.246635 -3.42413 0
M  V30 7441 C 699.96 -1.28124 -4.04283 0
M  V30 7442 N 700.351 -2.48201 -4.40715 0
M  V30 7443 C 698.649 -1.12892 -4.31476 0
M  V30 7444 C 699.35 -3.14347 -4.8945 0
M  V30 7445 N 698.326 -2.41771 -4.86876 0
M  V30 7446 H 702.128 -1.69305 -2.40235 0
M  V30 7447 H 699.642 -1.01598 -1.26695 0
M  V30 7448 H 701.639 0.0254131 -4.16892 0
M  V30 7449 H 700.299 0.661287 -3.17895 0
M  V30 7450 H 701.31 -2.85511 -4.32093 0
M  V30 7451 H 697.987 -0.279117 -4.16566 0
M  V30 7452 H 699.377 -4.16663 -5.27107 0
M  V30 7453 N 702.098 1.27442 -0.927168 0
M  V30 7454 C 703.347 1.93679 -0.563146 0
M  V30 7455 C 703.66 1.73673 0.899837 0
M  V30 7456 O 704.866 2.34247 1.37262 0
M  V30 7457 C 703.322 3.46961 -0.95636 0
M  V30 7458 C 702.93 3.75724 -2.43999 0
M  V30 7459 C 704.674 4.19282 -0.663565 0
M  V30 7460 C 702.581 5.22378 -2.77263 0
M  V30 7461 H 701.511 0.725059 -0.206894 0
M  V30 7462 H 704.162 1.44743 -1.12791 0
M  V30 7463 H 702.544 3.94703 -0.320254 0
M  V30 7464 H 703.718 3.38741 -3.12396 0
M  V30 7465 H 702.033 3.16605 -2.70463 0
M  V30 7466 H 704.63 5.27265 -0.888596 0
M  V30 7467 H 704.973 4.14382 0.399198 0
M  V30 7468 H 705.506 3.7736 -1.25875 0
M  V30 7469 H 702.245 5.32367 -3.82446 0
M  V30 7470 H 701.765 5.6051 -2.13516 0
M  V30 7471 H 703.444 5.9025 -2.64979 0
M  V30 7472 N 703.576 0.692616 1.41565 0
M  V30 7473 C 704.987 0.297478 1.84315 0
M  V30 7474 C 705.338 -1.16379 1.57957 0
M  V30 7475 O 704.463 -1.89303 1.0485 0
M  V30 7476 C 705.058 0.533136 3.34579 0
M  V30 7477 C 703.617 0.191944 3.7591 0
M  V30 7478 C 702.764 0.816873 2.64995 0
M  V30 7479 H 705.715 0.893488 1.31158 0
M  V30 7480 H 705.736 -0.209105 3.79925 0
M  V30 7481 H 705.248 1.59674 3.53731 0
M  V30 7482 H 703.349 -0.867512 3.6236 0
M  V30 7483 H 703.462 0.644902 4.7474 0
M  V30 7484 H 701.826 0.246715 2.53502 0
M  V30 7485 H 702.609 1.88429 2.86966 0
M  V30 7486 N 705.054 -1.51416 0.437162 0
M  V30 7487 C 705.984 -2.30631 -0.364922 0
M  V30 7488 C 706.965 -1.36037 -1.02118 0
M  V30 7489 O 708.15 -1.64956 -1.02485 0
M  V30 7490 C 705.28 -3.1482 -1.46648 0
M  V30 7491 C 704.234 -4.17691 -0.933717 0
M  V30 7492 C 703.56 -4.904 -2.13101 0
M  V30 7493 C 704.86 -5.2229 0.0317201 0
M  V30 7494 H 706.554 -2.97932 0.29614 0
M  V30 7495 H 704.1 -1.4328 0.143865 0
M  V30 7496 H 706.053 -3.69017 -2.03481 0
M  V30 7497 H 704.777 -2.4534 -2.15583 0
M  V30 7498 H 703.436 -3.64545 -0.387602 0
M  V30 7499 H 703.084 -4.17423 -2.80654 0
M  V30 7500 H 702.784 -5.59962 -1.78092 0
M  V30 7501 H 704.308 -5.4742 -2.70487 0
M  V30 7502 H 705.722 -5.7156 -0.446302 0
M  V30 7503 H 704.119 -5.99378 0.29437 0
M  V30 7504 H 705.189 -4.75131 0.968447 0
M  V30 7505 N 706.532 -0.168513 -1.56696 0
M  V30 7506 C 707.78 0.476216 -1.96409 0
M  V30 7507 C 708.101 1.63968 -1.05544 0
M  V30 7508 O 707.371 1.95525 -0.121235 0
M  V30 7509 H 705.951 0.178921 -0.725256 0
M  V30 7510 H 708.613 -0.249042 -1.93302 0
M  V30 7511 H 707.709 0.838094 -3.00637 0
M  V30 7512 N 708.01 1.57248 0.105221 0
M  V30 7513 C 708.973 2.00388 1.11252 0
M  V30 7514 C 709.973 0.89594 1.33527 0
M  V30 7515 O 711.163 1.16166 1.29811 0
M  V30 7516 C 708.295 2.35589 2.46395 0
M  V30 7517 H 709.488 2.90591 0.741424 0
M  V30 7518 H 707.041 1.52332 0.349956 0
M  V30 7519 H 707.776 1.4831 2.884 0
M  V30 7520 H 707.561 3.16408 2.31578 0
M  V30 7521 H 709.051 2.69658 3.18864 0
M  V30 7522 N 709.488 -0.375779 1.53054 0
M  V30 7523 C 710.904 -0.716764 1.426 0
M  V30 7524 C 711.104 -1.93651 0.556931 0
M  V30 7525 O 710.16 -2.52475 0.0354461 0
M  V30 7526 C 711.473 -0.939499 2.85646 0
M  V30 7527 C 713.021 -1.04015 2.95212 0
M  V30 7528 C 713.496 -1.29543 4.39298 0
M  V30 7529 N 714.987 -1.36335 4.42682 0
M  V30 7530 C 715.722 -1.57778 5.51266 0
M  V30 7531 N 715.218 -1.76604 6.69913 0
M  V30 7532 N 717.011 -1.60065 5.38828 0
M  V30 7533 H 709.162 0.42664 2.08071 0
M  V30 7534 H 711.425 0.128758 0.939215 0
M  V30 7535 H 711.131 -0.115189 3.51511 0
M  V30 7536 H 711.005 -1.85048 3.2869 0
M  V30 7537 H 713.392 -1.85501 2.29507 0
M  V30 7538 H 713.473 -0.106785 2.55577 0
M  V30 7539 H 713.117 -0.485611 5.05573 0
M  V30 7540 H 713.047 -2.24184 4.76497 0
M  V30 7541 H 715.538 -1.23441 3.5717 0
M  V30 7542 H 715.851 -1.9251 7.48438 0
M  V30 7543 H 714.196 -1.73802 6.72917 0
M  V30 7544 H 717.387 -1.44917 4.45103 0
M  V30 7545 H 717.56 -1.76435 6.23518 0
M  V30 7546 N 710.966 -1.44241 -0.634997 0
M  V30 7547 C 712.215 -1.46102 -1.39058 0
M  V30 7548 C 712.528 -0.0959909 -1.95364 0
M  V30 7549 O 713.734 0.00788751 -2.71499 0
M  V30 7550 C 712.19 -2.57195 -2.51751 0
M  V30 7551 C 711.798 -3.99888 -2.01974 0
M  V30 7552 C 713.542 -2.68272 -3.28984 0
M  V30 7553 C 711.449 -5.02412 -3.11987 0
M  V30 7554 H 710.379 -0.543556 -0.522554 0
M  V30 7555 H 713.03 -1.70294 -0.683538 0
M  V30 7556 H 711.412 -2.26237 -3.25012 0
M  V30 7557 H 712.586 -4.40396 -1.35604 0
M  V30 7558 H 710.901 -3.93019 -1.37568 0
M  V30 7559 H 713.498 -3.42042 -4.10988 0
M  V30 7560 H 713.841 -1.73957 -3.78212 0
M  V30 7561 H 714.374 -2.98622 -2.62812 0
M  V30 7562 H 711.113 -5.98342 -2.67707 0
M  V30 7563 H 710.633 -4.66501 -3.77011 0
M  V30 7564 H 712.312 -5.25939 -3.76825 0
M  V30 7565 N 712.444 0.87505 -1.31075 0
M  V30 7566 C 713.69 1.63009 -1.20647 0
M  V30 7567 C 714.023 1.9276 0.236045 0
M  V30 7568 O 713.298 1.55559 1.16754 0
M  V30 7569 C 713.581 2.96357 -2.0456 0
M  V30 7570 C 713.434 2.73516 -3.57084 0
M  V30 7571 C 714.753 3.974 -1.89107 0
M  V30 7572 H 711.872 0.591518 -0.439631 0
M  V30 7573 H 714.514 1.0119 -1.60812 0
M  V30 7574 H 712.664 3.49119 -1.70435 0
M  V30 7575 H 714.336 2.27465 -4.01319 0
M  V30 7576 H 712.579 2.0784 -3.80769 0
M  V30 7577 H 713.25 3.68377 -4.11099 0
M  V30 7578 H 715.726 3.5383 -2.18961 0
M  V30 7579 H 714.602 4.88596 -2.5013 0
M  V30 7580 H 714.863 4.33794 -0.85296 0
M  V30 7581 N 713.922 1.13953 1.08869 0
M  V30 7582 C 714.885 0.824991 2.13838 0
M  V30 7583 C 715.885 -0.168198 1.59918 0
M  V30 7584 O 717.075 0.0595778 1.74098 0
M  V30 7585 C 714.207 0.228938 3.4013 0
M  V30 7586 H 715.4 1.75521 2.43171 0
M  V30 7587 H 712.953 0.94492 1.24503 0
M  V30 7588 H 713.688 -0.710227 3.16427 0
M  V30 7589 H 713.473 0.944243 3.80561 0
M  V30 7590 H 714.963 0.0259223 4.17592 0
M  V30 7591 N 715.4 -1.26948 0.933913 0
M  V30 7592 C 716.646 -1.94374 0.57848 0
M  V30 7593 C 716.979 -1.73166 -0.879048 0
M  V30 7594 O 716.254 -1.06438 -1.62792 0
M  V30 7595 C 716.537 -3.4834 0.912739 0
M  V30 7596 C 716.39 -3.78866 2.42448 0
M  V30 7597 C 717.709 -4.38062 0.423003 0
M  V30 7598 H 714.828 -0.705959 0.211639 0
M  V30 7599 H 717.47 -1.49951 1.16682 0
M  V30 7600 H 715.62 -3.86309 0.412058 0
M  V30 7601 H 717.292 -3.50654 2.99733 0
M  V30 7602 H 715.535 -3.25198 2.87104 0
M  V30 7603 H 716.206 -4.86458 2.60887 0
M  V30 7604 H 718.682 -4.0728 0.852191 0
M  V30 7605 H 717.558 -5.44599 0.685776 0
M  V30 7606 H 717.819 -4.36886 -0.676994 0
M  V30 7607 N 716.879 -0.700114 -1.41195 0
M  V30 7608 C 717.842 -0.0465706 -2.29153 0
M  V30 7609 C 718.842 0.703302 -1.44604 0
M  V30 7610 O 720.032 0.537513 -1.657 0
M  V30 7611 C 717.164 0.944324 -3.2756 0
M  V30 7612 H 718.357 -0.821064 -2.88442 0
M  V30 7613 H 715.91 -0.463869 -1.49258 0
M  V30 7614 H 716.645 1.74642 -2.73259 0
M  V30 7615 H 716.43 0.409701 -3.89954 0
M  V30 7616 H 717.92 1.39925 -3.9346 0
M  V30 7617 N 718.357 1.51182 -0.445186 0
M  V30 7618 C 719.634 1.9478 0.178965 0
M  V30 7619 C 720.014 1.38428 1.59376 0
M  V30 7620 O 719.362 0.574552 2.21159 0
M  V30 7621 C 719.572 3.48683 0.148711 0
M  V30 7622 C 720.92 4.23152 0.35042 0
M  V30 7623 O 721.944 3.55479 0.226474 0
M  V30 7624 O 720.803 5.4322 0.597893 0
M  V30 7625 H 717.897 0.817387 0.12573 0
M  V30 7626 H 720.443 1.62051 -0.503729 0
M  V30 7627 H 719.215 3.82176 -0.84009 0
M  V30 7628 H 718.838 3.87875 0.873979 0
M  V30 7629 N 719.835 0.176821 1.56605 0
M  V30 7630 C 721.06 -0.47599 2.01864 0
M  V30 7631 C 721.485 -1.55645 1.05623 0
M  V30 7632 O 720.843 -1.81263 0.0366729 0
M  V30 7633 C 720.891 -1.02619 3.4569 0
M  V30 7634 O 719.995 -2.13996 3.52533 0
M  V30 7635 H 719.336 -0.113363 0.654251 0
M  V30 7636 H 721.866 0.28233 2.02643 0
M  V30 7637 H 721.876 -1.34742 3.85109 0
M  V30 7638 H 720.551 -0.235138 4.15235 0
M  V30 7639 H 719.128 -1.82876 3.24978 0
M  V30 7640 N 721.313 -1.57302 -0.09688 0
M  V30 7641 C 722.56 -1.85997 -0.800699 0
M  V30 7642 C 722.888 -0.765089 -1.7882 0
M  V30 7643 O 722.143 0.241492 -1.94204 0
M  V30 7644 C 722.442 -3.21272 -1.56586 0
M  V30 7645 C 722.108 -4.45104 -0.72064 0
M  V30 7646 C 720.77 -4.78723 -0.487632 0
M  V30 7647 C 723.122 -5.2103 -0.132948 0
M  V30 7648 C 720.45 -5.85697 0.34296 0
M  V30 7649 C 722.802 -6.28881 0.684957 0
M  V30 7650 C 721.466 -6.61017 0.928073 0
M  V30 7651 H 720.736 -0.680613 -0.292997 0
M  V30 7652 H 723.383 -1.91399 -0.0622474 0
M  V30 7653 H 721.688 -3.11547 -2.37583 0
M  V30 7654 H 723.385 -3.40702 -2.11478 0
M  V30 7655 H 719.975 -4.18777 -0.912359 0
M  V30 7656 H 724.159 -4.95392 -0.300132 0
M  V30 7657 H 719.415 -6.09008 0.540317 0
M  V30 7658 H 723.589 -6.86886 1.14721 0
M  V30 7659 H 721.216 -7.43738 1.57348 0
M  V30 7660 N 722.791 0.367657 -1.53252 0
M  V30 7661 C 724.068 1.12606 -1.59935 0
M  V30 7662 C 724.448 2.07167 -0.405606 0
M  V30 7663 O 723.796 2.20364 0.604323 0
M  V30 7664 C 724.006 1.86699 -2.94863 0
M  V30 7665 C 725.354 2.41306 -3.49366 0
M  V30 7666 O 726.378 1.96828 -2.96879 0
M  V30 7667 O 725.237 3.2261 -4.41118 0
M  V30 7668 H 722.331 0.516438 -0.645926 0
M  V30 7669 H 724.877 0.371088 -1.65593 0
M  V30 7670 H 723.649 1.17674 -3.73187 0
M  V30 7671 H 723.272 2.6911 -2.92687 0
M  V30 7672 N 724.269 1.44576 0.627338 0
M  V30 7673 C 725.232 1.51372 1.72102 0
M  V30 7674 C 726.232 0.395329 1.55865 0
M  V30 7675 O 727.422 0.658094 1.61291 0
M  V30 7676 C 724.554 1.39129 3.11217 0
M  V30 7677 H 725.747 2.48798 1.6745 0
M  V30 7678 H 723.3 1.31724 0.841336 0
M  V30 7679 H 724.035 0.428114 3.21462 0
M  V30 7680 H 723.82 2.20229 3.24409 0
M  V30 7681 H 725.31 1.46874 3.90919 0
M  V30 7682 N 725.747 -0.868086 1.31537 0
M  V30 7683 C 726.68 -1.97871 1.13676 0
M  V30 7684 C 727.658 -1.62551 0.0397589 0
M  V30 7685 O 728.842 -1.87473 0.196539 0
M  V30 7686 C 725.969 -3.30577 0.73734 0
M  V30 7687 C 725.015 -3.8488 1.83765 0
M  V30 7688 S 725.848 -4.10106 3.44345 0
M  V30 7689 C 727.004 -5.45806 3.06344 0
M  V30 7690 H 727.237 -2.12719 2.07697 0
M  V30 7691 H 724.77 -1.01849 1.16044 0
M  V30 7692 H 726.728 -4.07274 0.513641 0
M  V30 7693 H 725.389 -3.13562 -0.183787 0
M  V30 7694 H 724.582 -4.80821 1.51085 0
M  V30 7695 H 724.184 -3.14981 2.01651 0
M  V30 7696 H 726.476 -6.27535 2.55354 0
M  V30 7697 H 727.419 -5.83437 4.01257 0
M  V30 7698 H 727.827 -5.0917 2.43734 0
M  V30 7699 N 727.225 -1.14528 -1.08264 0
M  V30 7700 C 728.471 -0.91576 -1.80947 0
M  V30 7701 C 728.804 0.55623 -1.86064 0
M  V30 7702 O 728.079 1.41207 -1.33756 0
M  V30 7703 C 728.362 -1.51917 -3.26486 0
M  V30 7704 C 728.215 -3.06111 -3.2957 0
M  V30 7705 C 729.534 -1.19724 -4.23502 0
M  V30 7706 H 726.653 -0.334113 -0.656915 0
M  V30 7707 H 729.295 -1.41547 -1.26746 0
M  V30 7708 H 727.445 -1.0942 -3.72773 0
M  V30 7709 H 729.117 -3.57448 -2.91597 0
M  V30 7710 H 727.36 -3.40483 -2.688 0
M  V30 7711 H 728.031 -3.43438 -4.32151 0
M  V30 7712 H 730.507 -1.56467 -3.85561 0
M  V30 7713 H 729.383 -1.64575 -5.23647 0
M  V30 7714 H 729.644 -0.112771 -4.41956 0
M  V30 7715 N 728.703 1.26451 -0.940633 0
M  V30 7716 C 729.928 1.98407 -0.60412 0
M  V30 7717 C 730.353 1.69584 0.81382 0
M  V30 7718 O 729.711 0.943553 1.54812 0
M  V30 7719 C 729.759 3.50387 -0.852136 0
M  V30 7720 O 728.863 4.1233 0.076013 0
M  V30 7721 H 728.204 0.622466 -0.231153 0
M  V30 7722 H 730.734 1.60932 -1.26342 0
M  V30 7723 H 730.744 4.00614 -0.772816 0
M  V30 7724 H 729.419 3.70696 -1.88566 0
M  V30 7725 H 727.996 3.7286 -0.0543187 0
M  V30 7726 N 730.181 0.707592 1.40822 0
M  V30 7727 C 731.091 0.0507246 2.34545 0
M  V30 7728 C 732.107 -0.752727 1.56876 0
M  V30 7729 O 733.283 -0.687524 1.89302 0
M  V30 7730 C 730.348 -0.865731 3.35717 0
M  V30 7731 C 729.409 -0.0531313 4.29267 0
M  V30 7732 C 728.642 -0.925939 5.25606 0
M  V30 7733 O 728.865 -2.16531 5.27703 0
M  V30 7734 O 727.799 -0.369194 6.00767 0
M  V30 7735 H 731.625 0.823587 2.9232 0
M  V30 7736 H 729.21 0.46801 1.4188 0
M  V30 7737 H 731.092 -1.39091 3.97783 0
M  V30 7738 H 729.767 -1.61788 2.80368 0
M  V30 7739 H 728.674 0.516931 3.70511 0
M  V30 7740 H 730.007 0.660617 4.87747 0
M  V30 7741 N 731.66 -1.50943 0.453197 0
M  V30 7742 C 733.076 -1.59245 0.106342 0
M  V30 7743 C 733.276 -1.46287 -1.38572 0
M  V30 7744 O 732.332 -1.31219 -2.15726 0
M  V30 7745 C 733.645 -2.93797 0.640595 0
M  V30 7746 C 735.193 -3.07148 0.602435 0
M  V30 7747 C 735.668 -4.44247 1.11393 0
M  V30 7748 N 737.159 -4.50611 1.07258 0
M  V30 7749 C 737.894 -5.55049 1.43905 0
M  V30 7750 N 737.39 -6.66828 1.87914 0
M  V30 7751 N 739.183 -5.45494 1.35621 0
M  V30 7752 H 731.334 -1.5761 1.42382 0
M  V30 7753 H 733.597 -0.74384 0.587713 0
M  V30 7754 H 733.303 -3.087 1.68515 0
M  V30 7755 H 733.177 -3.77127 0.0742272 0
M  V30 7756 H 735.564 -2.91903 -0.433171 0
M  V30 7757 H 735.645 -2.25619 1.20539 0
M  V30 7758 H 735.289 -4.60239 2.14808 0
M  V30 7759 H 735.219 -5.2434 0.487353 0
M  V30 7760 H 737.71 -3.70391 0.749585 0
M  V30 7761 H 738.023 -7.42558 2.14072 0
M  V30 7762 H 736.368 -6.67995 1.91853 0
M  V30 7763 H 739.559 -4.57053 1.01093 0
M  V30 7764 H 739.732 -6.2677 1.64508 0
M  V30 7765 N 733.138 -0.185124 -1.56509 0
M  V30 7766 C 734.549 0.329221 -1.83774 0
M  V30 7767 C 734.9 1.62093 -1.10545 0
M  V30 7768 O 734.025 2.13334 -0.36298 0
M  V30 7769 C 734.62 0.604099 -3.33371 0
M  V30 7770 C 733.179 1.06284 -3.61083 0
M  V30 7771 C 732.326 0.10608 -2.77097 0
M  V30 7772 H 735.277 -0.409116 -1.53336 0
M  V30 7773 H 735.298 1.45458 -3.51599 0
M  V30 7774 H 734.81 -0.336201 -3.86641 0
M  V30 7775 H 732.911 2.01777 -3.13236 0
M  V30 7776 H 733.024 0.962453 -4.69333 0
M  V30 7777 H 731.388 0.606082 -2.47384 0
M  V30 7778 H 732.171 -0.828486 -3.33153 0
M  V30 7779 N 734.616 1.57351 0.0885366 0
M  V30 7780 C 735.846 1.90355 0.80303 0
M  V30 7781 C 736.254 0.777678 1.72478 0
M  V30 7782 O 735.597 -0.258908 1.81866 0
M  V30 7783 C 735.659 3.18674 1.66395 0
M  V30 7784 C 735.323 4.4778 0.913327 0
M  V30 7785 C 736.32 5.19345 0.240148 0
M  V30 7786 C 734.005 4.94434 0.885462 0
M  V30 7787 C 735.999 6.35803 -0.450854 0
M  V30 7788 C 733.686 6.10802 0.190679 0
M  V30 7789 C 734.684 6.81337 -0.476295 0
M  V30 7790 O 734.372 7.95488 -1.15992 0
M  V30 7791 H 734.104 0.634035 0.234469 0
M  V30 7792 H 736.658 2.05287 0.0681959 0
M  V30 7793 H 734.888 2.99906 2.44117 0
M  V30 7794 H 736.577 3.37458 2.2556 0
M  V30 7795 H 737.343 4.84339 0.253092 0
M  V30 7796 H 733.222 4.39417 1.39406 0
M  V30 7797 H 736.766 6.90795 -0.972019 0
M  V30 7798 H 732.663 6.45261 0.175603 0
M  V30 7799 H 733.431 8.11509 -1.06749 0
M  V30 7800 N 736.094 -0.359525 1.53444 0
M  V30 7801 C 737.041 -1.44073 1.8031 0
M  V30 7802 C 738.011 -1.52946 0.647811 0
M  V30 7803 O 739.196 -1.68739 0.890614 0
M  V30 7804 C 736.336 -2.80941 2.00416 0
M  V30 7805 C 735.449 -2.80986 3.28132 0
M  V30 7806 C 734.584 -4.09468 3.38393 0
M  V30 7807 C 733.623 -4.03679 4.60119 0
M  V30 7808 N 732.76 -5.23821 4.675 0
M  V30 7809 H 737.6 -1.20464 2.72566 0
M  V30 7810 H 735.137 -0.583859 1.35017 0
M  V30 7811 H 737.095 -3.60459 2.1006 0
M  V30 7812 H 735.725 -3.02936 1.11489 0
M  V30 7813 H 734.777 -1.93666 3.27411 0
M  V30 7814 H 736.089 -2.72583 4.17732 0
M  V30 7815 H 735.243 -4.97404 3.47382 0
M  V30 7816 H 733.982 -4.20632 2.4682 0
M  V30 7817 H 732.987 -3.14129 4.51224 0
M  V30 7818 H 734.212 -3.94112 5.5304 0
M  V30 7819 H 732.158 -5.35559 3.7883 0
M  V30 7820 H 732.075 -5.17611 5.51013 0
M  V30 7821 H 733.343 -6.13572 4.8078 0
M  V30 7822 N 737.572 -1.44907 -0.619662 0
M  V30 7823 C 738.522 -1.49085 -1.72504 0
M  V30 7824 C 739.506 -0.355372 -1.56926 0
M  V30 7825 O 740.698 -0.601441 -1.66468 0
M  V30 7826 C 737.827 -1.44889 -3.11227 0
M  V30 7827 C 736.913 -2.63593 -3.32234 0
M  V30 7828 N 737.304 -3.88775 -3.23555 0
M  V30 7829 C 735.602 -2.59033 -3.63067 0
M  V30 7830 C 736.303 -4.67932 -3.45564 0
M  V30 7831 N 735.279 -3.9919 -3.68983 0
M  V30 7832 H 739.081 -2.43706 -1.6427 0
M  V30 7833 H 736.595 -1.4003 -0.82252 0
M  V30 7834 H 738.592 -1.45966 -3.90512 0
M  V30 7835 H 737.252 -0.513143 -3.2062 0
M  V30 7836 H 738.263 -4.20574 -3.02221 0
M  V30 7837 H 734.94 -1.7431 -3.79371 0
M  V30 7838 H 736.33 -5.76952 -3.44349 0
M  V30 7839 N 739.05 0.861098 -1.31996 0
M  V30 7840 C 740.013 1.95068 -1.20338 0
M  V30 7841 C 741.013 1.60289 -0.128114 0
M  V30 7842 O 742.203 1.70048 -0.378044 0
M  V30 7843 C 739.335 3.30153 -0.849205 0
M  V30 7844 H 740.528 2.06833 -2.17164 0
M  V30 7845 H 738.081 1.05049 -1.15734 0
M  V30 7846 H 738.816 3.24087 0.117508 0
M  V30 7847 H 738.601 3.56771 -1.62655 0
M  V30 7848 H 740.091 4.10025 -0.791782 0
M  V30 7849 N 740.528 1.15101 1.07655 0
M  V30 7850 C 741.476 0.840714 2.16875 0
M  V30 7851 C 742.47 -0.184594 1.68391 0
M  V30 7852 O 743.676 -0.0399315 1.79956 0
M  V30 7853 H 740.051 0.254192 0.707736 0
M  V30 7854 H 742.022 1.76959 2.40266 0
M  V30 7855 C 740.771 0.343018 3.46004 0
M  V30 7856 H 740.094 1.12335 3.83694 0
M  V30 7857 H 741.534 0.16453 4.23681 0
M  V30 7858 C 739.993 -0.934881 3.23669 0
M  V30 7859 O 740.523 -2.00706 3.47965 0
M  V30 7860 N 738.729 -0.873167 2.77172 0
M  V30 7861 H 738.276 -0.000479072 2.576 0
M  V30 7862 H 738.234 -1.72873 2.62607 0
M  V30 7863 N 742.006 -1.2595 0.947325 0
M  V30 7864 C 743.234 -1.97544 0.615127 0
M  V30 7865 C 743.649 -1.70484 -0.811221 0
M  V30 7866 O 743.006 -0.97662 -1.5417 0
M  V30 7867 C 743.057 -3.51236 0.855328 0
M  V30 7868 O 742.778 -3.77359 2.22558 0
M  V30 7869 C 744.279 -4.40066 0.534515 0
M  V30 7870 H 741.499 -0.629888 0.231263 0
M  V30 7871 H 744.043 -1.60308 1.26971 0
M  V30 7872 H 742.198 -3.8661 0.247266 0
M  V30 7873 H 742.612 -4.71857 2.29022 0
M  V30 7874 H 744.086 -5.46838 0.753168 0
M  V30 7875 H 744.563 -4.35982 -0.530701 0
M  V30 7876 H 745.169 -4.10245 1.12158 0
M  V30 7877 N 743.484 -0.715051 -1.40445 0
M  V30 7878 C 744.414 -0.0768699 -2.33373 0
M  V30 7879 C 745.395 0.746109 -1.52863 0
M  V30 7880 O 746.58 0.695142 -1.81332 0
M  V30 7881 C 743.71 0.846014 -3.36838 0
M  V30 7882 C 742.664 0.128694 -4.27806 0
M  V30 7883 C 741.99 1.16726 -5.21804 0
M  V30 7884 C 743.29 -1.01679 -5.12307 0
M  V30 7885 H 744.984 -0.853061 -2.8699 0
M  V30 7886 H 742.53 -0.41167 -1.3799 0
M  V30 7887 H 744.483 1.30185 -4.00786 0
M  V30 7888 H 743.207 1.6541 -2.81615 0
M  V30 7889 H 741.866 -0.307314 -3.6531 0
M  V30 7890 H 741.514 1.96838 -4.62887 0
M  V30 7891 H 741.214 0.692188 -5.83509 0
M  V30 7892 H 742.738 1.62321 -5.88629 0
M  V30 7893 H 744.152 -0.640337 -5.69713 0
M  V30 7894 H 742.549 -1.4202 -5.83053 0
M  V30 7895 H 743.619 -1.84769 -4.48317 0
M  V30 7896 N 744.962 1.50701 -0.461195 0
M  V30 7897 C 746.19 2.06681 0.0951756 0
M  V30 7898 C 746.605 1.32615 1.34382 0
M  V30 7899 O 745.962 0.392531 1.78229 0
M  V30 7900 C 746.013 3.59354 0.393316 0
M  V30 7901 O 745.734 4.30626 -0.805797 0
M  V30 7902 C 747.235 4.31926 0.997744 0
M  V30 7903 H 744.455 0.670995 -0.00267259 0
M  V30 7904 H 746.999 1.93991 -0.647137 0
M  V30 7905 H 745.154 3.7188 1.08555 0
M  V30 7906 H 745.568 5.21667 -0.544409 0
M  V30 7907 H 747.042 5.39756 1.15619 0
M  V30 7908 H 747.519 3.91772 1.98523 0
M  V30 7909 H 748.125 4.23905 0.344188 0
M  V30 7910 N 746.441 0.193421 1.56409 0
M  V30 7911 C 747.351 -0.740112 2.2262 0
M  V30 7912 C 748.367 -1.23597 1.22474 0
M  V30 7913 O 749.543 -1.28348 1.55206 0
M  V30 7914 C 746.608 -1.94317 2.87127 0
M  V30 7915 C 745.669 -1.49205 4.02538 0
M  V30 7916 C 744.902 -2.63776 4.63959 0
M  V30 7917 O 745.125 -3.81215 4.24301 0
M  V30 7918 O 744.059 -2.36585 5.53454 0
M  V30 7919 H 747.885 -0.206238 3.02999 0
M  V30 7920 H 745.47 -0.0357938 1.49357 0
M  V30 7921 H 747.352 -2.64633 3.27944 0
M  V30 7922 H 746.027 -2.46568 2.09728 0
M  V30 7923 H 744.934 -0.757738 3.66346 0
M  V30 7924 H 746.267 -1.01622 4.81595 0
M  V30 7925 N 747.919 -1.57396 -0.0801906 0
M  V30 7926 C 748.882 -2.02133 -1.0805 0
M  V30 7927 C 749.882 -0.91707 -1.32085 0
M  V30 7928 O 751.072 -1.18217 -1.27947 0
M  V30 7929 C 748.204 -2.39479 -2.42616 0
M  V30 7930 H 749.397 -2.91733 -0.6951 0
M  V30 7931 H 746.95 -1.52869 -0.325677 0
M  V30 7932 H 747.685 -1.52879 -2.86004 0
M  V30 7933 H 747.47 -3.20052 -2.26515 0
M  V30 7934 H 748.96 -2.74697 -3.14534 0
M  V30 7935 N 749.397 0.351382 -1.53633 0
M  V30 7936 C 750.327 1.43688 -1.84055 0
M  V30 7937 C 751.308 1.55251 -0.695073 0
M  V30 7938 O 752.493 1.69587 -0.946257 0
M  V30 7939 C 749.623 2.80843 -2.04315 0
M  V30 7940 C 748.577 2.84094 -3.20117 0
M  V30 7941 C 747.903 4.2406 -3.25696 0
M  V30 7942 C 749.203 2.50334 -4.58399 0
M  V30 7943 H 750.897 1.18478 -2.74961 0
M  V30 7944 H 748.443 0.568509 -1.32303 0
M  V30 7945 H 750.396 3.56821 -2.2418 0
M  V30 7946 H 749.12 3.07471 -1.10132 0
M  V30 7947 H 747.779 2.10568 -3.00094 0
M  V30 7948 H 747.427 4.47785 -2.29123 0
M  V30 7949 H 747.127 4.27147 -4.03509 0
M  V30 7950 H 748.651 5.0189 -3.47762 0
M  V30 7951 H 750.065 3.16025 -4.78332 0
M  V30 7952 H 748.462 2.64717 -5.38558 0
M  V30 7953 H 749.532 1.45542 -4.62543 0
M  V30 7954 N 750.875 1.45233 0.611969 0
M  V30 7955 C 751.785 1.56098 1.7513 0
M  V30 7956 C 752.801 0.445646 1.68196 0
M  V30 7957 O 753.977 0.705718 1.88631 0
M  V30 7958 C 751.042 1.52052 3.11579 0
M  V30 7959 C 750.103 2.74589 3.29999 0
M  V30 7960 C 749.336 2.70726 4.59938 0
M  V30 7961 O 749.559 1.77806 5.41979 0
M  V30 7962 O 748.493 3.61864 4.80976 0
M  V30 7963 H 752.319 2.52392 1.68914 0
M  V30 7964 H 749.904 1.27695 0.775528 0
M  V30 7965 H 751.786 1.52387 3.92882 0
M  V30 7966 H 750.461 0.589085 3.18295 0
M  V30 7967 H 749.368 2.79817 2.48301 0
M  V30 7968 H 750.701 3.66843 3.28157 0
M  V30 7969 N 752.353 -0.854086 1.3245 0
M  V30 7970 C 753.263 -1.99503 1.23434 0
M  V30 7971 C 754.279 -1.73371 0.147828 0
M  V30 7972 O 755.455 -1.97998 0.368609 0
M  V30 7973 C 752.52 -3.33192 0.958328 0
M  V30 7974 C 751.581 -3.72542 2.13333 0
M  V30 7975 C 750.814 -4.99852 1.8704 0
M  V30 7976 O 751.037 -5.64573 0.813239 0
M  V30 7977 O 749.971 -5.36345 2.73161 0
M  V30 7978 H 753.797 -2.10046 2.1935 0
M  V30 7979 H 751.382 -0.984823 1.12346 0
M  V30 7980 H 753.264 -4.13327 0.820918 0
M  V30 7981 H 751.939 -3.23687 0.0293299 0
M  V30 7982 H 750.846 -2.92981 2.32622 0
M  V30 7983 H 752.179 -3.86694 3.04514 0
M  V30 7984 N 753.831 -1.1567 -1.07043 0
M  V30 7985 C 754.761 -0.879348 -2.16309 0
M  V30 7986 C 755.742 0.171311 -1.69235 0
M  V30 7987 O 756.927 0.0250175 -1.94184 0
M  V30 7988 C 754.057 -0.371307 -3.45309 0
M  V30 7989 C 753.011 -1.359 -4.05851 0
M  V30 7990 C 752.337 -0.709678 -5.29969 0
M  V30 7991 C 753.637 -2.72606 -4.45514 0
M  V30 7992 H 755.331 -1.79308 -2.39768 0
M  V30 7993 H 752.877 -0.863558 -1.15233 0
M  V30 7994 H 754.83 -0.164798 -4.21078 0
M  V30 7995 H 753.554 0.577906 -3.21446 0
M  V30 7996 H 752.213 -1.55193 -3.32131 0
M  V30 7997 H 751.861 0.245782 -5.02399 0
M  V30 7998 H 751.561 -1.36886 -5.71433 0
M  V30 7999 H 753.085 -0.513015 -6.08441 0
M  V30 8000 H 754.499 -2.57141 -5.12398 0
M  V30 8001 H 752.896 -3.34927 -4.97939 0
M  V30 8002 H 753.966 -3.28434 -3.56734 0
M  V30 8003 N 755.309 1.25446 -0.953992 0
M  V30 8004 C 756.725 1.4539 -0.658316 0
M  V30 8005 C 756.925 1.85607 0.784356 0
M  V30 8006 O 755.981 1.98568 1.55972 0
M  V30 8007 C 757.294 2.52643 -1.6307 0
M  V30 8008 C 758.842 2.66484 -1.64181 0
M  V30 8009 C 759.317 3.76921 -2.60182 0
M  V30 8010 N 760.808 3.84331 -2.58542 0
M  V30 8011 C 761.543 4.69271 -3.29503 0
M  V30 8012 N 761.039 5.58503 -4.09934 0
M  V30 8013 N 762.832 4.6323 -3.18393 0
M  V30 8014 H 754.983 0.976337 -1.8863 0
M  V30 8015 H 757.246 0.490343 -0.811337 0
M  V30 8016 H 756.952 2.29949 -2.66114 0
M  V30 8017 H 756.826 3.50547 -1.39271 0
M  V30 8018 H 759.213 2.88545 -0.618552 0
M  V30 8019 H 759.294 1.68982 -1.92038 0
M  V30 8020 H 758.938 3.55612 -3.62633 0
M  V30 8021 H 758.868 4.73906 -2.29609 0
M  V30 8022 H 761.359 3.20544 -2.0015 0
M  V30 8023 H 761.672 6.20241 -4.61 0
M  V30 8024 H 760.017 5.58214 -4.14032 0
M  V30 8025 H 763.208 3.92527 -2.5503 0
M  V30 8026 H 763.381 5.29204 -3.73961 0
M  V30 8027 N 756.787 0.722489 1.40064 0
M  V30 8028 C 757.75 0.0830209 2.2905 0
M  V30 8029 C 758.75 -0.680208 1.45705 0
M  V30 8030 O 759.94 -0.511084 1.66534 0
M  V30 8031 C 757.072 -0.892092 3.29021 0
M  V30 8032 H 758.265 0.866848 2.87099 0
M  V30 8033 H 755.818 0.487556 1.48501 0
M  V30 8034 H 756.553 -1.70273 2.76003 0
M  V30 8035 H 756.338 -0.34761 3.90556 0
M  V30 8036 H 757.828 -1.33648 3.95636 0
M  V30 8037 N 758.265 -1.50454 0.469181 0
M  V30 8038 C 759.513 -2.01916 -0.0862982 0
M  V30 8039 C 759.834 -1.35337 -1.40388 0
M  V30 8040 O 759.104 -0.498096 -1.89462 0
M  V30 8041 H 757.684 -0.746185 -0.0348825 0
M  V30 8042 H 760.346 -1.84804 0.619167 0
M  V30 8043 H 759.442 -3.11182 -0.239189 0
M  V30 8044 N 759.743 -0.201713 -1.56304 0
M  V30 8045 C 760.706 0.702811 -2.18159 0
M  V30 8046 C 761.706 1.13619 -1.13787 0
M  V30 8047 O 762.896 1.0482 -1.39134 0
M  V30 8048 C 760.028 1.96032 -2.78898 0
M  V30 8049 H 761.221 0.163836 -2.99452 0
M  V30 8050 H 758.774 0.04791 -1.56227 0
M  V30 8051 H 759.509 2.54165 -2.01421 0
M  V30 8052 H 759.294 1.65824 -3.55309 0
M  V30 8053 H 760.784 2.60519 -3.26373 0
M  V30 8054 N 761.222 1.57436 0.0718424 0
M  V30 8055 C 762.47 1.86878 0.769484 0
M  V30 8056 C 762.791 0.7937 1.78116 0
M  V30 8057 O 762.061 -0.177642 1.95093 0
M  V30 8058 H 760.641 0.689593 0.287177 0
M  V30 8059 H 763.303 1.94841 0.0479427 0
M  V30 8060 H 762.399 2.84387 1.28572 0
M  V30 8061 N 762.7 -0.34323 1.53817 0
M  V30 8062 C 763.925 -1.1079 1.75329 0
M  V30 8063 C 764.35 -1.81571 0.491293 0
M  V30 8064 O 763.708 -1.72561 -0.556089 0
M  V30 8065 C 763.756 -2.09681 2.9337 0
M  V30 8066 O 762.86 -3.17207 2.63541 0
M  V30 8067 H 762.201 -0.320402 0.581583 0
M  V30 8068 H 764.731 -0.393525 2.0078 0
M  V30 8069 H 764.741 -2.52897 3.20168 0
M  V30 8070 H 763.416 -1.5756 3.84899 0
M  V30 8071 H 761.993 -2.78806 2.47632 0
M  V30 8072 N 764.178 -1.45556 -0.604258 0
M  V30 8073 C 765.11 -1.50494 -1.72871 0
M  V30 8074 C 766.123 -0.395368 -1.57926 0
M  V30 8075 O 767.312 -0.662603 -1.65746 0
M  V30 8076 C 764.412 -1.34874 -3.10906 0
M  V30 8077 C 763.585 -2.59564 -3.52058 0
M  V30 8078 C 762.644 -2.38453 -4.6907 0
M  V30 8079 O 761.67 -3.12082 -4.76018 0
M  V30 8080 N 762.872 -1.43229 -5.62553 0
M  V30 8081 H 765.637 -2.4744 -1.69097 0
M  V30 8082 H 763.198 -1.41338 -0.789636 0
M  V30 8083 H 765.19 -1.18556 -3.86945 0
M  V30 8084 H 763.76 -0.461913 -3.09168 0
M  V30 8085 H 762.98 -2.90974 -2.65946 0
M  V30 8086 H 764.268 -3.42441 -3.76313 0
M  V30 8087 H 763.666 -0.824714 -5.59656 0
M  V30 8088 H 762.223 -1.32882 -6.38111 0
M  V30 8089 N 765.656 0.84705 -1.32902 0
M  V30 8090 C 766.903 1.60176 -1.23894 0
M  V30 8091 C 767.231 1.93496 0.197341 0
M  V30 8092 O 766.486 1.58173 1.15238 0
M  V30 8093 C 766.785 2.92663 -2.05142 0
M  V30 8094 C 766.451 2.7874 -3.54422 0
M  V30 8095 C 765.113 2.7465 -3.95121 0
M  V30 8096 C 767.465 2.64128 -4.49317 0
M  V30 8097 C 764.793 2.53837 -5.28946 0
M  V30 8098 C 767.145 2.44849 -5.83294 0
M  V30 8099 C 765.809 2.39156 -6.23186 0
M  V30 8100 H 765.079 0.586127 -0.453361 0
M  V30 8101 H 767.726 0.981994 -1.64405 0
M  V30 8102 H 766.031 3.588 -1.57383 0
M  V30 8103 H 767.728 3.50095 -1.95537 0
M  V30 8104 H 764.318 2.82751 -3.22102 0
M  V30 8105 H 768.502 2.66327 -4.18788 0
M  V30 8106 H 763.758 2.4787 -5.58901 0
M  V30 8107 H 767.932 2.32524 -6.56434 0
M  V30 8108 H 765.559 2.22789 -7.26821 0
M  V30 8109 N 767.134 1.16236 1.06428 0
M  V30 8110 C 768.411 0.853294 1.76006 0
M  V30 8111 C 768.791 -0.649162 2.00871 0
M  V30 8112 O 768.139 -1.59653 1.63472 0
M  V30 8113 C 768.349 1.67448 3.06206 0
M  V30 8114 C 769.697 1.8866 3.80385 0
M  V30 8115 O 770.721 1.64303 3.16043 0
M  V30 8116 O 769.58 2.29518 4.95968 0
M  V30 8117 H 766.674 0.314737 0.764767 0
M  V30 8118 H 769.22 1.26865 1.12709 0
M  V30 8119 H 767.992 2.69411 2.83784 0
M  V30 8120 H 767.615 1.25608 3.77238 0
M  V30 8121 N 768.612 -1.24939 0.960631 0
M  V30 8122 C 770.023 -1.74701 0.658529 0
M  V30 8123 C 770.374 -1.77967 -0.825959 0
M  V30 8124 O 769.499 -1.40444 -1.64634 0
M  V30 8125 C 770.094 -3.17263 1.18867 0
M  V30 8126 C 768.653 -3.64561 0.936614 0
M  V30 8127 C 767.8 -2.43423 1.32817 0
M  V30 8128 H 770.751 -1.10741 1.13676 0
M  V30 8129 H 770.772 -3.76481 0.551589 0
M  V30 8130 H 770.284 -3.14854 2.26912 0
M  V30 8131 H 768.385 -3.72378 -0.128608 0
M  V30 8132 H 768.498 -4.52392 1.57729 0
M  V30 8133 H 766.862 -2.43513 0.746548 0
M  V30 8134 H 767.645 -2.437 2.41796 0
M  V30 8135 N 770.09 -0.729906 -1.39679 0
M  V30 8136 C 771.336 -0.27603 -2.00913 0
M  V30 8137 C 771.669 1.13227 -1.57776 0
M  V30 8138 O 770.944 1.7709 -0.804319 0
M  V30 8139 C 771.227 -0.372157 -3.58172 0
M  V30 8140 C 771.08 -1.81986 -4.11341 0
M  V30 8141 C 772.399 0.248378 -4.39399 0
M  V30 8142 H 769.518 -0.101773 -0.729939 0
M  V30 8143 H 772.16 -0.925104 -1.65957 0
M  V30 8144 H 770.31 0.180459 -3.88081 0
M  V30 8145 H 771.982 -2.42896 -3.92172 0
M  V30 8146 H 770.225 -2.34287 -3.65092 0
M  V30 8147 H 770.896 -1.83842 -5.20486 0
M  V30 8148 H 773.372 -0.222645 -4.15504 0
M  V30 8149 H 772.248 0.150746 -5.48693 0
M  V30 8150 H 772.509 1.33378 -4.21501 0
M  V30 8151 N 771.568 1.50203 -0.477153 0
M  V30 8152 C 772.814 2.02658 0.0758507 0
M  V30 8153 C 773.147 1.358 1.38824 0
M  V30 8154 O 772.422 0.485696 1.88338 0
M  V30 8155 C 772.705 3.59208 0.253339 0
M  V30 8156 C 772.558 4.36629 -1.0805 0
M  V30 8157 C 773.877 4.28469 1.00509 0
M  V30 8158 H 770.996 0.736538 0.0260921 0
M  V30 8159 H 773.638 1.79464 -0.623925 0
M  V30 8160 H 771.788 3.79101 0.849378 0
M  V30 8161 H 773.46 4.28292 -1.71358 0
M  V30 8162 H 771.703 4.0013 -1.67566 0
M  V30 8163 H 772.374 5.44449 -0.909883 0
M  V30 8164 H 774.85 4.13087 0.499818 0
M  V30 8165 H 773.726 5.37804 1.09808 0
M  V30 8166 H 773.987 3.92057 2.04314 0
M  V30 8167 N 773.046 0.209999 1.56195 0
M  V30 8168 C 774.292 -0.425442 1.98287 0
M  V30 8169 C 774.625 -1.60232 1.09724 0
M  V30 8170 O 773.9 -1.93902 0.152414 0
M  V30 8171 C 774.183 -0.871189 3.49403 0
M  V30 8172 C 774.036 0.308527 4.48741 0
M  V30 8173 C 775.355 -1.73146 4.04609 0
M  V30 8174 H 772.474 -0.153169 0.720908 0
M  V30 8175 H 775.116 0.303916 1.87554 0
M  V30 8176 H 773.266 -1.49266 3.58681 0
M  V30 8177 H 774.938 0.946487 4.51486 0
M  V30 8178 H 773.181 0.957878 4.23092 0
M  V30 8179 H 773.852 -0.0461143 5.51981 0
M  V30 8180 H 776.328 -1.2072 3.98203 0
M  V30 8181 H 775.204 -2.01228 5.10684 0
M  V30 8182 H 775.465 -2.69083 3.5078 0
M  V30 8183 N 774.524 -1.57472 -0.0634922 0
M  V30 8184 C 775.434 -2.07621 -1.09227 0
M  V30 8185 C 776.45 -1.00746 -1.41867 0
M  V30 8186 O 777.626 -1.32269 -1.51878 0
M  V30 8187 C 774.691 -2.51707 -2.38421 0
M  V30 8188 C 773.752 -3.72917 -2.12676 0
M  V30 8189 C 772.985 -4.14891 -3.3571 0
M  V30 8190 O 773.208 -3.56663 -4.45137 0
M  V30 8191 O 772.142 -5.07616 -3.23434 0
M  V30 8192 H 775.968 -2.95612 -0.696205 0
M  V30 8193 H 773.553 -1.46787 -0.27819 0
M  V30 8194 H 775.435 -2.80547 -3.14438 0
M  V30 8195 H 774.11 -1.66842 -2.77391 0
M  V30 8196 H 773.017 -3.49148 -1.34337 0
M  V30 8197 H 774.35 -4.5866 -1.78583 0
M  V30 8198 N 776.003 0.335068 -1.53997 0
M  V30 8199 C 777.243 1.0827 -1.7337 0
M  V30 8200 C 777.607 1.85618 -0.490913 0
M  V30 8201 O 778.808 2.62864 -0.561799 0
M  V30 8202 C 777.079 1.99212 -2.96731 0
M  V30 8203 S 778.638 2.81083 -3.36954 0
M  V30 8204 H 775.456 0.365698 -0.609743 0
M  V30 8205 H 778.058 0.360079 -1.92155 0
M  V30 8206 H 776.762 1.41204 -3.85344 0
M  V30 8207 H 776.293 2.75898 -2.80436 0
M  V30 8208 H 778.308 4.01657 -2.91352 0
M  V30 8209 N 777.481 1.45874 0.596531 0
M  V30 8210 C 778.728 1.50467 1.35521 0
M  V30 8211 C 779.056 0.150802 1.93915 0
M  V30 8212 O 778.311 -0.851913 1.76184 0
M  V30 8213 C 778.61 2.54034 2.51399 0
M  V30 8214 C 778.276 3.9844 2.11085 0
M  V30 8215 C 776.938 4.37758 1.99804 0
M  V30 8216 C 779.29 4.89209 1.79788 0
M  V30 8217 C 776.618 5.65727 1.55465 0
M  V30 8218 C 778.97 6.17602 1.36931 0
M  V30 8219 C 777.634 6.5584 1.24218 0
M  V30 8220 H 776.904 0.550597 0.495907 0
M  V30 8221 H 779.551 1.79279 0.673145 0
M  V30 8222 H 777.856 2.18832 3.24992 0
M  V30 8223 H 779.553 2.54822 3.09624 0
M  V30 8224 H 776.143 3.67353 2.20794 0
M  V30 8225 H 780.327 4.59562 1.87395 0
M  V30 8226 H 775.583 5.94139 1.44253 0
M  V30 8227 H 779.757 6.87373 1.11764 0
M  V30 8228 H 777.384 7.54897 0.896353 0
M  V30 8229 N 778.959 -0.83999 1.33349 0
M  V30 8230 C 779.922 -1.93128 1.23426 0
M  V30 8231 C 780.922 -1.60065 0.153599 0
M  V30 8232 O 782.112 -1.69425 0.405049 0
M  V30 8233 C 779.244 -3.28761 0.901622 0
M  V30 8234 H 780.437 -2.03352 2.20427 0
M  V30 8235 H 777.99 -1.03194 1.17391 0
M  V30 8236 H 778.725 -3.24233 -0.0659337 0
M  V30 8237 H 778.51 -3.54138 1.68311 0
M  V30 8238 H 780 -4.08714 0.856913 0
M  V30 8239 N 780.437 -1.16799 -1.0581 0
M  V30 8240 C 781.853 -0.913935 -1.30841 0
M  V30 8241 C 782.053 0.430439 -1.96849 0
M  V30 8242 O 781.109 1.16885 -2.23817 0
M  V30 8243 C 782.422 -2.06662 -2.18429 0
M  V30 8244 C 783.97 -2.10294 -2.31831 0
M  V30 8245 C 784.445 -3.2493 -3.22776 0
M  V30 8246 N 785.936 -3.24678 -3.30361 0
M  V30 8247 C 786.671 -4.10021 -4.00837 0
M  V30 8248 N 786.167 -5.05461 -4.73795 0
M  V30 8249 N 787.96 -3.97991 -3.96937 0
M  V30 8250 H 780.111 -2.03343 -0.613613 0
M  V30 8251 H 782.374 -0.88754 -0.333133 0
M  V30 8252 H 782.08 -3.03791 -1.77211 0
M  V30 8253 H 781.954 -2.01233 -3.19038 0
M  V30 8254 H 784.341 -1.13754 -2.72294 0
M  V30 8255 H 784.422 -2.19786 -1.30873 0
M  V30 8256 H 784.066 -4.21731 -2.83028 0
M  V30 8257 H 783.996 -3.12674 -4.23725 0
M  V30 8258 H 786.487 -2.55573 -2.78372 0
M  V30 8259 H 786.8 -5.66989 -5.25113 0
M  V30 8260 H 785.145 -5.09436 -4.72758 0
M  V30 8261 H 788.336 -3.2273 -3.39062 0
M  V30 8262 H 788.509 -4.64722 -4.51594 0
M  V30 8263 N 781.915 1.24427 -0.967243 0
M  V30 8264 C 783.145 1.96256 -0.64554 0
M  V30 8265 C 783.553 1.71959 0.789098 0
M  V30 8266 O 782.896 0.999913 1.54102 0
M  V30 8267 C 782.958 3.49553 -0.839798 0
M  V30 8268 C 782.622 3.97548 -2.25399 0
M  V30 8269 C 783.619 4.07257 -3.23168 0
M  V30 8270 C 781.304 4.30884 -2.58156 0
M  V30 8271 C 783.298 4.49635 -4.51782 0
M  V30 8272 C 780.985 4.72946 -3.86996 0
M  V30 8273 C 781.983 4.82286 -4.83621 0
M  V30 8274 O 781.671 5.23409 -6.10162 0
M  V30 8275 H 781.403 0.632002 -0.239895 0
M  V30 8276 H 783.957 1.59224 -1.29757 0
M  V30 8277 H 782.187 3.86479 -0.130603 0
M  V30 8278 H 783.876 4.02591 -0.517249 0
M  V30 8279 H 784.642 3.8172 -2.9919 0
M  V30 8280 H 780.521 4.22833 -1.83666 0
M  V30 8281 H 784.065 4.5684 -5.27203 0
M  V30 8282 H 779.962 4.9793 -4.10775 0
M  V30 8283 H 780.73 5.4156 -6.13722 0
M  V30 8284 N 783.393 0.737304 1.3929 0
M  V30 8285 C 784.639 0.286681 2.00763 0
M  V30 8286 C 784.972 -1.12388 1.58375 0
M  V30 8287 O 784.247 -1.76661 0.813699 0
M  V30 8288 C 784.53 0.391147 3.57969 0
M  V30 8289 C 784.383 1.84165 4.1037 0
M  V30 8290 C 785.702 -0.225072 4.39524 0
M  V30 8291 H 782.821 0.105642 0.729389 0
M  V30 8292 H 785.463 0.933892 1.65464 0
M  V30 8293 H 783.613 -0.159875 3.88171 0
M  V30 8294 H 785.285 2.44972 3.90879 0
M  V30 8295 H 783.528 2.3622 3.63844 0
M  V30 8296 H 784.199 1.866 5.19504 0
M  V30 8297 H 786.675 0.244677 4.1538 0
M  V30 8298 H 785.551 -0.121646 5.48765 0
M  V30 8299 H 785.812 -1.31141 4.22202 0
M  V30 8300 N 784.871 -1.49948 0.485112 0
M  V30 8301 C 785.818 -2.28819 -0.301729 0
M  V30 8302 C 786.788 -1.34496 -0.974683 0
M  V30 8303 O 787.973 -1.63444 -0.984418 0
M  V30 8304 C 785.113 -3.16758 -1.36961 0
M  V30 8305 C 784.226 -4.26125 -0.710027 0
M  V30 8306 C 783.361 -5.01302 -1.75699 0
M  V30 8307 C 782.4 -6.02525 -1.07841 0
M  V30 8308 N 781.537 -6.70927 -2.06886 0
M  V30 8309 H 786.377 -2.95604 0.377127 0
M  V30 8310 H 783.914 -1.45764 0.197826 0
M  V30 8311 H 785.872 -3.66106 -2.00056 0
M  V30 8312 H 784.502 -2.51991 -2.01744 0
M  V30 8313 H 783.554 -3.80385 0.0338278 0
M  V30 8314 H 784.866 -4.98493 -0.175079 0
M  V30 8315 H 784.02 -5.54438 -2.46339 0
M  V30 8316 H 782.759 -4.28672 -2.32577 0
M  V30 8317 H 781.764 -5.48635 -0.357706 0
M  V30 8318 H 782.989 -6.77134 -0.516345 0
M  V30 8319 H 780.935 -6.01079 -2.62755 0
M  V30 8320 H 780.852 -7.39216 -1.58414 0
M  V30 8321 H 782.12 -7.28675 -2.76863 0
M  V30 8322 N 786.349 -0.21828 -1.56081 0
M  V30 8323 C 787.765 0.137168 -1.59009 0
M  V30 8324 C 787.965 1.59215 -1.23503 0
M  V30 8325 O 787.021 2.33178 -0.968716 0
M  V30 8326 C 788.334 -0.186162 -3.00123 0
M  V30 8327 C 789.882 -0.128135 -3.12738 0
M  V30 8328 C 790.357 -0.425094 -4.56023 0
M  V30 8329 N 791.848 -0.374547 -4.61683 0
M  V30 8330 C 792.583 -0.57786 -5.70481 0
M  V30 8331 N 792.079 -0.842771 -6.87655 0
M  V30 8332 N 793.872 -0.510521 -5.59777 0
M  V30 8333 H 786.023 -1.16746 -1.77437 0
M  V30 8334 H 788.286 -0.467706 -0.824594 0
M  V30 8335 H 787.992 -1.19589 -3.30744 0
M  V30 8336 H 787.866 0.500388 -3.73866 0
M  V30 8337 H 790.253 0.872224 -2.81915 0
M  V30 8338 H 790.334 -0.848112 -2.41331 0
M  V30 8339 H 789.978 -1.42288 -4.87562 0
M  V30 8340 H 789.908 0.316038 -5.25651 0
M  V30 8341 H 792.399 -0.177356 -3.77484 0
M  V30 8342 H 792.712 -0.986095 -7.66483 0
M  V30 8343 H 791.057 -0.879929 -6.89407 0
M  V30 8344 H 794.248 -0.303813 -4.67113 0
M  V30 8345 H 794.421 -0.672378 -6.44502 0
M  V30 8346 N 787.827 1.57504 0.0551401 0
M  V30 8347 C 789.073 1.88334 0.752216 0
M  V30 8348 C 789.406 0.812742 1.76375 0
M  V30 8349 O 788.681 -0.175198 1.93709 0
M  V30 8350 C 788.964 3.29824 1.44528 0
M  V30 8351 C 788.817 4.47553 0.449026 0
M  V30 8352 C 790.136 3.69808 2.38601 0
M  V30 8353 H 787.255 0.684973 0.271995 0
M  V30 8354 H 789.897 1.89994 0.0151895 0
M  V30 8355 H 788.047 3.28539 2.07351 0
M  V30 8356 H 789.719 4.60967 -0.175277 0
M  V30 8357 H 787.962 4.33168 -0.234162 0
M  V30 8358 H 788.633 5.43376 0.971917 0
M  V30 8359 H 791.109 3.72293 1.85842 0
M  V30 8360 H 789.985 4.69665 2.84088 0
M  V30 8361 H 790.246 3.00641 3.24141 0
M  V30 8362 N 789.305 -0.326896 1.54172 0
M  V30 8363 C 790.238 -1.42591 1.78166 0
M  V30 8364 C 791.216 -1.49837 0.631484 0
M  V30 8365 O 792.4 -1.67298 0.868544 0
M  V30 8366 C 789.527 -2.8071 1.89524 0
M  V30 8367 C 788.573 -2.91012 3.11792 0
M  V30 8368 S 789.406 -2.55763 4.70474 0
M  V30 8369 C 790.562 -3.9596 4.84733 0
M  V30 8370 H 790.795 -1.22024 2.71104 0
M  V30 8371 H 788.328 -0.523539 1.45253 0
M  V30 8372 H 790.286 -3.60276 1.96753 0
M  V30 8373 H 788.947 -2.98562 0.975696 0
M  V30 8374 H 788.14 -3.92258 3.16464 0
M  V30 8375 H 787.742 -2.19414 3.02876 0
M  V30 8376 H 790.034 -4.90676 4.67166 0
M  V30 8377 H 790.977 -3.96273 5.86833 0
M  V30 8378 H 791.385 -3.8476 4.13062 0
M  V30 8379 N 790.784 -1.46188 -0.588786 0
M  V30 8380 C 792.032 -1.50885 -1.34455 0
M  V30 8381 C 792.353 -0.159555 -1.94346 0
M  V30 8382 O 791.623 0.813239 -1.78222 0
M  V30 8383 H 790.203 -0.555707 -0.499198 0
M  V30 8384 H 792.865 -1.82277 -0.690014 0
M  V30 8385 H 791.961 -2.25816 -2.15438 0
M  V30 8386 N 792.262 0.832906 -1.33792 0
M  V30 8387 C 793.209 1.94314 -1.24541 0
M  V30 8388 C 794.179 1.65646 -0.122753 0
M  V30 8389 O 795.364 1.88394 -0.30204 0
M  V30 8390 C 792.504 3.30395 -0.996641 0
M  V30 8391 C 791.617 3.71422 -2.20612 0
M  V30 8392 C 790.752 4.96401 -1.89101 0
M  V30 8393 C 789.791 5.2998 -3.06247 0
M  V30 8394 N 788.928 6.46137 -2.74685 0
M  V30 8395 H 793.768 2.01559 -2.19495 0
M  V30 8396 H 791.305 0.986243 -1.09141 0
M  V30 8397 H 793.263 4.08803 -0.832817 0
M  V30 8398 H 791.893 3.22691 -0.0838242 0
M  V30 8399 H 790.945 2.88488 -2.47949 0
M  V30 8400 H 792.257 3.92215 -3.0817 0
M  V30 8401 H 791.411 5.82572 -1.69396 0
M  V30 8402 H 790.15 4.7759 -0.987882 0
M  V30 8403 H 789.155 4.42312 -3.26559 0
M  V30 8404 H 790.38 5.50737 -3.97323 0
M  V30 8405 H 788.326 6.28801 -1.86938 0
M  V30 8406 H 788.243 6.67054 -3.55774 0
M  V30 8407 H 789.511 7.35403 -2.58461 0
M  V30 8408 N 793.74 1.17359 1.05189 0
M  V30 8409 C 794.988 0.960087 1.77839 0
M  V30 8410 C 795.309 -0.512554 1.88143 0
M  V30 8411 O 794.579 -1.3721 1.39822 0
M  V30 8412 H 793.159 0.352234 0.658741 0
M  V30 8413 H 795.821 1.47834 1.27008 0
M  V30 8414 H 794.917 1.38843 2.79516 0
M  V30 8415 N 795.218 -1.23913 0.973828 0
M  V30 8416 C 796.466 -1.91771 0.637817 0
M  V30 8417 C 796.787 -1.76434 -0.830435 0
M  V30 8418 O 796.057 -1.13965 -1.59339 0
M  V30 8419 H 794.637 -0.709761 0.232912 0
M  V30 8420 H 797.299 -1.50677 1.23622 0
M  V30 8421 H 796.395 -2.99327 0.883731 0
M  V30 8422 N 796.696 -0.74468 -1.38897 0
M  V30 8423 C 797.944 -0.296298 -1.99916 0
M  V30 8424 C 798.265 1.12325 -1.59399 0
M  V30 8425 O 797.535 1.76658 -0.846689 0
M  V30 8426 H 796.115 -0.106561 -0.73936 0
M  V30 8427 H 798.777 -0.956793 -1.69798 0
M  V30 8428 H 797.873 -0.352356 -3.10105 0
M  V30 8429 N 798.174 1.49689 -0.493057 0
M  V30 8430 C 799.122 2.30613 0.303383 0
M  V30 8431 C 800.116 1.38867 0.970165 0
M  V30 8432 O 801.322 1.55956 0.898761 0
M  V30 8433 H 797.697 0.742891 0.116691 0
M  V30 8434 H 799.668 2.95717 -0.39924 0
M  V30 8435 C 798.417 3.20008 1.35978 0
M  V30 8436 H 797.74 3.90526 0.856103 0
M  V30 8437 H 799.18 3.79586 1.88919 0
M  V30 8438 C 797.639 2.39079 2.37367 0
M  V30 8439 O 798.169 2.08933 3.43089 0
M  V30 8440 N 796.375 2.0125 2.09635 0
M  V30 8441 H 795.922 2.25966 1.23682 0
M  V30 8442 H 795.88 1.47408 2.77702 0
M  V30 8443 N 799.652 0.226554 1.55963 0
M  V30 8444 C 800.88 -0.408507 2.02827 0
M  V30 8445 C 801.295 -1.52994 1.10627 0
M  V30 8446 O 800.652 -1.82126 0.116809 0
M  V30 8447 C 800.703 -0.93545 3.49187 0
M  V30 8448 O 800.424 0.141273 4.37872 0
M  V30 8449 C 801.925 -1.64325 4.11719 0
M  V30 8450 H 799.145 -0.099442 0.66359 0
M  V30 8451 H 801.689 0.344471 2.01578 0
M  V30 8452 H 799.844 -1.63868 3.51036 0
M  V30 8453 H 800.258 -0.25558 5.23877 0
M  V30 8454 H 801.732 -1.9639 5.15883 0
M  V30 8455 H 802.209 -2.55815 3.57009 0
M  V30 8456 H 802.815 -0.9851 4.13734 0
M  V30 8457 N 801.13 -1.57531 -0.0467866 0
M  V30 8458 C 802.541 -1.76945 -0.595603 0
M  V30 8459 C 802.892 -0.855354 -1.76573 0
M  V30 8460 O 802.017 -0.045668 -2.16352 0
M  V30 8461 C 802.612 -3.20881 -1.08725 0
M  V30 8462 C 801.171 -3.41553 -1.58172 0
M  V30 8463 C 800.318 -2.72533 -0.511968 0
M  V30 8464 H 803.269 -1.57682 0.179436 0
M  V30 8465 H 803.29 -3.26419 -1.95528 0
M  V30 8466 H 802.802 -3.87385 -0.235398 0
M  V30 8467 H 800.903 -2.80199 -2.456 0
M  V30 8468 H 801.016 -4.50104 -1.64143 0
M  V30 8469 H 799.38 -2.35797 -0.962899 0
M  V30 8470 H 800.163 -3.41709 0.330117 0
M  V30 8471 N 802.608 0.318715 -1.54344 0
M  V30 8472 C 803.856 1.054 -1.72439 0
M  V30 8473 C 804.177 1.88388 -0.503495 0
M  V30 8474 O 803.447 1.89866 0.48246 0
M  V30 8475 H 802.027 0.392124 -0.635805 0
M  V30 8476 H 804.689 0.35398 -1.91659 0
M  V30 8477 H 803.785 1.71726 -2.60608 0
M  V30 8478 N 804.086 1.46499 0.581025 0
M  V30 8479 C 805.332 1.52121 1.34116 0
M  V30 8480 C 805.665 0.173031 1.93428 0
M  V30 8481 O 804.94 -0.815729 1.76568 0
M  V30 8482 C 805.223 2.62108 2.46924 0
M  V30 8483 C 805.076 4.06462 1.92636 0
M  V30 8484 C 806.395 2.68167 3.48962 0
M  V30 8485 H 803.514 0.5538 0.486287 0
M  V30 8486 H 806.156 1.78443 0.652538 0
M  V30 8487 H 804.306 2.39794 3.05665 0
M  V30 8488 H 805.978 4.40068 1.3834 0
M  V30 8489 H 804.221 4.15862 1.23455 0
M  V30 8490 H 804.892 4.79152 2.74076 0
M  V30 8491 H 807.368 2.8823 3.00104 0
M  V30 8492 H 806.244 3.46942 4.2535 0
M  V30 8493 H 806.505 1.74284 4.06297 0
M  V30 8494 N 805.565 -0.825799 1.34232 0
M  V30 8495 C 806.495 -1.95151 1.28212 0
M  V30 8496 C 807.476 -1.69345 0.160123 0
M  V30 8497 O 808.661 -1.90983 0.352019 0
M  V30 8498 C 805.791 -3.31554 1.03388 0
M  V30 8499 C 804.745 -3.71793 2.12023 0
M  V30 8500 C 804.071 -5.06147 1.72392 0
M  V30 8501 C 805.371 -3.84193 3.53826 0
M  V30 8502 H 807.065 -2.00445 2.22401 0
M  V30 8503 H 804.611 -0.962996 1.07063 0
M  V30 8504 H 806.564 -4.09889 0.978225 0
M  V30 8505 H 805.288 -3.26551 0.0564142 0
M  V30 8506 H 803.947 -2.95731 2.16654 0
M  V30 8507 H 803.595 -4.97628 0.733137 0
M  V30 8508 H 803.295 -5.34041 2.451 0
M  V30 8509 H 804.819 -5.86943 1.68317 0
M  V30 8510 H 806.233 -4.52806 3.51624 0
M  V30 8511 H 804.63 -4.23538 4.2513 0
M  V30 8512 H 805.7 -2.86272 3.91377 0
M  V30 8513 N 807.043 -1.17915 -1.04565 0
M  V30 8514 C 808.289 -0.982872 -1.78076 0
M  V30 8515 C 808.644 0.482843 -1.86243 0
M  V30 8516 O 807.937 1.35383 -1.3558 0
M  V30 8517 C 808.131 -1.56528 -3.213 0
M  V30 8518 C 807.96 -3.0861 -3.27093 0
M  V30 8519 C 806.73 -3.77389 -3.36014 0
M  V30 8520 C 808.928 -4.06146 -3.15515 0
M  V30 8521 N 806.91 -5.1702 -3.31004 0
M  V30 8522 C 808.281 -5.32268 -3.17948 0
M  V30 8523 C 810.336 -3.97732 -2.99522 0
M  V30 8524 C 809.039 -6.50951 -3.06031 0
M  V30 8525 C 811.065 -5.16007 -2.88948 0
M  V30 8526 C 810.427 -6.41018 -2.9202 0
M  V30 8527 H 806.526 -0.413617 -0.66366 0
M  V30 8528 H 809.11 -1.49607 -1.24603 0
M  V30 8529 H 807.281 -1.07833 -3.73131 0
M  V30 8530 H 809.013 -1.30501 -3.83082 0
M  V30 8531 H 805.768 -3.28098 -3.41538 0
M  V30 8532 H 806.192 -5.90031 -3.31952 0
M  V30 8533 H 810.834 -3.01919 -2.95981 0
M  V30 8534 H 808.552 -7.46968 -3.08326 0
M  V30 8535 H 812.138 -5.11283 -2.77635 0
M  V30 8536 H 811.018 -7.30999 -2.83919 0
M  V30 8537 N 808.521 1.23394 -0.980386 0
M  V30 8538 C 809.431 2.28561 -0.528864 0
M  V30 8539 C 810.447 1.68946 0.416329 0
M  V30 8540 O 811.623 1.99355 0.286251 0
M  V30 8541 C 808.688 3.46323 0.16155 0
M  V30 8542 C 807.749 4.21297 -0.825044 0
M  V30 8543 C 806.982 5.33437 -0.167483 0
M  V30 8544 O 807.205 5.60812 1.04146 0
M  V30 8545 O 806.139 5.95637 -0.866047 0
M  V30 8546 H 809.965 2.69326 -1.40346 0
M  V30 8547 H 807.55 1.29325 -0.748019 0
M  V30 8548 H 809.432 4.17811 0.548841 0
M  V30 8549 H 808.107 3.0751 1.01092 0
M  V30 8550 H 807.014 3.52134 -1.26303 0
M  V30 8551 H 808.347 4.6396 -1.64322 0
M  V30 8552 N 809.999 0.752036 1.385 0
M  V30 8553 C 810.962 0.131587 2.28822 0
M  V30 8554 C 811.962 -0.649149 1.47115 0
M  V30 8555 O 813.152 -0.475645 1.67581 0
M  V30 8556 C 810.284 -0.822101 3.30839 0
M  V30 8557 H 811.477 0.927551 2.85196 0
M  V30 8558 H 809.03 0.518945 1.47434 0
M  V30 8559 H 809.765 -1.6438 2.79553 0
M  V30 8560 H 809.55 -0.264689 3.91206 0
M  V30 8561 H 811.04 -1.25226 3.98382 0
M  V30 8562 N 811.477 -1.49425 0.500989 0
M  V30 8563 C 812.44 -2.27646 -0.266416 0
M  V30 8564 C 813.44 -1.3366 -0.893961 0
M  V30 8565 O 814.63 -1.5682 -0.758495 0
M  V30 8566 C 811.762 -3.11618 -1.38227 0
M  V30 8567 H 812.955 -2.96945 0.419973 0
M  V30 8568 H 810.508 -1.5419 0.255954 0
M  V30 8569 H 811.243 -2.46885 -2.10281 0
M  V30 8570 H 811.028 -3.80721 -0.937746 0
M  V30 8571 H 812.518 -3.70698 -1.92283 0
M  V30 8572 O 812.994 -0.376506 -1.5705 0
M  V30 8573 H 813.685 0.171595 -1.92938 0
M  V30 END ATOM
M  V30 BEGIN BOND
M  V30 END BOND
M  V30 END CTAB
M  END
$$$$
