drugbank_target|P62623 4-hydroxy-3-methylbut-2-enyl diphosphate reductase (DB01785; DB04714)
 OpenBabel12092120453D

  0  0  0     0  0            999 V3000
M  V30 BEGIN CTAB
M  V30 COUNTS 4896 4931 0 0 0
M  V30 BEGIN ATOM
M  V30 1 H -0.908 1.98254 -0.117106 0
M  V30 2 N 0 1.576 0 0
M  V30 3 C 0.933 2.03868 1.02534 0
M  V30 4 C 1.911 0.928543 1.3348 0
M  V30 5 O 3.095 1.19667 1.45644 0
M  V30 6 C 0.222 2.43627 2.35294 0
M  V30 7 C -0.732 3.65373 2.2001 0
M  V30 8 S 0.101 5.13292 1.52614 0
M  V30 9 C 1.257 5.56322 2.86805 0
M  V30 10 H 1.49 2.90518 0.631377 0
M  V30 11 H -0.977 1.52953 0.210867 0
M  V30 12 H 0.981 2.67203 3.11629 0
M  V30 13 H -0.358 1.57376 2.7183 0
M  V30 14 H -1.165 3.90944 3.18086 0
M  V30 15 H -1.563 3.418 1.51819 0
M  V30 16 H 0.729 5.58782 3.83104 0
M  V30 17 H 1.672 6.56266 2.65933 0
M  V30 18 H 2.08 4.83886 2.90714 0
M  V30 19 N 1.4781 -0.272755 1.55222 0
M  V30 20 C 2.4101 -1.35946 1.8453 0
M  V30 21 C 3.4231 -1.45525 0.729818 0
M  V30 22 O 4.6121 -1.47337 1.00767 0
M  V30 23 C 1.7121 -2.74069 1.99347 0
M  V30 24 C 0.8851 -2.87079 3.30007 0
M  V30 25 C -0.0559 -4.05879 3.34886 0
M  V30 26 O -1.0299 -3.96626 4.08261 0
M  V30 27 N 0.1721 -5.17857 2.62307 0
M  V30 28 H 2.9371 -1.11149 2.78327 0
M  V30 29 H 0.4981 -0.462869 1.55142 0
M  V30 30 H 2.4901 -3.51838 1.99981 0
M  V30 31 H 1.0601 -2.91688 1.12415 0
M  V30 32 H 0.2801 -1.96193 3.41909 0
M  V30 33 H 1.5681 -2.92701 4.16177 0
M  V30 34 H 0.9661 -5.28261 2.02377 0
M  V30 35 H -0.4769 -5.93855 2.68663 0
M  V30 36 N 2.9562 -1.48159 -0.537278 0
M  V30 37 C 4.2052 -1.5506 -1.28993 0
M  V30 38 C 4.5182 -0.226211 -1.94288 0
M  V30 39 O 5.7242 -0.173395 -2.70946 0
M  V30 40 C 4.1802 -2.73429 -2.34018 0
M  V30 41 C 3.7882 -4.1248 -1.74825 0
M  V30 42 C 5.5322 -2.89638 -3.10339 0
M  V30 43 C 3.4392 -5.22121 -2.77747 0
M  V30 44 H 2.3692 -0.577231 -0.485098 0
M  V30 45 H 5.0202 -1.74478 -0.568317 0
M  V30 46 H 3.4022 -2.47431 -3.09182 0
M  V30 47 H 4.5762 -4.48466 -1.05899 0
M  V30 48 H 2.8912 -4.01327 -1.11022 0
M  V30 49 H 5.4882 -3.68718 -3.87235 0
M  V30 50 H 5.8312 -1.9882 -3.65754 0
M  V30 51 H 6.3642 -3.15502 -2.42288 0
M  V30 52 H 3.1032 -6.1488 -2.27161 0
M  V30 53 H 2.6232 -4.90631 -3.45024 0
M  V30 54 H 4.3022 -5.49924 -3.4087 0
M  V30 55 N 4.4343 0.785586 -1.36625 0
M  V30 56 C 5.3643 1.91259 -1.33949 0
M  V30 57 C 6.3453 1.68795 -0.210325 0
M  V30 58 O 7.5303 1.89854 -0.408561 0
M  V30 59 C 4.6603 3.28339 -1.13186 0
M  V30 60 C 3.6143 3.65335 -2.22967 0
M  V30 61 C 2.9403 5.00806 -1.87342 0
M  V30 62 C 4.2403 3.7352 -3.65075 0
M  V30 63 H 5.9343 1.93755 -2.28253 0
M  V30 64 H 3.4803 0.930788 -1.09874 0
M  V30 65 H 5.4333 4.06804 -1.09948 0
M  V30 66 H 4.1573 3.2624 -0.153332 0
M  V30 67 H 2.8163 2.89169 -2.25337 0
M  V30 68 H 2.4643 4.95233 -0.880545 0
M  V30 69 H 2.1643 5.26529 -2.60846 0
M  V30 70 H 3.6883 5.81687 -1.85667 0
M  V30 71 H 5.1023 4.42168 -3.64911 0
M  V30 72 H 3.4993 4.10731 -4.37516 0
M  V30 73 H 4.5693 2.74527 -3.99703 0
M  V30 74 N 5.9124 1.20967 1.01018 0
M  V30 75 C 6.8424 0.988272 2.11555 0
M  V30 76 C 7.8234 -0.0849778 1.69888 0
M  V30 77 O 9.0084 0.0738202 1.9406 0
M  V30 78 C 6.1384 0.546528 3.42973 0
M  V30 79 C 5.0924 1.56375 3.9841 0
M  V30 80 C 4.4184 0.97842 5.25672 0
M  V30 81 C 5.7184 2.94922 4.31066 0
M  V30 82 H 7.4124 1.91276 2.30334 0
M  V30 83 H 4.9584 0.921073 1.1069 0
M  V30 84 H 6.9114 0.378839 4.19694 0
M  V30 85 H 5.6354 -0.413598 3.23971 0
M  V30 86 H 4.2944 1.71891 3.23804 0
M  V30 87 H 3.9424 0.0101688 5.02999 0
M  V30 88 H 3.6424 1.65784 5.63728 0
M  V30 89 H 5.1664 0.821939 6.05043 0
M  V30 90 H 6.5804 2.8288 4.9865 0
M  V30 91 H 4.9774 3.5983 4.80253 0
M  V30 92 H 6.0474 3.4616 3.39561 0
M  V30 93 N 7.3905 -1.2043 1.01659 0
M  V30 94 C 8.3535 -2.21433 0.591616 0
M  V30 95 C 9.3535 -1.57203 -0.338226 0
M  V30 96 O 10.5435 -1.73737 -0.126918 0
M  V30 97 C 7.6755 -3.40628 -0.136058 0
M  V30 98 H 8.8685 -2.60545 1.48514 0
M  V30 99 H 6.4215 -1.33893 0.806379 0
M  V30 100 H 7.1565 -3.07019 -1.04449 0
M  V30 101 H 6.9415 -3.88475 0.531917 0
M  V30 102 H 8.4315 -4.15475 -0.420735 0
M  V30 103 N 8.8686 -0.792821 -1.36206 0
M  V30 104 C 9.8166 -0.181555 -2.3189 0
M  V30 105 C 10.8106 0.661025 -1.55971 0
M  V30 106 O 12.0166 0.555728 -1.71206 0
M  V30 107 H 8.3916 -0.0399382 -0.750939 0
M  V30 108 H 10.3626 -1.00394 -2.81005 0
M  V30 109 C 9.1116 0.666444 -3.41253 0
M  V30 110 H 8.4346 0.0274489 -3.99791 0
M  V30 111 H 9.8746 1.06076 -4.10517 0
M  V30 112 C 8.3336 1.82614 -2.83114 0
M  V30 113 O 8.8636 2.9229 -2.75553 0
M  V30 114 N 7.0696 1.63333 -2.40356 0
M  V30 115 H 6.6166 0.741217 -2.46706 0
M  V30 116 H 6.5746 2.41087 -2.01803 0
M  V30 117 N 10.3467 1.47872 -0.545128 0
M  V30 118 C 11.7577 1.86384 -0.108581 0
M  V30 119 C 12.1087 1.45309 1.31832 0
M  V30 120 O 11.2337 0.850641 1.9898 0
M  V30 121 C 11.8287 3.38265 -0.190274 0
M  V30 122 C 10.3877 3.75914 0.191164 0
M  V30 123 C 9.5347 2.71926 -0.543273 0
M  V30 124 H 12.4857 1.39561 -0.755537 0
M  V30 125 H 12.5067 3.75831 0.594217 0
M  V30 126 H 12.0187 3.6813 -1.2289 0
M  V30 127 H 10.1197 3.51665 1.23136 0
M  V30 128 H 10.2327 4.78836 -0.158987 0
M  V30 129 H 8.5967 2.54697 0.0122495 0
M  V30 130 H 9.3797 3.04634 -1.58282 0
M  V30 131 N 11.8248 0.280983 1.55075 0
M  V30 132 C 13.2408 -0.0729964 1.59433 0
M  V30 133 C 13.4408 -1.5411 1.29817 0
M  V30 134 O 12.4968 -2.29086 1.06187 0
M  V30 135 C 13.8098 0.306921 2.9913 0
M  V30 136 C 15.3578 0.254023 3.11968 0
M  V30 137 C 15.8328 0.608467 4.5394 0
M  V30 138 N 17.3238 0.560241 4.59799 0
M  V30 139 C 18.0588 0.80722 5.6769 0
M  V30 140 N 17.5548 1.11912 6.83701 0
M  V30 141 N 19.3478 0.735623 5.57266 0
M  V30 142 H 11.4988 1.238 1.7259 0
M  V30 143 H 13.7618 0.500547 0.805082 0
M  V30 144 H 13.4678 1.32816 3.25657 0
M  V30 145 H 13.3418 -0.349363 3.75579 0
M  V30 146 H 15.7288 -0.75794 2.852 0
M  V30 147 H 15.8098 0.944649 2.37718 0
M  V30 148 H 15.4538 1.61814 4.81434 0
M  V30 149 H 15.3838 -0.104013 5.26497 0
M  V30 150 H 17.8748 0.329288 3.76463 0
M  V30 151 H 18.1878 1.29409 7.61888 0
M  V30 152 H 16.5328 1.15695 6.85303 0
M  V30 153 H 19.7238 0.491752 4.6551 0
M  V30 154 H 19.8968 0.931482 6.4127 0
M  V30 155 N 13.3029 -1.57598 0.00835791 0
M  V30 156 C 14.5509 -1.90551 -0.6734 0
M  V30 157 C 14.8719 -0.883301 -1.73847 0
M  V30 158 O 14.1419 0.0781442 -1.95744 0
M  V30 159 H 12.7219 -0.703312 -0.251717 0
M  V30 160 H 15.3839 -1.94833 0.0512592 0
M  V30 161 H 14.4799 -2.9056 -1.13935 0
M  V30 162 N 14.781 0.264519 -1.55364 0
M  V30 163 C 16.028 0.994986 -1.7637 0
M  V30 164 C 16.356 1.85976 -0.5695 0
M  V30 165 O 15.611 1.90509 0.44776 0
M  V30 166 C 15.91 1.9004 -3.02687 0
M  V30 167 C 15.576 1.19243 -4.34847 0
M  V30 168 C 14.238 0.996709 -4.70764 0
M  V30 169 C 16.59 0.689296 -5.16622 0
M  V30 170 C 13.918 0.285261 -5.86006 0
M  V30 171 C 16.27 -0.00860079 -6.32599 0
M  V30 172 C 14.934 -0.215963 -6.67151 0
M  V30 173 H 14.204 0.364091 -0.645383 0
M  V30 174 H 16.851 0.266543 -1.89636 0
M  V30 175 H 15.156 2.69533 -2.84357 0
M  V30 176 H 16.853 2.46695 -3.16137 0
M  V30 177 H 13.443 1.3549 -4.06621 0
M  V30 178 H 17.627 0.828108 -4.89342 0
M  V30 179 H 12.883 0.113961 -6.11294 0
M  V30 180 H 17.057 -0.406186 -6.95214 0
M  V30 181 H 14.684 -0.769217 -7.56298 0
M  V30 182 N 16.2591 1.48442 0.529413 0
M  V30 183 C 17.4991 1.58086 1.29569 0
M  V30 184 C 17.8631 0.249302 1.90375 0
M  V30 185 O 19.0641 0.220738 2.67892 0
M  V30 186 C 17.3351 2.68793 2.35552 0
M  V30 187 S 18.8941 2.98207 3.21898 0
M  V30 188 H 15.7121 0.557922 0.440732 0
M  V30 189 H 18.3141 1.85966 0.603059 0
M  V30 190 H 17.0181 3.64102 1.89363 0
M  V30 191 H 16.5491 2.42817 3.09522 0
M  V30 192 H 18.5641 2.37548 4.35644 0
M  V30 193 N 17.7372 -0.778329 1.37039 0
M  V30 194 C 18.7002 -1.87301 1.32102 0
M  V30 195 C 19.7002 -1.59198 0.226405 0
M  V30 196 O 20.8902 -1.67403 0.481861 0
M  V30 197 C 18.0222 -3.24309 1.05055 0
M  V30 198 H 19.2152 -1.93093 2.29467 0
M  V30 199 H 16.7682 -0.977358 1.21973 0
M  V30 200 H 17.5032 -3.24196 0.0819373 0
M  V30 201 H 17.2882 -3.46098 1.84279 0
M  V30 202 H 18.7782 -4.04382 1.04234 0
M  V30 203 N 19.2153 -1.21501 -1.00376 0
M  V30 204 C 20.4633 -1.03095 -1.73827 0
M  V30 205 C 20.7843 0.436341 -1.90055 0
M  V30 206 O 20.0543 1.31466 -1.45236 0
M  V30 207 H 18.6343 -0.378487 -0.644016 0
M  V30 208 H 21.2963 -1.52831 -1.20949 0
M  V30 209 H 20.3923 -1.49991 -2.73695 0
M  V30 210 N 20.6934 1.19889 -1.02296 0
M  V30 211 C 21.9394 1.89701 -0.717033 0
M  V30 212 C 22.2724 1.7905 0.751989 0
M  V30 213 O 21.5474 1.17891 1.547 0
M  V30 214 C 21.8304 3.40858 -1.16136 0
M  V30 215 C 21.6834 3.60411 -2.69117 0
M  V30 216 C 23.0024 4.33876 -0.737549 0
M  V30 217 H 20.1214 0.688874 -0.261957 0
M  V30 218 H 22.7634 1.41154 -1.27183 0
M  V30 219 H 20.9134 3.82335 -0.689342 0
M  V30 220 H 22.5854 3.28145 -3.2422 0
M  V30 221 H 20.8284 3.03665 -3.0979 0
M  V30 222 H 21.4994 4.66396 -2.95261 0
M  V30 223 H 23.9754 4.00081 -1.14344 0
M  V30 224 H 22.8514 5.38242 -1.0764 0
M  V30 225 H 23.1124 4.40628 0.360436 0
M  V30 226 N 22.1715 0.800033 1.35784 0
M  V30 227 C 23.4485 0.30088 1.93272 0
M  V30 228 C 23.8285 -1.20857 1.73081 0
M  V30 229 O 23.1765 -2.00502 1.09596 0
M  V30 230 C 23.3865 0.70511 3.41803 0
M  V30 231 C 24.7345 0.690871 4.18942 0
M  V30 232 O 25.7585 0.646244 3.50289 0
M  V30 233 O 24.6175 0.74332 5.41421 0
M  V30 234 H 21.7115 0.0771605 0.823393 0
M  V30 235 H 24.2575 0.88329 1.449 0
M  V30 236 H 23.0295 1.74571 3.50201 0
M  V30 237 H 22.6525 0.0971541 3.97481 0
M  V30 238 N 23.6496 -1.47581 0.552962 0
M  V30 239 C 25.0656 -1.5818 0.212424 0
M  V30 240 C 25.2656 -1.55213 -1.28496 0
M  V30 241 O 24.3216 -1.45329 -2.06484 0
M  V30 242 C 25.6346 -2.88865 0.835318 0
M  V30 243 C 27.1826 -3.0244 0.806156 0
M  V30 244 C 27.6576 -4.35819 1.40804 0
M  V30 245 N 29.1486 -4.42444 1.37103 0
M  V30 246 C 29.8836 -5.44202 1.80641 0
M  V30 247 N 29.3796 -6.52795 2.32015 0
M  V30 248 N 31.1726 -5.35222 1.71738 0
M  V30 249 H 23.3236 -1.47753 1.52587 0
M  V30 250 H 25.5866 -0.702941 0.636064 0
M  V30 251 H 25.2926 -2.9676 1.88749 0
M  V30 252 H 25.1666 -3.7579 0.325848 0
M  V30 253 H 27.5536 -2.94144 -0.237317 0
M  V30 254 H 27.6346 -2.17068 1.35334 0
M  V30 255 H 27.2786 -4.44871 2.45056 0
M  V30 256 H 27.2086 -5.19916 0.836338 0
M  V30 257 H 29.6996 -3.6456 0.995202 0
M  V30 258 H 30.0126 -7.26609 2.63171 0
M  V30 259 H 28.3576 -6.53696 2.36023 0
M  V30 260 H 31.5486 -4.49284 1.31382 0
M  V30 261 H 31.7216 -6.14389 2.05987 0
M  V30 262 N 25.1277 -0.289203 -1.54924 0
M  V30 263 C 26.0907 0.579144 -2.21762 0
M  V30 264 C 27.0907 1.07047 -1.1999 0
M  V30 265 O 28.2807 0.968384 -1.44803 0
M  V30 266 C 25.4127 1.80055 -2.8947 0
M  V30 267 H 26.6057 -0.00464908 -2.999 0
M  V30 268 H 24.1587 -0.0399306 -1.56249 0
M  V30 269 H 24.8937 2.42449 -2.15381 0
M  V30 270 H 24.6787 1.45602 -3.64064 0
M  V30 271 H 26.1687 2.41773 -3.40493 0
M  V30 272 N 26.6058 1.57591 -0.0167156 0
M  V30 273 C 27.8548 1.90461 0.663877 0
M  V30 274 C 28.1678 0.893515 1.73999 0
M  V30 275 O 29.3738 1.11302 2.47637 0
M  V30 276 C 27.8298 3.38155 1.23204 0
M  V30 277 C 27.4378 4.47597 0.189866 0
M  V30 278 C 29.1818 3.80111 1.88986 0
M  V30 279 C 27.0888 5.86379 0.768964 0
M  V30 280 H 26.0188 0.710738 0.251729 0
M  V30 281 H 28.6698 1.83326 -0.0799926 0
M  V30 282 H 27.0518 3.40182 2.02712 0
M  V30 283 H 28.2258 4.57112 -0.581846 0
M  V30 284 H 26.5408 4.14766 -0.368475 0
M  V30 285 H 29.1378 4.81145 2.33247 0
M  V30 286 H 29.4808 3.14511 2.72743 0
M  V30 287 H 30.0138 3.80454 1.16187 0
M  V30 288 H 26.7528 6.55493 -0.0301957 0
M  V30 289 H 26.2728 5.80496 1.50945 0
M  V30 290 H 27.9518 6.34563 1.26251 0
M  V30 291 N 28.0839 -0.256276 1.55502 0
M  V30 292 C 29.3089 -1.00766 1.81276 0
M  V30 293 C 29.7339 -1.78524 0.59252 0
M  V30 294 O 29.0919 -1.75413 -0.45827 0
M  V30 295 C 29.1399 -1.92869 3.04687 0
M  V30 296 O 28.2439 -3.019 2.80945 0
M  V30 297 H 27.5849 -0.287224 0.598664 0
M  V30 298 H 30.1149 -0.280109 2.02674 0
M  V30 299 H 30.1249 -2.34511 3.33869 0
M  V30 300 H 28.7999 -1.35689 3.93143 0
M  V30 301 H 27.3769 -2.64454 2.62904 0
M  V30 302 N 29.562 -1.4872 -0.521534 0
M  V30 303 C 30.811 -1.56419 -1.27341 0
M  V30 304 C 31.124 -0.246805 -1.94037 0
M  V30 305 O 32.33 -0.202122 -2.70747 0
M  V30 306 C 30.786 -2.75896 -2.31105 0
M  V30 307 C 30.394 -4.14311 -1.70441 0
M  V30 308 C 32.138 -2.92913 -3.07249 0
M  V30 309 C 30.045 -5.25038 -2.72194 0
M  V30 310 H 28.975 -0.582344 -0.478949 0
M  V30 311 H 31.626 -1.75071 -0.549779 0
M  V30 312 H 30.008 -2.50697 -3.06541 0
M  V30 313 H 31.182 -4.49564 -1.01136 0
M  V30 314 H 29.497 -4.02482 -1.06759 0
M  V30 315 H 32.094 -3.72805 -3.83302 0
M  V30 316 H 32.437 -2.02689 -3.63625 0
M  V30 317 H 32.97 -3.18054 -2.38928 0
M  V30 318 H 29.709 -6.17255 -2.20627 0
M  V30 319 H 29.229 -4.94263 -3.39801 0
M  V30 320 H 30.908 -5.53508 -3.35019 0
M  V30 321 N 31.0401 0.771051 -1.3745 0
M  V30 322 C 32.2861 1.5319 -1.32894 0
M  V30 323 C 32.6191 1.94008 0.0862511 0
M  V30 324 O 31.8941 1.64124 1.04373 0
M  V30 325 C 32.1771 2.79648 -2.26868 0
M  V30 326 C 32.0301 2.45079 -3.77169 0
M  V30 327 C 33.3491 3.81583 -2.19277 0
M  V30 328 H 30.4681 0.555744 -0.484064 0
M  V30 329 H 33.1101 0.884492 -1.68157 0
M  V30 330 H 31.2601 3.34891 -1.96926 0
M  V30 331 H 32.9321 1.95745 -4.1771 0
M  V30 332 H 31.1751 1.77767 -3.95704 0
M  V30 333 H 31.8461 3.35478 -4.38359 0
M  V30 334 H 34.3221 3.35835 -2.45671 0
M  V30 335 H 33.1981 4.67787 -2.87171 0
M  V30 336 H 33.4591 4.25897 -1.18592 0
M  V30 337 N 32.5182 1.22032 0.997298 0
M  V30 338 C 33.4282 1.00271 2.12092 0
M  V30 339 C 34.4442 -0.047621 1.73935 0
M  V30 340 O 35.6202 0.144136 2.00884 0
M  V30 341 C 32.6852 0.578449 3.4184 0
M  V30 342 C 31.7462 1.70189 3.94125 0
M  V30 343 C 30.9792 1.29778 5.17681 0
M  V30 344 O 31.2022 0.174676 5.70132 0
M  V30 345 O 30.1362 2.11261 5.63607 0
M  V30 346 H 33.9622 1.94398 2.3333 0
M  V30 347 H 31.5472 1.00587 1.10465 0
M  V30 348 H 33.4292 0.351998 4.19927 0
M  V30 349 H 32.1042 -0.334019 3.21972 0
M  V30 350 H 31.0112 1.98282 3.1723 0
M  V30 351 H 32.3442 2.59206 4.18417 0
M  V30 352 N 33.9963 -1.19345 1.0293 0
M  V30 353 C 34.9443 -2.24621 0.604001 0
M  V30 354 C 35.9383 -1.65452 -0.363587 0
M  V30 355 O 37.1443 -1.78497 -0.23212 0
M  V30 356 H 33.5193 -0.730858 0.177061 0
M  V30 357 H 35.4903 -2.5781 1.50255 0
M  V30 358 C 34.2393 -3.47688 -0.0289127 0
M  V30 359 H 33.5623 -3.93505 0.706651 0
M  V30 360 H 35.0023 -4.23011 -0.289432 0
M  V30 361 C 33.4613 -3.11817 -1.2756 0
M  V30 362 O 33.9913 -3.2451 -2.36762 0
M  V30 363 N 32.1973 -2.66246 -1.16453 0
M  V30 364 H 31.7443 -2.56118 -0.275914 0
M  V30 365 H 31.7023 -2.42617 -1.99961 0
M  V30 366 N 35.4744 -0.807222 -1.35358 0
M  V30 367 C 36.4374 -0.223665 -2.28106 0
M  V30 368 C 37.4374 0.589354 -1.4961 0
M  V30 369 O 38.6274 0.407745 -1.69361 0
M  V30 370 C 35.7594 0.688149 -3.33882 0
M  V30 371 H 36.9524 -1.04169 -2.81227 0
M  V30 372 H 34.5054 -0.577921 -1.45223 0
M  V30 373 H 35.2404 1.52984 -2.85948 0
M  V30 374 H 35.0254 0.10687 -3.91954 0
M  V30 375 H 36.5154 1.09075 -4.03104 0
M  V30 376 N 36.9525 1.47285 -0.560781 0
M  V30 377 C 37.8825 2.32857 0.173105 0
M  V30 378 C 38.8635 1.44009 0.905281 0
M  V30 379 O 40.0485 1.7286 0.885046 0
M  V30 380 C 37.1785 3.25861 1.20133 0
M  V30 381 C 36.1325 4.23978 0.585388 0
M  V30 382 C 35.4585 5.06332 1.7185 0
M  V30 383 C 36.7585 5.20242 -0.463178 0
M  V30 384 H 38.4525 2.94466 -0.541307 0
M  V30 385 H 35.9985 1.41601 -0.261764 0
M  V30 386 H 37.9515 3.84569 1.72293 0
M  V30 387 H 36.6755 2.62315 1.94573 0
M  V30 388 H 35.3345 3.66501 0.085054 0
M  V30 389 H 34.9825 4.39186 2.45203 0
M  V30 390 H 34.6825 5.72762 1.31213 0
M  V30 391 H 36.2065 5.67899 2.24329 0
M  V30 392 H 37.6205 5.73293 -0.027502 0
M  V30 393 H 36.0175 5.94896 -0.788627 0
M  V30 394 H 37.0875 4.65504 -1.35773 0
M  V30 395 N 38.4306 0.297415 1.54768 0
M  V30 396 C 39.3936 -0.567375 2.22066 0
M  V30 397 C 40.3936 -1.06409 1.20556 0
M  V30 398 O 41.5836 -0.960691 1.45315 0
M  V30 399 C 38.7156 -1.78517 2.90421 0
M  V30 400 H 39.9086 0.0205534 2.99893 0
M  V30 401 H 37.4616 0.0482163 1.56226 0
M  V30 402 H 38.1966 -2.41303 2.16664 0
M  V30 403 H 37.9816 -1.43669 3.64831 0
M  V30 404 H 39.4716 -2.39964 3.41771 0
M  V30 405 N 39.9087 -1.5758 0.0250728 0
M  V30 406 C 41.1577 -1.90811 -0.653767 0
M  V30 407 C 41.4707 -0.90273 -1.73523 0
M  V30 408 O 42.6767 -1.12614 -2.47043 0
M  V30 409 C 41.1327 -3.38804 -1.21409 0
M  V30 410 C 40.7407 -4.47692 -0.166126 0
M  V30 411 C 42.4847 -3.81108 -1.86967 0
M  V30 412 C 40.3917 -5.86779 -0.737856 0
M  V30 413 H 39.3217 -0.712063 -0.247956 0
M  V30 414 H 41.9727 -1.83281 0.0897137 0
M  V30 415 H 40.3547 -3.41252 -2.00905 0
M  V30 416 H 41.5287 -4.56797 0.606079 0
M  V30 417 H 39.8437 -4.14565 0.390466 0
M  V30 418 H 42.4407 -4.82375 -2.30692 0
M  V30 419 H 42.7837 -3.15953 -2.71071 0
M  V30 420 H 43.3167 -3.81065 -1.14167 0
M  V30 421 H 40.0557 -6.55468 0.0649577 0
M  V30 422 H 39.5757 -5.81288 -1.47864 0
M  V30 423 H 41.2547 -6.35223 -1.22884 0
M  V30 424 N 41.3868 0.248026 -1.55636 0
M  V30 425 C 42.6168 0.992367 -1.81206 0
M  V30 426 C 43.0248 1.7949 -0.598324 0
M  V30 427 O 42.3678 1.78292 0.442434 0
M  V30 428 C 42.4298 1.97926 -3.00109 0
M  V30 429 C 42.0938 1.36377 -4.36177 0
M  V30 430 C 43.0908 0.76682 -5.14214 0
M  V30 431 C 40.7758 1.38347 -4.82872 0
M  V30 432 C 42.7698 0.197778 -6.37093 0
M  V30 433 C 40.4568 0.810574 -6.057 0
M  V30 434 C 41.4548 0.218754 -6.8265 0
M  V30 435 O 41.1428 -0.345298 -8.03158 0
M  V30 436 H 40.8748 0.297704 -0.606917 0
M  V30 437 H 43.4288 0.276517 -2.0353 0
M  V30 438 H 41.6588 2.73339 -2.73538 0
M  V30 439 H 43.3478 2.58694 -3.12781 0
M  V30 440 H 44.1138 0.744114 -4.79258 0
M  V30 441 H 39.9928 1.8335 -4.2297 0
M  V30 442 H 43.5368 -0.264788 -6.97097 0
M  V30 443 H 39.4338 0.830604 -6.40134 0
M  V30 444 H 40.2018 -0.237055 -8.18157 0
M  V30 445 N 42.8649 1.48995 0.513639 0
M  V30 446 C 44.1129 1.57531 1.26604 0
M  V30 447 C 44.4339 0.258236 1.93283 0
M  V30 448 O 43.7039 -0.721502 1.8213 0
M  V30 449 H 42.2839 0.580387 0.470276 0
M  V30 450 H 44.9459 1.85552 0.596373 0
M  V30 451 H 44.0419 2.36486 2.03669 0
M  V30 452 N 44.343 -0.763751 1.37857 0
M  V30 453 C 45.306 -1.85889 1.34081 0
M  V30 454 C 46.306 -1.58949 0.243277 0
M  V30 455 O 47.496 -1.66882 0.499589 0
M  V30 456 C 44.628 -3.23176 1.08489 0
M  V30 457 H 45.821 -1.90648 2.31502 0
M  V30 458 H 43.374 -0.964367 1.23003 0
M  V30 459 H 44.109 -3.24091 0.116318 0
M  V30 460 H 43.894 -3.44124 1.8794 0
M  V30 461 H 45.384 -4.03254 1.08517 0
M  V30 462 N 45.8211 -1.22559 -0.990812 0
M  V30 463 C 47.2321 -1.04791 -1.54518 0
M  V30 464 C 47.5831 0.387998 -1.92325 0
M  V30 465 O 46.7081 1.27328 -1.74976 0
M  V30 466 C 47.3031 -1.896 -2.80779 0
M  V30 467 C 45.8621 -1.76124 -3.32652 0
M  V30 468 C 45.0091 -1.8594 -2.05722 0
M  V30 469 H 47.9601 -1.36374 -0.811662 0
M  V30 470 H 47.9811 -1.41464 -3.53225 0
M  V30 471 H 47.4931 -2.94101 -2.53231 0
M  V30 472 H 45.5941 -0.743643 -3.65104 0
M  V30 473 H 45.7071 -2.58913 -4.03114 0
M  V30 474 H 44.0711 -1.29403 -2.19379 0
M  V30 475 H 44.8541 -2.91976 -1.80568 0
M  V30 476 N 47.2992 1.18797 -1.03562 0
M  V30 477 C 48.5482 1.87978 -0.731235 0
M  V30 478 C 48.8612 1.80911 0.743671 0
M  V30 479 O 50.0672 2.45407 1.16137 0
M  V30 480 C 48.5232 3.3721 -1.25768 0
M  V30 481 C 48.1312 3.52818 -2.76085 0
M  V30 482 C 49.8752 4.11825 -1.0296 0
M  V30 483 C 47.7822 4.9598 -3.22114 0
M  V30 484 H 46.7122 0.704063 -0.269835 0
M  V30 485 H 49.3632 1.34266 -1.25079 0
M  V30 486 H 47.7452 3.90359 -0.666011 0
M  V30 487 H 48.9192 3.09965 -3.40966 0
M  V30 488 H 47.2342 2.91602 -2.97249 0
M  V30 489 H 49.8312 5.17411 -1.34869 0
M  V30 490 H 50.1742 4.16287 0.0333546 0
M  V30 491 H 50.7072 3.64833 -1.58562 0
M  V30 492 H 47.4462 4.96684 -4.27768 0
M  V30 493 H 46.9662 5.39569 -2.61965 0
M  V30 494 H 48.6452 5.6467 -3.15844 0
M  V30 495 N 48.7773 0.814389 1.34928 0
M  V30 496 C 50.0073 0.41054 2.0248 0
M  V30 497 C 50.4153 -0.985625 1.61499 0
M  V30 498 O 49.7583 -1.64781 0.811976 0
M  V30 499 C 49.8203 0.423384 3.56998 0
M  V30 500 C 49.4843 1.77141 4.21272 0
M  V30 501 C 50.4813 2.73093 4.42398 0
M  V30 502 C 48.1663 2.05755 4.58225 0
M  V30 503 C 50.1603 3.95838 4.9959 0
M  V30 504 C 47.8473 3.28762 5.1513 0
M  V30 505 C 48.8453 4.23621 5.35755 0
M  V30 506 O 48.5333 5.44456 5.91458 0
M  V30 507 H 48.2653 0.163997 0.655806 0
M  V30 508 H 50.8193 1.10155 1.73364 0
M  V30 509 H 49.0493 -0.324276 3.85338 0
M  V30 510 H 50.7383 0.0407683 4.0588 0
M  V30 511 H 51.5043 2.5228 4.14222 0
M  V30 512 H 47.3833 1.32727 4.4148 0
M  V30 513 H 50.9273 4.69891 5.15605 0
M  V30 514 H 46.8243 3.49443 5.42734 0
M  V30 515 H 47.5923 5.4586 6.09901 0
M  V30 516 N 50.2554 -1.46986 0.568584 0
M  V30 517 C 51.5014 -2.02741 0.0488709 0
M  V30 518 C 51.8344 -1.44077 -1.30214 0
M  V30 519 O 51.1094 -0.600552 -1.84996 0
M  V30 520 C 51.3924 -3.60086 -0.032047 0
M  V30 521 C 51.2454 -4.29162 1.34686 0
M  V30 522 C 52.5644 -4.33838 -0.739798 0
M  V30 523 H 49.6834 -0.736749 0.0192338 0
M  V30 524 H 52.3254 -1.75289 0.733065 0
M  V30 525 H 50.4754 -3.83606 -0.61473 0
M  V30 526 H 52.1474 -4.16948 1.97362 0
M  V30 527 H 50.3904 -3.89073 1.91846 0
M  V30 528 H 51.0614 -5.37826 1.24285 0
M  V30 529 H 53.5374 -4.15378 -0.244939 0
M  V30 530 H 52.4134 -5.43537 -0.765406 0
M  V30 531 H 52.6744 -4.03875 -1.79827 0
M  V30 532 N 51.7335 -0.305618 -1.54608 0
M  V30 533 C 53.1495 0.0476228 -1.59529 0
M  V30 534 C 53.3495 1.52025 -1.32252 0
M  V30 535 O 52.4055 2.27368 -1.09818 0
M  V30 536 C 53.7185 -0.354471 -2.98603 0
M  V30 537 C 55.2665 -0.303622 -3.11524 0
M  V30 538 C 55.7415 -0.680608 -4.52915 0
M  V30 539 N 57.2325 -0.63332 -4.5885 0
M  V30 540 C 57.9675 -0.897432 -5.66334 0
M  V30 541 N 57.4635 -1.22775 -6.81834 0
M  V30 542 N 59.2565 -0.824186 -5.56025 0
M  V30 543 H 51.4075 -1.2653 -1.70599 0
M  V30 544 H 53.6705 -0.513291 -0.797017 0
M  V30 545 H 53.3765 -1.3798 -3.23503 0
M  V30 546 H 53.2505 0.289568 -3.76087 0
M  V30 547 H 55.6375 0.712472 -2.8637 0
M  V30 548 H 55.7185 -0.982348 -2.36185 0
M  V30 549 H 55.3625 -1.69453 -4.78799 0
M  V30 550 H 55.2925 0.0202385 -5.26596 0
M  V30 551 H 57.7835 -0.389138 -3.75891 0
M  V30 552 H 58.0965 -1.41513 -7.59733 0
M  V30 553 H 56.4415 -1.26583 -6.83375 0
M  V30 554 H 59.6325 -0.565748 -4.64669 0
M  V30 555 H 59.8055 -1.03338 -6.39707 0
M  V30 556 N 53.2116 1.57565 -0.0334293 0
M  V30 557 C 54.1616 2.06978 0.956237 0
M  V30 558 C 55.1456 0.971193 1.28283 0
M  V30 559 O 56.3376 1.23471 1.26822 0
M  V30 560 C 53.4666 2.60393 2.23719 0
M  V30 561 C 52.5526 3.7719 1.93877 0
M  V30 562 N 52.9436 4.87639 1.34321 0
M  V30 563 C 51.2416 3.85758 2.23845 0
M  V30 564 C 51.9426 5.68825 1.21709 0
M  V30 565 N 50.9186 5.1587 1.71404 0
M  V30 566 H 54.7206 2.89773 0.490815 0
M  V30 567 H 52.2346 1.61492 0.171478 0
M  V30 568 H 54.2316 2.94088 2.95496 0
M  V30 569 H 52.8916 1.79031 2.70884 0
M  V30 570 H 53.9026 5.07803 1.01767 0
M  V30 571 H 50.5796 3.1531 2.73653 0
M  V30 572 H 51.9696 6.67631 0.75621 0
M  V30 573 N 54.6897 -0.239769 1.55765 0
M  V30 574 C 55.5997 -1.31831 1.94056 0
M  V30 575 C 56.6157 -1.52275 0.841925 0
M  V30 576 O 57.7917 -1.65759 1.14394 0
M  V30 577 C 54.8567 -2.65156 2.23368 0
M  V30 578 C 53.9177 -2.53173 3.46701 0
M  V30 579 C 53.1507 -3.8014 3.74606 0
M  V30 580 O 53.3737 -4.82343 3.04469 0
M  V30 581 O 52.3077 -3.78344 4.68123 0
M  V30 582 H 56.1337 -1.02347 2.85935 0
M  V30 583 H 53.7187 -0.441123 1.42739 0
M  V30 584 H 55.6007 -3.43929 2.43497 0
M  V30 585 H 54.2757 -2.94358 1.34666 0
M  V30 586 H 53.1827 -1.72662 3.31871 0
M  V30 587 H 54.5157 -2.28915 4.35728 0
M  V30 588 N 56.1678 -1.49265 -0.50573 0
M  V30 589 C 57.4138 -1.58748 -1.26202 0
M  V30 590 C 57.7468 -0.271227 -1.92297 0
M  V30 591 O 57.0218 0.724831 -1.80489 0
M  V30 592 C 57.3048 -2.74332 -2.33268 0
M  V30 593 C 57.1578 -4.15737 -1.71705 0
M  V30 594 C 58.4768 -2.85576 -3.34865 0
M  V30 595 H 55.5958 -0.577826 -0.457478 0
M  V30 596 H 58.2378 -1.81532 -0.560897 0
M  V30 597 H 56.3878 -2.55036 -2.93068 0
M  V30 598 H 58.0598 -4.46537 -1.15769 0
M  V30 599 H 56.3028 -4.21605 -1.02135 0
M  V30 600 H 56.9738 -4.92477 -2.49341 0
M  V30 601 H 59.4498 -3.03127 -2.8505 0
M  V30 602 H 58.3258 -3.68135 -4.07146 0
M  V30 603 H 58.5868 -1.94732 -3.96903 0
M  V30 604 N 57.6459 0.756429 -1.3826 0
M  V30 605 C 58.8919 1.51772 -1.34511 0
M  V30 606 C 59.2249 1.94089 0.0656691 0
M  V30 607 O 58.4999 1.65221 1.02626 0
M  V30 608 C 58.7829 2.77226 -2.29821 0
M  V30 609 C 58.6359 2.41065 -3.79747 0
M  V30 610 C 59.9549 3.79236 -2.23312 0
M  V30 611 H 57.0739 0.550578 -0.489931 0
M  V30 612 H 59.7159 0.866607 -1.69086 0
M  V30 613 H 57.8659 3.32784 -2.00467 0
M  V30 614 H 59.5379 1.91303 -4.19763 0
M  V30 615 H 57.7809 1.7356 -3.97567 0
M  V30 616 H 58.4519 3.3081 -4.41892 0
M  V30 617 H 60.9279 3.3321 -2.49219 0
M  V30 618 H 59.8039 4.64714 -2.92116 0
M  V30 619 H 60.0649 4.24615 -1.23102 0
M  V30 620 N 59.124 1.23083 0.984299 0
M  V30 621 C 60.074 0.975749 2.06066 0
M  V30 622 C 61.058 -0.0768251 1.60716 0
M  V30 623 O 62.25 0.134805 1.76486 0
M  V30 624 C 59.379 0.564673 3.38624 0
M  V30 625 C 58.465 1.65244 3.90583 0
M  V30 626 N 58.856 2.88193 4.15666 0
M  V30 627 C 57.154 1.52612 4.19077 0
M  V30 628 C 57.855 3.58593 4.58024 0
M  V30 629 N 56.831 2.86093 4.62225 0
M  V30 630 H 60.633 1.90957 2.23411 0
M  V30 631 H 58.147 1.12963 1.16675 0
M  V30 632 H 60.144 0.36322 4.15315 0
M  V30 633 H 58.804 -0.362147 3.22674 0
M  V30 634 H 59.815 3.24537 4.03604 0
M  V30 635 H 56.492 0.666121 4.12152 0
M  V30 636 H 57.882 4.63974 4.85982 0
M  V30 637 N 60.6021 -1.18246 1.0419 0
M  V30 638 C 61.5501 -2.23968 0.627792 0
M  V30 639 C 62.5441 -1.65828 -0.346019 0
M  V30 640 O 63.7501 -1.78733 -0.213175 0
M  V30 641 H 60.1251 -0.728939 0.184802 0
M  V30 642 H 62.0961 -2.56202 1.52981 0
M  V30 643 C 60.8451 -3.47699 0.00796591 0
M  V30 644 H 60.1681 -3.92734 0.748347 0
M  V30 645 H 61.6081 -4.23294 -0.24455 0
M  V30 646 C 60.0671 -3.13153 -1.24246 0
M  V30 647 O 60.5971 -3.27003 -2.33307 0
M  V30 648 N 58.8031 -2.67467 -1.13622 0
M  V30 649 H 58.3501 -2.56396 -0.248734 0
M  V30 650 H 58.3081 -2.44724 -1.97377 0
M  V30 651 N 62.0802 -0.821533 -1.34494 0
M  V30 652 C 63.4962 -0.507117 -1.51329 0
M  V30 653 C 63.6962 0.968964 -1.76673 0
M  V30 654 O 62.7522 1.75348 -1.81685 0
M  V30 655 C 64.0652 -1.36544 -2.67911 0
M  V30 656 C 65.6132 -1.36242 -2.81793 0
M  V30 657 C 66.0882 -2.2052 -4.01416 0
M  V30 658 N 67.5792 -2.18136 -4.08621 0
M  V30 659 C 68.3142 -2.80095 -5.00334 0
M  V30 660 N 67.8102 -3.51039 -5.9728 0
M  V30 661 N 69.6032 -2.69656 -4.93196 0
M  V30 662 H 61.7542 -1.77729 -1.16302 0
M  V30 663 H 64.0172 -0.757291 -0.570276 0
M  V30 664 H 63.7232 -2.41361 -2.55808 0
M  V30 665 H 63.5972 -1.02917 -3.62888 0
M  V30 666 H 65.9842 -0.322041 -2.93338 0
M  V30 667 H 66.0652 -1.73866 -1.87628 0
M  V30 668 H 65.7092 -3.24607 -3.90631 0
M  V30 669 H 65.6392 -1.80247 -4.94791 0
M  V30 670 H 68.1302 -1.6653 -3.39229 0
M  V30 671 H 68.4432 -3.95565 -6.63889 0
M  V30 672 H 66.7882 -3.55145 -5.97409 0
M  V30 673 H 69.9792 -2.13808 -4.16418 0
M  V30 674 H 70.1522 -3.1823 -5.64476 0
M  V30 675 N 63.5583 1.46682 -0.576371 0
M  V30 676 C 64.7883 2.06498 -0.0648694 0
M  V30 677 C 65.1963 1.42665 1.24271 0
M  V30 678 O 64.5393 0.523886 1.76071 0
M  V30 679 C 64.6013 3.5904 0.181816 0
M  V30 680 C 64.2653 4.45028 -1.0392 0
M  V30 681 C 65.2623 4.81959 -1.94966 0
M  V30 682 C 62.9473 4.86259 -1.25927 0
M  V30 683 C 64.9413 5.58942 -3.06371 0
M  V30 684 C 62.6283 5.63002 -2.37638 0
M  V30 685 C 63.6263 5.99257 -3.2769 0
M  V30 686 O 63.3143 6.7445 -4.37461 0
M  V30 687 H 63.0463 0.674028 -0.0515987 0
M  V30 688 H 65.6003 1.89393 -0.794951 0
M  V30 689 H 63.8303 3.74429 0.966436 0
M  V30 690 H 65.5193 4.00806 0.641047 0
M  V30 691 H 66.2853 4.50689 -1.79177 0
M  V30 692 H 62.1643 4.57494 -0.567448 0
M  V30 693 H 65.7083 5.87158 -3.76684 0
M  V30 694 H 61.6053 5.93686 -2.53392 0
M  V30 695 H 62.3733 6.92867 -4.35749 0
M  V30 696 N 65.0364 0.313813 1.54444 0
M  V30 697 C 66.2824 -0.292108 2.00685 0
M  V30 698 C 66.6154 -1.52548 1.20177 0
M  V30 699 O 65.8904 -1.92452 0.281531 0
M  V30 700 C 66.1734 -0.635968 3.5444 0
M  V30 701 C 66.0264 0.607437 4.4568 0
M  V30 702 C 67.3454 -1.45747 4.15266 0
M  V30 703 H 64.4644 -0.104697 0.729526 0
M  V30 704 H 67.1064 0.428457 1.85106 0
M  V30 705 H 65.2564 -1.24986 3.67846 0
M  V30 706 H 66.9284 1.24581 4.44159 0
M  V30 707 H 65.1714 1.23822 4.15753 0
M  V30 708 H 65.8424 0.322515 5.51057 0
M  V30 709 H 68.3184 -0.938645 4.05375 0
M  V30 710 H 67.1944 -1.66683 5.2298 0
M  V30 711 H 67.4554 -2.45063 3.67963 0
M  V30 712 N 66.5145 -1.57545 0.0417849 0
M  V30 713 C 67.7605 -1.92601 -0.635021 0
M  V30 714 C 68.0935 -0.919627 -1.71045 0
M  V30 715 O 67.3685 0.0557892 -1.9442 0
M  V30 716 C 67.6515 -3.38085 -1.23979 0
M  V30 717 C 67.5045 -4.49467 -0.173057 0
M  V30 718 C 68.8235 -3.83776 -2.15416 0
M  V30 719 H 65.9425 -0.700397 -0.229374 0
M  V30 720 H 68.5845 -1.89728 0.101633 0
M  V30 721 H 66.7345 -3.40664 -1.86762 0
M  V30 722 H 68.4065 -4.59018 0.458312 0
M  V30 723 H 66.6495 -4.30909 0.499996 0
M  V30 724 H 67.3205 -5.48323 -0.636054 0
M  V30 725 H 69.7965 -3.83013 -1.62605 0
M  V30 726 H 68.6725 -4.8624 -2.54679 0
M  V30 727 H 68.9335 -3.19998 -3.05047 0
M  V30 728 N 67.9926 0.231505 -1.5589 0
M  V30 729 C 69.2696 0.981096 -1.69215 0
M  V30 730 C 69.6496 2.02799 -0.586164 0
M  V30 731 O 68.9976 2.24823 0.408253 0
M  V30 732 C 69.2076 1.60054 -3.10135 0
M  V30 733 C 70.5556 2.09658 -3.69227 0
M  V30 734 O 71.5796 1.69967 -3.13033 0
M  V30 735 O 70.4386 2.8258 -4.67772 0
M  V30 736 H 67.5326 0.457653 -0.688827 0
M  V30 737 H 70.0786 0.224073 -1.68214 0
M  V30 738 H 68.8506 0.844105 -3.82087 0
M  V30 739 H 68.4736 2.42336 -3.15212 0
M  V30 740 N 69.4707 1.49531 0.497807 0
M  V30 741 C 70.6957 1.63159 1.28039 0
M  V30 742 C 71.1207 0.30418 1.85624 0
M  V30 743 O 70.4787 -0.728618 1.66015 0
M  V30 744 C 70.5267 2.70537 2.38416 0
M  V30 745 O 69.6307 2.29931 3.42353 0
M  V30 746 H 68.9717 0.546001 0.377861 0
M  V30 747 H 71.5017 1.9574 0.59558 0
M  V30 748 H 71.5117 2.92802 2.84132 0
M  V30 749 H 70.1867 3.6689 1.95869 0
M  V30 750 H 68.7637 2.18009 3.02533 0
M  V30 751 N 70.9488 -0.749086 1.3866 0
M  V30 752 C 71.8788 -1.8764 1.38973 0
M  V30 753 C 72.8598 -1.68178 0.255004 0
M  V30 754 O 74.0448 -1.88704 0.458754 0
M  V30 755 C 71.1748 -3.25222 1.21851 0
M  V30 756 C 70.1288 -3.59295 2.32575 0
M  V30 757 C 69.4548 -4.95663 2.00555 0
M  V30 758 C 70.7548 -3.63709 3.7485 0
M  V30 759 H 72.4488 -1.87635 2.3331 0
M  V30 760 H 69.9948 -0.901329 1.12303 0
M  V30 761 H 71.9478 -4.03746 1.20695 0
M  V30 762 H 70.6718 -3.25719 0.239775 0
M  V30 763 H 69.3308 -2.83093 2.32925 0
M  V30 764 H 68.9788 -4.92724 1.01154 0
M  V30 765 H 68.6788 -5.19429 2.74714 0
M  V30 766 H 70.2028 -5.7656 2.01024 0
M  V30 767 H 71.6168 -4.32338 3.76506 0
M  V30 768 H 70.0138 -3.98986 4.48252 0
M  V30 769 H 71.0838 -2.63834 4.06841 0
M  V30 770 N 72.4269 -1.23603 -0.977757 0
M  V30 771 C 73.8429 -0.999251 -1.24447 0
M  V30 772 C 74.0429 0.298053 -1.99283 0
M  V30 773 O 73.0989 1.01681 -2.31122 0
M  V30 774 C 74.4119 -2.20784 -2.04144 0
M  V30 775 C 75.9599 -2.25303 -2.17273 0
M  V30 776 C 76.4349 -3.45755 -3.00362 0
M  V30 777 N 77.9259 -3.4601 -3.07947 0
M  V30 778 C 78.6609 -4.35868 -3.72568 0
M  V30 779 N 78.1569 -5.35966 -4.38991 0
M  V30 780 N 79.9499 -4.23605 -3.6948 0
M  V30 781 H 72.1009 -2.06986 -0.476483 0
M  V30 782 H 74.3639 -0.907801 -0.273134 0
M  V30 783 H 74.0699 -3.14945 -1.56533 0
M  V30 784 H 73.9439 -2.22085 -3.04891 0
M  V30 785 H 76.3309 -1.3168 -2.64092 0
M  V30 786 H 76.4119 -2.28033 -1.15907 0
M  V30 787 H 76.0559 -4.39687 -2.5424 0
M  V30 788 H 75.9859 -3.40266 -4.01904 0
M  V30 789 H 78.4769 -2.73588 -2.60688 0
M  V30 790 H 78.7899 -6.00783 -4.86086 0
M  V30 791 H 77.1349 -5.39863 -4.37691 0
M  V30 792 H 80.3259 -3.44647 -3.16759 0
M  V30 793 H 80.4989 -4.93836 -4.1956 0
M  V30 794 N 73.905 1.17692 -1.04816 0
M  V30 795 C 74.815 2.25229 -0.65643 0
M  V30 796 C 75.831 1.71018 0.320761 0
M  V30 797 O 77.007 2.00649 0.173805 0
M  V30 798 C 74.072 3.46684 -0.0332629 0
M  V30 799 C 73.133 4.15997 -1.06042 0
M  V30 800 C 72.366 5.31654 -0.466893 0
M  V30 801 O 72.589 5.65777 0.724758 0
M  V30 802 O 71.523 5.89831 -1.1993 0
M  V30 803 H 75.349 2.61016 -1.55255 0
M  V30 804 H 72.934 1.24919 -0.81949 0
M  V30 805 H 74.816 4.20234 0.313256 0
M  V30 806 H 73.491 3.12703 0.836566 0
M  V30 807 H 72.398 3.44482 -1.45886 0
M  V30 808 H 73.731 4.53996 -1.90127 0
M  V30 809 N 75.3831 0.828654 1.34056 0
M  V30 810 C 76.7991 0.515135 1.51058 0
M  V30 811 C 76.9991 -0.959581 1.77184 0
M  V30 812 O 76.0551 -1.74382 1.82612 0
M  V30 813 C 77.3681 1.37963 2.67183 0
M  V30 814 C 78.9161 1.37735 2.81066 0
M  V30 815 C 79.3911 2.22645 4.00241 0
M  V30 816 N 80.8821 2.203 4.07458 0
M  V30 817 C 81.6171 2.82744 4.98842 0
M  V30 818 N 81.1131 3.54201 5.9541 0
M  V30 819 N 82.9061 2.72268 4.91759 0
M  V30 820 H 75.0571 1.78343 1.15358 0
M  V30 821 H 77.3201 0.760304 0.566252 0
M  V30 822 H 77.0261 2.42714 2.54525 0
M  V30 823 H 76.9001 1.0484 3.62338 0
M  V30 824 H 79.2871 0.337593 2.93163 0
M  V30 825 H 79.3681 1.74859 1.86703 0
M  V30 826 H 79.0121 3.26674 3.88905 0
M  V30 827 H 78.9421 1.82869 4.93829 0
M  V30 828 H 81.4331 1.68327 3.38341 0
M  V30 829 H 81.7461 3.9908 6.61782 0
M  V30 830 H 80.0911 3.58308 5.95517 0
M  V30 831 H 83.2821 2.16014 4.15278 0
M  V30 832 H 83.4551 3.21219 5.62781 0
M  V30 833 N 76.8612 -1.46375 0.584142 0
M  V30 834 C 78.1092 -2.01978 0.0701287 0
M  V30 835 C 78.4302 -1.4579 -1.295 0
M  V30 836 O 77.7002 -0.64314 -1.85042 0
M  V30 837 H 76.2802 -0.746648 0.0229345 0
M  V30 838 H 78.9422 -1.79461 0.760245 0
M  V30 839 H 78.0382 -3.121 0.0022064 0
M  V30 840 N 78.3393 -0.321999 -1.54275 0
M  V30 841 C 79.3023 0.531975 -2.22941 0
M  V30 842 C 80.3023 1.04478 -1.22234 0
M  V30 843 O 81.4923 0.937452 -1.46825 0
M  V30 844 C 78.6243 1.73874 -2.93224 0
M  V30 845 H 79.8173 -0.0682612 -2.99822 0
M  V30 846 H 77.3703 -0.0730644 -1.56129 0
M  V30 847 H 78.1053 2.37825 -2.20476 0
M  V30 848 H 77.8903 1.37847 -3.6707 0
M  V30 849 H 79.3803 2.34496 -3.45545 0
M  V30 850 N 79.8174 1.5752 -0.0501392 0
M  V30 851 C 81.0664 1.91827 0.623328 0
M  V30 852 C 81.3794 0.930222 1.72065 0
M  V30 853 O 82.5854 1.1653 2.4522 0
M  V30 854 C 81.0414 3.40692 1.16003 0
M  V30 855 C 80.6494 4.479 0.0948811 0
M  V30 856 C 82.3934 3.84034 1.80881 0
M  V30 857 C 80.3004 5.87879 0.644411 0
M  V30 858 H 79.2304 0.715918 0.236596 0
M  V30 859 H 81.8814 1.83115 -0.118861 0
M  V30 860 H 80.2634 3.44405 1.9545 0
M  V30 861 H 81.4374 4.55775 -0.678675 0
M  V30 862 H 79.7524 4.13892 -0.45637 0
M  V30 863 H 82.3494 4.85984 2.22988 0
M  V30 864 H 82.6924 3.20225 2.6601 0
M  V30 865 H 83.2254 3.82833 1.0809 0
M  V30 866 H 79.9644 6.55282 -0.169229 0
M  V30 867 H 79.4844 5.83567 1.38598 0
M  V30 868 H 81.1634 6.37098 1.12763 0
M  V30 869 N 81.2955 -0.223234 1.56011 0
M  V30 870 C 82.5425 -0.947875 1.78946 0
M  V30 871 C 82.8705 -1.844 0.618608 0
M  V30 872 O 82.1255 -1.91629 -0.397093 0
M  V30 873 C 82.4245 -1.81948 3.0762 0
M  V30 874 C 82.0905 -1.07672 4.37856 0
M  V30 875 C 80.7525 -0.871544 4.73242 0
M  V30 876 C 83.1045 -0.552081 5.18268 0
M  V30 877 C 80.4325 -0.129791 5.86556 0
M  V30 878 C 82.7845 0.17632 6.32354 0
M  V30 879 C 81.4485 0.39277 6.66343 0
M  V30 880 H 80.7185 -0.346852 0.654809 0
M  V30 881 H 83.3655 -0.216171 1.90276 0
M  V30 882 H 81.6705 -2.61899 2.91404 0
M  V30 883 H 83.3675 -2.38227 3.22566 0
M  V30 884 H 79.9575 -1.24662 4.1007 0
M  V30 885 H 84.1415 -0.698076 4.91366 0
M  V30 886 H 79.3975 0.048153 6.11381 0
M  V30 887 H 83.5715 0.590367 6.93893 0
M  V30 888 H 81.1985 0.969466 7.53993 0
M  V30 889 N 82.7736 -1.49793 -0.48987 0
M  V30 890 C 84.0226 -1.59085 -1.23995 0
M  V30 891 C 84.3356 -0.287907 -1.9347 0
M  V30 892 O 85.5416 -0.259506 -2.70257 0
M  V30 893 C 83.9976 -2.80736 -2.252 0
M  V30 894 C 83.6056 -4.17833 -1.61614 0
M  V30 895 C 85.3496 -2.99364 -3.00967 0
M  V30 896 C 83.2566 -5.30693 -2.60996 0
M  V30 897 H 82.1866 -0.592372 -0.466488 0
M  V30 898 H 84.8376 -1.76197 -0.51252 0
M  V30 899 H 83.2196 -2.57142 -3.01154 0
M  V30 900 H 84.3936 -4.51608 -0.915774 0
M  V30 901 H 82.7086 -4.04656 -0.981977 0
M  V30 902 H 85.3056 -3.80851 -3.75308 0
M  V30 903 H 85.6486 -2.10356 -3.59244 0
M  V30 904 H 86.1816 -3.2305 -2.32128 0
M  V30 905 H 82.9206 -6.21796 -2.07485 0
M  V30 906 H 82.4406 -5.01359 -3.2924 0
M  V30 907 H 84.1196 -5.6049 -3.23202 0
M  V30 908 N 84.2517 0.741722 -1.39055 0
M  V30 909 C 85.1617 1.88621 -1.39496 0
M  V30 910 C 86.1777 1.71557 -0.290578 0
M  V30 911 O 87.3537 1.94275 -0.530954 0
M  V30 912 C 84.4187 3.24134 -1.23037 0
M  V30 913 C 83.4797 3.5364 -2.43387 0
M  V30 914 C 82.7127 4.82687 -2.27703 0
M  V30 915 O 82.9357 5.55922 -1.27696 0
M  V30 916 O 81.8697 5.1194 -3.16545 0
M  V30 917 H 85.6957 1.91203 -2.35956 0
M  V30 918 H 83.2807 0.888625 -1.20099 0
M  V30 919 H 85.1627 4.0513 -1.15964 0
M  V30 920 H 83.8377 3.22337 -0.296691 0
M  V30 921 H 82.7447 2.72758 -2.56035 0
M  V30 922 H 84.0777 3.60209 -3.35425 0
M  V30 923 N 85.7298 1.2412 0.971189 0
M  V30 924 C 86.6618 0.988349 2.06795 0
M  V30 925 C 87.6748 -0.0409541 1.62748 0
M  V30 926 O 88.8638 0.195673 1.77424 0
M  V30 927 C 85.9638 0.469023 3.35639 0
M  V30 928 C 85.1368 1.56065 4.08611 0
M  V30 929 C 84.1958 1.04458 5.15728 0
M  V30 930 O 83.2218 1.73553 5.42096 0
M  V30 931 N 84.4238 -0.122817 5.8037 0
M  V30 932 H 87.1888 1.93265 2.29061 0
M  V30 933 H 84.7498 1.15102 1.13856 0
M  V30 934 H 86.7418 0.108613 4.04554 0
M  V30 935 H 85.3118 -0.380919 3.1027 0
M  V30 936 H 84.5318 2.09341 3.34021 0
M  V30 937 H 85.8198 2.29449 4.54126 0
M  V30 938 H 85.2178 -0.700563 5.61345 0
M  V30 939 H 83.7748 -0.424404 6.50417 0
M  V30 940 N 87.2079 -1.17134 1.05439 0
M  V30 941 C 88.4569 -1.86791 0.761049 0
M  V30 942 C 88.7699 -1.82072 -0.714795 0
M  V30 943 O 89.9759 -2.47223 -1.12218 0
M  V30 944 C 88.4319 -3.35166 1.31117 0
M  V30 945 C 88.0399 -3.48381 2.81664 0
M  V30 946 C 89.7839 -4.10134 1.09499 0
M  V30 947 C 87.6909 -4.90793 3.29964 0
M  V30 948 H 86.6209 -0.699681 0.281002 0
M  V30 949 H 89.2719 -1.3226 1.27199 0
M  V30 950 H 87.6539 -3.8925 0.72803 0
M  V30 951 H 88.8279 -3.04502 3.45855 0
M  V30 952 H 87.1429 -2.86836 3.01851 0
M  V30 953 H 89.7399 -5.152 1.43084 0
M  V30 954 H 90.0829 -4.16287 0.0328772 0
M  V30 955 H 90.6159 -3.62264 1.64346 0
M  V30 956 H 87.3549 -4.89816 4.35616 0
M  V30 957 H 86.8749 -5.35333 2.70516 0
M  V30 958 H 88.5539 -5.59573 3.24787 0
M  V30 959 N 88.686 -0.835752 -1.33615 0
M  V30 960 C 89.911 -0.442389 -2.02627 0
M  V30 961 C 90.336 0.947735 -1.62479 0
M  V30 962 O 89.694 1.61907 -0.815826 0
M  V30 963 C 89.742 -0.567216 -3.56111 0
M  V30 964 O 88.846 0.407799 -4.10379 0
M  V30 965 H 88.187 -0.180278 -0.639059 0
M  V30 966 H 90.717 -1.12972 -1.70583 0
M  V30 967 H 90.727 -0.447708 -4.05536 0
M  V30 968 H 89.402 -1.58103 -3.84677 0
M  V30 969 H 87.979 0.246107 -3.72087 0
M  V30 970 N 90.1641 1.46063 -0.591896 0
M  V30 971 C 91.0741 2.34192 0.13831 0
M  V30 972 C 92.0901 1.50305 0.876608 0
M  V30 973 O 93.2661 1.8315 0.837728 0
M  V30 974 C 90.3311 3.27656 1.13326 0
M  V30 975 C 89.3921 4.27445 0.39863 0
M  V30 976 C 88.6251 5.16443 1.34618 0
M  V30 977 O 88.8481 5.08553 2.58321 0
M  V30 978 O 87.7821 5.95843 0.851768 0
M  V30 979 H 91.6081 2.98002 -0.58552 0
M  V30 980 H 89.1931 1.45188 -0.352239 0
M  V30 981 H 91.0751 3.85291 1.70671 0
M  V30 982 H 89.7501 2.6643 1.83839 0
M  V30 983 H 88.6571 3.73471 -0.216895 0
M  V30 984 H 89.9901 4.91482 -0.265709 0
M  V30 985 N 91.6422 0.330177 1.54103 0
M  V30 986 C 92.8882 -0.270806 2.00984 0
M  V30 987 C 93.2212 -1.51265 1.21789 0
M  V30 988 O 92.4962 -1.92142 0.301927 0
M  V30 989 C 92.7792 -0.598339 3.55094 0
M  V30 990 C 92.6322 0.654674 4.4501 0
M  V30 991 C 93.9512 -1.41334 4.16789 0
M  V30 992 H 91.0702 -0.0969531 0.730595 0
M  V30 993 H 93.7122 0.448066 1.84641 0
M  V30 994 H 91.8622 -1.21078 3.69151 0
M  V30 995 H 93.5342 1.29285 4.42813 0
M  V30 996 H 91.7772 1.28224 4.14416 0
M  V30 997 H 92.4482 0.380944 5.50684 0
M  V30 998 H 94.9242 -0.895597 4.06347 0
M  V30 999 H 93.8002 -1.61127 5.24718 0
M  V30 1000 H 94.0612 -2.41146 3.70541 0
M  V30 1001 N 93.1203 -1.57491 0.0584922 0
M  V30 1002 C 94.5313 -1.80526 -0.476138 0
M  V30 1003 C 94.8823 -0.971334 -1.70469 0
M  V30 1004 O 94.0073 -0.190012 -2.15564 0
M  V30 1005 C 94.6023 -3.27424 -0.870587 0
M  V30 1006 C 93.1613 -3.51351 -1.35015 0
M  V30 1007 C 92.3083 -2.75343 -0.32887 0
M  V30 1008 H 95.2593 -1.56133 0.284312 0
M  V30 1009 H 95.2803 -3.38745 -1.73299 0
M  V30 1010 H 94.7923 -3.88093 0.0237627 0
M  V30 1011 H 92.8933 -2.95971 -2.26345 0
M  V30 1012 H 93.0063 -4.60059 -1.33726 0
M  V30 1013 H 91.3703 -2.417 -0.803321 0
M  V30 1014 H 92.1533 -3.38743 0.557521 0
M  V30 1015 N 94.5984 0.214957 -1.56127 0
M  V30 1016 C 95.8754 0.963093 -1.70247 0
M  V30 1017 C 96.2554 2.02166 -0.60764 0
M  V30 1018 O 95.6034 2.25244 0.384385 0
M  V30 1019 C 95.8134 1.56756 -3.11815 0
M  V30 1020 C 97.1614 2.0573 -3.7143 0
M  V30 1021 O 98.1854 1.66637 -3.14818 0
M  V30 1022 O 97.0444 2.77603 -4.70743 0
M  V30 1023 H 94.1384 0.450321 -0.693643 0
M  V30 1024 H 96.6844 0.206219 -1.68442 0
M  V30 1025 H 95.4564 0.803533 -3.82961 0
M  V30 1026 H 95.0794 2.3898 -3.17765 0
M  V30 1027 N 96.0765 1.50051 0.48192 0
M  V30 1028 C 97.3245 1.60181 1.23234 0
M  V30 1029 C 97.6455 0.299176 1.92691 0
M  V30 1030 O 96.9155 -0.682708 1.83619 0
M  V30 1031 H 95.4955 0.590232 0.457859 0
M  V30 1032 H 98.1575 1.86775 0.556881 0
M  V30 1033 H 97.2535 2.40753 1.98607 0
M  V30 1034 N 97.5546 -0.734337 1.39446 0
M  V30 1035 C 98.5176 -1.83004 1.37994 0
M  V30 1036 C 99.5176 -1.58397 0.276938 0
M  V30 1037 O 100.708 -1.65785 0.534875 0
M  V30 1038 C 97.8396 -3.20802 1.1532 0
M  V30 1039 H 99.0326 -1.85694 2.35494 0
M  V30 1040 H 96.5856 -0.938059 1.25021 0
M  V30 1041 H 97.3206 -3.23772 0.185036 0
M  V30 1042 H 97.1056 -3.4006 1.95197 0
M  V30 1043 H 98.5956 -4.00862 1.17046 0
M  V30 1044 N 99.0327 -1.24633 -0.964593 0
M  V30 1045 C 100.282 -1.08188 -1.7023 0
M  V30 1046 C 100.595 0.37873 -1.91898 0
M  V30 1047 O 101.801 0.663427 -2.6327 0
M  V30 1048 C 100.257 -1.88773 -3.06419 0
M  V30 1049 C 99.8647 -3.39263 -2.92582 0
M  V30 1050 C 101.609 -1.80867 -3.84041 0
M  V30 1051 C 99.5157 -4.1218 -4.24101 0
M  V30 1052 H 98.4457 -0.401245 -0.638372 0
M  V30 1053 H 101.097 -1.48742 -1.07462 0
M  V30 1054 H 99.4787 -1.41035 -3.70034 0
M  V30 1055 H 100.653 -3.94603 -2.37961 0
M  V30 1056 H 98.9677 -3.48154 -2.28424 0
M  V30 1057 H 101.565 -2.32646 -4.81435 0
M  V30 1058 H 101.908 -0.774543 -4.09031 0
M  V30 1059 H 102.441 -2.26301 -3.27159 0
M  V30 1060 H 99.1797 -5.15965 -4.04303 0
M  V30 1061 H 98.6997 -3.61626 -4.78526 0
M  V30 1062 H 100.379 -4.19349 -4.92702 0
M  V30 1063 N 100.511 1.16574 -1.06058 0
M  V30 1064 C 101.441 2.23057 -0.690488 0
M  V30 1065 C 102.422 1.67141 0.315901 0
M  V30 1066 O 103.607 1.93253 0.191556 0
M  V30 1067 C 100.737 3.47222 -0.073625 0
M  V30 1068 C 99.6908 4.16016 -1.00573 0
M  V30 1069 C 99.0168 5.34104 -0.252289 0
M  V30 1070 C 100.317 4.67264 -2.33371 0
M  V30 1071 H 102.011 2.54271 -1.58072 0
M  V30 1072 H 99.5568 1.22218 -0.76149 0
M  V30 1073 H 101.51 4.20939 0.19714 0
M  V30 1074 H 100.234 3.15302 0.85161 0
M  V30 1075 H 98.8928 3.44223 -1.2612 0
M  V30 1076 H 98.5408 4.98437 0.675988 0
M  V30 1077 H 98.2408 5.81072 -0.873455 0
M  V30 1078 H 99.7648 6.10599 0.0109857 0
M  V30 1079 H 101.179 5.32573 -2.12223 0
M  V30 1080 H 99.5758 5.24843 -2.90963 0
M  V30 1081 H 100.646 3.83602 -2.96611 0
M  V30 1082 N 101.989 0.842826 1.3317 0
M  V30 1083 C 103.238 0.436738 1.96915 0
M  V30 1084 C 103.551 -1.01025 1.67491 0
M  V30 1085 O 104.757 -1.5212 2.24881 0
M  V30 1086 C 103.213 0.730021 3.52418 0
M  V30 1087 C 102.821 2.19195 3.90714 0
M  V30 1088 C 104.565 0.391076 4.22695 0
M  V30 1089 C 102.472 2.42907 5.39212 0
M  V30 1090 H 101.402 0.15958 0.736919 0
M  V30 1091 H 104.053 1.03196 1.51733 0
M  V30 1092 H 102.435 0.0643755 3.95948 0
M  V30 1093 H 103.609 2.8984 3.58231 0
M  V30 1094 H 101.924 2.49425 3.33431 0
M  V30 1095 H 104.521 0.545817 5.31907 0
M  V30 1096 H 104.864 -0.666294 4.10933 0
M  V30 1097 H 105.397 1.01212 3.84709 0
M  V30 1098 H 102.136 3.47224 5.55982 0
M  V30 1099 H 101.656 1.76827 5.73142 0
M  V30 1100 H 103.335 2.2626 6.06148 0
M  V30 1101 N 103.467 -1.45747 0.599634 0
M  V30 1102 C 104.714 -2.02292 0.0917284 0
M  V30 1103 C 105.042 -1.46906 -1.27472 0
M  V30 1104 O 104.297 -0.630652 -1.8526 0
M  V30 1105 C 104.596 -3.57399 -0.00602758 0
M  V30 1106 C 104.262 -4.31902 1.29503 0
M  V30 1107 C 102.924 -4.51974 1.65144 0
M  V30 1108 C 105.276 -4.74551 2.15525 0
M  V30 1109 C 102.604 -5.11949 2.86574 0
M  V30 1110 C 104.956 -5.35868 3.36196 0
M  V30 1111 C 103.62 -5.54165 3.72099 0
M  V30 1112 H 102.89 -0.740239 0.0335658 0
M  V30 1113 H 105.537 -1.7491 0.779661 0
M  V30 1114 H 103.842 -3.84014 -0.777183 0
M  V30 1115 H 105.539 -3.98846 -0.415038 0
M  V30 1116 H 102.129 -4.16588 1.00761 0
M  V30 1117 H 106.313 -4.58784 1.8929 0
M  V30 1118 H 101.569 -5.24305 3.14507 0
M  V30 1119 H 105.743 -5.6787 4.03109 0
M  V30 1120 H 103.37 -6.00406 4.6628 0
M  V30 1121 N 104.945 -0.338344 -1.53925 0
M  V30 1122 C 106.17 0.263987 -2.05713 0
M  V30 1123 C 106.595 1.43847 -1.21201 0
M  V30 1124 O 105.953 1.79904 -0.224535 0
M  V30 1125 C 106.001 0.662 -3.54471 0
M  V30 1126 O 105.105 1.76265 -3.72833 0
M  V30 1127 H 104.446 0.0448722 -0.662482 0
M  V30 1128 H 106.976 -0.491048 -1.9862 0
M  V30 1129 H 106.986 0.940594 -3.9701 0
M  V30 1130 H 105.661 -0.196937 -4.15433 0
M  V30 1131 H 104.238 1.48173 -3.42198 0
M  V30 1132 N 106.423 1.57458 -0.0668435 0
M  V30 1133 C 107.386 2.11323 0.887422 0
M  V30 1134 C 108.386 1.03618 1.22964 0
M  V30 1135 O 109.576 1.29626 1.16373 0
M  V30 1136 C 106.708 2.61048 2.19242 0
M  V30 1137 H 107.901 2.96942 0.420194 0
M  V30 1138 H 105.454 1.55239 0.181793 0
M  V30 1139 H 106.189 1.78868 2.70512 0
M  V30 1140 H 105.974 3.39769 1.95702 0
M  V30 1141 H 107.464 3.02814 2.87565 0
M  V30 1142 N 107.901 -0.206675 1.56239 0
M  V30 1143 C 108.851 -1.26 1.90021 0
M  V30 1144 C 109.835 -1.41566 0.764721 0
M  V30 1145 O 111.027 -1.44131 1.02739 0
M  V30 1146 C 108.156 -2.6073 2.23326 0
M  V30 1147 C 107.242 -2.49005 3.43304 0
M  V30 1148 N 107.633 -2.06946 4.61527 0
M  V30 1149 C 105.931 -2.79927 3.47213 0
M  V30 1150 C 106.632 -2.06832 5.43687 0
M  V30 1151 N 105.608 -2.47892 4.83788 0
M  V30 1152 H 109.41 -0.925955 2.78932 0
M  V30 1153 H 106.924 -0.415172 1.57003 0
M  V30 1154 H 108.921 -3.36798 2.45708 0
M  V30 1155 H 107.581 -2.94968 1.35735 0
M  V30 1156 H 108.592 -1.77839 4.86409 0
M  V30 1157 H 105.269 -3.18438 2.70006 0
M  V30 1158 H 106.659 -1.76312 6.48354 0
M  V30 1159 N 109.379 -1.50304 -0.473955 0
M  V30 1160 C 110.627 -1.60832 -1.22382 0
M  V30 1161 C 110.948 -0.30939 -1.9253 0
M  V30 1162 O 110.218 0.67296 -1.83978 0
M  V30 1163 H 108.798 -0.592652 -0.454723 0
M  V30 1164 H 111.46 -1.87068 -0.546968 0
M  V30 1165 H 110.556 -2.41803 -1.97327 0
M  V30 1166 N 110.857 0.726932 -1.39834 0
M  V30 1167 C 112.103 1.48884 -1.377 0
M  V30 1168 C 112.436 1.94185 0.0244852 0
M  V30 1169 O 111.711 1.67361 0.990986 0
M  V30 1170 C 111.994 2.72288 -2.3565 0
M  V30 1171 C 111.847 2.32956 -3.84775 0
M  V30 1172 C 113.166 3.74414 -2.31306 0
M  V30 1173 H 110.285 0.540062 -0.5015 0
M  V30 1174 H 112.927 0.830547 -1.70886 0
M  V30 1175 H 111.077 3.28457 -2.07481 0
M  V30 1176 H 112.749 1.82356 -4.23726 0
M  V30 1177 H 110.992 1.65088 -4.01159 0
M  V30 1178 H 111.663 3.21362 -4.4881 0
M  V30 1179 H 114.139 3.27849 -2.56231 0
M  V30 1180 H 113.015 4.58414 -3.01907 0
M  V30 1181 H 113.276 4.21909 -1.32081 0
M  V30 1182 N 112.336 1.25143 0.95797 0
M  V30 1183 C 113.561 1.12521 1.74223 0
M  V30 1184 C 113.986 -0.317402 1.85403 0
M  V30 1185 O 113.344 -1.2299 1.33204 0
M  V30 1186 C 113.392 1.78062 3.1357 0
M  V30 1187 O 112.496 1.058 3.98598 0
M  V30 1188 H 111.837 0.39304 0.535178 0
M  V30 1189 H 114.367 1.65641 1.201 0
M  V30 1190 H 114.377 1.84213 3.64046 0
M  V30 1191 H 113.052 2.83021 3.04749 0
M  V30 1192 H 111.629 1.07506 3.57067 0
M  V30 1193 N 113.814 -1.1601 1.06675 0
M  V30 1194 C 114.746 -2.20115 0.638921 0
M  V30 1195 C 115.759 -1.59916 -0.305057 0
M  V30 1196 O 116.948 -1.78245 -0.0954446 0
M  V30 1197 C 114.048 -3.38798 -0.0830083 0
M  V30 1198 C 113.221 -4.2855 0.875426 0
M  V30 1199 C 112.28 -5.25849 0.192042 0
M  V30 1200 O 111.306 -5.63102 0.830921 0
M  V30 1201 N 112.508 -5.70648 -1.06493 0
M  V30 1202 H 115.273 -2.57439 1.53444 0
M  V30 1203 H 112.834 -1.31057 0.950557 0
M  V30 1204 H 114.826 -4.00936 -0.550685 0
M  V30 1205 H 113.396 -2.99947 -0.880386 0
M  V30 1206 H 112.616 -3.63617 1.52238 0
M  V30 1207 H 113.904 -4.85393 1.52548 0
M  V30 1208 H 113.302 -5.42482 -1.60405 0
M  V30 1209 H 111.859 -6.34859 -1.47641 0
M  V30 1210 N 115.292 -0.849877 -1.32721 0
M  V30 1211 C 116.255 -0.296122 -2.27279 0
M  V30 1212 C 117.255 0.541458 -1.5141 0
M  V30 1213 O 118.445 0.353658 -1.70572 0
M  V30 1214 C 115.577 0.581579 -3.35902 0
M  V30 1215 H 116.77 -1.13064 -2.77771 0
M  V30 1216 H 114.323 -0.62383 -1.43311 0
M  V30 1217 H 115.058 1.43809 -2.9067 0
M  V30 1218 H 114.843 -0.0178814 -3.92096 0
M  V30 1219 H 116.333 0.961951 -4.0637 0
M  V30 1220 N 116.77 1.45427 -0.607355 0
M  V30 1221 C 118.016 2.0254 -0.102607 0
M  V30 1222 C 118.349 1.47478 1.26348 0
M  V30 1223 O 117.624 0.64939 1.83339 0
M  V30 1224 C 117.907 3.60044 -0.0634347 0
M  V30 1225 C 117.76 4.2544 -1.46017 0
M  V30 1226 C 119.079 4.35646 0.624514 0
M  V30 1227 H 116.198 0.73598 -0.0387607 0
M  V30 1228 H 118.84 1.73284 -0.779282 0
M  V30 1229 H 116.99 3.85101 0.512808 0
M  V30 1230 H 118.662 4.11569 -2.08347 0
M  V30 1231 H 116.905 3.83849 -2.02094 0
M  V30 1232 H 117.576 5.34342 -1.385 0
M  V30 1233 H 120.052 4.15882 0.134723 0
M  V30 1234 H 118.928 5.45376 0.621028 0
M  V30 1235 H 119.189 4.08501 1.69055 0
M  V30 1236 N 118.248 0.346503 1.53744 0
M  V30 1237 C 119.664 -0.00530975 1.59599 0
M  V30 1238 C 119.864 -1.48465 1.36236 0
M  V30 1239 O 118.92 -2.24376 1.15808 0
M  V30 1240 C 120.233 0.433516 2.97559 0
M  V30 1241 C 121.781 0.386111 3.10609 0
M  V30 1242 C 122.256 0.800451 4.50951 0
M  V30 1243 N 123.747 0.754753 4.5701 0
M  V30 1244 C 124.482 1.04727 5.63755 0
M  V30 1245 N 123.978 1.4081 6.7834 0
M  V30 1246 N 125.771 0.971316 5.53644 0
M  V30 1247 H 117.922 1.31009 1.67184 0
M  V30 1248 H 120.185 0.534242 0.783128 0
M  V30 1249 H 119.891 1.46509 3.19731 0
M  V30 1250 H 119.765 -0.189753 3.76722 0
M  V30 1251 H 122.152 -0.636295 2.88158 0
M  V30 1252 H 122.233 1.04462 2.33498 0
M  V30 1253 H 121.877 1.82088 4.74137 0
M  V30 1254 H 121.807 0.119386 5.26465 0
M  V30 1255 H 124.298 0.488662 3.74727 0
M  V30 1256 H 124.611 1.61607 7.55714 0
M  V30 1257 H 122.956 1.44657 6.79779 0
M  V30 1258 H 126.147 0.688748 4.63005 0
M  V30 1259 H 126.32 1.20263 6.36742 0
M  V30 1260 N 119.726 -1.57421 0.075193 0
M  V30 1261 C 120.674 -2.14124 -0.908508 0
M  V30 1262 C 121.668 -1.07898 -1.30592 0
M  V30 1263 O 122.874 -1.26273 -1.28277 0
M  V30 1264 H 119.249 -0.684707 -0.310935 0
M  V30 1265 H 121.22 -2.95634 -0.405374 0
M  V30 1266 C 119.969 -2.72044 -2.16535 0
M  V30 1267 H 119.292 -3.53456 -1.86839 0
M  V30 1268 H 120.732 -3.15311 -2.83469 0
M  V30 1269 C 119.191 -1.66968 -2.92615 0
M  V30 1270 O 119.721 -1.0967 -3.86439 0
M  V30 1271 N 117.927 -1.37923 -2.55784 0
M  V30 1272 H 117.474 -1.84706 -1.79559 0
M  V30 1273 H 117.432 -0.67852 -3.06991 0
M  V30 1274 N 121.204 0.198386 -1.56346 0
M  V30 1275 C 122.114 1.2664 -1.97483 0
M  V30 1276 C 123.13 1.49989 -0.882002 0
M  V30 1277 O 124.306 1.62668 -1.18748 0
M  V30 1278 C 121.371 2.59141 -2.30319 0
M  V30 1279 C 120.432 2.43892 -3.53292 0
M  V30 1280 C 119.665 3.70074 -3.84553 0
M  V30 1281 O 119.888 4.74101 -3.1715 0
M  V30 1282 O 118.822 3.658 -4.7799 0
M  V30 1283 H 122.648 0.947304 -2.88548 0
M  V30 1284 H 120.233 0.403123 -1.43859 0
M  V30 1285 H 122.115 3.37352 -2.5253 0
M  V30 1286 H 120.79 2.90684 -1.42423 0
M  V30 1287 H 119.697 1.63803 -3.36332 0
M  V30 1288 H 121.03 2.17282 -4.41644 0
M  V30 1289 N 122.682 1.50554 0.465978 0
M  V30 1290 C 123.645 1.69233 1.54574 0
M  V30 1291 C 124.645 0.562901 1.50626 0
M  V30 1292 O 125.835 0.830016 1.53155 0
M  V30 1293 C 122.967 1.7223 2.94193 0
M  V30 1294 H 124.16 2.65571 1.39327 0
M  V30 1295 H 121.713 1.40111 0.692711 0
M  V30 1296 H 122.448 0.77603 3.14878 0
M  V30 1297 H 122.233 2.54285 2.98466 0
M  V30 1298 H 123.723 1.88618 3.72576 0
M  V30 1299 N 124.16 -0.719506 1.40217 0
M  V30 1300 C 125.107 -1.83359 1.40172 0
M  V30 1301 C 126.077 -1.64065 0.259206 0
M  V30 1302 O 127.262 -1.85254 0.456677 0
M  V30 1303 C 124.402 -3.2103 1.26624 0
M  V30 1304 C 123.515 -3.51923 2.50548 0
M  V30 1305 C 122.65 -4.79079 2.29471 0
M  V30 1306 C 121.689 -5.02863 3.48992 0
M  V30 1307 N 120.826 -6.2123 3.27135 0
M  V30 1308 H 125.666 -1.82733 2.35399 0
M  V30 1309 H 123.203 -0.892688 1.16917 0
M  V30 1310 H 125.161 -4.00524 1.16776 0
M  V30 1311 H 123.791 -3.20895 0.350176 0
M  V30 1312 H 122.843 -2.67014 2.70939 0
M  V30 1313 H 124.155 -3.6541 3.39525 0
M  V30 1314 H 123.309 -5.66582 2.16955 0
M  V30 1315 H 122.048 -4.67794 1.37913 0
M  V30 1316 H 121.053 -4.13816 3.6199 0
M  V30 1317 H 122.278 -5.16023 4.41472 0
M  V30 1318 H 120.224 -6.11204 2.38256 0
M  V30 1319 H 120.141 -6.35375 4.09675 0
M  V30 1320 H 121.409 -7.11532 3.18344 0
M  V30 1321 N 125.638 -1.25649 -0.95132 0
M  V30 1322 C 126.863 -1.13443 -1.73624 0
M  V30 1323 C 127.288 0.307565 -1.85568 0
M  V30 1324 O 126.646 1.22282 -1.33854 0
M  V30 1325 C 126.694 -1.79723 -3.12621 0
M  V30 1326 O 125.798 -1.07912 -3.98031 0
M  V30 1327 H 125.139 -0.395872 -0.533086 0
M  V30 1328 H 127.669 -1.66276 -1.1922 0
M  V30 1329 H 127.679 -1.86141 -3.63064 0
M  V30 1330 H 126.354 -2.84633 -3.03244 0
M  V30 1331 H 124.931 -1.09398 -3.56492 0
M  V30 1332 N 127.117 1.15442 -1.07289 0
M  V30 1333 C 128.533 1.38201 -0.798288 0
M  V30 1334 C 128.733 1.92429 0.597769 0
M  V30 1335 O 127.789 2.12962 1.3566 0
M  V30 1336 C 129.102 2.35357 -1.87156 0
M  V30 1337 C 130.65 2.49021 -1.89624 0
M  V30 1338 C 131.125 3.49468 -2.96034 0
M  V30 1339 N 132.616 3.57003 -2.95132 0
M  V30 1340 C 133.351 4.34543 -3.74112 0
M  V30 1341 N 132.847 5.15421 -4.6294 0
M  V30 1342 N 134.64 4.29625 -3.62462 0
M  V30 1343 H 126.791 0.78584 -1.97328 0
M  V30 1344 H 129.054 0.408065 -0.855679 0
M  V30 1345 H 128.76 2.02626 -2.87464 0
M  V30 1346 H 128.634 3.35129 -1.73114 0
M  V30 1347 H 131.021 2.81051 -0.899687 0
M  V30 1348 H 131.102 1.4925 -2.07745 0
M  V30 1349 H 130.746 3.18173 -3.95889 0
M  V30 1350 H 130.676 4.48992 -2.75161 0
M  V30 1351 H 133.167 2.99276 -2.30743 0
M  V30 1352 H 133.48 5.7183 -5.19837 0
M  V30 1353 H 131.825 5.14729 -4.66989 0
M  V30 1354 H 135.016 3.65505 -2.92444 0
M  V30 1355 H 135.189 4.89807 -4.24256 0
M  V30 1356 N 128.595 0.856903 1.32268 0
M  V30 1357 C 129.872 0.382583 1.91822 0
M  V30 1358 C 130.252 -1.13407 1.78051 0
M  V30 1359 O 129.6 -1.95673 1.18001 0
M  V30 1360 C 129.81 0.849446 3.38505 0
M  V30 1361 C 131.158 0.867936 4.15634 0
M  V30 1362 O 132.182 0.794232 3.47232 0
M  V30 1363 O 131.041 0.972286 5.37781 0
M  V30 1364 H 128.135 0.112014 0.819379 0
M  V30 1365 H 130.681 0.943952 1.41024 0
M  V30 1366 H 129.453 1.89267 3.42482 0
M  V30 1367 H 129.076 0.265652 3.96712 0
M  V30 1368 N 130.073 -1.45103 0.615059 0
M  V30 1369 C 131.003 -2.33339 -0.0865619 0
M  V30 1370 C 131.984 -1.4727 -0.851209 0
M  V30 1371 O 133.169 -1.76026 -0.820281 0
M  V30 1372 C 130.299 -3.30095 -1.07956 0
M  V30 1373 C 129.253 -4.25858 -0.427628 0
M  V30 1374 C 128.579 -5.12361 -1.5294 0
M  V30 1375 C 129.879 -5.18165 0.655944 0
M  V30 1376 H 131.573 -2.92254 0.650224 0
M  V30 1377 H 129.119 -1.40532 0.314138 0
M  V30 1378 H 131.072 -3.90698 -1.57901 0
M  V30 1379 H 129.796 -2.69355 -1.84703 0
M  V30 1380 H 128.455 -3.66564 0.0510292 0
M  V30 1381 H 128.103 -4.47984 -2.28734 0
M  V30 1382 H 127.803 -5.77238 -1.09865 0
M  V30 1383 H 129.327 -5.75833 -2.03098 0
M  V30 1384 H 130.741 -5.72796 0.240257 0
M  V30 1385 H 129.138 -5.91559 1.00888 0
M  V30 1386 H 130.208 -4.60144 1.52957 0
M  V30 1387 N 131.551 -0.354651 -1.53558 0
M  V30 1388 C 132.779 0.239515 -2.05509 0
M  V30 1389 C 133.194 1.4333 -1.2289 0
M  V30 1390 O 132.551 1.80538 -0.266899 0
M  V30 1391 C 132.602 0.643719 -3.55723 0
M  V30 1392 O 132.323 -0.502602 -4.35207 0
M  V30 1393 C 133.824 1.29743 -4.23889 0
M  V30 1394 H 131.044 0.0442697 -0.669538 0
M  V30 1395 H 133.588 -0.509856 -1.98042 0
M  V30 1396 H 131.743 1.34302 -3.63376 0
M  V30 1397 H 132.157 -0.178172 -5.24197 0
M  V30 1398 H 133.631 1.53091 -5.30346 0
M  V30 1399 H 134.108 2.25441 -3.76926 0
M  V30 1400 H 134.714 0.639865 -4.20459 0
M  V30 1401 N 133.029 1.57378 -0.0835403 0
M  V30 1402 C 134.275 1.94217 0.583733 0
M  V30 1403 C 134.608 0.964653 1.68547 0
M  V30 1404 O 133.883 -0.00422258 1.945 0
M  V30 1405 C 134.166 3.41253 1.14972 0
M  V30 1406 C 134.019 4.49768 0.0538277 0
M  V30 1407 C 135.338 3.89352 2.05166 0
M  V30 1408 H 132.457 0.706233 0.210724 0
M  V30 1409 H 135.099 1.89392 -0.1519 0
M  V30 1410 H 133.249 3.45496 1.77665 0
M  V30 1411 H 134.921 4.57641 -0.579851 0
M  V30 1412 H 133.164 4.29432 -0.614068 0
M  V30 1413 H 133.835 5.49817 0.490452 0
M  V30 1414 H 136.311 3.87189 1.52393 0
M  V30 1415 H 135.187 4.92822 2.41698 0
M  V30 1416 H 135.448 3.27973 2.96456 0
M  V30 1417 N 134.507 -0.190092 1.56449 0
M  V30 1418 C 135.754 -0.909705 1.80916 0
M  V30 1419 C 136.082 -1.83047 0.657583 0
M  V30 1420 O 135.337 -1.92428 -0.356356 0
M  V30 1421 C 135.636 -1.75382 3.1141 0
M  V30 1422 C 135.302 -0.983606 4.40041 0
M  V30 1423 C 133.964 -0.770967 4.74984 0
M  V30 1424 C 136.316 -0.442024 5.19322 0
M  V30 1425 C 133.644 -0.0053448 5.867 0
M  V30 1426 C 135.996 0.310412 6.31838 0
M  V30 1427 C 134.66 0.534023 6.6536 0
M  V30 1428 H 133.93 -0.332885 0.662019 0
M  V30 1429 H 136.577 -0.175762 1.90692 0
M  V30 1430 H 134.882 -2.55659 2.96893 0
M  V30 1431 H 136.579 -2.31331 3.27547 0
M  V30 1432 H 133.169 -1.15936 4.12622 0
M  V30 1433 H 137.353 -0.593693 4.92736 0
M  V30 1434 H 132.609 0.177825 6.11141 0
M  V30 1435 H 136.783 0.737419 6.92485 0
M  V30 1436 H 134.41 1.12918 7.51767 0
M  V30 1437 N 135.985 -1.50799 -0.457987 0
M  V30 1438 C 137.262 -1.52968 -1.21902 0
M  V30 1439 C 137.642 -0.281906 -2.09209 0
M  V30 1440 O 136.99 0.734076 -2.16388 0
M  V30 1441 C 137.2 -2.8326 -2.03875 0
M  V30 1442 C 138.548 -3.34425 -2.6162 0
M  V30 1443 O 139.572 -2.8467 -2.14106 0
M  V30 1444 O 138.431 -4.21188 -3.48228 0
M  V30 1445 H 135.525 -0.614129 -0.553873 0
M  V30 1446 H 138.071 -1.63098 -0.468739 0
M  V30 1447 H 136.843 -3.65543 -1.39621 0
M  V30 1448 H 136.466 -2.76195 -2.8601 0
M  V30 1449 N 137.463 0.71206 -1.40597 0
M  V30 1450 C 138.426 1.80785 -1.40888 0
M  V30 1451 C 139.426 1.57937 -0.302103 0
M  V30 1452 O 140.616 1.64913 -0.561182 0
M  V30 1453 C 137.748 3.18927 -1.20409 0
M  V30 1454 H 138.941 1.81924 -2.38419 0
M  V30 1455 H 136.494 0.91805 -1.26497 0
M  V30 1456 H 137.229 3.23436 -0.236522 0
M  V30 1457 H 137.014 3.36911 -2.00582 0
M  V30 1458 H 138.504 3.98949 -1.23408 0
M  V30 1459 N 138.941 1.26152 0.944643 0
M  V30 1460 C 140.169 1.14259 1.72489 0
M  V30 1461 C 140.584 -0.302555 1.8636 0
M  V30 1462 O 139.941 -1.20741 1.36849 0
M  V30 1463 C 139.992 1.80266 3.13347 0
M  V30 1464 O 139.713 3.19133 3.00143 0
M  V30 1465 C 141.214 1.74283 4.07603 0
M  V30 1466 H 138.434 0.398051 0.540181 0
M  V30 1467 H 140.978 1.66706 1.18446 0
M  V30 1468 H 139.133 1.31766 3.64303 0
M  V30 1469 H 139.547 3.51744 3.89071 0
M  V30 1470 H 141.021 2.25111 5.04013 0
M  V30 1471 H 141.498 0.708631 4.33446 0
M  V30 1472 H 142.104 2.22319 3.62567 0
M  V30 1473 N 140.419 -1.14872 1.07899 0
M  V30 1474 C 141.659 -1.8745 0.814965 0
M  V30 1475 C 142.023 -1.80758 -0.64733 0
M  V30 1476 O 143.224 -2.48422 -1.02664 0
M  V30 1477 C 141.495 -3.32286 1.31607 0
M  V30 1478 S 143.054 -4.22537 1.18357 0
M  V30 1479 H 139.872 -0.646833 0.295174 0
M  V30 1480 H 142.474 -1.38555 1.37923 0
M  V30 1481 H 141.178 -3.34703 2.37491 0
M  V30 1482 H 140.709 -3.86238 0.747261 0
M  V30 1483 H 142.724 -4.96044 0.124586 0
M  V30 1484 N 141.898 -0.863906 -1.31812 0
M  V30 1485 C 143.309 -0.52522 -1.7916 0
M  V30 1486 C 143.66 0.957518 -1.71248 0
M  V30 1487 O 142.785 1.74734 -1.27659 0
M  V30 1488 C 143.38 -0.9466 -3.25307 0
M  V30 1489 C 141.939 -0.659668 -3.70574 0
M  V30 1490 C 141.086 -1.14126 -2.52726 0
M  V30 1491 H 144.037 -1.05022 -1.1898 0
M  V30 1492 H 144.058 -0.266766 -3.79564 0
M  V30 1493 H 143.57 -2.02579 -3.31034 0
M  V30 1494 H 141.671 0.408416 -3.70355 0
M  V30 1495 H 141.784 -1.23245 -4.62977 0
M  V30 1496 H 140.148 -0.561216 -2.4844 0
M  V30 1497 H 140.931 -2.22775 -2.61201 0
M  V30 1498 N 143.376 1.44774 -0.622745 0
M  V30 1499 C 144.306 2.33382 0.0741861 0
M  V30 1500 C 145.287 1.47719 0.843387 0
M  V30 1501 O 146.472 1.76458 0.810934 0
M  V30 1502 C 143.602 3.30663 1.06204 0
M  V30 1503 C 142.556 4.26079 0.405037 0
M  V30 1504 C 141.882 5.13165 1.5022 0
M  V30 1505 C 143.182 5.1781 -0.683414 0
M  V30 1506 H 144.876 2.91905 -0.665713 0
M  V30 1507 H 142.422 1.40363 -0.321587 0
M  V30 1508 H 144.375 3.9153 1.55827 0
M  V30 1509 H 143.099 2.70331 1.83272 0
M  V30 1510 H 141.758 3.66532 -0.0704683 0
M  V30 1511 H 141.406 4.49191 2.26355 0
M  V30 1512 H 141.106 5.77812 1.06803 0
M  V30 1513 H 142.63 5.76902 2.00041 0
M  V30 1514 H 144.044 5.72661 -0.270631 0
M  V30 1515 H 142.441 5.91015 -1.04023 0
M  V30 1516 H 143.511 4.59326 -1.55395 0
M  V30 1517 N 144.854 0.36279 1.53368 0
M  V30 1518 C 146.1 -0.228113 2.01513 0
M  V30 1519 C 146.433 -1.48648 1.2497 0
M  V30 1520 O 145.708 -1.91459 0.342616 0
M  V30 1521 C 145.991 -0.522884 3.56284 0
M  V30 1522 C 145.844 0.74892 4.43521 0
M  V30 1523 C 147.163 -1.32461 4.19693 0
M  V30 1524 H 144.282 -0.0814343 0.732487 0
M  V30 1525 H 146.924 0.48713 1.83649 0
M  V30 1526 H 145.074 -1.1322 3.71636 0
M  V30 1527 H 146.746 1.38648 4.39971 0
M  V30 1528 H 144.989 1.36986 4.11603 0
M  V30 1529 H 145.66 0.497667 5.49752 0
M  V30 1530 H 148.136 -0.809203 4.08156 0
M  V30 1531 H 147.012 -1.49961 5.28018 0
M  V30 1532 H 147.273 -2.33232 3.75573 0
M  V30 1533 N 146.332 -1.57332 0.0918853 0
M  V30 1534 C 147.56 -1.98574 -0.581048 0
M  V30 1535 C 147.975 -0.970903 -1.61923 0
M  V30 1536 O 147.332 0.0399054 -1.82456 0
M  V30 1537 C 147.383 -3.39872 -1.23164 0
M  V30 1538 O 147.104 -4.37469 -0.234989 0
M  V30 1539 C 148.605 -3.96099 -1.99049 0
M  V30 1540 H 145.825 -0.65261 -0.156018 0
M  V30 1541 H 148.369 -2.0379 0.170225 0
M  V30 1542 H 146.524 -3.35679 -1.93386 0
M  V30 1543 H 146.938 -5.19751 -0.70418 0
M  V30 1544 H 148.412 -4.97127 -2.39934 0
M  V30 1545 H 148.889 -3.3374 -2.85507 0
M  V30 1546 H 149.495 -4.03755 -1.3365 0
M  V30 1547 N 147.81 0.181792 -1.56548 0
M  V30 1548 C 148.757 1.22521 -1.95595 0
M  V30 1549 C 149.727 1.4454 -0.818373 0
M  V30 1550 O 150.912 1.57454 -1.07763 0
M  V30 1551 C 148.052 2.56193 -2.31212 0
M  V30 1552 C 147.165 2.41641 -3.58097 0
M  V30 1553 C 146.3 3.68108 -3.82975 0
M  V30 1554 C 145.339 3.48445 -5.03242 0
M  V30 1555 N 144.476 4.66956 -5.24306 0
M  V30 1556 H 149.316 0.885226 -2.84548 0
M  V30 1557 H 146.853 0.425718 -1.40805 0
M  V30 1558 H 148.811 3.34088 -2.49882 0
M  V30 1559 H 147.441 2.88208 -1.45382 0
M  V30 1560 H 146.493 1.54976 -3.474 0
M  V30 1561 H 147.805 2.23052 -4.46149 0
M  V30 1562 H 146.959 4.54441 -4.01956 0
M  V30 1563 H 145.698 3.89666 -2.93278 0
M  V30 1564 H 144.703 2.60499 -4.8417 0
M  V30 1565 H 145.928 3.2832 -5.9446 0
M  V30 1566 H 143.874 4.88752 -4.37559 0
M  V30 1567 H 143.791 4.51242 -6.06561 0
M  V30 1568 H 145.059 5.54602 -5.47756 0
M  V30 1569 N 149.288 1.51039 0.449983 0
M  V30 1570 C 150.534 1.63322 1.20223 0
M  V30 1571 C 150.867 0.34241 1.91158 0
M  V30 1572 O 150.142 -0.657344 1.83055 0
M  V30 1573 C 150.425 2.82801 2.22925 0
M  V30 1574 C 150.278 4.21823 1.56157 0
M  V30 1575 C 151.597 2.97807 3.24035 0
M  V30 1576 H 148.716 0.594407 0.435718 0
M  V30 1577 H 151.358 1.83489 0.493136 0
M  V30 1578 H 149.508 2.65738 2.834 0
M  V30 1579 H 151.18 4.50526 0.991162 0
M  V30 1580 H 149.423 4.25105 0.864172 0
M  V30 1581 H 150.094 5.01391 2.30891 0
M  V30 1582 H 152.57 3.13497 2.73603 0
M  V30 1583 H 151.446 3.82992 3.93202 0
M  V30 1584 H 151.707 2.09328 3.89402 0
M  V30 1585 N 150.766 -0.704594 1.40972 0
M  V30 1586 C 151.716 -1.81051 1.38581 0
M  V30 1587 C 152.7 -1.58759 0.261585 0
M  V30 1588 O 153.892 -1.69745 0.501556 0
M  V30 1589 C 151.021 -3.19279 1.26157 0
M  V30 1590 C 150.107 -3.47296 2.43405 0
M  V30 1591 N 150.498 -3.46064 3.68881 0
M  V30 1592 C 148.796 -3.77804 2.37023 0
M  V30 1593 C 149.497 -3.72733 4.46592 0
M  V30 1594 N 148.473 -3.9203 3.76581 0
M  V30 1595 H 152.275 -1.78448 2.33525 0
M  V30 1596 H 149.789 -0.904198 1.349 0
M  V30 1597 H 151.786 -3.98488 1.22526 0
M  V30 1598 H 150.446 -3.231 0.321902 0
M  V30 1599 H 151.457 -3.26656 4.01891 0
M  V30 1600 H 148.134 -3.8905 1.51481 0
M  V30 1601 H 149.524 -3.77993 5.55492 0
M  V30 1602 N 152.244 -1.26651 -0.937939 0
M  V30 1603 C 153.177 -1.02811 -2.03728 0
M  V30 1604 C 154.155 0.0481915 -1.62529 0
M  V30 1605 O 155.339 -0.0948839 -1.88261 0
M  V30 1606 C 152.466 -0.557517 -3.3408 0
M  V30 1607 C 151.512 -1.62686 -3.94253 0
M  V30 1608 S 152.345 -3.21667 -4.28125 0
M  V30 1609 C 153.501 -2.76384 -5.61572 0
M  V30 1610 H 153.734 -1.95891 -2.23638 0
M  V30 1611 H 151.267 -1.10367 -1.07974 0
M  V30 1612 H 153.225 -0.292674 -4.09455 0
M  V30 1613 H 151.886 0.353062 -3.12109 0
M  V30 1614 H 151.079 -1.24866 -4.88287 0
M  V30 1615 H 150.681 -1.84324 -3.25424 0
M  V30 1616 H 152.973 -2.2105 -6.40424 0
M  V30 1617 H 153.916 -3.69123 -6.0428 0
M  V30 1618 H 154.324 -2.15847 -5.21604 0
M  V30 1619 N 153.722 1.14298 -1.08507 0
M  V30 1620 C 154.632 2.23027 -0.727753 0
M  V30 1621 C 155.648 1.71952 0.26619 0
M  V30 1622 O 156.824 2.011 0.109882 0
M  V30 1623 C 153.889 3.46403 -0.143541 0
M  V30 1624 C 152.95 4.12413 -1.19223 0
M  V30 1625 C 152.183 5.29899 -0.635798 0
M  V30 1626 O 152.406 5.67796 0.544393 0
M  V30 1627 O 151.34 5.85717 -1.38634 0
M  V30 1628 H 155.166 2.55945 -1.63481 0
M  V30 1629 H 152.751 1.22248 -0.858817 0
M  V30 1630 H 154.633 4.21018 0.179404 0
M  V30 1631 H 153.308 3.15206 0.736659 0
M  V30 1632 H 152.215 3.39667 -1.56772 0
M  V30 1633 H 153.548 4.47718 -2.04474 0
M  V30 1634 N 155.201 0.870884 1.31352 0
M  V30 1635 C 156.447 0.482987 1.96965 0
M  V30 1636 C 156.78 -0.962462 1.68672 0
M  V30 1637 O 156.055 -1.6779 0.98371 0
M  V30 1638 C 156.338 0.741752 3.52378 0
M  V30 1639 C 156.191 2.2368 3.9024 0
M  V30 1640 C 157.51 0.208838 4.39604 0
M  V30 1641 H 154.629 0.176955 0.715441 0
M  V30 1642 H 157.271 1.09229 1.55464 0
M  V30 1643 H 155.421 0.223149 3.87859 0
M  V30 1644 H 157.093 2.82273 3.64856 0
M  V30 1645 H 155.336 2.70901 3.38814 0
M  V30 1646 H 156.007 2.3685 4.98604 0
M  V30 1647 H 158.483 0.652529 4.10952 0
M  V30 1648 H 157.359 0.419336 5.47296 0
M  V30 1649 H 157.62 -0.889275 4.33064 0
M  V30 1650 N 156.679 -1.44442 0.630414 0
M  V30 1651 C 157.642 -2.29107 -0.0652523 0
M  V30 1652 C 158.642 -1.41002 -0.772995 0
M  V30 1653 O 159.832 -1.62881 -0.617692 0
M  V30 1654 C 156.964 -3.22564 -1.10296 0
M  V30 1655 H 158.157 -2.92103 0.679401 0
M  V30 1656 H 155.71 -1.51343 0.390517 0
M  V30 1657 H 156.445 -2.64416 -1.87762 0
M  V30 1658 H 156.23 -3.87491 -0.59941 0
M  V30 1659 H 157.72 -3.86167 -1.5895 0
M  V30 1660 N 158.157 -0.370918 -1.53173 0
M  V30 1661 C 159.573 -0.0200818 -1.59587 0
M  V30 1662 C 159.773 1.46279 -1.38581 0
M  V30 1663 O 158.829 2.22506 -1.19363 0
M  V30 1664 C 160.142 -0.4808 -2.96831 0
M  V30 1665 C 161.69 -0.435477 -3.09956 0
M  V30 1666 C 162.165 -0.872092 -4.4962 0
M  V30 1667 N 163.656 -0.827364 -4.55751 0
M  V30 1668 C 164.391 -1.13683 -5.62018 0
M  V30 1669 N 163.887 -1.51584 -6.76014 0
M  V30 1670 N 165.68 -1.05927 -5.52029 0
M  V30 1671 H 157.831 -1.33652 -1.65079 0
M  V30 1672 H 160.094 -0.546634 -0.774529 0
M  V30 1673 H 159.8 -1.51577 -3.1736 0
M  V30 1674 H 159.674 0.129796 -3.76977 0
M  V30 1675 H 162.061 0.590371 -2.89134 0
M  V30 1676 H 162.142 -1.08164 -2.31806 0
M  V30 1677 H 161.786 -1.89608 -4.71181 0
M  V30 1678 H 161.716 -0.203127 -5.26208 0
M  V30 1679 H 164.207 -0.548216 -3.73902 0
M  V30 1680 H 164.52 -1.73609 -7.53047 0
M  V30 1681 H 162.865 -1.55454 -6.77391 0
M  V30 1682 H 166.056 -0.762321 -4.61851 0
M  V30 1683 H 166.229 -1.30378 -6.34749 0
M  V30 1684 N 159.635 1.57281 -0.100228 0
M  V30 1685 C 160.598 2.13158 0.842398 0
M  V30 1686 C 161.598 1.06202 1.20738 0
M  V30 1687 O 162.788 1.32066 1.13597 0
M  V30 1688 C 159.92 2.65639 2.13655 0
M  V30 1689 H 161.113 2.97766 0.357114 0
M  V30 1690 H 158.666 1.5559 0.148823 0
M  V30 1691 H 159.401 1.84566 2.66657 0
M  V30 1692 H 159.186 3.43844 1.88451 0
M  V30 1693 H 160.676 3.08846 2.81077 0
M  V30 1694 N 161.113 -0.173488 1.56642 0
M  V30 1695 C 162.338 -0.910149 1.86363 0
M  V30 1696 C 162.763 -1.75132 0.686318 0
M  V30 1697 O 162.121 -1.77595 -0.364643 0
M  V30 1698 C 162.169 -1.76447 3.14482 0
M  V30 1699 O 161.273 -2.86584 2.96553 0
M  V30 1700 H 160.614 -0.255086 0.613047 0
M  V30 1701 H 163.144 -0.172283 2.03873 0
M  V30 1702 H 163.154 -2.16483 3.45831 0
M  V30 1703 H 161.829 -1.14658 3.99783 0
M  V30 1704 H 160.406 -2.50146 2.76553 0
M  V30 1705 N 162.591 -1.51276 -0.441967 0
M  V30 1706 C 164.007 -1.39349 -0.778083 0
M  V30 1707 C 164.207 -0.472212 -1.95889 0
M  V30 1708 O 163.263 0.0743551 -2.5239 0
M  V30 1709 C 164.576 -2.81292 -1.0628 0
M  V30 1710 C 166.124 -2.9041 -1.16751 0
M  V30 1711 C 166.599 -4.33251 -1.48519 0
M  V30 1712 N 168.09 -4.36336 -1.55453 0
M  V30 1713 C 168.825 -5.43885 -1.81596 0
M  V30 1714 N 168.321 -6.61601 -2.05562 0
M  V30 1715 N 170.114 -5.3136 -1.8334 0
M  V30 1716 H 162.265 -2.09729 0.335774 0
M  V30 1717 H 164.528 -0.943925 0.0878028 0
M  V30 1718 H 164.234 -3.50678 -0.267905 0
M  V30 1719 H 164.108 -3.20334 -1.99163 0
M  V30 1720 H 166.495 -2.21225 -1.95304 0
M  V30 1721 H 166.576 -2.54871 -0.217801 0
M  V30 1722 H 166.22 -5.02984 -0.704958 0
M  V30 1723 H 166.15 -4.66299 -2.44689 0
M  V30 1724 H 168.641 -3.51466 -1.38853 0
M  V30 1725 H 168.954 -7.39361 -2.24867 0
M  V30 1726 H 167.299 -6.64725 -2.02894 0
M  V30 1727 H 170.49 -4.38382 -1.64132 0
M  V30 1728 H 170.663 -6.15258 -2.03377 0
M  V30 1729 N 164.069 0.697108 -1.41344 0
M  V30 1730 C 165.485 1.00751 -1.2378 0
M  V30 1731 C 165.685 2.01105 -0.126066 0
M  V30 1732 O 164.741 2.47295 0.51004 0
M  V30 1733 C 166.054 1.53359 -2.58653 0
M  V30 1734 C 167.602 1.6525 -2.65822 0
M  V30 1735 C 168.077 2.2126 -4.01009 0
M  V30 1736 N 169.568 2.28622 -4.02847 0
M  V30 1737 C 170.303 2.72984 -5.04249 0
M  V30 1738 N 169.799 3.16962 -6.16041 0
M  V30 1739 N 171.592 2.72534 -4.91611 0
M  V30 1740 H 163.743 0.0322662 -2.12375 0
M  V30 1741 H 166.006 0.0768853 -0.944877 0
M  V30 1742 H 165.712 0.870773 -3.4075 0
M  V30 1743 H 165.586 2.51597 -2.81032 0
M  V30 1744 H 167.973 2.30644 -1.84086 0
M  V30 1745 H 168.054 0.655614 -2.47256 0
M  V30 1746 H 167.698 1.56482 -4.83193 0
M  V30 1747 H 167.628 3.21698 -4.16915 0
M  V30 1748 H 170.119 1.97585 -3.22131 0
M  V30 1749 H 170.432 3.49434 -6.89287 0
M  V30 1750 H 168.777 3.14875 -6.1958 0
M  V30 1751 H 171.968 2.37525 -4.0336 0
M  V30 1752 H 172.141 3.06789 -5.70775 0
M  V30 1753 N 165.547 1.27147 0.931209 0
M  V30 1754 C 166.795 1.13055 1.6752 0
M  V30 1755 C 167.116 -0.324791 1.92276 0
M  V30 1756 O 166.386 -1.22775 1.52654 0
M  V30 1757 H 164.966 0.415391 0.620854 0
M  V30 1758 H 167.628 1.59623 1.11833 0
M  V30 1759 H 166.724 1.65694 2.64485 0
M  V30 1760 N 167.025 -1.13721 1.09112 0
M  V30 1761 C 167.935 -2.22638 0.73957 0
M  V30 1762 C 168.951 -1.72091 -0.257068 0
M  V30 1763 O 170.127 -2.01155 -0.0992154 0
M  V30 1764 C 167.192 -3.46322 0.16191 0
M  V30 1765 C 166.253 -4.11775 1.21408 0
M  V30 1766 C 165.486 -5.29555 0.663891 0
M  V30 1767 O 165.709 -5.68077 -0.514274 0
M  V30 1768 O 164.643 -5.84973 1.41738 0
M  V30 1769 H 168.469 -2.55074 1.64836 0
M  V30 1770 H 166.054 -1.21791 0.865289 0
M  V30 1771 H 167.936 -4.21107 -0.157073 0
M  V30 1772 H 166.611 -3.15593 -0.719932 0
M  V30 1773 H 165.518 -3.3883 1.58571 0
M  V30 1774 H 166.851 -4.46627 2.06845 0
M  V30 1775 N 168.503 -0.877838 -1.30888 0
M  V30 1776 C 169.413 -0.343096 -2.32078 0
M  V30 1777 C 170.429 0.551022 -1.65045 0
M  V30 1778 O 171.605 0.445854 -1.96403 0
M  V30 1779 C 168.67 0.439905 -3.43898 0
M  V30 1780 C 167.731 -0.483111 -4.26573 0
M  V30 1781 C 166.964 0.262616 -5.33053 0
M  V30 1782 O 167.187 1.48967 -5.50604 0
M  V30 1783 O 166.121 -0.383593 -6.00676 0
M  V30 1784 H 169.947 -1.18203 -2.79753 0
M  V30 1785 H 167.532 -0.64145 -1.34929 0
M  V30 1786 H 169.414 0.883504 -4.12034 0
M  V30 1787 H 168.089 1.25526 -2.98371 0
M  V30 1788 H 166.996 -0.975374 -3.61161 0
M  V30 1789 H 168.329 -1.26427 -4.75686 0
M  V30 1790 N 169.982 1.44106 -0.638065 0
M  V30 1791 C 171.207 2.0685 -0.150916 0
M  V30 1792 C 171.632 1.47417 1.16833 0
M  V30 1793 O 170.99 0.578264 1.71831 0
M  V30 1794 C 171.038 3.60555 -0.05708 0
M  V30 1795 O 170.142 4.00465 0.984972 0
M  V30 1796 H 169.483 0.658151 -0.0879399 0
M  V30 1797 H 172.013 1.84865 -0.876707 0
M  V30 1798 H 172.023 4.07789 0.131232 0
M  V30 1799 H 170.698 4.03193 -1.02021 0
M  V30 1800 H 169.275 3.64849 0.770672 0
M  V30 1801 N 171.46 0.379036 1.52974 0
M  V30 1802 C 172.709 -0.207612 2.00629 0
M  V30 1803 C 173.022 -1.48758 1.27006 0
M  V30 1804 O 174.228 -2.15365 1.65318 0
M  V30 1805 C 172.684 -0.42053 3.57435 0
M  V30 1806 C 172.292 0.845587 4.39948 0
M  V30 1807 C 174.036 -0.964102 4.13407 0
M  V30 1808 C 171.943 0.601513 5.88333 0
M  V30 1809 H 170.873 -0.0813591 0.749598 0
M  V30 1810 H 173.524 0.499853 1.76561 0
M  V30 1811 H 171.906 -1.18959 3.7771 0
M  V30 1812 H 173.08 1.61848 4.31442 0
M  V30 1813 H 171.395 1.31336 3.95145 0
M  V30 1814 H 173.992 -1.16225 5.21916 0
M  V30 1815 H 174.335 -1.93019 3.68849 0
M  V30 1816 H 174.868 -0.25487 3.96983 0
M  V30 1817 H 171.607 1.53831 6.37194 0
M  V30 1818 H 171.127 -0.132628 5.99653 0
M  V30 1819 H 172.806 0.232134 6.46583 0
M  V30 1820 N 172.938 -1.57226 0.108567 0
M  V30 1821 C 173.868 -2.17778 -0.84232 0
M  V30 1822 C 174.849 -1.11487 -1.2847 0
M  V30 1823 O 176.034 -1.39681 -1.34918 0
M  V30 1824 C 173.164 -2.76888 -2.09644 0
M  V30 1825 C 172.118 -3.88669 -1.79221 0
M  V30 1826 C 171.444 -4.34541 -3.11574 0
M  V30 1827 C 172.744 -5.11251 -1.06864 0
M  V30 1828 H 174.438 -2.97489 -0.337774 0
M  V30 1829 H 171.984 -1.43097 -0.161025 0
M  V30 1830 H 173.937 -3.17904 -2.76614 0
M  V30 1831 H 172.661 -1.94451 -2.62405 0
M  V30 1832 H 171.32 -3.48213 -1.14644 0
M  V30 1833 H 170.968 -3.48977 -3.62249 0
M  V30 1834 H 170.668 -5.09914 -2.91996 0
M  V30 1835 H 172.192 -4.782 -3.7968 0
M  V30 1836 H 173.606 -5.49352 -1.63968 0
M  V30 1837 H 172.003 -5.9214 -0.974178 0
M  V30 1838 H 173.073 -4.8487 -0.0536168 0
M  V30 1839 N 174.416 0.165178 -1.56732 0
M  V30 1840 C 175.665 0.879143 -1.81532 0
M  V30 1841 C 175.978 1.83144 -0.686842 0
M  V30 1842 O 177.184 2.58823 -0.819944 0
M  V30 1843 C 175.64 1.61388 -3.21686 0
M  V30 1844 C 175.248 0.704904 -4.4242 0
M  V30 1845 C 176.992 2.3157 -3.55774 0
M  V30 1846 C 174.899 1.44022 -5.73595 0
M  V30 1847 H 173.829 0.332033 -0.676957 0
M  V30 1848 H 176.48 0.132008 -1.83025 0
M  V30 1849 H 174.862 2.40599 -3.14529 0
M  V30 1850 H 176.036 -0.0506815 -4.60772 0
M  V30 1851 H 174.351 0.112419 -4.16248 0
M  V30 1852 H 176.948 2.8719 -4.51028 0
M  V30 1853 H 177.291 3.07201 -2.8095 0
M  V30 1854 H 177.824 1.59297 -3.64513 0
M  V30 1855 H 174.563 0.72612 -6.51466 0
M  V30 1856 H 174.083 2.16898 -5.5921 0
M  V30 1857 H 175.762 1.98606 -6.15764 0
M  V30 1858 N 175.894 1.51508 0.433938 0
M  V30 1859 C 177.142 1.6402 1.18075 0
M  V30 1860 C 177.463 0.360328 1.91642 0
M  V30 1861 O 176.733 -0.623945 1.85698 0
M  V30 1862 H 175.313 0.6045 0.43885 0
M  V30 1863 H 177.975 1.88452 0.497178 0
M  V30 1864 H 177.071 2.46949 1.90847 0
M  V30 1865 N 177.372 -0.689602 1.41712 0
M  V30 1866 C 178.322 -1.79571 1.40493 0
M  V30 1867 C 179.306 -1.58473 0.278409 0
M  V30 1868 O 180.498 -1.69204 0.519532 0
M  V30 1869 C 177.627 -3.17923 1.29536 0
M  V30 1870 C 176.713 -3.44695 2.47075 0
M  V30 1871 N 177.104 -3.42132 3.72531 0
M  V30 1872 C 175.402 -3.75269 2.41017 0
M  V30 1873 C 176.103 -3.67976 4.50521 0
M  V30 1874 N 175.079 -3.88014 3.80718 0
M  V30 1875 H 178.881 -1.75961 2.35404 0
M  V30 1876 H 176.395 -0.889839 1.35851 0
M  V30 1877 H 178.392 -3.97167 1.26745 0
M  V30 1878 H 177.052 -3.22741 0.356153 0
M  V30 1879 H 178.063 -3.22375 4.05333 0
M  V30 1880 H 174.74 -3.87421 1.55599 0
M  V30 1881 H 176.13 -3.7208 5.59469 0
M  V30 1882 N 178.85 -1.27639 -0.924453 0
M  V30 1883 C 179.813 -1.10681 -2.00705 0
M  V30 1884 C 180.813 -0.0497823 -1.60723 0
M  V30 1885 O 182.003 -0.294654 -1.7169 0
M  V30 1886 C 179.135 -0.687164 -3.33902 0
M  V30 1887 H 180.328 -2.06817 -2.17179 0
M  V30 1888 H 177.881 -1.10473 -1.10569 0
M  V30 1889 H 178.616 0.275439 -3.23128 0
M  V30 1890 H 178.401 -1.45061 -3.6428 0
M  V30 1891 H 179.891 -0.590853 -4.13399 0
M  V30 1892 N 180.328 1.1314 -1.09713 0
M  V30 1893 C 181.576 1.84119 -0.833338 0
M  V30 1894 C 181.897 1.84097 0.642904 0
M  V30 1895 O 181.167 1.29881 1.46655 0
M  V30 1896 H 179.747 0.681766 -0.305293 0
M  V30 1897 H 182.409 1.37038 -1.38588 0
M  V30 1898 H 181.505 2.88543 -1.18951 0
M  V30 1899 N 181.806 0.884767 1.30421 0
M  V30 1900 C 182.756 0.322846 2.25703 0
M  V30 1901 C 183.74 -0.548582 1.51259 0
M  V30 1902 O 184.932 -0.39304 1.72581 0
M  V30 1903 C 182.061 -0.461787 3.4018 0
M  V30 1904 C 181.147 0.423717 4.21978 0
M  V30 1905 N 181.538 1.52408 4.82292 0
M  V30 1906 C 179.836 0.218795 4.45463 0
M  V30 1907 C 180.537 2.07136 5.43571 0
M  V30 1908 N 179.513 1.36635 5.26148 0
M  V30 1909 H 183.315 1.16363 2.69883 0
M  V30 1910 H 180.829 0.73415 1.44859 0
M  V30 1911 H 182.826 -0.880985 4.07485 0
M  V30 1912 H 181.486 -1.30001 2.9754 0
M  V30 1913 H 182.497 1.90693 4.81515 0
M  V30 1914 H 179.174 -0.582275 4.1342 0
M  V30 1915 H 180.564 2.99538 6.01437 0
M  V30 1916 N 183.284 -1.43765 0.645699 0
M  V30 1917 C 184.695 -1.85193 0.236719 0
M  V30 1918 C 185.046 -1.54045 -1.21509 0
M  V30 1919 O 184.171 -0.985694 -1.92647 0
M  V30 1920 C 184.766 -3.36151 0.422845 0
M  V30 1921 C 183.325 -3.76338 0.0682492 0
M  V30 1922 C 182.472 -2.67538 0.729306 0
M  V30 1923 H 185.423 -1.34025 0.849883 0
M  V30 1924 H 185.444 -3.79032 -0.333904 0
M  V30 1925 H 184.956 -3.5879 1.47958 0
M  V30 1926 H 183.057 -3.59312 -0.986179 0
M  V30 1927 H 183.17 -4.76603 0.488469 0
M  V30 1928 H 181.534 -2.54176 0.163235 0
M  V30 1929 H 182.317 -2.93006 1.78892 0
M  V30 1930 N 184.763 -0.387143 -1.52771 0
M  V30 1931 C 185.673 0.456442 -2.30117 0
M  V30 1932 C 186.689 1.07342 -1.36944 0
M  V30 1933 O 187.865 1.07971 -1.70013 0
M  V30 1934 C 184.93 1.56957 -3.09136 0
M  V30 1935 C 183.991 0.977916 -4.18014 0
M  V30 1936 C 183.224 2.038 -4.93256 0
M  V30 1937 O 183.447 3.25271 -4.68567 0
M  V30 1938 O 182.381 1.6565 -5.78657 0
M  V30 1939 H 186.207 -0.17359 -3.03203 0
M  V30 1940 H 183.792 -0.150919 -1.48636 0
M  V30 1941 H 185.674 2.21628 -3.58412 0
M  V30 1942 H 184.349 2.18461 -2.38865 0
M  V30 1943 H 183.256 0.294525 -3.72939 0
M  V30 1944 H 184.589 0.407128 -4.90513 0
M  V30 1945 N 186.241 1.57166 -0.116904 0
M  V30 1946 C 187.487 1.95412 0.542405 0
M  V30 1947 C 187.82 1.00019 1.66463 0
M  V30 1948 O 187.095 0.0370346 1.94465 0
M  V30 1949 C 187.378 3.43615 1.07708 0
M  V30 1950 C 187.231 4.49781 -0.0415868 0
M  V30 1951 C 188.55 3.93616 1.96861 0
M  V30 1952 H 185.669 0.710543 0.195696 0
M  V30 1953 H 188.311 1.89027 -0.192038 0
M  V30 1954 H 186.461 3.49187 1.70296 0
M  V30 1955 H 188.133 4.56308 -0.676793 0
M  V30 1956 H 186.376 4.28033 -0.705019 0
M  V30 1957 H 187.047 5.50733 0.373717 0
M  V30 1958 H 189.523 3.90335 1.44146 0
M  V30 1959 H 188.399 4.97838 2.3119 0
M  V30 1960 H 188.66 3.34188 2.89432 0
M  V30 1961 N 187.719 -0.156864 1.56817 0
M  V30 1962 C 188.629 -1.2136 2.00771 0
M  V30 1963 C 189.645 -1.47598 0.921459 0
M  V30 1964 O 190.821 -1.59462 1.2302 0
M  V30 1965 C 187.886 -2.52943 2.37109 0
M  V30 1966 C 186.947 -2.34439 3.59634 0
M  V30 1967 C 186.18 -3.59748 3.94229 0
M  V30 1968 O 186.403 -4.65526 3.29609 0
M  V30 1969 O 185.337 -3.52998 4.8752 0
M  V30 1970 H 189.163 -0.870468 2.90958 0
M  V30 1971 H 186.748 -0.36484 1.44877 0
M  V30 1972 H 188.63 -3.30538 2.61386 0
M  V30 1973 H 187.305 -2.86806 1.5008 0
M  V30 1974 H 186.212 -1.54828 3.40557 0
M  V30 1975 H 187.545 -2.05496 4.4725 0
M  V30 1976 N 189.197 -1.51736 -0.425897 0
M  V30 1977 C 190.445 -1.64644 -1.17204 0
M  V30 1978 C 190.766 -0.370486 -1.91448 0
M  V30 1979 O 190.036 0.614088 -1.86026 0
M  V30 1980 H 188.616 -0.606819 -0.435638 0
M  V30 1981 H 191.278 -1.88713 -0.487177 0
M  V30 1982 H 190.374 -2.47958 -1.89534 0
M  V30 1983 N 190.675 0.682077 -1.42076 0
M  V30 1984 C 191.903 1.47057 -1.4554 0
M  V30 1985 C 192.318 1.8869 -0.0645779 0
M  V30 1986 O 191.675 1.57666 0.919115 0
M  V30 1987 C 191.726 2.72442 -2.37609 0
M  V30 1988 O 191.447 2.32559 -3.71279 0
M  V30 1989 C 192.948 3.66069 -2.50017 0
M  V30 1990 H 190.168 0.452737 -0.495248 0
M  V30 1991 H 192.712 0.838695 -1.8651 0
M  V30 1992 H 190.867 3.31835 -1.9991 0
M  V30 1993 H 191.281 3.13475 -4.20516 0
M  V30 1994 H 192.755 4.50792 -3.18576 0
M  V30 1995 H 193.232 4.11476 -1.53572 0
M  V30 1996 H 193.838 3.12572 -2.88407 0
M  V30 1997 N 192.153 1.28127 0.917671 0
M  V30 1998 C 193.086 1.06039 2.02067 0
M  V30 1999 C 194.064 -0.0223285 1.62585 0
M  V30 2000 O 195.248 0.124823 1.88086 0
M  V30 2001 C 192.375 0.610596 3.33151 0
M  V30 2002 C 191.421 1.68937 3.91615 0
M  V30 2003 S 192.254 3.28437 4.22953 0
M  V30 2004 C 193.41 2.85283 5.57103 0
M  V30 2005 H 193.643 1.99425 2.20493 0
M  V30 2006 H 191.176 1.12071 1.06205 0
M  V30 2007 H 193.134 0.357778 4.08938 0
M  V30 2008 H 191.795 -0.303364 3.12632 0
M  V30 2009 H 190.988 1.32619 4.86239 0
M  V30 2010 H 190.59 1.89478 3.2245 0
M  V30 2011 H 192.882 2.3121 6.36827 0
M  V30 2012 H 193.825 3.7869 5.98331 0
M  V30 2013 H 194.233 2.24118 5.18104 0
M  V30 2014 N 193.631 -1.12557 1.10312 0
M  V30 2015 C 194.879 -1.83675 0.843091 0
M  V30 2016 C 195.2 -1.84435 -0.633131 0
M  V30 2017 O 194.47 -1.30657 -1.45964 0
M  V30 2018 H 193.05 -0.680138 0.308904 0
M  V30 2019 H 195.712 -1.36301 1.39313 0
M  V30 2020 H 194.808 -2.87908 1.2048 0
M  V30 2021 N 195.109 -0.891671 -1.2995 0
M  V30 2022 C 196.041 -0.320695 -2.26945 0
M  V30 2023 C 197.054 0.528497 -1.53983 0
M  V30 2024 O 198.243 0.346959 -1.75096 0
M  V30 2025 C 195.343 0.562066 -3.34207 0
M  V30 2026 C 194.516 -0.259576 -4.36629 0
M  V30 2027 C 193.575 0.554739 -5.23268 0
M  V30 2028 O 192.601 -0.0249311 -5.69195 0
M  V30 2029 N 193.803 1.8625 -5.4981 0
M  V30 2030 H 196.568 -1.15432 -2.76578 0
M  V30 2031 H 194.129 -0.755336 -1.432 0
M  V30 2032 H 196.121 1.11304 -3.89093 0
M  V30 2033 H 194.691 1.29637 -2.84452 0
M  V30 2034 H 193.911 -0.991986 -3.81514 0
M  V30 2035 H 195.199 -0.822564 -5.02107 0
M  V30 2036 H 194.597 2.35628 -5.14292 0
M  V30 2037 H 193.154 2.36078 -6.07545 0
M  V30 2038 N 196.587 1.43421 -0.653314 0
M  V30 2039 C 197.817 2.05864 -0.174238 0
M  V30 2040 C 198.225 1.49052 1.16534 0
M  V30 2041 O 197.568 0.616481 1.73047 0
M  V30 2042 C 197.63 3.59499 -0.00875873 0
M  V30 2043 C 197.294 4.38893 -1.27364 0
M  V30 2044 C 198.291 4.70947 -2.20239 0
M  V30 2045 C 195.976 4.789 -1.51525 0
M  V30 2046 C 197.97 5.41916 -3.35568 0
M  V30 2047 C 195.657 5.49614 -2.67147 0
M  V30 2048 C 196.655 5.81044 -3.58994 0
M  V30 2049 O 196.343 6.50313 -4.72597 0
M  V30 2050 H 196.075 0.670345 -0.0872549 0
M  V30 2051 H 198.629 1.84913 -0.894226 0
M  V30 2052 H 196.859 3.79025 0.7666 0
M  V30 2053 H 198.548 4.0364 0.427687 0
M  V30 2054 H 199.314 4.40558 -2.02815 0
M  V30 2055 H 195.193 4.53843 -0.809158 0
M  V30 2056 H 198.737 5.66365 -4.07279 0
M  V30 2057 H 194.634 5.79419 -2.84505 0
M  V30 2058 H 195.402 6.68795 -4.71864 0
M  V30 2059 N 198.065 0.39524 1.52563 0
M  V30 2060 C 199.29 -0.187456 2.06551 0
M  V30 2061 C 199.715 -1.39249 1.26457 0
M  V30 2062 O 199.073 -1.78947 0.291151 0
M  V30 2063 C 199.121 -0.529985 3.56684 0
M  V30 2064 O 198.225 -1.62307 3.79118 0
M  V30 2065 H 197.566 -0.0202537 0.663691 0
M  V30 2066 H 200.096 0.564426 1.96661 0
M  V30 2067 H 200.106 -0.792598 4.00227 0
M  V30 2068 H 198.781 0.350987 4.14416 0
M  V30 2069 H 197.358 -1.3537 3.47461 0
M  V30 2070 N 199.544 -1.57102 0.125237 0
M  V30 2071 C 200.492 -2.16905 -0.839927 0
M  V30 2072 C 201.486 -1.11998 -1.27094 0
M  V30 2073 O 202.692 -1.3029 -1.24195 0
M  V30 2074 H 199.067 -0.694252 -0.288995 0
M  V30 2075 H 201.038 -2.96774 -0.311115 0
M  V30 2076 C 199.787 -2.78795 -2.07771 0
M  V30 2077 H 199.11 -3.59221 -1.755 0
M  V30 2078 H 200.55 -3.2417 -2.73295 0
M  V30 2079 C 199.009 -1.76193 -2.87155 0
M  V30 2080 O 199.539 -1.21909 -3.82755 0
M  V30 2081 N 197.745 -1.45991 -2.51267 0
M  V30 2082 H 197.292 -1.90325 -1.73592 0
M  V30 2083 H 197.25 -0.775844 -3.04677 0
M  V30 2084 N 201.022 0.148545 -1.56898 0
M  V30 2085 C 202.433 0.708766 -1.72723 0
M  V30 2086 C 202.784 1.81734 -0.739395 0
M  V30 2087 O 201.909 2.16194 0.0943169 0
M  V30 2088 C 202.504 1.29245 -3.13179 0
M  V30 2089 C 201.063 1.79925 -3.30611 0
M  V30 2090 C 200.21 0.687111 -2.68652 0
M  V30 2091 H 203.161 -0.0771063 -1.58513 0
M  V30 2092 H 203.182 2.16224 -3.13093 0
M  V30 2093 H 202.694 0.485382 -3.85053 0
M  V30 2094 H 200.795 2.63203 -2.63732 0
M  V30 2095 H 200.908 1.92903 -4.38549 0
M  V30 2096 H 199.272 1.11335 -2.29078 0
M  V30 2097 H 200.055 -0.108483 -3.43129 0
M  V30 2098 N 202.5 1.5196 0.417844 0
M  V30 2099 C 203.41 1.77554 1.53336 0
M  V30 2100 C 204.426 0.660655 1.6097 0
M  V30 2101 O 205.602 0.945099 1.77848 0
M  V30 2102 C 202.667 1.91291 2.89152 0
M  V30 2103 C 201.728 3.15183 2.91475 0
M  V30 2104 C 200.961 3.28256 4.20813 0
M  V30 2105 O 201.184 2.46798 5.14244 0
M  V30 2106 O 200.118 4.21356 4.29817 0
M  V30 2107 H 203.944 2.7222 1.34647 0
M  V30 2108 H 201.529 1.36698 0.602828 0
M  V30 2109 H 203.411 2.02199 3.69721 0
M  V30 2110 H 202.086 0.998129 3.07927 0
M  V30 2111 H 200.993 3.09739 2.09791 0
M  V30 2112 H 202.326 4.06414 2.77648 0
M  V30 2113 N 203.978 -0.674533 1.42435 0
M  V30 2114 C 205.226 -1.43175 1.42637 0
M  V30 2115 C 205.547 -1.94951 0.0438992 0
M  V30 2116 O 204.817 -1.7308 -0.917607 0
M  V30 2117 H 203.397 -0.531307 0.525092 0
M  V30 2118 H 206.059 -0.797006 1.77859 0
M  V30 2119 H 205.155 -2.28463 2.12629 0
M  V30 2120 N 205.456 -1.28612 -0.910864 0
M  V30 2121 C 206.704 -1.15705 -1.65701 0
M  V30 2122 C 207.025 0.29416 -1.92769 0
M  V30 2123 O 206.295 1.20331 -1.54588 0
M  V30 2124 H 204.875 -0.425216 -0.614167 0
M  V30 2125 H 207.537 -1.61381 -1.0928 0
M  V30 2126 H 206.633 -1.6988 -2.61815 0
M  V30 2127 N 206.934 1.1197 -1.10907 0
M  V30 2128 C 207.867 2.16998 -0.706192 0
M  V30 2129 C 208.845 1.59903 0.294897 0
M  V30 2130 O 210.029 1.87513 0.192636 0
M  V30 2131 C 207.156 3.38673 -0.0427664 0
M  V30 2132 C 206.202 4.14414 -1.00811 0
M  V30 2133 S 207.035 4.72079 -2.52789 0
M  V30 2134 C 208.191 5.97083 -1.87731 0
M  V30 2135 H 208.424 2.50837 -1.59587 0
M  V30 2136 H 205.957 1.23508 -0.926555 0
M  V30 2137 H 207.915 4.09142 0.333668 0
M  V30 2138 H 206.576 3.03105 0.823788 0
M  V30 2139 H 205.769 5.016 -0.491259 0
M  V30 2140 H 205.371 3.49678 -1.3267 0
M  V30 2141 H 207.663 6.66599 -1.21044 0
M  V30 2142 H 208.606 6.53403 -2.72892 0
M  V30 2143 H 209.014 5.4837 -1.33979 0
M  V30 2144 N 208.412 0.89855 1.29475 0
M  V30 2145 C 209.642 0.538479 1.99459 0
M  V30 2146 C 210.05 -0.880922 1.67441 0
M  V30 2147 O 209.393 -1.59283 0.915127 0
M  V30 2148 C 209.455 0.649564 3.53583 0
M  V30 2149 C 209.119 2.03573 4.09154 0
M  V30 2150 C 210.116 3.00675 4.24135 0
M  V30 2151 C 207.801 2.3448 4.44212 0
M  V30 2152 C 209.795 4.26809 4.73405 0
M  V30 2153 C 207.482 3.60857 4.93179 0
M  V30 2154 C 208.48 4.56836 5.0773 0
M  V30 2155 O 208.168 5.80969 5.55635 0
M  V30 2156 H 207.9 0.205372 0.644048 0
M  V30 2157 H 210.454 1.20958 1.66007 0
M  V30 2158 H 208.684 -0.0785592 3.8662 0
M  V30 2159 H 210.373 0.29881 4.04799 0
M  V30 2160 H 211.139 2.78112 3.97339 0
M  V30 2161 H 207.018 1.60534 4.32145 0
M  V30 2162 H 210.562 5.0173 4.84678 0
M  V30 2163 H 206.459 3.83251 5.19412 0
M  V30 2164 H 207.227 5.83542 5.73952 0
M  V30 2165 N 209.89 -1.43072 0.660911 0
M  V30 2166 C 210.82 -2.33497 -0.0122829 0
M  V30 2167 C 211.801 -1.49903 -0.803925 0
M  V30 2168 O 212.986 -1.78546 -0.763864 0
M  V30 2169 C 210.116 -3.33363 -0.973994 0
M  V30 2170 C 209.07 -4.27003 -0.291928 0
M  V30 2171 C 208.396 -5.16967 -1.36562 0
M  V30 2172 C 209.696 -5.15816 0.820462 0
M  V30 2173 H 211.39 -2.90038 0.742873 0
M  V30 2174 H 208.936 -1.39461 0.358688 0
M  V30 2175 H 210.889 -3.95524 -1.45392 0
M  V30 2176 H 209.613 -2.75095 -1.7604 0
M  V30 2177 H 208.272 -3.66217 0.167623 0
M  V30 2178 H 207.92 -4.55034 -2.14366 0
M  V30 2179 H 207.62 -5.80441 -0.914454 0
M  V30 2180 H 209.144 -5.82003 -1.84675 0
M  V30 2181 H 210.558 -5.71742 0.422366 0
M  V30 2182 H 208.955 -5.8805 1.19656 0
M  V30 2183 H 210.025 -4.55045 1.67518 0
M  V30 2184 N 211.368 -0.403325 -1.52352 0
M  V30 2185 C 212.614 0.174605 -2.02047 0
M  V30 2186 C 212.947 1.45282 -1.28867 0
M  V30 2187 O 212.222 1.90483 -0.393257 0
M  V30 2188 C 212.505 0.428238 -3.57545 0
M  V30 2189 C 212.358 -0.866248 -4.4138 0
M  V30 2190 C 213.677 1.21287 -4.23057 0
M  V30 2191 H 210.796 0.0619851 -0.734389 0
M  V30 2192 H 213.438 -0.53565 -1.82293 0
M  V30 2193 H 211.588 1.03327 -3.74507 0
M  V30 2194 H 213.26 -1.50265 -4.3614 0
M  V30 2195 H 211.503 -1.47851 -4.07827 0
M  V30 2196 H 212.174 -0.643249 -5.48239 0
M  V30 2197 H 214.65 0.700703 -4.10158 0
M  V30 2198 H 213.526 1.35909 -5.31808 0
M  V30 2199 H 213.787 2.23193 -3.81625 0
M  V30 2200 N 212.846 1.57033 -0.133567 0
M  V30 2201 C 213.756 2.19632 0.824564 0
M  V30 2202 C 214.772 1.17666 1.28182 0
M  V30 2203 O 215.948 1.50193 1.3418 0
M  V30 2204 C 213.013 2.79499 2.05137 0
M  V30 2205 C 212.074 3.96548 1.64464 0
M  V30 2206 C 211.307 4.5355 2.81297 0
M  V30 2207 O 211.53 4.09438 3.97136 0
M  V30 2208 O 210.464 5.44018 2.57542 0
M  V30 2209 H 214.29 3.01991 0.321766 0
M  V30 2210 H 211.875 1.49112 0.0927889 0
M  V30 2211 H 213.757 3.17602 2.7696 0
M  V30 2212 H 212.432 2.00162 2.54395 0
M  V30 2213 H 211.339 3.63186 0.897048 0
M  V30 2214 H 212.672 4.77364 1.19934 0
M  V30 2215 N 214.325 -0.140222 1.56975 0
M  V30 2216 C 215.55 -0.870414 1.88251 0
M  V30 2217 C 215.975 -1.73637 0.723312 0
M  V30 2218 O 215.333 -1.78329 -0.32689 0
M  V30 2219 C 215.381 -1.69737 3.18154 0
M  V30 2220 O 214.485 -2.80229 3.02565 0
M  V30 2221 H 213.826 -0.242025 0.61832 0
M  V30 2222 H 216.356 -0.128999 2.04193 0
M  V30 2223 H 216.366 -2.09099 3.50345 0
M  V30 2224 H 215.041 -1.06152 4.02125 0
M  V30 2225 H 213.618 -2.44224 2.81796 0
M  V30 2226 N 215.803 -1.52179 -0.40978 0
M  V30 2227 C 217.214 -1.58377 -0.988615 0
M  V30 2228 C 217.565 -0.423879 -1.91566 0
M  V30 2229 O 216.69 0.455844 -2.11544 0
M  V30 2230 C 217.285 -2.87044 -1.79976 0
M  V30 2231 C 215.844 -2.95722 -2.32863 0
M  V30 2232 C 214.991 -2.53309 -1.12828 0
M  V30 2233 H 217.942 -1.57558 -0.190039 0
M  V30 2234 H 217.963 -2.7236 -2.65707 0
M  V30 2235 H 217.475 -3.71444 -1.12478 0
M  V30 2236 H 215.576 -2.15814 -3.03735 0
M  V30 2237 H 215.689 -3.99951 -2.63773 0
M  V30 2238 H 214.053 -2.07142 -1.48204 0
M  V30 2239 H 214.836 -3.40082 -0.46897 0
M  V30 2240 N 217.281 0.66697 -1.42791 0
M  V30 2241 C 218.558 1.4234 -1.34159 0
M  V30 2242 C 218.938 2.11093 0.0172729 0
M  V30 2243 O 218.286 2.03808 1.03318 0
M  V30 2244 C 218.496 2.41942 -2.51526 0
M  V30 2245 C 219.844 3.06353 -2.93995 0
M  V30 2246 O 220.868 2.52269 -2.51473 0
M  V30 2247 O 219.727 4.04376 -3.67617 0
M  V30 2248 H 216.821 0.635277 -0.529483 0
M  V30 2249 H 219.367 0.695034 -1.54814 0
M  V30 2250 H 218.139 1.89991 -3.42081 0
M  V30 2251 H 217.762 3.22249 -2.32898 0
M  V30 2252 N 218.759 1.29093 0.90403 0
M  V30 2253 C 220.036 1.075 1.63411 0
M  V30 2254 C 220.416 -0.382346 2.07609 0
M  V30 2255 O 219.764 -1.37031 1.82851 0
M  V30 2256 C 219.974 2.05858 2.81822 0
M  V30 2257 C 221.322 2.36539 3.52611 0
M  V30 2258 O 222.346 2.04019 2.91984 0
M  V30 2259 O 221.205 2.92085 4.61897 0
M  V30 2260 H 218.299 0.411547 0.717327 0
M  V30 2261 H 220.845 1.40449 0.952479 0
M  V30 2262 H 219.617 3.04037 2.46327 0
M  V30 2263 H 219.24 1.73613 3.57693 0
M  V30 2264 N 220.237 -1.11381 1.11499 0
M  V30 2265 C 221.483 -1.83403 0.865512 0
M  V30 2266 C 221.816 -1.84459 -0.607329 0
M  V30 2267 O 221.091 -1.29811 -1.44842 0
M  V30 2268 C 221.374 -3.30552 1.42855 0
M  V30 2269 C 221.227 -3.37886 2.96906 0
M  V30 2270 C 222.546 -4.26643 1.08 0
M  V30 2271 H 219.665 -0.665879 0.31587 0
M  V30 2272 H 222.307 -1.30601 1.37998 0
M  V30 2273 H 220.457 -3.75648 0.990985 0
M  V30 2274 H 222.129 -3.01343 3.49271 0
M  V30 2275 H 220.372 -2.78088 3.32941 0
M  V30 2276 H 221.043 -4.41458 3.31389 0
M  V30 2277 H 223.519 -3.89729 1.45775 0
M  V30 2278 H 222.395 -5.27986 1.50072 0
M  V30 2279 H 222.656 -4.42099 -0.00915037 0
M  V30 2280 N 221.715 -0.905404 -1.28997 0
M  V30 2281 C 222.961 -0.544465 -1.95977 0
M  V30 2282 C 223.316 0.90041 -1.70031 0
M  V30 2283 O 222.609 1.63064 -1.00601 0
M  V30 2284 C 222.803 -0.779906 -3.48787 0
M  V30 2285 C 222.632 -2.24612 -3.89589 0
M  V30 2286 C 221.402 -2.89464 -4.14172 0
M  V30 2287 C 223.6 -3.22182 -4.00878 0
M  V30 2288 N 221.582 -4.26469 -4.41585 0
M  V30 2289 C 222.953 -4.44323 -4.32409 0
M  V30 2290 C 225.008 -3.17694 -3.83373 0
M  V30 2291 C 223.711 -5.62546 -4.48258 0
M  V30 2292 C 225.737 -4.35208 -4.00435 0
M  V30 2293 C 225.099 -5.56121 -4.3233 0
M  V30 2294 H 221.198 -0.248948 -0.741316 0
M  V30 2295 H 223.782 -1.1674 -1.5582 0
M  V30 2296 H 221.953 -0.186308 -3.87953 0
M  V30 2297 H 223.685 -0.383833 -4.02876 0
M  V30 2298 H 220.44 -2.40232 -4.08149 0
M  V30 2299 H 220.864 -4.97283 -4.5939 0
M  V30 2300 H 225.506 -2.25297 -3.57773 0
M  V30 2301 H 223.224 -6.55429 -4.72692 0
M  V30 2302 H 226.81 -4.33228 -3.88336 0
M  V30 2303 H 225.69 -6.45537 -4.45255 0
M  V30 2304 N 223.193 1.4272 -0.668489 0
M  V30 2305 C 224.14 2.30796 0.0137489 0
M  V30 2306 C 225.11 1.4561 0.799177 0
M  V30 2307 O 226.295 1.74453 0.772702 0
M  V30 2308 C 223.435 3.31377 0.963507 0
M  V30 2309 C 222.548 4.31655 0.172569 0
M  V30 2310 C 221.683 5.19312 1.1175 0
M  V30 2311 C 220.722 6.11274 0.317886 0
M  V30 2312 N 219.859 6.91504 1.2152 0
M  V30 2313 H 224.699 2.88585 -0.743161 0
M  V30 2314 H 222.236 1.42154 -0.378226 0
M  V30 2315 H 224.194 3.88214 1.52792 0
M  V30 2316 H 222.824 2.75202 1.68712 0
M  V30 2317 H 221.876 3.76988 -0.508374 0
M  V30 2318 H 223.188 4.96779 -0.448527 0
M  V30 2319 H 222.342 5.80851 1.75206 0
M  V30 2320 H 221.081 4.5435 1.77249 0
M  V30 2321 H 220.086 5.48809 -0.329918 0
M  V30 2322 H 221.311 6.78283 -0.332917 0
M  V30 2323 H 219.257 6.29176 1.85671 0
M  V30 2324 H 219.174 7.53209 0.649036 0
M  V30 2325 H 220.442 7.57535 1.83742 0
M  V30 2326 N 224.671 0.411399 1.52136 0
M  V30 2327 C 225.601 -0.404015 2.29978 0
M  V30 2328 C 226.582 -1.04412 1.34284 0
M  V30 2329 O 227.767 -1.0527 1.63192 0
M  V30 2330 C 224.897 -1.5197 3.12286 0
M  V30 2331 C 223.851 -1.00448 4.16046 0
M  V30 2332 C 223.177 -2.21393 4.86712 0
M  V30 2333 C 224.477 -0.0569336 5.22269 0
M  V30 2334 H 226.171 0.245529 2.98392 0
M  V30 2335 H 223.717 0.119525 1.43503 0
M  V30 2336 H 225.67 -2.09715 3.6551 0
M  V30 2337 H 224.394 -2.19716 2.41646 0
M  V30 2338 H 223.053 -0.449421 3.63835 0
M  V30 2339 H 222.701 -2.87699 4.12599 0
M  V30 2340 H 222.401 -1.87571 5.56858 0
M  V30 2341 H 223.925 -2.7974 5.4275 0
M  V30 2342 H 225.339 -0.54325 5.7072 0
M  V30 2343 H 223.736 0.192594 5.99791 0
M  V30 2344 H 224.806 0.887663 4.76706 0
M  V30 2345 N 226.149 -1.5696 0.141893 0
M  V30 2346 C 227.377 -2.00322 -0.517579 0
M  V30 2347 C 227.792 -1.02193 -1.58752 0
M  V30 2348 O 227.149 -0.0181619 -1.82491 0
M  V30 2349 C 227.2 -3.43618 -1.12289 0
M  V30 2350 O 226.921 -4.37995 -0.0956929 0
M  V30 2351 C 228.422 -4.02231 -1.86347 0
M  V30 2352 H 225.642 -0.657243 -0.135177 0
M  V30 2353 H 228.186 -2.03146 0.234973 0
M  V30 2354 H 226.341 -3.41662 -1.82609 0
M  V30 2355 H 226.755 -5.21729 -0.538469 0
M  V30 2356 H 228.229 -5.04509 -2.23997 0
M  V30 2357 H 228.706 -3.42655 -2.74744 0
M  V30 2358 H 229.312 -4.07802 -1.20737 0
M  V30 2359 N 227.627 0.131896 -1.57047 0
M  V30 2360 C 228.873 0.843179 -1.84441 0
M  V30 2361 C 229.206 1.80129 -0.725749 0
M  V30 2362 O 228.481 1.92624 0.269469 0
M  V30 2363 C 228.764 1.60442 -3.22382 0
M  V30 2364 C 228.617 0.666782 -4.4483 0
M  V30 2365 C 229.936 2.56354 -3.5773 0
M  V30 2366 H 227.055 0.305081 -0.670891 0
M  V30 2367 H 229.697 0.107839 -1.89694 0
M  V30 2368 H 227.847 2.23128 -3.18035 0
M  V30 2369 H 229.519 0.0497646 -4.61273 0
M  V30 2370 H 227.762 -0.022609 -4.33794 0
M  V30 2371 H 228.433 1.23579 -5.37989 0
M  V30 2372 H 230.909 2.0378 -3.62785 0
M  V30 2373 H 229.785 3.06657 -4.5525 0
M  V30 2374 H 230.046 3.38419 -2.84473 0
M  V30 2375 N 229.106 1.52395 0.401703 0
M  V30 2376 C 230.053 1.76268 1.48991 0
M  V30 2377 C 231.023 0.605386 1.54675 0
M  V30 2378 O 232.208 0.843742 1.7113 0
M  V30 2379 C 229.348 1.92592 2.86361 0
M  V30 2380 C 228.461 3.20259 2.89928 0
M  V30 2381 C 227.596 3.26972 4.18644 0
M  V30 2382 C 226.635 4.48812 4.16214 0
M  V30 2383 N 225.772 4.52877 5.36514 0
M  V30 2384 H 230.612 2.6914 1.27935 0
M  V30 2385 H 228.149 1.33355 0.620871 0
M  V30 2386 H 230.107 2.0004 3.66115 0
M  V30 2387 H 228.737 1.03093 3.05895 0
M  V30 2388 H 227.789 3.21945 2.02621 0
M  V30 2389 H 229.101 4.10056 2.83999 0
M  V30 2390 H 228.255 3.33533 5.06794 0
M  V30 2391 H 226.994 2.35126 4.27278 0
M  V30 2392 H 225.999 4.4239 3.26453 0
M  V30 2393 H 227.224 5.41961 4.09213 0
M  V30 2394 H 225.17 3.63917 5.45802 0
M  V30 2395 H 225.087 5.36529 5.32609 0
M  V30 2396 H 226.355 4.63676 6.26597 0
M  V30 2397 N 230.584 -0.659388 1.43143 0
M  V30 2398 C 231.532 -1.79374 1.4808 0
M  V30 2399 C 232.526 -1.65639 0.354988 0
M  V30 2400 O 233.732 -1.7206 0.528704 0
M  V30 2401 H 230.107 -0.591705 0.4641 0
M  V30 2402 H 232.078 -1.72329 2.43609 0
M  V30 2403 C 230.827 -3.17606 1.41499 0
M  V30 2404 H 230.15 -3.28809 2.27431 0
M  V30 2405 H 231.59 -3.96951 1.49015 0
M  V30 2406 C 230.049 -3.36642 0.131765 0
M  V30 2407 O 230.579 -3.93461 -0.809386 0
M  V30 2408 N 228.785 -2.90567 0.0439396 0
M  V30 2409 H 228.332 -2.44513 0.810619 0
M  V30 2410 H 228.29 -3.03681 -0.813969 0
M  V30 2411 N 232.062 -1.29571 -0.897171 0
M  V30 2412 C 232.972 -1.16808 -2.03453 0
M  V30 2413 C 233.988 -0.0907471 -1.73763 0
M  V30 2414 O 235.164 -0.303312 -1.99103 0
M  V30 2415 C 232.229 -0.848264 -3.36163 0
M  V30 2416 C 231.29 -2.0097 -3.79354 0
M  V30 2417 C 230.523 -1.70505 -5.05731 0
M  V30 2418 O 230.746 -0.62718 -5.66941 0
M  V30 2419 O 229.68 -2.5538 -5.45036 0
M  V30 2420 H 233.506 -2.12325 -2.17144 0
M  V30 2421 H 231.091 -1.09047 -1.02123 0
M  V30 2422 H 232.973 -0.684581 -4.15802 0
M  V30 2423 H 231.648 0.0771071 -3.23608 0
M  V30 2424 H 230.555 -2.22863 -3.00471 0
M  V30 2425 H 231.888 -2.91636 -3.96496 0
M  V30 2426 N 233.54 1.10788 -1.12088 0
M  V30 2427 C 234.45 2.20599 -0.798338 0
M  V30 2428 C 235.466 1.72712 0.21135 0
M  V30 2429 O 236.642 2.01348 0.0458477 0
M  V30 2430 C 233.707 3.45771 -0.253674 0
M  V30 2431 C 232.768 4.08411 -1.32283 0
M  V30 2432 C 232.001 5.27608 -0.80406 0
M  V30 2433 O 232.224 5.69241 0.363478 0
M  V30 2434 O 231.158 5.8101 -1.57198 0
M  V30 2435 H 234.984 2.50614 -1.7154 0
M  V30 2436 H 232.569 1.19454 -0.897275 0
M  V30 2437 H 234.451 4.21376 0.0453691 0
M  V30 2438 H 233.126 3.1739 0.636005 0
M  V30 2439 H 232.033 3.34507 -1.67499 0
M  V30 2440 H 233.366 4.40986 -2.18614 0
M  V30 2441 N 235.018 0.912232 1.28515 0
M  V30 2442 C 235.965 0.397954 2.27343 0
M  V30 2443 C 236.935 -0.526766 1.57526 0
M  V30 2444 O 238.12 -0.449292 1.85435 0
M  V30 2445 C 235.26 -0.357263 3.43246 0
M  V30 2446 C 234.373 0.599788 4.27816 0
M  V30 2447 C 233.508 -0.173725 5.30916 0
M  V30 2448 C 232.547 0.777039 6.07148 0
M  V30 2449 N 231.684 0.0371398 7.0209 0
M  V30 2450 H 236.524 1.24577 2.70711 0
M  V30 2451 H 234.061 0.625612 1.33133 0
M  V30 2452 H 236.019 -0.8113 4.09236 0
M  V30 2453 H 234.649 -1.16943 3.00872 0
M  V30 2454 H 233.701 1.17235 3.61884 0
M  V30 2455 H 235.013 1.32704 4.80823 0
M  V30 2456 H 234.167 -0.688394 6.02782 0
M  V30 2457 H 232.906 -0.934041 4.78672 0
M  V30 2458 H 231.911 1.3031 5.34134 0
M  V30 2459 H 233.136 1.53689 6.61481 0
M  V30 2460 H 231.082 -0.705213 6.52198 0
M  V30 2461 H 230.999 0.704249 7.52713 0
M  V30 2462 H 232.267 -0.457383 7.78157 0
M  V30 2463 N 236.496 -1.42363 0.676048 0
M  V30 2464 C 237.426 -2.33497 0.0124832 0
M  V30 2465 C 238.407 -1.50748 -0.787981 0
M  V30 2466 O 239.592 -1.79346 -0.744884 0
M  V30 2467 C 236.722 -3.34377 -0.938582 0
M  V30 2468 C 235.676 -4.27289 -0.246622 0
M  V30 2469 C 235.002 -5.18386 -1.31071 0
M  V30 2470 C 236.302 -5.14916 0.875125 0
M  V30 2471 H 237.996 -2.89233 0.773593 0
M  V30 2472 H 235.542 -1.39073 0.37346 0
M  V30 2473 H 237.495 -3.97044 -1.41188 0
M  V30 2474 H 236.219 -2.76947 -1.73113 0
M  V30 2475 H 234.878 -3.66018 0.206456 0
M  V30 2476 H 234.526 -4.57282 -2.09528 0
M  V30 2477 H 234.226 -5.81378 -0.852839 0
M  V30 2478 H 235.75 -5.83929 -1.78492 0
M  V30 2479 H 237.164 -5.71262 0.482983 0
M  V30 2480 H 235.561 -5.86747 1.25887 0
M  V30 2481 H 236.631 -4.53242 1.72335 0
M  V30 2482 N 237.974 -0.419461 -1.51915 0
M  V30 2483 C 239.199 0.154572 -2.06823 0
M  V30 2484 C 239.624 1.3722 -1.28656 0
M  V30 2485 O 238.982 1.78461 -0.319583 0
M  V30 2486 C 239.03 0.473172 -3.57482 0
M  V30 2487 O 238.134 1.56255 -3.81652 0
M  V30 2488 H 237.475 0.0096924 -0.663929 0
M  V30 2489 H 240.005 -0.595642 -1.95738 0
M  V30 2490 H 240.015 0.728825 -4.01438 0
M  V30 2491 H 238.69 -0.416873 -4.13805 0
M  V30 2492 H 237.267 1.29825 -3.49571 0
M  V30 2493 N 239.452 1.56882 -0.150215 0
M  V30 2494 C 240.699 1.96228 0.500093 0
M  V30 2495 C 241.027 1.03522 1.64661 0
M  V30 2496 O 240.282 0.0650683 1.95592 0
M  V30 2497 C 240.581 3.41801 1.04437 0
M  V30 2498 C 240.247 4.50897 0.0159671 0
M  V30 2499 C 238.909 4.8046 -0.266731 0
M  V30 2500 C 241.261 5.16703 -0.683192 0
M  V30 2501 C 238.589 5.73135 -1.25434 0
M  V30 2502 C 240.941 6.10441 -1.65964 0
M  V30 2503 C 239.605 6.38382 -1.95 0
M  V30 2504 H 238.875 0.718048 0.182997 0
M  V30 2505 H 241.522 1.90019 -0.237724 0
M  V30 2506 H 239.827 3.44857 1.85959 0
M  V30 2507 H 241.524 3.69573 1.55618 0
M  V30 2508 H 238.114 4.27891 0.246485 0
M  V30 2509 H 242.298 4.93993 -0.477983 0
M  V30 2510 H 237.554 5.93074 -1.48571 0
M  V30 2511 H 241.728 6.60507 -2.20689 0
M  V30 2512 H 239.355 7.09996 -2.71679 0
M  V30 2513 N 240.93 -0.123565 1.57115 0
M  V30 2514 C 241.863 -1.18202 1.95201 0
M  V30 2515 C 242.841 -1.40349 0.821031 0
M  V30 2516 O 244.025 -1.54578 1.07879 0
M  V30 2517 C 241.152 -2.53671 2.24429 0
M  V30 2518 C 240.198 -2.4798 3.46999 0
M  V30 2519 S 241.031 -1.92389 4.99747 0
M  V30 2520 C 242.187 -3.2954 5.32123 0
M  V30 2521 H 242.42 -0.857212 2.84674 0
M  V30 2522 H 239.953 -0.33014 1.50829 0
M  V30 2523 H 241.911 -3.3162 2.41947 0
M  V30 2524 H 240.572 -2.83332 1.35579 0
M  V30 2525 H 239.765 -3.47758 3.64801 0
M  V30 2526 H 239.367 -1.7815 3.28844 0
M  V30 2527 H 241.659 -4.25736 5.27025 0
M  V30 2528 H 242.602 -3.16569 6.33395 0
M  V30 2529 H 243.01 -3.27758 4.59603 0
M  V30 2530 N 242.408 -1.52605 -0.393616 0
M  V30 2531 C 243.636 -1.71294 -1.16043 0
M  V30 2532 C 244.051 -0.429259 -1.83855 0
M  V30 2533 O 243.408 0.595921 -1.72496 0
M  V30 2534 C 243.459 -2.8593 -2.21193 0
M  V30 2535 O 243.18 -4.09329 -1.56146 0
M  V30 2536 C 244.681 -3.16259 -3.10636 0
M  V30 2537 H 241.901 -0.573641 -0.348104 0
M  V30 2538 H 244.445 -1.99234 -0.461092 0
M  V30 2539 H 242.6 -2.60465 -2.86769 0
M  V30 2540 H 243.014 -4.73323 -2.25978 0
M  V30 2541 H 244.488 -3.99946 -3.80456 0
M  V30 2542 H 244.965 -2.3045 -3.73884 0
M  V30 2543 H 245.571 -3.43547 -2.50711 0
M  V30 2544 N 243.887 0.651787 -1.4349 0
M  V30 2545 C 244.819 1.77725 -1.44729 0
M  V30 2546 C 245.832 1.59141 -0.343231 0
M  V30 2547 O 247.021 1.67835 -0.607751 0
M  V30 2548 C 244.121 3.15172 -1.24579 0
M  V30 2549 C 243.294 3.60402 -2.47849 0
M  V30 2550 C 242.353 4.76656 -2.22902 0
M  V30 2551 O 241.379 4.86022 -2.96263 0
M  V30 2552 N 242.581 5.66958 -1.24656 0
M  V30 2553 H 245.346 1.77141 -2.41746 0
M  V30 2554 H 242.907 0.835678 -1.38665 0
M  V30 2555 H 244.899 3.90634 -1.0577 0
M  V30 2556 H 243.469 3.1052 -0.360015 0
M  V30 2557 H 242.689 2.75369 -2.82073 0
M  V30 2558 H 243.977 3.87368 -3.29884 0
M  V30 2559 H 243.375 5.62065 -0.640265 0
M  V30 2560 H 241.932 6.42135 -1.1183 0
M  V30 2561 N 245.365 1.30045 0.890287 0
M  V30 2562 C 246.593 1.21472 1.67487 0
M  V30 2563 C 247.008 -0.223241 1.87476 0
M  V30 2564 O 246.365 -1.14828 1.41847 0
M  V30 2565 C 246.416 1.93394 3.05419 0
M  V30 2566 O 246.137 3.31576 2.86337 0
M  V30 2567 C 247.638 1.91414 3.99844 0
M  V30 2568 H 244.858 0.420604 0.522813 0
M  V30 2569 H 247.402 1.7158 1.11268 0
M  V30 2570 H 245.557 1.47099 3.58386 0
M  V30 2571 H 245.971 3.67929 3.73802 0
M  V30 2572 H 247.445 2.46285 4.94012 0
M  V30 2573 H 247.922 0.891833 4.3005 0
M  V30 2574 H 248.528 2.37496 3.52811 0
M  V30 2575 N 246.843 -1.10192 1.12674 0
M  V30 2576 C 248.071 -1.85983 0.906527 0
M  V30 2577 C 248.486 -1.80783 -0.544333 0
M  V30 2578 O 247.843 -1.19834 -1.37645 0
M  V30 2579 C 247.894 -3.34281 1.37618 0
M  V30 2580 O 247.615 -3.39401 2.77017 0
M  V30 2581 C 249.116 -4.26938 1.19325 0
M  V30 2582 H 246.336 -0.587716 0.323775 0
M  V30 2583 H 248.88 -1.39284 1.49734 0
M  V30 2584 H 247.035 -3.78436 0.828539 0
M  V30 2585 H 247.449 -4.31838 2.97684 0
M  V30 2586 H 248.923 -5.29181 1.57071 0
M  V30 2587 H 249.4 -4.38995 0.134097 0
M  V30 2588 H 250.006 -3.8859 1.72852 0
M  V30 2589 N 248.321 -0.919034 -1.28029 0
M  V30 2590 C 249.251 -0.428581 -2.29533 0
M  V30 2591 C 250.232 0.50659 -1.62381 0
M  V30 2592 O 251.417 0.413195 -1.89753 0
M  V30 2593 C 248.547 0.327388 -3.45753 0
M  V30 2594 C 247.501 -0.519137 -4.2484 0
M  V30 2595 C 246.827 0.365486 -5.33449 0
M  V30 2596 C 248.127 -1.77914 -4.91064 0
M  V30 2597 H 249.821 -1.27687 -2.70807 0
M  V30 2598 H 247.367 -0.615428 -1.30186 0
M  V30 2599 H 249.32 0.681378 -4.15855 0
M  V30 2600 H 248.044 1.20963 -3.03374 0
M  V30 2601 H 246.703 -0.855717 -3.56473 0
M  V30 2602 H 246.351 1.24642 -4.87312 0
M  V30 2603 H 246.051 -0.197356 -5.87268 0
M  V30 2604 H 247.575 0.715241 -6.06396 0
M  V30 2605 H 248.989 -1.49374 -5.53498 0
M  V30 2606 H 247.386 -2.2848 -5.54903 0
M  V30 2607 H 248.456 -2.50382 -4.15255 0
M  V30 2608 N 249.799 1.42003 -0.683588 0
M  V30 2609 C 251.024 2.06265 -0.216647 0
M  V30 2610 C 251.449 1.51059 1.12083 0
M  V30 2611 O 250.807 0.632638 1.69904 0
M  V30 2612 C 250.855 3.60191 -0.171759 0
M  V30 2613 O 249.959 4.03396 0.857069 0
M  V30 2614 H 249.3 0.65502 -0.108834 0
M  V30 2615 H 251.83 1.81982 -0.935077 0
M  V30 2616 H 251.84 4.08 0.0014303 0
M  V30 2617 H 250.515 3.99743 -1.14796 0
M  V30 2618 H 249.092 3.67117 0.654208 0
M  V30 2619 N 251.277 0.427512 1.51691 0
M  V30 2620 C 252.523 -0.142439 2.02299 0
M  V30 2621 C 252.856 -1.43214 1.31162 0
M  V30 2622 O 252.131 -1.89833 0.423511 0
M  V30 2623 C 252.414 -0.371301 3.58181 0
M  V30 2624 C 252.267 0.936358 4.39946 0
M  V30 2625 C 253.586 -1.14542 4.24933 0
M  V30 2626 H 250.705 -0.0502937 0.735282 0
M  V30 2627 H 253.347 0.564584 1.81418 0
M  V30 2628 H 251.497 -0.973559 3.76104 0
M  V30 2629 H 253.169 1.57184 4.33694 0
M  V30 2630 H 251.412 1.5432 4.05423 0
M  V30 2631 H 252.083 0.730388 5.47147 0
M  V30 2632 H 254.559 -0.635362 4.11221 0
M  V30 2633 H 253.435 -1.27431 5.33903 0
M  V30 2634 H 253.696 -2.17093 3.85127 0
M  V30 2635 N 252.755 -1.56801 0.158532 0
M  V30 2636 C 254.032 -1.88131 -0.535357 0
M  V30 2637 C 254.412 -1.06638 -1.82186 0
M  V30 2638 O 253.76 -0.156533 -2.27963 0
M  V30 2639 C 253.97 -3.39949 -0.789653 0
M  V30 2640 C 255.318 -4.09416 -1.12533 0
M  V30 2641 O 256.342 -3.45194 -0.878622 0
M  V30 2642 O 255.201 -5.22855 -1.59014 0
M  V30 2643 H 252.295 -0.780143 -0.27442 0
M  V30 2644 H 254.841 -1.68564 0.19601 0
M  V30 2645 H 253.613 -3.91115 0.120353 0
M  V30 2646 H 253.236 -3.65084 -1.57479 0
M  V30 2647 N 254.233 0.115231 -1.57178 0
M  V30 2648 C 255.51 0.852873 -1.76027 0
M  V30 2649 C 255.89 1.97892 -0.73498 0
M  V30 2650 O 255.238 2.27232 0.24036 0
M  V30 2651 C 255.448 1.36608 -3.21153 0
M  V30 2652 C 256.796 1.81692 -3.83762 0
M  V30 2653 O 257.82 1.46278 -3.24779 0
M  V30 2654 O 256.679 2.47104 -4.87444 0
M  V30 2655 H 253.773 0.405296 -0.720877 0
M  V30 2656 H 256.319 0.0986785 -1.69413 0
M  V30 2657 H 255.091 0.558357 -3.87296 0
M  V30 2658 H 254.714 2.18287 -3.3232 0
M  V30 2659 N 255.711 1.52812 0.385517 0
M  V30 2660 C 256.939 1.71907 1.15133 0
M  V30 2661 C 257.354 0.439004 1.83625 0
M  V30 2662 O 256.711 -0.586765 1.7281 0
M  V30 2663 C 256.762 2.87099 2.19673 0
M  V30 2664 O 256.483 4.10151 1.53973 0
M  V30 2665 C 257.984 3.17902 3.08955 0
M  V30 2666 H 255.204 0.575479 0.345057 0
M  V30 2667 H 257.748 1.99476 0.45052 0
M  V30 2668 H 255.903 2.61982 2.85384 0
M  V30 2669 H 256.317 4.74514 2.23465 0
M  V30 2670 H 257.791 4.01959 3.7833 0
M  V30 2671 H 258.268 2.3243 3.72657 0
M  V30 2672 H 258.874 3.44871 2.48885 0
M  V30 2673 N 257.189 -0.644168 1.43834 0
M  V30 2674 C 258.414 -1.43642 1.49605 0
M  V30 2675 C 258.839 -1.8773 0.117913 0
M  V30 2676 O 258.197 -1.57938 -0.890239 0
M  V30 2677 C 258.245 -2.6416 2.45463 0
M  V30 2678 O 257.349 -3.63538 1.94714 0
M  V30 2679 H 256.69 -0.430329 0.50568 0
M  V30 2680 H 259.22 -0.787448 1.8884 0
M  V30 2681 H 259.23 -3.11864 2.63068 0
M  V30 2682 H 257.905 -2.31414 3.45572 0
M  V30 2683 H 256.482 -3.2273 1.86814 0
M  V30 2684 N 258.668 -1.30515 -0.883378 0
M  V30 2685 C 259.945 -1.10086 -1.6168 0
M  V30 2686 C 260.325 0.349269 -2.08191 0
M  V30 2687 O 259.673 1.34105 -1.85008 0
M  V30 2688 C 259.883 -2.10315 -2.78511 0
M  V30 2689 C 261.231 -2.42119 -3.48803 0
M  V30 2690 O 262.255 -2.08638 -2.88702 0
M  V30 2691 O 261.114 -2.99396 -4.57192 0
M  V30 2692 H 258.208 -0.422907 -0.710689 0
M  V30 2693 H 260.754 -1.41947 -0.930015 0
M  V30 2694 H 259.526 -3.07917 -2.41459 0
M  V30 2695 H 259.149 -1.79282 -3.54886 0
M  V30 2696 N 260.146 1.09593 -1.13257 0
M  V30 2697 C 261.392 1.82003 -0.89458 0
M  V30 2698 C 261.725 1.85402 0.577906 0
M  V30 2699 O 261 1.32099 1.42759 0
M  V30 2700 C 261.283 3.28237 -1.48096 0
M  V30 2701 C 261.136 3.3312 -3.02244 0
M  V30 2702 C 262.455 4.24871 -1.14774 0
M  V30 2703 H 259.574 0.66077 -0.326424 0
M  V30 2704 H 262.216 1.28389 -1.40058 0
M  V30 2705 H 260.366 3.74024 -1.05062 0
M  V30 2706 H 262.038 2.95748 -3.54021 0
M  V30 2707 H 260.281 2.72756 -3.37323 0
M  V30 2708 H 260.952 4.3613 -3.38371 0
M  V30 2709 H 263.428 3.87361 -1.51957 0
M  V30 2710 H 262.304 5.25532 -1.58452 0
M  V30 2711 H 262.565 4.42058 -0.0611849 0
M  V30 2712 N 261.624 0.925811 1.2754 0
M  V30 2713 C 262.873 0.561084 1.93739 0
M  V30 2714 C 263.186 -0.901685 1.73577 0
M  V30 2715 O 264.392 -1.37511 2.34101 0
M  V30 2716 C 262.848 0.952668 3.47062 0
M  V30 2717 C 262.456 2.43599 3.75983 0
M  V30 2718 C 264.2 0.659103 4.19352 0
M  V30 2719 C 262.107 2.76707 5.22673 0
M  V30 2720 H 261.037 0.206122 0.725279 0
M  V30 2721 H 263.688 1.12637 1.44863 0
M  V30 2722 H 262.07 0.316053 3.94737 0
M  V30 2723 H 263.244 3.12035 3.39073 0
M  V30 2724 H 261.559 2.70125 3.16893 0
M  V30 2725 H 264.156 0.882985 5.27359 0
M  V30 2726 H 264.499 -0.403607 4.14339 0
M  V30 2727 H 265.032 1.25473 3.77494 0
M  V30 2728 H 261.771 3.8188 5.32774 0
M  V30 2729 H 261.291 2.12919 5.60737 0
M  V30 2730 H 262.97 2.6435 5.90532 0
M  V30 2731 N 263.102 -1.41638 0.69111 0
M  V30 2732 C 264.379 -1.95036 0.148421 0
M  V30 2733 C 264.759 -1.63072 -1.34055 0
M  V30 2734 O 264.107 -0.93538 -2.08478 0
M  V30 2735 C 264.317 -3.46279 0.434951 0
M  V30 2736 C 265.665 -4.23069 0.360275 0
M  V30 2737 O 266.689 -3.54277 0.369613 0
M  V30 2738 O 265.548 -5.45583 0.316534 0
M  V30 2739 H 262.642 -0.826908 0.0123654 0
M  V30 2740 H 265.188 -1.5138 0.766963 0
M  V30 2741 H 263.96 -3.6281 1.46576 0
M  V30 2742 H 263.583 -3.97019 -0.214787 0
M  V30 2743 N 264.58 -0.43555 -1.51462 0
M  V30 2744 C 265.543 0.365137 -2.26273 0
M  V30 2745 C 266.543 0.951227 -1.29647 0
M  V30 2746 O 267.733 0.825958 -1.53374 0
M  V30 2747 C 264.865 1.51645 -3.05314 0
M  V30 2748 H 266.058 -0.290474 -2.9849 0
M  V30 2749 H 263.611 -0.188676 -1.55157 0
M  V30 2750 H 264.346 2.20816 -2.3751 0
M  V30 2751 H 264.131 1.10238 -3.76284 0
M  V30 2752 H 265.621 2.08218 -3.61987 0
M  V30 2753 N 266.058 1.56714 -0.166846 0
M  V30 2754 C 266.988 2.20754 0.760913 0
M  V30 2755 C 267.969 1.16178 1.24244 0
M  V30 2756 O 269.154 1.44592 1.29641 0
M  V30 2757 C 266.284 2.84478 1.99223 0
M  V30 2758 C 265.238 3.95053 1.64672 0
M  V30 2759 C 264.564 4.45805 2.95232 0
M  V30 2760 C 265.864 5.14865 0.878155 0
M  V30 2761 H 267.558 2.98537 0.22713 0
M  V30 2762 H 265.104 1.43596 0.107805 0
M  V30 2763 H 267.057 3.27951 2.64624 0
M  V30 2764 H 265.781 2.04056 2.55007 0
M  V30 2765 H 264.44 3.52228 1.01641 0
M  V30 2766 H 264.088 3.62181 3.49047 0
M  V30 2767 H 263.788 5.204 2.7287 0
M  V30 2768 H 265.312 4.91962 3.6167 0
M  V30 2769 H 266.726 5.55059 1.43466 0
M  V30 2770 H 265.123 5.95348 0.753738 0
M  V30 2771 H 266.193 4.84735 -0.126377 0
M  V30 2772 N 267.536 -0.106894 1.57237 0
M  V30 2773 C 268.952 -0.46078 1.52804 0
M  V30 2774 C 269.152 -1.81184 0.881746 0
M  V30 2775 O 268.208 -2.48102 0.469224 0
M  V30 2776 C 269.521 -0.434127 2.9755 0
M  V30 2777 C 271.069 -0.516821 3.08704 0
M  V30 2778 C 271.544 -0.520436 4.55033 0
M  V30 2779 N 273.035 -0.58153 4.59535 0
M  V30 2780 C 273.77 -0.605973 5.70189 0
M  V30 2781 N 273.266 -0.587331 6.90306 0
M  V30 2782 N 275.059 -0.649895 5.5833 0
M  V30 2783 H 267.21 0.778203 1.9763 0
M  V30 2784 H 269.473 0.288403 0.903066 0
M  V30 2785 H 269.179 0.491197 3.48253 0
M  V30 2786 H 269.053 -1.25748 3.55622 0
M  V30 2787 H 271.44 -1.43256 2.57995 0
M  V30 2788 H 271.521 0.334449 2.53604 0
M  V30 2789 H 271.165 0.391313 5.0639 0
M  V30 2790 H 271.095 -1.38876 5.07958 0
M  V30 2791 H 273.586 -0.60161 3.73081 0
M  V30 2792 H 273.899 -0.60894 7.70397 0
M  V30 2793 H 272.244 -0.554564 6.92784 0
M  V30 2794 H 275.435 -0.661907 4.63397 0
M  V30 2795 H 275.608 -0.665476 6.44574 0
M  V30 2796 N 269.014 -1.53014 -0.377408 0
M  V30 2797 C 269.961 -1.78616 -1.46168 0
M  V30 2798 C 270.931 -0.629917 -1.53692 0
M  V30 2799 O 272.116 -0.870861 -1.69766 0
M  V30 2800 C 269.256 -1.97123 -2.8326 0
M  V30 2801 C 268.369 -3.24831 -2.84796 0
M  V30 2802 C 267.504 -3.33591 -4.13389 0
M  V30 2803 C 266.543 -4.55377 -4.09021 0
M  V30 2804 N 265.68 -4.61355 -5.29241 0
M  V30 2805 H 270.52 -2.71142 -1.23637 0
M  V30 2806 H 268.057 -1.34326 -0.599577 0
M  V30 2807 H 270.015 -2.05839 -3.62886 0
M  V30 2808 H 268.645 -1.07946 -3.04216 0
M  V30 2809 H 267.697 -3.25128 -1.97474 0
M  V30 2810 H 269.009 -4.14523 -2.77439 0
M  V30 2811 H 268.163 -3.41554 -5.01424 0
M  V30 2812 H 266.902 -2.41894 -4.23484 0
M  V30 2813 H 265.907 -4.47527 -3.19373 0
M  V30 2814 H 267.132 -5.48402 -4.00539 0
M  V30 2815 H 265.078 -3.72554 -5.39944 0
M  V30 2816 H 264.995 -5.44935 -5.24006 0
M  V30 2817 H 266.263 -4.73586 -6.19141 0
M  V30 2818 N 270.492 0.636531 -1.44174 0
M  V30 2819 C 271.908 0.954104 -1.27941 0
M  V30 2820 C 272.108 2.0039 -0.211248 0
M  V30 2821 O 271.164 2.49236 0.404695 0
M  V30 2822 C 272.477 1.4225 -2.64925 0
M  V30 2823 C 274.025 1.53827 -2.72592 0
M  V30 2824 C 274.5 2.04053 -4.10032 0
M  V30 2825 N 275.991 2.11331 -4.12182 0
M  V30 2826 C 276.726 2.51352 -5.15374 0
M  V30 2827 N 276.222 2.90549 -6.2893 0
M  V30 2828 N 278.015 2.51438 -5.02728 0
M  V30 2829 H 270.166 -0.0578386 -2.12321 0
M  V30 2830 H 272.429 0.0367406 -0.947288 0
M  V30 2831 H 272.135 0.725466 -3.44136 0
M  V30 2832 H 272.009 2.39451 -2.9145 0
M  V30 2833 H 274.396 2.22628 -1.93702 0
M  V30 2834 H 274.477 0.550154 -2.49814 0
M  V30 2835 H 274.121 1.35848 -4.89395 0
M  V30 2836 H 274.051 3.03726 -4.30184 0
M  V30 2837 H 276.542 1.83745 -3.30222 0
M  V30 2838 H 276.855 3.19884 -7.03487 0
M  V30 2839 H 275.2 2.88313 -6.32377 0
M  V30 2840 H 278.391 2.20203 -4.13072 0
M  V30 2841 H 278.564 2.82304 -5.83274 0
M  V30 2842 N 271.97 1.30982 0.876444 0
M  V30 2843 C 273.217 1.20296 1.62896 0
M  V30 2844 C 273.545 -0.240395 1.93009 0
M  V30 2845 O 272.8 -1.18733 1.55567 0
M  V30 2846 C 273.099 1.98572 2.9716 0
M  V30 2847 C 272.765 3.48125 2.86566 0
M  V30 2848 C 271.427 3.88905 2.83383 0
M  V30 2849 C 273.779 4.43322 2.74071 0
M  V30 2850 C 271.107 5.2316 2.65556 0
M  V30 2851 C 273.459 5.77695 2.57781 0
M  V30 2852 C 272.123 6.17704 2.52979 0
M  V30 2853 H 271.393 0.440193 0.59608 0
M  V30 2854 H 274.04 1.62177 1.01837 0
M  V30 2855 H 272.345 1.49352 3.62217 0
M  V30 2856 H 274.042 1.8769 3.54364 0
M  V30 2857 H 270.632 3.15723 2.89856 0
M  V30 2858 H 274.816 4.12752 2.75589 0
M  V30 2859 H 270.072 5.53241 2.60259 0
M  V30 2860 H 274.246 6.51091 2.47089 0
M  V30 2861 H 271.873 7.21678 2.38924 0
M  V30 2862 N 273.449 -1.08991 1.13837 0
M  V30 2863 C 274.86 -1.62746 0.914917 0
M  V30 2864 C 275.211 -1.88403 -0.547594 0
M  V30 2865 O 274.336 -1.63706 -1.41525 0
M  V30 2866 C 274.931 -2.95662 1.65437 0
M  V30 2867 C 273.49 -3.46225 1.47666 0
M  V30 2868 C 272.637 -2.20562 1.6807 0
M  V30 2869 H 275.588 -0.922946 1.29102 0
M  V30 2870 H 275.609 -3.63825 1.11407 0
M  V30 2871 H 275.121 -2.76956 2.71877 0
M  V30 2872 H 273.222 -3.70046 0.435478 0
M  V30 2873 H 273.335 -4.23368 2.24268 0
M  V30 2874 H 271.699 -2.29439 1.10589 0
M  V30 2875 H 272.482 -2.0437 2.7584 0
M  V30 2876 N 274.927 -0.932562 -1.27047 0
M  V30 2877 C 275.874 -0.434072 -2.26681 0
M  V30 2878 C 276.844 0.501639 -1.58344 0
M  V30 2879 O 278.029 0.419734 -1.86126 0
M  V30 2880 C 275.169 0.30261 -3.43771 0
M  V30 2881 C 274.282 -0.667774 -4.26808 0
M  V30 2882 C 273.417 0.0892393 -5.31125 0
M  V30 2883 C 272.456 -0.873532 -6.05835 0
M  V30 2884 N 271.593 -0.148832 -7.01942 0
M  V30 2885 H 276.433 -1.28868 -2.68695 0
M  V30 2886 H 273.97 -0.646713 -1.32121 0
M  V30 2887 H 275.928 0.746092 -4.10474 0
M  V30 2888 H 274.558 1.12142 -3.02695 0
M  V30 2889 H 273.61 -1.22978 -3.59973 0
M  V30 2890 H 274.922 -1.40337 -4.78651 0
M  V30 2891 H 274.076 0.592409 -6.03801 0
M  V30 2892 H 272.815 0.85777 -4.80097 0
M  V30 2893 H 271.82 -1.38791 -5.31994 0
M  V30 2894 H 273.045 -1.64193 -6.58952 0
M  V30 2895 H 270.991 0.601365 -6.53238 0
M  V30 2896 H 270.908 -0.82391 -7.51497 0
M  V30 2897 H 272.176 0.333527 -7.78786 0
M  V30 2898 N 276.405 1.4127 -0.698611 0
M  V30 2899 C 277.654 2.00408 -0.227949 0
M  V30 2900 C 277.967 1.55981 1.18023 0
M  V30 2901 O 279.173 2.07699 1.74852 0
M  V30 2902 C 277.629 3.58129 -0.356636 0
M  V30 2903 C 277.237 4.11536 -1.77037 0
M  V30 2904 C 278.981 4.24466 0.0540969 0
M  V30 2905 C 276.888 5.61701 -1.85055 0
M  V30 2906 H 275.818 0.749586 -0.0814657 0
M  V30 2907 H 278.469 1.61713 -0.867249 0
M  V30 2908 H 276.851 3.94442 0.350965 0
M  V30 2909 H 278.025 3.86636 -2.50698 0
M  V30 2910 H 276.34 3.57736 -2.13105 0
M  V30 2911 H 278.937 5.34698 0.0146723 0
M  V30 2912 H 279.28 4.01687 1.09332 0
M  V30 2913 H 279.813 3.93198 -0.603337 0
M  V30 2914 H 276.552 5.89312 -2.8704 0
M  V30 2915 H 276.072 5.88519 -1.15783 0
M  V30 2916 H 277.751 6.26524 -1.61484 0
M  V30 2917 N 277.883 0.443576 1.51229 0
M  V30 2918 C 279.129 -0.120975 2.02439 0
M  V30 2919 C 279.462 -1.41815 1.32674 0
M  V30 2920 O 278.737 -1.89373 0.443622 0
M  V30 2921 C 279.02 -0.333291 3.58554 0
M  V30 2922 C 278.873 0.982968 4.38928 0
M  V30 2923 C 280.192 -1.10028 4.26124 0
M  V30 2924 H 277.311 -0.0424923 0.735774 0
M  V30 2925 H 279.953 0.583794 1.80809 0
M  V30 2926 H 278.103 -0.933614 3.77115 0
M  V30 2927 H 279.775 1.61775 4.32003 0
M  V30 2928 H 278.018 1.58611 4.03763 0
M  V30 2929 H 278.689 0.788379 5.46341 0
M  V30 2930 H 281.165 -0.591711 4.11871 0
M  V30 2931 H 280.041 -1.21761 5.35225 0
M  V30 2932 H 280.302 -2.12996 3.87408 0
M  V30 2933 N 279.361 -1.56624 0.175154 0
M  V30 2934 C 280.609 -1.96609 -0.467885 0
M  V30 2935 C 280.93 -1.06238 -1.63519 0
M  V30 2936 O 280.2 -0.129523 -1.95471 0
M  V30 2937 H 278.78 -0.726008 -0.175845 0
M  V30 2938 H 281.442 -1.93195 0.257234 0
M  V30 2939 H 280.538 -3.00989 -0.825342 0
M  V30 2940 N 280.839 0.0985539 -1.57292 0
M  V30 2941 C 282.25 0.653457 -1.74891 0
M  V30 2942 C 282.601 1.7929 -0.796838 0
M  V30 2943 O 281.726 2.16385 0.0254886 0
M  V30 2944 C 282.321 1.19216 -3.17133 0
M  V30 2945 C 280.88 1.69316 -3.36168 0
M  V30 2946 C 280.027 0.601294 -2.70702 0
M  V30 2947 H 282.978 -0.127497 -1.58187 0
M  V30 2948 H 282.999 2.06154 -3.19814 0
M  V30 2949 H 282.511 0.362635 -3.86402 0
M  V30 2950 H 280.612 2.5468 -2.71972 0
M  V30 2951 H 280.725 1.78853 -4.44464 0
M  V30 2952 H 279.089 1.0399 -2.32504 0
M  V30 2953 H 279.872 -0.217592 -3.4261 0
M  V30 2954 N 282.317 1.53212 0.369288 0
M  V30 2955 C 283.733 1.42902 0.710712 0
M  V30 2956 C 283.933 0.565135 1.93413 0
M  V30 2957 O 282.989 0.0461484 2.52458 0
M  V30 2958 C 284.302 2.86042 0.927382 0
M  V30 2959 C 285.85 2.9565 1.02762 0
M  V30 2960 C 286.325 4.39843 1.27679 0
M  V30 2961 N 287.816 4.43256 1.34457 0
M  V30 2962 C 288.551 5.51929 1.55439 0
M  V30 2963 N 288.047 6.70655 1.73762 0
M  V30 2964 N 289.84 5.39502 1.57779 0
M  V30 2965 H 281.991 2.07888 -0.435457 0
M  V30 2966 H 284.254 0.938661 -0.132739 0
M  V30 2967 H 283.96 3.51557 0.100287 0
M  V30 2968 H 283.834 3.29472 1.83653 0
M  V30 2969 H 286.221 2.30291 1.84527 0
M  V30 2970 H 286.302 2.5562 0.0959504 0
M  V30 2971 H 285.946 5.05774 0.464175 0
M  V30 2972 H 285.876 4.77443 2.22162 0
M  V30 2973 H 288.367 3.5769 1.21926 0
M  V30 2974 H 288.68 7.49248 1.89335 0
M  V30 2975 H 287.025 6.73648 1.70948 0
M  V30 2976 H 290.216 4.45713 1.43029 0
M  V30 2977 H 290.389 6.2426 1.7379 0
M  V30 2978 N 283.795 -0.628877 1.44509 0
M  V30 2979 C 284.742 -1.74074 1.51549 0
M  V30 2980 C 285.712 -1.62084 0.363021 0
M  V30 2981 O 286.897 -1.81975 0.573567 0
M  V30 2982 C 284.037 -3.12328 1.46784 0
M  V30 2983 C 283.15 -3.35277 2.72422 0
M  V30 2984 C 282.285 -4.63515 2.59475 0
M  V30 2985 C 281.324 -4.7965 3.80266 0
M  V30 2986 N 280.461 -5.99168 3.65981 0
M  V30 2987 H 285.301 -1.67392 2.46544 0
M  V30 2988 H 282.838 -0.816527 1.22357 0
M  V30 2989 H 284.796 -3.92286 1.42012 0
M  V30 2990 H 283.426 -3.18018 0.553544 0
M  V30 2991 H 282.478 -2.49242 2.87372 0
M  V30 2992 H 283.79 -3.43078 3.62076 0
M  V30 2993 H 282.944 -5.51638 2.52548 0
M  V30 2994 H 281.683 -4.58076 1.67384 0
M  V30 2995 H 280.688 -3.89957 3.87574 0
M  V30 2996 H 281.913 -4.86902 4.73395 0
M  V30 2997 H 279.859 -5.94814 2.76644 0
M  V30 2998 H 279.776 -6.08035 4.49254 0
M  V30 2999 H 281.044 -6.89846 3.6295 0
M  V30 3000 N 285.273 -1.31445 -0.869486 0
M  V30 3001 C 286.55 -1.11795 -1.60503 0
M  V30 3002 C 286.93 0.327168 -2.08549 0
M  V30 3003 O 286.278 1.32135 -1.8642 0
M  V30 3004 C 286.488 -2.13258 -2.76265 0
M  V30 3005 C 287.836 -2.45805 -3.46215 0
M  V30 3006 O 288.86 -2.11688 -2.86473 0
M  V30 3007 O 287.719 -3.04228 -4.5399 0
M  V30 3008 H 284.813 -0.430421 -0.706163 0
M  V30 3009 H 287.359 -1.42925 -0.914907 0
M  V30 3010 H 286.131 -3.10461 -2.3818 0
M  V30 3011 H 285.754 -1.83035 -3.52964 0
M  V30 3012 N 286.751 1.08385 -1.14413 0
M  V30 3013 C 288.028 1.77429 -0.823297 0
M  V30 3014 C 288.408 1.9974 0.683163 0
M  V30 3015 O 287.756 1.60739 1.62405 0
M  V30 3016 C 287.966 3.09004 -1.62227 0
M  V30 3017 C 289.314 3.83532 -1.82177 0
M  V30 3018 O 290.338 3.18786 -1.58915 0
M  V30 3019 O 289.197 4.99792 -2.21067 0
M  V30 3020 H 286.291 0.769999 -0.301712 0
M  V30 3021 H 288.837 1.14846 -1.24934 0
M  V30 3022 H 287.609 2.88316 -2.64555 0
M  V30 3023 H 287.232 3.79316 -1.19187 0
M  V30 3024 N 288.23 0.939286 1.26551 0
M  V30 3025 C 289.479 0.581601 1.93133 0
M  V30 3026 C 289.792 -0.883224 1.74524 0
M  V30 3027 O 290.998 -1.3502 2.35546 0
M  V30 3028 C 289.454 0.989425 3.46032 0
M  V30 3029 C 289.062 2.47573 3.73379 0
M  V30 3030 C 290.806 0.703544 4.18629 0
M  V30 3031 C 288.713 2.82235 5.19709 0
M  V30 3032 H 287.643 0.213803 0.723052 0
M  V30 3033 H 290.294 1.14167 1.4366 0
M  V30 3034 H 288.676 0.357902 3.94379 0
M  V30 3035 H 289.85 3.15614 3.35744 0
M  V30 3036 H 288.165 2.73471 3.1401 0
M  V30 3037 H 290.762 0.938869 5.26393 0
M  V30 3038 H 291.105 -0.359639 4.14744 0
M  V30 3039 H 291.638 1.2947 3.76141 0
M  V30 3040 H 288.377 3.87509 5.28694 0
M  V30 3041 H 287.897 2.18854 5.58447 0
M  V30 3042 H 289.576 2.70599 5.87695 0
M  V30 3043 N 289.708 -1.40897 0.706093 0
M  V30 3044 C 290.948 -2.02916 0.245827 0
M  V30 3045 C 291.312 -1.54751 -1.13649 0
M  V30 3046 O 292.513 -2.08768 -1.69321 0
M  V30 3047 C 290.784 -3.56031 0.312537 0
M  V30 3048 S 292.343 -4.38741 -0.0721388 0
M  V30 3049 H 289.161 -0.704186 0.0982007 0
M  V30 3050 H 291.763 -1.72168 0.926207 0
M  V30 3051 H 290.467 -3.88579 1.32039 0
M  V30 3052 H 289.998 -3.91495 -0.386641 0
M  V30 3053 H 292.013 -4.78952 -1.29692 0
M  V30 3054 N 291.186 -0.45159 -1.50991 0
M  V30 3055 C 292.416 0.108177 -2.06317 0
M  V30 3056 C 292.824 1.35774 -1.31765 0
M  V30 3057 O 292.167 1.79838 -0.374694 0
M  V30 3058 C 292.229 0.481659 -3.56259 0
M  V30 3059 C 291.893 -0.663114 -4.52163 0
M  V30 3060 C 292.89 -1.53947 -4.96585 0
M  V30 3061 C 290.575 -0.8479 -4.95092 0
M  V30 3062 C 292.569 -2.58518 -5.82621 0
M  V30 3063 C 290.256 -1.89686 -5.80915 0
M  V30 3064 C 291.254 -2.76388 -6.24579 0
M  V30 3065 O 290.942 -3.79482 -7.08695 0
M  V30 3066 H 290.674 0.00499183 -0.675982 0
M  V30 3067 H 293.228 -0.633659 -1.95381 0
M  V30 3068 H 291.458 1.27641 -3.65027 0
M  V30 3069 H 293.147 0.974233 -3.94035 0
M  V30 3070 H 293.913 -1.4083 -4.64103 0
M  V30 3071 H 289.792 -0.18258 -4.60638 0
M  V30 3072 H 293.336 -3.26224 -6.16623 0
M  V30 3073 H 289.233 -2.02817 -6.12809 0
M  V30 3074 H 290.001 -3.76234 -7.26905 0
M  V30 3075 N 292.664 1.56529 -0.183458 0
M  V30 3076 C 293.627 2.17324 0.728223 0
M  V30 3077 C 294.627 1.12453 1.14939 0
M  V30 3078 O 295.817 1.37902 1.06437 0
M  V30 3079 C 292.949 2.76591 1.99274 0
M  V30 3080 H 294.142 2.99241 0.198772 0
M  V30 3081 H 291.695 1.5616 0.0661391 0
M  V30 3082 H 292.43 1.98441 2.56499 0
M  V30 3083 H 292.215 3.5335 1.69959 0
M  V30 3084 H 293.705 3.23311 2.6431 0
M  V30 3085 N 294.142 -0.090211 1.57342 0
M  V30 3086 C 295.37 -0.806224 1.90546 0
M  V30 3087 C 295.785 -1.72041 0.777644 0
M  V30 3088 O 295.142 -1.80778 -0.250103 0
M  V30 3089 C 295.193 -1.61546 3.23396 0
M  V30 3090 O 294.914 -0.738043 4.31839 0
M  V30 3091 C 296.415 -2.4341 3.70495 0
M  V30 3092 H 293.635 -0.230256 0.630257 0
M  V30 3093 H 296.179 -0.0659843 2.04394 0
M  V30 3094 H 294.334 -2.30816 3.11131 0
M  V30 3095 H 294.748 -1.29901 5.08159 0
M  V30 3096 H 296.222 -2.95676 4.66133 0
M  V30 3097 H 296.699 -3.22098 2.98579 0
M  V30 3098 H 297.305 -1.79331 3.85643 0
M  V30 3099 N 295.62 -1.53406 -0.361157 0
M  V30 3100 C 296.848 -1.73717 -1.12383 0
M  V30 3101 C 297.263 -0.468161 -1.82904 0
M  V30 3102 O 296.62 0.559198 -1.73722 0
M  V30 3103 C 296.671 -2.90558 -2.15078 0
M  V30 3104 O 296.392 -4.12549 -1.47428 0
M  V30 3105 C 297.893 -3.22777 -3.03858 0
M  V30 3106 H 295.113 -0.580896 -0.335858 0
M  V30 3107 H 297.657 -2.00167 -0.418728 0
M  V30 3108 H 295.812 -2.66489 -2.8118 0
M  V30 3109 H 296.226 -4.78009 -2.15887 0
M  V30 3110 H 297.7 -4.07927 -3.71887 0
M  V30 3111 H 298.177 -2.38329 -3.68912 0
M  V30 3112 H 298.783 -3.48787 -2.43367 0
M  V30 3113 N 297.098 0.621204 -1.44841 0
M  V30 3114 C 298.046 1.75385 -1.52784 0
M  V30 3115 C 299.04 1.64639 -0.398779 0
M  V30 3116 O 300.246 1.70598 -0.574137 0
M  V30 3117 H 296.621 0.579193 -0.479625 0
M  V30 3118 H 298.592 1.6581 -2.48092 0
M  V30 3119 C 297.341 3.13742 -1.4987 0
M  V30 3120 H 296.664 3.22663 -2.36069 0
M  V30 3121 H 298.104 3.92861 -1.59487 0
M  V30 3122 C 296.563 3.36175 -0.220973 0
M  V30 3123 O 297.093 3.95469 0.704782 0
M  V30 3124 N 295.299 2.90348 -0.120963 0
M  V30 3125 H 294.846 2.42278 -0.875162 0
M  V30 3126 H 294.804 3.05732 0.733168 0
M  V30 3127 N 298.576 1.31904 0.862503 0
M  V30 3128 C 299.992 1.10724 1.14945 0
M  V30 3129 C 300.192 -0.117421 2.01158 0
M  V30 3130 O 299.248 -0.804595 2.39338 0
M  V30 3131 C 300.561 2.38267 1.83437 0
M  V30 3132 C 302.109 2.43949 1.96106 0
M  V30 3133 C 302.584 3.71394 2.68013 0
M  V30 3134 N 304.075 3.72331 2.75543 0
M  V30 3135 C 304.81 4.67641 3.31812 0
M  V30 3136 N 304.306 5.73313 3.88953 0
M  V30 3137 N 306.099 4.5515 3.29841 0
M  V30 3138 H 298.25 2.10436 0.288191 0
M  V30 3139 H 300.513 0.928705 0.190292 0
M  V30 3140 H 300.219 3.27759 1.27542 0
M  V30 3141 H 300.093 2.48633 2.83657 0
M  V30 3142 H 302.48 1.54922 2.51164 0
M  V30 3143 H 302.561 2.37543 0.949059 0
M  V30 3144 H 302.205 4.60791 2.13621 0
M  V30 3145 H 302.135 3.75069 3.69636 0
M  V30 3146 H 304.626 2.95947 2.34997 0
M  V30 3147 H 304.939 6.42107 4.30022 0
M  V30 3148 H 303.284 5.77077 3.87308 0
M  V30 3149 H 306.475 3.71766 2.84443 0
M  V30 3150 H 306.648 5.29604 3.73394 0
M  V30 3151 N 300.054 -1.07777 1.14986 0
M  V30 3152 C 300.986 -2.14769 0.800436 0
M  V30 3153 C 301.999 -1.61739 -0.185595 0
M  V30 3154 O 303.188 -1.78462 0.0370358 0
M  V30 3155 C 300.288 -3.38481 0.168533 0
M  V30 3156 C 299.461 -4.20876 1.1909 0
M  V30 3157 C 298.52 -5.22976 0.581575 0
M  V30 3158 O 297.546 -5.55388 1.24633 0
M  V30 3159 N 298.748 -5.76976 -0.638706 0
M  V30 3160 H 301.513 -2.45348 1.72118 0
M  V30 3161 H 299.074 -1.23645 1.04515 0
M  V30 3162 H 301.066 -4.03916 -0.251764 0
M  V30 3163 H 299.636 -3.05651 -0.655467 0
M  V30 3164 H 298.856 -3.51322 1.78791 0
M  V30 3165 H 300.144 -4.7274 1.88133 0
M  V30 3166 H 299.542 -5.52886 -1.19723 0
M  V30 3167 H 298.099 -6.44061 -1.00142 0
M  V30 3168 N 301.532 -0.945985 -1.26051 0
M  V30 3169 C 302.442 -0.465633 -2.29933 0
M  V30 3170 C 303.458 0.462761 -1.67733 0
M  V30 3171 O 304.634 0.341118 -1.9849 0
M  V30 3172 C 301.699 0.256994 -3.45746 0
M  V30 3173 C 300.76 -0.708549 -4.23412 0
M  V30 3174 C 299.993 -0.0203135 -5.33696 0
M  V30 3175 O 300.216 1.19571 -5.57726 0
M  V30 3176 O 299.15 -0.701459 -5.97799 0
M  V30 3177 H 302.976 -1.32866 -2.73094 0
M  V30 3178 H 300.561 -0.712071 -1.31339 0
M  V30 3179 H 302.443 0.663852 -4.16138 0
M  V30 3180 H 301.118 1.09533 -3.04605 0
M  V30 3181 H 300.025 -1.16545 -3.55483 0
M  V30 3182 H 301.358 -1.51465 -4.68315 0
M  V30 3183 N 303.011 1.40521 -0.713556 0
M  V30 3184 C 303.974 2.29098 -0.0684347 0
M  V30 3185 C 304.974 1.45268 0.689472 0
M  V30 3186 O 306.164 1.66205 0.521677 0
M  V30 3187 C 303.296 3.28446 0.913024 0
M  V30 3188 H 304.489 2.87645 -0.84855 0
M  V30 3189 H 302.042 1.48809 -0.47809 0
M  V30 3190 H 302.777 2.74913 1.72027 0
M  V30 3191 H 302.562 3.90327 0.372472 0
M  V30 3192 H 304.052 3.94777 1.36165 0
M  V30 3193 N 304.489 0.459591 1.5075 0
M  V30 3194 C 305.735 -0.0994966 2.02556 0
M  V30 3195 C 306.068 -1.40399 1.3417 0
M  V30 3196 O 305.343 -1.88892 0.463683 0
M  V30 3197 C 305.626 -0.295242 3.58888 0
M  V30 3198 C 305.479 1.02947 4.37861 0
M  V30 3199 C 306.798 -1.05502 4.27267 0
M  V30 3200 H 303.917 -0.034686 0.736183 0
M  V30 3201 H 306.559 0.602938 1.8018 0
M  V30 3202 H 304.709 -0.893563 3.78084 0
M  V30 3203 H 306.381 1.66348 4.30263 0
M  V30 3204 H 304.624 1.62885 4.02058 0
M  V30 3205 H 305.295 0.846281 5.45474 0
M  V30 3206 H 307.771 -0.547993 4.12476 0
M  V30 3207 H 306.647 -1.16077 5.36486 0
M  V30 3208 H 306.908 -2.08875 3.89645 0
M  V30 3209 N 305.967 -1.56429 0.191757 0
M  V30 3210 C 307.383 -1.58754 -0.164137 0
M  V30 3211 C 307.583 -1.20782 -1.61288 0
M  V30 3212 O 306.639 -0.928999 -2.34789 0
M  V30 3213 C 307.952 -3.00396 0.135195 0
M  V30 3214 C 309.5 -3.1291 0.0750351 0
M  V30 3215 C 309.975 -4.56679 0.347632 0
M  V30 3216 N 311.466 -4.62252 0.296131 0
M  V30 3217 C 312.201 -5.71379 0.480948 0
M  V30 3218 N 311.697 -6.88986 0.725933 0
M  V30 3219 N 313.49 -5.60563 0.415435 0
M  V30 3220 H 305.641 -1.79393 1.13718 0
M  V30 3221 H 307.904 -0.832414 0.453643 0
M  V30 3222 H 307.61 -3.32726 1.13958 0
M  V30 3223 H 307.484 -3.72963 -0.563773 0
M  V30 3224 H 309.871 -2.80394 -0.919948 0
M  V30 3225 H 309.952 -2.42736 0.807029 0
M  V30 3226 H 309.596 -4.89907 1.33992 0
M  V30 3227 H 309.526 -5.25039 -0.405212 0
M  V30 3228 H 312.017 -3.7773 0.113259 0
M  V30 3229 H 312.33 -7.68046 0.855857 0
M  V30 3230 H 310.675 -6.90801 0.762788 0
M  V30 3231 H 313.866 -4.67561 0.224486 0
M  V30 3232 H 314.039 -6.45551 0.562889 0
M  V30 3233 N 307.445 0.0818655 -1.57387 0
M  V30 3234 C 308.408 1.08265 -2.02018 0
M  V30 3235 C 309.408 1.32183 -0.915664 0
M  V30 3236 O 310.598 1.28073 -1.18081 0
M  V30 3237 C 307.73 2.42871 -2.39221 0
M  V30 3238 H 308.923 0.698204 -2.91659 0
M  V30 3239 H 306.476 0.327303 -1.52835 0
M  V30 3240 H 307.211 2.86167 -1.52575 0
M  V30 3241 H 306.996 2.26855 -3.19811 0
M  V30 3242 H 308.486 3.14826 -2.74362 0
M  V30 3243 N 308.923 1.53595 0.353017 0
M  V30 3244 C 309.853 1.83902 1.43883 0
M  V30 3245 C 310.834 0.693421 1.55324 0
M  V30 3246 O 312.019 0.944452 1.69687 0
M  V30 3247 C 309.149 2.04016 2.8106 0
M  V30 3248 C 308.103 3.19814 2.84434 0
M  V30 3249 C 307.429 3.25244 4.24406 0
M  V30 3250 C 308.729 4.58133 2.50822 0
M  V30 3251 H 310.423 2.74835 1.1877 0
M  V30 3252 H 307.969 1.32242 0.569917 0
M  V30 3253 H 309.922 2.238 3.57059 0
M  V30 3254 H 308.646 1.09804 3.07588 0
M  V30 3255 H 307.305 2.9987 2.10887 0
M  V30 3256 H 306.953 2.28646 4.48029 0
M  V30 3257 H 306.653 4.03054 4.27576 0
M  V30 3258 H 308.177 3.47228 5.0226 0
M  V30 3259 H 309.591 4.77995 3.16534 0
M  V30 3260 H 307.988 5.38276 2.6529 0
M  V30 3261 H 309.058 4.62387 1.46034 0
M  V30 3262 N 310.401 -0.613514 1.45168 0
M  V30 3263 C 311.364 -1.7065 1.53007 0
M  V30 3264 C 312.364 -1.5548 0.410184 0
M  V30 3265 O 313.554 -1.60656 0.673455 0
M  V30 3266 C 310.686 -3.09875 1.42093 0
M  V30 3267 H 311.879 -1.65068 2.50385 0
M  V30 3268 H 309.432 -0.828728 1.32521 0
M  V30 3269 H 310.167 -3.21039 0.458769 0
M  V30 3270 H 309.952 -3.22293 2.23315 0
M  V30 3271 H 311.442 -3.895 1.50598 0
M  V30 3272 N 311.879 -1.3236 -0.855495 0
M  V30 3273 C 312.789 -1.23221 -1.99634 0
M  V30 3274 C 313.805 -0.145983 -1.73387 0
M  V30 3275 O 314.981 -0.366502 -1.98037 0
M  V30 3276 C 312.046 -0.954782 -3.33294 0
M  V30 3277 C 311.107 -2.12937 -3.72769 0
M  V30 3278 C 310.34 -1.86508 -5.00051 0
M  V30 3279 O 310.563 -0.807231 -5.64659 0
M  V30 3280 O 309.497 -2.72591 -5.36636 0
M  V30 3281 H 313.323 -2.19126 -2.1028 0
M  V30 3282 H 310.908 -1.12241 -0.986018 0
M  V30 3283 H 312.79 -0.816519 -4.13414 0
M  V30 3284 H 311.465 -0.0258854 -3.2369 0
M  V30 3285 H 310.372 -2.3231 -2.93228 0
M  V30 3286 H 311.705 -3.04102 -3.87018 0
M  V30 3287 N 313.357 1.07166 -1.15556 0
M  V30 3288 C 314.289 2.14341 -0.811815 0
M  V30 3289 C 315.302 1.61835 0.177015 0
M  V30 3290 O 316.491 1.78439 -0.0464996 0
M  V30 3291 C 313.591 3.38387 -0.186481 0
M  V30 3292 C 312.764 4.20238 -1.21321 0
M  V30 3293 C 311.823 5.2266 -0.609302 0
M  V30 3294 O 310.849 5.54719 -1.27576 0
M  V30 3295 N 312.051 5.77306 0.608099 0
M  V30 3296 H 314.816 2.44431 -1.73417 0
M  V30 3297 H 312.377 1.23089 -1.0517 0
M  V30 3298 H 314.369 4.04044 0.230339 0
M  V30 3299 H 312.939 3.05994 0.639249 0
M  V30 3300 H 312.159 3.50369 -1.80652 0
M  V30 3301 H 313.447 4.71736 -1.90638 0
M  V30 3302 H 312.845 5.53513 1.1679 0
M  V30 3303 H 311.402 6.44583 0.96725 0
M  V30 3304 N 314.835 0.952656 1.25548 0
M  V30 3305 C 315.798 0.475794 2.24207 0
M  V30 3306 C 316.798 -0.419428 1.55234 0
M  V30 3307 O 317.988 -0.216994 1.72843 0
M  V30 3308 C 315.12 -0.312814 3.39462 0
M  V30 3309 H 316.313 1.34779 2.67908 0
M  V30 3310 H 313.866 0.735739 1.37901 0
M  V30 3311 H 314.601 -1.20257 3.01179 0
M  V30 3312 H 314.386 0.329404 3.90714 0
M  V30 3313 H 315.876 -0.635986 4.12729 0
M  V30 3314 N 316.313 -1.40141 0.720998 0
M  V30 3315 C 317.223 -2.34486 0.0731031 0
M  V30 3316 C 318.239 -1.57587 -0.737723 0
M  V30 3317 O 319.415 -1.89949 -0.669429 0
M  V30 3318 C 316.48 -3.36528 -0.833656 0
M  V30 3319 C 315.541 -4.29298 -0.0121673 0
M  V30 3320 C 314.774 -5.26466 -0.875742 0
M  V30 3321 O 314.997 -5.29745 -2.11485 0
M  V30 3322 O 313.931 -6.01092 -0.31185 0
M  V30 3323 H 317.757 -2.9152 0.851444 0
M  V30 3324 H 315.342 -1.41427 0.481527 0
M  V30 3325 H 317.224 -3.99093 -1.35289 0
M  V30 3326 H 315.899 -2.81899 -1.59105 0
M  V30 3327 H 314.806 -3.70001 0.552262 0
M  V30 3328 H 316.139 -4.87094 0.707129 0
M  V30 3329 N 317.792 -0.46758 -1.50504 0
M  V30 3330 C 319.038 0.0887532 -2.02606 0
M  V30 3331 C 319.371 1.39686 -1.34913 0
M  V30 3332 O 318.646 1.88644 -0.473694 0
M  V30 3333 C 318.929 0.276206 -3.59039 0
M  V30 3334 C 318.782 -1.05267 -4.37309 0
M  V30 3335 C 320.101 1.03235 -4.27821 0
M  V30 3336 H 317.22 0.0307814 -0.736357 0
M  V30 3337 H 319.862 -0.612485 -1.79857 0
M  V30 3338 H 318.012 0.8735 -3.78553 0
M  V30 3339 H 319.684 -1.68628 -4.29374 0
M  V30 3340 H 317.927 -1.65015 -4.01189 0
M  V30 3341 H 318.598 -0.875197 -5.45018 0
M  V30 3342 H 321.074 0.526111 -4.12761 0
M  V30 3343 H 319.95 1.1323 -5.37094 0
M  V30 3344 H 320.211 2.06806 -3.90748 0
M  V30 3345 N 319.27 1.56325 -0.20005 0
M  V30 3346 C 320.516 1.98012 0.438059 0
M  V30 3347 C 320.849 1.08702 1.60927 0
M  V30 3348 O 320.124 0.140064 1.93995 0
M  V30 3349 C 320.407 3.48841 0.893419 0
M  V30 3350 C 320.26 4.48928 -0.279947 0
M  V30 3351 C 321.579 4.03498 1.75719 0
M  V30 3352 H 318.698 0.719918 0.157757 0
M  V30 3353 H 321.34 1.87743 -0.291968 0
M  V30 3354 H 319.49 3.57723 1.51547 0
M  V30 3355 H 321.162 4.52079 -0.91772 0
M  V30 3356 H 319.405 4.23694 -0.930919 0
M  V30 3357 H 320.076 5.5194 0.0812601 0
M  V30 3358 H 322.552 3.97427 1.23253 0
M  V30 3359 H 321.428 5.09393 2.04476 0
M  V30 3360 H 321.689 3.4906 2.71311 0
M  V30 3361 N 320.748 -0.0735177 1.57428 0
M  V30 3362 C 321.678 -1.0879 2.06608 0
M  V30 3363 C 322.659 -1.40473 0.959237 0
M  V30 3364 O 323.844 -1.5013 1.23185 0
M  V30 3365 C 320.974 -2.40183 2.50857 0
M  V30 3366 C 319.928 -2.22858 3.65402 0
M  V30 3367 C 319.254 -3.59619 3.957 0
M  V30 3368 C 320.554 -1.65123 4.95511 0
M  V30 3369 H 322.248 -0.678673 2.91607 0
M  V30 3370 H 319.794 -0.325013 1.40284 0
M  V30 3371 H 321.747 -3.11437 2.83874 0
M  V30 3372 H 320.471 -2.83083 1.62885 0
M  V30 3373 H 319.13 -1.54045 3.32664 0
M  V30 3374 H 318.778 -4.00086 3.04861 0
M  V30 3375 H 318.478 -3.48866 4.72828 0
M  V30 3376 H 320.002 -4.32306 4.31212 0
M  V30 3377 H 321.416 -2.26241 5.26771 0
M  V30 3378 H 319.813 -1.65071 5.7695 0
M  V30 3379 H 320.883 -0.612559 4.81015 0
M  V30 3380 N 322.226 -1.5378 -0.344866 0
M  V30 3381 C 323.472 -1.71216 -1.08687 0
M  V30 3382 C 323.805 -0.473281 -1.88345 0
M  V30 3383 O 323.08 0.52968 -1.87149 0
M  V30 3384 C 323.363 -2.97486 -2.02914 0
M  V30 3385 C 323.216 -4.31579 -1.26727 0
M  V30 3386 C 324.535 -3.19422 -3.0275 0
M  V30 3387 H 321.654 -0.62301 -0.393735 0
M  V30 3388 H 324.296 -1.8645 -0.365563 0
M  V30 3389 H 322.446 -2.84629 -2.64421 0
M  V30 3390 H 324.118 -4.56284 -0.67845 0
M  V30 3391 H 322.361 -4.30049 -0.569273 0
M  V30 3392 H 323.032 -5.16106 -1.95803 0
M  V30 3393 H 325.508 -3.316 -2.51357 0
M  V30 3394 H 324.384 -4.09169 -3.65885 0
M  V30 3395 H 324.645 -2.35656 -3.74057 0
M  V30 3396 N 323.704 0.605807 -1.45491 0
M  V30 3397 C 324.95 1.36679 -1.49823 0
M  V30 3398 C 325.283 1.93693 -0.140175 0
M  V30 3399 O 324.558 1.75158 0.845581 0
M  V30 3400 C 324.841 2.51337 -2.57879 0
M  V30 3401 C 324.694 1.99508 -4.03134 0
M  V30 3402 C 326.013 3.53463 -2.62205 0
M  V30 3403 H 323.132 0.495617 -0.545466 0
M  V30 3404 H 325.774 0.682732 -1.7731 0
M  V30 3405 H 323.924 3.09691 -2.34571 0
M  V30 3406 H 325.596 1.45789 -4.37656 0
M  V30 3407 H 323.839 1.30496 -4.13707 0
M  V30 3408 H 324.51 2.82169 -4.74431 0
M  V30 3409 H 326.986 3.04953 -2.83095 0
M  V30 3410 H 325.862 4.31178 -3.39672 0
M  V30 3411 H 326.123 4.09197 -1.67363 0
M  V30 3412 N 325.182 1.32811 0.848464 0
M  V30 3413 C 326.43 1.23479 1.59991 0
M  V30 3414 C 326.751 -0.201853 1.93952 0
M  V30 3415 O 326.021 -1.12818 1.60153 0
M  V30 3416 H 324.601 0.454034 0.593179 0
M  V30 3417 H 327.263 1.66412 1.01455 0
M  V30 3418 H 326.359 1.82178 2.53412 0
M  V30 3419 N 326.66 -1.06551 1.16123 0
M  V30 3420 C 327.885 -1.83544 0.965735 0
M  V30 3421 C 328.31 -1.81843 -0.481102 0
M  V30 3422 O 327.668 -1.21732 -1.34354 0
M  V30 3423 C 327.716 -3.28169 1.49457 0
M  V30 3424 O 326.82 -4.0643 0.699157 0
M  V30 3425 H 326.161 -0.568026 0.343864 0
M  V30 3426 H 328.691 -1.34362 1.54299 0
M  V30 3427 H 328.701 -3.78992 1.51092 0
M  V30 3428 H 327.376 -3.28722 2.54784 0
M  V30 3429 H 325.953 -3.65216 0.7531 0
M  V30 3430 N 328.138 -0.959301 -1.25041 0
M  V30 3431 C 329.085 -0.482057 -2.2571 0
M  V30 3432 C 330.055 0.467939 -1.59372 0
M  V30 3433 O 331.24 0.380159 -1.86974 0
M  V30 3434 C 328.38 0.229623 -3.44335 0
M  V30 3435 C 327.493 -0.758156 -4.25295 0
M  V30 3436 C 326.628 -0.0234403 -5.31195 0
M  V30 3437 C 325.667 -1.00184 -6.03846 0
M  V30 3438 N 324.804 -0.29769 -7.01469 0
M  V30 3439 H 329.644 -1.34538 -2.65901 0
M  V30 3440 H 327.181 -0.674592 -1.3072 0
M  V30 3441 H 329.139 0.658856 -4.11965 0
M  V30 3442 H 327.769 1.05696 -3.05005 0
M  V30 3443 H 326.821 -1.30586 -3.57284 0
M  V30 3444 H 328.133 -1.50458 -4.75567 0
M  V30 3445 H 327.287 0.464201 -6.04922 0
M  V30 3446 H 326.026 0.755741 -4.81809 0
M  V30 3447 H 325.031 -1.50044 -5.2893 0
M  V30 3448 H 326.256 -1.78133 -6.55321 0
M  V30 3449 H 324.202 0.462668 -6.54366 0
M  V30 3450 H 324.119 -0.983128 -7.4958 0
M  V30 3451 H 325.387 0.16826 -7.79318 0
M  V30 3452 N 329.616 1.39756 -0.72842 0
M  V30 3453 C 330.564 2.32485 -0.0731849 0
M  V30 3454 C 331.558 1.52717 0.733063 0
M  V30 3455 O 332.764 1.68428 0.634988 0
M  V30 3456 H 329.139 0.751984 -0.00486469 0
M  V30 3457 H 331.11 2.85382 -0.871761 0
M  V30 3458 C 329.859 3.37773 0.824908 0
M  V30 3459 H 329.182 3.99227 0.213915 0
M  V30 3460 H 330.622 4.05121 1.25111 0
M  V30 3461 C 329.081 2.74287 1.95622 0
M  V30 3462 O 329.611 2.61618 3.04826 0
M  V30 3463 N 327.817 2.32475 1.74367 0
M  V30 3464 H 327.364 2.4298 0.855494 0
M  V30 3465 H 327.322 1.90337 2.50238 0
M  V30 3466 N 331.094 0.475555 1.50254 0
M  V30 3467 C 332.319 -0.0777042 2.07254 0
M  V30 3468 C 332.744 -1.3235 1.3366 0
M  V30 3469 O 332.102 -1.77152 0.385597 0
M  V30 3470 C 332.15 -0.340169 3.58992 0
M  V30 3471 O 331.254 -1.41982 3.87188 0
M  V30 3472 H 330.595 0.0149556 0.663832 0
M  V30 3473 H 333.125 0.667878 1.93392 0
M  V30 3474 H 333.135 -0.579332 4.03866 0
M  V30 3475 H 331.81 0.570167 4.11973 0
M  V30 3476 H 330.387 -1.16762 3.54148 0
M  V30 3477 N 332.573 -1.56217 0.208337 0
M  V30 3478 C 333.798 -2.02782 -0.435222 0
M  V30 3479 C 334.223 -1.08738 -1.53485 0
M  V30 3480 O 333.581 -0.0731855 -1.81152 0
M  V30 3481 C 333.629 -3.47687 -0.956335 0
M  V30 3482 O 332.733 -3.56773 -2.06849 0
M  V30 3483 H 332.074 -0.656403 -0.100158 0
M  V30 3484 H 334.604 -2.02033 0.3231 0
M  V30 3485 H 334.614 -3.87745 -1.26955 0
M  V30 3486 H 333.289 -4.15624 -0.15143 0
M  V30 3487 H 331.866 -3.28597 -1.76292 0
M  V30 3488 N 334.051 0.0651679 -1.57465 0
M  V30 3489 C 334.999 1.09542 -2.05191 0
M  V30 3490 C 335.993 1.39675 -0.958509 0
M  V30 3491 O 337.199 1.39003 -1.14359 0
M  V30 3492 H 333.574 0.370623 -0.654326 0
M  V30 3493 H 335.545 0.666802 -2.90854 0
M  V30 3494 C 334.294 2.39881 -2.51699 0
M  V30 3495 H 333.617 2.17547 -3.3543 0
M  V30 3496 H 335.057 3.104 -2.88839 0
M  V30 3497 C 333.516 3.0631 -1.40271 0
M  V30 3498 O 334.046 3.94664 -0.748523 0
M  V30 3499 N 332.252 2.67041 -1.14618 0
M  V30 3500 H 331.799 1.95281 -1.67997 0
M  V30 3501 H 331.757 3.1181 -0.402688 0
M  V30 3502 N 335.529 1.53961 0.336706 0
M  V30 3503 C 336.754 1.75797 1.10046 0
M  V30 3504 C 337.179 0.498985 1.81361 0
M  V30 3505 O 336.537 -0.548769 1.72795 0
M  V30 3506 C 336.585 2.94257 2.08436 0
M  V30 3507 O 335.689 2.64883 3.16087 0
M  V30 3508 H 335.03 0.582936 0.317934 0
M  V30 3509 H 337.56 2.00945 0.38501 0
M  V30 3510 H 337.57 3.21237 2.51537 0
M  V30 3511 H 336.245 3.85564 1.55927 0
M  V30 3512 H 334.822 2.48812 2.77753 0
M  V30 3513 N 337.007 -0.598083 1.45811 0
M  V30 3514 C 337.955 -1.72932 1.55555 0
M  V30 3515 C 338.949 -1.63984 0.424921 0
M  V30 3516 O 340.155 -1.69663 0.601205 0
M  V30 3517 H 336.53 -0.571489 0.488779 0
M  V30 3518 H 338.501 -1.61842 2.50699 0
M  V30 3519 C 337.25 -3.11318 1.54843 0
M  V30 3520 H 336.573 -3.18867 2.41172 0
M  V30 3521 H 338.013 -3.90274 1.65717 0
M  V30 3522 C 336.472 -3.3578 0.274427 0
M  V30 3523 O 337.002 -3.9654 -0.641778 0
M  V30 3524 N 335.208 -2.90119 0.167139 0
M  V30 3525 H 334.755 -2.40855 0.913596 0
M  V30 3526 H 334.713 -3.0686 -0.684435 0
M  V30 3527 N 338.485 -1.33259 -0.841409 0
M  V30 3528 C 339.901 -1.12538 -1.13169 0
M  V30 3529 C 340.101 0.0854037 -2.01319 0
M  V30 3530 O 339.157 0.766417 -2.40587 0
M  V30 3531 C 340.47 -2.41156 -1.79623 0
M  V30 3532 C 342.018 -2.47038 -1.922 0
M  V30 3533 C 342.493 -3.7561 -2.6207 0
M  V30 3534 N 343.984 -3.76667 -2.69585 0
M  V30 3535 C 344.719 -4.72861 -3.2433 0
M  V30 3536 N 344.215 -5.79428 -3.79783 0
M  V30 3537 N 346.008 -4.6034 -3.22558 0
M  V30 3538 H 338.159 -2.10868 -0.254676 0
M  V30 3539 H 340.422 -0.931615 -0.175493 0
M  V30 3540 H 340.128 -3.29747 -1.22311 0
M  V30 3541 H 340.002 -2.53114 -2.79666 0
M  V30 3542 H 342.389 -1.58898 -2.48667 0
M  V30 3543 H 342.47 -2.39022 -0.911148 0
M  V30 3544 H 342.114 -4.64131 -2.06263 0
M  V30 3545 H 342.044 -3.80902 -3.63622 0
M  V30 3546 H 344.535 -2.99648 -2.30259 0
M  V30 3547 H 344.848 -6.48867 -4.19752 0
M  V30 3548 H 343.193 -5.83166 -3.78078 0
M  V30 3549 H 346.384 -3.76244 -2.78492 0
M  V30 3550 H 346.557 -5.35478 -3.64921 0
M  V30 3551 N 339.963 1.05934 -1.16686 0
M  V30 3552 C 340.893 2.1546 -0.899949 0
M  V30 3553 C 341.874 1.69391 0.155154 0
M  V30 3554 O 343.059 1.94199 0.00648693 0
M  V30 3555 C 340.189 3.44939 -0.404241 0
M  V30 3556 C 339.143 4.04536 -1.39767 0
M  V30 3557 C 338.469 5.29268 -0.760216 0
M  V30 3558 C 339.769 4.42893 -2.76845 0
M  V30 3559 H 341.463 2.38046 -1.81588 0
M  V30 3560 H 339.009 1.14404 -0.874514 0
M  V30 3561 H 340.962 4.20901 -0.204971 0
M  V30 3562 H 339.686 3.21983 0.547206 0
M  V30 3563 H 338.345 3.30635 -1.58355 0
M  V30 3564 H 337.993 5.02611 0.197831 0
M  V30 3565 H 337.693 5.70101 -1.42332 0
M  V30 3566 H 339.217 6.07924 -0.57105 0
M  V30 3567 H 340.631 5.09921 -2.62019 0
M  V30 3568 H 339.028 4.94721 -3.39663 0
M  V30 3569 H 340.098 3.53584 -3.31823 0
M  V30 3570 N 341.441 0.965919 1.2453 0
M  V30 3571 C 342.404 0.499547 2.2369 0
M  V30 3572 C 343.404 -0.40294 1.5567 0
M  V30 3573 O 344.594 -0.19865 1.73064 0
M  V30 3574 C 341.726 -0.276792 3.39774 0
M  V30 3575 H 342.919 1.37613 2.66463 0
M  V30 3576 H 340.472 0.750324 1.37112 0
M  V30 3577 H 341.207 -1.17055 3.02438 0
M  V30 3578 H 340.992 0.370826 3.90343 0
M  V30 3579 H 342.482 -0.592175 4.1338 0
M  V30 3580 N 342.919 -1.39368 0.735821 0
M  V30 3581 C 343.829 -2.34395 0.0979693 0
M  V30 3582 C 344.845 -1.58361 -0.720968 0
M  V30 3583 O 346.021 -1.90648 -0.649245 0
M  V30 3584 C 343.086 -3.37393 -0.797916 0
M  V30 3585 C 342.147 -4.29287 0.0333662 0
M  V30 3586 C 341.38 -5.27365 -0.819854 0
M  V30 3587 O 341.603 -5.31959 -2.05855 0
M  V30 3588 O 340.537 -6.01389 -0.248079 0
M  V30 3589 H 344.363 -2.90601 0.882315 0
M  V30 3590 H 341.948 -1.40909 0.4965 0
M  V30 3591 H 343.83 -4.00505 -1.31048 0
M  V30 3592 H 342.505 -2.83571 -1.56106 0
M  V30 3593 H 341.412 -3.69395 0.591475 0
M  V30 3594 H 342.745 -4.86317 0.758752 0
M  V30 3595 N 344.397 -0.483516 -1.5 0
M  V30 3596 C 345.327 0.293829 -2.31644 0
M  V30 3597 C 346.308 0.978864 -1.39112 0
M  V30 3598 O 347.493 0.973644 -1.68029 0
M  V30 3599 C 344.623 1.36897 -3.19181 0
M  V30 3600 C 343.577 0.804833 -4.20365 0
M  V30 3601 C 342.903 1.9792 -4.96721 0
M  V30 3602 C 344.203 -0.192313 -5.21946 0
M  V30 3603 H 345.897 -0.387616 -2.9688 0
M  V30 3604 H 343.443 -0.187856 -1.42769 0
M  V30 3605 H 345.396 1.92037 -3.751 0
M  V30 3606 H 344.12 2.07936 -2.51853 0
M  V30 3607 H 342.779 0.275319 -3.65565 0
M  V30 3608 H 342.427 2.67686 -4.25856 0
M  V30 3609 H 342.127 1.60789 -5.65173 0
M  V30 3610 H 343.651 2.53526 -5.55479 0
M  V30 3611 H 345.065 0.270333 -5.72662 0
M  V30 3612 H 343.462 -0.478543 -5.98189 0
M  V30 3613 H 344.532 -1.11409 -4.71928 0
M  V30 3614 N 345.875 1.56104 -0.216619 0
M  V30 3615 C 346.838 2.18819 0.681962 0
M  V30 3616 C 347.838 1.14866 1.12528 0
M  V30 3617 O 349.028 1.40128 1.03488 0
M  V30 3618 C 346.16 2.80756 1.93362 0
M  V30 3619 H 347.353 2.99595 0.135254 0
M  V30 3620 H 344.906 1.56265 0.0330003 0
M  V30 3621 H 345.641 2.03837 2.52232 0
M  V30 3622 H 345.426 3.56876 1.62426 0
M  V30 3623 H 346.916 3.28844 2.57393 0
M  V30 3624 N 347.353 -0.0568162 1.57498 0
M  V30 3625 C 348.285 -1.09292 2.01464 0
M  V30 3626 C 349.298 -1.34112 0.922913 0
M  V30 3627 O 350.487 -1.32089 1.20062 0
M  V30 3628 C 347.587 -2.44068 2.35125 0
M  V30 3629 C 346.76 -2.38995 3.66333 0
M  V30 3630 C 345.819 -3.55997 3.87495 0
M  V30 3631 O 344.845 -3.36746 4.58901 0
M  V30 3632 N 346.047 -4.76888 3.30996 0
M  V30 3633 H 348.812 -0.718386 2.90963 0
M  V30 3634 H 346.373 -0.245235 1.60032 0
M  V30 3635 H 348.365 -3.21011 2.46443 0
M  V30 3636 H 346.935 -2.73468 1.5144 0
M  V30 3637 H 346.155 -1.47336 3.65631 0
M  V30 3638 H 347.443 -2.3272 4.52458 0
M  V30 3639 H 346.841 -4.95431 2.73065 0
M  V30 3640 H 345.398 -5.51291 3.47738 0
M  V30 3641 N 348.832 -1.54138 -0.328536 0
M  V30 3642 C 350.248 -1.44736 -0.672574 0
M  V30 3643 C 350.448 -0.616217 -1.91846 0
M  V30 3644 O 349.504 -0.113067 -2.52247 0
M  V30 3645 C 350.817 -2.884 -0.851217 0
M  V30 3646 C 352.365 -2.98271 -0.948877 0
M  V30 3647 C 352.84 -4.43074 -1.15973 0
M  V30 3648 N 354.331 -4.46665 -1.22658 0
M  V30 3649 C 355.066 -5.55857 -1.40751 0
M  V30 3650 N 354.562 -6.75026 -1.5592 0
M  V30 3651 N 356.355 -5.43495 -1.4342 0
M  V30 3652 H 348.506 -2.06661 0.490421 0
M  V30 3653 H 350.769 -0.934812 0.157579 0
M  V30 3654 H 350.475 -3.51699 -0.00704236 0
M  V30 3655 H 350.349 -3.34225 -1.74853 0
M  V30 3656 H 352.736 -2.35102 -1.78356 0
M  V30 3657 H 352.817 -2.55785 -0.0281435 0
M  V30 3658 H 352.461 -5.06827 -0.329915 0
M  V30 3659 H 352.391 -4.83165 -2.09426 0
M  V30 3660 H 354.882 -3.60797 -1.124 0
M  V30 3661 H 355.195 -7.54004 -1.69404 0
M  V30 3662 H 353.54 -6.77944 -1.53027 0
M  V30 3663 H 356.731 -4.49349 -1.31162 0
M  V30 3664 H 356.904 -6.28649 -1.57178 0
M  V30 3665 N 350.31 0.590341 -1.46126 0
M  V30 3666 C 351.243 1.71434 -1.50617 0
M  V30 3667 C 352.221 1.58543 -0.360948 0
M  V30 3668 O 353.405 1.79865 -0.563985 0
M  V30 3669 C 350.532 3.09422 -1.37753 0
M  V30 3670 C 349.578 3.40854 -2.5636 0
M  V30 3671 S 350.411 3.33773 -4.18755 0
M  V30 3672 C 351.567 4.74312 -4.08386 0
M  V30 3673 H 351.8 1.67364 -2.45717 0
M  V30 3674 H 349.333 0.76845 -1.33919 0
M  V30 3675 H 351.291 3.8903 -1.31018 0
M  V30 3676 H 349.952 3.10989 -0.440949 0
M  V30 3677 H 349.145 4.41368 -2.43332 0
M  V30 3678 H 348.747 2.68798 -2.60046 0
M  V30 3679 H 351.039 5.64522 -3.74595 0
M  V30 3680 H 351.982 4.92397 -5.08872 0
M  V30 3681 H 352.39 4.50803 -3.3976 0
M  V30 3682 N 351.788 1.33704 0.83433 0
M  V30 3683 C 353.036 1.25169 1.58673 0
M  V30 3684 C 353.357 -0.18127 1.94156 0
M  V30 3685 O 352.627 -1.11113 1.6134 0
M  V30 3686 H 351.207 0.4603 0.58833 0
M  V30 3687 H 353.869 1.67478 0.996847 0
M  V30 3688 H 352.965 1.84856 2.51465 0
M  V30 3689 N 353.266 -1.05314 1.17247 0
M  V30 3690 C 354.213 -2.13031 0.888058 0
M  V30 3691 C 355.183 -1.65253 -0.167537 0
M  V30 3692 O 356.368 -1.90775 -0.0305974 0
M  V30 3693 C 353.508 -3.42702 0.406147 0
M  V30 3694 C 352.621 -4.04161 1.52572 0
M  V30 3695 C 351.756 -5.21744 0.997808 0
M  V30 3696 C 350.795 -5.75207 2.09291 0
M  V30 3697 N 349.932 -6.84094 1.57986 0
M  V30 3698 H 354.772 -2.36698 1.81048 0
M  V30 3699 H 352.309 -1.16121 0.903013 0
M  V30 3700 H 354.267 -4.17059 0.108305 0
M  V30 3701 H 352.897 -3.19222 -0.479313 0
M  V30 3702 H 351.949 -3.27253 1.93931 0
M  V30 3703 H 353.261 -4.39881 2.35172 0
M  V30 3704 H 352.415 -6.03168 0.653739 0
M  V30 3705 H 351.154 -4.87495 0.141232 0
M  V30 3706 H 350.159 -4.92414 2.44557 0
M  V30 3707 H 351.384 -6.11505 2.95362 0
M  V30 3708 H 349.33 -6.51745 0.74598 0
M  V30 3709 H 349.247 -7.18811 2.34195 0
M  V30 3710 H 350.515 -7.69172 1.26468 0
M  V30 3711 N 354.744 -0.972509 -1.24016 0
M  V30 3712 C 356.16 -0.679827 -1.44397 0
M  V30 3713 C 356.36 0.756716 -1.86751 0
M  V30 3714 O 355.416 1.53007 -2.00861 0
M  V30 3715 C 356.729 -1.66803 -2.50195 0
M  V30 3716 C 358.277 -1.68119 -2.64017 0
M  V30 3717 C 358.752 -2.65748 -3.73017 0
M  V30 3718 N 360.243 -2.64219 -3.8045 0
M  V30 3719 C 360.978 -3.36433 -4.64328 0
M  V30 3720 N 360.474 -4.1818 -5.52356 0
M  V30 3721 N 362.267 -3.25235 -4.58453 0
M  V30 3722 H 354.418 -1.90059 -0.948228 0
M  V30 3723 H 356.681 -0.818527 -0.478245 0
M  V30 3724 H 356.387 -2.69498 -2.25973 0
M  V30 3725 H 356.261 -1.4446 -3.48441 0
M  V30 3726 H 358.648 -0.661319 -2.87594 0
M  V30 3727 H 358.729 -1.94525 -1.66113 0
M  V30 3728 H 358.373 -3.67872 -3.50189 0
M  V30 3729 H 358.303 -2.36619 -4.70446 0
M  V30 3730 H 360.794 -2.04887 -3.17537 0
M  V30 3731 H 361.107 -4.70157 -6.13329 0
M  V30 3732 H 359.452 -4.22273 -5.52006 0
M  V30 3733 H 362.643 -2.60829 -3.88698 0
M  V30 3734 H 362.816 -3.81776 -5.23594 0
M  V30 3735 N 356.222 1.38976 -0.743202 0
M  V30 3736 C 357.185 2.28901 -0.117014 0
M  V30 3737 C 358.185 1.46698 0.658503 0
M  V30 3738 O 359.375 1.67274 0.486305 0
M  V30 3739 C 356.507 3.30309 0.84315 0
M  V30 3740 H 357.7 2.8578 -0.909373 0
M  V30 3741 H 355.253 1.47761 -0.509547 0
M  V30 3742 H 355.988 2.785 1.66157 0
M  V30 3743 H 355.773 3.91029 0.289594 0
M  V30 3744 H 357.263 3.97577 1.2776 0
M  V30 3745 N 357.7 0.491464 1.49741 0
M  V30 3746 C 358.947 -0.0564256 2.02421 0
M  V30 3747 C 359.275 -1.37872 1.37192 0
M  V30 3748 O 358.53 -1.89375 0.493508 0
M  V30 3749 C 358.829 -0.267329 3.56399 0
M  V30 3750 C 358.495 0.975775 4.40215 0
M  V30 3751 C 357.157 1.31655 4.62839 0
M  V30 3752 C 359.509 1.80251 4.89039 0
M  V30 3753 C 356.837 2.48375 5.31532 0
M  V30 3754 C 359.189 2.96116 5.59015 0
M  V30 3755 C 357.853 3.30585 5.79888 0
M  V30 3756 H 357.123 -0.0206476 0.740712 0
M  V30 3757 H 359.77 0.649686 1.80143 0
M  V30 3758 H 358.075 -1.05588 3.77304 0
M  V30 3759 H 359.772 -0.705549 3.94744 0
M  V30 3760 H 356.362 0.700315 4.2284 0
M  V30 3761 H 360.546 1.55239 4.71396 0
M  V30 3762 H 355.802 2.7533 5.45897 0
M  V30 3763 H 359.976 3.60509 5.95824 0
M  V30 3764 H 357.603 4.21132 6.32892 0
M  V30 3765 N 359.178 -1.55987 0.224894 0
M  V30 3766 C 360.108 -2.23426 -0.678457 0
M  V30 3767 C 361.089 -1.20709 -1.19847 0
M  V30 3768 O 362.274 -1.49304 -1.24186 0
M  V30 3769 C 359.404 -2.91676 -1.88527 0
M  V30 3770 C 358.358 -4.00893 -1.49896 0
M  V30 3771 C 357.684 -4.56455 -2.78483 0
M  V30 3772 C 358.984 -5.17769 -0.686461 0
M  V30 3773 H 360.678 -2.99175 -0.116173 0
M  V30 3774 H 358.224 -1.43897 -0.054436 0
M  V30 3775 H 360.177 -3.37547 -2.5227 0
M  V30 3776 H 358.901 -2.1338 -2.47258 0
M  V30 3777 H 357.56 -3.55758 -0.884985 0
M  V30 3778 H 357.208 -3.74886 -3.35365 0
M  V30 3779 H 356.908 -5.30169 -2.53368 0
M  V30 3780 H 358.432 -5.05047 -3.43162 0
M  V30 3781 H 359.846 -5.60001 -1.22767 0
M  V30 3782 H 358.243 -5.97735 -0.532259 0
M  V30 3783 H 359.313 -4.83932 0.306196 0
M  V30 3784 N 360.656 0.0484629 -1.57525 0
M  V30 3785 C 361.905 0.742065 -1.87553 0
M  V30 3786 C 362.218 1.77545 -0.820802 0
M  V30 3787 O 363.424 2.52027 -1.00967 0
M  V30 3788 C 361.88 1.37081 -3.32771 0
M  V30 3789 C 361.488 0.374786 -4.4643 0
M  V30 3790 C 363.232 2.04542 -3.71972 0
M  V30 3791 C 361.139 1.01077 -5.82698 0
M  V30 3792 H 360.069 0.280903 -0.699721 0
M  V30 3793 H 362.72 -0.00411877 -1.835 0
M  V30 3794 H 361.102 2.16605 -3.31509 0
M  V30 3795 H 362.276 -0.392331 -4.59127 0
M  V30 3796 H 360.591 -0.196653 -4.15935 0
M  V30 3797 H 363.188 2.52943 -4.71088 0
M  V30 3798 H 363.531 2.85515 -3.02964 0
M  V30 3799 H 364.064 1.31819 -3.75325 0
M  V30 3800 H 360.803 0.240878 -6.55057 0
M  V30 3801 H 360.323 1.74819 -5.73758 0
M  V30 3802 H 362.002 1.52383 -6.28799 0
M  V30 3803 N 362.134 1.5431 0.320358 0
M  V30 3804 C 363.411 1.63322 1.07635 0
M  V30 3805 C 363.791 0.46912 2.05821 0
M  V30 3806 O 363.139 -0.536274 2.22118 0
M  V30 3807 C 363.349 3.00465 1.77544 0
M  V30 3808 C 364.697 3.56621 2.30449 0
M  V30 3809 O 365.721 3.02791 1.87606 0
M  V30 3810 O 364.58 4.5083 3.08892 0
M  V30 3811 H 361.674 0.661502 0.496331 0
M  V30 3812 H 364.22 1.66656 0.319992 0
M  V30 3813 H 362.992 3.76629 1.06143 0
M  V30 3814 H 362.615 3.00824 2.59982 0
M  V30 3815 N 363.613 -0.582584 1.46437 0
M  V30 3816 C 364.89 -1.34276 1.4223 0
M  V30 3817 C 365.27 -2.10835 0.10583 0
M  V30 3818 O 364.618 -2.09485 -0.912596 0
M  V30 3819 C 364.828 -2.26865 2.65204 0
M  V30 3820 C 366.176 -2.88691 3.11356 0
M  V30 3821 O 367.2 -2.37178 2.65753 0
M  V30 3822 O 366.059 -3.82255 3.90568 0
M  V30 3823 H 363.153 -0.603326 0.565621 0
M  V30 3824 H 365.699 -0.603591 1.58603 0
M  V30 3825 H 364.471 -1.69724 3.52576 0
M  V30 3826 H 364.094 -3.08122 2.5129 0
M  V30 3827 N 365.091 -1.34144 -0.827227 0
M  V30 3828 C 366.054 -1.25264 -1.91942 0
M  V30 3829 C 367.054 -0.168866 -1.59911 0
M  V30 3830 O 368.244 -0.421198 -1.69031 0
M  V30 3831 C 365.376 -0.932952 -3.27885 0
M  V30 3832 H 366.569 -2.22357 -2.0124 0
M  V30 3833 H 364.122 -1.1837 -1.0207 0
M  V30 3834 H 364.857 0.0349917 -3.24281 0
M  V30 3835 H 364.642 -1.71682 -3.52516 0
M  V30 3836 H 366.132 -0.895874 -4.07877 0
M  V30 3837 N 366.569 1.04691 -1.17803 0
M  V30 3838 C 367.516 2.12557 -0.899343 0
M  V30 3839 C 368.486 1.65339 0.158771 0
M  V30 3840 O 369.671 1.90789 0.0204797 0
M  V30 3841 C 366.811 3.42481 -0.424315 0
M  V30 3842 C 365.924 4.03346 -1.54713 0
M  V30 3843 C 365.059 5.21208 -1.02546 0
M  V30 3844 C 364.098 5.74089 -2.12339 0
M  V30 3845 N 363.235 6.83247 -1.61612 0
M  V30 3846 H 368.075 2.35734 -1.823 0
M  V30 3847 H 365.612 1.1564 -0.909159 0
M  V30 3848 H 367.57 4.16996 -0.130421 0
M  V30 3849 H 366.2 3.19471 0.462377 0
M  V30 3850 H 365.252 3.2622 -1.95664 0
M  V30 3851 H 366.564 4.38628 -2.37501 0
M  V30 3852 H 365.718 6.02812 -0.685718 0
M  V30 3853 H 364.457 4.87414 -0.167084 0
M  V30 3854 H 363.462 4.91111 -2.47165 0
M  V30 3855 H 364.687 6.0993 -2.98601 0
M  V30 3856 H 362.633 6.5134 -0.780533 0
M  V30 3857 H 362.55 7.17559 -2.38003 0
M  V30 3858 H 363.818 7.68491 -1.30545 0
M  V30 3859 N 368.047 0.979072 1.23499 0
M  V30 3860 C 369.324 0.563674 1.87302 0
M  V30 3861 C 369.704 -0.959199 1.88049 0
M  V30 3862 O 369.052 -1.83535 1.36114 0
M  V30 3863 C 369.262 1.16822 3.28867 0
M  V30 3864 C 370.61 1.26014 4.0547 0
M  V30 3865 O 371.634 1.12158 3.38082 0
M  V30 3866 O 370.493 1.48044 5.26066 0
M  V30 3867 H 367.587 0.189602 0.804972 0
M  V30 3868 H 370.133 1.07407 1.31384 0
M  V30 3869 H 368.905 2.21049 3.22883 0
M  V30 3870 H 368.528 0.642564 3.92373 0
M  V30 3871 N 369.525 -1.3858 0.750561 0
M  V30 3872 C 370.774 -1.99424 0.302172 0
M  V30 3873 C 371.087 -1.60254 -1.12152 0
M  V30 3874 O 372.293 -2.14046 -1.67023 0
M  V30 3875 C 370.749 -3.56558 0.489307 0
M  V30 3876 C 370.357 -4.04682 1.92189 0
M  V30 3877 C 372.101 -4.24374 0.103478 0
M  V30 3878 C 370.008 -5.54446 2.05775 0
M  V30 3879 H 368.938 -0.746046 0.10923 0
M  V30 3880 H 371.589 -1.58383 0.92667 0
M  V30 3881 H 369.971 -3.95472 -0.204329 0
M  V30 3882 H 371.145 -3.77065 2.64875 0
M  V30 3883 H 369.46 -3.4958 2.26236 0
M  V30 3884 H 372.057 -5.34384 0.183787 0
M  V30 3885 H 372.4 -4.05468 -0.943481 0
M  V30 3886 H 372.933 -3.90688 0.748854 0
M  V30 3887 H 369.672 -5.78252 3.08714 0
M  V30 3888 H 369.192 -5.83816 1.37546 0
M  V30 3889 H 370.871 -6.20099 1.84626 0
M  V30 3890 N 371.003 -0.499398 -1.49478 0
M  V30 3891 C 371.935 0.316575 -2.27003 0
M  V30 3892 C 372.948 0.932047 -1.33479 0
M  V30 3893 O 374.137 0.815658 -1.58774 0
M  V30 3894 C 371.237 1.46055 -3.05812 0
M  V30 3895 C 370.41 0.952679 -4.26899 0
M  V30 3896 C 369.469 1.97407 -4.87767 0
M  V30 3897 O 368.495 1.54326 -5.4788 0
M  V30 3898 N 369.697 3.30436 -4.77276 0
M  V30 3899 H 372.462 -0.348168 -2.97671 0
M  V30 3900 H 370.023 -0.33185 -1.58463 0
M  V30 3901 H 372.015 2.14135 -3.43407 0
M  V30 3902 H 370.585 2.02948 -2.37762 0
M  V30 3903 H 369.805 0.0968248 -3.94081 0
M  V30 3904 H 371.093 0.59174 -5.05347 0
M  V30 3905 H 370.491 3.68126 -4.29534 0
M  V30 3906 H 369.048 3.94235 -5.19059 0
M  V30 3907 N 372.481 1.55866 -0.233164 0
M  V30 3908 C 373.391 2.24431 0.683217 0
M  V30 3909 C 374.407 1.2558 1.2044 0
M  V30 3910 O 375.583 1.58422 1.24356 0
M  V30 3911 C 372.648 2.91979 1.86947 0
M  V30 3912 C 371.709 4.06204 1.38912 0
M  V30 3913 C 370.942 4.70522 2.51883 0
M  V30 3914 O 371.165 4.33865 3.70293 0
M  V30 3915 O 370.099 5.59296 2.22423 0
M  V30 3916 H 373.925 3.03426 0.129059 0
M  V30 3917 H 371.51 1.494 -0.0022283 0
M  V30 3918 H 373.392 3.34573 2.56201 0
M  V30 3919 H 372.067 2.15935 2.41151 0
M  V30 3920 H 370.974 3.68155 0.664259 0
M  V30 3921 H 372.307 4.84025 0.893328 0
M  V30 3922 N 373.959 -0.0401083 1.57549 0
M  V30 3923 C 374.869 -1.06133 2.0922 0
M  V30 3924 C 375.885 -1.40356 1.0284 0
M  V30 3925 O 377.061 -1.49897 1.34509 0
M  V30 3926 C 374.126 -2.34658 2.55218 0
M  V30 3927 C 373.187 -2.07117 3.76033 0
M  V30 3928 C 372.42 -3.29514 4.19829 0
M  V30 3929 O 372.643 -4.39794 3.63232 0
M  V30 3930 O 371.577 -3.15863 5.12362 0
M  V30 3931 H 375.403 -0.652244 2.96613 0
M  V30 3932 H 372.988 -0.256368 1.47184 0
M  V30 3933 H 374.87 -3.10239 2.85184 0
M  V30 3934 H 373.545 -2.74883 1.70941 0
M  V30 3935 H 372.452 -1.29139 3.51104 0
M  V30 3936 H 373.785 -1.71754 4.61261 0
M  V30 3937 N 375.437 -1.54477 -0.31217 0
M  V30 3938 C 376.683 -1.74417 -1.04644 0
M  V30 3939 C 377.038 -0.517641 -1.85306 0
M  V30 3940 O 376.331 0.489973 -1.85229 0
M  V30 3941 C 376.525 -2.967 -1.99258 0
M  V30 3942 C 376.354 -4.31128 -1.27901 0
M  V30 3943 C 375.124 -4.95087 -1.01079 0
M  V30 3944 C 377.322 -5.09662 -0.689119 0
M  V30 3945 N 375.304 -6.13322 -0.266323 0
M  V30 3946 C 376.675 -6.19952 -0.0768523 0
M  V30 3947 C 378.73 -4.94355 -0.593061 0
M  V30 3948 C 377.433 -7.16604 0.622165 0
M  V30 3949 C 379.459 -5.91328 0.0922792 0
M  V30 3950 C 378.821 -7.00978 0.693443 0
M  V30 3951 H 374.92 -0.69094 -0.366231 0
M  V30 3952 H 377.504 -1.91946 -0.326319 0
M  V30 3953 H 375.675 -2.80616 -2.68532 0
M  V30 3954 H 377.407 -3.05216 -2.65755 0
M  V30 3955 H 374.162 -4.55235 -1.30607 0
M  V30 3956 H 374.586 -6.76937 0.0920973 0
M  V30 3957 H 379.228 -4.09719 -1.04355 0
M  V30 3958 H 376.946 -8.0079 1.08445 0
M  V30 3959 H 380.532 -5.81562 0.166396 0
M  V30 3960 H 379.412 -7.74725 1.21533 0
M  V30 3961 N 376.915 0.57481 -1.46744 0
M  V30 3962 C 378.161 1.3347 -1.52688 0
M  V30 3963 C 378.494 1.93353 -0.181229 0
M  V30 3964 O 377.769 1.76912 0.808237 0
M  V30 3965 C 378.052 2.45811 -2.63152 0
M  V30 3966 C 377.905 1.90912 -4.07275 0
M  V30 3967 C 379.224 3.47822 -2.69644 0
M  V30 3968 H 376.343 0.483935 -0.555856 0
M  V30 3969 H 378.985 0.644968 -1.78718 0
M  V30 3970 H 377.135 3.04646 -2.41088 0
M  V30 3971 H 378.807 1.36473 -4.4065 0
M  V30 3972 H 377.05 1.21691 -4.16382 0
M  V30 3973 H 377.721 2.72042 -4.80309 0
M  V30 3974 H 380.197 2.9888 -2.895 0
M  V30 3975 H 379.073 4.23876 -3.48742 0
M  V30 3976 H 379.334 4.05555 -1.76005 0
M  V30 3977 N 378.394 1.34581 0.820102 0
M  V30 3978 C 379.341 1.2639 1.93117 0
M  V30 3979 C 380.311 0.138554 1.65521 0
M  V30 3980 O 381.496 0.320004 1.88097 0
M  V30 3981 C 378.636 1.02812 3.29429 0
M  V30 3982 C 377.749 2.24146 3.693 0
M  V30 3983 C 376.884 1.93829 4.94574 0
M  V30 3984 C 375.923 3.1129 5.27034 0
M  V30 3985 N 375.06 2.80838 6.43486 0
M  V30 3986 H 379.9 2.21408 1.99455 0
M  V30 3987 H 377.437 1.10077 0.975784 0
M  V30 3988 H 379.395 0.871788 4.0799 0
M  V30 3989 H 378.025 0.114612 3.22596 0
M  V30 3990 H 377.077 2.50691 2.86109 0
M  V30 3991 H 378.389 3.11899 3.89257 0
M  V30 3992 H 377.543 1.74948 5.80929 0
M  V30 3993 H 376.282 1.03341 4.76626 0
M  V30 3994 H 375.287 3.30764 4.39175 0
M  V30 3995 H 376.512 4.02561 5.4692 0
M  V30 3996 H 374.458 1.92929 6.26988 0
M  V30 3997 H 374.375 3.62123 6.63629 0
M  V30 3998 H 375.643 2.65467 7.32903 0
M  V30 3999 N 379.872 -1.04064 1.18357 0
M  V30 4000 C 380.782 -2.15569 0.925596 0
M  V30 4001 C 381.798 -1.7365 -0.110295 0
M  V30 4002 O 382.974 -2.01273 0.0716218 0
M  V30 4003 C 380.039 -3.43704 0.454836 0
M  V30 4004 C 379.1 -4.00004 1.55869 0
M  V30 4005 C 378.333 -5.22023 1.1103 0
M  V30 4006 O 378.556 -5.70392 -0.0309756 0
M  V30 4007 O 377.49 -5.70856 1.90805 0
M  V30 4008 H 381.316 -2.40187 1.8586 0
M  V30 4009 H 378.901 -1.1402 0.965394 0
M  V30 4010 H 380.783 -4.20923 0.200382 0
M  V30 4011 H 379.458 -3.20559 -0.449876 0
M  V30 4012 H 378.365 -3.24172 1.86716 0
M  V30 4013 H 379.698 -4.2749 2.43953 0
M  V30 4014 N 381.35 -0.985608 -1.22978 0
M  V30 4015 C 382.596 -0.65836 -1.91816 0
M  V30 4016 C 382.929 0.806692 -1.76653 0
M  V30 4017 O 382.204 1.58252 -1.13078 0
M  V30 4018 C 382.487 -1.056 -3.44268 0
M  V30 4019 C 382.34 -2.57906 -3.68516 0
M  V30 4020 C 383.659 -0.603781 -4.35939 0
M  V30 4021 H 380.778 -0.24065 -0.696604 0
M  V30 4022 H 383.42 -1.22783 -1.44998 0
M  V30 4023 H 381.57 -0.571445 -3.84274 0
M  V30 4024 H 383.242 -3.13976 -3.3796 0
M  V30 4025 H 381.485 -3.00305 -3.13048 0
M  V30 4026 H 382.156 -2.80779 -4.75255 0
M  V30 4027 H 384.632 -1.01987 -4.03408 0
M  V30 4028 H 383.508 -0.910383 -5.41298 0
M  V30 4029 H 383.769 0.495761 -4.39312 0
M  V30 4030 N 382.828 1.3818 -0.7579 0
M  V30 4031 C 383.775 2.30416 -0.133057 0
M  V30 4032 C 384.745 1.50398 0.704957 0
M  V30 4033 O 385.93 1.79014 0.660192 0
M  V30 4034 C 383.07 3.36834 0.750813 0
M  V30 4035 C 382.183 4.31879 -0.102297 0
M  V30 4036 C 381.318 5.25368 0.784979 0
M  V30 4037 C 380.357 6.12058 -0.0715046 0
M  V30 4038 N 379.494 6.97832 0.772972 0
M  V30 4039 H 384.334 2.83274 -0.925186 0
M  V30 4040 H 381.871 1.39461 -0.467866 0
M  V30 4041 H 383.829 3.97145 1.27794 0
M  V30 4042 H 382.459 2.85374 1.50868 0
M  V30 4043 H 381.511 3.72991 -0.747095 0
M  V30 4044 H 382.823 4.92921 -0.763552 0
M  V30 4045 H 381.977 5.90818 1.37911 0
M  V30 4046 H 380.716 4.64703 1.47996 0
M  V30 4047 H 379.721 5.456 -0.678272 0
M  V30 4048 H 380.946 6.74793 -0.763606 0
M  V30 4049 H 378.892 6.3971 1.45282 0
M  V30 4050 H 378.809 7.55812 0.168709 0
M  V30 4051 H 380.077 7.67687 1.35194 0
M  V30 4052 N 384.306 0.507319 1.49211 0
M  V30 4053 C 385.546 -0.0332372 2.04373 0
M  V30 4054 C 385.91 -1.33694 1.37804 0
M  V30 4055 O 387.111 -1.96213 1.83722 0
M  V30 4056 C 385.382 -0.17599 3.56966 0
M  V30 4057 S 386.941 -0.669882 4.33657 0
M  V30 4058 H 383.759 0.00123603 0.710999 0
M  V30 4059 H 386.361 0.682725 1.83191 0
M  V30 4060 H 385.065 0.778053 4.02957 0
M  V30 4061 H 384.596 -0.917005 3.82563 0
M  V30 4062 H 386.611 -1.93806 4.56786 0
M  V30 4063 N 385.784 -1.5574 0.241426 0
M  V30 4064 C 387.03 -1.99104 -0.385406 0
M  V30 4065 C 387.363 -1.1293 -1.57988 0
M  V30 4066 O 386.638 -0.191449 -1.93555 0
M  V30 4067 C 386.921 -3.51087 -0.800616 0
M  V30 4068 C 386.774 -4.48028 0.398874 0
M  V30 4069 C 388.093 -4.08015 -1.64959 0
M  V30 4070 H 385.212 -0.723848 -0.138614 0
M  V30 4071 H 387.854 -1.86903 0.341642 0
M  V30 4072 H 386.004 -3.61615 -1.4201 0
M  V30 4073 H 387.676 -4.49487 1.03726 0
M  V30 4074 H 385.919 -4.21077 1.04293 0
M  V30 4075 H 386.59 -5.51962 0.0651056 0
M  V30 4076 H 389.066 -4.00555 -1.12672 0
M  V30 4077 H 387.942 -5.14635 -1.90898 0
M  V30 4078 H 388.203 -3.56131 -2.61961 0
M  V30 4079 N 387.262 0.0317525 -1.57568 0
M  V30 4080 C 388.51 0.721676 -1.88776 0
M  V30 4081 C 388.831 1.76039 -0.838772 0
M  V30 4082 O 388.101 1.95482 0.127935 0
M  V30 4083 H 386.681 0.269534 -0.696678 0
M  V30 4084 H 389.343 -0.00165879 -1.949 0
M  V30 4085 H 388.439 1.21293 -2.87566 0
M  V30 4086 N 388.74 1.54641 0.303973 0
M  V30 4087 C 389.986 1.74038 1.04109 0
M  V30 4088 C 390.319 0.523051 1.87024 0
M  V30 4089 O 389.594 -0.479874 1.88487 0
M  V30 4090 C 389.877 3.02761 1.94955 0
M  V30 4091 C 389.73 4.34787 1.1524 0
M  V30 4092 C 391.049 3.27336 2.94175 0
M  V30 4093 H 388.168 0.63323 0.377079 0
M  V30 4094 H 390.81 1.87354 0.316001 0
M  V30 4095 H 388.96 2.9154 2.56782 0
M  V30 4096 H 390.632 4.57922 0.557236 0
M  V30 4097 H 388.875 4.31407 0.455053 0
M  V30 4098 H 389.546 5.21116 1.8205 0
M  V30 4099 H 392.022 3.38148 2.42477 0
M  V30 4100 H 390.898 4.18726 3.54908 0
M  V30 4101 H 391.159 2.45491 3.67677 0
M  V30 4102 N 390.218 -0.567019 1.47046 0
M  V30 4103 C 391.446 -1.35027 1.56765 0
M  V30 4104 C 391.861 -1.8758 0.214316 0
M  V30 4105 O 391.218 -1.64471 -0.790919 0
M  V30 4106 C 391.269 -2.52698 2.58507 0
M  V30 4107 O 390.99 -2.0232 3.88585 0
M  V30 4108 C 392.491 -3.45043 2.78316 0
M  V30 4109 H 389.711 -0.41195 0.529658 0
M  V30 4110 H 392.255 -0.687832 1.92585 0
M  V30 4111 H 390.41 -3.149 2.25648 0
M  V30 4112 H 390.824 -2.79068 4.44096 0
M  V30 4113 H 392.298 -4.2405 3.53391 0
M  V30 4114 H 392.775 -3.97971 1.85784 0
M  V30 4115 H 393.381 -2.88665 3.12334 0
M  V30 4116 N 391.696 -1.35014 -0.812953 0
M  V30 4117 C 392.659 -1.27292 -1.90602 0
M  V30 4118 C 393.659 -0.185817 -1.59723 0
M  V30 4119 O 394.849 -0.439102 -1.68575 0
M  V30 4120 C 391.981 -0.967676 -3.26877 0
M  V30 4121 H 393.174 -2.24479 -1.9887 0
M  V30 4122 H 390.727 -1.19446 -1.00808 0
M  V30 4123 H 391.462 0.0005954 -3.243 0
M  V30 4124 H 391.247 -1.75412 -3.50675 0
M  V30 4125 H 392.737 -0.939085 -4.06904 0
M  V30 4126 N 393.175 1.03435 -1.18907 0
M  V30 4127 C 394.423 1.76394 -0.986382 0
M  V30 4128 C 394.744 1.88883 0.484567 0
M  V30 4129 O 394.014 1.41843 1.3512 0
M  V30 4130 H 392.594 0.65344 -0.361975 0
M  V30 4131 H 395.256 1.248 -1.49703 0
M  V30 4132 H 394.352 2.77424 -1.42978 0
M  V30 4133 N 394.653 0.992116 1.22453 0
M  V30 4134 C 395.616 0.546883 2.2258 0
M  V30 4135 C 396.616 -0.369829 1.56489 0
M  V30 4136 O 397.806 -0.161896 1.73446 0
M  V30 4137 C 394.938 -0.204659 3.40285 0
M  V30 4138 H 396.131 1.43234 2.63484 0
M  V30 4139 H 393.684 0.779239 1.3549 0
M  V30 4140 H 394.419 -1.10614 3.04853 0
M  V30 4141 H 394.204 0.45354 3.89468 0
M  V30 4142 H 395.694 -0.504358 4.14543 0
M  V30 4143 N 396.131 -1.37776 0.765217 0
M  V30 4144 C 397.356 -2.04651 0.336537 0
M  V30 4145 C 397.781 -1.57337 -1.03086 0
M  V30 4146 O 397.139 -0.730621 -1.65927 0
M  V30 4147 C 397.187 -3.58577 0.381468 0
M  V30 4148 O 396.291 -4.07706 -0.62042 0
M  V30 4149 H 395.632 -0.64756 0.146838 0
M  V30 4150 H 398.162 -1.76221 1.03959 0
M  V30 4151 H 398.172 -4.07314 0.236448 0
M  V30 4152 H 396.847 -3.9237 1.37907 0
M  V30 4153 H 395.424 -3.70306 -0.439056 0
M  V30 4154 N 397.609 -0.515225 -1.4894 0
M  V30 4155 C 398.572 0.244681 -2.2789 0
M  V30 4156 C 399.572 0.881166 -1.34507 0
M  V30 4157 O 400.762 0.743497 -1.57537 0
M  V30 4158 C 397.894 1.35247 -3.12923 0
M  V30 4159 H 399.087 -0.448289 -2.96531 0
M  V30 4160 H 396.64 -0.270656 -1.53939 0
M  V30 4161 H 397.375 2.07916 -2.48881 0
M  V30 4162 H 397.16 0.901374 -3.81599 0
M  V30 4163 H 398.65 1.88737 -3.72516 0
M  V30 4164 N 399.087 1.5561 -0.249682 0
M  V30 4165 C 400.498 1.84979 0.252949 0
M  V30 4166 C 400.849 1.17153 1.57384 0
M  V30 4167 O 399.974 0.450884 2.11651 0
M  V30 4168 C 400.569 3.35584 0.465732 0
M  V30 4169 C 399.128 3.65169 0.912624 0
M  V30 4170 C 398.275 2.77299 -0.00859085 0
M  V30 4171 H 401.226 1.51513 -0.47217 0
M  V30 4172 H 401.247 3.57313 1.30795 0
M  V30 4173 H 400.759 3.8492 -0.49579 0
M  V30 4174 H 398.86 3.21312 1.88652 0
M  V30 4175 H 398.973 4.72912 0.767559 0
M  V30 4176 H 397.337 2.49678 0.50327 0
M  V30 4177 H 398.12 3.29442 -0.965537 0
M  V30 4178 N 400.565 -0.0233959 1.57583 0
M  V30 4179 C 401.842 -0.748794 1.807 0
M  V30 4180 C 402.222 -1.9327 0.849106 0
M  V30 4181 O 401.57 -2.28247 -0.107468 0
M  V30 4182 C 401.78 -1.17651 3.28571 0
M  V30 4183 C 403.128 -1.59008 3.93702 0
M  V30 4184 O 404.152 -1.27094 3.32755 0
M  V30 4185 O 403.011 -2.18264 5.01022 0
M  V30 4186 H 400.105 -0.362578 0.743281 0
M  V30 4187 H 402.651 0.000261958 1.697 0
M  V30 4188 H 401.423 -0.331603 3.89892 0
M  V30 4189 H 401.046 -1.98541 3.44481 0
M  V30 4190 N 402.043 -1.548 -0.295768 0
M  V30 4191 C 403.292 -1.73538 -1.02798 0
M  V30 4192 C 403.605 -0.531159 -1.8825 0
M  V30 4193 O 404.811 -0.600458 -2.64777 0
M  V30 4194 C 403.267 -3.07051 -1.87744 0
M  V30 4195 C 402.875 -4.34968 -1.07269 0
M  V30 4196 C 404.619 -3.35146 -2.60533 0
M  V30 4197 C 402.526 -5.5953 -1.91521 0
M  V30 4198 H 401.456 -0.646794 -0.387522 0
M  V30 4199 H 404.107 -1.81278 -0.284718 0
M  V30 4200 H 402.489 -2.93289 -2.66078 0
M  V30 4201 H 403.663 -4.5958 -0.335117 0
M  V30 4202 H 401.978 -4.13847 -0.460384 0
M  V30 4203 H 404.575 -4.2541 -3.23929 0
M  V30 4204 H 404.918 -2.54255 -3.29636 0
M  V30 4205 H 405.451 -3.49902 -1.89244 0
M  V30 4206 H 402.19 -6.43103 -1.26878 0
M  V30 4207 H 401.71 -5.39096 -2.62937 0
M  V30 4208 H 403.389 -5.96982 -2.49442 0
M  V30 4209 N 403.521 0.559213 -1.47345 0
M  V30 4210 C 404.451 1.67622 -1.62558 0
M  V30 4211 C 405.432 1.63331 -0.475087 0
M  V30 4212 O 406.617 1.80983 -0.704182 0
M  V30 4213 C 403.747 3.0626 -1.63774 0
M  V30 4214 C 402.701 3.25397 -2.7803 0
M  V30 4215 C 402.027 4.64801 -2.64318 0
M  V30 4216 C 403.327 3.10965 -4.19641 0
M  V30 4217 H 405.021 1.55146 -2.56067 0
M  V30 4218 H 402.567 0.744961 -1.23233 0
M  V30 4219 H 404.52 3.84247 -1.73008 0
M  V30 4220 H 403.244 3.1969 -0.66825 0
M  V30 4221 H 401.903 2.49817 -2.68304 0
M  V30 4222 H 401.551 4.75028 -1.65401 0
M  V30 4223 H 401.251 4.78555 -3.40968 0
M  V30 4224 H 402.775 5.44926 -2.75478 0
M  V30 4225 H 404.189 3.78772 -4.30354 0
M  V30 4226 H 402.586 3.36229 -4.97062 0
M  V30 4227 H 403.656 2.07736 -4.38148 0
M  V30 4228 N 404.999 1.35443 0.805782 0
M  V30 4229 C 406.245 1.28952 1.56522 0
M  V30 4230 C 406.578 -0.135597 1.93726 0
M  V30 4231 O 405.853 -1.08516 1.61414 0
M  V30 4232 C 406.136 2.19678 2.85331 0
M  V30 4233 C 405.989 3.7081 2.54598 0
M  V30 4234 C 407.308 2.09495 3.8704 0
M  V30 4235 H 404.427 0.469764 0.567883 0
M  V30 4236 H 407.069 1.65851 0.927001 0
M  V30 4237 H 405.219 1.8834 3.39795 0
M  V30 4238 H 406.891 4.12593 2.06312 0
M  V30 4239 H 405.134 3.91051 1.8778 0
M  V30 4240 H 405.805 4.29679 3.46525 0
M  V30 4241 H 408.281 2.37045 3.41978 0
M  V30 4242 H 407.157 2.75173 4.74943 0
M  V30 4243 H 407.418 1.07714 4.28777 0
M  V30 4244 N 406.477 -1.02803 1.19454 0
M  V30 4245 C 407.409 -2.11181 0.890807 0
M  V30 4246 C 408.422 -1.6238 -0.116829 0
M  V30 4247 O 409.611 -1.78144 0.112694 0
M  V30 4248 C 406.711 -3.37461 0.311942 0
M  V30 4249 C 405.884 -4.15446 1.36834 0
M  V30 4250 C 404.943 -5.20039 0.802864 0
M  V30 4251 O 403.969 -5.49602 1.48077 0
M  V30 4252 N 405.171 -5.79165 -0.393417 0
M  V30 4253 H 407.936 -2.37827 1.82369 0
M  V30 4254 H 405.497 -1.19101 1.09666 0
M  V30 4255 H 407.489 -4.0462 -0.0802225 0
M  V30 4256 H 406.059 -3.08156 -0.52524 0
M  V30 4257 H 405.279 -3.43423 1.93531 0
M  V30 4258 H 406.567 -4.64335 2.08015 0
M  V30 4259 H 405.965 -5.57466 -0.961658 0
M  V30 4260 H 404.522 -6.47729 -0.727351 0
M  V30 4261 N 407.956 -0.998596 -1.21925 0
M  V30 4262 C 408.904 -0.546641 -2.26085 0
M  V30 4263 C 409.898 0.405576 -1.64473 0
M  V30 4264 O 411.104 0.277471 -1.77849 0
M  V30 4265 H 407.479 -0.158403 -0.735127 0
M  V30 4266 H 409.45 -1.43645 -2.61551 0
M  V30 4267 C 408.199 0.117388 -3.47502 0
M  V30 4268 H 407.522 -0.606277 -3.95176 0
M  V30 4269 H 408.962 0.396993 -4.22137 0
M  V30 4270 C 407.421 1.35455 -3.0847 0
M  V30 4271 O 407.951 2.44944 -3.18379 0
M  V30 4272 N 406.157 1.23191 -2.63196 0
M  V30 4273 H 405.704 0.341006 -2.55333 0
M  V30 4274 H 405.662 2.06071 -2.37449 0
M  V30 4275 N 409.434 1.37368 -0.772513 0
M  V30 4276 C 410.68 1.99969 -0.337681 0
M  V30 4277 C 411.013 1.61184 1.08321 0
M  V30 4278 O 410.288 0.858395 1.74533 0
M  V30 4279 C 410.571 3.56858 -0.482121 0
M  V30 4280 C 410.424 4.0555 -1.94549 0
M  V30 4281 C 411.743 4.39955 0.113143 0
M  V30 4282 H 408.862 0.726464 -0.124171 0
M  V30 4283 H 411.504 1.63034 -0.975699 0
M  V30 4284 H 409.654 3.88452 0.0610361 0
M  V30 4285 H 411.326 3.84518 -2.54841 0
M  V30 4286 H 409.569 3.57715 -2.45403 0
M  V30 4287 H 410.24 5.14587 -1.9976 0
M  V30 4288 H 412.716 4.14623 -0.35031 0
M  V30 4289 H 411.592 5.48897 -0.0180514 0
M  V30 4290 H 411.853 4.25403 1.20354 0
M  V30 4291 N 410.912 0.523116 1.48665 0
M  V30 4292 C 412.158 -0.0134963 2.02796 0
M  V30 4293 C 412.491 -1.34582 1.40004 0
M  V30 4294 O 411.766 -1.86756 0.543381 0
M  V30 4295 C 412.049 -0.14276 3.59817 0
M  V30 4296 C 411.902 1.21425 4.331 0
M  V30 4297 C 413.221 -0.872856 4.31357 0
M  V30 4298 H 410.34 -0.00343074 0.736992 0
M  V30 4299 H 412.982 0.678816 1.7746 0
M  V30 4300 H 411.132 -0.732401 3.81534 0
M  V30 4301 H 412.804 1.84447 4.2282 0
M  V30 4302 H 411.047 1.79791 3.94788 0
M  V30 4303 H 411.718 1.07687 5.41394 0
M  V30 4304 H 414.194 -0.372555 4.14429 0
M  V30 4305 H 413.07 -0.932185 5.40927 0
M  V30 4306 H 413.331 -1.92161 3.98154 0
M  V30 4307 N 412.39 -1.55475 0.257931 0
M  V30 4308 C 413.353 -2.20551 -0.623706 0
M  V30 4309 C 414.353 -1.17809 -1.09443 0
M  V30 4310 O 415.543 -1.42823 -0.997362 0
M  V30 4311 C 412.675 -2.85784 -1.8585 0
M  V30 4312 H 413.868 -2.99848 -0.0557743 0
M  V30 4313 H 411.421 -1.56298 0.0084422 0
M  V30 4314 H 412.156 -2.10453 -2.46739 0
M  V30 4315 H 411.941 -3.61057 -1.52907 0
M  V30 4316 H 413.431 -3.35553 -2.48584 0
M  V30 4317 N 413.868 0.0150385 -1.57593 0
M  V30 4318 C 415.284 0.370907 -1.5523 0
M  V30 4319 C 415.484 1.75735 -0.985882 0
M  V30 4320 O 414.54 2.44944 -0.613077 0
M  V30 4321 C 415.853 0.259908 -2.99575 0
M  V30 4322 C 417.401 0.335959 -3.11192 0
M  V30 4323 C 417.876 0.254253 -4.57294 0
M  V30 4324 N 419.367 0.312618 -4.62144 0
M  V30 4325 C 420.102 0.272505 -5.72752 0
M  V30 4326 N 419.598 0.183864 -6.92556 0
M  V30 4327 N 421.391 0.323267 -5.6117 0
M  V30 4328 H 413.542 -0.892104 -1.92757 0
M  V30 4329 H 415.805 -0.340563 -0.884715 0
M  V30 4330 H 415.511 -0.693403 -3.44797 0
M  V30 4331 H 415.385 1.048 -3.62349 0
M  V30 4332 H 417.772 1.27971 -2.65909 0
M  V30 4333 H 417.853 -0.481739 -2.51223 0
M  V30 4334 H 417.497 -0.685887 -5.03247 0
M  V30 4335 H 417.427 1.09024 -5.15191 0
M  V30 4336 H 419.918 0.38307 -3.75953 0
M  V30 4337 H 420.231 0.15874 -7.72637 0
M  V30 4338 H 418.576 0.149708 -6.94839 0
M  V30 4339 H 421.767 0.390607 -4.66467 0
M  V30 4340 H 421.94 0.288539 -6.47357 0
M  V30 4341 N 415.346 1.54954 0.287554 0
M  V30 4342 C 416.276 1.89839 1.35954 0
M  V30 4343 C 417.257 0.758675 1.52244 0
M  V30 4344 O 418.442 1.01557 1.65529 0
M  V30 4345 C 415.572 2.15753 2.72154 0
M  V30 4346 C 414.526 3.3159 2.70614 0
M  V30 4347 C 413.852 3.42952 4.10229 0
M  V30 4348 C 415.152 4.68359 2.31165 0
M  V30 4349 H 416.846 2.79625 1.07007 0
M  V30 4350 H 414.392 1.3454 0.513316 0
M  V30 4351 H 416.345 2.38743 3.47246 0
M  V30 4352 H 415.069 1.22752 3.02654 0
M  V30 4353 H 413.728 3.08545 1.97979 0
M  V30 4354 H 413.376 2.47443 4.37928 0
M  V30 4355 H 413.076 4.20826 4.10097 0
M  V30 4356 H 414.6 3.68218 4.87081 0
M  V30 4357 H 416.014 4.9099 2.95976 0
M  V30 4358 H 414.411 5.49044 2.42221 0
M  V30 4359 H 415.481 4.68165 1.26291 0
M  V30 4360 N 416.824 -0.551391 1.4764 0
M  V30 4361 C 417.756 -1.67333 1.56628 0
M  V30 4362 C 418.769 -1.56398 0.452045 0
M  V30 4363 O 419.958 -1.6325 0.721926 0
M  V30 4364 C 417.058 -3.05841 1.45994 0
M  V30 4365 C 416.231 -3.42472 2.72088 0
M  V30 4366 C 415.29 -4.60168 2.55209 0
M  V30 4367 O 414.316 -4.64458 3.2904 0
M  V30 4368 N 415.518 -5.57024 1.63416 0
M  V30 4369 H 418.283 -1.60066 2.53375 0
M  V30 4370 H 415.844 -0.738169 1.44093 0
M  V30 4371 H 417.836 -3.8242 1.32428 0
M  V30 4372 H 416.406 -3.07302 0.573071 0
M  V30 4373 H 415.626 -2.55284 3.00373 0
M  V30 4374 H 416.914 -3.63723 3.55785 0
M  V30 4375 H 416.312 -5.56319 1.02594 0
M  V30 4376 H 414.869 -6.32906 1.558 0
M  V30 4377 N 418.302 -1.35869 -0.798587 0
M  V30 4378 C 419.234 -1.25305 -1.91915 0
M  V30 4379 C 420.247 -0.174548 -1.61862 0
M  V30 4380 O 421.436 -0.428499 -1.73281 0
M  V30 4381 C 418.536 -0.9086 -3.26493 0
M  V30 4382 C 417.709 -2.08711 -3.84394 0
M  V30 4383 C 416.768 -1.71717 -4.97393 0
M  V30 4384 O 415.794 -2.43692 -5.14396 0
M  V30 4385 N 416.996 -0.645473 -5.769 0
M  V30 4386 H 419.761 -2.21849 -2.01502 0
M  V30 4387 H 417.322 -1.29143 -0.976408 0
M  V30 4388 H 419.314 -0.642455 -3.99568 0
M  V30 4389 H 417.884 -0.0325815 -3.12583 0
M  V30 4390 H 417.104 -2.51659 -3.03416 0
M  V30 4391 H 418.392 -2.87468 -4.19809 0
M  V30 4392 H 417.79 -0.047648 -5.6568 0
M  V30 4393 H 416.347 -0.43913 -6.50319 0
M  V30 4394 N 419.78 1.02168 -1.19998 0
M  V30 4395 C 420.71 2.12488 -0.96804 0
M  V30 4396 C 421.691 1.69799 0.101185 0
M  V30 4397 O 422.876 1.94121 -0.0552993 0
M  V30 4398 C 420.006 3.43479 -0.513776 0
M  V30 4399 C 418.96 3.99884 -1.52566 0
M  V30 4400 C 418.286 5.26582 -0.928214 0
M  V30 4401 C 419.586 4.33861 -2.90795 0
M  V30 4402 H 421.28 2.32149 -1.89069 0
M  V30 4403 H 418.826 1.11564 -0.910468 0
M  V30 4404 H 420.779 4.20036 -0.338774 0
M  V30 4405 H 419.503 3.23561 0.444493 0
M  V30 4406 H 418.162 3.25429 -1.68794 0
M  V30 4407 H 417.81 5.02986 0.0378289 0
M  V30 4408 H 417.51 5.65284 -1.60397 0
M  V30 4409 H 419.034 6.05799 -0.764167 0
M  V30 4410 H 420.448 5.01327 -2.78109 0
M  V30 4411 H 418.845 4.83664 -3.55231 0
M  V30 4412 H 419.915 3.42848 -3.42904 0
M  V30 4413 N 421.258 1.00505 1.21394 0
M  V30 4414 C 422.506 0.686415 1.90086 0
M  V30 4415 C 422.827 -0.785264 1.7849 0
M  V30 4416 O 422.097 -1.56387 1.17983 0
M  V30 4417 H 420.677 0.2509 0.703604 0
M  V30 4418 H 423.339 1.27417 1.47482 0
M  V30 4419 H 422.435 0.959621 2.96981 0
M  V30 4420 N 422.737 -1.36956 0.779787 0
M  V30 4421 C 423.985 -1.99097 0.347079 0
M  V30 4422 C 424.306 -1.62206 -1.08232 0
M  V30 4423 O 423.576 -0.891373 -1.74446 0
M  V30 4424 H 422.156 -0.736409 0.125342 0
M  V30 4425 H 424.818 -1.67308 0.999696 0
M  V30 4426 H 423.914 -3.09107 0.431162 0
M  V30 4427 N 424.215 -0.530993 -1.48385 0
M  V30 4428 C 425.463 0.00273189 -2.021 0
M  V30 4429 C 425.784 1.34672 -1.41027 0
M  V30 4430 O 425.054 1.8724 -0.576012 0
M  V30 4431 H 423.634 0.00399774 -0.746989 0
M  V30 4432 H 426.296 -0.695054 -1.82085 0
M  V30 4433 H 425.392 0.11031 -3.11905 0
M  V30 4434 N 425.693 1.55336 -0.266172 0
M  V30 4435 C 426.603 2.2583 0.635458 0
M  V30 4436 C 427.619 1.28106 1.17749 0
M  V30 4437 O 428.795 1.61024 1.20968 0
M  V30 4438 C 425.86 2.95879 1.80712 0
M  V30 4439 C 424.921 4.09059 1.30265 0
M  V30 4440 C 424.154 4.75759 2.41846 0
M  V30 4441 O 424.377 4.41622 3.61007 0
M  V30 4442 O 423.311 5.63888 2.1051 0
M  V30 4443 H 427.137 3.03631 0.0646693 0
M  V30 4444 H 424.722 1.49361 -0.0339177 0
M  V30 4445 H 426.604 3.39932 2.49047 0
M  V30 4446 H 425.279 2.21002 2.36516 0
M  V30 4447 H 424.186 3.69482 0.586019 0
M  V30 4448 H 425.519 4.85811 0.790458 0
M  V30 4449 N 427.171 -0.0066808 1.57599 0
M  V30 4450 C 428.134 -0.985035 2.06953 0
M  V30 4451 C 429.134 -1.27663 0.977687 0
M  V30 4452 O 430.324 -1.22293 1.24057 0
M  V30 4453 C 427.456 -2.3118 2.50536 0
M  V30 4454 H 428.649 -0.558255 2.94658 0
M  V30 4455 H 426.202 -0.254011 1.54222 0
M  V30 4456 H 426.937 -2.78561 1.66054 0
M  V30 4457 H 426.722 -2.11338 3.3027 0
M  V30 4458 H 428.212 -3.01377 2.8907 0
M  V30 4459 N 428.649 -1.55105 -0.279332 0
M  V30 4460 C 429.898 -1.74618 -1.00952 0
M  V30 4461 C 430.211 -0.551096 -1.87676 0
M  V30 4462 O 431.417 -0.628507 -2.64125 0
M  V30 4463 C 429.873 -3.09025 -1.84476 0
M  V30 4464 C 429.481 -4.36081 -1.0265 0
M  V30 4465 C 431.225 -3.37891 -2.56963 0
M  V30 4466 C 429.132 -5.6153 -1.85576 0
M  V30 4467 H 428.062 -0.650868 -0.38064 0
M  V30 4468 H 430.713 -1.81569 -0.265475 0
M  V30 4469 H 429.095 -2.96095 -2.62952 0
M  V30 4470 H 430.269 -4.59909 -0.286354 0
M  V30 4471 H 428.584 -4.14312 -0.416464 0
M  V30 4472 H 431.181 -4.28822 -3.19399 0
M  V30 4473 H 431.524 -2.57737 -3.26921 0
M  V30 4474 H 432.057 -3.5189 -1.85522 0
M  V30 4475 H 428.796 -6.44413 -1.2005 0
M  V30 4476 H 428.316 -5.41854 -2.57204 0
M  V30 4477 H 429.995 -5.99594 -2.43096 0
M  V30 4478 N 430.127 0.543554 -1.4793 0
M  V30 4479 C 431.538 1.12561 -1.48953 0
M  V30 4480 C 431.889 1.94578 -0.251754 0
M  V30 4481 O 431.014 2.0665 0.642255 0
M  V30 4482 C 431.609 2.04801 -2.69892 0
M  V30 4483 C 430.168 2.58251 -2.73831 0
M  V30 4484 C 429.315 1.34918 -2.42265 0
M  V30 4485 H 432.266 0.32947 -1.55242 0
M  V30 4486 H 432.287 2.88886 -2.47639 0
M  V30 4487 H 431.799 1.4508 -3.59963 0
M  V30 4488 H 429.9 3.21732 -1.87934 0
M  V30 4489 H 430.013 2.98312 -3.74895 0
M  V30 4490 H 428.377 1.66046 -1.93134 0
M  V30 4491 H 429.16 0.769693 -3.3456 0
M  V30 4492 N 431.605 1.3629 0.791371 0
M  V30 4493 C 432.535 1.33137 1.91825 0
M  V30 4494 C 433.516 0.203168 1.68882 0
M  V30 4495 O 434.701 0.400509 1.90025 0
M  V30 4496 C 431.831 1.11793 3.28816 0
M  V30 4497 C 430.785 2.21417 3.66277 0
M  V30 4498 C 430.111 1.85218 5.01596 0
M  V30 4499 C 431.411 3.63489 3.75064 0
M  V30 4500 H 433.105 2.2743 1.9472 0
M  V30 4501 H 430.651 1.09479 0.935437 0
M  V30 4502 H 432.604 1.08222 4.07266 0
M  V30 4503 H 431.328 0.139501 3.26302 0
M  V30 4504 H 429.987 2.2411 2.90121 0
M  V30 4505 H 429.635 0.859544 4.95602 0
M  V30 4506 H 429.335 2.58611 5.27631 0
M  V30 4507 H 430.859 1.832 5.82469 0
M  V30 4508 H 432.273 3.63034 4.43711 0
M  V30 4509 H 430.67 4.35771 4.12582 0
M  V30 4510 H 431.74 3.98536 2.76219 0
M  V30 4511 N 433.083 -1.0153 1.20538 0
M  V30 4512 C 433.993 -2.13557 0.971113 0
M  V30 4513 C 435.009 -1.73845 -0.0734366 0
M  V30 4514 O 436.185 -2.01075 0.114299 0
M  V30 4515 C 433.25 -3.42661 0.527639 0
M  V30 4516 C 432.311 -3.96608 1.64319 0
M  V30 4517 C 431.544 -5.1955 1.22078 0
M  V30 4518 O 431.767 -5.70329 0.0900198 0
M  V30 4519 O 430.701 -5.66681 2.02871 0
M  V30 4520 H 434.527 -2.3619 1.90913 0
M  V30 4521 H 432.112 -1.11946 0.989362 0
M  V30 4522 H 433.994 -4.20404 0.289621 0
M  V30 4523 H 432.669 -3.21441 -0.381779 0
M  V30 4524 H 431.576 -3.20139 1.93551 0
M  V30 4525 H 432.909 -4.22219 2.52966 0
M  V30 4526 N 434.561 -1.01147 -1.20859 0
M  V30 4527 C 435.809 -0.696486 -1.89719 0
M  V30 4528 C 436.13 0.775788 -1.78904 0
M  V30 4529 O 435.4 1.55759 -1.18811 0
M  V30 4530 H 433.98 -0.254628 -0.702263 0
M  V30 4531 H 436.642 -1.28197 -1.46804 0
M  V30 4532 H 435.738 -0.975357 -2.96468 0
M  V30 4533 N 436.039 1.36541 -0.78704 0
M  V30 4534 C 437.455 1.52571 -0.46844 0
M  V30 4535 C 437.655 1.7415 1.01361 0
M  V30 4536 O 436.711 1.77163 1.79915 0
M  V30 4537 C 438.024 2.71299 -1.29682 0
M  V30 4538 C 439.572 2.85169 -1.29027 0
M  V30 4539 C 440.047 4.06898 -2.10233 0
M  V30 4540 N 441.538 4.1404 -2.07666 0
M  V30 4541 C 442.273 5.07301 -2.67271 0
M  V30 4542 N 441.769 6.06021 -3.35724 0
M  V30 4543 N 443.562 4.99898 -2.57018 0
M  V30 4544 H 435.713 1.20788 -1.74711 0
M  V30 4545 H 437.976 0.589364 -0.742532 0
M  V30 4546 H 437.682 2.61868 -2.34773 0
M  V30 4547 H 437.556 3.6539 -0.936479 0
M  V30 4548 H 439.943 2.94062 -0.247284 0
M  V30 4549 H 440.024 1.91992 -1.69035 0
M  V30 4550 H 439.668 3.98766 -3.1456 0
M  V30 4551 H 439.598 4.99218 -1.67597 0
M  V30 4552 H 442.089 3.43357 -1.57843 0
M  V30 4553 H 442.402 6.73741 -3.78541 0
M  V30 4554 H 440.747 6.06253 -3.39826 0
M  V30 4555 H 443.938 4.21724 -2.03142 0
M  V30 4556 H 444.111 5.72392 -3.03761 0
M  V30 4557 N 437.518 0.538854 1.48102 0
M  V30 4558 C 438.428 -0.222648 2.33541 0
M  V30 4559 C 439.444 -0.930225 1.47047 0
M  V30 4560 O 440.62 -0.903211 1.80011 0
M  V30 4561 C 437.685 -1.25064 3.23357 0
M  V30 4562 C 436.746 -0.552469 4.2573 0
M  V30 4563 C 435.979 -1.53149 5.11254 0
M  V30 4564 O 436.202 -2.76487 4.9891 0
M  V30 4565 O 435.136 -1.06602 5.92385 0
M  V30 4566 H 438.962 0.477707 2.99919 0
M  V30 4567 H 436.547 0.299669 1.46364 0
M  V30 4568 H 438.429 -1.8445 3.78888 0
M  V30 4569 H 437.104 -1.93325 2.59629 0
M  V30 4570 H 436.011 0.082114 3.7401 0
M  V30 4571 H 437.344 0.0883526 4.92121 0
M  V30 4572 N 438.996 -1.55193 0.274407 0
M  V30 4573 C 439.906 -2.26164 -0.623473 0
M  V30 4574 C 440.922 -1.28729 -1.17068 0
M  V30 4575 O 442.098 -1.61663 -1.20112 0
M  V30 4576 C 439.163 -2.96833 -1.7914 0
M  V30 4577 C 438.224 -4.09745 -1.28093 0
M  V30 4578 C 437.457 -4.77034 -2.3932 0
M  V30 4579 O 437.68 -4.4353 -3.5866 0
M  V30 4580 O 436.614 -5.64996 -2.07516 0
M  V30 4581 H 440.44 -3.03661 -0.0485661 0
M  V30 4582 H 438.025 -1.49341 0.0418382 0
M  V30 4583 H 439.907 -3.41248 -2.4724 0
M  V30 4584 H 438.582 -2.22253 -2.35341 0
M  V30 4585 H 437.489 -3.69787 -0.566416 0
M  V30 4586 H 438.822 -4.86224 -0.764683 0
M  V30 4587 N 440.474 -0.00167713 -1.576 0
M  V30 4588 C 441.422 1.0074 -2.09652 0
M  V30 4589 C 442.416 1.35483 -1.01689 0
M  V30 4590 O 443.622 1.34028 -1.20152 0
M  V30 4591 H 439.997 0.342537 -0.669457 0
M  V30 4592 H 441.968 0.542841 -2.93421 0
M  V30 4593 C 440.717 2.2899 -2.61647 0
M  V30 4594 H 440.04 2.03124 -3.44355 0
M  V30 4595 H 441.48 2.9787 -3.01744 0
M  V30 4596 C 439.939 3.00085 -1.53136 0
M  V30 4597 O 440.469 3.91135 -0.91524 0
M  V30 4598 N 438.675 2.6194 -1.25841 0
M  V30 4599 H 438.222 1.8798 -1.76129 0
M  V30 4600 H 438.18 3.09822 -0.534576 0
M  V30 4601 N 441.952 1.55251 0.271103 0
M  V30 4602 C 443.201 1.75151 1.00025 0
M  V30 4603 C 443.514 0.561041 1.87381 0
M  V30 4604 O 444.72 0.642506 2.63788 0
M  V30 4605 C 443.176 3.09999 1.82835 0
M  V30 4606 C 442.784 4.3662 1.00336 0
M  V30 4607 C 444.528 3.39249 2.55168 0
M  V30 4608 C 442.435 5.62506 1.82595 0
M  V30 4609 H 441.365 0.652877 0.377183 0
M  V30 4610 H 444.016 1.81708 0.255843 0
M  V30 4611 H 442.398 2.97485 2.61378 0
M  V30 4612 H 443.572 4.60055 0.261959 0
M  V30 4613 H 441.887 4.14527 0.394486 0
M  V30 4614 H 444.484 4.3051 3.1712 0
M  V30 4615 H 444.827 2.59467 3.2555 0
M  V30 4616 H 445.36 3.52869 1.83653 0
M  V30 4617 H 442.099 6.45041 1.16631 0
M  V30 4618 H 441.619 5.43211 2.54327 0
M  V30 4619 H 443.298 6.00875 2.39913 0
M  V30 4620 N 443.43 -0.535701 1.48216 0
M  V30 4621 C 444.676 -1.29375 1.56173 0
M  V30 4622 C 445.009 -1.92804 0.232429 0
M  V30 4623 O 444.284 -1.78992 -0.761048 0
M  V30 4624 C 444.567 -2.38747 2.69577 0
M  V30 4625 C 444.42 -1.80046 4.12193 0
M  V30 4626 C 445.739 -3.40551 2.78771 0
M  V30 4627 H 442.858 -0.469027 0.568491 0
M  V30 4628 H 445.5 -0.597358 1.80365 0
M  V30 4629 H 443.65 -2.98147 2.4908 0
M  V30 4630 H 445.322 -1.24742 4.44114 0
M  V30 4631 H 443.565 -1.10609 4.19462 0
M  V30 4632 H 444.236 -2.59212 4.87353 0
M  V30 4633 H 446.712 -2.91099 2.97322 0
M  V30 4634 H 445.588 -4.1448 3.59857 0
M  V30 4635 H 445.849 -4.00746 1.86696 0
M  V30 4636 N 444.908 -1.36708 -0.784132 0
M  V30 4637 C 446.155 -1.31231 -1.54222 0
M  V30 4638 C 446.483 0.106864 -1.94206 0
M  V30 4639 O 445.738 1.07734 -1.63376 0
M  V30 4640 C 446.037 -2.18571 -2.82774 0
M  V30 4641 C 445.703 -3.67039 -2.61903 0
M  V30 4642 C 444.365 -4.07503 -2.55919 0
M  V30 4643 C 446.717 -4.61149 -2.4288 0
M  V30 4644 C 444.045 -5.40211 -2.28886 0
M  V30 4645 C 446.397 -5.94081 -2.17373 0
M  V30 4646 C 445.061 -6.33664 -2.09825 0
M  V30 4647 H 444.331 -0.48021 -0.56434 0
M  V30 4648 H 446.978 -1.68807 -0.904233 0
M  V30 4649 H 445.283 -1.73949 -3.51068 0
M  V30 4650 H 446.98 -2.11655 -3.40592 0
M  V30 4651 H 443.57 -3.34941 -2.67418 0
M  V30 4652 H 447.754 -4.30756 -2.46501 0
M  V30 4653 H 443.01 -5.69855 -2.21529 0
M  V30 4654 H 447.184 -6.66566 -2.01649 0
M  V30 4655 H 444.811 -7.36423 -1.88641 0
M  V30 4656 N 446.386 1.0089 -1.21074 0
M  V30 4657 C 447.296 2.13039 -0.982425 0
M  V30 4658 C 448.312 1.73881 0.0642161 0
M  V30 4659 O 449.488 2.01012 -0.12496 0
M  V30 4660 C 446.553 3.42377 -0.545803 0
M  V30 4661 C 445.614 3.95731 -1.6642 0
M  V30 4662 C 444.847 5.18896 -1.24832 0
M  V30 4663 O 445.07 5.70273 -0.120265 0
M  V30 4664 O 444.004 5.65597 -2.05873 0
M  V30 4665 H 447.83 2.35175 -1.92163 0
M  V30 4666 H 445.415 1.1142 -0.995285 0
M  V30 4667 H 447.297 4.20244 -0.311912 0
M  V30 4668 H 445.972 3.21639 0.364727 0
M  V30 4669 H 444.879 3.19108 -1.95246 0
M  V30 4670 H 446.212 4.20872 -2.55201 0
M  V30 4671 N 447.864 1.01787 1.20321 0
M  V30 4672 C 449.11 0.708985 1.90003 0
M  V30 4673 C 449.443 -0.759572 1.78729 0
M  V30 4674 O 448.718 -1.55198 1.17234 0
M  V30 4675 C 449.001 1.1469 3.41348 0
M  V30 4676 C 448.854 2.67586 3.61549 0
M  V30 4677 C 450.173 0.71915 4.34185 0
M  V30 4678 H 447.292 0.259034 0.689978 0
M  V30 4679 H 449.934 1.26584 1.41692 0
M  V30 4680 H 448.084 0.673128 3.82624 0
M  V30 4681 H 449.756 3.22826 3.29517 0
M  V30 4682 H 447.999 3.085 3.04976 0
M  V30 4683 H 448.67 2.93281 4.67643 0
M  V30 4684 H 451.146 1.12647 4.00562 0
M  V30 4685 H 450.022 1.05358 5.38694 0
M  V30 4686 H 450.283 -0.379111 4.40472 0
M  V30 4687 N 449.342 -1.36122 0.79427 0
M  V30 4688 C 450.753 -1.81646 0.431446 0
M  V30 4689 C 451.104 -1.66043 -1.04518 0
M  V30 4690 O 450.229 -1.1841 -1.8113 0
M  V30 4691 C 450.824 -3.29785 0.776341 0
M  V30 4692 C 449.383 -3.73501 0.466282 0
M  V30 4693 C 448.53 -2.58313 1.00844 0
M  V30 4694 H 451.481 -1.24274 0.986995 0
M  V30 4695 H 451.502 -3.80437 0.0692413 0
M  V30 4696 H 451.014 -3.4111 1.8511 0
M  V30 4697 H 449.115 -3.67733 -0.600245 0
M  V30 4698 H 449.228 -4.68754 0.990288 0
M  V30 4699 H 447.592 -2.5102 0.431406 0
M  V30 4700 H 448.375 -2.72421 2.08906 0
M  V30 4701 N 450.82 -0.546701 -1.47814 0
M  V30 4702 C 451.767 0.206854 -2.29871 0
M  V30 4703 C 452.737 0.918235 -1.38411 0
M  V30 4704 O 453.922 0.915991 -1.67375 0
M  V30 4705 C 451.062 1.23746 -3.22151 0
M  V30 4706 C 450.175 0.533216 -4.28697 0
M  V30 4707 C 449.31 1.5482 -5.08138 0
M  V30 4708 C 448.349 0.828347 -6.06469 0
M  V30 4709 N 447.486 1.78966 -6.78908 0
M  V30 4710 H 452.326 -0.499037 -2.93792 0
M  V30 4711 H 449.863 -0.25793 -1.44821 0
M  V30 4712 H 451.821 1.84746 -3.74065 0
M  V30 4713 H 450.451 1.91151 -2.60117 0
M  V30 4714 H 449.503 -0.191089 -3.7992 0
M  V30 4715 H 450.815 -0.0311987 -4.9879 0
M  V30 4716 H 449.969 2.23202 -5.6415 0
M  V30 4717 H 448.708 2.14652 -4.37922 0
M  V30 4718 H 447.713 0.130539 -5.49645 0
M  V30 4719 H 448.938 0.235907 -6.7869 0
M  V30 4720 H 446.884 2.37675 -6.1143 0
M  V30 4721 H 446.801 1.27712 -7.45135 0
M  V30 4722 H 448.069 2.46496 -7.395 0
M  V30 4723 N 452.299 1.55045 -0.282633 0
M  V30 4724 C 453.209 2.26491 0.61147 0
M  V30 4725 C 454.225 1.29348 1.16384 0
M  V30 4726 O 455.401 1.62298 1.19253 0
M  V30 4727 C 452.466 2.97779 1.77563 0
M  V30 4728 C 451.527 4.10418 1.25919 0
M  V30 4729 C 450.76 4.78297 2.36786 0
M  V30 4730 O 450.983 4.45426 3.56303 0
M  V30 4731 O 449.917 5.66089 2.04517 0
M  V30 4732 H 453.743 3.03683 0.0324615 0
M  V30 4733 H 451.328 1.49317 -0.0497576 0
M  V30 4734 H 453.21 3.42554 2.45427 0
M  V30 4735 H 451.885 2.23498 2.34159 0
M  V30 4736 H 450.792 3.70082 0.546797 0
M  V30 4737 H 452.125 4.86622 0.738887 0
M  V30 4738 N 453.777 0.010035 1.57597 0
M  V30 4739 C 454.707 -0.976857 2.12084 0
M  V30 4740 C 455.688 -1.35191 1.03235 0
M  V30 4741 O 456.873 -1.43389 1.3097 0
M  V30 4742 C 454.003 -2.26548 2.63236 0
M  V30 4743 C 452.957 -2.03175 3.76701 0
M  V30 4744 C 452.283 -3.38138 4.14206 0
M  V30 4745 C 453.583 -1.38625 5.03568 0
M  V30 4746 H 455.277 -0.523145 2.94794 0
M  V30 4747 H 452.823 -0.250195 1.4181 0
M  V30 4748 H 454.776 -2.95952 2.99984 0
M  V30 4749 H 453.5 -2.74051 1.77661 0
M  V30 4750 H 452.159 -1.36195 3.40362 0
M  V30 4751 H 451.807 -3.83363 3.25641 0
M  V30 4752 H 451.507 -3.23312 4.90656 0
M  V30 4753 H 453.031 -4.08841 4.53521 0
M  V30 4754 H 454.445 -1.98 5.38023 0
M  V30 4755 H 452.842 -1.34256 5.84889 0
M  V30 4756 H 453.912 -0.356722 4.83586 0
M  V30 4757 N 455.255 -1.55392 -0.262866 0
M  V30 4758 C 456.671 -1.47459 -0.610582 0
M  V30 4759 C 456.871 -0.697031 -1.8906 0
M  V30 4760 O 455.927 -0.219952 -2.5154 0
M  V30 4761 C 457.24 -2.91751 -0.728131 0
M  V30 4762 C 458.788 -3.02027 -0.821517 0
M  V30 4763 C 459.263 -4.47594 -0.97076 0
M  V30 4764 N 460.754 -4.51465 -1.03603 0
M  V30 4765 C 461.489 -5.61326 -1.17049 0
M  V30 4766 N 460.985 -6.81032 -1.2715 0
M  V30 4767 N 462.778 -5.49089 -1.20239 0
M  V30 4768 H 454.929 -2.04395 0.577632 0
M  V30 4769 H 457.192 -0.927287 0.197086 0
M  V30 4770 H 456.898 -3.51413 0.142132 0
M  V30 4771 H 456.772 -3.4134 -1.6052 0
M  V30 4772 H 459.159 -2.42456 -1.68224 0
M  V30 4773 H 459.24 -2.55674 0.0803688 0
M  V30 4774 H 458.884 -5.07771 -0.114655 0
M  V30 4775 H 458.814 -4.91613 -1.88745 0
M  V30 4776 H 461.305 -3.6524 -0.96996 0
M  V30 4777 H 461.618 -7.60511 -1.37271 0
M  V30 4778 H 459.963 -6.83824 -1.24136 0
M  V30 4779 H 463.154 -4.54507 -1.11985 0
M  V30 4780 H 463.327 -6.34749 -1.30373 0
M  V30 4781 N 456.733 0.527833 -1.48498 0
M  V30 4782 C 457.979 1.28545 -1.56857 0
M  V30 4783 C 458.312 1.92678 -0.242651 0
M  V30 4784 O 457.587 1.79394 0.751545 0
M  V30 4785 C 457.87 2.37314 -2.70839 0
M  V30 4786 C 457.723 1.77858 -4.13142 0
M  V30 4787 C 459.042 3.39068 -2.80573 0
M  V30 4788 H 456.161 0.466006 -0.570971 0
M  V30 4789 H 458.803 0.587784 -1.8068 0
M  V30 4790 H 456.953 2.96821 -2.50658 0
M  V30 4791 H 458.625 1.22385 -4.44769 0
M  V30 4792 H 456.868 1.08383 -4.20042 0
M  V30 4793 H 457.539 2.56624 -4.88721 0
M  V30 4794 H 460.015 2.89518 -2.98862 0
M  V30 4795 H 458.891 4.12566 -3.6205 0
M  V30 4796 H 459.152 3.9975 -1.88818 0
M  V30 4797 N 458.211 1.37122 0.776871 0
M  V30 4798 C 459.488 1.22586 1.52421 0
M  V30 4799 C 459.868 -0.182726 2.10308 0
M  V30 4800 O 459.216 -1.18979 1.9508 0
M  V30 4801 C 459.426 2.31782 2.60918 0
M  V30 4802 C 460.774 2.69071 3.2846 0
M  V30 4803 O 461.798 2.3092 2.71209 0
M  V30 4804 O 460.657 3.3478 4.31954 0
M  V30 4805 H 457.751 0.478045 0.674835 0
M  V30 4806 H 460.297 1.48888 0.814275 0
M  V30 4807 H 459.069 3.26131 2.16227 0
M  V30 4808 H 458.692 2.06916 3.39517 0
M  V30 4809 N 459.689 -1.00246 1.21608 0
M  V30 4810 C 460.938 -1.73476 1.02902 0
M  V30 4811 C 461.251 -1.90643 -0.437561 0
M  V30 4812 O 462.457 -2.61105 -0.74407 0
M  V30 4813 C 460.913 -3.12079 1.79261 0
M  V30 4814 C 460.521 -3.02877 3.30106 0
M  V30 4815 C 462.265 -3.89421 1.68972 0
M  V30 4816 C 460.172 -4.36575 3.98944 0
M  V30 4817 H 459.102 -0.650408 0.381425 0
M  V30 4818 H 461.753 -1.11985 1.45367 0
M  V30 4819 H 460.135 -3.74196 1.2959 0
M  V30 4820 H 461.309 -2.49983 3.87098 0
M  V30 4821 H 459.624 -2.39022 3.40965 0
M  V30 4822 H 462.221 -4.88362 2.17731 0
M  V30 4823 H 462.564 -4.1122 0.648397 0
M  V30 4824 H 463.097 -3.33963 2.16133 0
M  V30 4825 H 459.836 -4.19978 5.03288 0
M  V30 4826 H 459.356 -4.8942 3.4674 0
M  V30 4827 H 461.035 -5.05364 4.04 0
M  V30 4828 N 461.167 -1.02423 -1.1978 0
M  V30 4829 C 462.583 -0.740459 -1.41384 0
M  V30 4830 C 462.783 0.676827 -1.89793 0
M  V30 4831 O 461.839 1.4435 -2.0717 0
M  V30 4832 C 463.152 -1.77264 -2.42895 0
M  V30 4833 C 464.7 -1.79165 -2.56649 0
M  V30 4834 C 465.175 -2.8133 -3.6141 0
M  V30 4835 N 466.666 -2.80118 -3.68901 0
M  V30 4836 C 467.401 -3.55824 -4.49641 0
M  V30 4837 N 466.897 -4.41231 -5.34123 0
M  V30 4838 N 468.69 -3.44387 -4.44246 0
M  V30 4839 H 460.841 -1.9391 -0.866764 0
M  V30 4840 H 463.104 -0.838074 -0.443098 0
M  V30 4841 H 462.81 -2.7884 -2.14339 0
M  V30 4842 H 462.684 -1.59108 -3.42001 0
M  V30 4843 H 465.071 -0.782702 -2.84531 0
M  V30 4844 H 465.152 -2.01396 -1.57713 0
M  V30 4845 H 464.796 -3.82394 -3.34271 0
M  V30 4846 H 464.726 -2.56359 -4.59986 0
M  V30 4847 H 467.217 -2.1817 -3.08562 0
M  V30 4848 H 467.53 -4.95747 -5.92836 0
M  V30 4849 H 465.875 -4.45306 -5.33599 0
M  V30 4850 H 469.066 -2.7708 -3.77285 0
M  V30 4851 H 469.239 -4.0364 -5.06931 0
M  V30 4852 N 462.645 1.35699 -0.801477 0
M  V30 4853 C 463.555 2.33661 -0.209691 0
M  V30 4854 C 464.571 1.6162 0.644591 0
M  V30 4855 O 465.747 1.93529 0.557545 0
M  V30 4856 C 462.812 3.40816 0.636033 0
M  V30 4857 C 461.873 4.28639 -0.238147 0
M  V30 4858 C 461.106 5.30676 0.567307 0
M  V30 4859 O 461.329 5.41174 1.8024 0
M  V30 4860 O 460.263 6.01887 -0.0391336 0
M  V30 4861 H 464.089 2.8606 -1.01996 0
M  V30 4862 H 461.674 1.38379 -0.563164 0
M  V30 4863 H 463.556 4.06301 1.11791 0
M  V30 4864 H 462.231 2.90696 1.42399 0
M  V30 4865 H 461.138 3.66152 -0.767044 0
M  V30 4866 H 462.471 4.82143 -0.989915 0
M  V30 4867 N 464.123 0.554532 1.47522 0
M  V30 4868 C 465.369 0.0295227 2.02779 0
M  V30 4869 C 465.702 -1.31582 1.42828 0
M  V30 4870 O 464.977 -1.85561 0.582872 0
M  V30 4871 C 465.26 -0.0664057 3.60039 0
M  V30 4872 C 465.113 1.30585 4.30427 0
M  V30 4873 C 466.432 -0.781162 4.33112 0
M  V30 4874 H 463.551 0.0122027 0.736899 0
M  V30 4875 H 466.193 0.716305 1.7598 0
M  V30 4876 H 464.343 -0.651307 3.83002 0
M  V30 4877 H 466.015 1.93374 4.18813 0
M  V30 4878 H 464.258 1.88125 3.90886 0
M  V30 4879 H 464.929 1.19147 5.38988 0
M  V30 4880 H 467.405 -0.284565 4.15126 0
M  V30 4881 H 466.281 -0.817237 5.42782 0
M  V30 4882 H 466.542 -1.83672 4.0214 0
M  V30 4883 N 465.601 -1.54893 0.290851 0
M  V30 4884 C 466.878 -1.91991 -0.373989 0
M  V30 4885 C 467.258 -1.21694 -1.72493 0
M  V30 4886 O 466.606 -0.34917 -2.25816 0
M  V30 4887 C 466.816 -3.45419 -0.498703 0
M  V30 4888 C 468.164 -4.1748 -0.774298 0
M  V30 4889 O 469.188 -3.51398 -0.582908 0
M  V30 4890 O 468.047 -5.3445 -1.14129 0
M  V30 4891 H 465.141 -0.800593 -0.207315 0
M  V30 4892 H 467.687 -1.66297 0.338164 0
M  V30 4893 H 466.459 -3.88688 0.451392 0
M  V30 4894 H 466.082 -3.77117 -1.25972 0
M  V30 4895 O 467.118 -0.15707 -1.60734 0
M  V30 4896 H 467.809 0.435157 -1.88749 0
M  V30 END ATOM
M  V30 BEGIN BOND
M  V30 END BOND
M  V30 END CTAB
M  END
$$$$
