drugbank_target|Q56839 2-oxopropyl-CoM reductase, carboxylating (DB03147; DB03163)
 OpenBabel12092119593D

  0  0  0     0  0            999 V3000
M  V30 BEGIN CTAB
M  V30 COUNTS 8025 8108 0 0 0
M  V30 BEGIN ATOM
M  V30 1 H -0.908 1.98254 -0.117106 0
M  V30 2 N 0 1.576 0 0
M  V30 3 C 0.933 2.03868 1.02534 0
M  V30 4 C 1.911 0.928543 1.3348 0
M  V30 5 O 3.095 1.19667 1.45644 0
M  V30 6 C 0.222 2.43627 2.35294 0
M  V30 7 C -0.732 3.65373 2.2001 0
M  V30 8 S 0.101 5.13292 1.52614 0
M  V30 9 C 1.257 5.56322 2.86805 0
M  V30 10 H 1.49 2.90518 0.631377 0
M  V30 11 H -0.977 1.52953 0.210867 0
M  V30 12 H 0.981 2.67203 3.11629 0
M  V30 13 H -0.358 1.57376 2.7183 0
M  V30 14 H -1.165 3.90944 3.18086 0
M  V30 15 H -1.563 3.418 1.51819 0
M  V30 16 H 0.729 5.58782 3.83104 0
M  V30 17 H 1.672 6.56266 2.65933 0
M  V30 18 H 2.08 4.83886 2.90714 0
M  V30 19 N 1.4781 -0.272755 1.55222 0
M  V30 20 C 2.4251 -1.33716 1.88119 0
M  V30 21 C 3.3951 -1.49066 0.73271 0
M  V30 22 O 4.5801 -1.63469 0.984002 0
M  V30 23 C 1.7201 -2.69238 2.15882 0
M  V30 24 C 0.8331 -2.62108 3.43399 0
M  V30 25 C -0.0319 -3.89811 3.60861 0
M  V30 26 C -0.9929 -3.77193 4.8207 0
M  V30 27 N -1.8559 -4.9673 4.96189 0
M  V30 28 H 2.9841 -1.04962 2.78903 0
M  V30 29 H 0.5211 -0.507088 1.38083 0
M  V30 30 H 2.4791 -3.48089 2.29978 0
M  V30 31 H 1.1091 -2.96194 1.28331 0
M  V30 32 H 0.1611 -1.74967 3.37773 0
M  V30 33 H 1.4731 -2.48685 4.32386 0
M  V30 34 H 0.6271 -4.77103 3.74777 0
M  V30 35 H -0.6339 -4.06102 2.7006 0
M  V30 36 H -1.6289 -2.88284 4.68159 0
M  V30 37 H -0.4039 -3.62421 5.74307 0
M  V30 38 H -2.4579 -5.13431 4.08319 0
M  V30 39 H -2.5409 -4.85839 5.79221 0
M  V30 40 H -1.2729 -5.85594 5.1449 0
M  V30 41 N 2.9562 -1.48159 -0.537278 0
M  V30 42 C 4.2022 -1.56035 -1.29541 0
M  V30 43 C 4.5352 -0.230377 -1.92829 0
M  V30 44 O 3.8102 0.762952 -1.78911 0
M  V30 45 C 4.0932 -2.69323 -2.39034 0
M  V30 46 C 3.9462 -4.12002 -1.80485 0
M  V30 47 C 5.2652 -2.78408 -3.40847 0
M  V30 48 H 2.3842 -0.567992 -0.469632 0
M  V30 49 H 5.0262 -1.80302 -0.599277 0
M  V30 50 H 3.1762 -2.48763 -2.98412 0
M  V30 51 H 4.8482 -4.43981 -1.25215 0
M  V30 52 H 3.0912 -4.19344 -1.11055 0
M  V30 53 H 3.7622 -4.87077 -2.59731 0
M  V30 54 H 6.2382 -2.97012 -2.91416 0
M  V30 55 H 5.1142 -3.59416 -4.14863 0
M  V30 56 H 5.3752 -1.86269 -4.00944 0
M  V30 57 N 4.4343 0.785586 -1.36625 0
M  V30 58 C 5.6803 1.5452 -1.32269 0
M  V30 59 C 6.0353 1.92159 0.0962266 0
M  V30 60 O 5.3283 1.60158 1.05167 0
M  V30 61 C 5.5223 2.83007 -2.1827 0
M  V30 62 C 5.3513 2.57925 -3.68382 0
M  V30 63 C 4.1213 2.52752 -4.37544 0
M  V30 64 C 6.3193 2.26861 -4.61561 0
M  V30 65 N 4.3013 2.19608 -5.73276 0
M  V30 66 C 5.6723 2.03738 -5.85569 0
M  V30 67 C 7.7273 2.129 -4.50087 0
M  V30 68 C 6.4303 1.68065 -6.9939 0
M  V30 69 C 8.4563 1.78626 -5.63779 0
M  V30 70 C 7.8183 1.56353 -6.86828 0
M  V30 71 H 3.9173 0.566301 -0.539283 0
M  V30 72 H 6.5013 0.917736 -1.71714 0
M  V30 73 H 4.6723 3.43614 -1.81063 0
M  V30 74 H 6.4043 3.48775 -2.05275 0
M  V30 75 H 3.1593 2.6813 -3.90389 0
M  V30 76 H 3.5833 2.05771 -6.44971 0
M  V30 77 H 8.2253 2.28808 -3.55537 0
M  V30 78 H 5.9433 1.50895 -7.93887 0
M  V30 79 H 9.5293 1.68502 -5.56865 0
M  V30 80 H 8.4093 1.30223 -7.73312 0
M  V30 81 N 5.9124 1.20967 1.01018 0
M  V30 82 C 6.8604 0.961223 2.1181 0
M  V30 83 C 7.8544 -0.0897034 1.69162 0
M  V30 84 O 9.0604 0.0612271 1.79896 0
M  V30 85 H 5.4354 0.29355 0.692338 0
M  V30 86 H 7.4064 1.90178 2.29946 0
M  V30 87 C 6.1554 0.536854 3.4353 0
M  V30 88 H 5.4784 1.33713 3.76777 0
M  V30 89 H 6.9184 0.402286 4.22087 0
M  V30 90 C 5.3774 -0.751574 3.2841 0
M  V30 91 O 5.9074 -1.80841 3.58691 0
M  V30 92 N 4.1134 -0.716079 2.81639 0
M  V30 93 H 3.6604 0.144236 2.57196 0
M  V30 94 H 3.6184 -1.57847 2.71904 0
M  V30 95 N 7.3905 -1.2043 1.01659 0
M  V30 96 C 8.3535 -2.21433 0.591616 0
M  V30 97 C 9.3535 -1.57203 -0.338226 0
M  V30 98 O 10.5435 -1.73737 -0.126918 0
M  V30 99 C 7.6755 -3.40628 -0.136058 0
M  V30 100 H 8.8685 -2.60545 1.48514 0
M  V30 101 H 6.4215 -1.33893 0.806379 0
M  V30 102 H 7.1565 -3.07019 -1.04449 0
M  V30 103 H 6.9415 -3.88475 0.531917 0
M  V30 104 H 8.4315 -4.15475 -0.420735 0
M  V30 105 N 8.8686 -0.792821 -1.36206 0
M  V30 106 C 10.2846 -0.474903 -1.52371 0
M  V30 107 C 10.4846 1.00622 -1.74578 0
M  V30 108 O 9.5406 1.79162 -1.77924 0
M  V30 109 C 10.8536 -1.3083 -2.70747 0
M  V30 110 C 12.4016 -1.30234 -2.84619 0
M  V30 111 C 12.8766 -2.11956 -4.06004 0
M  V30 112 N 14.3676 -2.09419 -4.13156 0
M  V30 113 C 15.1026 -2.69419 -5.06163 0
M  V30 114 N 14.5986 -3.3829 -6.04592 0
M  V30 115 N 16.3916 -2.59134 -4.98804 0
M  V30 116 H 8.5426 -1.75222 -1.20046 0
M  V30 117 H 10.8056 -0.745024 -0.586211 0
M  V30 118 H 10.5116 -2.35881 -2.6087 0
M  V30 119 H 10.3856 -0.95196 -3.6499 0
M  V30 120 H 12.7726 -0.259748 -2.93955 0
M  V30 121 H 12.8536 -1.69847 -1.91274 0
M  V30 122 H 12.4976 -3.16248 -3.97429 0
M  V30 123 H 12.4276 -1.69711 -4.98503 0
M  V30 124 H 14.9186 -1.59297 -3.42685 0
M  V30 125 H 15.2316 -3.81394 -6.7213 0
M  V30 126 H 13.5766 -3.42393 -6.04807 0
M  V30 127 H 16.7676 -2.04927 -4.20859 0
M  V30 128 H 16.9406 -3.06185 -5.711 0
M  V30 129 N 10.3467 1.47872 -0.545128 0
M  V30 130 C 11.2947 2.31533 0.222512 0
M  V30 131 C 12.2887 1.42177 0.920985 0
M  V30 132 O 13.4947 1.59005 0.843645 0
M  V30 133 H 9.8697 0.746519 0.0906278 0
M  V30 134 H 11.8407 2.94139 -0.50246 0
M  V30 135 C 10.5897 3.2457 1.24699 0
M  V30 136 H 9.9127 3.93283 0.718944 0
M  V30 137 H 11.3527 3.85963 1.75523 0
M  V30 138 C 9.8117 2.47237 2.28856 0
M  V30 139 O 10.3417 2.20808 3.35569 0
M  V30 140 N 8.5477 2.08461 2.02466 0
M  V30 141 H 8.0947 2.30155 1.157 0
M  V30 142 H 8.0527 1.57033 2.72375 0
M  V30 143 N 11.8248 0.280983 1.55075 0
M  V30 144 C 13.1018 -0.386207 1.91749 0
M  V30 145 C 13.4818 -1.73264 1.20594 0
M  V30 146 O 12.8298 -2.26034 0.334784 0
M  V30 147 C 13.0398 -0.520687 3.45094 0
M  V30 148 C 14.3878 -0.800865 4.16979 0
M  V30 149 O 15.4118 -0.605271 3.5102 0
M  V30 150 O 14.2708 -1.1753 5.33712 0
M  V30 151 H 11.3648 -0.212408 0.799257 0
M  V30 152 H 13.9108 0.327568 1.66509 0
M  V30 153 H 12.6828 0.426633 3.88967 0
M  V30 154 H 12.3058 -1.2837 3.76307 0
M  V30 155 N 13.3029 -1.57598 0.00835791 0
M  V30 156 C 14.2529 -2.05431 -0.989045 0
M  V30 157 C 15.2369 -0.950662 -1.29812 0
M  V30 158 O 16.4289 -1.21438 -1.28771 0
M  V30 159 C 13.5579 -2.56801 -2.27833 0
M  V30 160 C 12.6439 -3.74058 -1.99853 0
M  V30 161 N 13.0349 -4.8544 -1.42062 0
M  V30 162 C 11.3329 -3.82148 -2.29953 0
M  V30 163 C 12.0339 -5.66817 -1.30743 0
M  V30 164 N 11.0099 -5.13077 -1.7959 0
M  V30 165 H 14.8119 -2.88955 -0.536853 0
M  V30 166 H 12.3259 -1.61199 -0.197148 0
M  V30 167 H 14.3229 -2.89349 -3.00137 0
M  V30 168 H 12.9829 -1.74699 -2.73698 0
M  V30 169 H 13.9939 -5.0612 -1.09833 0
M  V30 170 H 10.6709 -3.10916 -2.78635 0
M  V30 171 H 12.0609 -6.66343 -0.862328 0
M  V30 172 N 14.781 0.264519 -1.55364 0
M  V30 173 C 15.711 1.33121 -1.91836 0
M  V30 174 C 16.692 1.51101 -0.781192 0
M  V30 175 O 17.877 1.64003 -1.04003 0
M  V30 176 C 15.007 2.68921 -2.19769 0
M  V30 177 C 13.961 2.65661 -3.35571 0
M  V30 178 C 13.287 4.05093 -3.49004 0
M  V30 179 C 14.587 2.24187 -4.71739 0
M  V30 180 H 16.281 1.02844 -2.81182 0
M  V30 181 H 13.827 0.493286 -1.35287 0
M  V30 182 H 15.78 3.43663 -2.43872 0
M  V30 183 H 14.504 3.00799 -1.27231 0
M  V30 184 H 13.163 1.93377 -3.1145 0
M  V30 185 H 12.811 4.34206 -2.53917 0
M  V30 186 H 12.511 4.03804 -4.26868 0
M  V30 187 H 14.035 4.81561 -3.75408 0
M  V30 188 H 15.449 2.88654 -4.9533 0
M  V30 189 H 13.846 2.34044 -5.52579 0
M  V30 190 H 14.916 1.19327 -4.69988 0
M  V30 191 N 16.2591 1.48442 0.529413 0
M  V30 192 C 17.4871 1.60151 1.30994 0
M  V30 193 C 17.9021 0.261985 1.86973 0
M  V30 194 O 17.2591 -0.748805 1.66431 0
M  V30 195 C 17.3101 2.64854 2.46038 0
M  V30 196 O 17.0311 3.93608 1.92365 0
M  V30 197 C 18.5321 2.87007 3.37849 0
M  V30 198 H 15.7521 0.539971 0.398338 0
M  V30 199 H 18.2961 1.94273 0.638597 0
M  V30 200 H 16.4511 2.33589 3.09055 0
M  V30 201 H 16.8651 4.51055 2.67675 0
M  V30 202 H 18.3391 3.64068 4.14919 0
M  V30 203 H 18.8161 1.95852 3.93114 0
M  V30 204 H 19.4221 3.19579 2.80623 0
M  V30 205 N 17.7372 -0.778329 1.37039 0
M  V30 206 C 18.9862 -1.53189 1.3121 0
M  V30 207 C 19.2992 -1.95328 -0.103095 0
M  V30 208 O 20.5052 -2.70012 -0.283826 0
M  V30 209 C 18.9612 -2.76591 2.30272 0
M  V30 210 C 18.5692 -2.41577 3.77286 0
M  V30 211 C 20.3132 -3.5455 2.33441 0
M  V30 212 C 18.2202 -3.61441 4.68096 0
M  V30 213 H 17.1502 -0.5751 0.487622 0
M  V30 214 H 19.8012 -0.853101 1.62464 0
M  V30 215 H 18.1832 -3.46326 1.92027 0
M  V30 216 H 19.3572 -1.79668 4.2433 0
M  V30 217 H 17.6722 -1.76806 3.76999 0
M  V30 218 H 20.2692 -4.43628 2.98493 0
M  V30 219 H 20.6122 -3.93936 1.34611 0
M  V30 220 H 21.1452 -2.91805 2.7036 0
M  V30 221 H 17.8842 -3.27142 5.6803 0
M  V30 222 H 17.4042 -4.22478 4.25761 0
M  V30 223 H 19.0832 -4.28335 4.8491 0
M  V30 224 N 19.2153 -1.21501 -1.00376 0
M  V30 225 C 20.1633 -0.972442 -2.11297 0
M  V30 226 C 21.1573 0.080731 -1.69208 0
M  V30 227 O 22.3633 -0.0707666 -1.79861 0
M  V30 228 H 18.7383 -0.297218 -0.690772 0
M  V30 229 H 20.7093 -1.91394 -2.28934 0
M  V30 230 C 19.4583 -0.555065 -3.43241 0
M  V30 231 H 18.7813 -1.35709 -3.76062 0
M  V30 232 H 20.2213 -0.424664 -4.21868 0
M  V30 233 C 18.6803 0.734147 -3.28804 0
M  V30 234 O 19.2103 1.78937 -3.59645 0
M  V30 235 N 17.4163 0.701133 -2.82015 0
M  V30 236 H 16.9633 -0.157874 -2.57116 0
M  V30 237 H 16.9213 1.56403 -2.72737 0
M  V30 238 N 20.6934 1.19889 -1.02296 0
M  V30 239 C 21.6254 2.22334 -0.556787 0
M  V30 240 C 22.6384 1.58674 0.364199 0
M  V30 241 O 23.8274 1.77768 0.161533 0
M  V30 242 C 20.9274 3.38257 0.208694 0
M  V30 243 C 20.1004 4.31504 -0.71577 0
M  V30 244 C 19.1594 5.262 0.00325597 0
M  V30 245 O 18.1854 5.65798 -0.621357 0
M  V30 246 N 19.3874 5.66303 1.27599 0
M  V30 247 H 22.1524 2.62957 -1.43784 0
M  V30 248 H 19.7134 1.34495 -0.901261 0
M  V30 249 H 21.7054 3.98616 0.699111 0
M  V30 250 H 20.2754 2.96472 0.991102 0
M  V30 251 H 19.4954 3.69016 -1.38638 0
M  V30 252 H 20.7834 4.9072 -1.34428 0
M  V30 253 H 20.1814 5.36155 1.80429 0
M  V30 254 H 18.7384 6.28942 1.71102 0
M  V30 255 N 22.1715 0.800033 1.35784 0
M  V30 256 C 23.4175 0.38701 1.99684 0
M  V30 257 C 23.7725 -1.03268 1.62338 0
M  V30 258 O 23.0655 -1.70543 0.87325 0
M  V30 259 C 23.2595 0.500276 3.53881 0
M  V30 260 C 23.0885 1.92942 4.06206 0
M  V30 261 C 21.8585 2.55637 4.35865 0
M  V30 262 C 24.0565 2.89307 4.25213 0
M  V30 263 N 22.0385 3.9003 4.74078 0
M  V30 264 C 23.4095 4.08556 4.66349 0
M  V30 265 C 25.4645 2.86225 4.07406 0
M  V30 266 C 24.1675 5.25146 4.91543 0
M  V30 267 C 26.1935 4.02011 4.33752 0
M  V30 268 C 25.5555 5.20007 4.75155 0
M  V30 269 H 21.6545 0.189252 0.758754 0
M  V30 270 H 24.2385 1.03988 1.64604 0
M  V30 271 H 22.4095 -0.122568 3.88207 0
M  V30 272 H 24.1415 0.0624733 4.04652 0
M  V30 273 H 20.8965 2.07039 4.25948 0
M  V30 274 H 21.3205 4.59205 4.97454 0
M  V30 275 H 25.9625 1.96154 3.74544 0
M  V30 276 H 23.6805 6.15794 5.23281 0
M  V30 277 H 27.2665 4.00999 4.21534 0
M  V30 278 H 26.1465 6.08113 4.95145 0
M  V30 279 N 23.6496 -1.47581 0.552962 0
M  V30 280 C 24.6126 -2.28439 -0.186605 0
M  V30 281 C 25.6126 -1.36706 -0.84665 0
M  V30 282 O 26.8026 -1.59378 -0.703164 0
M  V30 283 C 23.9346 -3.16264 -1.2724 0
M  V30 284 H 25.1276 -2.95294 0.523609 0
M  V30 285 H 22.6806 -1.532 0.309745 0
M  V30 286 H 23.4156 -2.54091 -2.01514 0
M  V30 287 H 23.2006 -3.83769 -0.803968 0
M  V30 288 H 24.6906 -3.77198 -1.79196 0
M  V30 289 N 25.1277 -0.289203 -1.54924 0
M  V30 290 C 26.3557 0.326463 -2.04308 0
M  V30 291 C 26.7707 1.48413 -1.16701 0
M  V30 292 O 26.1277 1.81507 -0.190087 0
M  V30 293 C 26.1787 0.794014 -3.52672 0
M  V30 294 O 25.8997 -0.317564 -4.36948 0
M  V30 295 C 27.4007 1.47605 -4.18004 0
M  V30 296 H 24.6207 0.0726272 -0.667058 0
M  V30 297 H 27.1647 -0.425401 -2.00026 0
M  V30 298 H 25.3197 1.49593 -3.57352 0
M  V30 299 H 25.7337 0.0443186 -5.24481 0
M  V30 300 H 27.2077 1.75447 -5.23376 0
M  V30 301 H 27.6847 2.41224 -3.67025 0
M  V30 302 H 28.2907 0.81762 -4.17367 0
M  V30 303 N 26.6058 1.57591 -0.0167156 0
M  V30 304 C 28.0218 1.55946 0.339557 0
M  V30 305 C 28.2218 1.02109 1.73713 0
M  V30 306 O 27.2778 0.662303 2.43659 0
M  V30 307 C 28.5908 3.00037 0.199499 0
M  V30 308 C 30.1388 3.11805 0.273193 0
M  V30 309 C 30.6138 4.57713 0.162068 0
M  V30 310 N 32.1048 4.6268 0.219444 0
M  V30 311 C 32.8398 5.73185 0.157054 0
M  V30 312 N 32.3358 6.92786 0.0442936 0
M  V30 313 N 34.1288 5.61707 0.21014 0
M  V30 314 H 26.2798 1.90921 -0.930758 0
M  V30 315 H 28.5428 0.877674 -0.358319 0
M  V30 316 H 28.2488 3.4333 -0.76273 0
M  V30 317 H 28.1228 3.64387 0.974786 0
M  V30 318 H 30.5098 2.68433 1.22587 0
M  V30 319 H 30.5908 2.50201 -0.532256 0
M  V30 320 H 30.2348 5.01763 -0.78714 0
M  V30 321 H 30.1648 5.17283 0.986222 0
M  V30 322 H 32.6558 3.76649 0.307246 0
M  V30 323 H 32.9688 7.728 0.00304069 0
M  V30 324 H 31.3138 6.94999 0.00968457 0
M  V30 325 H 34.5048 4.6716 0.296546 0
M  V30 326 H 34.6778 6.47807 0.158054 0
M  V30 327 N 28.0839 -0.256276 1.55502 0
M  V30 328 C 29.3329 -0.983486 1.76098 0
M  V30 329 C 29.6459 -1.86837 0.578896 0
M  V30 330 O 30.8519 -2.63163 0.667648 0
M  V30 331 C 29.3079 -1.79868 3.1173 0
M  V30 332 C 28.9159 -0.961648 4.37557 0
M  V30 333 C 30.6599 -2.51919 3.41668 0
M  V30 334 C 28.5669 -1.77219 5.64223 0
M  V30 335 H 27.4969 -0.370936 0.656447 0
M  V30 336 H 30.1479 -0.238492 1.81944 0
M  V30 337 H 28.5299 -2.58527 2.99966 0
M  V30 338 H 29.7039 -0.218048 4.60284 0
M  V30 339 H 28.0189 -0.354913 4.14885 0
M  V30 340 H 30.6159 -3.12998 4.33516 0
M  V30 341 H 30.9589 -3.23059 2.62562 0
M  V30 342 H 31.4919 -1.80278 3.54605 0
M  V30 343 H 28.2309 -1.10471 6.46124 0
M  V30 344 H 27.7509 -2.49132 5.45613 0
M  V30 345 H 29.4299 -2.34169 6.03137 0
M  V30 346 N 29.562 -1.4872 -0.521534 0
M  V30 347 C 30.839 -1.4766 -1.2828 0
M  V30 348 C 31.219 -0.19292 -2.10217 0
M  V30 349 O 30.567 0.825193 -2.13079 0
M  V30 350 C 30.777 -2.74358 -2.15705 0
M  V30 351 C 32.125 -3.23028 -2.75569 0
M  V30 352 O 33.149 -2.75333 -2.25987 0
M  V30 353 O 32.008 -4.0604 -3.65778 0
M  V30 354 H 29.102 -0.590085 -0.579421 0
M  V30 355 H 31.648 -1.60963 -0.537492 0
M  V30 356 H 30.42 -3.59292 -1.54999 0
M  V30 357 H 30.043 -2.63816 -2.97467 0
M  V30 358 N 31.0401 0.771051 -1.3745 0
M  V30 359 C 31.9501 1.91538 -1.35464 0
M  V30 360 C 32.9661 1.72134 -0.254123 0
M  V30 361 O 34.1421 1.95358 -0.489626 0
M  V30 362 C 31.2071 3.26671 -1.16134 0
M  V30 363 C 30.2681 3.58723 -2.35831 0
M  V30 364 C 29.5011 4.87409 -2.17413 0
M  V30 365 O 29.7241 5.58506 -1.15876 0
M  V30 366 O 28.6581 5.18539 -3.05615 0
M  V30 367 H 32.4841 1.96165 -2.31847 0
M  V30 368 H 30.0691 0.9139 -1.18187 0
M  V30 369 H 31.9511 4.07499 -1.07345 0
M  V30 370 H 30.6261 3.22894 -0.228251 0
M  V30 371 H 29.5331 2.78127 -2.50192 0
M  V30 372 H 30.8661 3.67243 -3.27709 0
M  V30 373 N 32.5182 1.22032 0.997298 0
M  V30 374 C 33.7672 1.03637 1.73038 0
M  V30 375 C 34.0802 -0.429475 1.90827 0
M  V30 376 O 35.2862 -0.732995 2.61418 0
M  V30 377 C 33.7422 1.80582 3.11317 0
M  V30 378 C 33.3502 3.31387 3.01474 0
M  V30 379 C 35.0942 1.70621 3.88701 0
M  V30 380 C 33.0012 4.00791 4.3488 0
M  V30 381 H 31.9312 0.384179 0.648785 0
M  V30 382 H 34.5822 1.4584 1.11368 0
M  V30 383 H 32.9642 1.31175 3.73643 0
M  V30 384 H 34.1382 3.88155 2.4834 0
M  V30 385 H 32.4532 3.41976 2.37575 0
M  V30 386 H 35.0502 2.19799 4.87434 0
M  V30 387 H 35.3932 0.665823 4.10941 0
M  V30 388 H 35.9262 2.17547 3.33044 0
M  V30 389 H 32.6652 5.05064 4.1784 0
M  V30 390 H 32.1852 3.48811 4.87945 0
M  V30 391 H 33.8642 4.06139 5.03647 0
M  V30 392 N 33.9963 -1.19345 1.0293 0
M  V30 393 C 34.9263 -2.2481 0.631105 0
M  V30 394 C 35.9073 -1.66245 -0.360104 0
M  V30 395 O 37.0923 -1.92677 -0.242726 0
M  V30 396 C 34.2223 -3.47295 -0.0184607 0
M  V30 397 C 33.1763 -4.18536 0.895073 0
M  V30 398 C 32.5023 -5.34586 0.110592 0
M  V30 399 C 33.8023 -4.73287 2.209 0
M  V30 400 H 35.4963 -2.58372 1.51275 0
M  V30 401 H 33.0423 -1.24194 0.728818 0
M  V30 402 H 34.9953 -4.20268 -0.308675 0
M  V30 403 H 33.7193 -3.12933 -0.934907 0
M  V30 404 H 32.3783 -3.47446 1.16949 0
M  V30 405 H 32.0263 -4.96469 -0.807902 0
M  V30 406 H 31.7263 -5.83183 0.719087 0
M  V30 407 H 33.2503 -6.10355 -0.172871 0
M  V30 408 H 34.6643 -5.38013 1.98028 0
M  V30 409 H 33.0613 -5.32373 2.76946 0
M  V30 410 H 34.1313 -3.91331 2.86336 0
M  V30 411 N 35.4744 -0.807222 -1.35358 0
M  V30 412 C 36.3844 -0.219594 -2.3357 0
M  V30 413 C 37.4004 0.637734 -1.61892 0
M  V30 414 O 38.5764 0.549336 -1.93763 0
M  V30 415 C 35.6414 0.62158 -3.41083 0
M  V30 416 C 34.7024 -0.256315 -4.28534 0
M  V30 417 C 33.9354 0.544807 -5.30912 0
M  V30 418 O 34.1584 1.77944 -5.41934 0
M  V30 419 O 33.0924 -0.0646478 -6.01865 0
M  V30 420 H 36.9184 -1.03208 -2.85625 0
M  V30 421 H 34.5034 -0.569025 -1.38139 0
M  V30 422 H 36.3854 1.10067 -4.06772 0
M  V30 423 H 35.0604 1.41165 -2.91297 0
M  V30 424 H 33.9674 -0.782559 -3.65823 0
M  V30 425 H 35.3004 -1.01034 -4.81719 0
M  V30 426 N 36.9525 1.47285 -0.560781 0
M  V30 427 C 37.9155 2.28535 0.174488 0
M  V30 428 C 38.9155 1.37153 0.839388 0
M  V30 429 O 40.1055 1.59748 0.694702 0
M  V30 430 C 37.2375 3.16934 1.25561 0
M  V30 431 H 38.4305 2.95012 -0.539262 0
M  V30 432 H 35.9835 1.53034 -0.317865 0
M  V30 433 H 36.7185 2.55157 2.00164 0
M  V30 434 H 36.5035 3.8419 0.783604 0
M  V30 435 H 37.9935 3.78143 1.77193 0
M  V30 436 N 38.4306 0.297415 1.54768 0
M  V30 437 C 39.8416 -0.195947 1.85669 0
M  V30 438 C 40.1926 -1.53707 1.21937 0
M  V30 439 O 39.3176 -2.10164 0.515754 0
M  V30 440 C 39.9126 -0.362318 3.36857 0
M  V30 441 C 38.4716 -0.799901 3.67802 0
M  V30 442 C 37.6186 0.0938578 2.77141 0
M  V30 443 H 40.5696 0.518538 1.4999 0
M  V30 444 H 40.5906 -1.19745 3.61167 0
M  V30 445 H 40.1026 0.613921 3.83214 0
M  V30 446 H 38.2036 -1.78682 3.26961 0
M  V30 447 H 38.3166 -0.621773 4.75048 0
M  V30 448 H 36.6806 -0.426254 2.51108 0
M  V30 449 H 37.4636 1.06639 3.26318 0
M  V30 450 N 39.9087 -1.5758 0.0250728 0
M  V30 451 C 41.1857 -1.82917 -0.692873 0
M  V30 452 C 41.5657 -0.908137 -1.90568 0
M  V30 453 O 40.9137 0.0372298 -2.2847 0
M  V30 454 C 41.1237 -3.32034 -1.07492 0
M  V30 455 C 42.4717 -3.98406 -1.46826 0
M  V30 456 O 43.4957 -3.36505 -1.16801 0
M  V30 457 O 42.3547 -5.07497 -2.02754 0
M  V30 458 H 39.4487 -0.754079 -0.33955 0
M  V30 459 H 41.9947 -1.69619 0.0524456 0
M  V30 460 H 40.7667 -3.90728 -0.211552 0
M  V30 461 H 40.3897 -3.50424 -1.87854 0
M  V30 462 N 41.3868 0.248026 -1.55636 0
M  V30 463 C 42.6348 0.974295 -1.77065 0
M  V30 464 C 42.9558 1.85897 -0.588849 0
M  V30 465 O 42.2258 1.91868 0.395407 0
M  V30 466 H 40.8058 0.362733 -0.653019 0
M  V30 467 H 43.4678 0.266244 -1.93073 0
M  V30 468 H 42.5638 1.59667 -2.68166 0
M  V30 469 N 42.8649 1.48995 0.513639 0
M  V30 470 C 44.1129 1.57531 1.26604 0
M  V30 471 C 44.4339 0.258236 1.93283 0
M  V30 472 O 43.7039 -0.721502 1.8213 0
M  V30 473 H 42.2839 0.580387 0.470276 0
M  V30 474 H 44.9459 1.85552 0.596373 0
M  V30 475 H 44.0419 2.36486 2.03669 0
M  V30 476 N 44.343 -0.763751 1.37857 0
M  V30 477 C 45.253 -1.90817 1.36478 0
M  V30 478 C 46.269 -1.71997 0.263248 0
M  V30 479 O 47.445 -1.95095 0.499979 0
M  V30 480 C 44.51 -3.2605 1.17864 0
M  V30 481 C 43.571 -3.57467 2.3773 0
M  V30 482 C 42.804 -4.86249 2.19995 0
M  V30 483 O 43.027 -5.57884 1.18836 0
M  V30 484 O 41.961 -5.16911 3.08361 0
M  V30 485 H 45.787 -1.94933 2.32884 0
M  V30 486 H 43.372 -0.907619 1.1867 0
M  V30 487 H 45.254 -4.06924 1.09504 0
M  V30 488 H 43.929 -3.22769 0.245372 0
M  V30 489 H 42.836 -2.76796 2.51664 0
M  V30 490 H 44.169 -3.655 3.29652 0
M  V30 491 N 45.8211 -1.22559 -0.990812 0
M  V30 492 C 47.0671 -1.05297 -1.73322 0
M  V30 493 C 47.4001 0.410655 -1.89808 0
M  V30 494 O 46.6751 1.30439 -1.44277 0
M  V30 495 C 46.9581 -1.76713 -3.13759 0
M  V30 496 C 46.8111 -3.30684 -3.04907 0
M  V30 497 C 48.1301 -1.52121 -4.12974 0
M  V30 498 H 45.2491 -0.38392 -0.629106 0
M  V30 499 H 47.8911 -1.50926 -1.15418 0
M  V30 500 H 46.0411 -1.37924 -3.63193 0
M  V30 501 H 47.7131 -3.7893 -2.63077 0
M  V30 502 H 45.9561 -3.60253 -2.41661 0
M  V30 503 H 46.6271 -3.75833 -4.04294 0
M  V30 504 H 49.1031 -1.85819 -3.72304 0
M  V30 505 H 47.9791 -2.04582 -5.0935 0
M  V30 506 H 48.2401 -0.454257 -4.3976 0
M  V30 507 N 47.2992 1.18797 -1.03562 0
M  V30 508 C 48.5482 1.87978 -0.731235 0
M  V30 509 C 48.8612 1.80911 0.743671 0
M  V30 510 O 50.0672 2.45407 1.16137 0
M  V30 511 C 48.5232 3.3721 -1.25768 0
M  V30 512 C 48.1312 3.52818 -2.76085 0
M  V30 513 C 49.8752 4.11825 -1.0296 0
M  V30 514 C 47.7822 4.9598 -3.22114 0
M  V30 515 H 46.7122 0.704063 -0.269835 0
M  V30 516 H 49.3632 1.34266 -1.25079 0
M  V30 517 H 47.7452 3.90359 -0.666011 0
M  V30 518 H 48.9192 3.09965 -3.40966 0
M  V30 519 H 47.2342 2.91602 -2.97249 0
M  V30 520 H 49.8312 5.17411 -1.34869 0
M  V30 521 H 50.1742 4.16287 0.0333546 0
M  V30 522 H 50.7072 3.64833 -1.58562 0
M  V30 523 H 47.4462 4.96684 -4.27768 0
M  V30 524 H 46.9662 5.39569 -2.61965 0
M  V30 525 H 48.6452 5.6467 -3.15844 0
M  V30 526 N 48.7773 0.814389 1.34928 0
M  V30 527 C 50.0073 0.41054 2.0248 0
M  V30 528 C 50.4153 -0.985625 1.61499 0
M  V30 529 O 49.7583 -1.64781 0.811976 0
M  V30 530 C 49.8203 0.423384 3.56998 0
M  V30 531 C 49.4843 1.77141 4.21272 0
M  V30 532 C 50.4813 2.73093 4.42398 0
M  V30 533 C 48.1663 2.05755 4.58225 0
M  V30 534 C 50.1603 3.95838 4.9959 0
M  V30 535 C 47.8473 3.28762 5.1513 0
M  V30 536 C 48.8453 4.23621 5.35755 0
M  V30 537 O 48.5333 5.44456 5.91458 0
M  V30 538 H 48.2653 0.163997 0.655806 0
M  V30 539 H 50.8193 1.10155 1.73364 0
M  V30 540 H 49.0493 -0.324276 3.85338 0
M  V30 541 H 50.7383 0.0407683 4.0588 0
M  V30 542 H 51.5043 2.5228 4.14222 0
M  V30 543 H 47.3833 1.32727 4.4148 0
M  V30 544 H 50.9273 4.69891 5.15605 0
M  V30 545 H 46.8243 3.49443 5.42734 0
M  V30 546 H 47.5923 5.4586 6.09901 0
M  V30 547 N 50.2554 -1.46986 0.568584 0
M  V30 548 C 51.2034 -2.31858 -0.185649 0
M  V30 549 C 52.1974 -1.43624 -0.898249 0
M  V30 550 O 53.4034 -1.60327 -0.818242 0
M  V30 551 H 49.7784 -0.747866 -0.0787399 0
M  V30 552 H 51.7494 -2.93303 0.549191 0
M  V30 553 C 50.4984 -3.26513 -1.19519 0
M  V30 554 H 49.8214 -3.94377 -0.656285 0
M  V30 555 H 51.2614 -3.88707 -1.6936 0
M  V30 556 C 49.7204 -2.50847 -2.24894 0
M  V30 557 O 50.2504 -2.26119 -3.32014 0
M  V30 558 N 48.4564 -2.11656 -1.99124 0
M  V30 559 H 48.0034 -2.31966 -1.12024 0
M  V30 560 H 47.9614 -1.61347 -2.69842 0
M  V30 561 N 51.7335 -0.305618 -1.54608 0
M  V30 562 C 52.9795 0.302746 -2.00528 0
M  V30 563 C 53.3125 1.53184 -1.19367 0
M  V30 564 O 52.5875 1.92598 -0.271321 0
M  V30 565 C 52.8705 0.654756 -3.54097 0
M  V30 566 C 52.7235 -0.583793 -4.45995 0
M  V30 567 C 54.0425 1.47947 -4.14487 0
M  V30 568 H 51.1615 0.108564 -0.72896 0
M  V30 569 H 53.8035 -0.418634 -1.85331 0
M  V30 570 H 51.9535 1.26935 -3.67178 0
M  V30 571 H 53.6255 -1.22224 -4.44814 0
M  V30 572 H 51.8685 -1.21615 -4.16404 0
M  V30 573 H 52.5395 -0.293287 -5.5122 0
M  V30 574 H 55.0155 0.96013 -4.04871 0
M  V30 575 H 53.8915 1.69454 -5.22088 0
M  V30 576 H 54.1525 2.47011 -3.66658 0
M  V30 577 N 53.2116 1.57565 -0.0334293 0
M  V30 578 C 54.4886 1.83282 0.683163 0
M  V30 579 C 54.8686 0.91823 1.90084 0
M  V30 580 O 54.2166 -0.025113 2.28486 0
M  V30 581 C 54.4266 3.32599 1.0573 0
M  V30 582 C 55.7746 3.99179 1.44711 0
M  V30 583 O 56.7986 3.3712 1.15015 0
M  V30 584 O 55.6576 5.08565 2.0006 0
M  V30 585 H 52.7516 0.755869 0.335546 0
M  V30 586 H 55.2976 1.69589 -0.0614402 0
M  V30 587 H 54.0696 3.90834 0.190828 0
M  V30 588 H 53.6926 3.51415 1.85993 0
M  V30 589 N 54.6897 -0.239769 1.55765 0
M  V30 590 C 55.5997 -1.31831 1.94056 0
M  V30 591 C 56.6157 -1.52275 0.841925 0
M  V30 592 O 57.7917 -1.65759 1.14394 0
M  V30 593 C 54.8567 -2.65156 2.23368 0
M  V30 594 C 53.9177 -2.53173 3.46701 0
M  V30 595 C 53.1507 -3.8014 3.74606 0
M  V30 596 O 53.3737 -4.82343 3.04469 0
M  V30 597 O 52.3077 -3.78344 4.68123 0
M  V30 598 H 56.1337 -1.02347 2.85935 0
M  V30 599 H 53.7187 -0.441123 1.42739 0
M  V30 600 H 55.6007 -3.43929 2.43497 0
M  V30 601 H 54.2757 -2.94358 1.34666 0
M  V30 602 H 53.1827 -1.72662 3.31871 0
M  V30 603 H 54.5157 -2.28915 4.35728 0
M  V30 604 N 56.1678 -1.49265 -0.50573 0
M  V30 605 C 57.1158 -1.66065 -1.62866 0
M  V30 606 C 58.1098 -0.526636 -1.61006 0
M  V30 607 O 59.3158 -0.706126 -1.65571 0
M  V30 608 H 55.6908 -0.52356 -0.539805 0
M  V30 609 H 57.6618 -2.60329 -1.45848 0
M  V30 610 C 56.4108 -1.74008 -3.01026 0
M  V30 611 H 55.7338 -2.6064 -3.03161 0
M  V30 612 H 57.1738 -1.89798 -3.79147 0
M  V30 613 C 55.6328 -0.483868 -3.33407 0
M  V30 614 O 56.1628 0.392548 -3.99777 0
M  V30 615 N 54.3688 -0.348236 -2.88506 0
M  V30 616 H 53.9158 -1.06242 -2.34671 0
M  V30 617 H 53.8738 0.491204 -3.10539 0
M  V30 618 N 57.6459 0.756429 -1.3826 0
M  V30 619 C 58.9229 1.50584 -1.24835 0
M  V30 620 C 59.3029 2.10556 0.151485 0
M  V30 621 O 58.6509 1.96825 1.1607 0
M  V30 622 C 58.8609 2.57448 -2.3563 0
M  V30 623 C 60.2089 3.24429 -2.73917 0
M  V30 624 O 61.2329 2.67751 -2.34921 0
M  V30 625 O 60.0919 4.26937 -3.41156 0
M  V30 626 H 57.1859 0.667664 -0.48801 0
M  V30 627 H 59.7319 0.792083 -1.5008 0
M  V30 628 H 58.5039 2.11362 -3.29305 0
M  V30 629 H 58.1269 3.36408 -2.11933 0
M  V30 630 N 59.124 1.23083 0.984299 0
M  V30 631 C 60.535 1.05609 1.5396 0
M  V30 632 C 60.886 -0.377793 1.92528 0
M  V30 633 O 60.011 -1.26398 1.75649 0
M  V30 634 C 60.606 1.91087 2.7977 0
M  V30 635 C 59.165 1.77885 3.31713 0
M  V30 636 C 58.312 1.87028 2.04733 0
M  V30 637 H 61.263 1.36802 0.804419 0
M  V30 638 H 61.284 1.43336 3.5247 0
M  V30 639 H 60.796 2.9544 2.51668 0
M  V30 640 H 58.897 0.762995 3.64704 0
M  V30 641 H 59.01 2.61047 4.01735 0
M  V30 642 H 57.374 1.30565 2.18689 0
M  V30 643 H 58.157 2.92929 1.79017 0
M  V30 644 N 60.6021 -1.18246 1.0419 0
M  V30 645 C 62.0181 -1.40269 0.761366 0
M  V30 646 C 62.2181 -1.90777 -0.648578 0
M  V30 647 O 61.2741 -2.0929 -1.41258 0
M  V30 648 C 62.5871 -2.40237 1.8085 0
M  V30 649 C 64.1351 -2.53961 1.82955 0
M  V30 650 C 64.6101 -3.57194 2.86664 0
M  V30 651 N 66.1011 -3.64702 2.85563 0
M  V30 652 C 66.8361 -4.44309 3.6246 0
M  V30 653 N 66.3321 -5.27514 4.49111 0
M  V30 654 N 68.1251 -4.39084 3.50944 0
M  V30 655 H 60.2761 -0.837882 1.95175 0
M  V30 656 H 62.5391 -0.430608 0.84456 0
M  V30 657 H 62.2451 -2.10176 2.81991 0
M  V30 658 H 62.1191 -3.39601 1.64168 0
M  V30 659 H 64.5061 -2.83338 0.824855 0
M  V30 660 H 64.5871 -1.54706 2.03715 0
M  V30 661 H 64.2311 -3.28558 3.87314 0
M  V30 662 H 64.1611 -4.5613 2.6316 0
M  V30 663 H 66.6521 -3.05289 2.22727 0
M  V30 664 H 66.9651 -5.85411 5.04493 0
M  V30 665 H 65.3101 -5.2693 4.53178 0
M  V30 666 H 68.5011 -3.7313 2.82651 0
M  V30 667 H 68.6741 -5.00883 4.11121 0
M  V30 668 N 62.0802 -0.821533 -1.34494 0
M  V30 669 C 62.9902 -0.244355 -2.33324 0
M  V30 670 C 64.0062 0.620527 -1.62559 0
M  V30 671 O 65.1822 0.528754 -1.94335 0
M  V30 672 C 62.2472 0.585368 -3.41723 0
M  V30 673 C 61.3082 -0.301752 -4.28238 0
M  V30 674 C 60.5412 0.488466 -5.3146 0
M  V30 675 O 60.7642 1.72186 -5.4379 0
M  V30 676 O 59.6982 -0.12848 -6.01763 0
M  V30 677 H 63.5242 -1.06231 -2.84515 0
M  V30 678 H 61.1092 -0.583645 -1.37528 0
M  V30 679 H 62.9912 1.05747 -4.07916 0
M  V30 680 H 61.6662 1.38068 -2.92778 0
M  V30 681 H 60.5732 -0.821315 -3.64973 0
M  V30 682 H 61.9062 -1.06138 -4.8062 0
M  V30 683 N 63.5583 1.46682 -0.576371 0
M  V30 684 C 64.7883 2.06498 -0.0648694 0
M  V30 685 C 65.1963 1.42665 1.24271 0
M  V30 686 O 64.5393 0.523886 1.76071 0
M  V30 687 C 64.6013 3.5904 0.181816 0
M  V30 688 C 64.2653 4.45028 -1.0392 0
M  V30 689 C 65.2623 4.81959 -1.94966 0
M  V30 690 C 62.9473 4.86259 -1.25927 0
M  V30 691 C 64.9413 5.58942 -3.06371 0
M  V30 692 C 62.6283 5.63002 -2.37638 0
M  V30 693 C 63.6263 5.99257 -3.2769 0
M  V30 694 O 63.3143 6.7445 -4.37461 0
M  V30 695 H 63.0463 0.674028 -0.0515987 0
M  V30 696 H 65.6003 1.89393 -0.794951 0
M  V30 697 H 63.8303 3.74429 0.966436 0
M  V30 698 H 65.5193 4.00806 0.641047 0
M  V30 699 H 66.2853 4.50689 -1.79177 0
M  V30 700 H 62.1643 4.57494 -0.567448 0
M  V30 701 H 65.7083 5.87158 -3.76684 0
M  V30 702 H 61.6053 5.93686 -2.53392 0
M  V30 703 H 62.3733 6.92867 -4.35749 0
M  V30 704 N 65.0364 0.313813 1.54444 0
M  V30 705 C 66.3134 -0.345447 1.92525 0
M  V30 706 C 66.6934 -1.70667 1.24242 0
M  V30 707 O 66.0414 -2.25273 0.382654 0
M  V30 708 C 66.2514 -0.44737 3.46121 0
M  V30 709 C 67.5994 -0.712238 4.18584 0
M  V30 710 O 68.6234 -0.530678 3.52225 0
M  V30 711 O 67.4824 -1.06183 5.36085 0
M  V30 712 H 64.5764 -0.195407 0.803583 0
M  V30 713 H 67.1224 0.362813 1.65776 0
M  V30 714 H 65.8944 0.509043 3.87975 0
M  V30 715 H 65.5174 -1.20359 3.78945 0
M  V30 716 N 66.5145 -1.57545 0.0417849 0
M  V30 717 C 67.4775 -2.09885 -0.92093 0
M  V30 718 C 68.4775 -1.01648 -1.24596 0
M  V30 719 O 69.6675 -1.27759 -1.1842 0
M  V30 720 C 66.7995 -2.57527 -2.23367 0
M  V30 721 H 67.9925 -2.96236 -0.467382 0
M  V30 722 H 65.5455 -1.5493 -0.206467 0
M  V30 723 H 66.2805 -1.74542 -2.73323 0
M  V30 724 H 66.0655 -3.36613 -2.01083 0
M  V30 725 H 67.5555 -2.98201 -2.92346 0
M  V30 726 N 67.9926 0.231505 -1.5589 0
M  V30 727 C 69.2416 0.955346 -1.7764 0
M  V30 728 C 69.5546 1.85893 -0.608546 0
M  V30 729 O 70.7606 2.62067 -0.70943 0
M  V30 730 C 69.2166 1.74886 -3.14552 0
M  V30 731 C 68.8246 0.891915 -4.39032 0
M  V30 732 C 70.5686 2.46452 -3.45633 0
M  V30 733 C 68.4756 1.68221 -5.66971 0
M  V30 734 H 67.4056 0.360446 -0.662265 0
M  V30 735 H 70.0566 0.209516 -1.823 0
M  V30 736 H 68.4386 2.53723 -3.04041 0
M  V30 737 H 69.6126 0.144793 -4.60572 0
M  V30 738 H 67.9276 0.288863 -4.15397 0
M  V30 739 H 70.5246 3.06061 -4.38441 0
M  V30 740 H 70.8676 3.18841 -2.67668 0
M  V30 741 H 71.4006 1.74613 -3.57428 0
M  V30 742 H 68.1396 1.00178 -6.478 0
M  V30 743 H 67.6596 2.4042 -5.49507 0
M  V30 744 H 69.3386 2.24544 -6.06786 0
M  V30 745 N 69.4707 1.49531 0.497807 0
M  V30 746 C 70.7177 1.59179 1.25173 0
M  V30 747 C 71.0457 0.279932 1.92475 0
M  V30 748 O 70.3007 -0.732383 1.81479 0
M  V30 749 C 70.5997 2.70252 2.33878 0
M  V30 750 C 70.2657 4.11644 1.84012 0
M  V30 751 C 68.9277 4.50121 1.70132 0
M  V30 752 C 71.2797 5.00121 1.46725 0
M  V30 753 C 68.6077 5.74845 1.17348 0
M  V30 754 C 70.9597 6.25366 0.95392 0
M  V30 755 C 69.6237 6.6267 0.801538 0
M  V30 756 H 68.8937 0.582478 0.45804 0
M  V30 757 H 71.5407 1.83373 0.551948 0
M  V30 758 H 69.8457 2.40041 3.09657 0
M  V30 759 H 71.5427 2.74925 2.9192 0
M  V30 760 H 68.1327 3.81274 1.95775 0
M  V30 761 H 72.3167 4.71048 1.56294 0
M  V30 762 H 67.5727 6.02444 1.04264 0
M  V30 763 H 71.7467 6.93301 0.656225 0
M  V30 764 H 69.3737 7.59197 0.390351 0
M  V30 765 N 70.9488 -0.749086 1.3866 0
M  V30 766 C 72.1978 -1.50371 1.3443 0
M  V30 767 C 72.5108 -1.95503 -0.0616397 0
M  V30 768 O 73.7168 -2.70554 -0.226489 0
M  V30 769 C 72.1728 -2.71644 2.36088 0
M  V30 770 C 71.7808 -2.3352 3.82325 0
M  V30 771 C 73.5248 -3.49518 2.40909 0
M  V30 772 C 71.4318 -3.51431 4.75658 0
M  V30 773 H 70.3618 -0.564628 0.499712 0
M  V30 774 H 73.0128 -0.818449 1.64237 0
M  V30 775 H 71.3948 -3.42175 1.9933 0
M  V30 776 H 72.5688 -1.70627 4.28046 0
M  V30 777 H 70.8838 -1.6877 3.80665 0
M  V30 778 H 73.4808 -4.37197 3.07836 0
M  V30 779 H 73.8238 -3.90992 1.42937 0
M  V30 780 H 74.3568 -2.86005 2.76489 0
M  V30 781 H 71.0958 -3.15019 5.74842 0
M  V30 782 H 70.6158 -4.13352 4.34627 0
M  V30 783 H 72.2948 -4.17953 4.93887 0
M  V30 784 N 72.4269 -1.23603 -0.977757 0
M  V30 785 C 73.6749 -1.06759 -1.71601 0
M  V30 786 C 73.9959 0.395929 -1.90938 0
M  V30 787 O 73.2659 1.28356 -1.47992 0
M  V30 788 H 71.8459 -0.392062 -0.635843 0
M  V30 789 H 74.5079 -1.55362 -1.1768 0
M  V30 790 H 73.6039 -1.55763 -2.70452 0
M  V30 791 N 73.905 1.17692 -1.04816 0
M  V30 792 C 75.153 1.87488 -0.754497 0
M  V30 793 C 75.474 1.81205 0.720407 0
M  V30 794 O 74.744 1.23544 1.52032 0
M  V30 795 H 73.324 0.694101 -0.276102 0
M  V30 796 H 75.986 1.42793 -1.32651 0
M  V30 797 H 75.082 2.93328 -1.06606 0
M  V30 798 N 75.3831 0.828654 1.34056 0
M  V30 799 C 76.6311 0.41863 1.97717 0
M  V30 800 C 76.9521 -1.02314 1.66002 0
M  V30 801 O 76.2221 -1.71119 0.953683 0
M  V30 802 H 74.8021 0.151809 0.731412 0
M  V30 803 H 77.4641 1.05936 1.63596 0
M  V30 804 H 76.5601 0.542318 3.07352 0
M  V30 805 N 76.8612 -1.46375 0.584142 0
M  V30 806 C 77.8242 -2.28784 -0.138108 0
M  V30 807 C 78.8242 -1.38471 -0.817462 0
M  V30 808 O 80.0142 -1.60833 -0.669199 0
M  V30 809 C 77.1462 -3.18892 -1.20503 0
M  V30 810 H 78.3392 -2.94117 0.586127 0
M  V30 811 H 75.8922 -1.52509 0.342171 0
M  V30 812 H 76.6272 -2.58309 -1.96079 0
M  V30 813 H 76.4122 -3.85388 -0.722384 0
M  V30 814 H 77.9022 -3.80914 -1.71155 0
M  V30 815 N 78.3393 -0.321999 -1.54275 0
M  V30 816 C 79.3023 0.531975 -2.22941 0
M  V30 817 C 80.3023 1.04478 -1.22234 0
M  V30 818 O 81.4923 0.937452 -1.46825 0
M  V30 819 C 78.6243 1.73874 -2.93224 0
M  V30 820 H 79.8173 -0.0682612 -2.99822 0
M  V30 821 H 77.3703 -0.0730644 -1.56129 0
M  V30 822 H 78.1053 2.37825 -2.20476 0
M  V30 823 H 77.8903 1.37847 -3.6707 0
M  V30 824 H 79.3803 2.34496 -3.45545 0
M  V30 825 N 79.8174 1.5752 -0.0501392 0
M  V30 826 C 81.0654 1.9227 0.622642 0
M  V30 827 C 81.3864 0.929083 1.71444 0
M  V30 828 O 80.6564 -0.0262186 1.95882 0
M  V30 829 H 79.2364 0.709739 0.232981 0
M  V30 830 H 81.8984 1.94628 -0.102898 0
M  V30 831 H 80.9944 2.93479 1.06191 0
M  V30 832 N 81.2955 -0.223234 1.56011 0
M  V30 833 C 82.7115 -0.572856 1.48965 0
M  V30 834 C 82.9115 -1.87225 0.74492 0
M  V30 835 O 81.9675 -2.50899 0.283896 0
M  V30 836 C 83.2805 -0.653646 2.9351 0
M  V30 837 C 84.8285 -0.744386 3.0402 0
M  V30 838 C 85.3035 -0.856535 4.49919 0
M  V30 839 N 86.7945 -0.9208 4.53955 0
M  V30 840 C 87.5295 -1.02726 5.64123 0
M  V30 841 N 87.0255 -1.09777 6.84047 0
M  V30 842 N 88.8185 -1.06226 5.51971 0
M  V30 843 H 80.9695 0.629462 2.02858 0
M  V30 844 H 83.2325 0.220621 0.921971 0
M  V30 845 H 82.9385 0.231518 3.50937 0
M  V30 846 H 82.8125 -1.51781 3.45315 0
M  V30 847 H 85.1995 -1.61999 2.46658 0
M  V30 848 H 85.2805 0.14541 2.55386 0
M  V30 849 H 84.9245 0.0146069 5.07898 0
M  V30 850 H 84.8545 -1.76172 4.96257 0
M  V30 851 H 87.3455 -0.876694 3.6759 0
M  V30 852 H 87.6585 -1.17872 7.63758 0
M  V30 853 H 86.0035 -1.06693 6.86762 0
M  V30 854 H 89.1945 -1.00382 4.5721 0
M  V30 855 H 89.3675 -1.14177 6.37862 0
M  V30 856 N 82.7736 -1.49793 -0.48987 0
M  V30 857 C 84.0206 -1.59841 -1.24327 0
M  V30 858 C 84.3486 -0.290135 -1.92324 0
M  V30 859 O 83.6036 0.722749 -1.81865 0
M  V30 860 C 83.9026 -2.71488 -2.32441 0
M  V30 861 C 83.5686 -4.12614 -1.81826 0
M  V30 862 C 82.2306 -4.51017 -1.67742 0
M  V30 863 C 84.5826 -5.00892 -1.4407 0
M  V30 864 C 81.9106 -5.75459 -1.14297 0
M  V30 865 C 84.2626 -6.25863 -0.920742 0
M  V30 866 C 82.9266 -6.63086 -0.766383 0
M  V30 867 H 82.1966 -0.584899 -0.454944 0
M  V30 868 H 84.8436 -1.83663 -0.542215 0
M  V30 869 H 83.1486 -2.4168 -3.0838 0
M  V30 870 H 84.8456 -2.76469 -2.90458 0
M  V30 871 H 81.4356 -3.82307 -1.93751 0
M  V30 872 H 85.6196 -4.7187 -1.53794 0
M  V30 873 H 80.8756 -6.02989 -1.01068 0
M  V30 874 H 85.0496 -6.9364 -0.619448 0
M  V30 875 H 82.6766 -7.59393 -0.350083 0
M  V30 876 N 84.2517 0.741722 -1.39055 0
M  V30 877 C 85.4997 1.49818 -1.35643 0
M  V30 878 C 85.8207 1.94938 0.0491642 0
M  V30 879 O 85.0907 1.68505 0.999141 0
M  V30 880 H 83.6707 0.555755 -0.499144 0
M  V30 881 H 86.3327 0.880957 -1.73854 0
M  V30 882 H 85.4287 2.38348 -2.01486 0
M  V30 883 N 85.7298 1.2412 0.971189 0
M  V30 884 C 86.9548 1.10667 1.75407 0
M  V30 885 C 87.3798 -0.337048 1.85056 0
M  V30 886 O 86.7378 -1.24396 1.31892 0
M  V30 887 C 86.7858 1.74726 3.15441 0
M  V30 888 O 85.8898 1.01566 3.99697 0
M  V30 889 H 85.2308 0.387341 0.539317 0
M  V30 890 H 87.7608 1.64358 1.2185 0
M  V30 891 H 87.7708 1.80341 3.6598 0
M  V30 892 H 86.4458 2.79773 3.07734 0
M  V30 893 H 85.0228 1.03713 3.58187 0
M  V30 894 N 87.2079 -1.17134 1.05439 0
M  V30 895 C 88.1709 -2.19439 0.661764 0
M  V30 896 C 89.1709 -1.58199 -0.288042 0
M  V30 897 O 90.3609 -1.74053 -0.0715803 0
M  V30 898 C 87.4929 -3.40889 -0.0276209 0
M  V30 899 H 88.6859 -2.55688 1.56728 0
M  V30 900 H 86.2389 -1.31259 0.848567 0
M  V30 901 H 86.9739 -3.10187 -0.94629 0
M  V30 902 H 86.7589 -3.86586 0.655238 0
M  V30 903 H 88.2489 -4.16603 -0.288342 0
M  V30 904 N 88.686 -0.835752 -1.33615 0
M  V30 905 C 89.916 -0.442701 -2.01801 0
M  V30 906 C 90.324 0.959807 -1.63047 0
M  V30 907 O 89.667 1.63468 -0.838088 0
M  V30 908 C 89.729 -0.480125 -3.56279 0
M  V30 909 C 89.393 -1.8382 -4.18401 0
M  V30 910 C 90.39 -2.80097 -4.37998 0
M  V30 911 C 88.075 -2.13019 -4.54894 0
M  V30 912 C 90.069 -4.03736 -4.9323 0
M  V30 913 C 87.756 -3.36916 -5.09834 0
M  V30 914 C 88.754 -4.32091 -5.28948 0
M  V30 915 O 88.442 -5.53797 -5.82721 0
M  V30 916 H 88.174 -0.17441 -0.653114 0
M  V30 917 H 90.728 -1.129 -1.71589 0
M  V30 918 H 88.958 0.262931 -3.85805 0
M  V30 919 H 90.647 -0.105335 -4.05763 0
M  V30 920 H 91.413 -2.58838 -4.10156 0
M  V30 921 H 87.292 -1.39733 -4.39313 0
M  V30 922 H 90.836 -4.78034 -5.08064 0
M  V30 923 H 86.733 -3.58033 -5.37106 0
M  V30 924 H 87.501 -5.55494 -6.0114 0
M  V30 925 N 90.1641 1.46063 -0.591896 0
M  V30 926 C 91.0941 2.33172 0.123673 0
M  V30 927 C 92.0751 1.45897 0.87453 0
M  V30 928 O 93.2601 1.74698 0.848181 0
M  V30 929 C 90.3901 3.28336 1.13194 0
M  V30 930 C 89.3441 4.25124 0.495324 0
M  V30 931 C 88.6701 5.09863 1.61071 0
M  V30 932 C 89.9701 5.19143 -0.573425 0
M  V30 933 H 91.6641 2.93252 -0.603646 0
M  V30 934 H 89.2101 1.41014 -0.291741 0
M  V30 935 H 91.1631 3.88137 1.64097 0
M  V30 936 H 89.8871 2.66383 1.88965 0
M  V30 937 H 88.5461 3.66599 0.00729452 0
M  V30 938 H 88.1941 4.44288 2.35832 0
M  V30 939 H 87.8941 5.75417 1.19035 0
M  V30 940 H 89.4181 5.72529 2.12233 0
M  V30 941 H 90.8321 5.73106 -0.1491 0
M  V30 942 H 89.2291 5.93089 -0.914636 0
M  V30 943 H 90.2991 4.62519 -1.45617 0
M  V30 944 N 91.6422 0.330177 1.54103 0
M  V30 945 C 93.0582 -0.0222371 1.59585 0
M  V30 946 C 93.2582 -1.49902 1.34654 0
M  V30 947 O 92.3142 -2.25592 1.13421 0
M  V30 948 C 93.6272 0.401932 2.98002 0
M  V30 949 C 95.1752 0.353145 3.11001 0
M  V30 950 C 95.6502 0.752576 4.51775 0
M  V30 951 N 97.1412 0.706239 4.57784 0
M  V30 952 C 97.8762 0.987417 5.64834 0
M  V30 953 N 97.3722 1.33607 6.79795 0
M  V30 954 N 99.1652 0.91254 5.54643 0
M  V30 955 H 91.3162 1.29228 1.68564 0
M  V30 956 H 93.5792 0.525906 0.78875 0
M  V30 957 H 93.2852 1.4311 3.21267 0
M  V30 958 H 93.1592 -0.229699 3.765 0
M  V30 959 H 95.5462 -0.666822 2.87467 0
M  V30 960 H 95.6272 1.0198 2.34593 0
M  V30 961 H 95.2712 1.77049 4.76042 0
M  V30 962 H 95.2012 0.0635409 5.26562 0
M  V30 963 H 97.6922 0.44889 3.75224 0
M  V30 964 H 98.0052 1.53582 7.57385 0
M  V30 965 H 96.3502 1.37439 6.81275 0
M  V30 966 H 99.5412 0.639601 4.6371 0
M  V30 967 H 99.7142 1.13503 6.37982 0
M  V30 968 N 93.1203 -1.57491 0.0584922 0
M  V30 969 C 94.0833 -2.1085 -0.898617 0
M  V30 970 C 95.0833 -1.02964 -1.23511 0
M  V30 971 O 96.2733 -1.29007 -1.17059 0
M  V30 972 C 93.4053 -2.59881 -2.20623 0
M  V30 973 H 94.5983 -2.96715 -0.435936 0
M  V30 974 H 92.1513 -1.55141 -0.190023 0
M  V30 975 H 92.8863 -1.77431 -2.71457 0
M  V30 976 H 92.6713 -3.38727 -1.97501 0
M  V30 977 H 94.1613 -3.01285 -2.89166 0
M  V30 978 N 94.5984 0.214957 -1.56127 0
M  V30 979 C 95.5314 1.29382 -1.87977 0
M  V30 980 C 96.5094 1.44897 -0.737807 0
M  V30 981 O 97.6934 1.60605 -0.986833 0
M  V30 982 C 94.8204 2.66325 -2.09258 0
M  V30 983 C 93.8664 2.67789 -3.31951 0
M  V30 984 S 94.6994 2.21198 -4.8768 0
M  V30 985 C 95.8554 3.60003 -5.12004 0
M  V30 986 H 96.0884 1.02173 -2.79192 0
M  V30 987 H 93.6214 0.417516 -1.48648 0
M  V30 988 H 95.5794 3.45162 -2.22201 0
M  V30 989 H 94.2404 2.90755 -1.18829 0
M  V30 990 H 93.4334 3.68436 -3.43906 0
M  V30 991 H 93.0354 1.9702 -3.17898 0
M  V30 992 H 95.3274 4.55739 -5.01307 0
M  V30 993 H 96.2704 3.52959 -6.13861 0
M  V30 994 H 96.6784 3.53996 -4.39712 0
M  V30 995 N 96.0765 1.50051 0.48192 0
M  V30 996 C 97.3245 1.60181 1.23234 0
M  V30 997 C 97.6455 0.299176 1.92691 0
M  V30 998 O 96.9155 -0.682708 1.83619 0
M  V30 999 H 95.4955 0.590232 0.457859 0
M  V30 1000 H 98.1575 1.86775 0.556881 0
M  V30 1001 H 97.2535 2.40753 1.98607 0
M  V30 1002 N 97.5546 -0.734337 1.39446 0
M  V30 1003 C 98.8026 -1.49096 1.36436 0
M  V30 1004 C 99.1236 -1.94961 -0.0388255 0
M  V30 1005 O 98.3936 -1.69033 -0.990191 0
M  V30 1006 H 96.9736 -0.5531 0.502085 0
M  V30 1007 H 99.6356 -0.871725 1.74319 0
M  V30 1008 H 98.7316 -2.37276 2.02747 0
M  V30 1009 N 99.0327 -1.24633 -0.964593 0
M  V30 1010 C 100.449 -1.01239 -1.2338 0
M  V30 1011 C 100.649 0.2769 -1.99588 0
M  V30 1012 O 99.7047 0.992241 -2.32187 0
M  V30 1013 C 101.018 -2.22937 -2.01791 0
M  V30 1014 C 102.566 -2.27594 -2.14872 0
M  V30 1015 C 103.041 -3.48921 -2.96678 0
M  V30 1016 N 104.532 -3.49257 -3.04259 0
M  V30 1017 C 105.267 -4.39795 -3.67924 0
M  V30 1018 N 104.763 -5.40591 -4.33281 0
M  V30 1019 N 106.556 -4.275 -3.64966 0
M  V30 1020 H 98.7067 -2.0748 -0.454502 0
M  V30 1021 H 100.97 -0.910647 -0.26349 0
M  V30 1022 H 100.676 -3.16587 -1.53184 0
M  V30 1023 H 100.55 -2.25306 -3.02518 0
M  V30 1024 H 102.937 -1.34473 -2.6268 0
M  V30 1025 H 103.018 -2.2925 -1.13482 0
M  V30 1026 H 102.662 -4.42359 -2.49562 0
M  V30 1027 H 102.592 -3.4451 -3.98272 0
M  V30 1028 H 105.083 -2.76337 -2.57771 0
M  V30 1029 H 105.396 -6.05904 -4.79687 0
M  V30 1030 H 103.741 -5.44475 -4.3194 0
M  V30 1031 H 106.932 -3.47987 -3.13086 0
M  V30 1032 H 107.105 -4.98258 -4.14298 0
M  V30 1033 N 100.511 1.16574 -1.06058 0
M  V30 1034 C 101.443 2.2045 -0.627239 0
M  V30 1035 C 102.456 1.59752 0.313534 0
M  V30 1036 O 103.645 1.78192 0.104896 0
M  V30 1037 C 100.745 3.3875 0.100974 0
M  V30 1038 C 99.9178 4.29008 -0.852687 0
M  V30 1039 C 98.9768 5.25944 -0.164152 0
M  V30 1040 O 98.0028 5.63535 -0.801047 0
M  V30 1041 N 99.2048 5.70075 1.09518 0
M  V30 1042 H 101.97 2.58249 -1.52077 0
M  V30 1043 H 99.5308 1.3156 -0.943594 0
M  V30 1044 H 101.523 4.00638 0.57194 0
M  V30 1045 H 100.093 2.99476 0.89628 0
M  V30 1046 H 99.3128 3.64419 -1.50308 0
M  V30 1047 H 100.601 4.86195 -1.49972 0
M  V30 1048 H 99.9988 5.41624 1.6328 0
M  V30 1049 H 98.5558 6.34067 1.51006 0
M  V30 1050 N 101.989 0.842826 1.3317 0
M  V30 1051 C 102.919 0.294028 2.31641 0
M  V30 1052 C 103.9 -0.600401 1.59151 0
M  V30 1053 O 105.085 -0.523124 1.87022 0
M  V30 1054 C 102.215 -0.528416 3.43257 0
M  V30 1055 C 101.169 0.27056 4.27144 0
M  V30 1056 C 100.495 -0.675881 5.30411 0
M  V30 1057 C 101.795 1.48981 5.00602 0
M  V30 1058 H 103.489 1.11681 2.77791 0
M  V30 1059 H 101.035 0.538478 1.33553 0
M  V30 1060 H 102.988 -0.922674 4.11175 0
M  V30 1061 H 101.712 -1.38445 2.95805 0
M  V30 1062 H 100.371 0.646427 3.60856 0
M  V30 1063 H 100.019 -1.52842 4.79216 0
M  V30 1064 H 99.7189 -0.145374 5.8742 0
M  V30 1065 H 101.243 -1.06757 6.01195 0
M  V30 1066 H 102.657 1.16849 5.61266 0
M  V30 1067 H 101.054 1.95739 5.6728 0
M  V30 1068 H 102.124 2.25746 4.29147 0
M  V30 1069 N 103.467 -1.45747 0.599634 0
M  V30 1070 C 104.716 -2.01502 0.0893511 0
M  V30 1071 C 105.029 -1.4748 -1.28488 0
M  V30 1072 O 106.235 -1.95161 -1.88745 0
M  V30 1073 C 104.691 -3.59735 0.109082 0
M  V30 1074 C 104.299 -4.22754 1.48267 0
M  V30 1075 C 106.043 -4.23085 -0.346374 0
M  V30 1076 C 103.95 -5.73115 1.45921 0
M  V30 1077 H 102.88 -0.753417 0.0296347 0
M  V30 1078 H 105.531 -1.67303 0.753788 0
M  V30 1079 H 103.913 -3.91087 -0.621854 0
M  V30 1080 H 105.087 -4.02987 2.23468 0
M  V30 1081 H 103.402 -3.71567 1.87955 0
M  V30 1082 H 105.999 -5.33327 -0.38298 0
M  V30 1083 H 106.342 -3.93201 -1.36743 0
M  V30 1084 H 106.875 -3.9642 0.331038 0
M  V30 1085 H 103.614 -6.07685 2.45762 0
M  V30 1086 H 103.134 -5.95097 0.749665 0
M  V30 1087 H 104.813 -6.3616 1.17941 0
M  V30 1088 N 104.945 -0.338344 -1.53925 0
M  V30 1089 C 106.191 0.260143 -2.01125 0
M  V30 1090 C 106.524 1.50617 -1.22589 0
M  V30 1091 O 105.799 1.91979 -0.312113 0
M  V30 1092 C 106.082 0.579499 -3.55407 0
M  V30 1093 C 105.935 -0.678264 -4.44657 0
M  V30 1094 C 107.254 1.39122 -4.17532 0
M  V30 1095 H 104.373 0.0930772 -0.731099 0
M  V30 1096 H 107.015 -0.457852 -1.84401 0
M  V30 1097 H 105.165 1.19118 -3.69788 0
M  V30 1098 H 106.837 -1.31631 -4.42121 0
M  V30 1099 H 105.08 -1.3042 -4.13731 0
M  V30 1100 H 105.751 -0.410143 -5.50474 0
M  V30 1101 H 108.227 0.874035 -4.06817 0
M  V30 1102 H 107.103 1.58342 -5.25565 0
M  V30 1103 H 107.364 2.39178 -3.71815 0
M  V30 1104 N 106.423 1.57458 -0.0668435 0
M  V30 1105 C 107.7 1.8469 0.644132 0
M  V30 1106 C 108.08 0.958343 1.88093 0
M  V30 1107 O 107.428 0.0233579 2.28488 0
M  V30 1108 C 107.638 3.34767 0.986509 0
M  V30 1109 C 108.986 4.02159 1.36212 0
M  V30 1110 O 110.01 3.39484 1.07839 0
M  V30 1111 O 108.869 5.12694 1.89227 0
M  V30 1112 H 105.963 0.762816 0.319437 0
M  V30 1113 H 108.509 1.6942 -0.0973986 0
M  V30 1114 H 107.281 3.91151 0.107883 0
M  V30 1115 H 106.904 3.55281 1.78497 0
M  V30 1116 N 107.901 -0.206675 1.56239 0
M  V30 1117 C 109.317 -0.557025 1.49564 0
M  V30 1118 C 109.517 -1.86424 0.764735 0
M  V30 1119 O 108.573 -2.50584 0.310491 0
M  V30 1120 C 109.886 -0.622478 2.94186 0
M  V30 1121 C 111.434 -0.712099 3.04792 0
M  V30 1122 C 111.909 -0.808767 4.50803 0
M  V30 1123 N 113.4 -0.8726 4.54907 0
M  V30 1124 C 114.135 -0.967365 5.65181 0
M  V30 1125 N 113.631 -1.02515 6.85173 0
M  V30 1126 N 115.424 -1.00366 5.53067 0
M  V30 1127 H 107.575 0.650943 2.02179 0
M  V30 1128 H 109.838 0.230387 0.919579 0
M  V30 1129 H 109.544 0.268727 3.50672 0
M  V30 1130 H 109.418 -1.4811 3.46905 0
M  V30 1131 H 111.805 -1.59374 2.48363 0
M  V30 1132 H 111.886 0.172489 2.55218 0
M  V30 1133 H 111.53 0.0684754 5.07854 0
M  V30 1134 H 111.46 -1.70899 4.98098 0
M  V30 1135 H 113.951 -0.837657 3.68499 0
M  V30 1136 H 114.264 -1.09765 7.64965 0
M  V30 1137 H 112.609 -0.994026 6.87855 0
M  V30 1138 H 115.8 -0.95527 4.58249 0
M  V30 1139 H 115.973 -1.07405 6.39037 0
M  V30 1140 N 109.379 -1.50304 -0.473955 0
M  V30 1141 C 110.625 -1.62358 -1.22521 0
M  V30 1142 C 110.98 -0.318555 -1.89745 0
M  V30 1143 O 110.273 0.683315 -1.79001 0
M  V30 1144 C 110.467 -2.73938 -2.29549 0
M  V30 1145 C 110.296 -4.15165 -1.72825 0
M  V30 1146 C 109.066 -4.81604 -1.52924 0
M  V30 1147 C 111.264 -4.99503 -1.22481 0
M  V30 1148 N 109.246 -6.07056 -0.91413 0
M  V30 1149 C 110.617 -6.15655 -0.732743 0
M  V30 1150 C 112.672 -4.85299 -1.11308 0
M  V30 1151 C 111.375 -7.19164 -0.139976 0
M  V30 1152 C 113.401 -5.88982 -0.534258 0
M  V30 1153 C 112.763 -7.0438 -0.0525562 0
M  V30 1154 H 108.862 -0.648286 -0.437321 0
M  V30 1155 H 111.446 -1.87413 -0.527692 0
M  V30 1156 H 109.617 -2.50611 -2.9673 0
M  V30 1157 H 111.349 -2.75366 -2.96573 0
M  V30 1158 H 108.104 -4.3885 -1.78067 0
M  V30 1159 H 108.528 -6.74108 -0.625071 0
M  V30 1160 H 113.17 -3.96369 -1.47144 0
M  V30 1161 H 110.888 -8.07771 0.230591 0
M  V30 1162 H 114.474 -5.80055 -0.450219 0
M  V30 1163 H 113.354 -7.83238 0.388324 0
M  V30 1164 N 110.857 0.726932 -1.39834 0
M  V30 1165 C 112.268 1.30558 -1.3346 0
M  V30 1166 C 112.619 1.962 -0.00273003 0
M  V30 1167 O 111.744 1.96826 0.899371 0
M  V30 1168 C 112.339 2.37404 -2.41713 0
M  V30 1169 C 110.898 2.90921 -2.38835 0
M  V30 1170 C 110.045 1.64578 -2.2318 0
M  V30 1171 H 112.996 0.523862 -1.49804 0
M  V30 1172 H 113.017 3.17984 -2.08966 0
M  V30 1173 H 112.529 1.89599 -3.38635 0
M  V30 1174 H 110.63 3.42985 -1.45575 0
M  V30 1175 H 110.743 3.43487 -3.33997 0
M  V30 1176 H 109.107 1.89219 -1.70494 0
M  V30 1177 H 109.89 1.18814 -3.22084 0
M  V30 1178 N 112.336 1.25143 0.95797 0
M  V30 1179 C 113.583 1.09692 1.70217 0
M  V30 1180 C 113.911 -0.362654 1.91089 0
M  V30 1181 O 113.166 -1.28386 1.47701 0
M  V30 1182 C 113.465 1.79272 3.09187 0
M  V30 1183 C 113.131 3.29196 3.08125 0
M  V30 1184 C 111.793 3.70096 3.07543 0
M  V30 1185 C 114.145 4.24995 3.0171 0
M  V30 1186 C 111.473 5.05213 2.9829 0
M  V30 1187 C 113.825 5.60132 2.93999 0
M  V30 1188 C 112.489 6.00365 2.9175 0
M  V30 1189 H 111.759 0.401393 0.622868 0
M  V30 1190 H 114.406 1.55372 1.11945 0
M  V30 1191 H 112.711 1.26014 3.70982 0
M  V30 1192 H 114.408 1.64773 3.65583 0
M  V30 1193 H 110.998 2.96651 3.09348 0
M  V30 1194 H 115.182 3.9439 3.01281 0
M  V30 1195 H 110.438 5.35569 2.94916 0
M  V30 1196 H 114.612 6.3406 2.87996 0
M  V30 1197 H 112.239 7.05023 2.84336 0
M  V30 1198 N 113.814 -1.1601 1.06675 0
M  V30 1199 C 114.744 -2.22688 0.702307 0
M  V30 1200 C 115.725 -1.67306 -0.307032 0
M  V30 1201 O 116.91 -1.93352 -0.181305 0
M  V30 1202 C 114.04 -3.47178 0.092038 0
M  V30 1203 C 112.994 -4.15477 1.02777 0
M  V30 1204 C 112.32 -5.33963 0.28061 0
M  V30 1205 C 113.62 -4.66019 2.35846 0
M  V30 1206 H 115.314 -2.53429 1.59419 0
M  V30 1207 H 112.86 -1.21813 0.767961 0
M  V30 1208 H 114.813 -4.21037 -0.174814 0
M  V30 1209 H 113.537 -3.15749 -0.834877 0
M  V30 1210 H 112.196 -3.43549 1.27944 0
M  V30 1211 H 111.844 -4.98788 -0.649545 0
M  V30 1212 H 111.544 -5.806 0.904258 0
M  V30 1213 H 113.068 -6.10596 0.021396 0
M  V30 1214 H 114.482 -5.3144 2.15045 0
M  V30 1215 H 112.879 -5.23293 2.93743 0
M  V30 1216 H 113.949 -3.82023 2.98641 0
M  V30 1217 N 115.292 -0.849877 -1.32721 0
M  V30 1218 C 116.54 -0.450032 -1.97026 0
M  V30 1219 C 116.861 0.996604 -1.67609 0
M  V30 1220 O 116.131 1.6958 -0.980786 0
M  V30 1221 H 114.711 -0.163426 -0.728904 0
M  V30 1222 H 117.373 -1.08526 -1.6189 0
M  V30 1223 H 116.469 -0.591146 -3.0645 0
M  V30 1224 N 116.77 1.45427 -0.607355 0
M  V30 1225 C 118.018 2.01841 -0.102253 0
M  V30 1226 C 118.339 1.47832 1.27164 0
M  V30 1227 O 117.609 0.672497 1.83995 0
M  V30 1228 H 116.189 0.746188 -0.0348101 0
M  V30 1229 H 118.851 1.78229 -0.7887 0
M  V30 1230 H 117.947 3.12057 -0.0518585 0
M  V30 1231 N 118.248 0.346503 1.53744 0
M  V30 1232 C 119.473 -0.253074 2.0585 0
M  V30 1233 C 119.898 -1.43202 1.21962 0
M  V30 1234 O 119.256 -1.79783 0.234073 0
M  V30 1235 C 119.304 -0.643193 3.54817 0
M  V30 1236 O 118.408 -1.74286 3.73762 0
M  V30 1237 H 117.749 -0.0413583 0.662711 0
M  V30 1238 H 120.279 0.501574 1.98357 0
M  V30 1239 H 120.289 -0.919526 3.97503 0
M  V30 1240 H 118.964 0.218966 4.15323 0
M  V30 1241 H 117.541 -1.46356 3.42979 0
M  V30 1242 N 119.726 -1.57421 0.075193 0
M  V30 1243 C 120.966 -1.95495 -0.596757 0
M  V30 1244 C 121.33 -0.954886 -1.66571 0
M  V30 1245 O 122.531 -1.22341 -2.39345 0
M  V30 1246 C 120.802 -3.382 -1.15566 0
M  V30 1247 S 122.361 -3.98254 -1.84226 0
M  V30 1248 H 119.179 -0.683649 -0.195307 0
M  V30 1249 H 121.781 -1.94925 0.149859 0
M  V30 1250 H 120.485 -4.08766 -0.36588 0
M  V30 1251 H 120.016 -3.42321 -1.93856 0
M  V30 1252 H 122.031 -3.85435 -3.12497 0
M  V30 1253 N 121.204 0.198386 -1.56346 0
M  V30 1254 C 122.615 0.763358 -1.70381 0
M  V30 1255 C 122.966 1.83995 -0.681203 0
M  V30 1256 O 122.091 2.15785 0.16305 0
M  V30 1257 C 122.686 1.39143 -3.08909 0
M  V30 1258 C 121.245 1.90352 -3.2472 0
M  V30 1259 C 120.392 0.772233 -2.6633 0
M  V30 1260 H 123.343 -0.0266377 -1.58678 0
M  V30 1261 H 123.364 2.26076 -3.06055 0
M  V30 1262 H 122.876 0.607638 -3.83314 0
M  V30 1263 H 120.977 2.71461 -2.55225 0
M  V30 1264 H 121.09 2.06757 -4.3219 0
M  V30 1265 H 119.454 1.18566 -2.2542 0
M  V30 1266 H 120.237 0.00073556 -3.433 0
M  V30 1267 N 122.682 1.50554 0.465978 0
M  V30 1268 C 123.632 1.66177 1.56106 0
M  V30 1269 C 124.616 0.516265 1.52393 0
M  V30 1270 O 125.808 0.770906 1.5933 0
M  V30 1271 C 122.937 1.76396 2.94515 0
M  V30 1272 C 122.023 2.9664 3.03093 0
M  V30 1273 N 122.414 4.20245 2.81474 0
M  V30 1274 C 120.712 2.95304 3.34233 0
M  V30 1275 C 121.413 5.01259 2.95151 0
M  V30 1276 N 120.389 4.35318 3.25576 0
M  V30 1277 H 124.191 2.59434 1.38099 0
M  V30 1278 H 121.705 1.47808 0.6728 0
M  V30 1279 H 123.702 1.85694 3.73261 0
M  V30 1280 H 122.362 0.843017 3.13565 0
M  V30 1281 H 123.373 4.4966 2.56956 0
M  V30 1282 H 120.05 2.12729 3.59239 0
M  V30 1283 H 121.44 6.09564 2.82632 0
M  V30 1284 N 124.16 -0.719506 1.40217 0
M  V30 1285 C 125.108 -1.85493 1.40339 0
M  V30 1286 C 126.102 -1.66995 0.284415 0
M  V30 1287 O 127.308 -1.74148 0.455252 0
M  V30 1288 H 123.683 -0.610857 0.438586 0
M  V30 1289 H 125.654 -1.82506 2.36081 0
M  V30 1290 C 124.403 -3.23321 1.27901 0
M  V30 1291 H 123.726 -3.38159 2.1328 0
M  V30 1292 H 125.166 -4.02914 1.32045 0
M  V30 1293 C 123.625 -3.36898 -0.0111355 0
M  V30 1294 O 124.155 -3.89674 -0.975538 0
M  V30 1295 N 122.361 -2.90492 -0.0793393 0
M  V30 1296 H 121.908 -2.47731 0.706183 0
M  V30 1297 H 121.866 -2.99955 -0.942038 0
M  V30 1298 N 125.638 -1.25649 -0.95132 0
M  V30 1299 C 126.601 -1.06399 -2.03007 0
M  V30 1300 C 127.601 -0.0156794 -1.60792 0
M  V30 1301 O 128.791 -0.25817 -1.72276 0
M  V30 1302 C 125.923 -0.616184 -3.35285 0
M  V30 1303 H 127.116 -2.02164 -2.21517 0
M  V30 1304 H 124.669 -1.08103 -1.12887 0
M  V30 1305 H 125.404 0.343917 -3.22471 0
M  V30 1306 H 125.189 -1.37301 -3.67275 0
M  V30 1307 H 126.679 -0.503032 -4.14559 0
M  V30 1308 N 127.117 1.15442 -1.07289 0
M  V30 1309 C 128.357 1.8788 -0.805012 0
M  V30 1310 C 128.721 1.80413 0.656907 0
M  V30 1311 O 129.922 2.47874 1.0398 0
M  V30 1312 C 128.193 3.3298 -1.29843 0
M  V30 1313 S 129.752 4.23158 -1.16114 0
M  V30 1314 H 126.57 0.64839 -0.291739 0
M  V30 1315 H 129.172 1.39285 -1.37186 0
M  V30 1316 H 127.876 3.35958 -2.35712 0
M  V30 1317 H 127.407 3.86629 -0.726767 0
M  V30 1318 H 129.422 4.96103 -0.0982778 0
M  V30 1319 N 128.595 0.856903 1.32268 0
M  V30 1320 C 129.841 0.462069 1.97466 0
M  V30 1321 C 130.174 -0.980298 1.67642 0
M  V30 1322 O 129.449 -1.68824 0.965858 0
M  V30 1323 C 129.732 0.704336 3.53145 0
M  V30 1324 C 129.585 2.19529 3.9259 0
M  V30 1325 C 130.904 0.1622 4.39801 0
M  V30 1326 H 128.023 0.169357 0.717278 0
M  V30 1327 H 130.665 1.07574 1.56614 0
M  V30 1328 H 128.815 0.181999 3.88073 0
M  V30 1329 H 130.487 2.78387 3.67829 0
M  V30 1330 H 128.73 2.67292 3.41668 0
M  V30 1331 H 129.401 2.31549 5.01088 0
M  V30 1332 H 131.877 0.608905 4.11621 0
M  V30 1333 H 130.753 0.361265 5.4771 0
M  V30 1334 H 131.014 -0.935158 4.32096 0
M  V30 1335 N 130.073 -1.45103 0.615059 0
M  V30 1336 C 131.484 -1.85654 0.197383 0
M  V30 1337 C 131.835 -1.51433 -1.24749 0
M  V30 1338 O 130.96 -0.944608 -1.94695 0
M  V30 1339 C 131.555 -3.36972 0.351448 0
M  V30 1340 C 130.114 -3.76398 -0.011593 0
M  V30 1341 C 129.261 -2.69024 0.672394 0
M  V30 1342 H 132.212 -1.35797 0.821263 0
M  V30 1343 H 132.233 -3.78239 -0.414227 0
M  V30 1344 H 131.745 -3.61847 1.40314 0
M  V30 1345 H 129.846 -3.5714 -1.06217 0
M  V30 1346 H 129.959 -4.77532 0.387265 0
M  V30 1347 H 128.323 -2.54465 0.109284 0
M  V30 1348 H 129.106 -2.96735 1.72636 0
M  V30 1349 N 131.551 -0.354651 -1.53558 0
M  V30 1350 C 132.501 0.513179 -2.2215 0
M  V30 1351 C 133.485 1.05734 -1.21281 0
M  V30 1352 O 134.677 0.989202 -1.46778 0
M  V30 1353 C 131.806 1.65798 -3.00609 0
M  V30 1354 C 130.892 1.12722 -4.08845 0
M  V30 1355 N 131.283 0.318563 -5.04796 0
M  V30 1356 C 129.581 1.40307 -4.23356 0
M  V30 1357 C 130.282 0.0292224 -5.81693 0
M  V30 1358 N 129.258 0.623891 -5.40008 0
M  V30 1359 H 133.06 -0.111586 -2.93688 0
M  V30 1360 H 130.574 -0.162091 -1.61589 0
M  V30 1361 H 132.571 2.29176 -3.48258 0
M  V30 1362 H 131.231 2.28591 -2.306 0
M  V30 1363 H 132.242 -0.0413091 -5.17884 0
M  V30 1364 H 128.919 2.03458 -3.6457 0
M  V30 1365 H 130.309 -0.623808 -6.68998 0
M  V30 1366 N 133.029 1.57378 -0.0835403 0
M  V30 1367 C 133.979 2.09916 0.889905 0
M  V30 1368 C 134.963 1.01151 1.25129 0
M  V30 1369 O 136.155 1.27443 1.2283 0
M  V30 1370 C 133.284 2.67379 2.15322 0
M  V30 1371 C 132.37 3.83167 1.81779 0
M  V30 1372 N 132.761 4.91665 1.18739 0
M  V30 1373 C 131.059 3.92685 2.11459 0
M  V30 1374 C 131.76 5.72409 1.0355 0
M  V30 1375 N 130.736 5.21062 1.54906 0
M  V30 1376 H 134.538 2.91188 0.398378 0
M  V30 1377 H 132.052 1.61956 0.120013 0
M  V30 1378 H 134.049 3.0334 2.8599 0
M  V30 1379 H 132.709 1.87558 2.65051 0
M  V30 1380 H 133.72 5.10784 0.855604 0
M  V30 1381 H 130.397 3.23856 2.63483 0
M  V30 1382 H 131.787 6.69699 0.543425 0
M  V30 1383 N 134.507 -0.190092 1.56449 0
M  V30 1384 C 135.437 -1.23816 1.97969 0
M  V30 1385 C 136.418 -1.47201 0.852395 0
M  V30 1386 O 137.603 -1.58854 1.1171 0
M  V30 1387 C 134.733 -2.5813 2.3235 0
M  V30 1388 C 133.687 -2.49348 3.47864 0
M  V30 1389 C 133.013 -3.8798 3.67934 0
M  V30 1390 C 134.313 -2.01424 4.81898 0
M  V30 1391 H 136.007 -0.89311 2.85769 0
M  V30 1392 H 133.553 -0.428177 1.37487 0
M  V30 1393 H 135.506 -3.31637 2.59991 0
M  V30 1394 H 134.23 -2.94386 1.41438 0
M  V30 1395 H 132.889 -1.78297 3.20321 0
M  V30 1396 H 132.537 -4.21597 2.74344 0
M  V30 1397 H 132.237 -3.82978 4.45648 0
M  V30 1398 H 133.761 -4.63101 3.97957 0
M  V30 1399 H 135.175 -2.64693 5.08538 0
M  V30 1400 H 133.572 -2.07413 5.63116 0
M  V30 1401 H 134.642 -0.967677 4.75146 0
M  V30 1402 N 135.985 -1.50799 -0.457987 0
M  V30 1403 C 137.232 -1.62442 -1.20908 0
M  V30 1404 C 137.56 -0.330865 -1.91665 0
M  V30 1405 O 136.815 0.68401 -1.83357 0
M  V30 1406 C 137.114 -2.76358 -2.2663 0
M  V30 1407 C 136.78 -4.16378 -1.73033 0
M  V30 1408 C 135.442 -4.54473 -1.58138 0
M  V30 1409 C 137.794 -5.03836 -1.33413 0
M  V30 1410 C 135.122 -5.77754 -1.02065 0
M  V30 1411 C 137.474 -6.27676 -0.78778 0
M  V30 1412 C 136.138 -6.64562 -0.625561 0
M  V30 1413 H 135.408 -0.594417 -0.442435 0
M  V30 1414 H 138.055 -1.84772 -0.503136 0
M  V30 1415 H 136.36 -2.48167 -3.03184 0
M  V30 1416 H 138.057 -2.82568 -2.84528 0
M  V30 1417 H 134.647 -3.86331 -1.85598 0
M  V30 1418 H 138.831 -4.75026 -1.4375 0
M  V30 1419 H 134.087 -6.04997 -0.882547 0
M  V30 1420 H 138.261 -6.94797 -0.472177 0
M  V30 1421 H 135.888 -7.59965 -0.188926 0
M  V30 1422 N 137.463 0.71206 -1.40597 0
M  V30 1423 C 138.688 1.50617 -1.42581 0
M  V30 1424 C 139.113 1.88079 -0.0282102 0
M  V30 1425 O 138.471 1.53511 0.964579 0
M  V30 1426 C 138.519 2.7557 -2.3258 0
M  V30 1427 O 137.623 3.72414 -1.77148 0
M  V30 1428 H 136.964 0.453966 -0.484573 0
M  V30 1429 H 139.494 0.876649 -1.84868 0
M  V30 1430 H 139.504 3.2406 -2.47889 0
M  V30 1431 H 138.179 2.47639 -3.34138 0
M  V30 1432 H 136.756 3.31276 -1.71204 0
M  V30 1433 N 138.941 1.26152 0.944643 0
M  V30 1434 C 140.218 1.02247 1.66748 0
M  V30 1435 C 140.598 -0.448202 2.06287 0
M  V30 1436 O 139.946 -1.42779 1.78399 0
M  V30 1437 C 140.156 1.96788 2.88228 0
M  V30 1438 C 141.504 2.25201 3.59958 0
M  V30 1439 O 142.528 1.94626 2.98327 0
M  V30 1440 O 141.387 2.77242 4.70956 0
M  V30 1441 H 138.481 0.388517 0.730057 0
M  V30 1442 H 141.027 1.37348 0.99668 0
M  V30 1443 H 139.799 2.96047 2.55875 0
M  V30 1444 H 139.422 1.62145 3.63035 0
M  V30 1445 N 140.419 -1.14872 1.07899 0
M  V30 1446 C 141.659 -1.8745 0.814965 0
M  V30 1447 C 142.023 -1.80758 -0.64733 0
M  V30 1448 O 143.224 -2.48422 -1.02664 0
M  V30 1449 C 141.495 -3.32286 1.31607 0
M  V30 1450 S 143.054 -4.22537 1.18357 0
M  V30 1451 H 139.872 -0.646833 0.295174 0
M  V30 1452 H 142.474 -1.38555 1.37923 0
M  V30 1453 H 141.178 -3.34703 2.37491 0
M  V30 1454 H 140.709 -3.86238 0.747261 0
M  V30 1455 H 142.724 -4.96044 0.124586 0
M  V30 1456 N 141.898 -0.863906 -1.31812 0
M  V30 1457 C 142.861 -0.320212 -2.26952 0
M  V30 1458 C 143.861 0.525369 -1.51975 0
M  V30 1459 O 145.051 0.335547 -1.70938 0
M  V30 1460 C 142.183 0.545919 -3.365 0
M  V30 1461 H 143.376 -1.16004 -2.76556 0
M  V30 1462 H 140.929 -0.638995 -1.42641 0
M  V30 1463 H 141.664 1.40718 -2.92179 0
M  V30 1464 H 141.449 -0.0594674 -3.92055 0
M  V30 1465 H 142.939 0.918796 -4.07367 0
M  V30 1466 N 143.376 1.44774 -0.622745 0
M  V30 1467 C 144.339 2.29069 0.0774015 0
M  V30 1468 C 145.339 1.4059 0.780461 0
M  V30 1469 O 146.529 1.62551 0.626322 0
M  V30 1470 C 143.661 3.21974 1.12006 0
M  V30 1471 H 144.854 2.92459 -0.663901 0
M  V30 1472 H 142.407 1.51548 -0.382486 0
M  V30 1473 H 143.142 2.63417 1.89162 0
M  V30 1474 H 142.927 3.87168 0.619951 0
M  V30 1475 H 144.417 3.85318 1.60995 0
M  V30 1476 N 144.854 0.36279 1.53368 0
M  V30 1477 C 145.764 -0.492994 2.29362 0
M  V30 1478 C 146.78 -1.09507 1.35219 0
M  V30 1479 O 147.956 -1.10662 1.68273 0
M  V30 1480 C 145.021 -1.61855 3.066 0
M  V30 1481 C 144.082 -1.04429 4.16405 0
M  V30 1482 C 143.315 -2.11621 4.89951 0
M  V30 1483 O 143.538 -3.32684 4.63333 0
M  V30 1484 O 142.472 -1.74835 5.75948 0
M  V30 1485 H 146.298 0.125331 3.03441 0
M  V30 1486 H 143.883 0.127253 1.48857 0
M  V30 1487 H 145.765 -2.27302 3.54841 0
M  V30 1488 H 144.44 -2.22233 2.3536 0
M  V30 1489 H 143.347 -0.353819 3.72423 0
M  V30 1490 H 144.68 -0.485113 4.89804 0
M  V30 1491 N 146.332 -1.57332 0.0918853 0
M  V30 1492 C 147.262 -2.16872 -0.865371 0
M  V30 1493 C 148.243 -1.10118 -1.29646 0
M  V30 1494 O 149.428 -1.38242 -1.36392 0
M  V30 1495 C 146.558 -2.74649 -2.12569 0
M  V30 1496 C 145.512 -3.86747 -1.83333 0
M  V30 1497 C 144.838 -4.31212 -3.16166 0
M  V30 1498 C 146.138 -5.10089 -1.1228 0
M  V30 1499 H 147.832 -2.97114 -0.369307 0
M  V30 1500 H 145.378 -1.42918 -0.176194 0
M  V30 1501 H 147.331 -3.14952 -2.7997 0
M  V30 1502 H 146.055 -1.91657 -2.64452 0
M  V30 1503 H 144.714 -3.46978 -1.18331 0
M  V30 1504 H 144.362 -3.45115 -3.6593 0
M  V30 1505 H 144.062 -5.06788 -2.97388 0
M  V30 1506 H 145.586 -4.74146 -3.84731 0
M  V30 1507 H 147 -5.47582 -1.69785 0
M  V30 1508 H 145.397 -5.91073 -1.03693 0
M  V30 1509 H 146.467 -4.84786 -0.105041 0
M  V30 1510 N 147.81 0.181792 -1.56548 0
M  V30 1511 C 148.743 1.25366 -1.90679 0
M  V30 1512 C 149.721 1.43299 -0.768376 0
M  V30 1513 O 150.905 1.58475 -1.02068 0
M  V30 1514 C 148.032 2.61826 -2.1486 0
M  V30 1515 C 147.078 2.60688 -3.37556 0
M  V30 1516 S 147.911 2.10804 -4.92262 0
M  V30 1517 C 149.067 3.49062 -5.19525 0
M  V30 1518 H 149.3 0.962277 -2.81296 0
M  V30 1519 H 146.833 0.385892 -1.495 0
M  V30 1520 H 148.791 3.40371 -2.29473 0
M  V30 1521 H 147.452 2.88169 -1.24969 0
M  V30 1522 H 146.645 3.61058 -3.51643 0
M  V30 1523 H 146.247 1.90232 -3.22006 0
M  V30 1524 H 148.539 4.45003 -5.10861 0
M  V30 1525 H 149.482 3.39859 -6.2121 0
M  V30 1526 H 149.89 3.4459 -4.47122 0
M  V30 1527 N 149.288 1.51039 0.449983 0
M  V30 1528 C 150.218 1.74379 1.55288 0
M  V30 1529 C 151.199 0.593236 1.5942 0
M  V30 1530 O 152.384 0.834625 1.7535 0
M  V30 1531 C 149.514 1.85728 2.93466 0
M  V30 1532 C 148.468 3.01078 3.04197 0
M  V30 1533 C 147.794 2.97595 4.44231 0
M  V30 1534 C 149.094 4.41254 2.7945 0
M  V30 1535 H 150.788 2.66725 1.36008 0
M  V30 1536 H 148.334 1.2835 0.652864 0
M  V30 1537 H 150.287 2.0064 3.70569 0
M  V30 1538 H 149.011 0.900207 3.13949 0
M  V30 1539 H 147.67 2.85851 2.29531 0
M  V30 1540 H 147.318 1.99691 4.61663 0
M  V30 1541 H 147.018 3.75046 4.52343 0
M  V30 1542 H 148.542 3.14583 5.23326 0
M  V30 1543 H 149.956 4.56897 3.46292 0
M  V30 1544 H 148.353 5.20315 2.98985 0
M  V30 1545 H 149.423 4.52164 1.75144 0
M  V30 1546 N 150.766 -0.704594 1.40972 0
M  V30 1547 C 151.729 -1.80035 1.41845 0
M  V30 1548 C 152.729 -1.57774 0.310474 0
M  V30 1549 O 153.919 -1.64613 0.56992 0
M  V30 1550 C 151.051 -3.18284 1.22098 0
M  V30 1551 H 152.244 -1.80658 2.3938 0
M  V30 1552 H 149.797 -0.911329 1.26982 0
M  V30 1553 H 150.532 -3.23306 0.253672 0
M  V30 1554 H 150.317 -3.35843 2.02366 0
M  V30 1555 H 151.807 -3.98289 1.25522 0
M  V30 1556 N 152.244 -1.26651 -0.937939 0
M  V30 1557 C 153.66 -1.03834 -1.21205 0
M  V30 1558 C 153.86 0.234502 -2.00131 0
M  V30 1559 O 152.916 0.942767 -2.3424 0
M  V30 1560 C 154.229 -2.27167 -1.97017 0
M  V30 1561 C 155.777 -2.32101 -2.09996 0
M  V30 1562 C 156.252 -3.55136 -2.8921 0
M  V30 1563 N 157.743 -3.55632 -2.96783 0
M  V30 1564 C 158.478 -4.475 -3.58512 0
M  V30 1565 N 157.974 -5.4966 -4.21717 0
M  V30 1566 N 159.767 -4.35145 -3.55816 0
M  V30 1567 H 151.918 -2.08398 -0.410391 0
M  V30 1568 H 154.181 -0.916031 -0.244114 0
M  V30 1569 H 153.887 -3.19765 -1.46434 0
M  V30 1570 H 153.761 -2.31672 -2.97671 0
M  V30 1571 H 156.148 -1.40015 -2.59769 0
M  V30 1572 H 156.229 -2.31605 -1.08594 0
M  V30 1573 H 155.873 -4.47553 -2.40123 0
M  V30 1574 H 155.803 -3.5288 -3.90875 0
M  V30 1575 H 158.294 -2.81743 -2.51852 0
M  V30 1576 H 158.607 -6.15943 -4.66727 0
M  V30 1577 H 156.952 -5.53514 -4.20294 0
M  V30 1578 H 160.143 -3.5455 -3.05634 0
M  V30 1579 H 160.316 -5.06934 -4.03636 0
M  V30 1580 N 153.722 1.14298 -1.08507 0
M  V30 1581 C 154.95 1.89219 -0.836876 0
M  V30 1582 C 155.365 1.78638 0.611054 0
M  V30 1583 O 154.722 1.14643 1.41998 0
M  V30 1584 C 154.773 3.39158 -1.25116 0
M  V30 1585 O 154.494 3.49449 -2.64229 0
M  V30 1586 C 155.995 4.31073 -1.03398 0
M  V30 1587 H 153.215 0.599328 -0.301739 0
M  V30 1588 H 155.759 1.44746 -1.44461 0
M  V30 1589 H 153.914 3.81251 -0.687514 0
M  V30 1590 H 154.328 4.42589 -2.81452 0
M  V30 1591 H 155.802 5.34646 -1.37323 0
M  V30 1592 H 156.279 4.3919 0.0289259 0
M  V30 1593 H 156.885 3.94738 -1.58311 0
M  V30 1594 N 155.201 0.870884 1.31352 0
M  V30 1595 C 156.448 0.482273 1.96673 0
M  V30 1596 C 156.776 -0.965638 1.68836 0
M  V30 1597 O 156.031 -1.69514 0.977937 0
M  V30 1598 C 156.33 0.687157 3.50732 0
M  V30 1599 C 155.996 2.108 3.9859 0
M  V30 1600 C 154.658 2.49656 4.1137 0
M  V30 1601 C 157.01 3.03459 4.23748 0
M  V30 1602 C 154.338 3.80412 4.46659 0
M  V30 1603 C 156.69 4.3373 4.60501 0
M  V30 1604 C 155.354 4.725 4.71487 0
M  V30 1605 H 154.624 0.176476 0.719679 0
M  V30 1606 H 157.271 1.10405 1.56471 0
M  V30 1607 H 155.576 -0.0177476 3.91796 0
M  V30 1608 H 157.273 0.366284 3.99324 0
M  V30 1609 H 153.863 1.79633 3.8914 0
M  V30 1610 H 158.047 2.74665 4.13368 0
M  V30 1611 H 153.303 4.1021 4.53362 0
M  V30 1612 H 157.477 5.05578 4.78919 0
M  V30 1613 H 155.104 5.73859 4.98588 0
M  V30 1614 N 156.679 -1.44442 0.630414 0
M  V30 1615 C 157.904 -2.06927 0.139944 0
M  V30 1616 C 158.329 -1.46795 -1.17613 0
M  V30 1617 O 157.687 -0.569144 -1.72135 0
M  V30 1618 C 157.735 -3.6058 0.0379581 0
M  V30 1619 O 156.839 -3.99937 -1.0062 0
M  V30 1620 H 156.18 -0.658608 0.0844483 0
M  V30 1621 H 158.71 -1.85327 0.866891 0
M  V30 1622 H 158.72 -4.07714 -0.152856 0
M  V30 1623 H 157.395 -4.03728 0.998809 0
M  V30 1624 H 155.972 -3.64436 -0.79001 0
M  V30 1625 N 158.157 -0.370918 -1.53173 0
M  V30 1626 C 159.405 0.216673 -2.00935 0
M  V30 1627 C 159.726 1.48845 -1.25977 0
M  V30 1628 O 158.996 1.92286 -0.374551 0
M  V30 1629 H 157.576 0.0830565 -0.742368 0
M  V30 1630 H 160.238 -0.49838 -1.8842 0
M  V30 1631 H 159.334 0.439893 -3.08984 0
M  V30 1632 N 159.635 1.57281 -0.100228 0
M  V30 1633 C 160.567 2.11342 0.886972 0
M  V30 1634 C 161.58 1.05182 1.24261 0
M  V30 1635 O 162.769 1.32613 1.19483 0
M  V30 1636 C 159.869 2.5825 2.19454 0
M  V30 1637 C 159.042 3.88302 2.01346 0
M  V30 1638 C 158.101 4.21004 3.15661 0
M  V30 1639 O 157.127 4.9014 2.89398 0
M  V30 1640 N 158.329 3.76818 4.41575 0
M  V30 1641 H 161.094 2.96668 0.425216 0
M  V30 1642 H 158.655 1.61678 0.0847334 0
M  V30 1643 H 160.647 2.7717 2.94888 0
M  V30 1644 H 159.217 1.77907 2.57037 0
M  V30 1645 H 158.437 3.7848 1.10212 0
M  V30 1646 H 159.725 4.73375 1.8653 0
M  V30 1647 H 159.123 3.2102 4.65792 0
M  V30 1648 H 157.68 4.00882 5.13942 0
M  V30 1649 N 161.113 -0.173488 1.56642 0
M  V30 1650 C 162.343 -0.904781 1.85734 0
M  V30 1651 C 162.751 -1.76431 0.68328 0
M  V30 1652 O 162.094 -1.802 -0.356865 0
M  V30 1653 C 162.156 -1.83382 3.09211 0
M  V30 1654 C 161.82 -1.15411 4.42187 0
M  V30 1655 C 162.817 -0.520609 5.17287 0
M  V30 1656 C 160.502 -1.15151 4.88923 0
M  V30 1657 C 162.496 0.106412 6.37311 0
M  V30 1658 C 160.183 -0.520664 6.08878 0
M  V30 1659 C 161.181 0.107196 6.82916 0
M  V30 1660 O 160.869 0.728102 8.00596 0
M  V30 1661 H 160.601 -0.268408 0.62043 0
M  V30 1662 H 163.155 -0.179096 2.04618 0
M  V30 1663 H 161.385 -2.59976 2.86268 0
M  V30 1664 H 163.074 -2.43476 3.24768 0
M  V30 1665 H 163.84 -0.514606 4.82262 0
M  V30 1666 H 159.719 -1.62961 4.31236 0
M  V30 1667 H 163.263 0.597081 6.9504 0
M  V30 1668 H 159.16 -0.524242 6.43368 0
M  V30 1669 H 159.928 0.627138 8.16094 0
M  V30 1670 N 162.591 -1.51276 -0.441967 0
M  V30 1671 C 163.837 -1.6492 -1.1905 0
M  V30 1672 C 164.192 -0.358731 -1.89026 0
M  V30 1673 O 163.485 0.645193 -1.8041 0
M  V30 1674 C 163.679 -2.78746 -2.23686 0
M  V30 1675 C 163.508 -4.18737 -1.63979 0
M  V30 1676 C 162.278 -4.84739 -1.42674 0
M  V30 1677 C 164.476 -5.01988 -1.11858 0
M  V30 1678 N 162.458 -6.08858 -0.785159 0
M  V30 1679 C 163.829 -6.17071 -0.601989 0
M  V30 1680 C 165.884 -4.87551 -1.0099 0
M  V30 1681 C 164.587 -7.19299 0.0126012 0
M  V30 1682 C 166.613 -5.89983 -0.409206 0
M  V30 1683 C 165.975 -7.04333 0.0968651 0
M  V30 1684 H 162.074 -0.657416 -0.423471 0
M  V30 1685 H 164.658 -1.8849 -0.48782 0
M  V30 1686 H 162.829 -2.56848 -2.91348 0
M  V30 1687 H 164.561 -2.81595 -2.90666 0
M  V30 1688 H 161.316 -4.42528 -1.68719 0
M  V30 1689 H 161.74 -6.75282 -0.481942 0
M  V30 1690 H 166.382 -3.99401 -1.38703 0
M  V30 1691 H 164.1 -8.071 0.401879 0
M  V30 1692 H 167.686 -5.8088 -0.327079 0
M  V30 1693 H 166.566 -7.82238 0.554373 0
M  V30 1694 N 164.069 0.697108 -1.41344 0
M  V30 1695 C 165.316 1.45714 -1.40619 0
M  V30 1696 C 165.644 1.94494 -0.0147907 0
M  V30 1697 O 164.899 1.69794 0.973066 0
M  V30 1698 C 165.198 2.68553 -2.35826 0
M  V30 1699 C 164.864 2.38438 -3.82698 0
M  V30 1700 C 163.526 2.29936 -4.22709 0
M  V30 1701 C 165.878 2.13567 -4.75435 0
M  V30 1702 C 163.206 1.94656 -5.53467 0
M  V30 1703 C 165.558 1.79797 -6.06511 0
M  V30 1704 C 164.222 1.69789 -6.45545 0
M  V30 1705 H 163.492 0.533206 -0.51456 0
M  V30 1706 H 166.139 0.796901 -1.74131 0
M  V30 1707 H 164.444 3.39503 -1.95563 0
M  V30 1708 H 166.141 3.2669 -2.32539 0
M  V30 1709 H 162.731 2.4595 -3.51008 0
M  V30 1710 H 166.915 2.19082 -4.45328 0
M  V30 1711 H 162.171 1.8546 -5.82593 0
M  V30 1712 H 166.345 1.59572 -6.77872 0
M  V30 1713 H 163.972 1.4222 -7.46778 0
M  V30 1714 N 165.547 1.27147 0.931209 0
M  V30 1715 C 166.958 1.12044 1.49342 0
M  V30 1716 C 167.309 -0.295795 1.93957 0
M  V30 1717 O 166.434 -1.18835 1.80852 0
M  V30 1718 C 167.029 2.02781 2.71414 0
M  V30 1719 C 165.588 1.91794 3.2387 0
M  V30 1720 C 164.735 1.95543 1.96617 0
M  V30 1721 H 167.686 1.40091 0.745672 0
M  V30 1722 H 167.707 1.58156 3.46074 0
M  V30 1723 H 167.219 3.05848 2.38911 0
M  V30 1724 H 165.32 0.916992 3.6114 0
M  V30 1725 H 165.433 2.77852 3.90302 0
M  V30 1726 H 163.797 1.39722 2.12955 0
M  V30 1727 H 164.58 3.00259 1.66432 0
M  V30 1728 N 167.025 -1.13721 1.09112 0
M  V30 1729 C 168.302 -1.81155 0.737706 0
M  V30 1730 C 168.682 -1.96253 -0.777683 0
M  V30 1731 O 168.03 -1.52807 -1.69889 0
M  V30 1732 C 168.24 -3.16392 1.47299 0
M  V30 1733 C 169.588 -3.91787 1.63671 0
M  V30 1734 O 170.612 -3.26005 1.43524 0
M  V30 1735 O 169.471 -5.0977 1.96969 0
M  V30 1736 H 166.565 -0.783518 0.26463 0
M  V30 1737 H 169.111 -1.20676 1.19312 0
M  V30 1738 H 167.883 -3.0061 2.50498 0
M  V30 1739 H 167.506 -3.8457 1.00953 0
M  V30 1740 N 168.503 -0.877838 -1.30888 0
M  V30 1741 C 169.436 -0.283995 -2.26426 0
M  V30 1742 C 170.414 0.591361 -1.51465 0
M  V30 1743 O 171.598 0.54304 -1.80509 0
M  V30 1744 C 168.725 0.597129 -3.33395 0
M  V30 1745 C 167.771 -0.207937 -4.25993 0
M  V30 1746 S 168.604 -1.59158 -5.11301 0
M  V30 1747 C 169.76 -0.716791 -6.21782 0
M  V30 1748 H 169.993 -1.09383 -2.76446 0
M  V30 1749 H 167.526 -0.676828 -1.38775 0
M  V30 1750 H 169.484 1.09978 -3.95493 0
M  V30 1751 H 168.145 1.38099 -2.82113 0
M  V30 1752 H 167.338 0.464163 -5.01858 0
M  V30 1753 H 166.94 -0.642963 -3.68432 0
M  V30 1754 H 169.232 0.0692833 -6.77465 0
M  V30 1755 H 170.175 -1.44682 -6.93161 0
M  V30 1756 H 170.583 -0.280855 -5.63801 0
M  V30 1757 N 169.982 1.44106 -0.638065 0
M  V30 1758 C 171.21 2.06336 -0.152615 0
M  V30 1759 C 171.625 1.47731 1.17563 0
M  V30 1760 O 170.982 0.602806 1.72257 0
M  V30 1761 C 171.033 3.61479 -0.0391491 0
M  V30 1762 O 170.754 4.17903 -1.31487 0
M  V30 1763 C 172.255 4.40757 0.474176 0
M  V30 1764 H 169.475 0.665862 -0.0828776 0
M  V30 1765 H 172.019 1.84862 -0.87443 0
M  V30 1766 H 170.174 3.82191 0.633142 0
M  V30 1767 H 170.588 5.11416 -1.16421 0
M  V30 1768 H 172.062 5.49707 0.502562 0
M  V30 1769 H 172.539 4.12697 1.50258 0
M  V30 1770 H 173.145 4.24979 -0.165102 0
M  V30 1771 N 171.46 0.379036 1.52974 0
M  V30 1772 C 172.37 -0.468639 2.29872 0
M  V30 1773 C 173.386 -1.08067 1.36373 0
M  V30 1774 O 174.562 -1.08871 1.69438 0
M  V30 1775 C 171.627 -1.58594 3.083 0
M  V30 1776 C 170.688 -1.00007 4.17489 0
M  V30 1777 C 169.921 -2.06413 4.92168 0
M  V30 1778 O 170.144 -3.27751 4.66835 0
M  V30 1779 O 169.078 -1.68717 5.7777 0
M  V30 1780 H 172.904 0.157508 3.03291 0
M  V30 1781 H 170.489 0.143035 1.48714 0
M  V30 1782 H 172.371 -2.23525 3.57232 0
M  V30 1783 H 171.046 -2.19724 2.37703 0
M  V30 1784 H 169.953 -0.314299 3.72777 0
M  V30 1785 H 171.286 -0.433135 4.90291 0
M  V30 1786 N 172.938 -1.57226 0.108567 0
M  V30 1787 C 173.885 -2.14756 -0.845481 0
M  V30 1788 C 174.855 -1.06971 -1.27068 0
M  V30 1789 O 176.04 -1.34827 -1.35005 0
M  V30 1790 C 173.18 -2.74298 -2.09415 0
M  V30 1791 C 172.293 -3.96358 -1.71826 0
M  V30 1792 C 171.428 -4.44021 -2.9158 0
M  V30 1793 C 170.467 -5.58637 -2.50181 0
M  V30 1794 N 169.604 -6.01091 -3.62814 0
M  V30 1795 H 174.444 -2.95961 -0.348035 0
M  V30 1796 H 171.981 -1.46226 -0.160106 0
M  V30 1797 H 173.939 -3.06945 -2.82561 0
M  V30 1798 H 172.569 -1.95801 -2.56636 0
M  V30 1799 H 171.621 -3.69939 -0.885947 0
M  V30 1800 H 172.933 -4.79504 -1.37394 0
M  V30 1801 H 172.087 -4.78522 -3.72963 0
M  V30 1802 H 170.826 -3.59803 -3.29231 0
M  V30 1803 H 169.831 -5.23751 -1.67228 0
M  V30 1804 H 171.056 -6.44613 -2.13659 0
M  V30 1805 H 169.002 -5.19817 -4.00158 0
M  V30 1806 H 168.919 -6.79066 -3.32273 0
M  V30 1807 H 170.187 -6.40227 -4.44668 0
M  V30 1808 N 174.416 0.165178 -1.56732 0
M  V30 1809 C 175.662 0.882112 -1.82611 0
M  V30 1810 C 175.995 1.81628 -0.687378 0
M  V30 1811 O 175.27 1.92009 0.310267 0
M  V30 1812 C 175.553 1.67245 -3.18906 0
M  V30 1813 C 175.406 0.760987 -4.43316 0
M  V30 1814 C 176.725 2.63884 -3.52212 0
M  V30 1815 H 173.844 0.319242 -0.664269 0
M  V30 1816 H 176.486 0.148052 -1.89422 0
M  V30 1817 H 174.636 2.29824 -3.1323 0
M  V30 1818 H 176.308 0.147596 -4.61064 0
M  V30 1819 H 174.551 0.0694102 -4.33744 0
M  V30 1820 H 175.222 1.34962 -5.35247 0
M  V30 1821 H 177.698 2.11429 -3.58381 0
M  V30 1822 H 176.574 3.16245 -4.48643 0
M  V30 1823 H 176.835 3.44377 -2.77231 0
M  V30 1824 N 175.894 1.51508 0.433938 0
M  V30 1825 C 177.14 1.64588 1.18484 0
M  V30 1826 C 177.473 0.362666 1.90784 0
M  V30 1827 O 176.748 -0.637892 1.83742 0
M  V30 1828 C 177.031 2.85149 2.19913 0
M  V30 1829 C 176.884 4.23456 1.51674 0
M  V30 1830 C 178.203 3.01227 3.20858 0
M  V30 1831 H 175.322 0.598994 0.429389 0
M  V30 1832 H 177.964 1.84002 0.473647 0
M  V30 1833 H 176.114 2.68729 2.80566 0
M  V30 1834 H 177.786 4.51552 0.943322 0
M  V30 1835 H 176.029 4.25998 0.819035 0
M  V30 1836 H 176.7 5.03812 2.2556 0
M  V30 1837 H 179.176 3.16382 2.70263 0
M  V30 1838 H 178.052 3.87141 3.89118 0
M  V30 1839 H 178.313 2.13447 3.8716 0
M  V30 1840 N 177.372 -0.689602 1.41712 0
M  V30 1841 C 178.62 -1.4468 1.4111 0
M  V30 1842 C 178.941 -1.94986 0.0232196 0
M  V30 1843 O 178.211 -1.72097 -0.935913 0
M  V30 1844 H 176.791 -0.536847 0.519427 0
M  V30 1845 H 179.453 -0.815825 1.77004 0
M  V30 1846 H 178.549 -2.30706 2.10193 0
M  V30 1847 N 178.85 -1.27639 -0.924453 0
M  V30 1848 C 180.099 -1.13549 -1.66702 0
M  V30 1849 C 180.412 0.317487 -1.93006 0
M  V30 1850 O 181.618 0.579333 -2.65247 0
M  V30 1851 C 180.074 -1.98426 -3.00259 0
M  V30 1852 C 179.682 -3.484 -2.81641 0
M  V30 1853 C 181.426 -1.92993 -3.78092 0
M  V30 1854 C 179.333 -4.25464 -4.10773 0
M  V30 1855 H 178.263 -0.421351 -0.625283 0
M  V30 1856 H 180.914 -1.52085 -1.02676 0
M  V30 1857 H 179.296 -1.52736 -3.6536 0
M  V30 1858 H 180.47 -4.01973 -2.25287 0
M  V30 1859 H 178.785 -3.55245 -2.17232 0
M  V30 1860 H 181.382 -2.47844 -4.7379 0
M  V30 1861 H 181.725 -0.904281 -4.0636 0
M  V30 1862 H 182.258 -2.36595 -3.19793 0
M  V30 1863 H 178.997 -5.28566 -3.87683 0
M  V30 1864 H 178.517 -3.76667 -4.66779 0
M  V30 1865 H 180.196 -4.34812 -4.79111 0
M  V30 1866 N 180.328 1.1314 -1.09713 0
M  V30 1867 C 181.275 2.18642 -0.739196 0
M  V30 1868 C 182.245 1.63706 0.280978 0
M  V30 1869 O 183.43 1.90111 0.161946 0
M  V30 1870 C 180.57 3.44685 -0.169102 0
M  V30 1871 C 179.683 4.13711 -1.24367 0
M  V30 1872 C 178.818 5.27379 -0.636019 0
M  V30 1873 C 177.857 5.88259 -1.69169 0
M  V30 1874 N 176.994 6.93352 -1.10485 0
M  V30 1875 H 181.834 2.48607 -1.64312 0
M  V30 1876 H 179.371 1.22066 -0.820875 0
M  V30 1877 H 181.329 4.16815 0.179256 0
M  V30 1878 H 179.959 3.15161 0.698079 0
M  V30 1879 H 179.011 3.39835 -1.70927 0
M  V30 1880 H 180.323 4.55037 -2.04311 0
M  V30 1881 H 179.477 6.06238 -0.236677 0
M  V30 1882 H 178.216 4.8731 0.194928 0
M  V30 1883 H 177.221 5.08092 -2.10055 0
M  V30 1884 H 178.446 6.30399 -2.52536 0
M  V30 1885 H 176.392 6.55335 -0.295234 0
M  V30 1886 H 176.309 7.33236 -1.84121 0
M  V30 1887 H 177.577 7.76057 -0.73181 0
M  V30 1888 N 181.806 0.884767 1.30421 0
M  V30 1889 C 182.716 0.355398 2.31892 0
M  V30 1890 C 183.732 -0.542261 1.65335 0
M  V30 1891 O 184.908 -0.435432 1.96637 0
M  V30 1892 C 181.973 -0.421661 3.44126 0
M  V30 1893 C 181.034 0.505727 4.26311 0
M  V30 1894 C 180.267 -0.234343 5.33185 0
M  V30 1895 O 180.49 -1.46045 5.51386 0
M  V30 1896 O 179.424 0.415443 6.00465 0
M  V30 1897 H 183.25 1.19685 2.79122 0
M  V30 1898 H 180.835 0.648596 1.34587 0
M  V30 1899 H 182.717 -0.861641 4.12497 0
M  V30 1900 H 181.392 -1.23942 2.99032 0
M  V30 1901 H 180.299 0.994513 3.60639 0
M  V30 1902 H 181.632 1.28948 4.75009 0
M  V30 1903 N 183.284 -1.43765 0.645699 0
M  V30 1904 C 184.53 -2.02197 0.156271 0
M  V30 1905 C 184.863 -1.50776 -1.22393 0
M  V30 1906 O 184.138 -0.697771 -1.81553 0
M  V30 1907 C 184.421 -3.59749 0.158872 0
M  V30 1908 C 184.274 -4.21419 1.57245 0
M  V30 1909 C 185.593 -4.37149 -0.50879 0
M  V30 1910 H 182.712 -0.734694 0.0582602 0
M  V30 1911 H 185.354 -1.71157 0.824951 0
M  V30 1912 H 183.504 -3.86325 -0.410525 0
M  V30 1913 H 185.176 -4.059 2.19186 0
M  V30 1914 H 183.419 -3.78356 2.122 0
M  V30 1915 H 184.09 -5.30482 1.52619 0
M  V30 1916 H 186.566 -4.16093 -0.024412 0
M  V30 1917 H 185.442 -5.4683 -0.476213 0
M  V30 1918 H 185.703 -4.12839 -1.58165 0
M  V30 1919 N 184.763 -0.387143 -1.52771 0
M  V30 1920 C 186.009 0.196025 -2.0185 0
M  V30 1921 C 186.342 1.46641 -1.27319 0
M  V30 1922 O 185.617 1.90889 -0.373032 0
M  V30 1923 C 185.9 0.466136 -3.5707 0
M  V30 1924 C 185.753 -0.819385 -4.42274 0
M  V30 1925 C 187.072 1.25768 -4.21747 0
M  V30 1926 H 184.191 0.0697708 -0.73369 0
M  V30 1927 H 186.833 -0.516286 -1.82851 0
M  V30 1928 H 184.983 1.07293 -3.7339 0
M  V30 1929 H 186.655 -1.4563 -4.37709 0
M  V30 1930 H 184.898 -1.43517 -4.09372 0
M  V30 1931 H 185.569 -0.585065 -5.48891 0
M  V30 1932 H 188.045 0.744167 -4.09391 0
M  V30 1933 H 186.921 1.41541 -5.30337 0
M  V30 1934 H 187.182 2.27228 -3.79236 0
M  V30 1935 N 186.241 1.57166 -0.116904 0
M  V30 1936 C 187.518 1.86645 0.585049 0
M  V30 1937 C 187.898 1.0177 1.84949 0
M  V30 1938 O 187.246 0.0960379 2.28298 0
M  V30 1939 C 187.456 3.37736 0.879507 0
M  V30 1940 C 188.804 4.06289 1.23348 0
M  V30 1941 O 189.828 3.42743 0.969836 0
M  V30 1942 O 188.687 5.18455 1.7282 0
M  V30 1943 H 185.781 0.772593 0.295007 0
M  V30 1944 H 188.327 1.69025 -0.151249 0
M  V30 1945 H 187.099 3.91296 -0.0166136 0
M  V30 1946 H 186.722 3.6078 1.67103 0
M  V30 1947 N 187.719 -0.156864 1.56817 0
M  V30 1948 C 188.649 -1.19589 2.00551 0
M  V30 1949 C 189.63 -1.4536 0.883426 0
M  V30 1950 O 190.815 -1.56449 1.15054 0
M  V30 1951 C 187.945 -2.53143 2.37773 0
M  V30 1952 C 186.899 -2.41913 3.53075 0
M  V30 1953 C 186.225 -3.80088 3.76081 0
M  V30 1954 C 187.525 -1.91157 4.86062 0
M  V30 1955 H 189.219 -0.832293 2.87599 0
M  V30 1956 H 186.765 -0.398918 1.38364 0
M  V30 1957 H 188.718 -3.26047 2.66967 0
M  V30 1958 H 187.442 -2.91319 1.4765 0
M  V30 1959 H 186.101 -1.71462 3.24031 0
M  V30 1960 H 185.749 -4.15683 2.83225 0
M  V30 1961 H 185.449 -3.73439 4.53671 0
M  V30 1962 H 186.973 -4.54556 4.0769 0
M  V30 1963 H 188.387 -2.53846 5.14038 0
M  V30 1964 H 186.784 -1.95422 5.67389 0
M  V30 1965 H 187.854 -0.866673 4.77092 0
M  V30 1966 N 189.197 -1.51736 -0.425897 0
M  V30 1967 C 190.444 -1.6497 -1.17436 0
M  V30 1968 C 190.772 -0.371445 -1.9092 0
M  V30 1969 O 190.027 0.644963 -1.84767 0
M  V30 1970 C 190.326 -2.81103 -2.20717 0
M  V30 1971 C 189.992 -4.19954 -1.64162 0
M  V30 1972 C 188.654 -4.57725 -1.48462 0
M  V30 1973 C 191.006 -5.06552 -1.22696 0
M  V30 1974 C 188.334 -5.79789 -0.897873 0
M  V30 1975 C 190.686 -6.29205 -0.654464 0
M  V30 1976 C 189.35 -6.6574 -0.484456 0
M  V30 1977 H 188.62 -0.603668 -0.429727 0
M  V30 1978 H 191.267 -1.85798 -0.463829 0
M  V30 1979 H 189.572 -2.54542 -2.97852 0
M  V30 1980 H 191.269 -2.8854 -2.78471 0
M  V30 1981 H 187.859 -3.90181 -1.77361 0
M  V30 1982 H 192.043 -4.77968 -1.33642 0
M  V30 1983 H 187.299 -6.06733 -0.75402 0
M  V30 1984 H 191.473 -6.95643 -0.324694 0
M  V30 1985 H 189.1 -7.60195 -0.0276833 0
M  V30 1986 N 190.675 0.682077 -1.42076 0
M  V30 1987 C 192.091 0.994324 -1.24841 0
M  V30 1988 C 192.291 2.0096 -0.147389 0
M  V30 1989 O 191.347 2.47822 0.483782 0
M  V30 1990 C 192.66 1.50607 -2.60265 0
M  V30 1991 C 194.208 1.62421 -2.6756 0
M  V30 1992 C 194.683 2.16994 -4.03333 0
M  V30 1993 N 196.174 2.24337 -4.0525 0
M  V30 1994 C 196.909 2.67621 -5.07116 0
M  V30 1995 N 196.405 3.1041 -6.19368 0
M  V30 1996 N 198.198 2.67305 -4.94474 0
M  V30 1997 H 190.349 0.00973908 -2.12398 0
M  V30 1998 H 192.612 0.0668593 -0.945639 0
M  V30 1999 H 192.318 0.834583 -3.41654 0
M  V30 2000 H 192.192 2.48602 -2.83684 0
M  V30 2001 H 194.579 2.28678 -1.86521 0
M  V30 2002 H 194.66 0.629352 -2.47937 0
M  V30 2003 H 194.304 1.51349 -4.84826 0
M  V30 2004 H 194.234 3.17258 -4.20304 0
M  V30 2005 H 196.725 1.94158 -3.24209 0
M  V30 2006 H 197.038 3.42103 -6.92954 0
M  V30 2007 H 195.383 3.08286 -6.22884 0
M  V30 2008 H 198.574 2.33233 -4.05857 0
M  V30 2009 H 198.747 3.00718 -5.73997 0
M  V30 2010 N 192.153 1.28127 0.917671 0
M  V30 2011 C 193.116 1.11744 2.00115 0
M  V30 2012 C 194.116 0.0583052 1.60694 0
M  V30 2013 O 195.306 0.303755 1.71531 0
M  V30 2014 C 192.438 0.704862 3.33533 0
M  V30 2015 H 193.631 2.07966 2.16079 0
M  V30 2016 H 191.184 1.11058 1.09981 0
M  V30 2017 H 191.919 -0.258299 3.2327 0
M  V30 2018 H 191.704 1.4699 3.63505 0
M  V30 2019 H 193.194 0.612768 4.1308 0
M  V30 2020 N 193.631 -1.12557 1.10312 0
M  V30 2021 C 194.879 -1.83675 0.843091 0
M  V30 2022 C 195.2 -1.84435 -0.633131 0
M  V30 2023 O 194.47 -1.30657 -1.45964 0
M  V30 2024 H 193.05 -0.680138 0.308904 0
M  V30 2025 H 195.712 -1.36301 1.39313 0
M  V30 2026 H 194.808 -2.87908 1.2048 0
M  V30 2027 N 195.109 -0.891671 -1.2995 0
M  V30 2028 C 196.525 -0.58662 -1.48428 0
M  V30 2029 C 196.725 0.873951 -1.81561 0
M  V30 2030 O 195.781 1.65471 -1.90724 0
M  V30 2031 C 197.094 -1.50553 -2.60296 0
M  V30 2032 C 198.642 -1.50988 -2.74175 0
M  V30 2033 C 199.117 -2.41488 -3.89163 0
M  V30 2034 N 200.608 -2.39489 -3.96483 0
M  V30 2035 C 201.343 -3.06223 -4.84784 0
M  V30 2036 N 200.839 -3.82206 -5.77833 0
M  V30 2037 N 202.632 -2.95421 -4.78208 0
M  V30 2038 H 194.783 -1.83644 -1.06718 0
M  V30 2039 H 197.046 -0.786455 -0.529332 0
M  V30 2040 H 196.752 -2.54581 -2.42654 0
M  V30 2041 H 196.626 -1.22008 -3.56923 0
M  V30 2042 H 199.013 -0.47708 -2.91218 0
M  V30 2043 H 199.094 -1.83567 -1.78148 0
M  V30 2044 H 198.738 -3.44857 -3.72876 0
M  V30 2045 H 198.668 -2.06222 -4.84541 0
M  V30 2046 H 201.159 -1.84278 -3.29924 0
M  V30 2047 H 201.472 -4.302 -6.41988 0
M  V30 2048 H 199.817 -3.86313 -5.77743 0
M  V30 2049 H 203.008 -2.35581 -4.04499 0
M  V30 2050 H 203.181 -3.47704 -5.46814 0
M  V30 2051 N 196.587 1.43421 -0.653314 0
M  V30 2052 C 197.535 2.32546 0.0501531 0
M  V30 2053 C 198.529 1.48617 0.812985 0
M  V30 2054 O 199.735 1.64825 0.723375 0
M  V30 2055 H 196.11 0.751185 0.0350032 0
M  V30 2056 H 198.081 2.89602 -0.719261 0
M  V30 2057 C 196.83 3.32925 1.00279 0
M  V30 2058 H 196.153 3.97532 0.425236 0
M  V30 2059 H 197.593 3.9792 1.46409 0
M  V30 2060 C 196.052 2.63532 2.09886 0
M  V30 2061 O 196.582 2.45092 3.18265 0
M  V30 2062 N 194.788 2.22905 1.86445 0
M  V30 2063 H 194.335 2.38103 0.98309 0
M  V30 2064 H 194.293 1.76805 2.59976 0
M  V30 2065 N 198.065 0.39524 1.52563 0
M  V30 2066 C 199.313 -0.184678 2.01254 0
M  V30 2067 C 199.634 -1.46822 1.28329 0
M  V30 2068 O 198.904 -1.91666 0.405094 0
M  V30 2069 H 197.484 -0.0712355 0.743596 0
M  V30 2070 H 200.146 0.528293 1.87603 0
M  V30 2071 H 199.242 -0.390681 3.09645 0
M  V30 2072 N 199.544 -1.57102 0.125237 0
M  V30 2073 C 200.955 -1.82384 -0.399142 0
M  V30 2074 C 201.306 -1.04276 -1.66195 0
M  V30 2075 O 200.431 -0.281269 -2.14564 0
M  V30 2076 C 201.026 -3.30821 -0.730932 0
M  V30 2077 C 199.585 -3.56762 -1.19992 0
M  V30 2078 C 198.732 -2.7649 -0.211792 0
M  V30 2079 H 201.683 -1.54786 0.350277 0
M  V30 2080 H 201.704 -3.4579 -1.58775 0
M  V30 2081 H 201.216 -3.87643 0.188345 0
M  V30 2082 H 199.317 -3.05305 -2.13588 0
M  V30 2083 H 199.43 -4.65317 -1.14093 0
M  V30 2084 H 197.794 -2.4489 -0.700085 0
M  V30 2085 H 198.577 -3.36073 0.700691 0
M  V30 2086 N 201.022 0.148545 -1.56898 0
M  V30 2087 C 201.972 1.1886 -1.94567 0
M  V30 2088 C 202.956 1.3863 -0.816735 0
M  V30 2089 O 204.148 1.40218 -1.08018 0
M  V30 2090 C 201.277 2.52262 -2.32849 0
M  V30 2091 C 200.363 2.36092 -3.52309 0
M  V30 2092 N 200.754 1.89674 -4.6889 0
M  V30 2093 C 199.052 2.66848 -3.57363 0
M  V30 2094 C 199.753 1.86511 -5.50989 0
M  V30 2095 N 198.729 2.29766 -4.92655 0
M  V30 2096 H 202.531 0.821793 -2.82177 0
M  V30 2097 H 200.045 0.356615 -1.58436 0
M  V30 2098 H 202.042 3.27447 -2.58039 0
M  V30 2099 H 200.702 2.89727 -1.46589 0
M  V30 2100 H 201.713 1.59663 -4.92674 0
M  V30 2101 H 198.39 3.08198 -2.81639 0
M  V30 2102 H 199.78 1.52128 -6.54452 0
M  V30 2103 N 202.5 1.5196 0.417844 0
M  V30 2104 C 203.748 1.65263 1.16329 0
M  V30 2105 C 204.069 0.380634 1.91249 0
M  V30 2106 O 203.339 -0.604214 1.86349 0
M  V30 2107 H 201.919 0.60912 0.432414 0
M  V30 2108 H 204.581 1.88969 0.477162 0
M  V30 2109 H 203.677 2.4896 1.88217 0
M  V30 2110 N 203.978 -0.674533 1.42435 0
M  V30 2111 C 205.227 -1.43034 1.42212 0
M  V30 2112 C 205.54 -1.95555 0.0420788 0
M  V30 2113 O 206.746 -2.71374 -0.0827558 0
M  V30 2114 C 205.202 -2.58748 2.50155 0
M  V30 2115 C 204.81 -2.12925 3.94166 0
M  V30 2116 C 206.554 -3.36257 2.59098 0
M  V30 2117 C 204.461 -3.25723 4.93618 0
M  V30 2118 H 203.391 -0.537345 0.528939 0
M  V30 2119 H 206.042 -0.73024 1.68344 0
M  V30 2120 H 204.424 -3.31128 2.17188 0
M  V30 2121 H 205.598 -1.47697 4.36488 0
M  V30 2122 H 203.913 -1.48354 3.89076 0
M  V30 2123 H 206.51 -4.20264 3.30578 0
M  V30 2124 H 206.853 -3.82866 1.63461 0
M  V30 2125 H 207.386 -2.70947 2.9126 0
M  V30 2126 H 204.125 -2.84105 5.90732 0
M  V30 2127 H 203.645 -3.89732 4.55926 0
M  V30 2128 H 205.324 -3.91186 5.15347 0
M  V30 2129 N 205.456 -1.28612 -0.910864 0
M  V30 2130 C 206.389 -1.07109 -2.01502 0
M  V30 2131 C 207.367 0.013706 -1.62594 0
M  V30 2132 O 208.551 -0.134796 -1.88017 0
M  V30 2133 C 205.678 -0.628255 -3.32822 0
M  V30 2134 C 204.724 -1.71012 -3.90714 0
M  V30 2135 S 205.557 -3.30676 -4.21205 0
M  V30 2136 C 206.713 -2.88234 -5.55583 0
M  V30 2137 H 206.946 -2.00591 -2.19432 0
M  V30 2138 H 204.479 -1.12633 -1.05609 0
M  V30 2139 H 206.437 -0.37946 -4.08742 0
M  V30 2140 H 205.098 0.28678 -3.12788 0
M  V30 2141 H 204.291 -1.35195 -4.85529 0
M  V30 2142 H 203.893 -1.91186 -3.21441 0
M  V30 2143 H 206.185 -2.34584 -6.35591 0
M  V30 2144 H 207.128 -3.81857 -5.96314 0
M  V30 2145 H 207.536 -2.26862 -5.16908 0
M  V30 2146 N 206.934 1.1197 -1.10907 0
M  V30 2147 C 207.882 2.19927 -0.757303 0
M  V30 2148 C 208.876 1.67564 0.248747 0
M  V30 2149 O 210.082 1.79672 0.108605 0
M  V30 2150 H 206.457 0.716925 -0.226987 0
M  V30 2151 H 208.428 2.46847 -1.67658 0
M  V30 2152 C 207.177 3.47061 -0.210671 0
M  V30 2153 H 206.5 3.87703 -0.976049 0
M  V30 2154 H 207.94 4.24 -0.0026584 0
M  V30 2155 C 206.399 3.19864 1.05777 0
M  V30 2156 O 206.929 3.40049 2.13845 0
M  V30 2157 N 205.135 2.73636 0.978349 0
M  V30 2158 H 204.682 2.5741 0.0988246 0
M  V30 2159 H 204.64 2.55815 1.82773 0
M  V30 2160 N 208.412 0.89855 1.29475 0
M  V30 2161 C 209.659 0.523882 1.95606 0
M  V30 2162 C 209.987 -0.929608 1.70847 0
M  V30 2163 O 209.242 -1.67401 1.01367 0
M  V30 2164 C 209.541 0.761398 3.49195 0
M  V30 2165 C 209.207 2.19207 3.94029 0
M  V30 2166 C 207.869 2.58326 4.05982 0
M  V30 2167 C 210.221 3.12379 4.17216 0
M  V30 2168 C 207.549 3.898 4.38489 0
M  V30 2169 C 209.901 4.43401 4.51197 0
M  V30 2170 C 208.565 4.82394 4.61359 0
M  V30 2171 H 207.835 0.191702 0.715773 0
M  V30 2172 H 210.482 1.13699 1.54094 0
M  V30 2173 H 208.787 0.0653622 3.91745 0
M  V30 2174 H 210.484 0.450904 3.98457 0
M  V30 2175 H 207.074 1.87846 3.85242 0
M  V30 2176 H 211.258 2.83371 4.07449 0
M  V30 2177 H 206.514 4.19734 4.44559 0
M  V30 2178 H 210.688 5.15623 4.68087 0
M  V30 2179 H 208.315 5.84306 4.86303 0
M  V30 2180 N 209.89 -1.43072 0.660911 0
M  V30 2181 C 210.822 -2.29108 -0.0647641 0
M  V30 2182 C 211.835 -1.42928 -0.779448 0
M  V30 2183 O 213.024 -1.66788 -0.635921 0
M  V30 2184 C 210.124 -3.20032 -1.11503 0
M  V30 2185 C 209.297 -4.34792 -0.476955 0
M  V30 2186 C 208.356 -5.06534 -1.42513 0
M  V30 2187 O 207.382 -5.61538 -0.930771 0
M  V30 2188 N 208.584 -5.1075 -2.75889 0
M  V30 2189 H 211.349 -2.92029 0.673731 0
M  V30 2190 H 208.91 -1.53846 0.50427 0
M  V30 2191 H 210.902 -3.64892 -1.75032 0
M  V30 2192 H 209.472 -2.58658 -1.75541 0
M  V30 2193 H 208.692 -3.92752 0.337572 0
M  V30 2194 H 209.98 -5.0879 -0.0318525 0
M  V30 2195 H 209.378 -4.67447 -3.18606 0
M  V30 2196 H 207.935 -5.59302 -3.347 0
M  V30 2197 N 211.368 -0.403325 -1.52352 0
M  V30 2198 C 212.593 0.176499 -2.06648 0
M  V30 2199 C 213.018 1.38577 -1.27193 0
M  V30 2200 O 212.376 1.7879 -0.300637 0
M  V30 2201 C 212.424 0.511061 -3.5696 0
M  V30 2202 O 211.528 1.60294 -3.79973 0
M  V30 2203 H 210.869 0.0167337 -0.663789 0
M  V30 2204 H 213.399 -0.574848 -1.96359 0
M  V30 2205 H 213.409 0.771362 -4.00642 0
M  V30 2206 H 212.084 -0.37296 -4.14224 0
M  V30 2207 H 210.661 1.33526 -3.48174 0
M  V30 2208 N 212.846 1.57033 -0.133567 0
M  V30 2209 C 213.793 2.16074 0.811208 0
M  V30 2210 C 214.763 1.08979 1.2535 0
M  V30 2211 O 215.948 1.36958 1.32843 0
M  V30 2212 C 213.088 2.77595 2.05024 0
M  V30 2213 C 212.201 3.99042 1.65498 0
M  V30 2214 C 211.336 4.48603 2.84479 0
M  V30 2215 C 210.375 5.62547 2.41262 0
M  V30 2216 N 209.512 6.06787 3.53206 0
M  V30 2217 H 214.352 2.96477 0.300906 0
M  V30 2218 H 211.889 1.46462 0.136822 0
M  V30 2219 H 213.847 3.11402 2.77642 0
M  V30 2220 H 212.477 1.99859 2.53488 0
M  V30 2221 H 211.529 3.71302 0.826981 0
M  V30 2222 H 212.841 4.81629 1.29748 0
M  V30 2223 H 211.995 4.84395 3.65303 0
M  V30 2224 H 210.734 3.64995 3.23465 0
M  V30 2225 H 209.739 5.26345 1.58874 0
M  V30 2226 H 210.964 6.47931 2.03377 0
M  V30 2227 H 208.91 5.26117 3.91838 0
M  V30 2228 H 208.827 6.84266 3.21427 0
M  V30 2229 H 210.095 6.4722 4.34427 0
M  V30 2230 N 214.325 -0.140222 1.56975 0
M  V30 2231 C 215.235 -1.19223 2.02047 0
M  V30 2232 C 216.251 -1.46612 0.937062 0
M  V30 2233 O 217.427 -1.58148 1.24704 0
M  V30 2234 C 214.492 -2.50414 2.39778 0
M  V30 2235 C 213.553 -2.30612 3.621 0
M  V30 2236 C 212.786 -3.55547 3.98023 0
M  V30 2237 O 213.009 -4.62004 3.34528 0
M  V30 2238 O 211.943 -3.47808 4.91237 0
M  V30 2239 H 215.769 -0.839559 2.91865 0
M  V30 2240 H 213.354 -0.349453 1.45256 0
M  V30 2241 H 215.236 -3.27747 2.64877 0
M  V30 2242 H 213.911 -2.85198 1.53114 0
M  V30 2243 H 212.818 -1.51207 3.4218 0
M  V30 2244 H 214.151 -2.00741 4.49404 0
M  V30 2245 N 215.803 -1.52179 -0.40978 0
M  V30 2246 C 216.735 -1.71703 -1.51825 0
M  V30 2247 C 217.748 -0.597445 -1.51441 0
M  V30 2248 O 218.937 -0.872582 -1.55719 0
M  V30 2249 C 216.037 -1.74171 -2.90719 0
M  V30 2250 C 215.21 -3.03156 -3.15302 0
M  V30 2251 C 214.269 -2.97445 -4.34065 0
M  V30 2252 O 213.295 -3.71352 -4.31377 0
M  V30 2253 N 214.497 -2.15191 -5.39141 0
M  V30 2254 H 217.262 -2.67334 -1.35472 0
M  V30 2255 H 214.823 -1.50409 -0.599069 0
M  V30 2256 H 216.815 -1.67884 -3.68235 0
M  V30 2257 H 215.385 -0.860166 -3.00533 0
M  V30 2258 H 214.605 -3.23097 -2.25836 0
M  V30 2259 H 215.893 -3.88484 -3.28569 0
M  V30 2260 H 215.291 -1.54573 -5.44173 0
M  V30 2261 H 213.848 -2.1476 -6.15403 0
M  V30 2262 N 217.281 0.66697 -1.42791 0
M  V30 2263 C 218.211 1.79218 -1.49677 0
M  V30 2264 C 219.192 1.66405 -0.352623 0
M  V30 2265 O 220.377 1.85708 -0.567993 0
M  V30 2266 C 217.507 3.17565 -1.40605 0
M  V30 2267 C 216.461 3.45124 -2.53127 0
M  V30 2268 C 215.787 4.83127 -2.29112 0
M  V30 2269 C 217.087 3.41236 -3.95418 0
M  V30 2270 H 218.781 1.73713 -2.43853 0
M  V30 2271 H 216.327 0.83432 -1.17367 0
M  V30 2272 H 218.28 3.96022 -1.44029 0
M  V30 2273 H 217.004 3.23767 -0.429271 0
M  V30 2274 H 215.663 2.69031 -2.49034 0
M  V30 2275 H 215.311 4.85988 -1.29709 0
M  V30 2276 H 215.011 5.02528 -3.04531 0
M  V30 2277 H 216.535 5.63859 -2.34297 0
M  V30 2278 H 217.949 4.09651 -4.01073 0
M  V30 2279 H 216.346 3.72173 -4.70752 0
M  V30 2280 H 217.416 2.39665 -4.21532 0
M  V30 2281 N 218.759 1.29093 0.90403 0
M  V30 2282 C 219.707 1.13727 2.02901 0
M  V30 2283 C 220.701 0.0539853 1.69314 0
M  V30 2284 O 221.907 0.213469 1.7873 0
M  V30 2285 H 218.282 0.35117 0.664969 0
M  V30 2286 H 220.253 2.08982 2.13001 0
M  V30 2287 C 219.002 0.826066 3.37745 0
M  V30 2288 H 218.325 1.65164 3.64089 0
M  V30 2289 H 219.765 0.758559 4.17159 0
M  V30 2290 C 218.224 -0.470541 3.33598 0
M  V30 2291 O 218.754 -1.49792 3.72727 0
M  V30 2292 N 216.96 -0.474812 2.86695 0
M  V30 2293 H 216.507 0.361692 2.55048 0
M  V30 2294 H 216.465 -1.34236 2.84303 0
M  V30 2295 N 220.237 -1.11381 1.11499 0
M  V30 2296 C 221.167 -2.19509 0.796125 0
M  V30 2297 C 222.148 -1.68458 -0.235796 0
M  V30 2298 O 223.333 -1.93947 -0.0991344 0
M  V30 2299 C 220.463 -3.46475 0.239205 0
M  V30 2300 C 219.417 -4.10744 1.20307 0
M  V30 2301 C 218.743 -5.32293 0.50683 0
M  V30 2302 C 220.043 -4.55597 2.55399 0
M  V30 2303 H 221.737 -2.46439 1.70024 0
M  V30 2304 H 219.283 -1.18446 0.818935 0
M  V30 2305 H 221.236 -4.214 0.00392006 0
M  V30 2306 H 219.96 -3.19006 -0.700206 0
M  V30 2307 H 218.619 -3.37813 1.42399 0
M  V30 2308 H 218.267 -5.01095 -0.437408 0
M  V30 2309 H 217.967 -5.76243 1.1497 0
M  V30 2310 H 219.491 -6.09956 0.280351 0
M  V30 2311 H 220.905 -5.21841 2.37391 0
M  V30 2312 H 219.302 -5.10363 3.15673 0
M  V30 2313 H 220.372 -3.69013 3.14575 0
M  V30 2314 N 221.715 -0.905404 -1.28997 0
M  V30 2315 C 222.625 -0.392246 -2.31298 0
M  V30 2316 C 223.641 0.515889 -1.66176 0
M  V30 2317 O 224.817 0.404093 -1.97304 0
M  V30 2318 C 221.882 0.36686 -3.44754 0
M  V30 2319 C 220.943 -0.573485 -4.25452 0
M  V30 2320 C 220.176 0.149488 -5.33491 0
M  V30 2321 O 220.399 1.37255 -5.5364 0
M  V30 2322 O 219.333 -0.510919 -5.99728 0
M  V30 2323 H 223.159 -1.2411 -2.77183 0
M  V30 2324 H 220.744 -0.669926 -1.33538 0
M  V30 2325 H 222.626 0.795907 -4.13816 0
M  V30 2326 H 221.301 1.19169 -3.00966 0
M  V30 2327 H 220.208 -1.05176 -3.59011 0
M  V30 2328 H 221.541 -1.36489 -4.72897 0
M  V30 2329 N 223.193 1.4272 -0.668489 0
M  V30 2330 C 224.423 2.05668 -0.196063 0
M  V30 2331 C 224.831 1.5028 1.14946 0
M  V30 2332 O 224.174 0.6348 1.72383 0
M  V30 2333 C 224.236 3.59469 -0.0468879 0
M  V30 2334 C 223.9 4.37518 -1.32012 0
M  V30 2335 C 224.897 4.68584 -2.25222 0
M  V30 2336 C 222.582 4.77266 -1.56596 0
M  V30 2337 C 224.576 5.38326 -3.41297 0
M  V30 2338 C 222.263 5.4675 -2.72962 0
M  V30 2339 C 223.261 5.77204 -3.65137 0
M  V30 2340 O 222.949 6.45264 -4.79468 0
M  V30 2341 H 222.681 0.669382 -0.0943599 0
M  V30 2342 H 225.235 1.83954 -0.913788 0
M  V30 2343 H 223.465 3.79817 0.726357 0
M  V30 2344 H 225.154 4.04071 0.384852 0
M  V30 2345 H 225.92 4.38382 -2.07477 0
M  V30 2346 H 221.799 4.52959 -0.857249 0
M  V30 2347 H 225.343 5.62014 -4.13263 0
M  V30 2348 H 221.24 5.76369 -2.90635 0
M  V30 2349 H 222.008 6.63753 -4.78931 0
M  V30 2350 N 224.671 0.411399 1.52136 0
M  V30 2351 C 225.92 -0.165009 2.01024 0
M  V30 2352 C 226.233 -1.4603 1.30133 0
M  V30 2353 O 227.439 -2.1181 1.69849 0
M  V30 2354 C 225.895 -0.344618 3.58246 0
M  V30 2355 C 225.503 0.938716 4.38055 0
M  V30 2356 C 227.247 -0.876195 4.15359 0
M  V30 2357 C 225.154 0.726172 5.86925 0
M  V30 2358 H 224.084 -0.0654407 0.751155 0
M  V30 2359 H 226.735 0.537192 1.75461 0
M  V30 2360 H 225.117 -1.10921 3.80148 0
M  V30 2361 H 226.291 1.70963 4.27912 0
M  V30 2362 H 224.606 1.39688 3.92271 0
M  V30 2363 H 227.203 -1.05128 5.24263 0
M  V30 2364 H 227.546 -1.85152 3.7286 0
M  V30 2365 H 228.079 -0.170607 3.97434 0
M  V30 2366 H 224.818 1.67312 6.33788 0
M  V30 2367 H 224.338 -0.00540283 5.998 0
M  V30 2368 H 226.017 0.369231 6.45946 0
M  V30 2369 N 226.149 -1.5696 0.141893 0
M  V30 2370 C 227.079 -2.19516 -0.795936 0
M  V30 2371 C 228.06 -1.14187 -1.26077 0
M  V30 2372 O 229.245 -1.42511 -1.31925 0
M  V30 2373 C 226.375 -2.81272 -2.03723 0
M  V30 2374 C 225.329 -3.92384 -1.70936 0
M  V30 2375 C 224.655 -4.41052 -3.02287 0
M  V30 2376 C 225.955 -5.13403 -0.959954 0
M  V30 2377 H 227.649 -2.98138 -0.274596 0
M  V30 2378 H 225.195 -1.43406 -0.130636 0
M  V30 2379 H 227.148 -3.237 -2.69808 0
M  V30 2380 H 225.872 -1.99973 -2.58221 0
M  V30 2381 H 224.531 -3.50566 -1.07232 0
M  V30 2382 H 224.179 -3.56582 -3.54765 0
M  V30 2383 H 223.879 -5.15993 -2.81114 0
M  V30 2384 H 225.403 -4.86146 -3.69451 0
M  V30 2385 H 226.817 -5.52706 -1.52279 0
M  V30 2386 H 225.214 -5.94073 -0.848357 0
M  V30 2387 H 226.284 -4.84875 0.0492434 0
M  V30 2388 N 227.627 0.131896 -1.57047 0
M  V30 2389 C 228.575 1.18146 -2.0036 0
M  V30 2390 C 229.569 1.43614 -0.898406 0
M  V30 2391 O 230.775 1.43729 -1.08361 0
M  V30 2392 H 227.15 0.398042 -0.638018 0
M  V30 2393 H 229.121 0.789564 -2.87765 0
M  V30 2394 C 227.87 2.50341 -2.41298 0
M  V30 2395 H 227.193 2.31578 -3.25902 0
M  V30 2396 H 228.633 3.22371 -2.75414 0
M  V30 2397 C 227.092 3.11984 -1.27153 0
M  V30 2398 O 227.622 3.97484 -0.580459 0
M  V30 2399 N 225.828 2.71662 -1.03189 0
M  V30 2400 H 225.375 2.02231 -1.59564 0
M  V30 2401 H 225.333 3.13238 -0.270077 0
M  V30 2402 N 229.106 1.52395 0.401703 0
M  V30 2403 C 230.346 1.68498 1.15705 0
M  V30 2404 C 230.71 0.409748 1.87577 0
M  V30 2405 O 231.911 0.446983 2.65058 0
M  V30 2406 C 230.182 2.87789 2.11924 0
M  V30 2407 S 231.741 3.24415 2.95466 0
M  V30 2408 H 228.559 0.593267 0.391862 0
M  V30 2409 H 231.161 1.90408 0.443282 0
M  V30 2410 H 229.865 3.7884 1.57824 0
M  V30 2411 H 229.396 2.68175 2.87829 0
M  V30 2412 H 231.411 2.73614 4.13944 0
M  V30 2413 N 230.584 -0.659388 1.43143 0
M  V30 2414 C 231.995 -1.24041 1.39537 0
M  V30 2415 C 232.346 -1.95963 0.0963364 0
M  V30 2416 O 231.471 -2.00892 -0.804438 0
M  V30 2417 C 232.066 -2.25601 2.52764 0
M  V30 2418 C 230.625 -2.79195 2.52443 0
M  V30 2419 C 229.772 -1.53743 2.30778 0
M  V30 2420 H 232.723 -0.451792 1.52133 0
M  V30 2421 H 232.744 -3.07651 2.23899 0
M  V30 2422 H 232.256 -1.73226 3.47296 0
M  V30 2423 H 230.357 -3.35649 1.61773 0
M  V30 2424 H 230.47 -3.2716 3.50004 0
M  V30 2425 H 228.834 -1.80869 1.79328 0
M  V30 2426 H 229.617 -1.03312 3.27386 0
M  V30 2427 N 232.062 -1.29571 -0.897171 0
M  V30 2428 C 233.025 -1.14913 -1.98312 0
M  V30 2429 C 234.025 -0.0838629 -1.60581 0
M  V30 2430 O 235.215 -0.331006 -1.71026 0
M  V30 2431 C 232.347 -0.757835 -3.3237 0
M  V30 2432 H 233.54 -2.11377 -2.12743 0
M  V30 2433 H 231.093 -1.12793 -1.08201 0
M  V30 2434 H 231.828 0.206837 -3.2364 0
M  V30 2435 H 231.613 -1.52755 -3.61121 0
M  V30 2436 H 233.103 -0.678408 -4.12053 0
M  V30 2437 N 233.54 1.10788 -1.12088 0
M  V30 2438 C 234.487 2.17025 -0.785407 0
M  V30 2439 C 235.457 1.64265 0.246191 0
M  V30 2440 O 236.642 1.90412 0.121584 0
M  V30 2441 C 233.782 3.44249 -0.242177 0
M  V30 2442 C 232.895 4.1098 -1.33115 0
M  V30 2443 C 232.03 5.25911 -0.747741 0
M  V30 2444 C 231.069 5.84538 -1.81609 0
M  V30 2445 N 230.206 6.90853 -1.25167 0
M  V30 2446 H 235.046 2.45066 -1.69548 0
M  V30 2447 H 232.583 1.20297 -0.846582 0
M  V30 2448 H 234.541 4.17101 0.0908026 0
M  V30 2449 H 233.171 3.16571 0.631072 0
M  V30 2450 H 232.223 3.36133 -1.78097 0
M  V30 2451 H 233.535 4.50601 -2.13917 0
M  V30 2452 H 232.689 6.056 -0.365216 0
M  V30 2453 H 231.428 4.87614 0.0915188 0
M  V30 2454 H 230.433 5.03522 -2.20785 0
M  V30 2455 H 231.658 6.249 -2.6585 0
M  V30 2456 H 229.604 6.54562 -0.434174 0
M  V30 2457 H 229.521 7.29166 -1.99633 0
M  V30 2458 H 230.789 7.7433 -0.896259 0
M  V30 2459 N 235.018 0.912232 1.28515 0
M  V30 2460 C 236.264 0.545405 1.95328 0
M  V30 2461 C 236.597 -0.908313 1.71649 0
M  V30 2462 O 235.872 -1.64575 1.03659 0
M  V30 2463 C 236.155 0.853483 3.4984 0
M  V30 2464 C 236.008 2.35982 3.82926 0
M  V30 2465 C 237.327 0.348589 4.38717 0
M  V30 2466 H 234.446 0.199626 0.709449 0
M  V30 2467 H 237.088 1.1412 1.5191 0
M  V30 2468 H 235.238 0.34643 3.86952 0
M  V30 2469 H 236.91 2.93738 3.55691 0
M  V30 2470 H 235.153 2.81543 3.30024 0
M  V30 2471 H 235.824 2.52593 4.90816 0
M  V30 2472 H 238.3 0.78294 4.08668 0
M  V30 2473 H 237.176 0.593242 5.45685 0
M  V30 2474 H 237.437 -0.751049 4.35674 0
M  V30 2475 N 236.496 -1.42363 0.676048 0
M  V30 2476 C 237.745 -2.00745 0.196037 0
M  V30 2477 C 238.058 -1.54083 -1.20489 0
M  V30 2478 O 239.264 -2.04891 -1.78134 0
M  V30 2479 C 237.72 -3.58651 0.299616 0
M  V30 2480 C 237.328 -4.143 1.70468 0
M  V30 2481 C 239.072 -4.24326 -0.121619 0
M  V30 2482 C 236.979 -5.64574 1.76096 0
M  V30 2483 H 235.909 -0.750787 0.0695301 0
M  V30 2484 H 238.56 -1.63072 0.841412 0
M  V30 2485 H 236.942 -3.93833 -0.413673 0
M  V30 2486 H 238.116 -3.90575 2.44515 0
M  V30 2487 H 236.431 -3.61081 2.07387 0
M  V30 2488 H 239.028 -5.34607 -0.0997362 0
M  V30 2489 H 239.371 -3.99897 -1.15708 0
M  V30 2490 H 239.904 -3.94108 0.540706 0
M  V30 2491 H 236.643 -5.93804 2.77628 0
M  V30 2492 H 236.163 -5.90286 1.06406 0
M  V30 2493 H 237.842 -6.29013 1.51496 0
M  V30 2494 N 237.974 -0.419461 -1.51915 0
M  V30 2495 C 239.251 0.211999 -1.94448 0
M  V30 2496 C 239.631 1.61703 -1.35703 0
M  V30 2497 O 238.979 2.22102 -0.536931 0
M  V30 2498 C 239.189 0.207872 -3.4838 0
M  V30 2499 C 240.537 0.422192 -4.22496 0
M  V30 2500 O 241.561 0.286778 -3.55044 0
M  V30 2501 O 240.42 0.690009 -5.42126 0
M  V30 2502 H 237.514 0.139586 -0.815135 0
M  V30 2503 H 240.06 -0.476151 -1.62883 0
M  V30 2504 H 238.832 -0.775102 -3.83546 0
M  V30 2505 H 238.455 0.939688 -3.86336 0
M  V30 2506 N 239.452 1.56882 -0.150215 0
M  V30 2507 C 240.4 2.18214 0.805313 0
M  V30 2508 C 241.394 1.14006 1.25296 0
M  V30 2509 O 242.6 1.3225 1.22107 0
M  V30 2510 H 238.975 0.698762 0.277913 0
M  V30 2511 H 240.946 2.97231 0.263862 0
M  V30 2512 C 239.695 2.82065 2.03309 0
M  V30 2513 H 239.018 3.61968 1.69763 0
M  V30 2514 H 240.458 3.28477 2.68103 0
M  V30 2515 C 238.917 1.80739 2.84315 0
M  V30 2516 O 239.447 1.27983 3.80767 0
M  V30 2517 N 237.653 1.4997 2.48913 0
M  V30 2518 H 237.2 1.93062 1.70542 0
M  V30 2519 H 237.158 0.824217 3.03404 0
M  V30 2520 N 240.93 -0.123565 1.57115 0
M  V30 2521 C 241.88 -1.1575 1.96433 0
M  V30 2522 C 242.864 -1.37313 0.838686 0
M  V30 2523 O 244.056 -1.38482 1.10235 0
M  V30 2524 C 241.185 -2.48526 2.36833 0
M  V30 2525 C 240.271 -2.30457 3.5602 0
M  V30 2526 N 240.662 -1.8219 4.71848 0
M  V30 2527 C 238.96 -2.61129 3.61563 0
M  V30 2528 C 239.661 -1.77721 5.53886 0
M  V30 2529 N 238.637 -2.21899 4.96248 0
M  V30 2530 H 242.439 -0.776797 2.83449 0
M  V30 2531 H 239.953 -0.331364 1.58983 0
M  V30 2532 H 241.95 -3.233 2.63216 0
M  V30 2533 H 240.61 -2.87358 1.5118 0
M  V30 2534 H 241.621 -1.51805 4.95152 0
M  V30 2535 H 238.298 -3.03678 2.86507 0
M  V30 2536 H 239.688 -1.41697 6.56789 0
M  V30 2537 N 242.408 -1.52605 -0.393616 0
M  V30 2538 C 243.636 -1.71294 -1.16043 0
M  V30 2539 C 244.051 -0.429259 -1.83855 0
M  V30 2540 O 243.408 0.595921 -1.72496 0
M  V30 2541 C 243.459 -2.8593 -2.21193 0
M  V30 2542 O 243.18 -4.09329 -1.56146 0
M  V30 2543 C 244.681 -3.16259 -3.10636 0
M  V30 2544 H 241.901 -0.573641 -0.348104 0
M  V30 2545 H 244.445 -1.99234 -0.461092 0
M  V30 2546 H 242.6 -2.60465 -2.86769 0
M  V30 2547 H 243.014 -4.73323 -2.25978 0
M  V30 2548 H 244.488 -3.99946 -3.80456 0
M  V30 2549 H 244.965 -2.3045 -3.73884 0
M  V30 2550 H 245.571 -3.43547 -2.50711 0
M  V30 2551 N 243.887 0.651787 -1.4349 0
M  V30 2552 C 245.133 1.41376 -1.45398 0
M  V30 2553 C 245.466 1.94041 -0.0784823 0
M  V30 2554 O 244.741 1.72379 0.900878 0
M  V30 2555 C 245.024 2.59414 -2.49752 0
M  V30 2556 C 244.877 2.12232 -3.96582 0
M  V30 2557 C 246.196 3.61626 -2.50827 0
M  V30 2558 H 243.315 0.512719 -0.529422 0
M  V30 2559 H 245.957 0.738796 -1.75048 0
M  V30 2560 H 244.107 3.16997 -2.246 0
M  V30 2561 H 245.779 1.59639 -4.32797 0
M  V30 2562 H 244.022 1.43592 -4.09346 0
M  V30 2563 H 244.693 2.9712 -4.65214 0
M  V30 2564 H 247.169 3.13805 -2.7325 0
M  V30 2565 H 246.045 4.41766 -3.25783 0
M  V30 2566 H 246.306 4.14314 -1.5426 0
M  V30 2567 N 245.365 1.30045 0.890287 0
M  V30 2568 C 246.275 1.17885 2.02831 0
M  V30 2569 C 247.291 0.0999609 1.73713 0
M  V30 2570 O 248.467 0.313867 1.98939 0
M  V30 2571 C 245.532 0.866079 3.35708 0
M  V30 2572 C 244.593 2.02979 3.78283 0
M  V30 2573 C 243.826 1.73184 5.0482 0
M  V30 2574 O 244.049 0.657237 5.66601 0
M  V30 2575 O 242.983 2.58267 5.43674 0
M  V30 2576 H 246.809 2.13474 2.16015 0
M  V30 2577 H 244.394 1.09587 1.01543 0
M  V30 2578 H 246.276 0.706623 4.15433 0
M  V30 2579 H 244.951 -0.0599443 3.23644 0
M  V30 2580 H 243.858 2.24454 2.99285 0
M  V30 2581 H 245.191 2.93734 3.94944 0
M  V30 2582 N 246.843 -1.10192 1.12674 0
M  V30 2583 C 247.806 -2.14786 0.799979 0
M  V30 2584 C 248.806 -1.59711 -0.18685 0
M  V30 2585 O 249.996 -1.74156 0.0392558 0
M  V30 2586 C 247.128 -3.40374 0.189228 0
M  V30 2587 H 248.321 -2.45203 1.72671 0
M  V30 2588 H 245.874 -1.25597 0.930326 0
M  V30 2589 H 246.609 -3.15577 -0.747107 0
M  V30 2590 H 246.394 -3.81637 0.899766 0
M  V30 2591 H 247.884 -4.17594 -0.0228143 0
M  V30 2592 N 248.321 -0.919034 -1.28029 0
M  V30 2593 C 249.284 -0.416182 -2.2539 0
M  V30 2594 C 250.284 0.460438 -1.54067 0
M  V30 2595 O 251.474 0.262744 -1.72207 0
M  V30 2596 C 248.606 0.402707 -3.38513 0
M  V30 2597 H 249.799 -1.27629 -2.71387 0
M  V30 2598 H 247.352 -0.698919 -1.39803 0
M  V30 2599 H 248.087 1.282 -2.97885 0
M  V30 2600 H 247.872 -0.225698 -3.9145 0
M  V30 2601 H 249.362 0.745191 -4.10897 0
M  V30 2602 N 249.799 1.42003 -0.683588 0
M  V30 2603 C 251.047 2.01015 -0.209101 0
M  V30 2604 C 251.368 1.54365 1.19149 0
M  V30 2605 O 250.638 0.769083 1.80172 0
M  V30 2606 H 249.218 0.743294 -0.074315 0
M  V30 2607 H 251.88 1.73798 -0.882066 0
M  V30 2608 H 250.976 3.11343 -0.2172 0
M  V30 2609 N 251.277 0.427512 1.51691 0
M  V30 2610 C 252.224 -0.388867 2.275 0
M  V30 2611 C 253.194 -1.02532 1.30677 0
M  V30 2612 O 254.379 -1.0461 1.59566 0
M  V30 2613 C 251.519 -1.48954 3.11298 0
M  V30 2614 C 250.632 -0.872194 4.23104 0
M  V30 2615 C 249.767 -1.94709 4.94228 0
M  V30 2616 C 248.806 -1.30766 5.97969 0
M  V30 2617 N 247.943 -2.32349 6.62539 0
M  V30 2618 H 252.783 0.263997 2.96828 0
M  V30 2619 H 250.32 0.142033 1.46413 0
M  V30 2620 H 252.278 -2.13887 3.58201 0
M  V30 2621 H 250.908 -2.11217 2.44105 0
M  V30 2622 H 249.96 -0.111419 3.80237 0
M  V30 2623 H 251.272 -0.365264 4.97461 0
M  V30 2624 H 250.426 -2.67327 5.44629 0
M  V30 2625 H 249.165 -2.48773 4.1948 0
M  V30 2626 H 248.17 -0.566902 5.4687 0
M  V30 2627 H 249.395 -0.774483 6.74669 0
M  V30 2628 H 247.341 -2.85511 5.90609 0
M  V30 2629 H 247.258 -1.8652 7.3263 0
M  V30 2630 H 248.526 -3.04481 7.17574 0
M  V30 2631 N 252.755 -1.56801 0.158532 0
M  V30 2632 C 254.001 -1.96781 -0.490405 0
M  V30 2633 C 254.334 -1.04397 -1.63753 0
M  V30 2634 O 253.609 -0.0885805 -1.94298 0
M  V30 2635 C 253.892 -3.4635 -0.985594 0
M  V30 2636 C 253.745 -4.49512 0.160824 0
M  V30 2637 C 255.064 -3.98697 -1.86355 0
M  V30 2638 H 252.183 -0.715482 -0.176788 0
M  V30 2639 H 254.825 -1.88451 0.242088 0
M  V30 2640 H 252.975 -3.53579 -1.60978 0
M  V30 2641 H 254.647 -4.54353 0.797537 0
M  V30 2642 H 252.89 -4.26013 0.818256 0
M  V30 2643 H 253.561 -5.51531 -0.227569 0
M  V30 2644 H 256.037 -3.94019 -1.33746 0
M  V30 2645 H 254.913 -5.03792 -2.17909 0
M  V30 2646 H 255.174 -3.41744 -2.8047 0
M  V30 2647 N 254.233 0.115231 -1.57178 0
M  V30 2648 C 255.48 0.822351 -1.8505 0
M  V30 2649 C 255.808 1.79701 -0.744168 0
M  V30 2650 O 255.063 1.93909 0.26414 0
M  V30 2651 C 255.362 1.60324 -3.19423 0
M  V30 2652 C 255.028 0.772536 -4.44233 0
M  V30 2653 C 253.69 0.543468 -4.78121 0
M  V30 2654 C 256.042 0.193746 -5.2084 0
M  V30 2655 C 253.37 -0.274583 -5.86057 0
M  V30 2656 C 255.722 -0.611517 -6.29637 0
M  V30 2657 C 254.386 -0.850867 -6.62055 0
M  V30 2658 H 253.656 0.30092 -0.677147 0
M  V30 2659 H 256.303 0.0845802 -1.91313 0
M  V30 2660 H 254.608 2.41203 -3.08753 0
M  V30 2661 H 256.305 2.1544 -3.38211 0
M  V30 2662 H 252.895 0.96117 -4.17683 0
M  V30 2663 H 257.079 0.357926 -4.95008 0
M  V30 2664 H 252.335 -0.469206 -6.09597 0
M  V30 2665 H 256.509 -1.06697 -6.88178 0
M  V30 2666 H 254.136 -1.48657 -7.45523 0
M  V30 2667 N 255.711 1.52812 0.385517 0
M  V30 2668 C 256.658 1.77838 1.47113 0
M  V30 2669 C 257.628 0.621757 1.54024 0
M  V30 2670 O 258.813 0.861846 1.70226 0
M  V30 2671 C 255.953 1.95618 2.84302 0
M  V30 2672 C 255.066 3.23316 2.86515 0
M  V30 2673 C 254.201 3.31394 4.15152 0
M  V30 2674 C 253.24 4.53201 4.1143 0
M  V30 2675 N 252.377 4.58542 5.3168 0
M  V30 2676 H 257.217 2.70482 1.25073 0
M  V30 2677 H 254.754 1.34006 0.606692 0
M  V30 2678 H 256.712 2.03912 3.63972 0
M  V30 2679 H 255.342 1.06331 3.04784 0
M  V30 2680 H 254.394 3.24076 1.99195 0
M  V30 2681 H 255.706 4.13045 2.79634 0
M  V30 2682 H 254.86 3.3889 5.03228 0
M  V30 2683 H 253.599 2.39645 4.24761 0
M  V30 2684 H 252.604 4.45827 3.21742 0
M  V30 2685 H 253.829 5.46271 4.03442 0
M  V30 2686 H 251.775 3.69686 5.41912 0
M  V30 2687 H 251.692 5.42148 5.26889 0
M  V30 2688 H 252.96 4.70296 6.21644 0
M  V30 2689 N 257.189 -0.644168 1.43834 0
M  V30 2690 C 258.152 -1.73857 1.49353 0
M  V30 2691 C 259.152 -1.56315 0.377112 0
M  V30 2692 O 260.342 -1.62048 0.639226 0
M  V30 2693 C 257.474 -3.12819 1.35488 0
M  V30 2694 H 258.667 -1.70342 2.46827 0
M  V30 2695 H 256.22 -0.856652 1.30733 0
M  V30 2696 H 256.955 -3.2194 0.390569 0
M  V30 2697 H 256.74 -3.26958 2.16428 0
M  V30 2698 H 258.23 -3.92606 1.42302 0
M  V30 2699 N 258.668 -1.30515 -0.883378 0
M  V30 2700 C 259.615 -1.17032 -1.98927 0
M  V30 2701 C 260.585 -0.0594241 -1.65994 0
M  V30 2702 O 261.77 -0.229895 -1.8941 0
M  V30 2703 C 258.91 -0.869777 -3.33959 0
M  V30 2704 C 258.023 -2.06271 -3.79574 0
M  V30 2705 C 257.158 -1.70011 -5.03259 0
M  V30 2706 C 256.197 -2.8579 -5.41286 0
M  V30 2707 N 255.334 -2.49816 -6.56153 0
M  V30 2708 H 260.174 -2.1164 -2.09792 0
M  V30 2709 H 257.711 -1.05296 -1.02719 0
M  V30 2710 H 259.669 -0.676138 -4.11685 0
M  V30 2711 H 258.299 0.0394332 -3.22776 0
M  V30 2712 H 257.351 -2.36755 -2.97744 0
M  V30 2713 H 258.663 -2.92971 -4.03694 0
M  V30 2714 H 257.817 -1.47032 -5.88614 0
M  V30 2715 H 256.556 -0.804829 -4.81013 0
M  V30 2716 H 255.561 -3.09434 -4.54456 0
M  V30 2717 H 256.786 -3.76008 -5.65504 0
M  V30 2718 H 254.732 -1.62795 -6.35479 0
M  V30 2719 H 254.649 -3.30048 -6.8015 0
M  V30 2720 H 255.917 -2.30197 -7.44735 0
M  V30 2721 N 260.146 1.09593 -1.13257 0
M  V30 2722 C 261.094 2.18271 -0.803783 0
M  V30 2723 C 262.088 1.68054 0.213148 0
M  V30 2724 O 263.294 1.79862 0.0704699 0
M  V30 2725 H 259.669 0.711949 -0.242143 0
M  V30 2726 H 261.64 2.43235 -1.72856 0
M  V30 2727 C 260.389 3.46536 -0.28424 0
M  V30 2728 H 259.712 3.85545 -1.05807 0
M  V30 2729 H 261.152 4.23899 -0.0925945 0
M  V30 2730 C 259.611 3.22036 0.989684 0
M  V30 2731 O 260.141 3.44509 2.06584 0
M  V30 2732 N 258.347 2.7565 0.920086 0
M  V30 2733 H 257.894 2.57562 0.0442019 0
M  V30 2734 H 257.852 2.59635 1.77306 0
M  V30 2735 N 261.624 0.925811 1.2754 0
M  V30 2736 C 262.554 0.440748 2.29303 0
M  V30 2737 C 263.535 -0.497971 1.62648 0
M  V30 2738 O 264.72 -0.403126 1.8997 0
M  V30 2739 C 261.85 -0.309048 3.45922 0
M  V30 2740 C 260.804 0.54166 4.24559 0
M  V30 2741 C 260.13 -0.337191 5.33636 0
M  V30 2742 C 261.43 1.80516 4.90114 0
M  V30 2743 H 263.124 1.29121 2.70126 0
M  V30 2744 H 260.67 0.622323 1.29858 0
M  V30 2745 H 262.623 -0.659315 4.1621 0
M  V30 2746 H 261.347 -1.19352 3.04011 0
M  V30 2747 H 260.006 0.874609 3.56014 0
M  V30 2748 H 259.654 -1.22056 4.87966 0
M  V30 2749 H 259.354 0.228497 5.87156 0
M  V30 2750 H 260.878 -0.683072 6.06767 0
M  V30 2751 H 262.292 1.52307 5.52698 0
M  V30 2752 H 260.689 2.3142 5.53683 0
M  V30 2753 H 261.759 2.52581 4.13921 0
M  V30 2754 N 263.102 -1.41638 0.69111 0
M  V30 2755 C 264.351 -2.00526 0.217318 0
M  V30 2756 C 264.664 -1.55353 -1.18848 0
M  V30 2757 O 265.87 -2.06769 -1.75951 0
M  V30 2758 C 264.326 -3.58313 0.337639 0
M  V30 2759 C 263.934 -4.12469 1.74852 0
M  V30 2760 C 265.678 -4.24431 -0.0766066 0
M  V30 2761 C 263.585 -5.62675 1.82074 0
M  V30 2762 H 262.515 -0.750008 0.0774893 0
M  V30 2763 H 265.166 -1.6217 0.858661 0
M  V30 2764 H 263.548 -3.9425 -0.371879 0
M  V30 2765 H 264.722 -3.8796 2.48644 0
M  V30 2766 H 263.037 -3.58861 2.11205 0
M  V30 2767 H 265.634 -5.34683 -0.0430284 0
M  V30 2768 H 265.977 -4.01101 -1.1146 0
M  V30 2769 H 266.51 -3.93512 0.582476 0
M  V30 2770 H 263.249 -5.90826 2.83911 0
M  V30 2771 H 262.769 -5.89124 1.12661 0
M  V30 2772 H 264.448 -6.27371 1.58159 0
M  V30 2773 N 264.58 -0.43555 -1.51462 0
M  V30 2774 C 265.51 0.367376 -2.30592 0
M  V30 2775 C 266.491 1.02263 -1.35928 0
M  V30 2776 O 267.676 1.02661 -1.64847 0
M  V30 2777 C 264.806 1.46983 -3.14664 0
M  V30 2778 C 263.76 0.938161 -4.17591 0
M  V30 2779 C 263.086 2.13622 -4.90173 0
M  V30 2780 C 264.386 -0.0261621 -5.22293 0
M  V30 2781 H 266.08 -0.292969 -2.97963 0
M  V30 2782 H 263.626 -0.14234 -1.43295 0
M  V30 2783 H 265.579 2.03873 -3.688 0
M  V30 2784 H 264.303 2.15843 -2.4511 0
M  V30 2785 H 262.962 0.391481 -3.64504 0
M  V30 2786 H 262.61 2.81098 -4.17124 0
M  V30 2787 H 262.31 1.78688 -5.59772 0
M  V30 2788 H 263.834 2.7107 -5.47132 0
M  V30 2789 H 265.248 0.452384 -5.71512 0
M  V30 2790 H 263.645 -0.287992 -5.99409 0
M  V30 2791 H 264.715 -0.963391 -4.75233 0
M  V30 2792 N 266.058 1.56714 -0.166846 0
M  V30 2793 C 267.021 2.16539 0.751232 0
M  V30 2794 C 268.021 1.11228 1.16125 0
M  V30 2795 O 269.211 1.36765 1.07894 0
M  V30 2796 C 266.343 2.74462 2.02196 0
M  V30 2797 H 267.536 2.99013 0.230499 0
M  V30 2798 H 265.089 1.56081 0.0826982 0
M  V30 2799 H 265.824 1.95709 2.58589 0
M  V30 2800 H 265.609 3.51527 1.73698 0
M  V30 2801 H 267.099 3.20489 2.67725 0
M  V30 2802 N 267.536 -0.106894 1.57237 0
M  V30 2803 C 268.782 -0.81373 1.85759 0
M  V30 2804 C 269.115 -1.78952 0.754315 0
M  V30 2805 O 268.39 -1.93029 -0.23879 0
M  V30 2806 C 268.673 -1.55293 3.24894 0
M  V30 2807 C 268.526 -0.595929 4.45835 0
M  V30 2808 C 269.845 -2.5063 3.61763 0
M  V30 2809 H 266.964 -0.294369 0.67566 0
M  V30 2810 H 269.606 -0.0776472 1.89841 0
M  V30 2811 H 267.756 -2.1804 3.21544 0
M  V30 2812 H 269.428 0.0236262 4.61294 0
M  V30 2813 H 267.671 0.0916191 4.33703 0
M  V30 2814 H 268.342 -1.15004 5.39887 0
M  V30 2815 H 270.818 -1.97982 3.65981 0
M  V30 2816 H 269.694 -2.99376 4.60071 0
M  V30 2817 H 269.955 -3.3385 2.89821 0
M  V30 2818 N 269.014 -1.53014 -0.377408 0
M  V30 2819 C 270.262 -1.6829 -1.11906 0
M  V30 2820 C 270.583 -0.431206 -1.90173 0
M  V30 2821 O 269.853 0.554595 -1.87886 0
M  V30 2822 H 268.433 -0.620371 -0.416112 0
M  V30 2823 H 271.095 -1.90167 -0.426893 0
M  V30 2824 H 270.191 -2.53862 -1.8155 0
M  V30 2825 N 270.492 0.636531 -1.44174 0
M  V30 2826 C 271.455 1.73063 -1.50273 0
M  V30 2827 C 272.455 1.56113 -0.385397 0
M  V30 2828 O 273.645 1.61707 -0.64781 0
M  V30 2829 C 270.777 3.12096 -1.37145 0
M  V30 2830 H 271.97 1.69031 -2.47727 0
M  V30 2831 H 269.523 0.849706 -1.31186 0
M  V30 2832 H 270.258 3.21728 -0.407636 0
M  V30 2833 H 270.043 3.25805 -2.18159 0
M  V30 2834 H 271.533 3.91846 -1.44382 0
M  V30 2835 N 271.97 1.30982 0.876444 0
M  V30 2836 C 273.218 1.20058 1.62575 0
M  V30 2837 C 273.539 -0.242947 1.93481 0
M  V30 2838 O 272.809 -1.1619 1.57724 0
M  V30 2839 H 271.389 0.44135 0.602677 0
M  V30 2840 H 274.051 1.64222 1.04962 0
M  V30 2841 H 273.147 1.76762 2.57219 0
M  V30 2842 N 273.449 -1.08991 1.13837 0
M  V30 2843 C 274.86 -1.62746 0.914917 0
M  V30 2844 C 275.211 -1.88403 -0.547594 0
M  V30 2845 O 274.336 -1.63706 -1.41525 0
M  V30 2846 C 274.931 -2.95662 1.65437 0
M  V30 2847 C 273.49 -3.46225 1.47666 0
M  V30 2848 C 272.637 -2.20562 1.6807 0
M  V30 2849 H 275.588 -0.922946 1.29102 0
M  V30 2850 H 275.609 -3.63825 1.11407 0
M  V30 2851 H 275.121 -2.76956 2.71877 0
M  V30 2852 H 273.222 -3.70046 0.435478 0
M  V30 2853 H 273.335 -4.23368 2.24268 0
M  V30 2854 H 271.699 -2.29439 1.10589 0
M  V30 2855 H 272.482 -2.0437 2.7584 0
M  V30 2856 N 274.927 -0.932562 -1.27047 0
M  V30 2857 C 276.175 -0.574422 -1.93765 0
M  V30 2858 C 276.496 0.887993 -1.73608 0
M  V30 2859 O 275.766 1.62999 -1.08665 0
M  V30 2860 H 274.346 -0.209451 -0.717035 0
M  V30 2861 H 277.008 -1.18601 -1.5466 0
M  V30 2862 H 276.104 -0.784841 -3.02071 0
M  V30 2863 N 276.405 1.4127 -0.698611 0
M  V30 2864 C 277.633 2.05503 -0.239992 0
M  V30 2865 C 278.048 1.52584 1.11191 0
M  V30 2866 O 277.405 0.675323 1.69545 0
M  V30 2867 C 277.456 3.60987 -0.192429 0
M  V30 2868 O 277.177 4.1195 -1.49094 0
M  V30 2869 C 278.678 4.42371 0.28681 0
M  V30 2870 H 275.898 0.661748 -0.111045 0
M  V30 2871 H 278.442 1.80987 -0.95205 0
M  V30 2872 H 276.597 3.84533 0.470472 0
M  V30 2873 H 277.011 5.06018 -1.38007 0
M  V30 2874 H 278.485 5.51344 0.26896 0
M  V30 2875 H 278.962 4.18699 1.32619 0
M  V30 2876 H 279.568 4.23897 -0.345201 0
M  V30 2877 N 277.883 0.443576 1.51229 0
M  V30 2878 C 278.813 -0.355142 2.30783 0
M  V30 2879 C 279.794 -1.0154 1.36468 0
M  V30 2880 O 280.979 -1.01785 1.65389 0
M  V30 2881 C 278.109 -1.45312 3.15439 0
M  V30 2882 C 277.063 -0.916002 4.18083 0
M  V30 2883 C 276.389 -2.1102 4.91299 0
M  V30 2884 C 277.689 0.0538602 5.22272 0
M  V30 2885 H 279.383 0.308767 2.97804 0
M  V30 2886 H 276.929 0.149937 1.43217 0
M  V30 2887 H 278.882 -2.01914 3.69876 0
M  V30 2888 H 277.606 -2.14541 2.46252 0
M  V30 2889 H 276.265 -0.372145 3.64706 0
M  V30 2890 H 275.913 -2.78882 4.18609 0
M  V30 2891 H 275.613 -1.75717 5.60712 0
M  V30 2892 H 277.137 -2.68164 5.48562 0
M  V30 2893 H 278.551 -0.422069 5.71744 0
M  V30 2894 H 276.948 0.319776 5.99247 0
M  V30 2895 H 278.018 0.98858 4.74716 0
M  V30 2896 N 279.361 -1.56624 0.175154 0
M  V30 2897 C 280.638 -1.88688 -0.515373 0
M  V30 2898 C 281.018 -1.08564 -1.81044 0
M  V30 2899 O 280.366 -0.180703 -2.27784 0
M  V30 2900 C 280.576 -3.40768 -0.753552 0
M  V30 2901 C 281.924 -4.10587 -1.08184 0
M  V30 2902 O 282.948 -3.46106 -0.841961 0
M  V30 2903 O 281.807 -5.24512 -1.53459 0
M  V30 2904 H 278.901 -0.78301 -0.26613 0
M  V30 2905 H 281.447 -1.68347 0.213877 0
M  V30 2906 H 280.219 -3.90965 0.161829 0
M  V30 2907 H 279.842 -3.66733 -1.53598 0
M  V30 2908 N 280.839 0.0985539 -1.57292 0
M  V30 2909 C 282.085 0.803867 -1.86188 0
M  V30 2910 C 282.418 1.78549 -0.763794 0
M  V30 2911 O 281.693 1.93153 0.22855 0
M  V30 2912 C 281.976 1.53568 -3.25713 0
M  V30 2913 C 281.829 0.572277 -4.46145 0
M  V30 2914 C 283.148 2.48708 -3.63087 0
M  V30 2915 H 280.267 0.290781 -0.677211 0
M  V30 2916 H 282.909 0.0675783 -1.8988 0
M  V30 2917 H 281.059 2.16332 -3.22696 0
M  V30 2918 H 282.731 -0.0480894 -4.61275 0
M  V30 2919 H 280.974 -0.114618 -4.33649 0
M  V30 2920 H 281.645 1.12139 -5.40489 0
M  V30 2921 H 284.121 1.96039 -3.67026 0
M  V30 2922 H 282.997 2.96932 -4.61652 0
M  V30 2923 H 283.258 3.32309 -2.91588 0
M  V30 2924 N 282.317 1.53212 0.369288 0
M  V30 2925 C 283.728 1.60943 0.946276 0
M  V30 2926 C 284.079 0.47452 1.90375 0
M  V30 2927 O 283.204 -0.399597 2.12679 0
M  V30 2928 C 283.799 2.91715 1.72302 0
M  V30 2929 C 282.358 3.01792 2.24941 0
M  V30 2930 C 281.505 2.56211 1.06072 0
M  V30 2931 H 284.456 1.58007 0.148198 0
M  V30 2932 H 284.477 2.79309 2.58393 0
M  V30 2933 H 283.989 3.74295 1.0259 0
M  V30 2934 H 282.09 2.23791 2.97906 0
M  V30 2935 H 282.203 4.06803 2.53077 0
M  V30 2936 H 280.567 2.10998 1.4266 0
M  V30 2937 H 281.35 3.41206 0.378639 0
M  V30 2938 N 283.795 -0.628877 1.44509 0
M  V30 2939 C 285.043 -1.38565 1.4712 0
M  V30 2940 C 285.364 -1.94712 0.105899 0
M  V30 2941 O 284.634 -1.75912 -0.862079 0
M  V30 2942 H 283.214 -0.514333 0.541729 0
M  V30 2943 H 285.876 -0.740018 1.80305 0
M  V30 2944 H 284.972 -2.21583 2.19789 0
M  V30 2945 N 285.273 -1.31445 -0.869486 0
M  V30 2946 C 286.519 -1.21337 -1.62496 0
M  V30 2947 C 286.852 0.227872 -1.92858 0
M  V30 2948 O 286.127 1.16094 -1.56053 0
M  V30 2949 C 286.41 -2.05814 -2.95487 0
M  V30 2950 C 286.263 -3.5824 -2.72 0
M  V30 2951 C 287.582 -1.9079 -3.96594 0
M  V30 2952 H 284.701 -0.442135 -0.589649 0
M  V30 2953 H 287.343 -1.6124 -1.00507 0
M  V30 2954 H 285.493 -1.71913 -3.48394 0
M  V30 2955 H 287.165 -4.0228 -2.25762 0
M  V30 2956 H 285.408 -3.81647 -2.06224 0
M  V30 2957 H 286.079 -4.12657 -3.66631 0
M  V30 2958 H 288.555 -2.20459 -3.52898 0
M  V30 2959 H 287.431 -2.52199 -4.87531 0
M  V30 2960 H 287.692 -0.871341 -4.33428 0
M  V30 2961 N 286.751 1.08385 -1.14413 0
M  V30 2962 C 287.699 2.17406 -0.826888 0
M  V30 2963 C 288.693 1.6827 0.195312 0
M  V30 2964 O 289.899 1.79927 0.0513892 0
M  V30 2965 H 286.274 0.70934 -0.249681 0
M  V30 2966 H 288.245 2.41388 -1.75426 0
M  V30 2967 C 286.994 3.46215 -0.320979 0
M  V30 2968 H 286.317 3.84401 -1.0989 0
M  V30 2969 H 287.757 4.23777 -0.137549 0
M  V30 2970 C 286.216 3.23067 0.955472 0
M  V30 2971 O 286.746 3.4668 2.02918 0
M  V30 2972 N 284.952 2.7661 0.890798 0
M  V30 2973 H 284.499 2.57594 0.0168815 0
M  V30 2974 H 284.457 2.61501 1.74542 0
M  V30 2975 N 288.23 0.939286 1.26551 0
M  V30 2976 C 289.193 0.451987 2.24699 0
M  V30 2977 C 290.193 -0.435869 1.5478 0
M  V30 2978 O 291.383 -0.235314 1.72603 0
M  V30 2979 C 288.515 -0.348801 3.39111 0
M  V30 2980 H 289.708 1.3193 2.69322 0
M  V30 2981 H 287.261 0.721072 1.38673 0
M  V30 2982 H 287.996 -1.23444 2.99887 0
M  V30 2983 H 287.781 0.287945 3.91041 0
M  V30 2984 H 289.271 -0.679726 4.12031 0
M  V30 2985 N 289.708 -1.40897 0.706093 0
M  V30 2986 C 290.655 -2.30751 0.0474474 0
M  V30 2987 C 291.625 -1.47678 -0.76029 0
M  V30 2988 O 292.81 -1.76441 -0.726177 0
M  V30 2989 C 289.95 -3.33815 -0.875309 0
M  V30 2990 C 289.063 -4.31961 -0.0580623 0
M  V30 2991 C 288.198 -5.22093 -0.979425 0
M  V30 2992 C 287.237 -6.11902 -0.155706 0
M  V30 2993 N 286.374 -6.94482 -1.03144 0
M  V30 2994 H 291.214 -2.86513 0.819413 0
M  V30 2995 H 288.751 -1.41102 0.415783 0
M  V30 2996 H 290.709 -3.92129 -1.42446 0
M  V30 2997 H 289.339 -2.79579 -1.61356 0
M  V30 2998 H 288.391 -3.75507 0.608147 0
M  V30 2999 H 289.703 -4.95415 0.580082 0
M  V30 3000 H 288.857 -5.85292 -1.59744 0
M  V30 3001 H 287.596 -4.5889 -1.65141 0
M  V30 3002 H 286.601 -5.47742 0.475309 0
M  V30 3003 H 287.826 -6.77162 0.512635 0
M  V30 3004 H 285.772 -6.33877 -1.68924 0
M  V30 3005 H 285.689 -7.54665 -0.449108 0
M  V30 3006 H 286.957 -7.6214 -1.63593 0
M  V30 3007 N 291.186 -0.45159 -1.50991 0
M  V30 3008 C 292.434 0.109857 -2.01801 0
M  V30 3009 C 292.755 1.41958 -1.3369 0
M  V30 3010 O 292.025 1.9003 -0.475951 0
M  V30 3011 H 290.605 0.0435884 -0.745727 0
M  V30 3012 H 293.267 -0.597557 -1.85514 0
M  V30 3013 H 292.363 0.275489 -3.10882 0
M  V30 3014 N 292.664 1.56529 -0.183458 0
M  V30 3015 C 293.91 1.97537 0.459036 0
M  V30 3016 C 294.243 1.06989 1.62071 0
M  V30 3017 O 293.518 0.11948 1.94133 0
M  V30 3018 C 293.801 3.47874 0.930368 0
M  V30 3019 C 293.654 4.492 -0.232317 0
M  V30 3020 C 294.973 4.01612 1.79989 0
M  V30 3021 H 292.092 0.718204 0.165383 0
M  V30 3022 H 294.734 1.88042 -0.272038 0
M  V30 3023 H 292.884 3.56095 1.55333 0
M  V30 3024 H 294.556 4.53027 -0.86972 0
M  V30 3025 H 292.799 4.24657 -0.885928 0
M  V30 3026 H 293.47 5.51823 0.139796 0
M  V30 3027 H 295.946 3.96097 1.27461 0
M  V30 3028 H 294.822 5.07195 2.09867 0
M  V30 3029 H 295.083 3.46163 2.74998 0
M  V30 3030 N 294.142 -0.090211 1.57342 0
M  V30 3031 C 295.389 -0.792807 1.86335 0
M  V30 3032 C 295.717 -1.78494 0.772662 0
M  V30 3033 O 294.972 -1.94305 -0.233258 0
M  V30 3034 C 295.271 -1.55222 3.21933 0
M  V30 3035 C 294.937 -0.701765 4.45406 0
M  V30 3036 C 293.599 -0.467334 4.78925 0
M  V30 3037 C 295.951 -0.11086 5.21082 0
M  V30 3038 C 293.279 0.367785 5.85546 0
M  V30 3039 C 295.631 0.711609 6.28585 0
M  V30 3040 C 294.295 0.956086 6.60617 0
M  V30 3041 H 293.565 -0.290109 0.681849 0
M  V30 3042 H 296.212 -0.0541332 1.91423 0
M  V30 3043 H 294.517 -2.3626 3.12551 0
M  V30 3044 H 296.214 -2.10032 3.41595 0
M  V30 3045 H 292.804 -0.894598 4.1916 0
M  V30 3046 H 296.988 -0.279129 4.95514 0
M  V30 3047 H 292.244 0.566128 6.08773 0
M  V30 3048 H 296.418 1.17632 6.86393 0
M  V30 3049 H 294.045 1.60499 7.43064 0
M  V30 3050 N 295.62 -1.53406 -0.361157 0
M  V30 3051 C 296.897 -1.60411 -1.11927 0
M  V30 3052 C 297.277 -0.414385 -2.06993 0
M  V30 3053 O 296.625 0.594976 -2.20618 0
M  V30 3054 C 296.835 -2.95652 -1.85448 0
M  V30 3055 C 298.183 -3.50386 -2.39823 0
M  V30 3056 O 299.207 -2.97711 -1.95568 0
M  V30 3057 O 298.066 -4.42482 -3.20737 0
M  V30 3058 H 295.16 -0.64811 -0.513695 0
M  V30 3059 H 297.706 -1.65749 -0.364065 0
M  V30 3060 H 296.478 -3.73682 -1.16091 0
M  V30 3061 H 296.101 -2.93825 -2.67866 0
M  V30 3062 N 297.098 0.621204 -1.44841 0
M  V30 3063 C 298.048 1.72663 -1.48901 0
M  V30 3064 C 299.032 1.56964 -0.353702 0
M  V30 3065 O 300.224 1.66532 -0.599669 0
M  V30 3066 C 297.353 3.11381 -1.44557 0
M  V30 3067 C 296.439 3.32514 -2.6324 0
M  V30 3068 N 296.83 3.23969 -3.8843 0
M  V30 3069 C 295.128 3.63343 -2.58647 0
M  V30 3070 C 295.829 3.46062 -4.67564 0
M  V30 3071 N 294.805 3.69407 -3.98797 0
M  V30 3072 H 298.607 1.64529 -2.43531 0
M  V30 3073 H 296.121 0.82401 -1.39942 0
M  V30 3074 H 298.118 3.90667 -1.4555 0
M  V30 3075 H 296.778 3.20674 -0.509731 0
M  V30 3076 H 297.789 3.02669 -4.20252 0
M  V30 3077 H 294.466 3.79556 -1.73906 0
M  V30 3078 H 295.856 3.44963 -5.76585 0
M  V30 3079 N 298.576 1.31904 0.862503 0
M  V30 3080 C 299.539 1.20131 1.95195 0
M  V30 3081 C 300.539 0.126409 1.60302 0
M  V30 3082 O 301.729 0.376234 1.70089 0
M  V30 3083 C 298.861 0.845691 3.30244 0
M  V30 3084 H 300.054 2.16943 2.07064 0
M  V30 3085 H 297.607 1.15622 1.05172 0
M  V30 3086 H 298.342 -0.120957 3.24074 0
M  V30 3087 H 298.127 1.62276 3.56944 0
M  V30 3088 H 299.617 0.787418 4.10109 0
M  V30 3089 N 300.054 -1.07777 1.14986 0
M  V30 3090 C 301.282 -1.84018 0.945773 0
M  V30 3091 C 301.697 -1.81897 -0.505863 0
M  V30 3092 O 301.054 -1.22726 -1.35072 0
M  V30 3093 C 301.105 -3.31287 1.44677 0
M  V30 3094 O 300.826 -3.33449 2.84154 0
M  V30 3095 C 302.327 -4.24311 1.28355 0
M  V30 3096 H 299.547 -0.580716 0.336169 0
M  V30 3097 H 302.091 -1.36077 1.52654 0
M  V30 3098 H 300.246 -3.76594 0.908625 0
M  V30 3099 H 300.66 -4.25427 3.06777 0
M  V30 3100 H 302.134 -5.2573 1.68261 0
M  V30 3101 H 302.611 -4.38612 0.227184 0
M  V30 3102 H 303.217 -3.84836 1.81056 0
M  V30 3103 N 301.532 -0.945985 -1.26051 0
M  V30 3104 C 302.462 -0.477172 -2.28572 0
M  V30 3105 C 303.443 0.472032 -1.63419 0
M  V30 3106 O 304.628 0.372853 -1.90587 0
M  V30 3107 C 301.758 0.253975 -3.4637 0
M  V30 3108 C 300.712 -0.609135 -4.23643 0
M  V30 3109 C 300.038 0.252252 -5.34105 0
M  V30 3110 C 301.338 -1.8829 -4.8718 0
M  V30 3111 H 303.032 -1.33402 -2.68038 0
M  V30 3112 H 300.578 -0.642904 -1.28852 0
M  V30 3113 H 302.531 0.593016 -4.17207 0
M  V30 3114 H 301.255 1.145 -3.05871 0
M  V30 3115 H 299.914 -0.931138 -3.54578 0
M  V30 3116 H 299.562 1.14278 -4.89846 0
M  V30 3117 H 299.262 -0.32188 -5.86718 0
M  V30 3118 H 300.786 0.586454 -6.07777 0
M  V30 3119 H 302.2 -1.61081 -5.50205 0
M  V30 3120 H 300.597 -2.40199 -5.49931 0
M  V30 3121 H 301.667 -2.59134 -4.09851 0
M  V30 3122 N 303.011 1.40521 -0.713556 0
M  V30 3123 C 304.257 2.01221 -0.252564 0
M  V30 3124 C 304.59 1.56444 1.1506 0
M  V30 3125 O 303.865 0.783597 1.78017 0
M  V30 3126 C 304.148 3.58582 -0.330332 0
M  V30 3127 C 304.001 4.13437 -1.77173 0
M  V30 3128 C 305.32 4.39079 0.299641 0
M  V30 3129 H 302.439 0.731077 -0.0932471 0
M  V30 3130 H 305.081 1.67026 -0.905673 0
M  V30 3131 H 303.231 3.87844 0.225737 0
M  V30 3132 H 304.903 3.9498 -2.38303 0
M  V30 3133 H 303.146 3.67801 -2.3001 0
M  V30 3134 H 303.817 5.22597 -1.77755 0
M  V30 3135 H 306.293 4.15735 -0.174139 0
M  V30 3136 H 305.169 5.4848 0.214771 0
M  V30 3137 H 305.43 4.19915 1.38288 0
M  V30 3138 N 304.489 0.459591 1.5075 0
M  V30 3139 C 305.399 -0.34613 2.32033 0
M  V30 3140 C 306.415 -1.00686 1.41909 0
M  V30 3141 O 307.591 -0.997361 1.7497 0
M  V30 3142 C 304.656 -1.42029 3.16273 0
M  V30 3143 C 303.717 -0.777362 4.22203 0
M  V30 3144 C 302.95 -1.80034 5.02418 0
M  V30 3145 O 303.173 -3.02544 4.83553 0
M  V30 3146 O 302.107 -1.37853 5.85901 0
M  V30 3147 H 305.933 0.318054 3.0203 0
M  V30 3148 H 303.518 0.221663 1.47746 0
M  V30 3149 H 305.4 -2.04275 3.68578 0
M  V30 3150 H 304.075 -2.06815 2.49016 0
M  V30 3151 H 302.982 -0.116256 3.73919 0
M  V30 3152 H 304.315 -0.172634 4.91897 0
M  V30 3153 N 305.967 -1.56429 0.191757 0
M  V30 3154 C 306.877 -2.22541 -0.742481 0
M  V30 3155 C 307.893 -1.22342 -1.23727 0
M  V30 3156 O 309.069 -1.55069 -1.28513 0
M  V30 3157 C 306.134 -2.8692 -1.94623 0
M  V30 3158 C 305.195 -4.02378 -1.49633 0
M  V30 3159 C 304.428 -4.63678 -2.6427 0
M  V30 3160 O 304.651 -4.23895 -3.81666 0
M  V30 3161 O 303.585 -5.53202 -2.37174 0
M  V30 3162 H 307.411 -3.02977 -0.209462 0
M  V30 3163 H 304.996 -1.49353 -0.0373832 0
M  V30 3164 H 306.878 -3.27663 -2.64982 0
M  V30 3165 H 305.553 -2.09466 -2.46791 0
M  V30 3166 H 304.46 -3.66265 -0.761636 0
M  V30 3167 H 305.793 -4.81487 -1.02134 0
M  V30 3168 N 307.445 0.0818655 -1.57387 0
M  V30 3169 C 308.375 1.09885 -2.06028 0
M  V30 3170 C 309.356 1.4098 -0.951774 0
M  V30 3171 O 310.541 1.50781 -1.22387 0
M  V30 3172 C 307.671 2.4151 -2.4958 0
M  V30 3173 C 306.625 2.24792 -3.64215 0
M  V30 3174 C 305.951 3.61712 -3.93787 0
M  V30 3175 C 307.251 1.67749 -4.94629 0
M  V30 3176 H 308.945 0.694128 -2.91243 0
M  V30 3177 H 306.491 0.332448 -1.4011 0
M  V30 3178 H 308.444 3.12939 -2.82219 0
M  V30 3179 H 307.168 2.83943 -1.61381 0
M  V30 3180 H 305.827 1.55807 -3.31843 0
M  V30 3181 H 305.475 4.01697 -3.02735 0
M  V30 3182 H 305.175 3.51368 -4.70971 0
M  V30 3183 H 306.699 4.34587 -4.28913 0
M  V30 3184 H 308.113 2.29032 -5.25564 0
M  V30 3185 H 306.51 1.68128 -5.76067 0
M  V30 3186 H 307.58 0.638059 -4.80684 0
M  V30 3187 N 308.923 1.53595 0.353017 0
M  V30 3188 C 310.2 1.61002 1.11075 0
M  V30 3189 C 310.58 0.425356 2.0677 0
M  V30 3190 O 309.928 -0.583267 2.2093 0
M  V30 3191 C 310.138 2.96631 1.83877 0
M  V30 3192 C 311.486 3.51653 2.37961 0
M  V30 3193 O 312.51 2.98743 1.93987 0
M  V30 3194 O 311.369 4.44177 3.18386 0
M  V30 3195 H 308.463 0.650825 0.510251 0
M  V30 3196 H 311.009 1.6594 0.35527 0
M  V30 3197 H 309.781 3.74293 1.14108 0
M  V30 3198 H 309.404 2.95242 2.66304 0
M  V30 3199 N 310.401 -0.613514 1.45168 0
M  V30 3200 C 311.631 -1.39743 1.52169 0
M  V30 3201 C 312.039 -1.88596 0.151086 0
M  V30 3202 O 311.382 -1.6251 -0.856521 0
M  V30 3203 C 311.444 -2.64035 2.43979 0
M  V30 3204 C 311.108 -2.36861 3.90827 0
M  V30 3205 C 312.105 -1.97591 4.80889 0
M  V30 3206 C 309.79 -2.49956 4.35692 0
M  V30 3207 C 311.784 -1.71768 6.1382 0
M  V30 3208 C 309.471 -2.23747 5.68665 0
M  V30 3209 C 310.469 -1.84714 6.57548 0
M  V30 3210 O 310.157 -1.58809 7.88058 0
M  V30 3211 H 309.889 -0.434382 0.517966 0
M  V30 3212 H 312.443 -0.75587 1.90986 0
M  V30 3213 H 310.673 -3.3089 2.00122 0
M  V30 3214 H 312.362 -3.26069 2.41731 0
M  V30 3215 H 313.128 -1.87015 4.47493 0
M  V30 3216 H 309.007 -2.79305 3.66756 0
M  V30 3217 H 312.551 -1.41227 6.83155 0
M  V30 3218 H 308.448 -2.33938 6.01617 0
M  V30 3219 H 309.216 -1.7291 8.00028 0
M  V30 3220 N 311.879 -1.3236 -0.855495 0
M  V30 3221 C 312.789 -1.23221 -1.99634 0
M  V30 3222 C 313.805 -0.145983 -1.73387 0
M  V30 3223 O 314.981 -0.366502 -1.98037 0
M  V30 3224 C 312.046 -0.954782 -3.33294 0
M  V30 3225 C 311.107 -2.12937 -3.72769 0
M  V30 3226 C 310.34 -1.86508 -5.00051 0
M  V30 3227 O 310.563 -0.807231 -5.64659 0
M  V30 3228 O 309.497 -2.72591 -5.36636 0
M  V30 3229 H 313.323 -2.19126 -2.1028 0
M  V30 3230 H 310.908 -1.12241 -0.986018 0
M  V30 3231 H 312.79 -0.816519 -4.13414 0
M  V30 3232 H 311.465 -0.0258854 -3.2369 0
M  V30 3233 H 310.372 -2.3231 -2.93228 0
M  V30 3234 H 311.705 -3.04102 -3.87018 0
M  V30 3235 N 313.357 1.07166 -1.15556 0
M  V30 3236 C 314.768 1.6127 -0.940693 0
M  V30 3237 C 315.119 1.89251 0.517551 0
M  V30 3238 O 314.244 1.65937 1.38903 0
M  V30 3239 C 314.839 2.92993 -1.7012 0
M  V30 3240 C 313.398 3.43832 -1.53156 0
M  V30 3241 C 312.545 2.1786 -1.71558 0
M  V30 3242 H 315.496 0.90229 -1.30554 0
M  V30 3243 H 315.517 3.62007 -1.17181 0
M  V30 3244 H 315.029 2.72596 -2.76248 0
M  V30 3245 H 313.13 3.69307 -0.494294 0
M  V30 3246 H 313.243 4.19747 -2.30975 0
M  V30 3247 H 311.607 2.2765 -1.14225 0
M  V30 3248 H 312.39 1.99956 -2.79056 0
M  V30 3249 N 314.835 0.952656 1.25548 0
M  V30 3250 C 316.083 0.605176 1.92826 0
M  V30 3251 C 316.404 -0.860261 1.74999 0
M  V30 3252 O 315.674 -1.6125 1.11244 0
M  V30 3253 H 314.254 0.220832 0.713612 0
M  V30 3254 H 316.916 1.21047 1.52754 0
M  V30 3255 H 316.012 0.832798 3.00784 0
M  V30 3256 N 316.313 -1.40141 0.720998 0
M  V30 3257 C 317.538 -2.05618 0.271258 0
M  V30 3258 C 317.963 -1.53978 -1.08039 0
M  V30 3259 O 317.321 -0.677463 -1.68167 0
M  V30 3260 C 317.369 -3.59609 0.267197 0
M  V30 3261 O 316.473 -4.05526 -0.749814 0
M  V30 3262 H 315.814 -0.651904 0.126162 0
M  V30 3263 H 318.344 -1.79439 0.982997 0
M  V30 3264 H 318.354 -4.0786 0.106744 0
M  V30 3265 H 317.029 -3.96559 1.25354 0
M  V30 3266 H 315.606 -3.68722 -0.556644 0
M  V30 3267 N 317.792 -0.46758 -1.50504 0
M  V30 3268 C 319.02 0.0864133 -2.06719 0
M  V30 3269 C 319.435 1.33819 -1.33184 0
M  V30 3270 O 318.792 1.78061 -0.400083 0
M  V30 3271 C 318.843 0.378079 -3.59517 0
M  V30 3272 O 318.564 -0.824044 -4.3028 0
M  V30 3273 C 320.065 0.979426 -4.32345 0
M  V30 3274 H 317.285 -0.00551697 -0.670977 0
M  V30 3275 H 319.829 -0.655354 -1.93715 0
M  V30 3276 H 317.984 1.06977 -3.72337 0
M  V30 3277 H 318.398 -0.566518 -5.21432 0
M  V30 3278 H 319.872 1.1333 -5.40241 0
M  V30 3279 H 320.349 1.9686 -3.9261 0
M  V30 3280 H 320.955 0.326216 -4.24047 0
M  V30 3281 N 319.27 1.56325 -0.20005 0
M  V30 3282 C 320.516 1.98012 0.438059 0
M  V30 3283 C 320.849 1.08702 1.60927 0
M  V30 3284 O 320.124 0.140064 1.93995 0
M  V30 3285 C 320.407 3.48841 0.893419 0
M  V30 3286 C 320.26 4.48928 -0.279947 0
M  V30 3287 C 321.579 4.03498 1.75719 0
M  V30 3288 H 318.698 0.719918 0.157757 0
M  V30 3289 H 321.34 1.87743 -0.291968 0
M  V30 3290 H 319.49 3.57723 1.51547 0
M  V30 3291 H 321.162 4.52079 -0.91772 0
M  V30 3292 H 319.405 4.23694 -0.930919 0
M  V30 3293 H 320.076 5.5194 0.0812601 0
M  V30 3294 H 322.552 3.97427 1.23253 0
M  V30 3295 H 321.428 5.09393 2.04476 0
M  V30 3296 H 321.689 3.4906 2.71311 0
M  V30 3297 N 320.748 -0.0735177 1.57428 0
M  V30 3298 C 321.994 -0.774145 1.87443 0
M  V30 3299 C 322.327 -1.77311 0.792103 0
M  V30 3300 O 321.602 -1.93492 -0.197793 0
M  V30 3301 C 321.885 -1.48367 3.28115 0
M  V30 3302 C 321.738 -0.501227 4.46999 0
M  V30 3303 C 323.057 -2.429 3.66998 0
M  V30 3304 H 320.176 -0.279971 0.681752 0
M  V30 3305 H 322.818 -0.0373616 1.89963 0
M  V30 3306 H 320.968 -2.11171 3.26097 0
M  V30 3307 H 322.64 0.121468 4.6114 0
M  V30 3308 H 320.883 0.183593 4.33411 0
M  V30 3309 H 321.554 -1.03526 5.42205 0
M  V30 3310 H 324.03 -1.90175 3.70098 0
M  V30 3311 H 322.906 -2.89549 4.66318 0
M  V30 3312 H 323.167 -3.27628 2.96837 0
M  V30 3313 N 322.226 -1.5378 -0.344866 0
M  V30 3314 C 323.472 -1.71216 -1.08687 0
M  V30 3315 C 323.805 -0.473281 -1.88345 0
M  V30 3316 O 323.08 0.52968 -1.87149 0
M  V30 3317 C 323.363 -2.97486 -2.02914 0
M  V30 3318 C 323.216 -4.31579 -1.26727 0
M  V30 3319 C 324.535 -3.19422 -3.0275 0
M  V30 3320 H 321.654 -0.62301 -0.393735 0
M  V30 3321 H 324.296 -1.8645 -0.365563 0
M  V30 3322 H 322.446 -2.84629 -2.64421 0
M  V30 3323 H 324.118 -4.56284 -0.67845 0
M  V30 3324 H 322.361 -4.30049 -0.569273 0
M  V30 3325 H 323.032 -5.16106 -1.95803 0
M  V30 3326 H 325.508 -3.316 -2.51357 0
M  V30 3327 H 324.384 -4.09169 -3.65885 0
M  V30 3328 H 324.645 -2.35656 -3.74057 0
M  V30 3329 N 323.704 0.605807 -1.45491 0
M  V30 3330 C 324.95 1.36679 -1.49823 0
M  V30 3331 C 325.283 1.93693 -0.140175 0
M  V30 3332 O 324.558 1.75158 0.845581 0
M  V30 3333 C 324.841 2.51337 -2.57879 0
M  V30 3334 C 324.694 1.99508 -4.03134 0
M  V30 3335 C 326.013 3.53463 -2.62205 0
M  V30 3336 H 323.132 0.495617 -0.545466 0
M  V30 3337 H 325.774 0.682732 -1.7731 0
M  V30 3338 H 323.924 3.09691 -2.34571 0
M  V30 3339 H 325.596 1.45789 -4.37656 0
M  V30 3340 H 323.839 1.30496 -4.13707 0
M  V30 3341 H 324.51 2.82169 -4.74431 0
M  V30 3342 H 326.986 3.04953 -2.83095 0
M  V30 3343 H 325.862 4.31178 -3.39672 0
M  V30 3344 H 326.123 4.09197 -1.67363 0
M  V30 3345 N 325.182 1.32811 0.848464 0
M  V30 3346 C 326.43 1.23479 1.59991 0
M  V30 3347 C 326.751 -0.201853 1.93952 0
M  V30 3348 O 326.021 -1.12818 1.60153 0
M  V30 3349 H 324.601 0.454034 0.593179 0
M  V30 3350 H 327.263 1.66412 1.01455 0
M  V30 3351 H 326.359 1.82178 2.53412 0
M  V30 3352 N 326.66 -1.06551 1.16123 0
M  V30 3353 C 327.908 -1.78947 0.939267 0
M  V30 3354 C 328.229 -1.87532 -0.534476 0
M  V30 3355 O 327.499 -1.38211 -1.38833 0
M  V30 3356 H 326.079 -0.662807 0.344523 0
M  V30 3357 H 328.741 -1.28725 1.46342 0
M  V30 3358 H 327.837 -2.81117 1.35572 0
M  V30 3359 N 328.138 -0.959301 -1.25041 0
M  V30 3360 C 329.363 -0.633507 -1.97488 0
M  V30 3361 C 329.788 0.788555 -1.70773 0
M  V30 3362 O 329.146 1.53394 -0.966431 0
M  V30 3363 C 329.194 -0.904057 -3.49083 0
M  V30 3364 O 328.298 0.0147939 -4.12397 0
M  V30 3365 H 327.639 -0.240368 -0.618966 0
M  V30 3366 H 330.169 -1.28717 -1.59038 0
M  V30 3367 H 330.179 -0.832203 -3.99423 0
M  V30 3368 H 328.854 -1.94048 -3.67856 0
M  V30 3369 H 327.431 -0.109664 -3.72739 0
M  V30 3370 N 329.616 1.39756 -0.72842 0
M  V30 3371 C 330.563 2.30647 -0.0841519 0
M  V30 3372 C 331.533 1.48869 0.7367 0
M  V30 3373 O 332.718 1.77574 0.698015 0
M  V30 3374 C 329.858 3.35165 0.822091 0
M  V30 3375 C 328.971 4.31999 -0.0106663 0
M  V30 3376 C 328.106 5.23585 0.896241 0
M  V30 3377 C 327.145 6.12072 0.0583381 0
M  V30 3378 N 326.282 6.96035 0.920818 0
M  V30 3379 H 331.122 2.85173 -0.864891 0
M  V30 3380 H 328.659 1.40422 -0.438179 0
M  V30 3381 H 330.617 3.94345 1.36189 0
M  V30 3382 H 329.247 2.8211 1.56888 0
M  V30 3383 H 328.299 3.74492 -0.66781 0
M  V30 3384 H 329.611 4.9443 -0.658825 0
M  V30 3385 H 328.765 5.87759 1.50412 0
M  V30 3386 H 327.504 4.61459 1.57819 0
M  V30 3387 H 326.509 5.46916 -0.562389 0
M  V30 3388 H 327.734 6.76261 -0.6203 0
M  V30 3389 H 325.68 6.36485 1.58818 0
M  V30 3390 H 325.597 7.55284 0.32899 0
M  V30 3391 H 326.865 7.64646 1.51447 0
M  V30 3392 N 331.094 0.475555 1.50254 0
M  V30 3393 C 332.322 -0.0754493 2.06762 0
M  V30 3394 C 332.737 -1.33111 1.33891 0
M  V30 3395 O 332.094 -1.77846 0.40952 0
M  V30 3396 C 332.145 -0.359008 3.59713 0
M  V30 3397 O 331.866 0.846851 4.29837 0
M  V30 3398 C 333.367 -0.956484 4.32858 0
M  V30 3399 H 330.587 0.00907525 0.670939 0
M  V30 3400 H 333.131 0.665618 1.93364 0
M  V30 3401 H 331.286 -1.05001 3.72899 0
M  V30 3402 H 331.7 0.594162 5.21124 0
M  V30 3403 H 333.174 -1.10463 5.40834 0
M  V30 3404 H 333.651 -1.94775 3.93649 0
M  V30 3405 H 334.257 -0.303723 4.24214 0
M  V30 3406 N 332.573 -1.56217 0.208337 0
M  V30 3407 C 333.536 -2.18455 -0.693557 0
M  V30 3408 C 334.536 -1.14268 -1.13135 0
M  V30 3409 O 335.726 -1.39577 -1.0423 0
M  V30 3410 C 332.858 -2.79727 -1.94848 0
M  V30 3411 H 334.051 -2.99519 -0.15114 0
M  V30 3412 H 331.604 -1.56245 -0.041287 0
M  V30 3413 H 332.339 -2.02497 -2.53309 0
M  V30 3414 H 332.124 -3.56009 -1.64316 0
M  V30 3415 H 333.614 -3.27475 -2.59133 0
M  V30 3416 N 334.051 0.0651679 -1.57465 0
M  V30 3417 C 335.297 0.764193 -1.87851 0
M  V30 3418 C 335.63 1.76889 -0.801495 0
M  V30 3419 O 334.905 1.93594 0.187528 0
M  V30 3420 C 335.188 1.46625 -3.28897 0
M  V30 3421 C 335.041 0.477515 -4.47258 0
M  V30 3422 C 336.36 2.4095 -3.68281 0
M  V30 3423 H 333.479 0.276351 -0.683227 0
M  V30 3424 H 336.121 0.0272868 -1.8998 0
M  V30 3425 H 334.271 2.09438 -3.27212 0
M  V30 3426 H 335.943 -0.145922 -4.61069 0
M  V30 3427 H 334.186 -0.206576 -4.33308 0
M  V30 3428 H 334.857 1.0065 -5.42746 0
M  V30 3429 H 337.333 1.88209 -3.71102 0
M  V30 3430 H 336.209 2.87072 -4.67847 0
M  V30 3431 H 336.47 3.26049 -2.98571 0
M  V30 3432 N 335.529 1.53961 0.336706 0
M  V30 3433 C 336.439 1.85432 1.43708 0
M  V30 3434 C 337.455 0.745053 1.57242 0
M  V30 3435 O 338.631 1.03804 1.72588 0
M  V30 3436 C 335.696 2.06349 2.78605 0
M  V30 3437 C 334.757 3.30191 2.74358 0
M  V30 3438 C 333.99 3.50101 4.02822 0
M  V30 3439 O 334.213 2.7371 5.00439 0
M  V30 3440 O 333.147 4.43547 4.06878 0
M  V30 3441 H 336.973 2.78975 1.20028 0
M  V30 3442 H 334.558 1.39701 0.52952 0
M  V30 3443 H 336.44 2.21513 3.58483 0
M  V30 3444 H 335.115 1.15995 3.02203 0
M  V30 3445 H 334.022 3.20425 1.93078 0
M  V30 3446 H 335.355 4.2056 2.55715 0
M  V30 3447 N 337.007 -0.598083 1.45811 0
M  V30 3448 C 338.237 -1.38121 1.53643 0
M  V30 3449 C 338.645 -1.88425 0.171081 0
M  V30 3450 O 337.988 -1.63409 -0.839237 0
M  V30 3451 C 338.05 -2.61432 2.46766 0
M  V30 3452 C 337.714 -2.32702 3.93318 0
M  V30 3453 C 338.711 -1.92479 4.82957 0
M  V30 3454 C 336.396 -2.45321 4.38318 0
M  V30 3455 C 338.39 -1.65248 6.15607 0
M  V30 3456 C 336.077 -2.17703 5.71007 0
M  V30 3457 C 337.075 -1.7773 6.5947 0
M  V30 3458 O 336.763 -1.50441 7.89698 0
M  V30 3459 H 336.495 -0.428863 0.522544 0
M  V30 3460 H 339.049 -0.73557 1.91777 0
M  V30 3461 H 337.279 -3.28749 2.0362 0
M  V30 3462 H 338.968 -3.23487 2.45175 0
M  V30 3463 H 339.734 -1.82258 4.49452 0
M  V30 3464 H 335.613 -2.75399 3.69697 0
M  V30 3465 H 339.157 -1.33973 6.84614 0
M  V30 3466 H 335.054 -2.27544 6.04065 0
M  V30 3467 H 335.822 -1.64415 8.01817 0
M  V30 3468 N 338.485 -1.33259 -0.841409 0
M  V30 3469 C 339.733 -1.24326 -1.59334 0
M  V30 3470 C 340.054 0.191564 -1.94057 0
M  V30 3471 O 339.324 1.11967 -1.60749 0
M  V30 3472 H 337.904 -0.457174 -0.590763 0
M  V30 3473 H 340.566 -1.66947 -1.00571 0
M  V30 3474 H 339.662 -1.8352 -2.52442 0
M  V30 3475 N 339.963 1.05934 -1.16686 0
M  V30 3476 C 341.203 1.80382 -0.961345 0
M  V30 3477 C 341.567 1.85331 0.501643 0
M  V30 3478 O 342.768 2.55795 0.825986 0
M  V30 3479 C 341.039 3.20777 -1.57596 0
M  V30 3480 S 342.598 4.11795 -1.51559 0
M  V30 3481 H 339.416 0.621332 -0.345641 0
M  V30 3482 H 342.018 1.27157 -1.48497 0
M  V30 3483 H 340.722 3.14773 -2.63337 0
M  V30 3484 H 340.253 3.79078 -1.05182 0
M  V30 3485 H 342.268 4.93485 -0.518374 0
M  V30 3486 N 341.441 0.965919 1.2453 0
M  V30 3487 C 342.688 0.626831 1.92554 0
M  V30 3488 C 343.016 -0.837739 1.75534 0
M  V30 3489 O 342.271 -1.61793 1.10098 0
M  V30 3490 C 342.57 0.945428 3.44669 0
M  V30 3491 C 342.236 2.39785 3.81856 0
M  V30 3492 C 340.898 2.79483 3.91718 0
M  V30 3493 C 343.25 3.34055 4.00071 0
M  V30 3494 C 340.578 4.12496 4.1721 0
M  V30 3495 C 342.93 4.66694 4.27059 0
M  V30 3496 C 341.594 5.06172 4.3514 0
M  V30 3497 H 340.864 0.229374 0.704605 0
M  V30 3498 H 343.511 1.21707 1.4785 0
M  V30 3499 H 341.816 0.272926 3.90848 0
M  V30 3500 H 343.513 0.661484 3.95507 0
M  V30 3501 H 340.103 2.08003 3.74743 0
M  V30 3502 H 344.287 3.04571 3.91855 0
M  V30 3503 H 339.543 4.42709 4.21685 0
M  V30 3504 H 343.717 5.3971 4.40097 0
M  V30 3505 H 341.344 6.09262 4.54646 0
M  V30 3506 N 342.919 -1.39368 0.735821 0
M  V30 3507 C 344.166 -2.00497 0.284123 0
M  V30 3508 C 344.494 -1.58387 -1.12889 0
M  V30 3509 O 343.749 -0.804359 -1.78406 0
M  V30 3510 C 344.048 -3.5583 0.334651 0
M  V30 3511 C 343.714 -4.17593 1.7008 0
M  V30 3512 C 342.376 -4.34176 2.07472 0
M  V30 3513 C 344.728 -4.51848 2.59775 0
M  V30 3514 C 342.056 -4.82304 3.34065 0
M  V30 3515 C 344.408 -5.01384 3.85741 0
M  V30 3516 C 343.072 -5.16175 4.23225 0
M  V30 3517 H 342.342 -0.73367 0.103968 0
M  V30 3518 H 344.989 -1.66683 0.942825 0
M  V30 3519 H 343.294 -3.89674 -0.407625 0
M  V30 3520 H 344.991 -4.00986 -0.0329927 0
M  V30 3521 H 341.581 -4.05087 1.40008 0
M  V30 3522 H 345.765 -4.38653 2.32157 0
M  V30 3523 H 341.021 -4.91941 3.63049 0
M  V30 3524 H 345.195 -5.26863 4.55399 0
M  V30 3525 H 342.822 -5.5323 5.21384 0
M  V30 3526 N 344.397 -0.483516 -1.5 0
M  V30 3527 C 345.345 0.318061 -2.30415 0
M  V30 3528 C 346.339 0.978988 -1.38247 0
M  V30 3529 O 347.545 0.908673 -1.55381 0
M  V30 3530 H 343.92 0.121419 -0.742133 0
M  V30 3531 H 345.891 -0.380403 -2.95965 0
M  V30 3532 C 344.64 1.38013 -3.19136 0
M  V30 3533 H 343.963 0.880952 -3.89973 0
M  V30 3534 H 345.403 1.91332 -3.78375 0
M  V30 3535 C 343.862 2.38884 -2.37563 0
M  V30 3536 O 344.392 3.44412 -2.06744 0
M  V30 3537 N 342.598 2.10912 -1.99911 0
M  V30 3538 H 342.145 1.25118 -2.25174 0
M  V30 3539 H 342.103 2.78635 -1.45636 0
M  V30 3540 N 345.875 1.56104 -0.216619 0
M  V30 3541 C 346.838 2.18819 0.681962 0
M  V30 3542 C 347.838 1.14866 1.12528 0
M  V30 3543 O 349.028 1.40128 1.03488 0
M  V30 3544 C 346.16 2.80756 1.93362 0
M  V30 3545 H 347.353 2.99595 0.135254 0
M  V30 3546 H 344.906 1.56265 0.0330003 0
M  V30 3547 H 345.641 2.03837 2.52232 0
M  V30 3548 H 345.426 3.56876 1.62426 0
M  V30 3549 H 346.916 3.28844 2.57393 0
M  V30 3550 N 347.353 -0.0568162 1.57498 0
M  V30 3551 C 348.581 -0.765626 1.92213 0
M  V30 3552 C 348.996 -1.70353 0.813961 0
M  V30 3553 O 348.353 -1.81268 -0.211701 0
M  V30 3554 C 348.404 -1.5465 3.2675 0
M  V30 3555 O 348.125 -0.646278 4.33307 0
M  V30 3556 C 349.626 -2.35497 3.75574 0
M  V30 3557 H 346.846 -0.216835 0.634999 0
M  V30 3558 H 349.39 -0.0226146 2.04487 0
M  V30 3559 H 347.545 -2.24165 3.15957 0
M  V30 3560 H 347.959 -1.19093 5.108 0
M  V30 3561 H 349.433 -2.85722 4.72299 0
M  V30 3562 H 349.91 -3.15692 3.05344 0
M  V30 3563 H 350.516 -1.7111 3.8936 0
M  V30 3564 N 348.832 -1.54138 -0.328536 0
M  V30 3565 C 350.08 -1.71765 -1.06496 0
M  V30 3566 C 350.401 -0.49149 -1.88704 0
M  V30 3567 O 349.671 0.494539 -1.89555 0
M  V30 3568 H 348.251 -0.633295 -0.396164 0
M  V30 3569 H 350.913 -1.91429 -0.366176 0
M  V30 3570 H 350.009 -2.5951 -1.73381 0
M  V30 3571 N 350.31 0.590341 -1.46126 0
M  V30 3572 C 351.726 0.912917 -1.30912 0
M  V30 3573 C 351.926 1.99616 -0.274893 0
M  V30 3574 O 350.982 2.50397 0.325197 0
M  V30 3575 C 352.295 1.3375 -2.69317 0
M  V30 3576 C 353.843 1.45077 -2.77348 0
M  V30 3577 C 354.318 1.90904 -4.16317 0
M  V30 3578 N 355.809 1.9811 -4.18696 0
M  V30 3579 C 356.544 2.34828 -5.23109 0
M  V30 3580 N 356.04 2.70393 -6.37856 0
M  V30 3581 N 357.833 2.35317 -5.10473 0
M  V30 3582 H 349.984 -0.125358 -2.1203 0
M  V30 3583 H 352.247 0.00658481 -0.947977 0
M  V30 3584 H 351.953 0.615614 -3.4627 0
M  V30 3585 H 351.827 2.30058 -2.9892 0
M  V30 3586 H 354.214 2.16353 -2.00687 0
M  V30 3587 H 354.295 0.4704 -2.51438 0
M  V30 3588 H 353.939 1.20209 -4.9347 0
M  V30 3589 H 353.869 2.89886 -4.39629 0
M  V30 3590 H 356.36 1.73146 -3.359 0
M  V30 3591 H 356.673 2.97341 -7.13308 0
M  V30 3592 H 355.018 2.68048 -6.41229 0
M  V30 3593 H 358.209 2.0695 -4.19868 0
M  V30 3594 H 358.382 2.63605 -5.9196 0
M  V30 3595 N 351.788 1.33704 0.83433 0
M  V30 3596 C 353.204 1.13137 1.12571 0
M  V30 3597 C 353.404 -0.0747261 2.01361 0
M  V30 3598 O 352.46 -0.753647 2.4099 0
M  V30 3599 C 353.773 2.42105 1.78342 0
M  V30 3600 C 355.321 2.48054 1.90888 0
M  V30 3601 C 355.796 3.76995 2.60075 0
M  V30 3602 N 357.287 3.78092 2.67584 0
M  V30 3603 C 358.022 4.74574 3.21818 0
M  V30 3604 N 357.518 5.81434 3.76705 0
M  V30 3605 N 359.311 4.62044 3.20112 0
M  V30 3606 H 351.462 2.11 0.243489 0
M  V30 3607 H 353.725 0.932532 0.17055 0
M  V30 3608 H 353.431 3.30391 1.20561 0
M  V30 3609 H 353.305 2.54594 2.7832 0
M  V30 3610 H 355.692 1.60215 2.47821 0
M  V30 3611 H 355.773 2.39502 0.898459 0
M  V30 3612 H 355.417 4.65219 2.03799 0
M  V30 3613 H 355.347 3.82825 3.61597 0
M  V30 3614 H 357.838 3.00865 2.28667 0
M  V30 3615 H 358.151 6.51084 4.16305 0
M  V30 3616 H 356.496 5.85163 3.7498 0
M  V30 3617 H 359.687 3.77716 2.76493 0
M  V30 3618 H 359.86 5.37406 3.62076 0
M  V30 3619 N 353.266 -1.05314 1.17247 0
M  V30 3620 C 354.494 -1.81971 0.984593 0
M  V30 3621 C 354.909 -1.82929 -0.467166 0
M  V30 3622 O 354.266 -1.25564 -1.32438 0
M  V30 3623 C 354.317 -3.28143 1.51672 0
M  V30 3624 O 354.038 -3.27347 2.91163 0
M  V30 3625 C 355.539 -4.21493 1.37326 0
M  V30 3626 H 352.759 -0.573455 0.348411 0
M  V30 3627 H 355.303 -1.32808 1.55506 0
M  V30 3628 H 353.458 -3.74582 0.988302 0
M  V30 3629 H 353.872 -4.18824 3.15732 0
M  V30 3630 H 355.346 -5.22043 1.79375 0
M  V30 3631 H 355.823 -4.38031 0.320169 0
M  V30 3632 H 356.429 -3.80909 1.89178 0
M  V30 3633 N 354.744 -0.972509 -1.24016 0
M  V30 3634 C 355.99 -0.637978 -1.92504 0
M  V30 3635 C 356.323 0.825383 -1.75787 0
M  V30 3636 O 355.598 1.59442 -1.11393 0
M  V30 3637 C 355.881 -1.01942 -3.45369 0
M  V30 3638 C 355.734 -2.53983 -3.71231 0
M  V30 3639 C 357.053 -0.55751 -4.36555 0
M  V30 3640 H 354.172 -0.233248 -0.699117 0
M  V30 3641 H 356.814 -1.21238 -1.46292 0
M  V30 3642 H 354.964 -0.530656 -3.84859 0
M  V30 3643 H 356.636 -3.10374 -3.41271 0
M  V30 3644 H 354.879 -2.96968 -3.16216 0
M  V30 3645 H 355.55 -2.75723 -4.78206 0
M  V30 3646 H 358.026 -0.977029 -4.04467 0
M  V30 3647 H 356.902 -0.85292 -5.42233 0
M  V30 3648 H 357.163 0.542328 -4.38761 0
M  V30 3649 N 356.222 1.38976 -0.743202 0
M  V30 3650 C 357.155 2.28128 -0.0572165 0
M  V30 3651 C 358.133 1.44827 0.739182 0
M  V30 3652 O 359.317 1.74207 0.720009 0
M  V30 3653 C 356.444 3.25796 0.926001 0
M  V30 3654 C 355.49 4.25947 0.217099 0
M  V30 3655 S 356.323 5.24604 -1.07477 0
M  V30 3656 C 357.479 6.25829 -0.0943545 0
M  V30 3657 H 357.712 2.85961 -0.813246 0
M  V30 3658 H 355.245 1.44822 -0.535341 0
M  V30 3659 H 357.203 3.82583 1.48797 0
M  V30 3660 H 355.864 2.66966 1.65493 0
M  V30 3661 H 355.057 4.94746 0.961372 0
M  V30 3662 H 354.659 3.73002 -0.273059 0
M  V30 3663 H 356.951 6.73411 0.743239 0
M  V30 3664 H 357.894 7.0412 -0.749713 0
M  V30 3665 H 358.302 5.63797 0.281706 0
M  V30 3666 N 357.7 0.491464 1.49741 0
M  V30 3667 C 358.63 -0.28154 2.31796 0
M  V30 3668 C 359.611 -0.971473 1.3963 0
M  V30 3669 O 360.796 -0.964719 1.68543 0
M  V30 3670 C 357.926 -1.35203 3.19902 0
M  V30 3671 C 356.88 -0.782529 4.20786 0
M  V30 3672 C 356.206 -1.95283 4.97764 0
M  V30 3673 C 357.506 0.21999 5.21837 0
M  V30 3674 H 359.2 0.403355 2.96671 0
M  V30 3675 H 356.746 0.195425 1.42668 0
M  V30 3676 H 358.699 -1.90045 3.76113 0
M  V30 3677 H 357.423 -2.06598 2.52953 0
M  V30 3678 H 356.082 -0.255928 3.65706 0
M  V30 3679 H 355.73 -2.65423 4.2727 0
M  V30 3680 H 355.43 -1.57789 5.66018 0
M  V30 3681 H 356.954 -2.50577 5.56816 0
M  V30 3682 H 358.368 -0.23996 5.72798 0
M  V30 3683 H 356.765 0.51026 5.97927 0
M  V30 3684 H 357.835 1.13911 4.7133 0
M  V30 3685 N 359.178 -1.55987 0.224894 0
M  V30 3686 C 360.424 -1.98684 -0.406502 0
M  V30 3687 C 360.757 -1.11248 -1.59177 0
M  V30 3688 O 360.032 -0.170909 -1.93748 0
M  V30 3689 C 360.315 -3.50218 -0.837808 0
M  V30 3690 C 360.168 -4.48426 0.351332 0
M  V30 3691 C 361.487 -4.06243 -1.69278 0
M  V30 3692 H 358.606 -0.722337 -0.146283 0
M  V30 3693 H 361.248 -1.87255 0.321799 0
M  V30 3694 H 359.398 -3.60089 -1.45837 0
M  V30 3695 H 361.07 -4.50562 0.989526 0
M  V30 3696 H 359.313 -4.22159 0.998207 0
M  V30 3697 H 359.984 -5.52 0.00655905 0
M  V30 3698 H 362.46 -3.99337 -1.16914 0
M  V30 3699 H 361.336 -5.12581 -1.96346 0
M  V30 3700 H 361.597 -3.53332 -2.65723 0
M  V30 3701 N 360.656 0.0484629 -1.57525 0
M  V30 3702 C 362.072 0.40375 -1.54409 0
M  V30 3703 C 362.272 1.77786 -0.948384 0
M  V30 3704 O 361.328 2.46189 -0.560983 0
M  V30 3705 C 362.641 0.323394 -2.98956 0
M  V30 3706 C 364.189 0.401892 -3.10409 0
M  V30 3707 C 364.664 0.351195 -4.56652 0
M  V30 3708 N 366.155 0.410576 -4.61377 0
M  V30 3709 C 366.89 0.393933 -5.72045 0
M  V30 3710 N 366.386 0.330724 -6.9201 0
M  V30 3711 N 368.179 0.442227 -5.60358 0
M  V30 3712 H 360.33 -0.851016 -1.94606 0
M  V30 3713 H 362.593 -0.321721 -0.89174 0
M  V30 3714 H 362.299 -0.62011 -3.4619 0
M  V30 3715 H 362.173 1.12463 -3.60044 0
M  V30 3716 H 364.56 1.33582 -2.63134 0
M  V30 3717 H 364.641 -0.428342 -2.52188 0
M  V30 3718 H 364.285 -0.578987 -5.04589 0
M  V30 3719 H 364.215 1.19928 -5.12762 0
M  V30 3720 H 366.706 0.462729 -3.75056 0
M  V30 3721 H 367.019 0.322592 -7.72126 0
M  V30 3722 H 365.364 0.29706 -6.94365 0
M  V30 3723 H 368.555 0.489464 -4.65534 0
M  V30 3724 H 368.728 0.425788 -6.466 0
M  V30 3725 N 362.134 1.5431 0.320358 0
M  V30 3726 C 363.362 1.76636 1.07738 0
M  V30 3727 C 363.777 0.51649 1.81598 0
M  V30 3728 O 363.134 -0.512942 1.75143 0
M  V30 3729 C 363.185 2.96158 2.07299 0
M  V30 3730 O 362.906 4.16313 1.36438 0
M  V30 3731 C 364.407 3.3072 2.95193 0
M  V30 3732 H 361.627 0.589597 0.320339 0
M  V30 3733 H 364.171 2.01207 0.36551 0
M  V30 3734 H 362.326 2.73851 2.74016 0
M  V30 3735 H 362.74 4.83565 2.03138 0
M  V30 3736 H 364.214 4.17643 3.60941 0
M  V30 3737 H 364.691 2.48026 3.62463 0
M  V30 3738 H 365.297 3.55117 2.34034 0
M  V30 3739 N 363.613 -0.582584 1.46437 0
M  V30 3740 C 364.523 -1.71949 1.59595 0
M  V30 3741 C 365.539 -1.67264 0.479443 0
M  V30 3742 O 366.715 -1.87171 0.743579 0
M  V30 3743 C 363.78 -3.08452 1.58298 0
M  V30 3744 C 362.841 -3.244 2.81182 0
M  V30 3745 C 362.074 -4.54391 2.79937 0
M  V30 3746 O 362.297 -5.38287 1.8869 0
M  V30 3747 O 361.231 -4.73588 3.71481 0
M  V30 3748 H 365.057 -1.63795 2.55744 0
M  V30 3749 H 362.642 -0.749643 1.29231 0
M  V30 3750 H 364.524 -3.89732 1.60271 0
M  V30 3751 H 363.199 -3.17043 0.653094 0
M  V30 3752 H 362.106 -2.42613 2.84763 0
M  V30 3753 H 363.439 -3.20699 3.7338 0
M  V30 3754 N 365.091 -1.34144 -0.827227 0
M  V30 3755 C 366.502 -1.23557 -1.39966 0
M  V30 3756 C 366.853 0.140731 -1.95695 0
M  V30 3757 O 365.978 1.04087 -1.89723 0
M  V30 3758 C 366.573 -2.23708 -2.54441 0
M  V30 3759 C 365.132 -2.16924 -3.07605 0
M  V30 3760 C 364.279 -2.10549 -1.80456 0
M  V30 3761 H 367.23 -1.45573 -0.631991 0
M  V30 3762 H 367.251 -1.85157 -3.32411 0
M  V30 3763 H 366.763 -3.23866 -2.13851 0
M  V30 3764 H 364.864 -1.20107 -3.52711 0
M  V30 3765 H 364.977 -3.07988 -3.66988 0
M  V30 3766 H 363.341 -1.56203 -2.01178 0
M  V30 3767 H 364.124 -3.12535 -1.42046 0
M  V30 3768 N 366.569 1.04691 -1.17803 0
M  V30 3769 C 367.499 2.14494 -0.92275 0
M  V30 3770 C 368.48 1.69546 0.137179 0
M  V30 3771 O 369.665 1.94195 -0.0141108 0
M  V30 3772 C 366.795 3.44491 -0.440803 0
M  V30 3773 C 365.749 4.03031 -1.4405 0
M  V30 3774 C 365.075 5.28432 -0.81631 0
M  V30 3775 C 366.375 4.39932 -2.81527 0
M  V30 3776 H 368.069 2.36107 -1.84103 0
M  V30 3777 H 365.615 1.1347 -0.886599 0
M  V30 3778 H 367.568 4.2066 -0.249602 0
M  V30 3779 H 366.292 3.22546 0.513025 0
M  V30 3780 H 364.951 3.28937 -1.61853 0
M  V30 3781 H 364.599 5.02792 0.144511 0
M  V30 3782 H 364.299 5.68559 -1.48371 0
M  V30 3783 H 365.823 6.07284 -0.635496 0
M  V30 3784 H 367.237 5.07113 -2.67412 0
M  V30 3785 H 365.634 4.9109 -3.44892 0
M  V30 3786 H 366.704 3.50045 -3.35554 0
M  V30 3787 N 368.047 0.979072 1.23499 0
M  V30 3788 C 368.994 0.517904 2.24914 0
M  V30 3789 C 369.964 -0.442525 1.60097 0
M  V30 3790 O 371.149 -0.350365 1.87556 0
M  V30 3791 C 368.289 -0.174813 3.44657 0
M  V30 3792 C 367.402 0.825721 4.24035 0
M  V30 3793 C 366.537 0.107946 5.3109 0
M  V30 3794 C 365.576 1.09778 6.02175 0
M  V30 3795 N 364.713 0.40925 7.00906 0
M  V30 3796 H 369.553 1.38751 2.63727 0
M  V30 3797 H 367.09 0.695303 1.2963 0
M  V30 3798 H 369.048 -0.593233 4.12961 0
M  V30 3799 H 367.678 -1.0083 3.06648 0
M  V30 3800 H 366.73 1.36253 3.55161 0
M  V30 3801 H 368.042 1.58005 4.73113 0
M  V30 3802 H 367.196 -0.367904 6.05583 0
M  V30 3803 H 365.935 -0.678994 4.8295 0
M  V30 3804 H 364.94 1.5844 5.26476 0
M  V30 3805 H 366.165 1.88536 6.52404 0
M  V30 3806 H 364.111 -0.358506 6.5502 0
M  V30 3807 H 364.028 1.10226 7.47921 0
M  V30 3808 H 365.296 -0.0442557 7.79487 0
M  V30 3809 N 369.525 -1.3858 0.750561 0
M  V30 3810 C 370.455 -2.33102 0.136237 0
M  V30 3811 C 371.436 -1.54713 -0.706965 0
M  V30 3812 O 372.621 -1.83043 -0.648769 0
M  V30 3813 C 369.751 -3.38882 -0.760017 0
M  V30 3814 C 368.705 -4.27995 -0.0197785 0
M  V30 3815 C 368.031 -5.24605 -1.03408 0
M  V30 3816 C 369.331 -5.09554 1.14684 0
M  V30 3817 H 371.025 -2.84726 0.925822 0
M  V30 3818 H 368.571 -1.36898 0.446654 0
M  V30 3819 H 370.524 -4.0397 -1.19943 0
M  V30 3820 H 369.248 -2.85734 -1.58189 0
M  V30 3821 H 367.907 -3.64409 0.400184 0
M  V30 3822 H 367.555 -4.67746 -1.84994 0
M  V30 3823 H 367.255 -5.85081 -0.543464 0
M  V30 3824 H 368.779 -5.9257 -1.47288 0
M  V30 3825 H 370.193 -5.67899 0.785118 0
M  V30 3826 H 368.59 -5.7925 1.56812 0
M  V30 3827 H 369.66 -4.4347 1.96118 0
M  V30 3828 N 371.003 -0.499398 -1.49478 0
M  V30 3829 C 372.252 0.0475259 -2.01644 0
M  V30 3830 C 372.565 1.38195 -1.38425 0
M  V30 3831 O 373.771 2.01547 -1.8191 0
M  V30 3832 C 372.227 0.135164 -3.59646 0
M  V30 3833 C 371.835 -1.19252 -4.31837 0
M  V30 3834 C 373.579 0.632538 -4.19761 0
M  V30 3835 C 371.486 -1.06713 -5.81693 0
M  V30 3836 H 370.416 0.0215349 -0.753692 0
M  V30 3837 H 373.067 -0.638577 -1.7203 0
M  V30 3838 H 371.449 0.885681 -3.85969 0
M  V30 3839 H 372.623 -1.9562 -4.17216 0
M  V30 3840 H 370.938 -1.62321 -3.83459 0
M  V30 3841 H 373.535 0.743833 -5.29501 0
M  V30 3842 H 373.878 1.63098 -3.83021 0
M  V30 3843 H 374.411 -0.0613987 -3.97753 0
M  V30 3844 H 371.15 -2.03979 -6.22955 0
M  V30 3845 H 370.67 -0.344307 -5.98811 0
M  V30 3846 H 372.349 -0.745208 -6.42694 0
M  V30 3847 N 372.481 1.55866 -0.233164 0
M  V30 3848 C 373.428 2.20796 0.67215 0
M  V30 3849 C 374.398 1.16731 1.18166 0
M  V30 3850 O 375.583 1.45129 1.23864 0
M  V30 3851 C 372.723 2.90072 1.86955 0
M  V30 3852 C 371.836 4.08759 1.39786 0
M  V30 3853 C 370.971 4.65787 2.55374 0
M  V30 3854 C 370.01 5.76752 2.04998 0
M  V30 3855 N 369.147 6.28021 3.13901 0
M  V30 3856 H 373.987 2.9779 0.111749 0
M  V30 3857 H 371.524 1.47036 0.0434007 0
M  V30 3858 H 373.482 3.28428 2.57276 0
M  V30 3859 H 372.112 2.15575 2.40265 0
M  V30 3860 H 371.164 3.7581 0.589173 0
M  V30 3861 H 372.476 4.88906 0.98856 0
M  V30 3862 H 371.63 5.06646 3.33758 0
M  V30 3863 H 370.369 3.84828 2.99598 0
M  V30 3864 H 369.374 5.35383 1.25079 0
M  V30 3865 H 370.599 6.59553 1.61759 0
M  V30 3866 H 368.545 5.49971 3.57586 0
M  V30 3867 H 368.462 7.03323 2.7726 0
M  V30 3868 H 369.73 6.73538 3.92386 0
M  V30 3869 N 373.959 -0.0401083 1.57549 0
M  V30 3870 C 375.236 -0.767917 1.79896 0
M  V30 3871 C 375.616 -1.9416 0.82856 0
M  V30 3872 O 374.964 -2.2812 -0.131671 0
M  V30 3873 C 375.174 -1.2113 3.27305 0
M  V30 3874 C 376.522 -1.63175 3.91994 0
M  V30 3875 O 377.546 -1.30616 3.31388 0
M  V30 3876 O 376.405 -2.23565 4.98679 0
M  V30 3877 H 373.499 -0.370441 0.739393 0
M  V30 3878 H 376.045 -0.017737 1.69691 0
M  V30 3879 H 374.817 -0.372937 3.89519 0
M  V30 3880 H 374.44 -2.02183 3.42356 0
M  V30 3881 N 375.437 -1.54477 -0.31217 0
M  V30 3882 C 376.385 -1.85395 -1.40469 0
M  V30 3883 C 377.379 -0.726749 -1.53019 0
M  V30 3884 O 378.585 -0.910582 -1.55269 0
M  V30 3885 H 374.96 -0.587845 -0.46898 0
M  V30 3886 H 376.931 -2.76736 -1.11623 0
M  V30 3887 C 375.68 -2.10811 -2.76503 0
M  V30 3888 H 375.003 -2.97014 -2.67625 0
M  V30 3889 H 376.443 -2.3639 -3.51988 0
M  V30 3890 C 374.902 -0.903165 -3.24568 0
M  V30 3891 O 375.432 -0.118085 -4.01526 0
M  V30 3892 N 373.638 -0.711634 -2.81752 0
M  V30 3893 H 373.185 -1.35171 -2.19286 0
M  V30 3894 H 373.143 0.0930473 -3.14262 0
M  V30 3895 N 376.915 0.57481 -1.46744 0
M  V30 3896 C 377.825 1.711 -1.60505 0
M  V30 3897 C 378.841 1.67008 -0.488307 0
M  V30 3898 O 380.017 1.86774 -0.753495 0
M  V30 3899 C 377.082 3.07608 -1.59932 0
M  V30 3900 C 376.143 3.22904 -2.82898 0
M  V30 3901 C 375.376 4.529 -2.82343 0
M  V30 3902 O 375.599 5.37278 -1.91542 0
M  V30 3903 O 374.533 4.71611 -3.73987 0
M  V30 3904 H 378.359 1.62436 -2.56609 0
M  V30 3905 H 375.944 0.742779 -1.29627 0
M  V30 3906 H 377.826 3.88877 -1.62336 0
M  V30 3907 H 376.501 3.16692 -0.669898 0
M  V30 3908 H 375.408 2.41099 -2.86046 0
M  V30 3909 H 376.741 3.18715 -3.75076 0
M  V30 3910 N 378.394 1.34581 0.820102 0
M  V30 3911 C 379.622 1.3018 1.60813 0
M  V30 3912 C 380.037 -0.123551 1.88395 0
M  V30 3913 O 379.394 -1.07148 1.47735 0
M  V30 3914 C 379.445 2.09312 2.94739 0
M  V30 3915 O 379.166 3.46288 2.68358 0
M  V30 3916 C 380.667 2.1234 3.89136 0
M  V30 3917 H 377.887 0.447726 0.499782 0
M  V30 3918 H 380.431 1.77237 1.02017 0
M  V30 3919 H 378.586 1.65889 3.50085 0
M  V30 3920 H 379 3.87227 3.53774 0
M  V30 3921 H 380.474 2.72126 4.80262 0
M  V30 3922 H 380.951 1.11854 4.24718 0
M  V30 3923 H 381.557 2.55864 3.39726 0
M  V30 3924 N 379.872 -1.04064 1.18357 0
M  V30 3925 C 381.288 -1.2947 0.933258 0
M  V30 3926 C 381.488 -1.97466 -0.401169 0
M  V30 3927 O 380.544 -2.25528 -1.13549 0
M  V30 3928 C 381.857 -2.15337 2.09882 0
M  V30 3929 C 383.405 -2.28683 2.13712 0
M  V30 3930 C 383.88 -3.17917 3.29686 0
M  V30 3931 N 385.371 -3.25504 3.29547 0
M  V30 3932 C 386.106 -3.94706 4.15926 0
M  V30 3933 N 385.602 -4.66239 5.12439 0
M  V30 3934 N 387.395 -3.90986 4.0384 0
M  V30 3935 H 379.546 -0.583359 2.04232 0
M  V30 3936 H 381.809 -0.319921 0.892387 0
M  V30 3937 H 381.515 -1.72682 3.06389 0
M  V30 3938 H 381.389 -3.16015 2.05947 0
M  V30 3939 H 383.776 -2.70575 1.17784 0
M  V30 3940 H 383.857 -1.27596 2.21705 0
M  V30 3941 H 383.501 -2.76736 4.25887 0
M  V30 3942 H 383.431 -4.19036 3.1893 0
M  V30 3943 H 385.922 -2.74547 2.59677 0
M  V30 3944 H 386.235 -5.16638 5.74722 0
M  V30 3945 H 384.58 -4.65143 5.16398 0
M  V30 3946 H 387.771 -3.34234 3.27727 0
M  V30 3947 H 387.944 -4.44646 4.71375 0
M  V30 3948 N 381.35 -0.985608 -1.22978 0
M  V30 3949 C 382.313 -0.535071 -2.22867 0
M  V30 3950 C 383.313 0.378123 -1.56291 0
M  V30 3951 O 384.503 0.171092 -1.73358 0
M  V30 3952 C 381.635 0.222702 -3.40172 0
M  V30 3953 H 382.828 -1.41835 -2.6424 0
M  V30 3954 H 380.381 -0.772042 -1.35901 0
M  V30 3955 H 381.116 1.12229 -3.04262 0
M  V30 3956 H 380.901 -0.43288 -3.89703 0
M  V30 3957 H 382.391 0.526335 -4.1427 0
M  V30 3958 N 382.828 1.3818 -0.7579 0
M  V30 3959 C 384.058 2.04004 -0.326463 0
M  V30 3960 C 384.466 1.57286 1.05156 0
M  V30 3961 O 383.809 0.743144 1.67997 0
M  V30 3962 C 383.871 3.58444 -0.275402 0
M  V30 3963 C 383.535 4.28237 -1.59569 0
M  V30 3964 C 384.532 4.53312 -2.54566 0
M  V30 3965 C 382.217 4.66341 -1.86631 0
M  V30 3966 C 384.211 5.15531 -3.74842 0
M  V30 3967 C 381.898 5.28283 -3.0718 0
M  V30 3968 C 382.896 5.52814 -4.01106 0
M  V30 3969 O 382.584 6.13465 -5.19534 0
M  V30 3970 H 382.316 0.662026 -0.136739 0
M  V30 3971 H 384.87 1.7777 -1.02893 0
M  V30 3972 H 383.1 3.83667 0.483337 0
M  V30 3973 H 384.789 4.05701 0.127099 0
M  V30 3974 H 385.555 4.24299 -2.34936 0
M  V30 3975 H 381.434 4.46591 -1.14358 0
M  V30 3976 H 384.978 5.34594 -4.48168 0
M  V30 3977 H 380.875 5.56719 -3.26702 0
M  V30 3978 H 381.643 6.31951 -5.20173 0
M  V30 3979 N 384.306 0.507319 1.49211 0
M  V30 3980 C 385.552 -0.0350047 2.0277 0
M  V30 3981 C 385.885 -1.3606 1.38569 0
M  V30 3982 O 385.16 -1.87321 0.523542 0
M  V30 3983 C 385.443 -0.180916 3.59645 0
M  V30 3984 C 385.296 1.16825 4.34364 0
M  V30 3985 C 386.615 -0.918558 4.30407 0
M  V30 3986 H 383.734 -0.0112473 0.736914 0
M  V30 3987 H 386.376 0.659956 1.7817 0
M  V30 3988 H 384.526 -0.772826 3.80736 0
M  V30 3989 H 386.198 1.79952 4.24753 0
M  V30 3990 H 384.441 1.75594 3.96673 0
M  V30 3991 H 385.112 1.01939 5.42506 0
M  V30 3992 H 387.588 -0.41649 4.1401 0
M  V30 3993 H 386.464 -0.989505 5.39907 0
M  V30 3994 H 386.725 -1.96373 3.96093 0
M  V30 3995 N 385.784 -1.5574 0.241426 0
M  V30 3996 C 386.714 -2.24133 -0.654722 0
M  V30 3997 C 387.695 -1.21974 -1.1856 0
M  V30 3998 O 388.88 -1.50612 -1.22595 0
M  V30 3999 C 386.01 -2.93659 -1.85423 0
M  V30 4000 C 384.964 -4.0246 -1.45636 0
M  V30 4001 C 384.29 -4.59383 -2.73626 0
M  V30 4002 C 385.59 -5.18468 -0.631506 0
M  V30 4003 H 387.284 -2.99281 -0.0844353 0
M  V30 4004 H 384.83 -1.43947 -0.0391707 0
M  V30 4005 H 386.783 -3.40203 -2.48676 0
M  V30 4006 H 385.507 -2.15991 -2.44981 0
M  V30 4007 H 384.166 -3.56676 -0.847202 0
M  V30 4008 H 383.814 -3.78422 -3.3137 0
M  V30 4009 H 383.514 -5.32826 -2.4773 0
M  V30 4010 H 385.038 -5.08658 -3.37786 0
M  V30 4011 H 386.452 -5.61272 -1.1682 0
M  V30 4012 H 384.849 -5.98266 -0.468831 0
M  V30 4013 H 385.919 -4.8358 0.357506 0
M  V30 4014 N 387.262 0.0317525 -1.57568 0
M  V30 4015 C 388.539 0.758366 -1.803 0
M  V30 4016 C 388.919 1.93718 -0.838845 0
M  V30 4017 O 388.267 2.28187 0.119571 0
M  V30 4018 C 388.477 1.19392 -3.27943 0
M  V30 4019 C 389.825 1.61094 -3.92854 0
M  V30 4020 O 390.849 1.28857 -3.32076 0
M  V30 4021 O 389.708 2.20918 -4.99858 0
M  V30 4022 H 386.802 0.366514 -0.741348 0
M  V30 4023 H 389.348 0.00873765 -1.69698 0
M  V30 4024 H 388.12 0.352275 -3.89711 0
M  V30 4025 H 387.743 2.00365 -3.43424 0
M  V30 4026 N 388.74 1.54641 0.303973 0
M  V30 4027 C 390.156 1.45788 0.649463 0
M  V30 4028 C 390.356 0.64666 1.90842 0
M  V30 4029 O 389.412 0.153183 2.52035 0
M  V30 4030 C 390.725 2.89718 0.805227 0
M  V30 4031 C 392.273 2.99742 0.901305 0
M  V30 4032 C 392.748 4.44863 1.08909 0
M  V30 4033 N 394.239 4.48559 1.15536 0
M  V30 4034 C 394.974 5.58026 1.3189 0
M  V30 4035 N 394.47 6.77422 1.45161 0
M  V30 4036 N 396.263 5.45708 1.34755 0
M  V30 4037 H 388.414 2.05854 -0.523237 0
M  V30 4038 H 390.677 0.932186 -0.172431 0
M  V30 4039 H 390.383 3.51666 -0.0489108 0
M  V30 4040 H 390.257 3.36964 1.69513 0
M  V30 4041 H 392.644 2.3791 1.74593 0
M  V30 4042 H 392.725 2.55797 -0.0125531 0
M  V30 4043 H 392.369 5.07288 0.249241 0
M  V30 4044 H 392.299 4.86436 2.01713 0
M  V30 4045 H 394.79 3.6254 1.06646 0
M  V30 4046 H 395.103 7.56604 1.57387 0
M  V30 4047 H 393.448 6.80292 1.42223 0
M  V30 4048 H 396.639 4.51378 1.23996 0
M  V30 4049 H 396.812 6.3107 1.47157 0
M  V30 4050 N 390.218 -0.567019 1.47046 0
M  V30 4051 C 391.151 -1.69016 1.53326 0
M  V30 4052 C 392.129 -1.57949 0.386126 0
M  V30 4053 O 393.313 -1.78945 0.592529 0
M  V30 4054 C 390.44 -3.07191 1.42658 0
M  V30 4055 C 389.486 -3.36733 2.6175 0
M  V30 4056 S 390.319 -3.27069 4.24012 0
M  V30 4057 C 391.475 -4.67755 4.1588 0
M  V30 4058 H 391.708 -1.63434 2.48348 0
M  V30 4059 H 389.241 -0.747048 1.35124 0
M  V30 4060 H 391.199 -3.86897 1.37191 0
M  V30 4061 H 389.86 -3.10249 0.490369 0
M  V30 4062 H 389.053 -4.37441 2.50323 0
M  V30 4063 H 388.655 -2.64627 2.64289 0
M  V30 4064 H 390.947 -5.58491 3.83529 0
M  V30 4065 H 391.89 -4.84239 5.16641 0
M  V30 4066 H 392.298 -4.45341 3.46889 0
M  V30 4067 N 391.696 -1.35014 -0.812953 0
M  V30 4068 C 392.643 -1.27412 -1.92444 0
M  V30 4069 C 393.613 -0.14733 -1.65445 0
M  V30 4070 O 394.798 -0.329974 -1.87925 0
M  V30 4071 C 391.938 -1.04558 -3.28879 0
M  V30 4072 C 391.051 -2.26101 -3.68106 0
M  V30 4073 C 390.186 -1.96449 -4.9354 0
M  V30 4074 C 389.225 -3.14081 -5.25376 0
M  V30 4075 N 388.362 -2.84246 -6.41988 0
M  V30 4076 H 393.202 -2.22463 -1.98278 0
M  V30 4077 H 390.739 -1.10593 -0.969933 0
M  V30 4078 H 392.697 -0.893413 -4.07522 0
M  V30 4079 H 391.327 -0.131719 -3.22531 0
M  V30 4080 H 390.379 -2.52204 -2.84775 0
M  V30 4081 H 391.691 -3.13959 -3.87597 0
M  V30 4082 H 390.845 -1.78026 -5.79993 0
M  V30 4083 H 389.584 -1.05867 -4.76071 0
M  V30 4084 H 388.589 -3.33089 -4.37415 0
M  V30 4085 H 389.814 -4.05455 -5.44778 0
M  V30 4086 H 387.76 -1.96252 -6.25956 0
M  V30 4087 H 387.677 -3.65637 -6.61699 0
M  V30 4088 H 388.945 -2.6935 -7.31485 0
M  V30 4089 N 393.175 1.03435 -1.18907 0
M  V30 4090 C 394.085 2.15075 -0.937015 0
M  V30 4091 C 395.101 1.73706 0.101085 0
M  V30 4092 O 396.277 2.01232 -0.0822948 0
M  V30 4093 C 393.342 3.43458 -0.473057 0
M  V30 4094 C 392.403 3.99172 -1.57989 0
M  V30 4095 C 391.636 5.21427 -1.13797 0
M  V30 4096 O 391.859 5.704 0.000725941 0
M  V30 4097 O 390.793 5.69837 -1.9383 0
M  V30 4098 H 394.619 2.39198 -1.87131 0
M  V30 4099 H 392.204 1.13506 -0.971427 0
M  V30 4100 H 394.086 4.20811 -0.222702 0
M  V30 4101 H 392.761 3.20793 0.432869 0
M  V30 4102 H 391.668 3.23178 -1.88433 0
M  V30 4103 H 393.001 4.2619 -2.46217 0
M  V30 4104 N 394.653 0.992116 1.22453 0
M  V30 4105 C 395.585 0.500024 2.23679 0
M  V30 4106 C 396.598 -0.404463 1.57696 0
M  V30 4107 O 397.787 -0.206722 1.77299 0
M  V30 4108 C 394.887 -0.294711 3.37616 0
M  V30 4109 C 394.06 0.605723 4.33186 0
M  V30 4110 C 393.119 -0.13717 5.26021 0
M  V30 4111 O 392.145 0.477164 5.67196 0
M  V30 4112 N 393.347 -1.4197 5.62872 0
M  V30 4113 H 396.112 1.37045 2.66531 0
M  V30 4114 H 393.673 0.866741 1.36745 0
M  V30 4115 H 395.665 -0.800329 3.96707 0
M  V30 4116 H 394.235 -1.06623 2.93854 0
M  V30 4117 H 393.455 1.29202 3.72425 0
M  V30 4118 H 394.743 1.21896 4.93983 0
M  V30 4119 H 394.141 -1.94015 5.31389 0
M  V30 4120 H 392.698 -1.87052 6.24383 0
M  V30 4121 N 396.131 -1.37776 0.765217 0
M  V30 4122 C 397.379 -1.99454 0.325943 0
M  V30 4123 C 397.7 -1.61049 -1.09947 0
M  V30 4124 O 396.97 -0.872821 -1.75381 0
M  V30 4125 H 395.55 -0.737697 0.117525 0
M  V30 4126 H 398.212 -1.68359 0.981895 0
M  V30 4127 H 397.308 -3.09547 0.398353 0
M  V30 4128 N 397.609 -0.515225 -1.4894 0
M  V30 4129 C 398.542 0.302518 -2.26186 0
M  V30 4130 C 399.52 0.957895 -1.31389 0
M  V30 4131 O 400.704 0.985198 -1.60705 0
M  V30 4132 C 397.831 1.42719 -3.07163 0
M  V30 4133 C 396.877 0.884736 -4.17223 0
M  V30 4134 S 397.71 -0.235767 -5.34981 0
M  V30 4135 C 398.866 0.891731 -6.19515 0
M  V30 4136 H 399.099 -0.353076 -2.95196 0
M  V30 4137 H 396.632 -0.300753 -1.51443 0
M  V30 4138 H 398.59 2.07152 -3.54398 0
M  V30 4139 H 397.251 2.05445 -2.37595 0
M  V30 4140 H 396.444 1.72801 -4.73451 0
M  V30 4141 H 396.046 0.317362 -3.72651 0
M  V30 4142 H 398.338 1.79377 -6.53322 0
M  V30 4143 H 399.281 0.367751 -7.07144 0
M  V30 4144 H 399.689 1.16548 -5.52338 0
M  V30 4145 N 399.087 1.5561 -0.249682 0
M  V30 4146 C 399.997 2.25143 0.659375 0
M  V30 4147 C 401.013 1.2685 1.19101 0
M  V30 4148 O 402.189 1.59732 1.22669 0
M  V30 4149 C 399.254 2.93945 1.8384 0
M  V30 4150 C 398.315 4.07655 1.34596 0
M  V30 4151 C 397.548 4.73167 2.46878 0
M  V30 4152 O 397.771 4.37768 3.65671 0
M  V30 4153 O 396.705 5.61623 2.16478 0
M  V30 4154 H 400.531 3.03545 0.0968698 0
M  V30 4155 H 398.116 1.49389 -0.018074 0
M  V30 4156 H 399.998 3.37271 2.52638 0
M  V30 4157 H 398.673 2.18481 2.38847 0
M  V30 4158 H 397.58 3.68839 0.625174 0
M  V30 4159 H 398.913 4.84946 0.841941 0
M  V30 4160 N 400.565 -0.0233959 1.57583 0
M  V30 4161 C 401.814 -0.712133 1.8871 0
M  V30 4162 C 402.127 -1.76217 0.848944 0
M  V30 4163 O 403.333 -2.50389 1.04964 0
M  V30 4164 C 401.789 -1.3177 3.3491 0
M  V30 4165 C 401.397 -0.303715 4.46969 0
M  V30 4166 C 403.141 -1.98598 3.75179 0
M  V30 4167 C 401.048 -0.917945 5.84233 0
M  V30 4168 H 399.978 -0.269735 0.704101 0
M  V30 4169 H 402.629 0.0333114 1.8347 0
M  V30 4170 H 401.011 -2.11304 3.34913 0
M  V30 4171 H 402.185 0.465325 4.58445 0
M  V30 4172 H 400.5 0.2628 4.1557 0
M  V30 4173 H 403.097 -2.45416 4.75053 0
M  V30 4174 H 403.44 -2.80659 3.07468 0
M  V30 4175 H 403.973 -1.25831 3.77374 0
M  V30 4176 H 400.712 -0.136633 6.55358 0
M  V30 4177 H 400.232 -1.65669 5.76467 0
M  V30 4178 H 401.911 -1.4236 6.31144 0
M  V30 4179 N 402.043 -1.548 -0.295768 0
M  V30 4180 C 403.292 -1.73538 -1.02798 0
M  V30 4181 C 403.605 -0.531159 -1.8825 0
M  V30 4182 O 404.811 -0.600458 -2.64777 0
M  V30 4183 C 403.267 -3.07051 -1.87744 0
M  V30 4184 C 402.875 -4.34968 -1.07269 0
M  V30 4185 C 404.619 -3.35146 -2.60533 0
M  V30 4186 C 402.526 -5.5953 -1.91521 0
M  V30 4187 H 401.456 -0.646794 -0.387522 0
M  V30 4188 H 404.107 -1.81278 -0.284718 0
M  V30 4189 H 402.489 -2.93289 -2.66078 0
M  V30 4190 H 403.663 -4.5958 -0.335117 0
M  V30 4191 H 401.978 -4.13847 -0.460384 0
M  V30 4192 H 404.575 -4.2541 -3.23929 0
M  V30 4193 H 404.918 -2.54255 -3.29636 0
M  V30 4194 H 405.451 -3.49902 -1.89244 0
M  V30 4195 H 402.19 -6.43103 -1.26878 0
M  V30 4196 H 401.71 -5.39096 -2.62937 0
M  V30 4197 H 403.389 -5.96982 -2.49442 0
M  V30 4198 N 403.521 0.559213 -1.47345 0
M  V30 4199 C 404.746 1.34676 -1.57725 0
M  V30 4200 C 405.171 1.86723 -0.227164 0
M  V30 4201 O 404.529 1.6286 0.796642 0
M  V30 4202 C 404.577 2.49399 -2.60447 0
M  V30 4203 O 403.681 3.51567 -2.15578 0
M  V30 4204 H 403.022 0.400115 -0.52991 0
M  V30 4205 H 405.552 0.676009 -1.93109 0
M  V30 4206 H 405.562 2.95996 -2.80803 0
M  V30 4207 H 404.237 2.10873 -3.58477 0
M  V30 4208 H 402.814 3.11289 -2.05313 0
M  V30 4209 N 404.999 1.35443 0.805782 0
M  V30 4210 C 406.247 1.28507 1.55982 0
M  V30 4211 C 406.568 -0.140046 1.94496 0
M  V30 4212 O 405.838 -1.07666 1.63661 0
M  V30 4213 H 404.418 0.472676 0.578434 0
M  V30 4214 H 407.08 1.69555 0.961098 0
M  V30 4215 H 406.176 1.90148 2.47488 0
M  V30 4216 N 406.477 -1.02803 1.19454 0
M  V30 4217 C 407.702 -1.80378 1.02364 0
M  V30 4218 C 408.127 -1.83282 -0.423007 0
M  V30 4219 O 407.485 -1.25945 -1.30413 0
M  V30 4220 C 407.533 -3.23248 1.59821 0
M  V30 4221 O 406.637 -4.04 0.828105 0
M  V30 4222 H 405.978 -0.556799 0.361761 0
M  V30 4223 H 408.508 -1.29385 1.58495 0
M  V30 4224 H 408.518 -3.73994 1.63073 0
M  V30 4225 H 407.193 -3.2045 2.65113 0
M  V30 4226 H 405.77 -3.62635 0.86891 0
M  V30 4227 N 407.956 -0.998596 -1.21925 0
M  V30 4228 C 408.904 -0.546641 -2.26085 0
M  V30 4229 C 409.898 0.405576 -1.64473 0
M  V30 4230 O 411.104 0.277471 -1.77849 0
M  V30 4231 H 407.479 -0.158403 -0.735127 0
M  V30 4232 H 409.45 -1.43645 -2.61551 0
M  V30 4233 C 408.199 0.117388 -3.47502 0
M  V30 4234 H 407.522 -0.606277 -3.95176 0
M  V30 4235 H 408.962 0.396993 -4.22137 0
M  V30 4236 C 407.421 1.35455 -3.0847 0
M  V30 4237 O 407.951 2.44944 -3.18379 0
M  V30 4238 N 406.157 1.23191 -2.63196 0
M  V30 4239 H 405.704 0.341006 -2.55333 0
M  V30 4240 H 405.662 2.06071 -2.37449 0
M  V30 4241 N 409.434 1.37368 -0.772513 0
M  V30 4242 C 410.68 1.99969 -0.337681 0
M  V30 4243 C 411.013 1.61184 1.08321 0
M  V30 4244 O 410.288 0.858395 1.74533 0
M  V30 4245 C 410.571 3.56858 -0.482121 0
M  V30 4246 C 410.424 4.0555 -1.94549 0
M  V30 4247 C 411.743 4.39955 0.113143 0
M  V30 4248 H 408.862 0.726464 -0.124171 0
M  V30 4249 H 411.504 1.63034 -0.975699 0
M  V30 4250 H 409.654 3.88452 0.0610361 0
M  V30 4251 H 411.326 3.84518 -2.54841 0
M  V30 4252 H 409.569 3.57715 -2.45403 0
M  V30 4253 H 410.24 5.14587 -1.9976 0
M  V30 4254 H 412.716 4.14623 -0.35031 0
M  V30 4255 H 411.592 5.48897 -0.0180514 0
M  V30 4256 H 411.853 4.25403 1.20354 0
M  V30 4257 N 410.912 0.523116 1.48665 0
M  V30 4258 C 412.14 -0.0096312 2.06898 0
M  V30 4259 C 412.555 -1.28784 1.38059 0
M  V30 4260 O 411.912 -1.76453 0.465893 0
M  V30 4261 C 411.963 -0.244386 3.60673 0
M  V30 4262 O 411.684 0.983172 4.26925 0
M  V30 4263 C 413.185 -0.818289 4.35682 0
M  V30 4264 H 410.405 0.0304161 0.67031 0
M  V30 4265 H 412.949 0.726799 1.91149 0
M  V30 4266 H 411.104 -0.930847 3.76051 0
M  V30 4267 H 411.518 0.759653 5.1897 0
M  V30 4268 H 412.992 -0.93201 5.44075 0
M  V30 4269 H 413.469 -1.82153 3.99646 0
M  V30 4270 H 414.075 -0.168609 4.24966 0
M  V30 4271 N 412.39 -1.55475 0.257931 0
M  V30 4272 C 413.806 -1.59307 -0.0966563 0
M  V30 4273 C 414.006 -1.27514 -1.5602 0
M  V30 4274 O 413.062 -1.02774 -2.30637 0
M  V30 4275 C 414.375 -2.99552 0.262481 0
M  V30 4276 C 415.923 -3.1231 0.207683 0
M  V30 4277 C 416.398 -4.54793 0.541012 0
M  V30 4278 N 417.889 -4.6058 0.491921 0
M  V30 4279 C 418.624 -5.68825 0.722857 0
M  V30 4280 N 418.12 -6.85287 1.0175 0
M  V30 4281 N 419.913 -5.58296 0.652815 0
M  V30 4282 H 412.064 -1.74409 1.21224 0
M  V30 4283 H 414.327 -0.812424 0.48854 0
M  V30 4284 H 414.033 -3.27593 1.27967 0
M  V30 4285 H 413.907 -3.75019 -0.40508 0
M  V30 4286 H 416.294 -2.84044 -0.800195 0
M  V30 4287 H 416.375 -2.39095 0.909255 0
M  V30 4288 H 416.019 -4.83783 1.5465 0
M  V30 4289 H 415.949 -5.26285 -0.18216 0
M  V30 4290 H 418.44 -3.7691 0.273366 0
M  V30 4291 H 418.753 -7.63725 1.18084 0
M  V30 4292 H 417.098 -6.86945 1.05509 0
M  V30 4293 H 420.289 -4.66189 0.422592 0
M  V30 4294 H 420.462 -6.42582 0.836182 0
M  V30 4295 N 413.868 0.0150385 -1.57593 0
M  V30 4296 C 415.117 0.702115 -1.89085 0
M  V30 4297 C 415.43 1.75764 -0.858277 0
M  V30 4298 O 416.636 2.49829 -1.0629 0
M  V30 4299 C 415.092 1.29992 -3.35604 0
M  V30 4300 C 414.7 0.280007 -4.47124 0
M  V30 4301 C 416.444 1.96606 -3.76227 0
M  V30 4302 C 414.351 0.886949 -5.84711 0
M  V30 4303 H 413.281 0.265997 -0.705522 0
M  V30 4304 H 415.932 -0.0430408 -1.8345 0
M  V30 4305 H 414.314 2.09525 -3.36029 0
M  V30 4306 H 415.488 -0.489631 -4.58191 0
M  V30 4307 H 413.803 -0.284835 -4.15425 0
M  V30 4308 H 416.4 2.42893 -4.76347 0
M  V30 4309 H 416.743 2.79024 -3.08952 0
M  V30 4310 H 417.276 1.23828 -3.78036 0
M  V30 4311 H 414.015 0.101876 -6.55421 0
M  V30 4312 H 413.535 1.6261 -5.77337 0
M  V30 4313 H 415.214 1.39011 -6.3189 0
M  V30 4314 N 415.346 1.54954 0.287554 0
M  V30 4315 C 416.256 1.8991 1.37736 0
M  V30 4316 C 417.272 0.794701 1.54792 0
M  V30 4317 O 418.448 1.09243 1.69198 0
M  V30 4318 C 415.513 2.15108 2.71899 0
M  V30 4319 C 414.574 3.38752 2.63715 0
M  V30 4320 C 413.807 3.62739 3.91479 0
M  V30 4321 O 414.03 2.89492 4.91478 0
M  V30 4322 O 412.964 4.56267 3.92561 0
M  V30 4323 H 416.79 2.82652 1.11092 0
M  V30 4324 H 414.375 1.41315 0.484807 0
M  V30 4325 H 416.257 2.32806 3.51254 0
M  V30 4326 H 414.932 1.25551 2.9836 0
M  V30 4327 H 413.839 3.26405 1.82786 0
M  V30 4328 H 415.172 4.28483 2.42205 0
M  V30 4329 N 416.824 -0.551391 1.4764 0
M  V30 4330 C 417.734 -1.68525 1.63207 0
M  V30 4331 C 418.75 -1.6621 0.514815 0
M  V30 4332 O 419.926 -1.85551 0.783113 0
M  V30 4333 C 416.991 -3.05025 1.64805 0
M  V30 4334 C 416.052 -3.18362 2.88 0
M  V30 4335 C 415.285 -4.4835 2.89513 0
M  V30 4336 O 415.508 -5.34163 2.00065 0
M  V30 4337 O 414.442 -4.65602 3.81443 0
M  V30 4338 H 418.268 -1.58333 2.59161 0
M  V30 4339 H 415.853 -0.722063 1.30792 0
M  V30 4340 H 417.735 -3.86245 1.68502 0
M  V30 4341 H 416.41 -3.15587 0.720197 0
M  V30 4342 H 415.317 -2.36518 2.89845 0
M  V30 4343 H 416.65 -3.12707 3.80099 0
M  V30 4344 N 418.302 -1.35869 -0.798587 0
M  V30 4345 C 419.579 -1.20145 -1.54352 0
M  V30 4346 C 419.959 0.216161 -2.0999 0
M  V30 4347 O 419.307 1.22068 -1.93162 0
M  V30 4348 C 419.517 -2.27602 -2.64572 0
M  V30 4349 C 420.865 -2.63811 -3.32699 0
M  V30 4350 O 421.889 -2.26576 -2.74849 0
M  V30 4351 O 420.748 -3.27866 -4.37226 0
M  V30 4352 H 417.842 -0.467248 -0.682355 0
M  V30 4353 H 420.388 -1.47574 -0.837859 0
M  V30 4354 H 419.16 -3.2265 -2.21388 0
M  V30 4355 H 418.783 -2.01488 -3.42766 0
M  V30 4356 N 419.78 1.02168 -1.19998 0
M  V30 4357 C 420.743 2.08765 -0.94604 0
M  V30 4358 C 421.743 1.60618 0.0763846 0
M  V30 4359 O 422.933 1.73472 -0.159135 0
M  V30 4360 C 420.065 3.38262 -0.423255 0
M  V30 4361 H 421.258 2.32726 -1.89153 0
M  V30 4362 H 418.811 1.1889 -1.01464 0
M  V30 4363 H 419.546 3.19974 0.527938 0
M  V30 4364 H 419.331 3.74532 -1.16053 0
M  V30 4365 H 420.821 4.16759 -0.264911 0
M  V30 4366 N 421.258 1.00505 1.21394 0
M  V30 4367 C 422.206 0.558623 2.25792 0
M  V30 4368 C 423.2 -0.396848 1.64686 0
M  V30 4369 O 424.406 -0.268035 1.77993 0
M  V30 4370 H 420.781 0.1623 0.734277 0
M  V30 4371 H 422.752 1.4503 2.60785 0
M  V30 4372 C 421.501 -0.0989574 3.47559 0
M  V30 4373 H 420.824 0.627225 3.94849 0
M  V30 4374 H 422.264 -0.3746 4.22342 0
M  V30 4375 C 420.723 -1.33817 3.09184 0
M  V30 4376 O 421.253 -2.43252 3.19674 0
M  V30 4377 N 419.459 -1.21793 2.63846 0
M  V30 4378 H 419.006 -0.32746 2.5551 0
M  V30 4379 H 418.964 -2.04809 2.38539 0
M  V30 4380 N 422.737 -1.36956 0.779787 0
M  V30 4381 C 423.985 -1.99097 0.347079 0
M  V30 4382 C 424.306 -1.62206 -1.08232 0
M  V30 4383 O 423.576 -0.891373 -1.74446 0
M  V30 4384 H 422.156 -0.736409 0.125342 0
M  V30 4385 H 424.818 -1.67308 0.999696 0
M  V30 4386 H 423.914 -3.09107 0.431162 0
M  V30 4387 N 424.215 -0.530993 -1.48385 0
M  V30 4388 C 425.631 -0.188919 -1.58478 0
M  V30 4389 C 425.831 1.30786 -1.53288 0
M  V30 4390 O 424.887 2.08619 -1.42248 0
M  V30 4391 C 426.2 -0.792343 -2.90073 0
M  V30 4392 C 427.748 -0.76117 -3.03604 0
M  V30 4393 C 428.223 -1.34319 -4.37861 0
M  V30 4394 N 429.714 -1.3052 -4.44431 0
M  V30 4395 C 430.449 -1.72543 -5.46824 0
M  V30 4396 N 429.945 -2.22299 -6.56167 0
M  V30 4397 N 431.738 -1.63773 -5.37712 0
M  V30 4398 H 423.889 -1.50377 -1.50002 0
M  V30 4399 H 426.152 -0.625559 -0.712306 0
M  V30 4400 H 425.858 -1.84323 -2.99529 0
M  V30 4401 H 425.732 -0.270026 -3.76232 0
M  V30 4402 H 428.119 0.280957 -2.93759 0
M  V30 4403 H 428.2 -1.32097 -2.19053 0
M  V30 4404 H 427.844 -2.38425 -4.4846 0
M  V30 4405 H 427.774 -0.759064 -5.21101 0
M  V30 4406 H 430.265 -0.940973 -3.65997 0
M  V30 4407 H 430.578 -2.52356 -7.30436 0
M  V30 4408 H 428.923 -2.26293 -6.57127 0
M  V30 4409 H 432.114 -1.24698 -4.51185 0
M  V30 4410 H 432.287 -1.96844 -6.17379 0
M  V30 4411 N 425.693 1.55336 -0.266172 0
M  V30 4412 C 426.939 1.99692 0.353681 0
M  V30 4413 C 427.272 1.1543 1.56172 0
M  V30 4414 O 426.547 0.222218 1.93226 0
M  V30 4415 C 426.83 3.52316 0.74466 0
M  V30 4416 C 426.683 4.47337 -0.470101 0
M  V30 4417 C 428.002 4.10588 1.58447 0
M  V30 4418 H 425.121 0.725961 0.12708 0
M  V30 4419 H 427.763 1.86336 -0.371333 0
M  V30 4420 H 425.913 3.63829 1.36239 0
M  V30 4421 H 427.585 4.4778 -1.10864 0
M  V30 4422 H 425.828 4.19364 -1.10978 0
M  V30 4423 H 426.499 5.51788 -0.15291 0
M  V30 4424 H 428.975 4.02297 1.06286 0
M  V30 4425 H 427.851 5.17607 1.82686 0
M  V30 4426 H 428.112 3.60253 2.56262 0
M  V30 4427 N 427.171 -0.0066808 1.57599 0
M  V30 4428 C 428.103 -1.02827 2.04839 0
M  V30 4429 C 429.116 -1.31108 0.965113 0
M  V30 4430 O 430.305 -1.28202 1.24203 0
M  V30 4431 C 427.405 -2.36464 2.42771 0
M  V30 4432 C 426.578 -2.27219 3.73751 0
M  V30 4433 C 425.637 -3.43489 3.98625 0
M  V30 4434 O 424.663 -3.21976 4.69382 0
M  V30 4435 N 425.865 -4.66116 3.46 0
M  V30 4436 H 428.63 -0.625455 2.93101 0
M  V30 4437 H 426.191 -0.194198 1.60731 0
M  V30 4438 H 428.183 -3.13008 2.56531 0
M  V30 4439 H 426.753 -2.68512 1.60063 0
M  V30 4440 H 425.973 -1.35629 3.70133 0
M  V30 4441 H 427.261 -2.18208 4.59633 0
M  V30 4442 H 426.659 -4.86493 2.88688 0
M  V30 4443 H 425.216 -5.39949 3.65101 0
M  V30 4444 N 428.649 -1.55105 -0.279332 0
M  V30 4445 C 429.612 -1.86783 -1.32834 0
M  V30 4446 C 430.612 -0.74199 -1.42657 0
M  V30 4447 O 431.802 -1.0102 -1.41918 0
M  V30 4448 C 428.934 -2.06746 -2.71052 0
M  V30 4449 H 430.127 -2.8055 -1.05979 0
M  V30 4450 H 427.68 -1.47499 -0.517087 0
M  V30 4451 H 428.415 -1.15339 -3.03097 0
M  V30 4452 H 428.2 -2.88711 -2.65309 0
M  V30 4453 H 429.69 -2.32549 -3.46858 0
M  V30 4454 N 430.127 0.543554 -1.4793 0
M  V30 4455 C 431.373 1.30201 -1.55485 0
M  V30 4456 C 431.706 1.92925 -0.222201 0
M  V30 4457 O 430.981 1.78586 0.77053 0
M  V30 4458 C 431.264 2.40174 -2.68307 0
M  V30 4459 C 431.117 1.8223 -4.11233 0
M  V30 4460 C 432.436 3.42024 -2.76961 0
M  V30 4461 H 429.555 0.472036 -0.565996 0
M  V30 4462 H 432.197 0.606914 -1.80046 0
M  V30 4463 H 430.347 2.99463 -2.47495 0
M  V30 4464 H 432.019 1.27096 -4.43446 0
M  V30 4465 H 430.262 1.12832 -4.18869 0
M  V30 4466 H 430.933 2.61793 -4.85972 0
M  V30 4467 H 433.409 2.92672 -2.95774 0
M  V30 4468 H 432.285 4.16383 -3.57654 0
M  V30 4469 H 432.546 4.0173 -1.84568 0
M  V30 4470 N 431.605 1.3629 0.791371 0
M  V30 4471 C 432.851 1.30605 1.55146 0
M  V30 4472 C 433.184 -0.115042 1.93859 0
M  V30 4473 O 432.459 -1.06798 1.62556 0
M  V30 4474 C 432.742 2.22692 2.82985 0
M  V30 4475 C 432.595 3.73489 2.50651 0
M  V30 4476 C 433.914 2.13588 3.84796 0
M  V30 4477 H 431.033 0.475761 0.562868 0
M  V30 4478 H 433.675 1.66825 0.909358 0
M  V30 4479 H 431.825 1.91933 3.37778 0
M  V30 4480 H 433.497 4.14758 2.01924 0
M  V30 4481 H 431.74 3.93021 1.83622 0
M  V30 4482 H 432.411 4.3333 3.41949 0
M  V30 4483 H 434.887 2.40659 3.39445 0
M  V30 4484 H 433.763 2.80195 4.71998 0
M  V30 4485 H 434.024 1.12256 4.27611 0
M  V30 4486 N 433.083 -1.0153 1.20538 0
M  V30 4487 C 434.046 -2.0826 0.957098 0
M  V30 4488 C 435.046 -1.60657 -0.0678655 0
M  V30 4489 O 436.236 -1.73385 0.168332 0
M  V30 4490 C 433.368 -3.38033 0.441188 0
M  V30 4491 H 434.561 -2.31719 1.90384 0
M  V30 4492 H 432.114 -1.1835 1.02093 0
M  V30 4493 H 432.849 -3.20249 -0.510961 0
M  V30 4494 H 432.634 -3.73911 1.18038 0
M  V30 4495 H 434.124 -4.16613 0.287009 0
M  V30 4496 N 434.561 -1.01147 -1.20859 0
M  V30 4497 C 435.494 -0.522108 -2.22147 0
M  V30 4498 C 436.472 0.427686 -1.56874 0
M  V30 4499 O 437.656 0.34889 -1.85243 0
M  V30 4500 C 434.783 0.240819 -3.37843 0
M  V30 4501 C 433.829 -0.657752 -4.21398 0
M  V30 4502 S 434.662 -2.12393 -4.91578 0
M  V30 4503 C 435.818 -1.37102 -6.10699 0
M  V30 4504 H 436.051 -1.38035 -2.63313 0
M  V30 4505 H 433.584 -0.819941 -1.30829 0
M  V30 4506 H 435.542 0.674908 -4.04914 0
M  V30 4507 H 434.203 1.07457 -2.95147 0
M  V30 4508 H 433.396 -0.0697456 -5.03952 0
M  V30 4509 H 432.998 -1.0294 -3.59555 0
M  V30 4510 H 435.29 -0.648315 -6.74391 0
M  V30 4511 H 436.233 -2.17252 -6.73949 0
M  V30 4512 H 436.641 -0.876154 -5.57659 0
M  V30 4513 N 436.039 1.36541 -0.78704 0
M  V30 4514 C 437.267 2.03561 -0.370199 0
M  V30 4515 C 437.682 1.59347 1.01263 0
M  V30 4516 O 437.039 0.781781 1.64907 0
M  V30 4517 C 437.09 3.59033 -0.421614 0
M  V30 4518 O 436.811 4.01634 -1.7499 0
M  V30 4519 C 438.312 4.433 0.00489763 0
M  V30 4520 H 435.532 0.653346 -0.152904 0
M  V30 4521 H 438.076 1.74566 -1.06522 0
M  V30 4522 H 436.231 3.86746 0.224971 0
M  V30 4523 H 436.645 4.96217 -1.69909 0
M  V30 4524 H 438.119 5.51939 -0.0822184 0
M  V30 4525 H 438.596 4.26285 1.05723 0
M  V30 4526 H 439.202 4.20843 -0.614085 0
M  V30 4527 N 437.518 0.538854 1.48102 0
M  V30 4528 C 438.929 0.100679 1.86428 0
M  V30 4529 C 439.28 -1.32447 1.44749 0
M  V30 4530 O 438.405 -1.99339 0.842199 0
M  V30 4531 C 439 0.175933 3.38343 0
M  V30 4532 C 437.559 -0.207098 3.7583 0
M  V30 4533 C 436.706 0.531741 2.72154 0
M  V30 4534 H 439.657 0.749614 1.3988 0
M  V30 4535 H 439.678 -0.610144 3.75576 0
M  V30 4536 H 439.19 1.21328 3.68648 0
M  V30 4537 H 437.291 -1.24626 3.5114 0
M  V30 4538 H 437.404 0.138687 4.78899 0
M  V30 4539 H 435.768 -0.0230462 2.5469 0
M  V30 4540 H 436.551 1.56989 3.05302 0
M  V30 4541 N 438.996 -1.55193 0.274407 0
M  V30 4542 C 439.944 -2.23924 -0.629362 0
M  V30 4543 C 440.938 -1.23602 -1.1584 0
M  V30 4544 O 442.144 -1.41535 -1.11211 0
M  V30 4545 H 438.519 -0.718637 -0.221507 0
M  V30 4546 H 440.49 -2.98388 -0.0268322 0
M  V30 4547 C 439.239 -2.97329 -1.80252 0
M  V30 4548 H 438.562 -3.74313 -1.40462 0
M  V30 4549 H 440.002 -3.48743 -2.41152 0
M  V30 4550 C 438.461 -2.0276 -2.69054 0
M  V30 4551 O 438.991 -1.57836 -3.69392 0
M  V30 4552 N 437.197 -1.69275 -2.36208 0
M  V30 4553 H 436.744 -2.06004 -1.54661 0
M  V30 4554 H 436.702 -1.06271 -2.95895 0
M  V30 4555 N 440.474 -0.00167713 -1.576 0
M  V30 4556 C 441.722 0.681471 -1.90264 0
M  V30 4557 C 442.043 1.7422 -0.875924 0
M  V30 4558 O 441.313 1.95709 0.0864412 0
M  V30 4559 H 439.893 0.254696 -0.702239 0
M  V30 4560 H 442.555 -0.0429996 -1.94853 0
M  V30 4561 H 441.651 1.15166 -2.90075 0
M  V30 4562 N 441.952 1.55251 0.271103 0
M  V30 4563 C 442.862 1.9136 1.35714 0
M  V30 4564 C 443.878 0.811075 1.5394 0
M  V30 4565 O 445.054 1.11031 1.6803 0
M  V30 4566 C 442.119 2.1798 2.69603 0
M  V30 4567 C 441.18 3.4153 2.60107 0
M  V30 4568 C 440.413 3.66871 3.8761 0
M  V30 4569 O 440.636 2.94689 4.8838 0
M  V30 4570 O 439.57 4.60405 3.87699 0
M  V30 4571 H 443.396 2.83815 1.08088 0
M  V30 4572 H 440.981 1.41821 0.469792 0
M  V30 4573 H 442.863 2.36518 3.48765 0
M  V30 4574 H 441.538 1.28708 2.97012 0
M  V30 4575 H 440.445 3.28325 1.79314 0
M  V30 4576 H 441.778 4.31027 2.37647 0
M  V30 4577 N 443.43 -0.535701 1.48216 0
M  V30 4578 C 444.363 -1.65726 1.56876 0
M  V30 4579 C 445.341 -1.57094 0.419542 0
M  V30 4580 O 446.525 -1.77648 0.630352 0
M  V30 4581 C 443.652 -3.04096 1.49142 0
M  V30 4582 C 442.698 -3.31105 2.68834 0
M  V30 4583 S 443.531 -3.18001 4.30854 0
M  V30 4584 C 444.687 -4.58828 4.25709 0
M  V30 4585 H 444.92 -1.58129 2.51759 0
M  V30 4586 H 442.453 -0.718218 1.36678 0
M  V30 4587 H 444.411 -3.839 1.45366 0
M  V30 4588 H 443.072 -3.09139 0.556067 0
M  V30 4589 H 442.265 -4.32033 2.59545 0
M  V30 4590 H 441.867 -2.58961 2.69843 0
M  V30 4591 H 444.159 -5.5023 3.95289 0
M  V30 4592 H 445.102 -4.73172 5.26796 0
M  V30 4593 H 445.51 -4.37883 3.56257 0
M  V30 4594 N 444.908 -1.36708 -0.784132 0
M  V30 4595 C 446.324 -1.17237 -1.08294 0
M  V30 4596 C 446.524 -5.93947e-05 -2.015 0
M  V30 4597 O 445.58 0.663686 -2.43622 0
M  V30 4598 C 446.893 -2.48557 -1.69233 0
M  V30 4599 C 448.441 -2.54968 -1.8155 0
M  V30 4600 C 448.916 -3.86388 -2.45904 0
M  V30 4601 N 450.407 -3.87762 -2.53367 0
M  V30 4602 C 451.142 -4.86191 -3.03983 0
M  V30 4603 N 450.638 -5.95015 -3.54866 0
M  V30 4604 N 452.431 -4.73606 -3.02743 0
M  V30 4605 H 444.582 -2.11758 -0.16501 0
M  V30 4606 H 446.845 -0.93822 -0.135822 0
M  V30 4607 H 446.551 -3.34638 -1.08215 0
M  V30 4608 H 446.425 -2.64748 -2.68679 0
M  V30 4609 H 448.812 -1.69302 -2.41704 0
M  V30 4610 H 448.893 -2.42672 -0.80895 0
M  V30 4611 H 448.537 -4.72462 -1.86392 0
M  V30 4612 H 448.467 -3.95982 -3.4714 0
M  V30 4613 H 450.958 -3.09145 -2.17343 0
M  V30 4614 H 451.271 -6.66086 -3.91854 0
M  V30 4615 H 449.616 -5.98676 -3.53003 0
M  V30 4616 H 452.807 -3.87717 -2.62284 0
M  V30 4617 H 452.98 -5.50473 -3.41881 0
M  V30 4618 N 446.386 1.0089 -1.21074 0
M  V30 4619 C 447.635 1.74019 -1.01981 0
M  V30 4620 C 447.948 1.90408 0.447665 0
M  V30 4621 O 449.154 2.60707 0.757906 0
M  V30 4622 C 447.61 3.13026 -1.77603 0
M  V30 4623 C 447.218 3.04623 -3.28495 0
M  V30 4624 C 448.962 3.90312 -1.66904 0
M  V30 4625 C 446.869 4.38685 -3.96623 0
M  V30 4626 H 445.799 0.652422 -0.377971 0
M  V30 4627 H 448.45 1.12755 -1.44771 0
M  V30 4628 H 446.832 3.74878 -1.27604 0
M  V30 4629 H 448.006 2.52032 -3.85767 0
M  V30 4630 H 446.321 2.40827 -3.39693 0
M  V30 4631 H 448.918 4.8951 -2.15138 0
M  V30 4632 H 449.261 4.11558 -0.62658 0
M  V30 4633 H 449.794 3.35104 -2.14359 0
M  V30 4634 H 446.533 4.22641 -5.01054 0
M  V30 4635 H 446.053 4.91252 -3.4414 0
M  V30 4636 H 447.732 5.075 -4.01314 0
M  V30 4637 N 447.864 1.01787 1.20321 0
M  V30 4638 C 448.774 0.598898 2.26827 0
M  V30 4639 C 449.79 -0.36418 1.70146 0
M  V30 4640 O 450.966 -0.224812 2.00141 0
M  V30 4641 C 448.031 -0.0549769 3.46656 0
M  V30 4642 C 447.092 0.954205 4.18561 0
M  V30 4643 C 446.325 0.331439 5.3267 0
M  V30 4644 O 446.548 -0.86851 5.63749 0
M  V30 4645 O 445.482 1.0488 5.92692 0
M  V30 4646 H 449.308 1.48562 2.64883 0
M  V30 4647 H 446.893 0.787434 1.26964 0
M  V30 4648 H 448.775 -0.420102 4.19301 0
M  V30 4649 H 447.45 -0.915876 3.10473 0
M  V30 4650 H 446.357 1.37072 3.48083 0
M  V30 4651 H 447.69 1.78511 4.58688 0
M  V30 4652 N 449.342 -1.36122 0.79427 0
M  V30 4653 C 450.57 -2.03362 0.380989 0
M  V30 4654 C 450.985 -1.59881 -1.00416 0
M  V30 4655 O 450.342 -0.790515 -1.6449 0
M  V30 4656 C 450.393 -3.58804 0.440649 0
M  V30 4657 O 450.114 -4.007 1.77118 0
M  V30 4658 C 451.615 -4.43296 0.0186117 0
M  V30 4659 H 448.835 -0.652526 0.156367 0
M  V30 4660 H 451.379 -1.73998 1.07447 0
M  V30 4661 H 449.534 -3.8686 -0.204458 0
M  V30 4662 H 449.948 -4.95309 1.72538 0
M  V30 4663 H 451.422 -5.51887 0.111488 0
M  V30 4664 H 451.899 -4.2684 -1.03461 0
M  V30 4665 H 452.505 -4.20512 0.636395 0
M  V30 4666 N 450.82 -0.546701 -1.47814 0
M  V30 4667 C 452.097 0.0464413 -1.95545 0
M  V30 4668 C 452.477 1.4962 -1.48919 0
M  V30 4669 O 451.825 2.16752 -0.723232 0
M  V30 4670 C 452.035 -0.0881298 -3.48889 0
M  V30 4671 C 453.383 0.0626059 -4.24554 0
M  V30 4672 O 454.407 -0.0151555 -3.56197 0
M  V30 4673 O 453.266 0.228071 -5.46024 0
M  V30 4674 H 450.36 0.0700004 -0.824032 0
M  V30 4675 H 452.906 -0.612482 -1.58262 0
M  V30 4676 H 451.678 -1.09737 -3.75597 0
M  V30 4677 H 451.301 0.608886 -3.9291 0
M  V30 4678 N 452.299 1.55045 -0.282633 0
M  V30 4679 C 453.546 1.9976 0.33199 0
M  V30 4680 C 453.874 1.17105 1.55295 0
M  V30 4681 O 453.129 0.230599 1.94337 0
M  V30 4682 C 453.428 3.49422 0.750938 0
M  V30 4683 C 453.094 4.4941 -0.366228 0
M  V30 4684 C 451.756 4.76471 -0.672964 0
M  V30 4685 C 454.108 5.09054 -1.11864 0
M  V30 4686 C 451.436 5.60442 -1.73556 0
M  V30 4687 C 453.788 5.9418 -2.17102 0
M  V30 4688 C 452.452 6.19558 -2.48402 0
M  V30 4689 H 451.722 0.730974 0.121484 0
M  V30 4690 H 454.369 1.8732 -0.39791 0
M  V30 4691 H 452.674 3.59377 1.56063 0
M  V30 4692 H 454.371 3.81432 1.23736 0
M  V30 4693 H 450.961 4.2844 -0.117041 0
M  V30 4694 H 455.145 4.88165 -0.894925 0
M  V30 4695 H 450.401 5.78349 -1.983 0
M  V30 4696 H 454.575 6.39427 -2.75873 0
M  V30 4697 H 452.202 6.84417 -3.30874 0
M  V30 4698 N 453.777 0.010035 1.57597 0
M  V30 4699 C 455.023 -0.673697 1.91283 0
M  V30 4700 C 455.356 -1.72863 0.884979 0
M  V30 4701 O 454.631 -1.94268 -0.0949487 0
M  V30 4702 C 454.914 -1.30766 3.35518 0
M  V30 4703 C 454.767 -0.263578 4.49027 0
M  V30 4704 C 456.086 -2.23105 3.79358 0
M  V30 4705 H 453.205 -0.243439 0.695634 0
M  V30 4706 H 455.847 0.0633864 1.89894 0
M  V30 4707 H 453.997 -1.93588 3.36832 0
M  V30 4708 H 455.669 0.365738 4.59848 0
M  V30 4709 H 453.912 0.413077 4.31829 0
M  V30 4710 H 454.583 -0.746398 5.4693 0
M  V30 4711 H 457.059 -1.70289 3.79659 0
M  V30 4712 H 455.935 -2.64424 4.81011 0
M  V30 4713 H 456.196 -3.11433 3.13787 0
M  V30 4714 N 455.255 -1.55392 -0.262866 0
M  V30 4715 C 456.502 -1.76476 -0.993109 0
M  V30 4716 C 456.83 -0.571479 -1.85915 0
M  V30 4717 O 456.085 0.445733 -1.90556 0
M  V30 4718 C 456.384 -3.02889 -1.89718 0
M  V30 4719 C 456.05 -4.34974 -1.18781 0
M  V30 4720 C 454.712 -4.7087 -0.991699 0
M  V30 4721 C 457.064 -5.16695 -0.683798 0
M  V30 4722 C 454.392 -5.86036 -0.279024 0
M  V30 4723 C 456.744 -6.32598 0.0153327 0
M  V30 4724 C 455.408 -6.67127 0.223062 0
M  V30 4725 H 454.678 -0.64577 -0.363404 0
M  V30 4726 H 457.325 -1.89664 -0.264525 0
M  V30 4727 H 455.63 -2.84644 -2.6923 0
M  V30 4728 H 457.327 -3.16399 -2.46359 0
M  V30 4729 H 453.917 -4.06765 -1.35058 0
M  V30 4730 H 458.101 -4.8943 -0.8229 0
M  V30 4731 H 453.357 -6.11306 -0.107456 0
M  V30 4732 H 457.531 -6.95171 0.413584 0
M  V30 4733 H 455.158 -7.56216 0.777265 0
M  V30 4734 N 456.733 0.527833 -1.48498 0
M  V30 4735 C 457.663 1.64136 -1.66077 0
M  V30 4736 C 458.644 1.62286 -0.509625 0
M  V30 4737 O 459.829 1.79449 -0.742413 0
M  V30 4738 C 456.959 3.02717 -1.70234 0
M  V30 4739 C 455.913 3.19426 -2.8487 0
M  V30 4740 C 455.239 4.5909 -2.74118 0
M  V30 4741 C 456.539 3.01993 -4.26142 0
M  V30 4742 H 458.233 1.4968 -2.593 0
M  V30 4743 H 455.779 0.718654 -1.24785 0
M  V30 4744 H 457.732 3.80491 -1.8112 0
M  V30 4745 H 456.456 3.18201 -0.735911 0
M  V30 4746 H 455.115 2.4407 -2.73542 0
M  V30 4747 H 454.763 4.71413 -1.7544 0
M  V30 4748 H 454.463 4.71214 -3.51042 0
M  V30 4749 H 455.987 5.3896 -2.86974 0
M  V30 4750 H 457.401 3.69558 -4.38292 0
M  V30 4751 H 455.798 3.2561 -5.04082 0
M  V30 4752 H 456.868 1.98396 -4.42456 0
M  V30 4753 N 458.211 1.37122 0.776871 0
M  V30 4754 C 459.459 1.31787 1.53221 0
M  V30 4755 C 459.78 -0.0987589 1.9475 0
M  V30 4756 O 459.05 -1.0417 1.65908 0
M  V30 4757 H 457.63 0.484839 0.568278 0
M  V30 4758 H 460.292 1.71556 0.924917 0
M  V30 4759 H 459.388 1.95355 2.43398 0
M  V30 4760 N 459.689 -1.00246 1.21608 0
M  V30 4761 C 460.619 -2.10921 1.00172 0
M  V30 4762 C 461.6 -1.69938 -0.0741587 0
M  V30 4763 O 462.785 -1.94009 0.0861753 0
M  V30 4764 C 459.915 -3.42618 0.568355 0
M  V30 4765 C 458.869 -3.97407 1.58909 0
M  V30 4766 C 458.195 -5.25038 1.01187 0
M  V30 4767 C 459.495 -4.2918 2.97661 0
M  V30 4768 H 461.189 -2.29112 1.92739 0
M  V30 4769 H 458.735 -1.10101 0.928102 0
M  V30 4770 H 460.688 -4.19444 0.405555 0
M  V30 4771 H 459.412 -3.24227 -0.392961 0
M  V30 4772 H 458.071 -3.22703 1.73949 0
M  V30 4773 H 457.719 -5.02982 0.0421965 0
M  V30 4774 H 457.419 -5.62661 1.6937 0
M  V30 4775 H 458.943 -6.04507 0.860448 0
M  V30 4776 H 460.357 -4.96839 2.86049 0
M  V30 4777 H 458.754 -4.77952 3.6288 0
M  V30 4778 H 459.824 -3.3735 3.48315 0
M  V30 4779 N 461.167 -1.02423 -1.1978 0
M  V30 4780 C 462.415 -0.716569 -1.8897 0
M  V30 4781 C 462.736 0.756769 -1.79716 0
M  V30 4782 O 462.006 1.5449 -1.20456 0
M  V30 4783 H 460.586 -0.262062 -0.699523 0
M  V30 4784 H 463.248 -1.29747 -1.45436 0
M  V30 4785 H 462.344 -1.00675 -2.95417 0
M  V30 4786 N 462.645 1.35699 -0.801477 0
M  V30 4787 C 463.555 2.33661 -0.209691 0
M  V30 4788 C 464.571 1.6162 0.644591 0
M  V30 4789 O 465.747 1.93529 0.557545 0
M  V30 4790 C 462.812 3.40816 0.636033 0
M  V30 4791 C 461.873 4.28639 -0.238147 0
M  V30 4792 C 461.106 5.30676 0.567307 0
M  V30 4793 O 461.329 5.41174 1.8024 0
M  V30 4794 O 460.263 6.01887 -0.0391336 0
M  V30 4795 H 464.089 2.8606 -1.01996 0
M  V30 4796 H 461.674 1.38379 -0.563164 0
M  V30 4797 H 463.556 4.06301 1.11791 0
M  V30 4798 H 462.231 2.90696 1.42399 0
M  V30 4799 H 461.138 3.66152 -0.767044 0
M  V30 4800 H 462.471 4.82143 -0.989915 0
M  V30 4801 N 464.123 0.554532 1.47522 0
M  V30 4802 C 465.055 -0.232106 2.28022 0
M  V30 4803 C 466.068 -0.881865 1.36847 0
M  V30 4804 O 467.257 -0.756168 1.61692 0
M  V30 4805 C 464.357 -1.34604 3.11022 0
M  V30 4806 C 463.53 -0.793582 4.30141 0
M  V30 4807 C 462.589 -1.79168 4.94758 0
M  V30 4808 O 461.615 -1.33886 5.5323 0
M  V30 4809 N 462.817 -3.12495 4.89211 0
M  V30 4810 H 465.582 0.458407 2.96173 0
M  V30 4811 H 463.143 0.390433 1.57122 0
M  V30 4812 H 465.135 -2.01243 3.51118 0
M  V30 4813 H 463.705 -1.93983 2.45131 0
M  V30 4814 H 462.925 0.0495025 3.94169 0
M  V30 4815 H 464.213 -0.403776 5.07195 0
M  V30 4816 H 463.611 -3.51931 4.42901 0
M  V30 4817 H 462.168 -3.74698 5.33333 0
M  V30 4818 N 465.601 -1.54893 0.290851 0
M  V30 4819 C 467.012 -1.85584 -0.203816 0
M  V30 4820 C 467.363 -1.21285 -1.54222 0
M  V30 4821 O 466.488 -0.506841 -2.10381 0
M  V30 4822 C 467.083 -3.367 -0.376595 0
M  V30 4823 C 465.642 -3.6746 -0.815485 0
M  V30 4824 C 464.789 -2.77178 0.0821087 0
M  V30 4825 H 467.74 -1.50208 0.512175 0
M  V30 4826 H 467.761 -3.60656 -1.21275 0
M  V30 4827 H 467.273 -3.8347 0.59767 0
M  V30 4828 H 465.374 -3.26201 -1.80066 0
M  V30 4829 H 465.487 -4.7478 -0.641905 0
M  V30 4830 H 463.851 -2.50925 -0.436895 0
M  V30 4831 H 464.634 -3.26767 1.05254 0
M  V30 4832 N 467.08 -0.0183926 -1.57589 0
M  V30 4833 C 468.496 0.337897 -1.55982 0
M  V30 4834 C 468.696 1.73604 -1.02294 0
M  V30 4835 O 467.752 2.43589 -0.664895 0
M  V30 4836 C 469.065 0.196305 -3.00059 0
M  V30 4837 C 470.613 0.269875 -3.11834 0
M  V30 4838 C 471.088 0.157197 -4.5773 0
M  V30 4839 N 472.579 0.214521 -4.62703 0
M  V30 4840 C 473.314 0.150955 -5.73201 0
M  V30 4841 N 472.81 0.0369212 -6.9279 0
M  V30 4842 N 474.603 0.204162 -5.61729 0
M  V30 4843 H 466.754 -0.93279 -1.90821 0
M  V30 4844 H 469.017 -0.359253 -0.877292 0
M  V30 4845 H 468.723 -0.766383 -3.43248 0
M  V30 4846 H 468.597 0.970908 -3.6449 0
M  V30 4847 H 470.984 1.22302 -2.68563 0
M  V30 4848 H 471.065 -0.534918 -2.50144 0
M  V30 4849 H 470.709 -0.792479 -5.01679 0
M  V30 4850 H 470.639 0.980717 -5.17387 0
M  V30 4851 H 473.13 0.303238 -3.76681 0
M  V30 4852 H 473.443 -0.00518321 -7.728 0
M  V30 4853 H 471.788 0.0022886 -6.95 0
M  V30 4854 H 474.979 0.291575 -4.67191 0
M  V30 4855 H 475.152 0.15116 -6.47824 0
M  V30 4856 N 468.558 1.5553 0.254621 0
M  V30 4857 C 469.783 1.81383 1.00573 0
M  V30 4858 C 470.208 0.594419 1.78461 0
M  V30 4859 O 469.566 -0.456403 1.75461 0
M  V30 4860 C 469.614 3.04892 1.92545 0
M  V30 4861 O 468.718 2.81266 3.01601 0
M  V30 4862 H 468.059 0.598969 0.286587 0
M  V30 4863 H 470.589 2.02703 0.277952 0
M  V30 4864 H 470.599 3.34119 2.34155 0
M  V30 4865 H 469.274 3.93287 1.3527 0
M  V30 4866 H 467.851 2.63185 2.64174 0
M  V30 4867 N 470.036 -0.519951 1.48776 0
M  V30 4868 C 470.999 -1.60574 1.6355 0
M  V30 4869 C 471.999 -1.52557 0.508234 0
M  V30 4870 O 473.189 -1.56047 0.774262 0
M  V30 4871 C 470.321 -3.00211 1.61512 0
M  V30 4872 H 471.514 -1.4881 2.60376 0
M  V30 4873 H 469.067 -0.742772 1.37523 0
M  V30 4874 H 469.802 -3.17471 0.662009 0
M  V30 4875 H 469.587 -3.07439 2.43359 0
M  V30 4876 H 471.077 -3.79134 1.75064 0
M  V30 4877 N 471.514 -1.37532 -0.769588 0
M  V30 4878 C 472.424 -1.35668 -1.91393 0
M  V30 4879 C 473.44 -0.255954 -1.72107 0
M  V30 4880 O 474.616 -0.491704 -1.95305 0
M  V30 4881 C 471.681 -1.16481 -3.26547 0
M  V30 4882 C 470.742 -2.36212 -3.58472 0
M  V30 4883 C 469.975 -2.17932 -4.87177 0
M  V30 4884 O 470.198 -1.1647 -5.58382 0
M  V30 4885 O 469.132 -3.06167 -5.18214 0
M  V30 4886 H 472.958 -2.32055 -1.95918 0
M  V30 4887 H 470.543 -1.18284 -0.912641 0
M  V30 4888 H 472.425 -1.07778 -4.07384 0
M  V30 4889 H 471.1 -0.231687 -3.2287 0
M  V30 4890 H 470.007 -2.50488 -2.77861 0
M  V30 4891 H 471.34 -3.281 -3.66894 0
M  V30 4892 N 472.992 0.995999 -1.22138 0
M  V30 4893 C 473.922 2.10387 -1.01289 0
M  V30 4894 C 474.903 1.69975 0.0651454 0
M  V30 4895 O 476.088 1.9396 -0.0964628 0
M  V30 4896 C 473.218 3.42312 -0.586517 0
M  V30 4897 C 472.172 3.96558 -1.61014 0
M  V30 4898 C 471.498 5.24494 -1.0397 0
M  V30 4899 C 472.798 4.27595 -2.99933 0
M  V30 4900 H 474.492 2.28086 -1.93951 0
M  V30 4901 H 472.038 1.09607 -0.933928 0
M  V30 4902 H 473.991 4.19223 -0.427793 0
M  V30 4903 H 472.715 3.24431 0.375761 0
M  V30 4904 H 471.374 3.21776 -1.75658 0
M  V30 4905 H 471.022 5.02953 -0.0688703 0
M  V30 4906 H 470.722 5.61755 -1.72352 0
M  V30 4907 H 472.246 6.04042 -0.892494 0
M  V30 4908 H 473.66 4.95315 -2.8868 0
M  V30 4909 H 472.057 4.76021 -3.6541 0
M  V30 4910 H 473.127 3.35498 -3.50099 0
M  V30 4911 N 474.47 1.03057 1.19235 0
M  V30 4912 C 475.433 0.617418 2.20727 0
M  V30 4913 C 476.433 -0.319856 1.57587 0
M  V30 4914 O 477.623 -0.106633 1.73873 0
M  V30 4915 C 474.755 -0.096296 3.40764 0
M  V30 4916 H 475.948 1.51544 2.58794 0
M  V30 4917 H 473.501 0.821949 1.32942 0
M  V30 4918 H 474.236 -1.00859 3.08217 0
M  V30 4919 H 474.021 0.577217 3.87828 0
M  V30 4920 H 475.511 -0.372219 4.15938 0
M  V30 4921 N 475.948 -1.35272 0.808662 0
M  V30 4922 C 476.895 -2.29764 0.218482 0
M  V30 4923 C 477.865 -1.52911 -0.648652 0
M  V30 4924 O 479.05 -1.81341 -0.593297 0
M  V30 4925 C 476.19 -3.39388 -0.625282 0
M  V30 4926 C 475.303 -4.31202 0.262516 0
M  V30 4927 C 474.438 -5.27919 -0.589451 0
M  V30 4928 C 473.477 -6.11371 0.298617 0
M  V30 4929 N 472.614 -7.0022 -0.513443 0
M  V30 4930 H 477.454 -2.79645 1.02968 0
M  V30 4931 H 474.991 -1.37629 0.519303 0
M  V30 4932 H 476.949 -4.01615 -1.12966 0
M  V30 4933 H 475.579 -2.90777 -1.40173 0
M  V30 4934 H 474.631 -3.69962 0.885013 0
M  V30 4935 H 475.943 -4.89748 0.945971 0
M  V30 4936 H 475.097 -5.95529 -1.15888 0
M  V30 4937 H 473.836 -4.69875 -1.30647 0
M  V30 4938 H 472.841 -5.42707 0.880301 0
M  V30 4939 H 474.066 -6.71494 1.01352 0
M  V30 4940 H 472.012 -6.44662 -1.21439 0
M  V30 4941 H 471.929 -7.55917 0.111922 0
M  V30 4942 H 473.197 -7.72175 -1.06608 0
M  V30 4943 N 477.426 -0.562348 -1.47226 0
M  V30 4944 C 478.675 -0.038041 -2.01664 0
M  V30 4945 C 478.988 1.32199 -1.44162 0
M  V30 4946 O 480.194 1.9365 -1.90294 0
M  V30 4947 C 478.65 -0.0174958 -3.59896 0
M  V30 4948 C 478.258 -1.3746 -4.2639 0
M  V30 4949 C 480.002 0.453934 -4.22066 0
M  V30 4950 C 477.909 -1.31289 -5.76643 0
M  V30 4951 H 476.839 -0.0104511 -0.753928 0
M  V30 4952 H 479.49 -0.710966 -1.69167 0
M  V30 4953 H 477.872 0.721182 -3.89378 0
M  V30 4954 H 479.046 -2.1314 -4.08544 0
M  V30 4955 H 477.361 -1.78438 -3.7623 0
M  V30 4956 H 479.958 0.518584 -5.32179 0
M  V30 4957 H 480.301 1.46706 -3.89594 0
M  V30 4958 H 480.834 -0.230044 -3.97134 0
M  V30 4959 H 477.573 -2.30217 -6.13743 0
M  V30 4960 H 477.093 -0.597973 -5.96812 0
M  V30 4961 H 478.772 -1.01713 -6.38955 0
M  V30 4962 N 478.904 1.54736 -0.299062 0
M  V30 4963 C 479.834 2.26409 0.571085 0
M  V30 4964 C 480.815 1.2629 1.13951 0
M  V30 4965 O 482 1.55059 1.16921 0
M  V30 4966 C 479.13 3.00338 1.74396 0
M  V30 4967 C 478.084 4.07588 1.30599 0
M  V30 4968 C 477.41 4.69222 2.56387 0
M  V30 4969 C 478.71 5.20455 0.438645 0
M  V30 4970 H 480.404 2.99388 -0.0266991 0
M  V30 4971 H 477.95 1.43993 -0.0142812 0
M  V30 4972 H 479.903 3.49198 2.35878 0
M  V30 4973 H 478.627 2.24934 2.36796 0
M  V30 4974 H 477.286 3.59575 0.71424 0
M  V30 4975 H 476.934 3.9046 3.17097 0
M  V30 4976 H 476.634 5.41653 2.27784 0
M  V30 4977 H 478.158 5.20844 3.18675 0
M  V30 4978 H 479.572 5.65221 0.959085 0
M  V30 4979 H 477.969 5.99594 0.246466 0
M  V30 4980 H 479.039 4.8192 -0.536738 0
M  V30 4981 N 480.382 0.0267497 1.57577 0
M  V30 4982 C 481.63 -0.651116 1.91324 0
M  V30 4983 C 481.951 -1.72804 0.90353 0
M  V30 4984 O 481.221 -1.95822 -0.0552946 0
M  V30 4985 H 479.801 -0.243491 0.706202 0
M  V30 4986 H 482.463 0.0739935 1.94759 0
M  V30 4987 H 481.559 -1.10536 2.9187 0
M  V30 4988 N 481.861 -1.55662 -0.24637 0
M  V30 4989 C 482.791 -1.93377 -1.30873 0
M  V30 4990 C 483.772 -0.798773 -1.50179 0
M  V30 4991 O 484.957 -1.0591 -1.62778 0
M  V30 4992 C 482.087 -2.22893 -2.66338 0
M  V30 4993 C 481.041 -3.38649 -2.61727 0
M  V30 4994 C 480.367 -3.53708 -4.00992 0
M  V30 4995 C 481.667 -4.74323 -2.18666 0
M  V30 4996 H 483.361 -2.82363 -0.995552 0
M  V30 4997 H 480.907 -1.35854 -0.477464 0
M  V30 4998 H 482.86 -2.47866 -3.40794 0
M  V30 4999 H 481.584 -1.30733 -2.99293 0
M  V30 5000 H 480.243 -3.13685 -1.89729 0
M  V30 5001 H 479.891 -2.58967 -4.31214 0
M  V30 5002 H 479.591 -4.31551 -3.98795 0
M  V30 5003 H 481.115 -3.81003 -4.77147 0
M  V30 5004 H 482.529 -4.98665 -2.82854 0
M  V30 5005 H 480.926 -5.55273 -2.27579 0
M  V30 5006 H 481.996 -4.71349 -1.13834 0
M  V30 5007 N 483.339 0.512053 -1.4905 0
M  V30 5008 C 484.616 1.27337 -1.48474 0
M  V30 5009 C 484.996 2.1009 -0.206301 0
M  V30 5010 O 484.344 2.136 0.811609 0
M  V30 5011 C 484.554 2.13954 -2.75726 0
M  V30 5012 C 485.902 2.73507 -3.24776 0
M  V30 5013 O 486.926 2.24229 -2.76767 0
M  V30 5014 O 485.785 3.63186 -4.08361 0
M  V30 5015 H 482.879 0.575652 -0.593762 0
M  V30 5016 H 485.425 0.527232 -1.61302 0
M  V30 5017 H 484.197 1.52709 -3.60272 0
M  V30 5018 H 483.82 2.95782 -2.65705 0
M  V30 5019 N 484.817 1.37938 0.762283 0
M  V30 5020 C 485.747 1.37176 1.88958 0
M  V30 5021 C 486.728 0.238945 1.68413 0
M  V30 5022 O 487.913 0.440726 1.89133 0
M  V30 5023 C 485.043 1.18742 3.2637 0
M  V30 5024 C 483.997 2.29136 3.61498 0
M  V30 5025 C 483.323 1.95816 4.97554 0
M  V30 5026 C 484.623 3.71363 3.6727 0
M  V30 5027 H 486.317 2.31509 1.89853 0
M  V30 5028 H 483.863 1.11438 0.912005 0
M  V30 5029 H 485.816 1.16837 4.04879 0
M  V30 5030 H 484.54 0.208683 3.25933 0
M  V30 5031 H 483.199 2.30213 2.85303 0
M  V30 5032 H 482.847 0.964475 4.93667 0
M  V30 5033 H 482.547 2.69745 5.22026 0
M  V30 5034 H 484.071 1.95513 5.78452 0
M  V30 5035 H 485.485 3.72364 4.35911 0
M  V30 5036 H 483.882 4.44425 4.03245 0
M  V30 5037 H 484.952 4.04305 2.67704 0
M  V30 5038 N 486.295 -0.989507 1.22664 0
M  V30 5039 C 487.543 -1.72612 1.05117 0
M  V30 5040 C 487.864 -1.90552 -0.414131 0
M  V30 5041 O 487.134 -1.4676 -1.29762 0
M  V30 5042 H 485.714 -0.639555 0.385977 0
M  V30 5043 H 488.376 -1.19158 1.54232 0
M  V30 5044 H 487.472 -2.71926 1.53175 0
M  V30 5045 N 487.773 -1.03688 -1.18687 0
M  V30 5046 C 489.184 -0.766488 -1.70241 0
M  V30 5047 C 489.535 0.713052 -1.82784 0
M  V30 5048 O 488.66 1.55529 -1.50465 0
M  V30 5049 C 489.255 -1.38475 -3.09209 0
M  V30 5050 C 487.814 -1.16276 -3.5799 0
M  V30 5051 C 486.961 -1.4778 -2.34641 0
M  V30 5052 H 489.912 -1.20378 -1.03415 0
M  V30 5053 H 489.933 -0.785939 -3.72295 0
M  V30 5054 H 489.445 -2.46157 -3.00048 0
M  V30 5055 H 487.546 -0.104508 -3.72453 0
M  V30 5056 H 487.659 -1.8571 -4.41643 0
M  V30 5057 H 486.023 -0.897366 -2.38368 0
M  V30 5058 H 486.806 -2.56562 -2.28102 0
M  V30 5059 N 489.251 1.34841 -0.815825 0
M  V30 5060 C 490.198 2.29644 -0.230664 0
M  V30 5061 C 491.168 1.53253 0.640533 0
M  V30 5062 O 492.353 1.81653 0.583672 0
M  V30 5063 C 489.493 3.39715 0.607275 0
M  V30 5064 C 488.606 4.31056 -0.28538 0
M  V30 5065 C 487.741 5.28225 0.561446 0
M  V30 5066 C 486.78 6.11204 -0.331035 0
M  V30 5067 N 485.917 7.00483 0.476302 0
M  V30 5068 H 490.757 2.79095 -1.0445 0
M  V30 5069 H 488.294 1.37351 -0.526595 0
M  V30 5070 H 490.252 4.02208 1.10835 0
M  V30 5071 H 488.882 2.91517 1.38629 0
M  V30 5072 H 487.934 3.69487 -0.904621 0
M  V30 5073 H 489.246 4.89239 -0.97193 0
M  V30 5074 H 488.4 5.96135 1.12728 0
M  V30 5075 H 487.139 4.70562 1.28153 0
M  V30 5076 H 486.144 5.42232 -0.909069 0
M  V30 5077 H 487.369 6.70947 -1.04912 0
M  V30 5078 H 485.315 6.45296 1.18019 0
M  V30 5079 H 485.232 7.55847 -0.152008 0
M  V30 5080 H 486.5 7.7273 1.02512 0
M  V30 5081 N 490.729 0.570148 1.46925 0
M  V30 5082 C 491.977 0.0508523 2.02036 0
M  V30 5083 C 492.298 -1.30885 1.44548 0
M  V30 5084 O 491.568 -1.85647 0.625453 0
M  V30 5085 H 490.148 0.0158088 0.746833 0
M  V30 5086 H 492.81 0.743086 1.80178 0
M  V30 5087 H 491.906 -0.027575 3.12088 0
M  V30 5088 N 492.207 -1.54576 0.307264 0
M  V30 5089 C 493.117 -2.27435 -0.57536 0
M  V30 5090 C 494.133 -1.31183 -1.14311 0
M  V30 5091 O 495.309 -1.64175 -1.16656 0
M  V30 5092 C 492.374 -3.00566 -1.72803 0
M  V30 5093 C 491.435 -4.12369 -1.19373 0
M  V30 5094 C 490.668 -4.82003 -2.29147 0
M  V30 5095 O 490.891 -4.51038 -3.49171 0
M  V30 5096 O 489.825 -5.69271 -1.95485 0
M  V30 5097 H 493.651 -3.03696 0.0158558 0
M  V30 5098 H 491.236 -1.49219 0.0735064 0
M  V30 5099 H 493.118 -3.46416 -2.39946 0
M  V30 5100 H 491.793 -2.27195 -2.30574 0
M  V30 5101 H 490.7 -3.70905 -0.487851 0
M  V30 5102 H 492.033 -4.87736 -0.661376 0
M  V30 5103 N 493.685 -0.035106 -1.57561 0
M  V30 5104 C 494.931 0.64318 -1.92331 0
M  V30 5105 C 495.264 1.71434 -0.912368 0
M  V30 5106 O 494.539 1.94395 0.0640303 0
M  V30 5107 C 494.822 1.25411 -3.37556 0
M  V30 5108 C 494.675 0.192109 -4.4939 0
M  V30 5109 C 495.994 2.17041 -3.82859 0
M  V30 5110 H 493.113 0.232341 -0.699419 0
M  V30 5111 H 495.755 -0.0935889 -1.89769 0
M  V30 5112 H 493.905 1.88205 -3.39869 0
M  V30 5113 H 495.577 -0.438849 -4.59208 0
M  V30 5114 H 493.82 -0.481725 -4.31117 0
M  V30 5115 H 494.491 0.659292 -5.48049 0
M  V30 5116 H 496.967 1.64228 -3.8232 0
M  V30 5117 H 495.843 2.56738 -4.85157 0
M  V30 5118 H 496.104 3.06401 -3.18702 0
M  V30 5119 N 495.163 1.55791 0.238111 0
M  V30 5120 C 496.093 1.94068 1.29846 0
M  V30 5121 C 497.074 0.806726 1.49753 0
M  V30 5122 O 498.259 1.06772 1.62214 0
M  V30 5123 C 495.389 2.24302 2.65153 0
M  V30 5124 C 494.343 3.40032 2.59927 0
M  V30 5125 C 493.669 3.55829 3.99111 0
M  V30 5126 C 494.969 4.75476 2.16148 0
M  V30 5127 H 496.663 2.82887 0.980563 0
M  V30 5128 H 494.209 1.36105 0.470253 0
M  V30 5129 H 496.162 2.4967 3.39475 0
M  V30 5130 H 494.886 1.32318 2.98596 0
M  V30 5131 H 493.545 3.14687 1.88063 0
M  V30 5132 H 493.193 2.6125 4.29834 0
M  V30 5133 H 492.893 4.3366 3.96501 0
M  V30 5134 H 494.417 3.83528 4.7512 0
M  V30 5135 H 495.831 5.00158 2.80205 0
M  V30 5136 H 494.228 5.56472 2.24631 0
M  V30 5137 H 495.298 4.71946 1.11333 0
M  V30 5138 N 496.642 -0.504142 1.49319 0
M  V30 5139 C 497.888 -1.26033 1.58882 0
M  V30 5140 C 498.221 -1.92268 0.273274 0
M  V30 5141 O 497.496 -1.80567 -0.72291 0
M  V30 5142 C 497.779 -2.32976 2.7458 0
M  V30 5143 C 497.632 -1.71263 4.1592 0
M  V30 5144 C 498.951 -3.34561 2.85932 0
M  V30 5145 H 496.07 -0.456863 0.578312 0
M  V30 5146 H 498.712 -0.558965 1.81592 0
M  V30 5147 H 496.862 -2.92796 2.55348 0
M  V30 5148 H 498.534 -1.15294 4.4666 0
M  V30 5149 H 496.777 -1.01686 4.21714 0
M  V30 5150 H 497.448 -2.48816 4.92742 0
M  V30 5151 H 499.924 -2.84727 3.0343 0
M  V30 5152 H 498.8 -4.06754 3.68568 0
M  V30 5153 H 499.061 -3.96695 1.95154 0
M  V30 5154 N 498.12 -1.38341 -0.754957 0
M  V30 5155 C 499.068 -1.35573 -1.89005 0
M  V30 5156 C 500.062 -0.241824 -1.67665 0
M  V30 5157 O 501.268 -0.410785 -1.7525 0
M  V30 5158 H 497.643 -0.422898 -0.621821 0
M  V30 5159 H 499.614 -2.31359 -1.88455 0
M  V30 5160 C 498.363 -1.19631 -3.26471 0
M  V30 5161 H 497.686 -2.04605 -3.43477 0
M  V30 5162 H 499.126 -1.21748 -4.06144 0
M  V30 5163 C 497.585 0.0968705 -3.36761 0
M  V30 5164 O 498.115 1.07439 -3.87066 0
M  V30 5165 N 496.321 0.153242 -2.90196 0
M  V30 5166 H 495.868 -0.642908 -2.49448 0
M  V30 5167 H 495.826 1.01807 -2.9746 0
M  V30 5168 N 499.598 0.982988 -1.23187 0
M  V30 5169 C 500.508 2.10907 -1.02739 0
M  V30 5170 C 501.524 1.73979 0.0273188 0
M  V30 5171 O 502.7 2.00702 -0.16757 0
M  V30 5172 C 499.765 3.41142 -0.618304 0
M  V30 5173 C 498.826 3.92112 -1.74777 0
M  V30 5174 C 498.059 5.16131 -1.3581 0
M  V30 5175 O 498.282 5.6989 -0.241201 0
M  V30 5176 O 497.216 5.61103 -2.17824 0
M  V30 5177 H 501.042 2.31046 -1.97108 0
M  V30 5178 H 498.627 1.09284 -1.01869 0
M  V30 5179 H 500.509 4.19488 -0.400982 0
M  V30 5180 H 499.184 3.2234 0.296421 0
M  V30 5181 H 498.091 3.14895 -2.0197 0
M  V30 5182 H 499.424 4.15364 -2.64071 0
M  V30 5183 N 501.076 1.04316 1.18135 0
M  V30 5184 C 502.306 0.767003 1.91835 0
M  V30 5185 C 502.714 -0.68002 1.76557 0
M  V30 5186 O 502.057 -1.47548 1.09432 0
M  V30 5187 C 502.119 1.05674 3.43618 0
M  V30 5188 C 501.783 2.49818 3.82675 0
M  V30 5189 C 502.78 3.48003 3.86251 0
M  V30 5190 C 500.465 2.84596 4.13897 0
M  V30 5191 C 502.459 4.79016 4.20503 0
M  V30 5192 C 500.146 4.15813 4.4782 0
M  V30 5193 C 501.144 5.12834 4.51099 0
M  V30 5194 O 500.832 6.41699 4.84229 0
M  V30 5195 H 500.564 0.278948 0.615763 0
M  V30 5196 H 503.118 1.3946 1.50798 0
M  V30 5197 H 501.348 0.372029 3.84906 0
M  V30 5198 H 503.037 0.767994 3.98568 0
M  V30 5199 H 503.803 3.22475 3.62264 0
M  V30 5200 H 499.682 2.09748 4.1052 0
M  V30 5201 H 503.226 5.54739 4.22978 0
M  V30 5202 H 499.123 4.41109 4.71268 0
M  V30 5203 H 499.891 6.46387 5.02121 0
M  V30 5204 N 502.554 -1.34406 0.822964 0
M  V30 5205 C 503.484 -2.32052 0.259608 0
M  V30 5206 C 504.465 -1.58243 -0.623961 0
M  V30 5207 O 505.65 -1.86224 -0.55083 0
M  V30 5208 C 502.78 -3.42434 -0.579314 0
M  V30 5209 C 501.734 -4.27499 0.20712 0
M  V30 5210 C 501.06 -5.29349 -0.754547 0
M  V30 5211 C 502.36 -5.02758 1.41533 0
M  V30 5212 H 504.054 -2.79418 1.07545 0
M  V30 5213 H 501.6 -1.34338 0.518593 0
M  V30 5214 H 503.553 -4.0976 -0.983612 0
M  V30 5215 H 502.277 -2.93717 -1.4282 0
M  V30 5216 H 500.936 -3.61776 0.592787 0
M  V30 5217 H 500.584 -4.76895 -1.59939 0
M  V30 5218 H 500.284 -5.8714 -0.232561 0
M  V30 5219 H 501.808 -5.99544 -1.1567 0
M  V30 5220 H 503.222 -5.62938 1.08504 0
M  V30 5221 H 501.619 -5.70123 1.87296 0
M  V30 5222 H 502.689 -4.32451 2.1935 0
M  V30 5223 N 504.032 -0.577932 -1.46621 0
M  V30 5224 C 504.964 0.195801 -2.28362 0
M  V30 5225 C 505.977 0.859983 -1.38232 0
M  V30 5226 O 507.166 0.730349 -1.62875 0
M  V30 5227 C 504.266 1.29639 -3.13124 0
M  V30 5228 C 503.439 0.725049 -4.31349 0
M  V30 5229 C 502.498 1.71274 -4.97546 0
M  V30 5230 O 501.524 1.25067 -5.5529 0
M  V30 5231 N 502.726 3.04672 -4.94121 0
M  V30 5232 H 505.491 -0.505468 -2.95407 0
M  V30 5233 H 503.052 -0.415381 -1.56481 0
M  V30 5234 H 505.044 1.95631 -3.54275 0
M  V30 5235 H 503.614 1.90059 -2.48186 0
M  V30 5236 H 502.834 -0.112205 -3.9404 0
M  V30 5237 H 504.122 0.323034 -5.07774 0
M  V30 5238 H 503.52 3.4484 -4.48444 0
M  V30 5239 H 502.077 3.66166 -5.39227 0
M  V30 5240 N 505.51 1.54411 -0.315457 0
M  V30 5241 C 506.738 2.04833 0.291738 0
M  V30 5242 C 507.153 1.19203 1.46411 0
M  V30 5243 O 506.51 0.220867 1.81159 0
M  V30 5244 C 506.561 3.53969 0.73404 0
M  V30 5245 O 506.282 4.36346 -0.391682 0
M  V30 5246 C 507.783 4.2045 1.40489 0
M  V30 5247 H 505.003 0.668195 0.0612947 0
M  V30 5248 H 507.547 1.99276 -0.45929 0
M  V30 5249 H 505.702 3.5984 1.43506 0
M  V30 5250 H 506.116 5.24481 -0.0447088 0
M  V30 5251 H 507.59 5.26278 1.66539 0
M  V30 5252 H 508.067 3.71067 2.3496 0
M  V30 5253 H 508.673 4.18694 0.746662 0
M  V30 5254 N 506.988 0.0434614 1.5754 0
M  V30 5255 C 508.213 -0.645358 1.97104 0
M  V30 5256 C 508.638 -1.64037 0.920521 0
M  V30 5257 O 507.996 -1.80922 -0.11708 0
M  V30 5258 C 508.044 -1.31547 3.35749 0
M  V30 5259 O 507.148 -2.43103 3.33129 0
M  V30 5260 H 506.489 -0.168403 0.64229 0
M  V30 5261 H 509.019 0.109573 2.04306 0
M  V30 5262 H 509.029 -1.66895 3.72304 0
M  V30 5263 H 507.704 -0.586205 4.11748 0
M  V30 5264 H 506.281 -2.0976 3.0831 0
M  V30 5265 N 508.466 -1.55915 -0.229846 0
M  V30 5266 C 509.712 -1.78807 -0.956868 0
M  V30 5267 C 510.045 -0.611687 -1.84315 0
M  V30 5268 O 509.32 0.389398 -1.90562 0
M  V30 5269 C 509.603 -3.11718 -1.80288 0
M  V30 5270 C 509.456 -4.3979 -0.943649 0
M  V30 5271 C 510.775 -3.40999 -2.78222 0
M  V30 5272 H 507.894 -0.6505 -0.346437 0
M  V30 5273 H 510.536 -1.88648 -0.226252 0
M  V30 5274 H 508.686 -3.03459 -2.42579 0
M  V30 5275 H 510.358 -4.60059 -0.338121 0
M  V30 5276 H 508.601 -4.33086 -0.248705 0
M  V30 5277 H 509.272 -5.29208 -1.5698 0
M  V30 5278 H 511.748 -3.49332 -2.26067 0
M  V30 5279 H 510.624 -4.35183 -3.34526 0
M  V30 5280 H 510.885 -2.62754 -3.55546 0
M  V30 5281 N 509.944 0.496216 -1.49584 0
M  V30 5282 C 511.355 1.07765 -1.52459 0
M  V30 5283 C 511.706 1.93679 -0.31353 0
M  V30 5284 O 510.831 2.08588 0.576186 0
M  V30 5285 C 511.426 1.96111 -2.76271 0
M  V30 5286 C 509.985 2.49409 -2.81908 0
M  V30 5287 C 509.132 1.27142 -2.46435 0
M  V30 5288 H 512.083 0.279914 -1.56212 0
M  V30 5289 H 512.104 2.80862 -2.56704 0
M  V30 5290 H 511.616 1.33555 -3.64396 0
M  V30 5291 H 509.717 3.1559 -1.98074 0
M  V30 5292 H 509.83 2.86234 -3.84196 0
M  V30 5293 H 508.194 1.59818 -1.98319 0
M  V30 5294 H 508.977 0.662866 -3.3684 0
M  V30 5295 N 511.423 1.38739 0.74761 0
M  V30 5296 C 512.371 1.36573 1.88283 0
M  V30 5297 C 513.365 0.250712 1.67534 0
M  V30 5298 O 514.571 0.420073 1.7503 0
M  V30 5299 H 510.946 0.42619 0.619569 0
M  V30 5300 H 512.917 2.32356 1.87226 0
M  V30 5301 C 511.666 1.21361 3.25832 0
M  V30 5302 H 510.989 2.06424 3.42388 0
M  V30 5303 H 512.429 1.23901 4.05493 0
M  V30 5304 C 510.888 -0.0790099 3.36807 0
M  V30 5305 O 511.418 -1.05385 3.8763 0
M  V30 5306 N 509.624 -0.13785 2.90273 0
M  V30 5307 H 509.171 0.656128 2.49104 0
M  V30 5308 H 509.129 -1.00228 2.97996 0
M  V30 5309 N 512.901 -0.976442 1.23707 0
M  V30 5310 C 514.147 -1.72081 1.07312 0
M  V30 5311 C 514.48 -1.90275 -0.388476 0
M  V30 5312 O 513.755 -1.4579 -1.28746 0
M  V30 5313 C 514.038 -3.11675 1.80363 0
M  V30 5314 C 513.891 -3.01027 3.3422 0
M  V30 5315 C 515.21 -4.1117 1.5693 0
M  V30 5316 H 512.329 -0.624583 0.391236 0
M  V30 5317 H 514.971 -1.13649 1.52263 0
M  V30 5318 H 513.121 -3.61559 1.42153 0
M  V30 5319 H 514.793 -2.58637 3.81975 0
M  V30 5320 H 513.036 -2.3744 3.63049 0
M  V30 5321 H 513.707 -3.9988 3.80525 0
M  V30 5322 H 516.183 -3.7011 1.90151 0
M  V30 5323 H 515.059 -5.06928 2.10513 0
M  V30 5324 H 515.32 -4.392 0.505548 0
M  V30 5325 N 514.379 -1.04941 -1.1758 0
M  V30 5326 C 515.609 -0.777166 -1.91425 0
M  V30 5327 C 516.017 0.670647 -1.76915 0
M  V30 5328 O 515.36 1.46965 -1.10213 0
M  V30 5329 C 515.422 -1.07495 -3.43052 0
M  V30 5330 C 515.086 -2.51844 -3.81345 0
M  V30 5331 C 516.083 -3.50047 -3.844 0
M  V30 5332 C 513.768 -2.86787 -4.12382 0
M  V30 5333 C 515.762 -4.81239 -4.17957 0
M  V30 5334 C 513.449 -4.18182 -4.45608 0
M  V30 5335 C 514.447 -5.15219 -4.48373 0
M  V30 5336 O 514.135 -6.44258 -4.80819 0
M  V30 5337 H 513.867 -0.282209 -0.614275 0
M  V30 5338 H 516.421 -1.40258 -1.50056 0
M  V30 5339 H 514.651 -0.392437 -3.84704 0
M  V30 5340 H 516.34 -0.78912 -3.98155 0
M  V30 5341 H 517.106 -3.24391 -3.60548 0
M  V30 5342 H 512.985 -2.11922 -4.09402 0
M  V30 5343 H 516.529 -5.56974 -4.2003 0
M  V30 5344 H 512.426 -4.43602 -4.68922 0
M  V30 5345 H 513.194 -6.49041 -4.98686 0
M  V30 5346 N 515.857 1.33968 -0.830081 0
M  V30 5347 C 516.82 2.27694 -0.26235 0
M  V30 5348 C 517.82 1.50589 0.563876 0
M  V30 5349 O 519.01 1.70028 0.378941 0
M  V30 5350 C 516.142 3.35002 0.63138 0
M  V30 5351 H 517.335 2.79419 -1.08928 0
M  V30 5352 H 514.888 1.44221 -0.602486 0
M  V30 5353 H 515.623 2.88504 1.48109 0
M  V30 5354 H 515.408 3.92079 0.0403276 0
M  V30 5355 H 516.898 4.04897 1.02217 0
M  V30 5356 N 517.335 0.585699 1.46312 0
M  V30 5357 C 518.581 0.0725284 2.0267 0
M  V30 5358 C 518.914 -1.28523 1.45586 0
M  V30 5359 O 518.189 -1.84283 0.622101 0
M  V30 5360 C 518.472 0.0099788 3.60099 0
M  V30 5361 C 518.325 1.39685 4.27561 0
M  V30 5362 C 519.644 -0.689117 4.34671 0
M  V30 5363 H 516.763 0.0278307 0.736474 0
M  V30 5364 H 519.405 0.753472 1.74421 0
M  V30 5365 H 517.555 -0.56992 3.84297 0
M  V30 5366 H 519.227 2.02215 4.14617 0
M  V30 5367 H 517.47 1.96374 3.86807 0
M  V30 5368 H 518.141 1.30553 5.36339 0
M  V30 5369 H 520.617 -0.196446 4.15636 0
M  V30 5370 H 519.493 -0.701921 5.44393 0
M  V30 5371 H 519.754 -1.75101 4.05946 0
M  V30 5372 N 518.813 -1.54241 0.323641 0
M  V30 5373 C 520.061 -2.00174 -0.278359 0
M  V30 5374 C 520.382 -1.2134 -1.52648 0
M  V30 5375 O 519.652 -0.315244 -1.93347 0
M  V30 5376 H 518.232 -0.739463 -0.105845 0
M  V30 5377 H 520.894 -1.89864 0.440204 0
M  V30 5378 H 519.99 -3.07486 -0.5347 0
M  V30 5379 N 520.291 -0.0518155 -1.57515 0
M  V30 5380 C 521.568 0.661727 -1.84067 0
M  V30 5381 C 521.948 1.88999 -0.940351 0
M  V30 5382 O 521.296 2.285 -0.00155404 0
M  V30 5383 C 521.506 1.01841 -3.3381 0
M  V30 5384 C 522.854 1.40043 -4.00841 0
M  V30 5385 O 523.878 1.11073 -3.38439 0
M  V30 5386 O 522.737 1.94111 -5.10865 0
M  V30 5387 H 519.831 0.326702 -0.759733 0
M  V30 5388 H 522.377 -0.0812277 -1.69505 0
M  V30 5389 H 521.149 0.145202 -3.91031 0
M  V30 5390 H 520.772 1.81879 -3.53562 0
M  V30 5391 N 521.769 1.56035 0.221574 0
M  V30 5392 C 522.699 1.95434 1.2778 0
M  V30 5393 C 523.68 0.822564 1.48889 0
M  V30 5394 O 524.865 1.08486 1.61072 0
M  V30 5395 C 521.995 2.27102 2.62759 0
M  V30 5396 C 520.949 3.4277 2.56306 0
M  V30 5397 C 520.275 3.60043 3.95314 0
M  V30 5398 C 521.575 4.77742 2.11093 0
M  V30 5399 H 523.269 2.83912 0.950504 0
M  V30 5400 H 520.815 1.36596 0.455791 0
M  V30 5401 H 522.768 2.53256 3.36807 0
M  V30 5402 H 521.492 1.35478 2.97176 0
M  V30 5403 H 520.151 3.16664 1.84715 0
M  V30 5404 H 519.799 2.65794 4.27039 0
M  V30 5405 H 519.499 4.37841 3.91879 0
M  V30 5406 H 521.023 3.88545 4.71025 0
M  V30 5407 H 522.437 5.03102 2.74885 0
M  V30 5408 H 520.834 5.58823 2.18716 0
M  V30 5409 H 521.904 4.731 1.06321 0
M  V30 5410 N 523.247 -0.488276 1.49845 0
M  V30 5411 C 524.496 -1.23826 1.59217 0
M  V30 5412 C 524.809 -1.93439 0.289966 0
M  V30 5413 O 526.015 -2.70229 0.262382 0
M  V30 5414 C 524.471 -2.24902 2.80976 0
M  V30 5415 C 524.079 -1.6117 4.18005 0
M  V30 5416 C 525.823 -3.00648 2.99685 0
M  V30 5417 C 523.73 -2.60431 5.3097 0
M  V30 5418 H 522.66 -0.465858 0.592868 0
M  V30 5419 H 525.311 -0.510645 1.76252 0
M  V30 5420 H 523.693 -3.0088 2.57463 0
M  V30 5421 H 524.867 -0.910968 4.51706 0
M  V30 5422 H 523.182 -0.97767 4.0476 0
M  V30 5423 H 525.779 -3.74903 3.81251 0
M  V30 5424 H 526.122 -3.5902 2.10738 0
M  V30 5425 H 526.655 -2.31784 3.23297 0
M  V30 5426 H 523.394 -2.06823 6.22017 0
M  V30 5427 H 522.914 -3.28707 5.01709 0
M  V30 5428 H 524.593 -3.22606 5.60834 0
M  V30 5429 N 524.725 -1.39134 -0.740242 0
M  V30 5430 C 525.973 -1.35803 -1.49673 0
M  V30 5431 C 526.294 0.0470897 -1.94943 0
M  V30 5432 O 525.564 0.997347 -1.68611 0
M  V30 5433 H 524.144 -0.499736 -0.555224 0
M  V30 5434 H 526.806 -1.73947 -0.879107 0
M  V30 5435 H 525.902 -2.0174 -2.38133 0
M  V30 5436 N 526.204 0.969867 -1.24223 0
M  V30 5437 C 527.452 1.70918 -1.0785 0
M  V30 5438 C 527.773 1.91186 0.383763 0
M  V30 5439 O 527.043 1.48806 1.27411 0
M  V30 5440 H 525.623 0.633334 -0.396103 0
M  V30 5441 H 528.285 1.16689 -1.56108 0
M  V30 5442 H 527.381 2.69455 -1.57482 0
M  V30 5443 N 527.682 1.05563 1.17022 0
M  V30 5444 C 529.093 0.793475 1.69 0
M  V30 5445 C 529.444 -0.683882 1.83895 0
M  V30 5446 O 528.569 -1.53116 1.5292 0
M  V30 5447 C 529.164 1.43376 3.06967 0
M  V30 5448 C 527.723 1.21956 3.56095 0
M  V30 5449 C 526.87 1.51494 2.3226 0
M  V30 5450 H 529.821 1.22008 1.01487 0
M  V30 5451 H 529.842 0.845068 3.70997 0
M  V30 5452 H 529.354 2.50899 2.96093 0
M  V30 5453 H 527.455 0.163749 3.7224 0
M  V30 5454 H 527.568 1.92713 4.38633 0
M  V30 5455 H 525.932 0.935175 2.3691 0
M  V30 5456 H 526.715 2.60159 2.23992 0
M  V30 5457 N 529.16 -1.33526 0.837174 0
M  V30 5458 C 530.093 -2.27192 0.214233 0
M  V30 5459 C 531.071 -1.49575 -0.637657 0
M  V30 5460 O 532.255 -1.78753 -0.598291 0
M  V30 5461 C 529.382 -3.31401 -0.699367 0
M  V30 5462 C 528.428 -4.26431 0.0768429 0
M  V30 5463 S 529.261 -5.15954 1.4336 0
M  V30 5464 C 530.417 -6.23692 0.525251 0
M  V30 5465 H 530.65 -2.79679 1.00831 0
M  V30 5466 H 528.183 -1.4079 0.633834 0
M  V30 5467 H 530.141 -3.91924 -1.22088 0
M  V30 5468 H 528.802 -2.77732 -1.46709 0
M  V30 5469 H 527.995 -5.00193 -0.618268 0
M  V30 5470 H 527.597 -3.70235 0.529364 0
M  V30 5471 H 529.889 -6.76931 -0.277575 0
M  V30 5472 H 530.832 -6.97283 1.23299 0
M  V30 5473 H 531.24 -5.64398 0.107351 0
M  V30 5474 N 530.638 -0.59345 -1.46 0
M  V30 5475 C 531.548 0.135817 -2.34207 0
M  V30 5476 C 532.564 0.875008 -1.50398 0
M  V30 5477 O 533.74 0.835778 -1.83239 0
M  V30 5478 C 530.805 1.12977 -3.27776 0
M  V30 5479 C 529.866 0.394081 -4.27487 0
M  V30 5480 C 529.099 1.34068 -5.16586 0
M  V30 5481 O 529.322 2.5778 -5.08828 0
M  V30 5482 O 528.256 0.845426 -5.95933 0
M  V30 5483 H 532.082 -0.588691 -2.9794 0
M  V30 5484 H 529.667 -0.353784 -1.45151 0
M  V30 5485 H 531.549 1.70261 -3.85473 0
M  V30 5486 H 530.224 1.83556 -2.66625 0
M  V30 5487 H 529.131 -0.220869 -3.73447 0
M  V30 5488 H 530.464 -0.270939 -4.91454 0
M  V30 5489 N 532.116 1.54067 -0.331816 0
M  V30 5490 C 533.049 2.20886 0.573127 0
M  V30 5491 C 534.027 1.18876 1.10938 0
M  V30 5492 O 535.211 1.47649 1.17184 0
M  V30 5493 C 532.338 2.87706 1.78726 0
M  V30 5494 C 531.384 4.03505 1.38152 0
M  V30 5495 S 532.217 5.33919 0.41123 0
M  V30 5496 C 533.373 6.04236 1.63246 0
M  V30 5497 H 533.606 2.97299 0.00555737 0
M  V30 5498 H 531.139 1.53964 -0.115893 0
M  V30 5499 H 533.097 3.26825 2.48386 0
M  V30 5500 H 531.758 2.1108 2.32603 0
M  V30 5501 H 530.951 4.49152 2.28645 0
M  V30 5502 H 530.553 3.66102 0.764524 0
M  V30 5503 H 532.845 6.26917 2.56869 0
M  V30 5504 H 533.788 6.97546 1.218 0
M  V30 5505 H 534.196 5.34247 1.82318 0
M  V30 5506 N 533.594 0.0601682 1.57485 0
M  V30 5507 C 534.841 -0.611594 1.93043 0
M  V30 5508 C 535.169 -1.70317 0.939274 0
M  V30 5509 O 534.424 -1.95644 -0.046996 0
M  V30 5510 C 534.723 -1.23831 3.35262 0
M  V30 5511 C 534.389 -0.274037 4.50066 0
M  V30 5512 C 533.051 -0.00872394 4.81199 0
M  V30 5513 C 535.403 0.386308 5.19766 0
M  V30 5514 C 532.731 0.924218 5.79375 0
M  V30 5515 C 535.083 1.3075 6.1894 0
M  V30 5516 C 533.747 1.58139 6.48497 0
M  V30 5517 H 533.017 -0.223798 0.706396 0
M  V30 5518 H 535.664 0.128566 1.91068 0
M  V30 5519 H 533.969 -2.05394 3.33647 0
M  V30 5520 H 535.666 -1.76517 3.60059 0
M  V30 5521 H 532.256 -0.491008 4.25778 0
M  V30 5522 H 536.44 0.194436 4.95919 0
M  V30 5523 H 531.696 1.1438 6.00606 0
M  V30 5524 H 535.87 1.82519 6.72056 0
M  V30 5525 H 533.497 2.30593 7.24383 0
M  V30 5526 N 535.072 -1.5615 -0.213296 0
M  V30 5527 C 536.019 -1.93086 -1.26437 0
M  V30 5528 C 536.989 -0.789086 -1.4616 0
M  V30 5529 O 538.174 -1.04569 -1.59593 0
M  V30 5530 C 535.314 -2.26003 -2.608 0
M  V30 5531 C 534.427 -3.53156 -2.48807 0
M  V30 5532 C 533.562 -3.7548 -3.7575 0
M  V30 5533 C 532.601 -4.96119 -3.58514 0
M  V30 5534 N 531.738 -5.14791 -4.77425 0
M  V30 5535 H 536.578 -2.82707 -0.942376 0
M  V30 5536 H 534.115 -1.39919 -0.454001 0
M  V30 5537 H 536.073 -2.431 -3.39055 0
M  V30 5538 H 534.703 -1.39546 -2.91079 0
M  V30 5539 H 533.755 -3.44207 -1.61944 0
M  V30 5540 H 535.067 -4.41565 -2.31996 0
M  V30 5541 H 534.221 -3.92718 -4.62447 0
M  V30 5542 H 532.96 -2.85368 -3.95495 0
M  V30 5543 H 531.965 -4.78823 -2.70201 0
M  V30 5544 H 533.19 -5.87724 -3.40231 0
M  V30 5545 H 531.136 -4.27623 -4.97468 0
M  V30 5546 H 531.053 -5.97347 -4.63371 0
M  V30 5547 H 532.321 -5.36471 -5.65525 0
M  V30 5548 N 536.55 0.480323 -1.50102 0
M  V30 5549 C 537.513 1.56181 -1.6775 0
M  V30 5550 C 538.513 1.51156 -0.548503 0
M  V30 5551 O 539.703 1.5394 -0.815363 0
M  V30 5552 C 536.835 2.95823 -1.69415 0
M  V30 5553 H 538.028 1.41855 -2.6423 0
M  V30 5554 H 535.581 0.70605 -1.39444 0
M  V30 5555 H 536.316 3.15604 -0.745948 0
M  V30 5556 H 536.101 3.00878 -2.51425 0
M  V30 5557 H 537.591 3.74359 -1.85054 0
M  V30 5558 N 538.028 1.39524 0.732853 0
M  V30 5559 C 539.444 1.21176 1.03868 0
M  V30 5560 C 539.644 0.0748448 2.01361 0
M  V30 5561 O 538.7 -0.57281 2.45917 0
M  V30 5562 C 540.013 2.54667 1.59892 0
M  V30 5563 C 541.561 2.6153 1.71962 0
M  V30 5564 C 542.036 3.95248 2.31394 0
M  V30 5565 N 543.527 3.96899 2.38801 0
M  V30 5566 C 544.262 4.97138 2.85729 0
M  V30 5567 N 543.758 6.07775 3.32537 0
M  V30 5568 N 545.551 4.84516 2.84957 0
M  V30 5569 H 537.702 2.12225 0.086304 0
M  V30 5570 H 539.965 0.942614 0.100907 0
M  V30 5571 H 539.671 3.38423 0.95721 0
M  V30 5572 H 539.545 2.74538 2.58668 0
M  V30 5573 H 541.932 1.78156 2.35254 0
M  V30 5574 H 542.013 2.45507 0.718327 0
M  V30 5575 H 541.657 4.79054 1.68729 0
M  V30 5576 H 541.587 4.08593 3.32204 0
M  V30 5577 H 544.078 3.16998 2.05719 0
M  V30 5578 H 544.391 6.8017 3.66862 0
M  V30 5579 H 542.736 6.11366 3.30541 0
M  V30 5580 H 545.927 3.97185 2.47713 0
M  V30 5581 H 546.1 5.62783 3.21215 0
M  V30 5582 N 539.506 -0.963266 1.24736 0
M  V30 5583 C 540.453 -2.05857 1.04363 0
M  V30 5584 C 541.423 -1.6604 -0.0444951 0
M  V30 5585 O 542.608 -1.90477 0.110999 0
M  V30 5586 C 539.748 -3.38745 0.659235 0
M  V30 5587 C 538.861 -3.9173 1.82131 0
M  V30 5588 C 537.996 -5.12906 1.38208 0
M  V30 5589 C 537.035 -5.58098 2.51382 0
M  V30 5590 N 536.172 -6.7049 2.08295 0
M  V30 5591 H 541.012 -2.22616 1.98107 0
M  V30 5592 H 538.549 -1.09103 0.986661 0
M  V30 5593 H 540.507 -4.15107 0.417371 0
M  V30 5594 H 539.137 -3.21898 -0.241201 0
M  V30 5595 H 538.189 -3.11966 2.17672 0
M  V30 5596 H 539.501 -4.21225 2.67153 0
M  V30 5597 H 538.655 -5.96657 1.09935 0
M  V30 5598 H 537.394 -4.85105 0.502456 0
M  V30 5599 H 536.399 -4.72917 2.80409 0
M  V30 5600 H 537.624 -5.87911 3.39909 0
M  V30 5601 H 535.57 -6.44416 1.22737 0
M  V30 5602 H 535.487 -6.99458 2.86869 0
M  V30 5603 H 536.755 -7.57672 1.83175 0
M  V30 5604 N 540.985 -1.06182 -1.16461 0
M  V30 5605 C 542.21 -0.798599 -1.91408 0
M  V30 5606 C 542.635 0.640987 -1.76842 0
M  V30 5607 O 541.993 1.44652 -1.09296 0
M  V30 5608 C 542.041 -1.19665 -3.40165 0
M  V30 5609 O 541.145 -0.334768 -4.11039 0
M  V30 5610 H 540.486 -0.291961 -0.596368 0
M  V30 5611 H 543.016 -1.41732 -1.47557 0
M  V30 5612 H 543.026 -1.16772 -3.90933 0
M  V30 5613 H 541.701 -2.24526 -3.50087 0
M  V30 5614 H 540.278 -0.425168 -3.70468 0
M  V30 5615 N 542.463 1.3308 -0.844243 0
M  V30 5616 C 543.711 1.97215 -0.441676 0
M  V30 5617 C 544.032 1.67185 1.0037 0
M  V30 5618 O 543.302 0.973588 1.69994 0
M  V30 5619 H 541.882 0.72959 -0.160335 0
M  V30 5620 H 544.544 1.62348 -1.07838 0
M  V30 5621 H 543.64 3.06698 -0.57815 0
M  V30 5622 N 543.941 0.601185 1.45683 0
M  V30 5623 C 545.181 0.0968037 2.04171 0
M  V30 5624 C 545.545 -1.2466 1.46027 0
M  V30 5625 O 546.746 -1.84132 1.95829 0
M  V30 5626 C 545.017 0.051384 3.57363 0
M  V30 5627 S 546.576 -0.392737 4.37039 0
M  V30 5628 H 543.394 0.0464504 0.709481 0
M  V30 5629 H 545.996 0.797846 1.78479 0
M  V30 5630 H 544.7 1.03274 3.97193 0
M  V30 5631 H 544.231 -0.671853 3.87621 0
M  V30 5632 H 546.246 -1.64364 4.68187 0
M  V30 5633 N 545.419 -1.53889 0.339982 0
M  V30 5634 C 546.649 -2.04973 -0.258738 0
M  V30 5635 C 547.057 -1.21485 -1.45045 0
M  V30 5636 O 546.4 -0.2422 -1.82096 0
M  V30 5637 C 546.462 -3.51783 -0.740853 0
M  V30 5638 C 546.126 -4.55802 0.330734 0
M  V30 5639 C 547.123 -5.06512 1.17226 0
M  V30 5640 C 544.808 -4.99966 0.483637 0
M  V30 5641 C 546.802 -5.99963 2.15227 0
M  V30 5642 C 544.489 -5.93229 1.46704 0
M  V30 5643 C 545.487 -6.43115 2.29981 0
M  V30 5644 O 545.175 -7.34545 3.26649 0
M  V30 5645 H 544.907 -0.673807 -0.0544037 0
M  V30 5646 H 547.461 -1.99492 0.489107 0
M  V30 5647 H 545.691 -3.54717 -1.53988 0
M  V30 5648 H 547.38 -3.85857 -1.25973 0
M  V30 5649 H 548.146 -4.73158 1.0652 0
M  V30 5650 H 544.025 -4.6074 -0.15471 0
M  V30 5651 H 547.569 -6.38825 2.80265 0
M  V30 5652 H 543.466 -6.25998 1.57468 0
M  V30 5653 H 544.234 -7.52468 3.22078 0
M  V30 5654 N 546.897 -0.0685191 -1.57451 0
M  V30 5655 C 547.86 0.885173 -2.11417 0
M  V30 5656 C 548.86 1.22853 -1.03748 0
M  V30 5657 O 550.05 1.16235 -1.2975 0
M  V30 5658 C 547.182 2.18964 -2.61281 0
M  V30 5659 H 548.375 0.417034 -2.96986 0
M  V30 5660 H 545.928 0.18014 -1.55258 0
M  V30 5661 H 546.663 2.70321 -1.79156 0
M  V30 5662 H 546.448 1.9534 -3.39977 0
M  V30 5663 H 547.938 2.87242 -3.0312 0
M  V30 5664 N 548.375 1.56261 0.205012 0
M  V30 5665 C 549.338 1.92908 1.23771 0
M  V30 5666 C 550.338 0.809208 1.38955 0
M  V30 5667 O 551.528 1.07676 1.36936 0
M  V30 5668 C 548.66 2.19442 2.60879 0
M  V30 5669 H 549.853 2.85287 0.924728 0
M  V30 5670 H 547.406 1.49798 0.446125 0
M  V30 5671 H 548.141 1.29668 2.97248 0
M  V30 5672 H 547.926 3.0104 2.51232 0
M  V30 5673 H 549.416 2.48833 3.35368 0
M  V30 5674 N 549.853 -0.472356 1.50355 0
M  V30 5675 C 551.269 -0.806001 1.37753 0
M  V30 5676 C 551.469 -1.968 0.432649 0
M  V30 5677 O 550.525 -2.52189 -0.12519 0
M  V30 5678 C 551.838 -1.11926 2.79093 0
M  V30 5679 C 553.386 -1.22579 2.87999 0
M  V30 5680 C 553.861 -1.57218 4.3017 0
M  V30 5681 N 555.352 -1.64212 4.33115 0
M  V30 5682 C 556.087 -1.92517 5.40116 0
M  V30 5683 N 555.583 -2.1885 6.57325 0
M  V30 5684 N 557.376 -1.94008 5.27558 0
M  V30 5685 H 549.527 0.293451 2.10363 0
M  V30 5686 H 551.79 0.0687672 0.945503 0
M  V30 5687 H 551.496 -0.338504 3.50067 0
M  V30 5688 H 551.37 -2.05577 3.16256 0
M  V30 5689 H 553.757 -1.99722 2.17245 0
M  V30 5690 H 553.838 -0.269107 2.54381 0
M  V30 5691 H 553.482 -0.806154 5.01461 0
M  V30 5692 H 553.412 -2.54034 4.61275 0
M  V30 5693 H 555.903 -1.45906 3.48597 0
M  V30 5694 H 556.216 -2.39718 7.3468 0
M  V30 5695 H 554.561 -2.16245 6.60502 0
M  V30 5696 H 557.752 -1.72931 4.34986 0
M  V30 5697 H 557.925 -2.15731 6.11035 0
M  V30 5698 N 551.331 -1.39911 -0.725443 0
M  V30 5699 C 552.279 -1.39552 -1.86086 0
M  V30 5700 C 553.273 -0.277334 -1.67114 0
M  V30 5701 O 554.479 -0.447865 -1.74339 0
M  V30 5702 H 550.854 -0.435993 -0.612711 0
M  V30 5703 H 552.825 -2.35305 -1.83505 0
M  V30 5704 C 551.574 -1.26529 -3.2386 0
M  V30 5705 H 550.897 -2.11845 -3.3906 0
M  V30 5706 H 552.337 -1.30336 -4.03471 0
M  V30 5707 C 550.796 0.0254168 -3.3689 0
M  V30 5708 O 551.326 0.992048 -3.89257 0
M  V30 5709 N 549.532 0.0916528 -2.90455 0
M  V30 5710 H 549.079 -0.695675 -2.48028 0
M  V30 5711 H 549.037 0.954745 -2.99553 0
M  V30 5712 N 552.809 0.956637 -1.25245 0
M  V30 5713 C 554.055 1.70352 -1.10036 0
M  V30 5714 C 554.388 1.90869 0.358156 0
M  V30 5715 O 553.663 1.47819 1.26411 0
M  V30 5716 C 553.946 3.08766 -1.85298 0
M  V30 5717 C 553.799 2.95672 -3.38966 0
M  V30 5718 C 555.118 4.08622 -1.63451 0
M  V30 5719 H 552.237 0.618279 -0.401123 0
M  V30 5720 H 554.879 1.11212 -1.54051 0
M  V30 5721 H 553.029 3.59252 -1.47887 0
M  V30 5722 H 554.701 2.52527 -3.86041 0
M  V30 5723 H 552.944 2.31634 -3.6678 0
M  V30 5724 H 553.615 3.93776 -3.86839 0
M  V30 5725 H 556.091 3.67038 -1.96015 0
M  V30 5726 H 554.967 5.03514 -2.18551 0
M  V30 5727 H 555.228 4.3834 -0.575357 0
M  V30 5728 N 554.287 1.06798 1.15896 0
M  V30 5729 C 555.22 0.627503 2.19403 0
M  V30 5730 C 556.198 -0.352352 1.58736 0
M  V30 5731 O 557.382 -0.260111 1.86697 0
M  V30 5732 C 554.509 -0.079356 3.38607 0
M  V30 5733 C 553.555 0.858057 4.17779 0
M  V30 5734 S 554.388 2.35605 4.80885 0
M  V30 5735 C 555.544 1.66083 6.03463 0
M  V30 5736 H 555.777 1.50441 2.56427 0
M  V30 5737 H 553.31 0.881427 1.26768 0
M  V30 5738 H 555.268 -0.48095 4.07673 0
M  V30 5739 H 553.929 -0.932524 2.99938 0
M  V30 5740 H 553.122 0.310108 5.03045 0
M  V30 5741 H 552.724 1.19977 3.54234 0
M  V30 5742 H 555.016 0.969337 6.7053 0
M  V30 5743 H 555.959 2.49159 6.62816 0
M  V30 5744 H 556.367 1.14122 5.52844 0
M  V30 5745 N 555.766 -1.3263 0.851289 0
M  V30 5746 C 557.014 -1.96978 0.452128 0
M  V30 5747 C 557.335 -1.67715 -0.99482 0
M  V30 5748 O 556.605 -0.98259 -1.69476 0
M  V30 5749 H 555.185 -0.72873 0.164202 0
M  V30 5750 H 557.847 -1.61774 1.08698 0
M  V30 5751 H 556.943 -3.06387 0.594407 0
M  V30 5752 N 557.244 -0.608902 -1.45362 0
M  V30 5753 C 558.154 0.110969 -2.34337 0
M  V30 5754 C 559.17 0.859007 -1.51318 0
M  V30 5755 O 560.346 0.816296 -1.84116 0
M  V30 5756 C 557.411 1.09494 -3.28956 0
M  V30 5757 C 556.472 0.348718 -4.27881 0
M  V30 5758 C 555.705 1.28582 -5.17979 0
M  V30 5759 O 555.928 2.52369 -5.11533 0
M  V30 5760 O 554.862 0.782172 -5.96796 0
M  V30 5761 H 558.688 -0.620258 -2.97299 0
M  V30 5762 H 556.273 -0.36916 -1.44767 0
M  V30 5763 H 558.155 1.66163 -3.87257 0
M  V30 5764 H 556.83 1.80717 -2.68557 0
M  V30 5765 H 555.737 -0.260465 -3.73192 0
M  V30 5766 H 557.07 -0.323049 -4.91139 0
M  V30 5767 N 558.722 1.53707 -0.348139 0
M  V30 5768 C 559.669 2.25173 0.506518 0
M  V30 5769 C 560.639 1.25174 1.09182 0
M  V30 5770 O 561.824 1.53917 1.12757 0
M  V30 5771 C 558.964 3.03141 1.64923 0
M  V30 5772 C 558.077 4.18002 1.0908 0
M  V30 5773 C 557.212 4.83447 2.20119 0
M  V30 5774 C 556.251 5.90369 1.61651 0
M  V30 5775 N 555.388 6.49575 2.66451 0
M  V30 5776 H 560.228 2.97799 -0.109452 0
M  V30 5777 H 557.765 1.46953 -0.0657866 0
M  V30 5778 H 559.723 3.46607 2.32205 0
M  V30 5779 H 558.353 2.32803 2.23612 0
M  V30 5780 H 557.405 3.79145 0.308783 0
M  V30 5781 H 558.717 4.94892 0.623178 0
M  V30 5782 H 557.871 5.30008 2.95257 0
M  V30 5783 H 556.61 4.05991 2.70227 0
M  V30 5784 H 555.615 5.43186 0.850209 0
M  V30 5785 H 556.84 6.69735 1.1239 0
M  V30 5786 H 554.786 5.74981 3.15805 0
M  V30 5787 H 554.703 7.21952 2.24325 0
M  V30 5788 H 555.971 7.00789 3.41344 0
M  V30 5789 N 560.2 0.0768682 1.57412 0
M  V30 5790 C 561.449 -0.590679 1.92857 0
M  V30 5791 C 561.762 -1.70461 0.959293 0
M  V30 5792 O 562.968 -2.43207 1.20675 0
M  V30 5793 C 561.424 -1.10204 3.42612 0
M  V30 5794 C 561.032 -0.0188447 4.47996 0
M  V30 5795 C 562.776 -1.74336 3.87049 0
M  V30 5796 C 560.683 -0.544536 5.88888 0
M  V30 5797 H 559.613 -0.224411 0.71983 0
M  V30 5798 H 562.264 0.149924 1.82887 0
M  V30 5799 H 560.646 -1.89577 3.47673 0
M  V30 5800 H 561.82 0.755936 4.54557 0
M  V30 5801 H 560.135 0.526555 4.13057 0
M  V30 5802 H 562.732 -2.14708 4.89699 0
M  V30 5803 H 563.075 -2.60537 3.24694 0
M  V30 5804 H 563.608 -1.01577 3.84613 0
M  V30 5805 H 560.347 0.280426 6.549 0
M  V30 5806 H 559.867 -1.28673 5.85836 0
M  V30 5807 H 561.546 -1.01933 6.3892 0
M  V30 5808 N 561.678 -1.56367 -0.196722 0
M  V30 5809 C 562.903 -1.84991 -0.937714 0
M  V30 5810 C 563.328 -0.660244 -1.76132 0
M  V30 5811 O 562.686 0.390967 -1.77034 0
M  V30 5812 C 562.734 -3.11828 -1.81096 0
M  V30 5813 O 561.838 -2.92266 -2.90955 0
M  V30 5814 H 561.179 -0.609193 -0.264159 0
M  V30 5815 H 563.709 -2.03595 -0.202529 0
M  V30 5816 H 563.719 -3.42579 -2.21594 0
M  V30 5817 H 562.394 -3.98037 -1.2058 0
M  V30 5818 H 560.971 -2.72809 -2.54224 0
M  V30 5819 N 563.156 0.464375 -1.50603 0
M  V30 5820 C 564.386 1.23727 -1.65454 0
M  V30 5821 C 564.794 1.86119 -0.340032 0
M  V30 5822 O 564.137 1.70301 0.688706 0
M  V30 5823 C 564.199 2.38153 -2.69301 0
M  V30 5824 C 563.863 1.96345 -4.12671 0
M  V30 5825 C 564.86 1.48215 -4.98326 0
M  V30 5826 C 562.545 2.04861 -4.58625 0
M  V30 5827 C 564.539 1.09152 -6.27985 0
M  V30 5828 C 562.226 1.65409 -5.88288 0
M  V30 5829 C 563.224 1.17634 -6.72794 0
M  V30 5830 O 562.912 0.787312 -8.00035 0
M  V30 5831 H 562.644 0.380075 -0.559034 0
M  V30 5832 H 565.198 0.559919 -1.97621 0
M  V30 5833 H 563.428 3.09081 -2.32392 0
M  V30 5834 H 565.117 3.00099 -2.73304 0
M  V30 5835 H 565.883 1.41052 -4.64036 0
M  V30 5836 H 561.762 2.40996 -3.92991 0
M  V30 5837 H 565.306 0.717909 -6.93896 0
M  V30 5838 H 561.203 1.72233 -6.22098 0
M  V30 5839 H 561.971 0.915567 -8.13363 0
M  V30 5840 N 564.634 1.40294 0.718013 0
M  V30 5841 C 565.862 1.4175 1.50714 0
M  V30 5842 C 566.277 0.0165366 1.88793 0
M  V30 5843 O 565.634 -0.958942 1.55276 0
M  V30 5844 C 565.685 2.30598 2.784 0
M  V30 5845 O 565.406 3.6524 2.41932 0
M  V30 5846 C 566.907 2.4062 3.72313 0
M  V30 5847 H 564.127 0.483565 0.465194 0
M  V30 5848 H 566.671 1.84316 0.885889 0
M  V30 5849 H 564.826 1.91401 3.36815 0
M  V30 5850 H 565.24 4.12402 3.24076 0
M  V30 5851 H 566.714 3.07001 4.58753 0
M  V30 5852 H 567.191 1.4305 4.15251 0
M  V30 5853 H 567.797 2.80359 3.19811 0
M  V30 5854 N 566.112 -0.949982 1.2575 0
M  V30 5855 C 567.523 -1.50989 1.09815 0
M  V30 5856 C 567.874 -1.93497 -0.324556 0
M  V30 5857 O 566.999 -1.79068 -1.21506 0
M  V30 5858 C 567.594 -2.74394 1.98729 0
M  V30 5859 C 566.153 -3.26682 1.86965 0
M  V30 5860 C 565.3 -1.99498 1.92603 0
M  V30 5861 H 568.251 -0.766387 1.38968 0
M  V30 5862 H 568.272 -3.48383 1.53001 0
M  V30 5863 H 567.784 -2.43425 3.02268 0
M  V30 5864 H 565.885 -3.62461 0.863279 0
M  V30 5865 H 565.998 -3.94383 2.72027 0
M  V30 5866 H 564.362 -2.15005 1.36546 0
M  V30 5867 H 565.145 -1.70871 2.97755 0
M  V30 5868 N 567.59 -1.07411 -1.15328 0
M  V30 5869 C 568.537 -0.694995 -2.20087 0
M  V30 5870 C 569.507 0.313904 -1.63107 0
M  V30 5871 O 570.692 0.200216 -1.89747 0
M  V30 5872 C 567.832 -0.0996218 -3.44956 0
M  V30 5873 C 566.945 -1.16007 -4.16133 0
M  V30 5874 C 566.08 -0.529636 -5.28553 0
M  V30 5875 C 565.119 -1.57283 -5.91548 0
M  V30 5876 N 564.256 -0.964932 -6.95438 0
M  V30 5877 H 569.096 -1.5927 -2.51867 0
M  V30 5878 H 566.633 -0.796115 -1.23695 0
M  V30 5879 H 568.591 0.263197 -4.16369 0
M  V30 5880 H 567.221 0.761435 -3.13691 0
M  V30 5881 H 566.273 -1.64045 -3.4321 0
M  V30 5882 H 567.585 -1.95101 -4.59061 0
M  V30 5883 H 566.739 -0.114487 -6.06592 0
M  V30 5884 H 565.478 0.29307 -4.86819 0
M  V30 5885 H 564.483 -1.99775 -5.12221 0
M  V30 5886 H 565.708 -2.39783 -6.35359 0
M  V30 5887 H 563.654 -0.16314 -6.55797 0
M  V30 5888 H 563.571 -1.69311 -7.36797 0
M  V30 5889 H 564.839 -0.575305 -7.77374 0
M  V30 5890 N 569.068 1.32177 -0.85831 0
M  V30 5891 C 570.016 2.30729 -0.294442 0
M  V30 5892 C 571.01 1.59009 0.584165 0
M  V30 5893 O 572.216 1.73713 0.471562 0
M  V30 5894 H 568.591 0.748097 -0.0765171 0
M  V30 5895 H 570.562 2.75774 -1.1398 0
M  V30 5896 C 569.311 3.44098 0.499208 0
M  V30 5897 H 568.634 3.99449 -0.167579 0
M  V30 5898 H 570.074 4.15202 0.859273 0
M  V30 5899 C 568.533 2.91684 1.68588 0
M  V30 5900 O 569.063 2.89481 2.78503 0
M  V30 5901 N 567.269 2.48036 1.51415 0
M  V30 5902 H 566.816 2.50027 0.620006 0
M  V30 5903 H 566.774 2.13322 2.30957 0
M  V30 5904 N 570.547 0.616602 1.45037 0
M  V30 5905 C 571.777 0.121791 2.06241 0
M  V30 5906 C 572.185 -1.20289 1.46038 0
M  V30 5907 O 571.528 -1.7456 0.572242 0
M  V30 5908 C 571.59 -0.0827345 3.59405 0
M  V30 5909 C 571.254 1.16153 4.41993 0
M  V30 5910 C 572.251 2.08183 4.76399 0
M  V30 5911 C 569.936 1.39288 4.82601 0
M  V30 5912 C 571.93 3.21668 5.5028 0
M  V30 5913 C 569.617 2.53073 5.56235 0
M  V30 5914 C 570.615 3.44091 5.89992 0
M  V30 5915 O 570.303 4.55894 6.6213 0
M  V30 5916 H 570.035 0.0701667 0.672349 0
M  V30 5917 H 572.589 0.846877 1.87129 0
M  V30 5918 H 570.819 -0.862812 3.76952 0
M  V30 5919 H 572.508 -0.530273 4.02421 0
M  V30 5920 H 573.274 1.91538 4.45576 0
M  V30 5921 H 569.153 0.693396 4.55755 0
M  V30 5922 H 572.697 3.92733 5.76547 0
M  V30 5923 H 568.594 2.69667 5.86472 0
M  V30 5924 H 569.362 4.5469 6.80587 0
M  V30 5925 N 572.025 -1.5352 0.356285 0
M  V30 5926 C 573.436 -1.86282 -0.12492 0
M  V30 5927 C 573.787 -1.27717 -1.48939 0
M  V30 5928 O 572.912 -0.595614 -2.08042 0
M  V30 5929 C 573.507 -3.37995 -0.23345 0
M  V30 5930 C 572.066 -3.70588 -0.658899 0
M  V30 5931 C 571.213 -2.76581 0.199596 0
M  V30 5932 H 574.164 -1.47901 0.575423 0
M  V30 5933 H 574.185 -3.65475 -1.0587 0
M  V30 5934 H 573.697 -3.8059 0.759776 0
M  V30 5935 H 571.798 -3.33544 -1.66069 0
M  V30 5936 H 571.911 -4.77076 -0.439957 0
M  V30 5937 H 570.275 -2.52552 -0.330076 0
M  V30 5938 H 571.058 -3.22008 1.19019 0
M  V30 5939 N 573.503 -0.0852151 -1.57369 0
M  V30 5940 C 574.78 0.622534 -1.85429 0
M  V30 5941 C 575.16 1.86962 -0.980229 0
M  V30 5942 O 574.508 2.28445 -0.0500219 0
M  V30 5943 C 574.718 0.947374 -3.35896 0
M  V30 5944 C 576.066 1.31509 -4.03721 0
M  V30 5945 O 577.09 1.03869 -3.40719 0
M  V30 5946 O 575.949 1.83231 -5.14868 0
M  V30 5947 H 573.043 0.310513 -0.766492 0
M  V30 5948 H 575.589 -0.117164 -1.69295 0
M  V30 5949 H 574.361 0.0622264 -3.91251 0
M  V30 5950 H 573.984 1.74338 -3.5734 0
M  V30 5951 N 574.981 1.5647 0.188427 0
M  V30 5952 C 576.228 1.81013 0.907779 0
M  V30 5953 C 576.556 0.65953 1.82977 0
M  V30 5954 O 575.811 -0.354308 1.92466 0
M  V30 5955 C 576.11 3.11596 1.7505 0
M  V30 5956 C 575.776 4.40145 0.978922 0
M  V30 5957 C 574.438 4.75066 0.765912 0
M  V30 5958 C 576.79 5.19369 0.436498 0
M  V30 5959 C 574.118 5.867 -0.00089868 0
M  V30 5960 C 576.47 6.31805 -0.317136 0
M  V30 5961 C 575.134 6.65303 -0.541103 0
M  V30 5962 H 574.404 0.662373 0.33218 0
M  V30 5963 H 577.051 1.9071 0.173732 0
M  V30 5964 H 575.356 2.97165 2.55343 0
M  V30 5965 H 577.053 3.27793 2.30983 0
M  V30 5966 H 573.643 4.12745 1.15497 0
M  V30 5967 H 577.827 4.92799 0.588449 0
M  V30 5968 H 573.083 6.11122 -0.184329 0
M  V30 5969 H 577.257 6.92406 -0.744788 0
M  V30 5970 H 574.884 7.51646 -1.13718 0
M  V30 5971 N 576.459 -0.456382 1.50847 0
M  V30 5972 C 577.389 -1.56025 1.73719 0
M  V30 5973 C 578.37 -1.5967 0.586473 0
M  V30 5974 O 579.555 -1.75702 0.827185 0
M  V30 5975 C 576.685 -2.94251 1.84483 0
M  V30 5976 C 575.639 -3.05471 2.99786 0
M  V30 5977 C 574.965 -4.45489 2.95709 0
M  V30 5978 C 576.265 -2.81318 4.40065 0
M  V30 5979 H 577.959 -1.37138 2.66146 0
M  V30 5980 H 575.505 -0.658299 1.28072 0
M  V30 5981 H 577.458 -3.71417 1.99067 0
M  V30 5982 H 576.182 -3.14328 0.886891 0
M  V30 5983 H 574.841 -2.30741 2.84876 0
M  V30 5984 H 574.489 -4.62505 1.97732 0
M  V30 5985 H 574.189 -4.53929 3.73125 0
M  V30 5986 H 575.713 -5.24655 3.12362 0
M  V30 5987 H 577.127 -3.48226 4.55425 0
M  V30 5988 H 575.524 -3.01188 5.19043 0
M  V30 5989 H 576.594 -1.7706 4.51418 0
M  V30 5990 N 577.937 -1.40673 -0.710563 0
M  V30 5991 C 578.887 -1.37812 -1.81636 0
M  V30 5992 C 579.871 -0.254853 -1.58869 0
M  V30 5993 O 581.063 -0.494356 -1.69956 0
M  V30 5994 C 578.192 -1.24802 -3.19811 0
M  V30 5995 C 577.278 -2.41931 -3.48325 0
M  V30 5996 N 577.669 -3.67411 -3.47625 0
M  V30 5997 C 575.967 -2.35419 -3.78806 0
M  V30 5998 C 576.668 -4.45008 -3.74623 0
M  V30 5999 N 575.644 -3.74916 -3.93623 0
M  V30 6000 H 579.446 -2.32766 -1.79436 0
M  V30 6001 H 576.96 -1.34516 -0.909909 0
M  V30 6002 H 578.957 -1.20835 -3.99004 0
M  V30 6003 H 577.617 -0.308202 -3.23234 0
M  V30 6004 H 578.628 -4.00503 -3.28356 0
M  V30 6005 H 575.305 -1.4983 -3.89689 0
M  V30 6006 H 576.695 -5.53884 -3.80344 0
M  V30 6007 N 579.415 0.9433 -1.26252 0
M  V30 6008 C 580.643 1.72367 -1.14443 0
M  V30 6009 C 581.058 1.86392 0.300572 0
M  V30 6010 O 580.415 1.36978 1.20596 0
M  V30 6011 C 580.466 3.13155 -1.806 0
M  V30 6012 O 580.187 2.99803 -3.19452 0
M  V30 6013 C 581.688 4.07417 -1.74717 0
M  V30 6014 H 578.908 0.539758 -0.398626 0
M  V30 6015 H 581.452 1.18268 -1.66832 0
M  V30 6016 H 579.607 3.64162 -1.32154 0
M  V30 6017 H 580.021 3.88697 -3.52158 0
M  V30 6018 H 581.495 5.03773 -2.25647 0
M  V30 6019 H 581.972 4.3337 -0.713244 0
M  V30 6020 H 582.578 3.6233 -2.22704 0
M  V30 6021 N 580.893 1.08022 1.14757 0
M  V30 6022 C 581.843 0.676345 2.17737 0
M  V30 6023 C 582.827 -0.302018 1.5804 0
M  V30 6024 O 584.019 -0.11466 1.76628 0
M  V30 6025 C 581.148 0.082984 3.432 0
M  V30 6026 C 580.234 1.0869 4.09936 0
M  V30 6027 N 580.625 2.26891 4.52055 0
M  V30 6028 C 578.923 0.921768 4.36371 0
M  V30 6029 C 579.624 2.90636 5.0389 0
M  V30 6030 N 578.6 2.18266 4.97856 0
M  V30 6031 H 582.402 1.5765 2.4804 0
M  V30 6032 H 579.916 0.954374 1.31398 0
M  V30 6033 H 581.913 -0.224289 4.16296 0
M  V30 6034 H 580.573 -0.812206 3.14378 0
M  V30 6035 H 581.584 2.6457 4.45223 0
M  V30 6036 H 578.261 0.0800499 4.17423 0
M  V30 6037 H 579.651 3.9104 5.46386 0
M  V30 6038 N 582.371 -1.3172 0.865308 0
M  V30 6039 C 583.601 -2.00765 0.487543 0
M  V30 6040 C 584.009 -1.65145 -0.92325 0
M  V30 6041 O 583.352 -0.874294 -1.61561 0
M  V30 6042 C 583.414 -3.55122 0.559369 0
M  V30 6043 C 583.078 -4.14202 1.93095 0
M  V30 6044 C 584.075 -4.3165 2.89784 0
M  V30 6045 C 581.76 -4.50036 2.23099 0
M  V30 6046 C 583.754 -4.84114 4.14623 0
M  V30 6047 C 581.441 -5.02203 3.48189 0
M  V30 6048 C 582.439 -5.19192 4.43767 0
M  V30 6049 O 582.127 -5.70241 5.6664 0
M  V30 6050 H 581.859 -0.649066 0.188915 0
M  V30 6051 H 584.413 -1.69032 1.16694 0
M  V30 6052 H 582.643 -3.86295 -0.176926 0
M  V30 6053 H 584.332 -4.05428 0.195694 0
M  V30 6054 H 585.098 -4.04288 2.6791 0
M  V30 6055 H 580.977 -4.36091 1.49485 0
M  V30 6056 H 584.521 -4.9729 4.89233 0
M  V30 6057 H 580.418 -5.28997 3.69908 0
M  V30 6058 H 581.186 -5.88617 5.68746 0
M  V30 6059 N 583.85 -0.624285 -1.44708 0
M  V30 6060 C 584.76 0.0861083 -2.34442 0
M  V30 6061 C 585.776 0.84291 -1.5222 0
M  V30 6062 O 586.952 0.796723 -1.84971 0
M  V30 6063 C 584.017 1.05999 -3.30099 0
M  V30 6064 C 583.077 0.303316 -4.28227 0
M  V30 6065 C 582.311 1.23081 -5.19314 0
M  V30 6066 O 582.534 2.46929 -5.14181 0
M  V30 6067 O 581.468 0.71883 -5.97592 0
M  V30 6068 H 585.293 -0.651756 -2.96624 0
M  V30 6069 H 582.879 -0.384493 -1.44368 0
M  V30 6070 H 584.76 1.62046 -3.88997 0
M  V30 6071 H 583.436 1.77859 -2.70459 0
M  V30 6072 H 582.343 -0.300033 -3.72895 0
M  V30 6073 H 583.676 -0.375123 -4.90768 0
M  V30 6074 N 585.328 1.53329 -0.364422 0
M  V30 6075 C 586.574 2.01537 0.225969 0
M  V30 6076 C 586.907 1.25128 1.48515 0
M  V30 6077 O 586.182 0.344653 1.91422 0
M  V30 6078 C 586.465 3.56339 0.519092 0
M  V30 6079 C 586.318 4.43441 -0.753639 0
M  V30 6080 C 587.637 4.19833 1.32015 0
M  V30 6081 H 584.756 0.732573 0.0806548 0
M  V30 6082 H 587.398 1.83597 -0.489084 0
M  V30 6083 H 585.548 3.71756 1.12825 0
M  V30 6084 H 587.22 4.39823 -1.39116 0
M  V30 6085 H 585.463 4.11457 -1.37424 0
M  V30 6086 H 586.134 5.49699 -0.503517 0
M  V30 6087 H 588.61 4.08242 0.804859 0
M  V30 6088 H 587.486 5.28177 1.49399 0
M  V30 6089 H 587.747 3.75821 2.32832 0
M  V30 6090 N 586.806 0.0935595 1.57322 0
M  V30 6091 C 588.031 -0.582324 1.99057 0
M  V30 6092 C 588.456 -1.61025 0.972242 0
M  V30 6093 O 587.814 -1.81202 -0.0594622 0
M  V30 6094 C 587.862 -1.20799 3.39765 0
M  V30 6095 O 586.966 -2.32382 3.40694 0
M  V30 6096 H 586.307 -0.147884 0.647323 0
M  V30 6097 H 588.837 0.174516 2.03854 0
M  V30 6098 H 588.847 -1.54966 3.77425 0
M  V30 6099 H 587.522 -0.454914 4.13405 0
M  V30 6100 H 586.099 -1.99845 3.14827 0
M  V30 6101 N 588.284 -1.56567 -0.180126 0
M  V30 6102 C 589.531 -1.81492 -0.898167 0
M  V30 6103 C 589.859 -0.669225 -1.82624 0
M  V30 6104 O 589.114 0.344096 -1.92651 0
M  V30 6105 C 589.413 -3.1252 -1.73395 0
M  V30 6106 C 589.079 -4.40658 -0.955567 0
M  V30 6107 C 587.741 -4.75465 -0.740707 0
M  V30 6108 C 590.093 -5.19593 -0.408948 0
M  V30 6109 C 587.421 -5.86691 0.0320128 0
M  V30 6110 C 589.773 -6.31627 0.350638 0
M  V30 6111 C 588.437 -6.65007 0.576378 0
M  V30 6112 H 587.707 -0.664125 -0.328662 0
M  V30 6113 H 590.354 -1.908 -0.163616 0
M  V30 6114 H 588.659 -2.98515 -2.53763 0
M  V30 6115 H 590.356 -3.29013 -2.29241 0
M  V30 6116 H 586.946 -4.13352 -1.13306 0
M  V30 6117 H 591.13 -4.93104 -0.562307 0
M  V30 6118 H 586.386 -6.11016 0.216735 0
M  V30 6119 H 590.56 -6.92001 0.781497 0
M  V30 6120 H 588.187 -7.51033 1.17703 0
M  V30 6121 N 589.762 0.448376 -1.51087 0
M  V30 6122 C 590.692 1.55102 -1.74544 0
M  V30 6123 C 591.673 1.59357 -0.594932 0
M  V30 6124 O 592.858 1.75261 -0.836491 0
M  V30 6125 C 589.988 2.93268 -1.86041 0
M  V30 6126 C 588.942 3.03877 -3.01402 0
M  V30 6127 C 588.268 4.43914 -2.98068 0
M  V30 6128 C 589.568 2.7898 -4.41551 0
M  V30 6129 H 591.262 1.35724 -2.66869 0
M  V30 6130 H 588.808 0.651498 -1.28419 0
M  V30 6131 H 590.761 3.70356 -2.01034 0
M  V30 6132 H 589.485 3.13853 -0.903548 0
M  V30 6133 H 588.144 2.29227 -2.86096 0
M  V30 6134 H 587.792 4.6145 -2.00182 0
M  V30 6135 H 587.492 4.51944 -3.75527 0
M  V30 6136 H 589.016 5.22991 -3.1514 0
M  V30 6137 H 590.43 3.45805 -4.57265 0
M  V30 6138 H 588.827 2.98431 -5.20633 0
M  V30 6139 H 589.897 1.74663 -4.5235 0
M  V30 6140 N 591.24 1.41047 0.703093 0
M  V30 6141 C 592.488 1.39723 1.4602 0
M  V30 6142 C 592.809 0.00461257 1.94999 0
M  V30 6143 O 592.079 -0.952292 1.71196 0
M  V30 6144 H 590.659 0.514281 0.541779 0
M  V30 6145 H 593.321 1.76217 0.832678 0
M  V30 6146 H 592.417 2.07982 2.32701 0
M  V30 6147 N 592.718 -0.936591 1.26751 0
M  V30 6148 C 593.651 -2.03619 1.03027 0
M  V30 6149 C 594.629 -1.62534 -0.0464619 0
M  V30 6150 O 595.813 -1.88251 0.0968873 0
M  V30 6151 C 592.94 -3.3402 0.561072 0
M  V30 6152 C 591.986 -3.9408 1.63105 0
M  V30 6153 S 592.819 -4.27782 3.22122 0
M  V30 6154 C 593.975 -5.61277 2.76982 0
M  V30 6155 H 594.208 -2.23429 1.96129 0
M  V30 6156 H 591.741 -1.07857 1.10482 0
M  V30 6157 H 593.699 -4.09424 0.297031 0
M  V30 6158 H 592.36 -3.12147 -0.349741 0
M  V30 6159 H 591.553 -4.88154 1.25386 0
M  V30 6160 H 591.155 -3.25227 1.84671 0
M  V30 6161 H 593.447 -6.40189 2.21731 0
M  V30 6162 H 594.39 -6.03887 3.69766 0
M  V30 6163 H 594.798 -5.21374 2.16402 0
M  V30 6164 N 594.196 -1.08629 -1.14182 0
M  V30 6165 C 595.444 -0.815731 -1.84906 0
M  V30 6166 C 595.765 0.660441 -1.83475 0
M  V30 6167 O 595.035 1.47888 -1.28476 0
M  V30 6168 H 593.615 -0.298773 -0.684648 0
M  V30 6169 H 596.277 -1.37274 -1.38354 0
M  V30 6170 H 595.373 -1.16193 -2.89665 0
M  V30 6171 N 595.674 1.31259 -0.872281 0
M  V30 6172 C 596.584 2.32221 -0.333255 0
M  V30 6173 C 597.6 1.6481 0.558013 0
M  V30 6174 O 598.776 1.96212 0.454175 0
M  V30 6175 C 595.841 3.43708 0.454479 0
M  V30 6176 C 594.902 4.26774 -0.465024 0
M  V30 6177 C 594.135 5.32937 0.28521 0
M  V30 6178 O 594.358 5.49968 1.513 0
M  V30 6179 O 593.292 6.00834 -0.358126 0
M  V30 6180 H 597.118 2.80252 -1.17016 0
M  V30 6181 H 594.703 1.352 -0.635724 0
M  V30 6182 H 596.585 4.11656 0.900963 0
M  V30 6183 H 595.26 2.97836 1.26789 0
M  V30 6184 H 594.167 3.61571 -0.960055 0
M  V30 6185 H 595.5 4.76217 -1.2441 0
M  V30 6186 N 597.152 0.631951 1.44375 0
M  V30 6187 C 598.062 -0.073674 2.34484 0
M  V30 6188 C 599.078 -0.834825 1.52665 0
M  V30 6189 O 600.254 -0.786902 1.85391 0
M  V30 6190 C 597.319 -1.04247 3.30656 0
M  V30 6191 C 596.38 -0.280602 4.28382 0
M  V30 6192 C 595.613 -1.20325 5.19959 0
M  V30 6193 O 595.836 -2.44199 5.15484 0
M  V30 6194 O 594.77 -0.687128 5.97965 0
M  V30 6195 H 598.596 0.667477 2.96274 0
M  V30 6196 H 596.181 0.392144 1.44162 0
M  V30 6197 H 598.063 -1.59981 3.89851 0
M  V30 6198 H 596.738 -1.76422 2.71398 0
M  V30 6199 H 595.645 0.319804 3.72731 0
M  V30 6200 H 596.978 0.401144 4.90563 0
M  V30 6201 N 598.631 -1.53133 0.372548 0
M  V30 6202 C 599.541 -2.29671 -0.478379 0
M  V30 6203 C 600.557 -1.35913 -1.08644 0
M  V30 6204 O 601.733 -1.68975 -1.09588 0
M  V30 6205 C 598.798 -3.07625 -1.599 0
M  V30 6206 C 597.859 -4.17061 -1.01776 0
M  V30 6207 C 597.092 -4.91289 -2.08497 0
M  V30 6208 O 597.315 -4.65442 -3.29727 0
M  V30 6209 O 596.249 -5.7705 -1.71164 0
M  V30 6210 H 600.075 -3.03355 0.144649 0
M  V30 6211 H 597.66 -1.48773 0.136729 0
M  V30 6212 H 599.542 -3.56281 -2.25038 0
M  V30 6213 H 598.217 -2.3677 -2.2073 0
M  V30 6214 H 597.124 -3.72641 -0.330098 0
M  V30 6215 H 598.457 -4.90102 -0.453915 0
M  V30 6216 N 600.109 -0.101901 -1.5727 0
M  V30 6217 C 601.072 0.840129 -2.13247 0
M  V30 6218 C 602.072 1.20625 -1.06331 0
M  V30 6219 O 603.262 1.13456 -1.32186 0
M  V30 6220 C 600.394 2.13372 -2.65867 0
M  V30 6221 H 601.587 0.353945 -2.97804 0
M  V30 6222 H 599.14 0.147167 -1.55606 0
M  V30 6223 H 599.875 2.66461 -1.84849 0
M  V30 6224 H 599.66 1.88085 -3.44044 0
M  V30 6225 H 601.15 2.80748 -3.09145 0
M  V30 6226 N 601.587 1.56661 0.17182 0
M  V30 6227 C 603.003 1.50768 0.52357 0
M  V30 6228 C 603.203 0.806072 1.84675 0
M  V30 6229 O 602.259 0.366233 2.4983 0
M  V30 6230 C 603.572 2.955 0.556793 0
M  V30 6231 C 605.12 3.06303 0.644029 0
M  V30 6232 C 605.595 4.52492 0.708148 0
M  V30 6233 N 607.086 4.56737 0.771051 0
M  V30 6234 C 607.821 5.67196 0.841229 0
M  V30 6235 N 607.317 6.87287 0.872272 0
M  V30 6236 N 609.11 5.55165 0.88021 0
M  V30 6237 H 601.261 2.00679 -0.695817 0
M  V30 6238 H 603.524 0.914219 -0.250814 0
M  V30 6239 H 603.23 3.49986 -0.346774 0
M  V30 6240 H 603.104 3.50119 1.40346 0
M  V30 6241 H 605.491 2.51851 1.53802 0
M  V30 6242 H 605.572 2.5477 -0.229297 0
M  V30 6243 H 605.216 5.07575 -0.181585 0
M  V30 6244 H 605.146 5.01781 1.59761 0
M  V30 6245 H 607.637 3.70274 0.755364 0
M  V30 6246 H 607.95 7.6722 0.92698 0
M  V30 6247 H 606.295 6.89898 0.840557 0
M  V30 6248 H 609.486 4.60263 0.852956 0
M  V30 6249 H 609.659 6.41271 0.931439 0
M  V30 6250 N 603.065 -0.440357 1.51323 0
M  V30 6251 C 604.028 -1.51679 1.71832 0
M  V30 6252 C 605.028 -1.49648 0.588386 0
M  V30 6253 O 606.218 -1.51724 0.855891 0
M  V30 6254 C 603.35 -2.91228 1.77199 0
M  V30 6255 H 604.543 -1.34799 2.67898 0
M  V30 6256 H 602.096 -0.66883 1.41267 0
M  V30 6257 H 602.831 -3.13516 0.829363 0
M  V30 6258 H 602.616 -2.94107 2.59314 0
M  V30 6259 H 604.106 -3.69321 1.94915 0
M  V30 6260 N 604.543 -1.41418 -0.695603 0
M  V30 6261 C 605.506 -1.42988 -1.79129 0
M  V30 6262 C 606.506 -0.320514 -1.57573 0
M  V30 6263 O 607.696 -0.58039 -1.64247 0
M  V30 6264 C 604.828 -1.24122 -3.175 0
M  V30 6265 H 606.021 -2.40526 -1.7913 0
M  V30 6266 H 603.574 -1.2756 -0.903225 0
M  V30 6267 H 604.309 -0.274253 -3.23138 0
M  V30 6268 H 604.094 -2.045 -3.34547 0
M  V30 6269 H 605.584 -1.28056 -3.97481 0
M  V30 6270 N 606.021 0.929856 -1.27246 0
M  V30 6271 C 607.269 1.674 -1.13233 0
M  V30 6272 C 607.59 1.92311 0.322744 0
M  V30 6273 O 606.86 1.52784 1.22612 0
M  V30 6274 H 605.44 0.620411 -0.416052 0
M  V30 6275 H 608.102 1.11663 -1.59741 0
M  V30 6276 H 607.198 2.64308 -1.65975 0
M  V30 6277 N 607.499 1.09233 1.13605 0
M  V30 6278 C 608.449 0.6994 2.17008 0
M  V30 6279 C 609.433 -0.285238 1.58352 0
M  V30 6280 O 610.625 -0.09592 1.7674 0
M  V30 6281 C 607.754 0.11938 3.43092 0
M  V30 6282 C 606.84 1.13031 4.0876 0
M  V30 6283 N 607.231 2.31673 4.49623 0
M  V30 6284 C 605.529 0.967999 4.35369 0
M  V30 6285 C 606.23 2.95964 5.00779 0
M  V30 6286 N 605.206 2.23534 4.95513 0
M  V30 6287 H 609.008 1.60272 2.46354 0
M  V30 6288 H 606.522 0.968257 1.30378 0
M  V30 6289 H 608.519 -0.180122 4.16511 0
M  V30 6290 H 607.179 -0.778816 3.15221 0
M  V30 6291 H 608.19 2.69277 4.42391 0
M  V30 6292 H 604.867 0.124319 4.17315 0
M  V30 6293 H 606.257 3.96813 5.42208 0
M  V30 6294 N 608.977 -1.30795 0.87923 0
M  V30 6295 C 609.887 -2.32041 0.345565 0
M  V30 6296 C 610.903 -1.65103 -0.549265 0
M  V30 6297 O 612.079 -1.9645 -0.443763 0
M  V30 6298 C 609.144 -3.43944 -0.436245 0
M  V30 6299 C 608.205 -4.26521 0.48765 0
M  V30 6300 C 607.438 -5.33081 -0.256943 0
M  V30 6301 O 607.661 -5.50762 -1.48381 0
M  V30 6302 O 606.595 -6.00635 0.389985 0
M  V30 6303 H 610.421 -2.79627 1.18501 0
M  V30 6304 H 608.006 -1.3486 0.642885 0
M  V30 6305 H 609.888 -4.12128 -0.879119 0
M  V30 6306 H 608.563 -2.98504 -1.25208 0
M  V30 6307 H 607.47 -3.61057 0.979216 0
M  V30 6308 H 608.803 -4.75551 1.26933 0
M  V30 6309 N 610.455 -0.639598 -1.44038 0
M  V30 6310 C 611.704 -0.144885 -2.01179 0
M  V30 6311 C 612.017 1.24372 -1.50967 0
M  V30 6312 O 613.223 1.83291 -2.00292 0
M  V30 6313 C 611.679 -0.208244 -3.59297 0
M  V30 6314 C 611.287 -1.59869 -4.18504 0
M  V30 6315 C 613.031 0.229568 -4.23879 0
M  V30 6316 C 610.938 -1.61671 -5.68873 0
M  V30 6317 H 609.868 -0.0504005 -0.752314 0
M  V30 6318 H 612.519 -0.799639 -1.65161 0
M  V30 6319 H 610.901 0.513767 -3.92653 0
M  V30 6320 H 612.075 -2.34496 -3.96671 0
M  V30 6321 H 610.39 -1.98131 -3.66242 0
M  V30 6322 H 612.987 0.235758 -5.3418 0
M  V30 6323 H 613.33 1.25848 -3.96822 0
M  V30 6324 H 613.863 -0.440233 -3.95357 0
M  V30 6325 H 610.602 -2.62427 -6.00677 0
M  V30 6326 H 610.122 -0.913489 -5.92803 0
M  V30 6327 H 611.801 -1.35439 -6.32665 0
M  V30 6328 N 611.933 1.52934 -0.380664 0
M  V30 6329 C 613.179 2.01765 0.20458 0
M  V30 6330 C 613.512 1.26696 1.47179 0
M  V30 6331 O 612.787 0.364936 1.91046 0
M  V30 6332 C 613.07 3.56869 0.481269 0
M  V30 6333 C 612.923 4.42617 -0.800629 0
M  V30 6334 C 614.242 4.2121 1.27554 0
M  V30 6335 H 611.361 0.733388 0.0728803 0
M  V30 6336 H 614.003 1.83068 -0.50853 0
M  V30 6337 H 612.153 3.72932 1.08875 0
M  V30 6338 H 613.825 4.38323 -1.43773 0
M  V30 6339 H 612.068 4.09977 -1.4178 0
M  V30 6340 H 612.739 5.49134 -0.561791 0
M  V30 6341 H 615.215 4.09072 0.761514 0
M  V30 6342 H 614.091 5.29732 1.43788 0
M  V30 6343 H 614.352 3.78269 2.28833 0
M  V30 6344 N 613.412 0.11024 1.57214 0
M  V30 6345 C 614.64 -0.557834 1.99238 0
M  V30 6346 C 615.055 -1.60778 0.989734 0
M  V30 6347 O 614.412 -1.82491 -0.0186092 0
M  V30 6348 C 614.463 -1.19189 3.41286 0
M  V30 6349 O 614.184 -0.183919 4.37714 0
M  V30 6350 C 615.685 -1.94413 3.98395 0
M  V30 6351 H 612.905 -0.148392 0.654386 0
M  V30 6352 H 615.449 0.193996 2.03578 0
M  V30 6353 H 613.604 -1.89456 3.37913 0
M  V30 6354 H 614.018 -0.643475 5.20538 0
M  V30 6355 H 615.492 -2.34116 4.99894 0
M  V30 6356 H 615.969 -2.81592 3.3705 0
M  V30 6357 H 616.575 -1.28928 4.05287 0
M  V30 6358 N 614.89 -1.56749 -0.16351 0
M  V30 6359 C 616.139 -1.81626 -0.877211 0
M  V30 6360 C 616.452 -0.688791 -1.83071 0
M  V30 6361 O 617.658 -0.822697 -2.58735 0
M  V30 6362 C 616.114 -3.21858 -1.61045 0
M  V30 6363 C 615.722 -4.42494 -0.700195 0
M  V30 6364 C 617.466 -3.56021 -2.31192 0
M  V30 6365 C 615.373 -5.73748 -1.43412 0
M  V30 6366 H 614.303 -0.67731 -0.331312 0
M  V30 6367 H 616.954 -1.83039 -0.13006 0
M  V30 6368 H 615.336 -3.14784 -2.40264 0
M  V30 6369 H 616.51 -4.60766 0.0555849 0
M  V30 6370 H 614.825 -4.1626 -0.10799 0
M  V30 6371 H 617.422 -4.51333 -2.8671 0
M  V30 6372 H 617.765 -2.81277 -3.06902 0
M  V30 6373 H 618.298 -3.64682 -1.58909 0
M  V30 6374 H 615.037 -6.51543 -0.719186 0
M  V30 6375 H 614.557 -5.5944 -2.16302 0
M  V30 6376 H 616.236 -6.15975 -1.9795 0
M  V30 6377 N 616.368 0.432326 -1.51554 0
M  V30 6378 C 617.315 1.52512 -1.7323 0
M  V30 6379 C 618.285 1.55863 -0.5741 0
M  V30 6380 O 619.47 1.72796 -0.809093 0
M  V30 6381 C 616.61 2.90183 -1.86783 0
M  V30 6382 C 615.723 2.96322 -3.14352 0
M  V30 6383 C 614.858 4.25147 -3.18471 0
M  V30 6384 C 613.897 4.25172 -4.40335 0
M  V30 6385 N 613.034 5.45529 -4.41975 0
M  V30 6386 H 617.874 1.33332 -2.66508 0
M  V30 6387 H 615.411 0.647613 -1.32077 0
M  V30 6388 H 617.369 3.70071 -1.92623 0
M  V30 6389 H 615.999 3.0791 -0.969087 0
M  V30 6390 H 615.051 2.09066 -3.17798 0
M  V30 6391 H 616.363 2.92203 -4.04251 0
M  V30 6392 H 615.517 5.13411 -3.23255 0
M  V30 6393 H 614.256 4.31929 -2.2647 0
M  V30 6394 H 613.261 3.353 -4.35723 0
M  V30 6395 H 614.486 4.20049 -5.33606 0
M  V30 6396 H 612.432 5.53024 -3.52847 0
M  V30 6397 H 612.349 5.43311 -5.25689 0
M  V30 6398 H 613.617 6.35812 -4.50958 0
M  V30 6399 N 617.846 1.41785 0.688094 0
M  V30 6400 C 618.779 1.38643 1.81255 0
M  V30 6401 C 619.757 0.252583 1.60626 0
M  V30 6402 O 620.941 0.440691 1.83276 0
M  V30 6403 C 618.068 1.16449 3.18053 0
M  V30 6404 C 617.114 2.32651 3.57457 0
M  V30 6405 S 617.947 3.95152 3.61407 0
M  V30 6406 C 619.103 3.75275 5.00919 0
M  V30 6407 H 619.336 2.33799 1.83644 0
M  V30 6408 H 616.869 1.28398 0.857513 0
M  V30 6409 H 618.827 1.0433 3.97021 0
M  V30 6410 H 617.488 0.229002 3.13264 0
M  V30 6411 H 616.681 2.12835 4.56856 0
M  V30 6412 H 616.283 2.41215 2.85817 0
M  V30 6413 H 618.575 3.35443 5.88629 0
M  V30 6414 H 619.518 4.74302 5.25778 0
M  V30 6415 H 619.926 3.08401 4.7281 0
M  V30 6416 N 619.324 -0.923095 1.27737 0
M  V30 6417 C 620.735 -1.48626 1.12993 0
M  V30 6418 C 621.086 -1.94142 -0.283439 0
M  V30 6419 O 620.211 -1.81605 -1.17681 0
M  V30 6420 C 620.806 -2.70117 2.04505 0
M  V30 6421 C 619.365 -3.22642 1.93853 0
M  V30 6422 C 618.512 -1.95368 1.96791 0
M  V30 6423 H 621.463 -0.736737 1.40563 0
M  V30 6424 H 621.484 -3.4506 1.60356 0
M  V30 6425 H 620.996 -2.36959 3.07363 0
M  V30 6426 H 619.097 -3.60549 0.939968 0
M  V30 6427 H 619.21 -3.88525 2.80331 0
M  V30 6428 H 617.574 -2.12061 1.41076 0
M  V30 6429 H 618.357 -1.64517 3.01312 0
M  V30 6430 N 620.802 -1.09834 -1.13024 0
M  V30 6431 C 622.213 -0.855651 -1.65938 0
M  V30 6432 C 622.564 0.615159 -1.86307 0
M  V30 6433 O 621.689 1.47335 -1.58497 0
M  V30 6434 C 622.284 -1.5467 -3.01434 0
M  V30 6435 C 620.843 -1.35088 -3.51323 0
M  V30 6436 C 619.99 -1.6001 -2.26478 0
M  V30 6437 H 622.941 -1.25691 -0.968889 0
M  V30 6438 H 622.962 -0.982179 -3.67605 0
M  V30 6439 H 622.474 -2.61715 -2.86578 0
M  V30 6440 H 620.575 -0.30179 -3.71376 0
M  V30 6441 H 620.688 -2.0886 -4.31178 0
M  V30 6442 H 619.052 -1.02246 -2.33276 0
M  V30 6443 H 619.835 -2.68293 -2.14182 0
M  V30 6444 N 622.28 1.30327 -0.886154 0
M  V30 6445 C 623.557 1.90922 -0.425217 0
M  V30 6446 C 623.937 1.80533 1.09413 0
M  V30 6447 O 623.285 1.2233 1.92996 0
M  V30 6448 C 623.495 3.36529 -0.924638 0
M  V30 6449 C 624.843 4.13598 -0.960305 0
M  V30 6450 O 625.867 3.45377 -0.871382 0
M  V30 6451 O 624.726 5.35482 -1.09184 0
M  V30 6452 H 621.82 0.81668 -0.130238 0
M  V30 6453 H 624.366 1.38886 -0.975132 0
M  V30 6454 H 623.138 3.38181 -1.96849 0
M  V30 6455 H 622.761 3.96021 -0.353955 0
M  V30 6456 N 623.758 0.647228 1.43697 0
M  V30 6457 C 624.986 0.16575 2.06235 0
M  V30 6458 C 625.401 -1.1662 1.48476 0
M  V30 6459 O 624.758 -1.7187 0.613762 0
M  V30 6460 C 624.809 0.0621651 3.61447 0
M  V30 6461 O 624.53 1.34146 4.17057 0
M  V30 6462 C 626.031 -0.446102 4.4105 0
M  V30 6463 H 623.251 0.0871158 0.665321 0
M  V30 6464 H 625.795 0.886183 1.84301 0
M  V30 6465 H 623.95 -0.608794 3.82587 0
M  V30 6466 H 624.364 1.19675 5.10664 0
M  V30 6467 H 625.838 -0.46755 5.50016 0
M  V30 6468 H 626.315 -1.47627 4.13646 0
M  V30 6469 H 626.921 0.192159 4.24866 0
M  V30 6470 N 625.236 -1.5273 0.388769 0
M  V30 6471 C 626.146 -2.30165 -0.453993 0
M  V30 6472 C 627.162 -1.37058 -1.07197 0
M  V30 6473 O 628.338 -1.70127 -1.0779 0
M  V30 6474 C 625.403 -3.09303 -1.56628 0
M  V30 6475 C 624.464 -4.18117 -0.973467 0
M  V30 6476 C 623.697 -4.93472 -2.03275 0
M  V30 6477 O 623.92 -4.68913 -3.24772 0
M  V30 6478 O 622.854 -5.78833 -1.65034 0
M  V30 6479 H 626.68 -3.03185 0.176816 0
M  V30 6480 H 624.265 -1.4862 0.152501 0
M  V30 6481 H 626.147 -3.58648 -2.21246 0
M  V30 6482 H 624.822 -2.39098 -2.18206 0
M  V30 6483 H 623.729 -3.7297 -0.290556 0
M  V30 6484 H 625.062 -4.90556 -0.401908 0
M  V30 6485 N 626.714 -0.118576 -1.57153 0
M  V30 6486 C 627.662 0.849114 -2.16547 0
M  V30 6487 C 628.656 1.27567 -1.11458 0
M  V30 6488 O 629.862 1.24746 -1.29763 0
M  V30 6489 H 626.237 0.291935 -0.693021 0
M  V30 6490 H 628.208 0.323693 -2.96639 0
M  V30 6491 C 626.957 2.08951 -2.77912 0
M  V30 6492 H 626.28 1.77021 -3.58474 0
M  V30 6493 H 627.72 2.74666 -3.23008 0
M  V30 6494 C 626.179 2.87899 -1.74974 0
M  V30 6495 O 626.709 3.83268 -1.20285 0
M  V30 6496 N 624.915 2.51884 -1.44924 0
M  V30 6497 H 624.462 1.74397 -1.89587 0
M  V30 6498 H 624.42 3.05003 -0.762921 0
M  V30 6499 N 628.193 1.56834 0.155195 0
M  V30 6500 C 629.441 1.82536 0.867462 0
M  V30 6501 C 629.762 0.698168 1.82073 0
M  V30 6502 O 629.032 -0.280807 1.93877 0
M  V30 6503 H 627.612 0.673401 0.323327 0
M  V30 6504 H 630.274 1.94313 0.151156 0
M  V30 6505 H 629.37 2.77171 1.43466 0
M  V30 6506 N 629.671 -0.424282 1.51781 0
M  V30 6507 C 630.601 -1.52305 1.7699 0
M  V30 6508 C 631.582 -1.5839 0.620209 0
M  V30 6509 O 632.767 -1.73908 0.864268 0
M  V30 6510 C 629.897 -2.90271 1.90683 0
M  V30 6511 C 628.851 -2.99043 3.06198 0
M  V30 6512 C 628.177 -4.39116 3.05092 0
M  V30 6513 C 629.477 -2.7192 4.45934 0
M  V30 6514 H 631.171 -1.31461 2.68995 0
M  V30 6515 H 628.717 -0.630985 1.29439 0
M  V30 6516 H 630.67 -3.6711 2.06901 0
M  V30 6517 H 629.394 -3.12376 0.953365 0
M  V30 6518 H 628.053 -2.24646 2.89706 0
M  V30 6519 H 627.701 -4.58207 2.07498 0
M  V30 6520 H 627.401 -4.45912 3.82669 0
M  V30 6521 H 628.925 -5.17911 3.2342 0
M  V30 6522 H 630.339 -3.38487 4.62709 0
M  V30 6523 H 628.736 -2.90111 5.25315 0
M  V30 6524 H 629.806 -1.67445 4.55072 0
M  V30 6525 N 631.149 -1.42148 -0.680565 0
M  V30 6526 C 632.097 -1.45401 -1.81552 0
M  V30 6527 C 633.091 -0.33036 -1.66147 0
M  V30 6528 O 634.297 -0.503103 -1.72826 0
M  V30 6529 H 630.672 -0.455265 -0.59853 0
M  V30 6530 H 632.643 -2.41024 -1.75926 0
M  V30 6531 C 631.392 -1.36769 -3.19671 0
M  V30 6532 H 630.715 -2.22525 -3.32149 0
M  V30 6533 H 632.155 -1.43106 -3.9912 0
M  V30 6534 C 630.614 -0.0817752 -3.36801 0
M  V30 6535 O 631.144 0.867707 -3.92216 0
M  V30 6536 N 629.35 -0.000799811 -2.906 0
M  V30 6537 H 628.897 -0.774231 -2.4569 0
M  V30 6538 H 628.855 0.858961 -3.02439 0
M  V30 6539 N 632.627 0.916307 -1.28225 0
M  V30 6540 C 633.873 1.66765 -1.154 0
M  V30 6541 C 634.206 1.91912 0.297251 0
M  V30 6542 O 633.481 1.51766 1.21644 0
M  V30 6543 C 633.764 3.02715 -1.95028 0
M  V30 6544 C 633.617 2.84738 -3.48201 0
M  V30 6545 C 634.936 4.03215 -1.76369 0
M  V30 6546 H 632.055 0.605205 -0.42059 0
M  V30 6547 H 634.697 1.06255 -1.57512 0
M  V30 6548 H 632.847 3.54365 -1.59242 0
M  V30 6549 H 634.519 2.40118 -3.9388 0
M  V30 6550 H 632.762 2.19848 -3.73964 0
M  V30 6551 H 633.433 3.8127 -3.99171 0
M  V30 6552 H 635.909 3.60617 -2.07593 0
M  V30 6553 H 634.785 4.96306 -2.34459 0
M  V30 6554 H 635.046 4.36288 -0.71452 0
M  V30 6555 N 634.105 1.10431 1.1244 0
M  V30 6556 C 635.068 0.756542 2.16354 0
M  V30 6557 C 636.068 -0.21899 1.59302 0
M  V30 6558 O 637.258 0.00415969 1.742 0
M  V30 6559 C 634.39 0.120612 3.40687 0
M  V30 6560 H 635.583 1.67696 2.48632 0
M  V30 6561 H 633.136 0.904832 1.27446 0
M  V30 6562 H 633.871 -0.810536 3.14008 0
M  V30 6563 H 633.656 0.822693 3.83372 0
M  V30 6564 H 635.146 -0.106945 4.17463 0
M  V30 6565 N 635.583 -1.29855 0.893053 0
M  V30 6566 C 636.513 -2.3035 0.382249 0
M  V30 6567 C 637.494 -1.61328 -0.539203 0
M  V30 6568 O 638.679 -1.88882 -0.451342 0
M  V30 6569 C 635.809 -3.45024 -0.396983 0
M  V30 6570 C 634.763 -4.258 0.433437 0
M  V30 6571 C 634.089 -5.32605 -0.472889 0
M  V30 6572 C 635.389 -4.94549 1.67984 0
M  V30 6573 H 637.083 -2.73325 1.22205 0
M  V30 6574 H 634.629 -1.314 0.589073 0
M  V30 6575 H 636.582 -4.14398 -0.765024 0
M  V30 6576 H 635.306 -3.00875 -1.2705 0
M  V30 6577 H 633.965 -3.58125 0.783723 0
M  V30 6578 H 633.613 -4.84702 -1.34435 0
M  V30 6579 H 633.313 -5.87547 0.0789958 0
M  V30 6580 H 634.837 -6.04832 -0.837269 0
M  V30 6581 H 636.251 -5.56395 1.38192 0
M  V30 6582 H 634.648 -5.59393 2.17254 0
M  V30 6583 H 635.718 -4.20215 2.41965 0
M  V30 6584 N 637.061 -0.65484 -1.43351 0
M  V30 6585 C 638.472 -0.248506 -1.85039 0
M  V30 6586 C 638.823 1.20526 -1.54816 0
M  V30 6587 O 637.948 1.92016 -0.99794 0
M  V30 6588 C 638.543 -0.444241 -3.35875 0
M  V30 6589 C 637.102 -0.0922108 -3.76287 0
M  V30 6590 C 636.249 -0.746327 -2.67068 0
M  V30 6591 H 639.2 -0.8584 -1.33481 0
M  V30 6592 H 639.221 0.309762 -3.79237 0
M  V30 6593 H 638.733 -1.50239 -3.5784 0
M  V30 6594 H 636.834 0.96328 -3.59933 0
M  V30 6595 H 636.947 -0.518807 -4.76283 0
M  V30 6596 H 635.311 -0.179416 -2.54067 0
M  V30 6597 H 636.094 -1.80754 -2.91861 0
M  V30 6598 N 638.539 1.52521 -0.396863 0
M  V30 6599 C 639.502 2.2527 0.422604 0
M  V30 6600 C 640.502 1.27184 0.983913 0
M  V30 6601 O 641.692 1.51222 0.864723 0
M  V30 6602 C 638.824 3.01356 1.59365 0
M  V30 6603 H 640.017 2.99133 -0.214416 0
M  V30 6604 H 637.57 1.55587 -0.149128 0
M  V30 6605 H 638.305 2.31813 2.26789 0
M  V30 6606 H 638.09 3.73357 1.19779 0
M  V30 6607 H 639.58 3.56571 2.17363 0
M  V30 6608 N 640.017 0.126909 1.57088 0
M  V30 6609 C 641.242 -0.53997 2.00248 0
M  V30 6610 C 641.667 -1.58927 1.00618 0
M  V30 6611 O 641.025 -1.81288 -0.0210131 0
M  V30 6612 C 641.073 -1.13565 3.4225 0
M  V30 6613 O 640.177 -2.25103 3.45547 0
M  V30 6614 H 639.518 -0.13412 0.650314 0
M  V30 6615 H 642.048 0.217718 2.03438 0
M  V30 6616 H 642.058 -1.46925 3.80627 0
M  V30 6617 H 640.733 -0.367122 4.14277 0
M  V30 6618 H 639.31 -1.93123 3.18995 0
M  V30 6619 N 641.495 -1.56914 -0.146875 0
M  V30 6620 C 642.772 -1.74273 -0.888165 0
M  V30 6621 C 643.152 -0.69496 -1.99333 0
M  V30 6622 O 642.5 0.286093 -2.26702 0
M  V30 6623 C 642.71 -3.18336 -1.43051 0
M  V30 6624 C 644.058 -3.80024 -1.89387 0
M  V30 6625 O 645.082 -3.21765 -1.52792 0
M  V30 6626 O 643.941 -4.82367 -2.56874 0
M  V30 6627 H 641.035 -0.712565 -0.419738 0
M  V30 6628 H 643.581 -1.6918 -0.132791 0
M  V30 6629 H 642.353 -3.86092 -0.636274 0
M  V30 6630 H 641.976 -3.27854 -2.24938 0
M  V30 6631 N 642.974 0.416227 -1.52004 0
M  V30 6632 C 644.39 0.754319 -1.40649 0
M  V30 6633 C 644.59 1.95059 -0.505392 0
M  V30 6634 O 643.646 2.5248 0.0315057 0
M  V30 6635 C 644.959 1.0149 -2.83055 0
M  V30 6636 C 646.507 1.11805 -2.9235 0
M  V30 6637 C 646.982 1.41144 -4.35709 0
M  V30 6638 N 648.473 1.48024 -4.38911 0
M  V30 6639 C 649.208 1.72338 -5.46889 0
M  V30 6640 N 648.704 1.94303 -6.64995 0
M  V30 6641 N 650.497 1.74294 -5.34395 0
M  V30 6642 H 642.648 -0.371324 -2.09129 0
M  V30 6643 H 644.911 -0.103811 -0.942299 0
M  V30 6644 H 644.617 0.208345 -3.51082 0
M  V30 6645 H 644.491 1.93697 -3.23668 0
M  V30 6646 H 646.878 1.91521 -2.24508 0
M  V30 6647 H 646.959 0.17451 -2.55204 0
M  V30 6648 H 646.603 0.619484 -5.04108 0
M  V30 6649 H 646.533 2.36739 -4.70385 0
M  V30 6650 H 649.024 1.32868 -3.53772 0
M  V30 6651 H 649.337 2.12286 -7.43071 0
M  V30 6652 H 647.682 1.91582 -6.68073 0
M  V30 6653 H 650.873 1.56667 -4.41104 0
M  V30 6654 H 651.046 1.92904 -6.18621 0
M  V30 6655 N 644.452 1.42507 0.673017 0
M  V30 6656 C 645.68 1.46473 1.46128 0
M  V30 6657 C 646.095 0.0765912 1.88645 0
M  V30 6658 O 645.452 -0.909057 1.58248 0
M  V30 6659 C 645.503 2.39339 2.70923 0
M  V30 6660 O 645.224 3.72752 2.3019 0
M  V30 6661 C 646.725 2.52343 3.64469 0
M  V30 6662 H 643.945 0.49812 0.449575 0
M  V30 6663 H 646.489 1.87041 0.826802 0
M  V30 6664 H 644.644 2.02019 3.30556 0
M  V30 6665 H 645.058 4.22503 3.10791 0
M  V30 6666 H 646.532 3.2144 4.48754 0
M  V30 6667 H 647.009 1.56189 4.1049 0
M  V30 6668 H 647.615 2.90392 3.10729 0
M  V30 6669 N 645.93 -0.909495 1.28709 0
M  V30 6670 C 646.863 -2.01388 1.07323 0
M  V30 6671 C 647.841 -1.62596 -0.0119757 0
M  V30 6672 O 649.025 -1.88003 0.136796 0
M  V30 6673 C 646.152 -3.32755 0.631797 0
M  V30 6674 C 645.198 -3.90532 1.71428 0
M  V30 6675 S 646.031 -4.20853 3.31124 0
M  V30 6676 C 647.187 -5.55276 2.88825 0
M  V30 6677 H 647.42 -2.19219 2.00824 0
M  V30 6678 H 644.953 -1.05489 1.12745 0
M  V30 6679 H 646.911 -4.08702 0.38381 0
M  V30 6680 H 645.572 -3.12818 -0.283451 0
M  V30 6681 H 644.765 -4.85385 1.35712 0
M  V30 6682 H 644.367 -3.21237 1.91528 0
M  V30 6683 H 646.659 -6.35341 2.3526 0
M  V30 6684 H 647.602 -5.95907 3.82492 0
M  V30 6685 H 648.01 -5.16666 2.27412 0
M  V30 6686 N 647.408 -1.11026 -1.11852 0
M  V30 6687 C 648.338 -0.786812 -2.19844 0
M  V30 6688 C 649.319 0.242935 -1.68356 0
M  V30 6689 O 650.504 0.107355 -1.93903 0
M  V30 6690 C 647.634 -0.224516 -3.46574 0
M  V30 6691 C 646.588 -1.18564 -4.1125 0
M  V30 6692 C 645.914 -0.484261 -5.32503 0
M  V30 6693 C 647.214 -2.53465 -4.56676 0
M  V30 6694 H 648.908 -1.68978 -2.47158 0
M  V30 6695 H 646.454 -0.813906 -1.18792 0
M  V30 6696 H 648.407 0.0139435 -4.21398 0
M  V30 6697 H 647.131 0.713722 -3.18706 0
M  V30 6698 H 645.79 -1.40966 -3.38414 0
M  V30 6699 H 645.438 0.458646 -5.00905 0
M  V30 6700 H 645.138 -1.12526 -5.76725 0
M  V30 6701 H 646.662 -0.254492 -6.10069 0
M  V30 6702 H 648.076 -2.35177 -5.22843 0
M  V30 6703 H 646.473 -3.13507 -5.11697 0
M  V30 6704 H 647.543 -3.13008 -3.70343 0
M  V30 6705 N 648.886 1.2938 -0.899927 0
M  V30 6706 C 650.116 1.99402 -0.540601 0
M  V30 6707 C 650.524 1.67534 0.87914 0
M  V30 6708 O 649.867 0.916821 1.59186 0
M  V30 6709 C 649.929 3.53514 -0.653326 0
M  V30 6710 C 649.593 4.08937 -2.04009 0
M  V30 6711 C 650.59 4.23815 -3.01126 0
M  V30 6712 C 648.275 4.43962 -2.34953 0
M  V30 6713 C 650.269 4.72951 -4.27313 0
M  V30 6714 C 647.956 4.92795 -3.61382 0
M  V30 6715 C 648.954 5.07244 -4.57376 0
M  V30 6716 O 648.642 5.55017 -5.8156 0
M  V30 6717 H 648.374 0.64383 -0.206057 0
M  V30 6718 H 650.928 1.65878 -1.21134 0
M  V30 6719 H 649.158 3.86628 0.0744449 0
M  V30 6720 H 650.847 4.04767 -0.303118 0
M  V30 6721 H 651.613 3.97043 -2.78535 0
M  V30 6722 H 647.492 4.31974 -1.60994 0
M  V30 6723 H 651.036 4.84144 -5.02245 0
M  V30 6724 H 646.933 5.19004 -3.83804 0
M  V30 6725 H 647.701 5.73331 -5.84153 0
M  V30 6726 N 650.364 0.662433 1.43002 0
M  V30 6727 C 651.327 -0.0142016 2.29196 0
M  V30 6728 C 652.327 -0.741394 1.42688 0
M  V30 6729 O 653.517 -0.581257 1.64216 0
M  V30 6730 C 650.649 -1.03084 3.24941 0
M  V30 6731 H 651.842 0.7443 2.90517 0
M  V30 6732 H 649.395 0.424133 1.50435 0
M  V30 6733 H 650.13 -1.81826 2.68533 0
M  V30 6734 H 649.915 -0.512946 3.8873 0
M  V30 6735 H 651.405 -1.50308 3.89612 0
M  V30 6736 N 651.842 -1.52309 0.404946 0
M  V30 6737 C 653.089 -2.01767 -0.1722 0
M  V30 6738 C 653.417 -1.29075 -1.45498 0
M  V30 6739 O 652.672 -0.3843 -1.9189 0
M  V30 6740 C 652.971 -3.54284 -0.470895 0
M  V30 6741 C 652.637 -4.45079 0.722194 0
M  V30 6742 C 651.299 -4.69617 1.04946 0
M  V30 6743 C 653.651 -4.98555 1.51962 0
M  V30 6744 C 650.979 -5.44878 2.17543 0
M  V30 6745 C 653.331 -5.75049 2.63632 0
M  V30 6746 C 651.995 -5.9786 2.9685 0
M  V30 6747 H 651.265 -0.738316 -0.0630125 0
M  V30 6748 H 653.912 -1.83566 0.545506 0
M  V30 6749 H 652.217 -3.70642 -1.27012 0
M  V30 6750 H 653.914 -3.90058 -0.930346 0
M  V30 6751 H 650.504 -4.26155 0.457131 0
M  V30 6752 H 654.688 -4.79509 1.28002 0
M  V30 6753 H 649.944 -5.60762 2.43631 0
M  V30 6754 H 654.118 -6.15483 3.25813 0
M  V30 6755 H 651.745 -6.5596 3.84215 0
M  V30 6756 N 653.32 -0.135238 -1.57019 0
M  V30 6757 C 654.568 0.51777 -1.95355 0
M  V30 6758 C 654.889 1.6617 -1.02042 0
M  V30 6759 O 654.159 1.95738 -0.0797343 0
M  V30 6760 H 652.739 0.194264 -0.721298 0
M  V30 6761 H 655.401 -0.207983 -1.93787 0
M  V30 6762 H 654.497 0.901675 -2.98791 0
M  V30 6763 N 654.798 1.5699 0.138552 0
M  V30 6764 C 655.745 1.98899 1.17081 0
M  V30 6765 C 656.715 0.857922 1.42228 0
M  V30 6766 O 657.9 1.12065 1.54422 0
M  V30 6767 C 655.04 2.38189 2.4972 0
M  V30 6768 C 654.153 3.64624 2.31674 0
M  V30 6769 C 653.288 3.9298 3.57407 0
M  V30 6770 C 652.327 5.1266 3.34435 0
M  V30 6771 N 651.464 5.36983 4.5232 0
M  V30 6772 H 656.304 2.86881 0.80642 0
M  V30 6773 H 653.841 1.41925 0.386727 0
M  V30 6774 H 655.799 2.59 3.2707 0
M  V30 6775 H 654.429 1.53275 2.84089 0
M  V30 6776 H 653.481 3.51542 1.45337 0
M  V30 6777 H 654.793 4.52131 2.10664 0
M  V30 6778 H 653.947 4.14335 4.43183 0
M  V30 6779 H 652.686 3.03912 3.8143 0
M  V30 6780 H 651.691 4.9117 2.47048 0
M  V30 6781 H 652.916 6.03288 3.11802 0
M  V30 6782 H 650.862 4.50871 4.76499 0
M  V30 6783 H 650.779 6.18775 4.34343 0
M  V30 6784 H 652.047 5.62842 5.39285 0
M  V30 6785 N 656.276 -0.40816 1.52223 0
M  V30 6786 C 657.524 -1.15274 1.66001 0
M  V30 6787 C 657.845 -1.91003 0.392803 0
M  V30 6788 O 657.115 -1.8673 -0.592336 0
M  V30 6789 H 655.695 -0.428526 0.611861 0
M  V30 6790 H 658.357 -0.46512 1.89269 0
M  V30 6791 H 657.453 -1.86628 2.50153 0
M  V30 6792 N 657.755 -1.42862 -0.66545 0
M  V30 6793 C 658.983 -1.47246 -1.45349 0
M  V30 6794 C 659.398 -0.0865944 -1.88601 0
M  V30 6795 O 658.755 0.900652 -1.58728 0
M  V30 6796 C 658.806 -2.40772 -2.6965 0
M  V30 6797 O 658.527 -3.73968 -2.2821 0
M  V30 6798 C 660.028 -2.54272 -3.63126 0
M  V30 6799 H 657.248 -0.500497 -0.446927 0
M  V30 6800 H 659.792 -1.87477 -0.816871 0
M  V30 6801 H 657.947 -2.0377 -3.29479 0
M  V30 6802 H 658.361 -4.24146 -3.08546 0
M  V30 6803 H 659.835 -3.23815 -4.47043 0
M  V30 6804 H 660.312 -1.58364 -4.09656 0
M  V30 6805 H 660.918 -2.92036 -3.09185 0
M  V30 6806 N 659.233 0.902656 -1.29189 0
M  V30 6807 C 660.196 1.98797 -1.14071 0
M  V30 6808 C 661.196 1.60615 -0.0770549 0
M  V30 6809 O 662.386 1.71165 -0.323753 0
M  V30 6810 C 659.518 3.32688 -0.743739 0
M  V30 6811 H 660.711 2.13637 -2.10473 0
M  V30 6812 H 658.264 1.08678 -1.12334 0
M  V30 6813 H 658.999 3.23549 0.220554 0
M  V30 6814 H 658.784 3.61765 -1.51223 0
M  V30 6815 H 660.274 4.12337 -0.660935 0
M  V30 6816 N 660.711 1.11618 1.11262 0
M  V30 6817 C 661.661 0.745274 2.15475 0
M  V30 6818 C 662.645 -0.251585 1.58921 0
M  V30 6819 O 663.837 -0.0584093 1.76904 0
M  V30 6820 C 660.966 0.192128 3.42762 0
M  V30 6821 C 660.052 1.21676 4.0627 0
M  V30 6822 N 660.443 2.41158 4.44608 0
M  V30 6823 C 658.741 1.06013 4.33217 0
M  V30 6824 C 659.442 3.0652 4.94389 0
M  V30 6825 N 658.418 2.33994 4.9066 0
M  V30 6826 H 662.22 1.65462 2.42898 0
M  V30 6827 H 659.734 0.995695 1.28295 0
M  V30 6828 H 661.731 -0.0917339 4.16799 0
M  V30 6829 H 660.391 -0.711778 3.16802 0
M  V30 6830 H 661.402 2.786 4.3658 0
M  V30 6831 H 658.079 0.212809 4.16957 0
M  V30 6832 H 659.469 4.08225 5.33669 0
M  V30 6833 N 662.189 -1.289 0.906776 0
M  V30 6834 C 663.122 -2.25737 0.334362 0
M  V30 6835 C 664.1 -1.52745 -0.557474 0
M  V30 6836 O 665.284 -1.81673 -0.502697 0
M  V30 6837 C 662.411 -3.34642 -0.522716 0
M  V30 6838 C 661.457 -4.25424 0.302777 0
M  V30 6839 S 662.29 -5.07629 1.70508 0
M  V30 6840 C 663.446 -6.20031 0.855118 0
M  V30 6841 H 663.679 -2.73941 1.15514 0
M  V30 6842 H 661.212 -1.37233 0.707573 0
M  V30 6843 H 663.17 -3.97845 -1.01141 0
M  V30 6844 H 661.831 -2.85119 -1.31781 0
M  V30 6845 H 661.024 -5.02767 -0.352257 0
M  V30 6846 H 660.626 -3.66908 0.724873 0
M  V30 6847 H 662.918 -6.77451 0.0816418 0
M  V30 6848 H 663.861 -6.89767 1.60087 0
M  V30 6849 H 664.269 -5.63035 0.406375 0
M  V30 6850 N 663.667 -0.670007 -1.42649 0
M  V30 6851 C 664.892 -0.196955 -2.06463 0
M  V30 6852 C 665.317 1.1352 -1.49983 0
M  V30 6853 O 664.675 1.705 -0.616397 0
M  V30 6854 C 664.723 -0.137381 -3.60338 0
M  V30 6855 O 663.827 0.895523 -4.02559 0
M  V30 6856 H 663.168 -0.102579 -0.656029 0
M  V30 6857 H 665.698 -0.917669 -1.82866 0
M  V30 6858 H 665.708 0.0403625 -4.0798 0
M  V30 6859 H 664.383 -1.10977 -4.0082 0
M  V30 6860 H 662.96 0.689209 -3.66476 0
M  V30 6861 N 665.145 1.52092 -0.413018 0
M  V30 6862 C 666.393 2.01456 0.161178 0
M  V30 6863 C 666.714 1.30034 1.45314 0
M  V30 6864 O 665.984 0.427435 1.9118 0
M  V30 6865 H 664.564 0.744376 0.0625526 0
M  V30 6866 H 667.226 1.86974 -0.550151 0
M  V30 6867 H 666.322 3.1008 0.354517 0
M  V30 6868 N 666.623 0.143563 1.56945 0
M  V30 6869 C 667.87 -0.508407 1.96014 0
M  V30 6870 C 668.198 -1.65099 1.02824 0
M  V30 6871 O 667.453 -1.95618 0.0567764 0
M  V30 6872 C 667.752 -1.05885 3.41355 0
M  V30 6873 C 667.418 -0.0350809 4.50886 0
M  V30 6874 C 666.08 0.246362 4.80569 0
M  V30 6875 C 668.432 0.661282 5.16988 0
M  V30 6876 C 665.76 1.23003 5.73661 0
M  V30 6877 C 668.112 1.63375 6.11139 0
M  V30 6878 C 666.776 1.92292 6.39203 0
M  V30 6879 H 666.046 -0.186039 0.717266 0
M  V30 6880 H 668.693 0.229667 1.90118 0
M  V30 6881 H 666.998 -1.87419 3.44066 0
M  V30 6882 H 668.695 -1.57183 3.6891 0
M  V30 6883 H 665.285 -0.264622 4.27782 0
M  V30 6884 H 669.469 0.457038 4.94191 0
M  V30 6885 H 664.725 1.46056 5.93698 0
M  V30 6886 H 668.899 2.17887 6.61436 0
M  V30 6887 H 666.526 2.68666 7.11142 0
M  V30 6888 N 668.101 -1.57061 -0.130224 0
M  V30 6889 C 669.033 -1.96147 -1.18571 0
M  V30 6890 C 670.046 -0.859347 -1.38272 0
M  V30 6891 O 671.235 -1.13769 -1.37545 0
M  V30 6892 C 668.335 -2.23484 -2.54771 0
M  V30 6893 C 667.508 -3.54786 -2.55824 0
M  V30 6894 C 666.567 -3.70467 -3.73686 0
M  V30 6895 O 665.593 -4.42693 -3.57787 0
M  V30 6896 N 666.795 -3.08389 -4.91809 0
M  V30 6897 H 669.56 -2.87295 -0.853333 0
M  V30 6898 H 667.121 -1.58714 -0.319621 0
M  V30 6899 H 669.113 -2.312 -3.32158 0
M  V30 6900 H 667.683 -1.38518 -2.80235 0
M  V30 6901 H 666.903 -3.5836 -1.64232 0
M  V30 6902 H 668.191 -4.4111 -2.53573 0
M  V30 6903 H 667.589 -2.49656 -5.0763 0
M  V30 6904 H 666.146 -3.21642 -5.66912 0
M  V30 6905 N 669.579 0.400081 -1.52437 0
M  V30 6906 C 670.526 1.48803 -1.76426 0
M  V30 6907 C 671.496 1.5461 -0.607032 0
M  V30 6908 O 672.681 1.71041 -0.845563 0
M  V30 6909 C 669.821 2.86156 -1.92896 0
M  V30 6910 C 668.934 2.89587 -3.20567 0
M  V30 6911 C 668.069 4.18296 -3.27417 0
M  V30 6912 C 667.108 4.15736 -4.49255 0
M  V30 6913 N 666.245 5.36032 -4.53447 0
M  V30 6914 H 671.085 1.27649 -2.69276 0
M  V30 6915 H 668.622 0.619451 -1.33421 0
M  V30 6916 H 670.58 3.65901 -2.00429 0
M  V30 6917 H 669.21 3.05785 -1.03418 0
M  V30 6918 H 668.262 2.02278 -3.22161 0
M  V30 6919 H 669.574 2.83562 -4.10358 0
M  V30 6920 H 668.728 5.06439 -3.34072 0
M  V30 6921 H 667.467 4.27028 -2.35581 0
M  V30 6922 H 666.472 3.25982 -4.42737 0
M  V30 6923 H 667.697 4.08636 -5.42396 0
M  V30 6924 H 665.643 5.45415 -3.64498 0
M  V30 6925 H 665.56 5.32038 -5.37096 0
M  V30 6926 H 666.828 6.26104 -4.64343 0
M  V30 6927 N 671.057 1.43213 0.657864 0
M  V30 6928 C 672.306 1.43871 1.41365 0
M  V30 6929 C 672.619 0.064898 1.95492 0
M  V30 6930 O 673.825 -0.0510796 2.71452 0
M  V30 6931 C 672.281 2.53158 2.55811 0
M  V30 6932 C 671.889 3.96624 2.08311 0
M  V30 6933 C 673.633 2.63004 3.3321 0
M  V30 6934 C 671.54 4.97385 3.1994 0
M  V30 6935 H 670.47 0.535174 0.531136 0
M  V30 6936 H 673.121 1.69185 0.710543 0
M  V30 6937 H 671.503 2.21037 3.2857 0
M  V30 6938 H 672.677 4.38182 1.42593 0
M  V30 6939 H 670.992 3.90781 1.43804 0
M  V30 6940 H 673.589 3.3546 4.16378 0
M  V30 6941 H 673.932 1.67918 3.80932 0
M  V30 6942 H 674.465 2.94403 2.67529 0
M  V30 6943 H 671.204 5.94007 2.77192 0
M  V30 6944 H 670.724 4.60444 3.84385 0
M  V30 6945 H 672.403 5.19877 3.85145 0
M  V30 6946 N 672.536 -0.895792 1.29666 0
M  V30 6947 C 673.782 -1.64908 1.18039 0
M  V30 6948 C 674.115 -1.9236 -0.266682 0
M  V30 6949 O 673.39 -1.53682 -1.19214 0
M  V30 6950 C 673.673 -2.99574 1.99819 0
M  V30 6951 C 673.526 -2.79163 3.52687 0
M  V30 6952 C 674.845 -4.00358 1.82761 0
M  V30 6953 H 671.964 -0.598437 0.430165 0
M  V30 6954 H 674.606 -1.03736 1.59182 0
M  V30 6955 H 672.756 -3.51786 1.64859 0
M  V30 6956 H 674.428 -2.33821 3.9765 0
M  V30 6957 H 672.671 -2.13871 3.77414 0
M  V30 6958 H 673.342 -3.74871 4.05186 0
M  V30 6959 H 675.818 -3.57268 2.13304 0
M  V30 6960 H 674.694 -4.92514 2.42325 0
M  V30 6961 H 674.955 -4.35096 0.783839 0
M  V30 6962 N 674.014 -1.12206 -1.10668 0
M  V30 6963 C 675.263 -0.870595 -1.81944 0
M  V30 6964 C 675.576 0.605447 -1.85994 0
M  V30 6965 O 676.782 0.973433 -2.53449 0
M  V30 6966 C 675.238 -1.50783 -3.26791 0
M  V30 6967 C 674.846 -3.01849 -3.31046 0
M  V30 6968 C 676.59 -1.33653 -4.02911 0
M  V30 6969 C 674.497 -3.58518 -4.70339 0
M  V30 6970 H 673.427 -0.322043 -0.681765 0
M  V30 6971 H 676.078 -1.34827 -1.24475 0
M  V30 6972 H 674.46 -0.957825 -3.84242 0
M  V30 6973 H 675.634 -3.63321 -2.83433 0
M  V30 6974 H 673.949 -3.18346 -2.68411 0
M  V30 6975 H 676.546 -1.73416 -5.05797 0
M  V30 6976 H 676.889 -0.279949 -4.15358 0
M  V30 6977 H 677.422 -1.85562 -3.51868 0
M  V30 6978 H 674.161 -4.63925 -4.63091 0
M  V30 6979 H 673.681 -3.01819 -5.18329 0
M  V30 6980 H 675.36 -3.57434 -5.39305 0
M  V30 6981 N 675.492 1.28418 -0.913599 0
M  V30 6982 C 676.769 1.89977 -0.465619 0
M  V30 6983 C 677.149 1.82813 1.05559 0
M  V30 6984 O 676.497 1.26397 1.90358 0
M  V30 6985 C 676.707 3.34492 -0.995813 0
M  V30 6986 C 678.055 4.11468 -1.04782 0
M  V30 6987 O 679.079 3.43451 -0.944445 0
M  V30 6988 O 677.938 5.33046 -1.20518 0
M  V30 6989 H 675.032 0.813734 -0.147532 0
M  V30 6990 H 677.578 1.36786 -1.00437 0
M  V30 6991 H 676.35 3.33929 -2.03978 0
M  V30 6992 H 675.973 3.95181 -0.437878 0
M  V30 6993 N 676.97 0.677563 1.42291 0
M  V30 6994 C 677.933 0.0101085 2.29198 0
M  V30 6995 C 678.933 -0.726219 1.43467 0
M  V30 6996 O 680.123 -0.563807 1.64824 0
M  V30 6997 C 677.255 -0.996316 3.26016 0
M  V30 6998 H 678.448 0.775071 2.89711 0
M  V30 6999 H 676.001 0.440065 1.49977 0
M  V30 7000 H 676.736 -1.78967 2.70446 0
M  V30 7001 H 676.521 -0.471687 3.89253 0
M  V30 7002 H 678.011 -1.46167 3.91184 0
M  V30 7003 N 678.448 -1.51871 0.421078 0
M  V30 7004 C 679.395 -2.27334 -0.398508 0
M  V30 7005 C 680.365 -1.30241 -1.03085 0
M  V30 7006 O 681.55 -1.59121 -1.05285 0
M  V30 7007 C 678.69 -3.10664 -1.50272 0
M  V30 7008 C 677.803 -4.2273 -0.890122 0
M  V30 7009 C 676.938 -4.93399 -1.96803 0
M  V30 7010 C 675.977 -5.97409 -1.333 0
M  V30 7011 N 675.114 -6.61548 -2.35156 0
M  V30 7012 H 679.954 -2.96938 0.251411 0
M  V30 7013 H 677.491 -1.46472 0.135825 0
M  V30 7014 H 679.449 -3.57292 -2.15403 0
M  V30 7015 H 678.079 -2.43207 -2.1225 0
M  V30 7016 H 677.131 -3.80186 -0.127537 0
M  V30 7017 H 678.443 -4.97302 -0.386349 0
M  V30 7018 H 677.597 -5.43491 -2.69633 0
M  V30 7019 H 676.336 -4.18421 -2.50549 0
M  V30 7020 H 675.341 -5.46624 -0.59008 0
M  V30 7021 H 676.566 -6.74335 -0.803076 0
M  V30 7022 H 674.512 -5.89394 -2.88012 0
M  V30 7023 H 674.429 -7.31832 -1.89624 0
M  V30 7024 H 675.697 -7.16276 -3.0752 0
M  V30 7025 N 679.926 -0.151884 -1.56866 0
M  V30 7026 C 681.154 0.504813 -2.00647 0
M  V30 7027 C 681.569 1.58098 -1.03201 0
M  V30 7028 O 680.926 1.82476 -0.0297814 0
M  V30 7029 C 680.977 1.10099 -3.44326 0
M  V30 7030 O 680.698 0.0678021 -4.38048 0
M  V30 7031 C 682.199 1.83782 -4.03409 0
M  V30 7032 H 679.419 0.130989 -0.65809 0
M  V30 7033 H 681.963 -0.247903 -2.02992 0
M  V30 7034 H 680.118 1.8043 -3.42817 0
M  V30 7035 H 680.532 0.505237 -5.22061 0
M  V30 7036 H 682.006 2.2078 -5.05925 0
M  V30 7037 H 682.483 2.72557 -3.44397 0
M  V30 7038 H 683.089 1.18138 -4.08563 0
M  V30 7039 N 681.404 1.57128 0.121893 0
M  V30 7040 C 682.82 1.52357 0.47534 0
M  V30 7041 C 683.02 0.864417 1.82017 0
M  V30 7042 O 682.076 0.445529 2.48538 0
M  V30 7043 C 683.389 2.97122 0.4625 0
M  V30 7044 C 684.937 3.08196 0.546255 0
M  V30 7045 C 685.412 4.54516 0.563833 0
M  V30 7046 N 686.903 4.58959 0.625353 0
M  V30 7047 C 687.638 5.69585 0.660354 0
M  V30 7048 N 687.134 6.89714 0.653175 0
M  V30 7049 N 688.927 5.57685 0.703143 0
M  V30 7050 H 681.078 1.98364 -0.75931 0
M  V30 7051 H 683.341 0.905777 -0.279772 0
M  V30 7052 H 683.047 3.48706 -0.457943 0
M  V30 7053 H 682.921 3.54406 1.29136 0
M  V30 7054 H 685.308 2.56617 1.45712 0
M  V30 7055 H 685.389 2.53912 -0.310234 0
M  V30 7056 H 685.033 5.06741 -0.342974 0
M  V30 7057 H 684.963 5.06609 1.43716 0
M  V30 7058 H 687.454 3.72489 0.637182 0
M  V30 7059 H 687.767 7.69781 0.682425 0
M  V30 7060 H 686.112 6.92223 0.620646 0
M  V30 7061 H 689.303 4.62744 0.706095 0
M  V30 7062 H 689.476 6.43909 0.726952 0
M  V30 7063 N 682.882 -0.391992 1.52647 0
M  V30 7064 C 683.829 -1.47866 1.77213 0
M  V30 7065 C 684.799 -1.54286 0.615223 0
M  V30 7066 O 685.984 -1.7059 0.854622 0
M  V30 7067 C 683.124 -2.85129 1.94411 0
M  V30 7068 C 682.237 -2.87883 3.22098 0
M  V30 7069 C 681.372 -4.16553 3.29631 0
M  V30 7070 C 680.411 -4.13348 4.51453 0
M  V30 7071 N 679.548 -5.33619 4.56284 0
M  V30 7072 H 684.388 -1.26219 2.6995 0
M  V30 7073 H 681.925 -0.612367 1.33748 0
M  V30 7074 H 683.883 -3.64833 2.02367 0
M  V30 7075 H 682.513 -3.05232 1.05038 0
M  V30 7076 H 681.565 -2.00567 3.23229 0
M  V30 7077 H 682.877 -2.81382 4.11856 0
M  V30 7078 H 682.031 -5.0466 3.36753 0
M  V30 7079 H 680.77 -4.25773 2.37842 0
M  V30 7080 H 679.775 -3.23629 4.44459 0
M  V30 7081 H 681 -4.05754 5.44555 0
M  V30 7082 H 678.946 -5.43474 3.67385 0
M  V30 7083 H 678.863 -5.29182 5.3991 0
M  V30 7084 H 680.131 -6.23632 4.67657 0
M  V30 7085 N 684.36 -1.4356 -0.65026 0
M  V30 7086 C 685.606 -1.45549 -1.41221 0
M  V30 7087 C 685.939 -0.0805472 -1.94033 0
M  V30 7088 O 685.214 0.899043 -1.72475 0
M  V30 7089 C 685.497 -2.50028 -2.59148 0
M  V30 7090 C 685.35 -3.96808 -2.1181 0
M  V30 7091 C 686.669 -2.51212 -3.61359 0
M  V30 7092 H 683.788 -0.529967 -0.512156 0
M  V30 7093 H 686.43 -1.75127 -0.736933 0
M  V30 7094 H 684.58 -2.24937 -3.16758 0
M  V30 7095 H 686.252 -4.32966 -1.59178 0
M  V30 7096 H 684.495 -4.09498 -1.43156 0
M  V30 7097 H 685.166 -4.6553 -2.96625 0
M  V30 7098 H 687.642 -2.73583 -3.13515 0
M  V30 7099 H 686.518 -3.26252 -4.41419 0
M  V30 7100 H 686.779 -1.54701 -4.1415 0
M  V30 7101 N 685.838 0.888903 -1.30139 0
M  V30 7102 C 686.768 2.01046 -1.18755 0
M  V30 7103 C 687.749 1.69916 -0.0791438 0
M  V30 7104 O 688.934 1.92445 -0.260498 0
M  V30 7105 C 686.064 3.36109 -0.874518 0
M  V30 7106 C 685.018 3.81486 -1.94043 0
M  V30 7107 C 684.344 5.13796 -1.48047 0
M  V30 7108 C 685.644 4.00637 -3.35093 0
M  V30 7109 H 687.338 2.10828 -2.12584 0
M  V30 7110 H 684.884 1.01298 -1.02346 0
M  V30 7111 H 686.837 4.14089 -0.781548 0
M  V30 7112 H 685.561 3.26449 0.0994519 0
M  V30 7113 H 684.22 3.05731 -2.02297 0
M  V30 7114 H 683.868 5.0056 -0.494878 0
M  V30 7115 H 683.568 5.45127 -2.19341 0
M  V30 7116 H 685.092 5.94305 -1.40121 0
M  V30 7117 H 686.506 4.69067 -3.2962 0
M  V30 7118 H 684.903 4.43339 -4.04438 0
M  V30 7119 H 685.973 3.0462 -3.77273 0
M  V30 7120 N 687.317 1.12792 1.10072 0
M  V30 7121 C 688.565 0.883796 1.81751 0
M  V30 7122 C 688.886 -0.591891 1.858 0
M  V30 7123 O 688.156 -1.43017 1.33876 0
M  V30 7124 H 686.736 0.323978 0.673088 0
M  V30 7125 H 689.398 1.42314 1.33164 0
M  V30 7126 H 688.494 1.26863 2.85153 0
M  V30 7127 N 688.795 -1.27931 0.920396 0
M  V30 7128 C 689.758 -2.25345 0.41858 0
M  V30 7129 C 690.758 -1.54116 -0.458798 0
M  V30 7130 O 691.948 -1.72235 -0.260912 0
M  V30 7131 C 689.08 -3.38556 -0.399104 0
M  V30 7132 H 690.273 -2.71251 1.27918 0
M  V30 7133 H 687.826 -1.39728 0.700406 0
M  V30 7134 H 688.561 -2.98021 -1.27882 0
M  V30 7135 H 688.346 -3.91426 0.229863 0
M  V30 7136 H 689.836 -4.10976 -0.740817 0
M  V30 7137 N 690.273 -0.685099 -1.4193 0
M  V30 7138 C 691.223 0.00977295 -2.27998 0
M  V30 7139 C 692.207 0.763315 -1.41641 0
M  V30 7140 O 693.399 0.640532 -1.65004 0
M  V30 7141 C 690.528 0.952972 -3.29808 0
M  V30 7142 C 689.614 0.196231 -4.23646 0
M  V30 7143 N 690.005 -0.804401 -4.99363 0
M  V30 7144 C 688.303 0.433213 -4.43891 0
M  V30 7145 C 689.004 -1.25646 -5.67968 0
M  V30 7146 N 687.98 -0.5844 -5.4045 0
M  V30 7147 H 691.782 -0.757586 -2.83968 0
M  V30 7148 H 689.296 -0.515037 -1.54017 0
M  V30 7149 H 691.293 1.46585 -3.9028 0
M  V30 7150 H 689.953 1.72004 -2.75399 0
M  V30 7151 H 690.964 -1.18429 -5.04177 0
M  V30 7152 H 687.641 1.17899 -4.00507 0
M  V30 7153 H 689.031 -2.08622 -6.38691 0
M  V30 7154 N 691.751 1.51645 -0.429126 0
M  V30 7155 C 692.701 2.24388 0.404217 0
M  V30 7156 C 693.685 1.26294 0.996933 0
M  V30 7157 O 694.877 1.51428 0.916434 0
M  V30 7158 C 692.006 3.08338 1.50938 0
M  V30 7159 C 691.092 4.13857 0.926464 0
M  V30 7160 N 691.483 5.05749 0.0719732 0
M  V30 7161 C 689.781 4.29695 1.19491 0
M  V30 7162 C 690.482 5.81143 -0.254528 0
M  V30 7163 N 689.458 5.42408 0.359763 0
M  V30 7164 H 693.26 2.92794 -0.254697 0
M  V30 7165 H 690.774 1.60606 -0.240712 0
M  V30 7166 H 692.771 3.59022 2.11918 0
M  V30 7167 H 691.431 2.41475 2.17072 0
M  V30 7168 H 692.442 5.17066 -0.293854 0
M  V30 7169 H 689.119 3.74059 1.85434 0
M  V30 7170 H 690.509 6.65159 -0.949365 0
M  V30 7171 N 693.229 0.160201 1.56784 0
M  V30 7172 C 694.475 -0.48831 1.96833 0
M  V30 7173 C 694.808 -1.63641 1.04571 0
M  V30 7174 O 694.083 -1.94289 0.0906481 0
M  V30 7175 C 694.366 -0.981908 3.46454 0
M  V30 7176 C 694.219 0.165607 4.49495 0
M  V30 7177 C 695.538 -1.85931 3.98896 0
M  V30 7178 H 692.657 -0.176027 0.71567 0
M  V30 7179 H 695.299 0.244093 1.88426 0
M  V30 7180 H 693.449 -1.60602 3.5375 0
M  V30 7181 H 695.121 0.802372 4.54268 0
M  V30 7182 H 693.364 0.822789 4.25926 0
M  V30 7183 H 694.035 -0.221699 5.51555 0
M  V30 7184 H 696.511 -1.33327 3.94161 0
M  V30 7185 H 695.387 -2.17373 5.04024 0
M  V30 7186 H 695.648 -2.80106 3.42042 0
M  V30 7187 N 694.707 -1.5719 -0.113559 0
M  V30 7188 C 695.955 -1.84772 -0.818761 0
M  V30 7189 C 696.276 -0.746196 -1.80158 0
M  V30 7190 O 695.546 0.229305 -1.94553 0
M  V30 7191 H 694.126 -0.681737 -0.305359 0
M  V30 7192 H 696.788 -1.94645 -0.0995845 0
M  V30 7193 H 695.884 -2.80878 -1.36067 0
M  V30 7194 N 696.185 0.383891 -1.52853 0
M  V30 7195 C 697.415 1.14783 -1.7178 0
M  V30 7196 C 697.823 1.84055 -0.438211 0
M  V30 7197 O 697.166 1.73713 0.597465 0
M  V30 7198 C 697.228 2.23543 -2.81547 0
M  V30 7199 C 696.892 1.74195 -4.22499 0
M  V30 7200 C 697.889 1.21591 -5.05481 0
M  V30 7201 C 695.574 1.80262 -4.6884 0
M  V30 7202 C 697.568 0.757104 -6.32888 0
M  V30 7203 C 695.255 1.33993 -5.96229 0
M  V30 7204 C 696.253 0.818049 -6.78083 0
M  V30 7205 O 695.941 0.362123 -8.03084 0
M  V30 7206 H 695.673 0.349908 -0.578395 0
M  V30 7207 H 698.227 0.454377 -2.00311 0
M  V30 7208 H 696.457 2.96328 -2.48449 0
M  V30 7209 H 698.146 2.8519 -2.88828 0
M  V30 7210 H 698.912 1.16257 -4.7086 0
M  V30 7211 H 694.791 2.19825 -4.05213 0
M  V30 7212 H 698.335 0.34908 -6.96726 0
M  V30 7213 H 694.232 1.39015 -6.30353 0
M  V30 7214 H 695 0.483134 -8.17073 0
M  V30 7215 N 697.663 1.43903 0.642637 0
M  V30 7216 C 698.911 1.45791 1.39962 0
M  V30 7217 C 699.232 0.0873144 1.94804 0
M  V30 7218 O 698.502 -0.878825 1.75081 0
M  V30 7219 H 697.082 0.536797 0.519479 0
M  V30 7220 H 699.744 1.7959 0.757189 0
M  V30 7221 H 698.84 2.17665 2.2367 0
M  V30 7222 N 699.141 -0.881989 1.30609 0
M  V30 7223 C 700.104 -1.96957 1.1722 0
M  V30 7224 C 701.104 -1.60472 0.102598 0
M  V30 7225 O 702.294 -1.70628 0.350943 0
M  V30 7226 C 699.426 -3.31463 0.796572 0
M  V30 7227 H 700.619 -2.10262 2.13846 0
M  V30 7228 H 698.172 -1.06877 1.14048 0
M  V30 7229 H 698.907 -3.23859 -0.169053 0
M  V30 7230 H 698.692 -3.59314 1.56959 0
M  V30 7231 H 700.182 -4.11233 0.72645 0
M  V30 7232 N 700.619 -1.13374 -1.09472 0
M  V30 7233 C 701.566 -0.810682 -2.16094 0
M  V30 7234 C 702.536 0.227003 -1.64541 0
M  V30 7235 O 703.721 0.0993538 -1.90541 0
M  V30 7236 C 700.861 -0.282336 -3.43943 0
M  V30 7237 C 699.974 -1.37902 -4.09398 0
M  V30 7238 C 699.109 -0.809066 -5.25002 0
M  V30 7239 C 698.148 -1.88419 -5.82379 0
M  V30 7240 N 697.285 -1.33221 -6.89345 0
M  V30 7241 H 702.125 -1.72397 -2.43071 0
M  V30 7242 H 699.662 -0.860564 -1.19301 0
M  V30 7243 H 701.62 0.0421189 -4.17179 0
M  V30 7244 H 700.25 0.594083 -3.17286 0
M  V30 7245 H 699.302 -1.82008 -3.34032 0
M  V30 7246 H 700.614 -2.19161 -4.48074 0
M  V30 7247 H 699.768 -0.435867 -6.05132 0
M  V30 7248 H 698.507 0.0346058 -4.87688 0
M  V30 7249 H 697.512 -2.26646 -5.00911 0
M  V30 7250 H 698.737 -2.73125 -6.21755 0
M  V30 7251 H 696.683 -0.510535 -6.5401 0
M  V30 7252 H 696.6 -2.08129 -7.26786 0
M  V30 7253 H 697.868 -0.986565 -7.73232 0
M  V30 7254 N 702.098 1.27442 -0.927168 0
M  V30 7255 C 703.375 1.89473 -0.485742 0
M  V30 7256 C 703.755 1.83922 1.03614 0
M  V30 7257 O 703.103 1.28409 1.89007 0
M  V30 7258 C 703.313 3.33417 -1.03123 0
M  V30 7259 C 704.661 4.10333 -1.0914 0
M  V30 7260 O 705.685 3.4243 -0.98082 0
M  V30 7261 O 704.544 5.31737 -1.26165 0
M  V30 7262 H 701.638 0.812124 -0.156154 0
M  V30 7263 H 704.184 1.35713 -1.01882 0
M  V30 7264 H 702.956 3.31747 -2.07508 0
M  V30 7265 H 702.579 3.94695 -0.479767 0
M  V30 7266 N 703.576 0.692616 1.41565 0
M  V30 7267 C 704.539 0.0344174 2.29174 0
M  V30 7268 C 705.539 -0.710961 1.44229 0
M  V30 7269 O 706.729 -0.546293 1.65412 0
M  V30 7270 C 703.861 -0.961682 3.27054 0
M  V30 7271 H 705.054 0.805755 2.88873 0
M  V30 7272 H 702.607 0.455947 1.49502 0
M  V30 7273 H 703.342 -1.76089 2.72329 0
M  V30 7274 H 703.127 -0.430375 3.89731 0
M  V30 7275 H 704.617 -1.4201 3.92712 0
M  V30 7276 N 705.054 -1.51416 0.437162 0
M  V30 7277 C 706.301 -2.02086 -0.129364 0
M  V30 7278 C 706.629 -1.32133 -1.42728 0
M  V30 7279 O 705.884 -0.424916 -1.91031 0
M  V30 7280 C 706.183 -3.55203 -0.39564 0
M  V30 7281 C 705.849 -4.43447 0.81644 0
M  V30 7282 C 704.511 -4.67285 1.14884 0
M  V30 7283 C 706.863 -4.95219 1.62503 0
M  V30 7284 C 704.191 -5.40141 2.29052 0
M  V30 7285 C 706.543 -5.69327 2.7577 0
M  V30 7286 C 705.207 -5.91429 3.09464 0
M  V30 7287 H 704.477 -0.739486 -0.0473375 0
M  V30 7288 H 707.124 -1.82368 0.584321 0
M  V30 7289 H 705.429 -3.73252 -1.19121 0
M  V30 7290 H 707.126 -3.91944 -0.847399 0
M  V30 7291 H 703.716 -4.2509 0.547422 0
M  V30 7292 H 707.9 -4.76686 1.38144 0
M  V30 7293 H 703.156 -5.55468 2.55471 0
M  V30 7294 H 707.33 -6.08433 3.38795 0
M  V30 7295 H 704.957 -6.47662 3.98042 0
M  V30 7296 N 706.532 -0.168513 -1.56696 0
M  V30 7297 C 707.464 0.794249 -2.14998 0
M  V30 7298 C 708.477 1.1957 -1.10485 0
M  V30 7299 O 709.666 1.13604 -1.37682 0
M  V30 7300 C 706.766 2.08018 -2.67547 0
M  V30 7301 C 705.939 1.84274 -3.96689 0
M  V30 7302 C 704.998 2.97059 -4.3433 0
M  V30 7303 O 704.024 2.67815 -5.02259 0
M  V30 7304 N 705.226 4.24775 -3.9566 0
M  V30 7305 H 707.991 0.295832 -2.98236 0
M  V30 7306 H 705.552 0.0143611 -1.61894 0
M  V30 7307 H 707.544 2.82559 -2.89729 0
M  V30 7308 H 706.114 2.49059 -1.88914 0
M  V30 7309 H 705.334 0.936528 -3.82914 0
M  V30 7310 H 706.622 1.65773 -4.81037 0
M  V30 7311 H 706.02 4.51395 -3.40968 0
M  V30 7312 H 704.577 4.96027 -4.22848 0
M  V30 7313 N 708.01 1.57248 0.105221 0
M  V30 7314 C 709.24 1.89492 0.823175 0
M  V30 7315 C 709.648 0.75934 1.73294 0
M  V30 7316 O 708.991 -0.278182 1.81581 0
M  V30 7317 C 709.053 3.16891 1.69765 0
M  V30 7318 C 708.717 4.46787 0.960769 0
M  V30 7319 C 709.714 5.19061 0.295218 0
M  V30 7320 C 707.399 4.93467 0.937854 0
M  V30 7321 C 709.393 6.36246 -0.383393 0
M  V30 7322 C 707.08 6.10566 0.255452 0
M  V30 7323 C 708.078 6.81804 -0.404003 0
M  V30 7324 O 707.766 7.96673 -1.07549 0
M  V30 7325 H 707.498 0.631512 0.24118 0
M  V30 7326 H 710.052 2.05203 0.0899655 0
M  V30 7327 H 708.282 2.973 2.47285 0
M  V30 7328 H 709.971 3.35046 2.29126 0
M  V30 7329 H 710.737 4.84044 0.304448 0
M  V30 7330 H 706.616 4.37913 1.44058 0
M  V30 7331 H 710.16 6.91787 -0.898696 0
M  V30 7332 H 706.057 6.45039 0.244032 0
M  V30 7333 H 706.825 8.12596 -0.981355 0
M  V30 7334 N 709.488 -0.375779 1.53054 0
M  V30 7335 C 710.418 -1.46598 1.81745 0
M  V30 7336 C 711.399 -1.56337 0.670286 0
M  V30 7337 O 712.584 -1.71071 0.919158 0
M  V30 7338 C 709.714 -2.84058 1.99821 0
M  V30 7339 C 708.668 -2.8915 3.15557 0
M  V30 7340 C 707.994 -4.29187 3.18908 0
M  V30 7341 C 709.294 -2.57595 4.54359 0
M  V30 7342 H 710.988 -1.22837 2.73041 0
M  V30 7343 H 708.534 -0.589485 1.31381 0
M  V30 7344 H 710.487 -3.60342 2.18475 0
M  V30 7345 H 709.211 -3.09184 1.05226 0
M  V30 7346 H 707.87 -2.15316 2.96706 0
M  V30 7347 H 707.518 -4.51374 2.2197 0
M  V30 7348 H 707.218 -4.33512 3.96662 0
M  V30 7349 H 708.742 -5.07359 3.39734 0
M  V30 7350 H 710.156 -3.23595 4.73243 0
M  V30 7351 H 708.553 -2.73252 5.34279 0
M  V30 7352 H 709.623 -1.52882 4.60169 0
M  V30 7353 N 710.966 -1.44241 -0.634997 0
M  V30 7354 C 711.914 -1.51103 -1.76835 0
M  V30 7355 C 712.908 -0.383051 -1.65012 0
M  V30 7356 O 714.114 -0.557832 -1.71138 0
M  V30 7357 H 710.489 -0.474076 -0.583743 0
M  V30 7358 H 712.46 -2.46499 -1.68169 0
M  V30 7359 C 711.209 -1.4687 -3.15158 0
M  V30 7360 H 710.532 -2.32979 -3.24901 0
M  V30 7361 H 711.972 -1.55731 -3.94365 0
M  V30 7362 C 710.431 -0.188884 -3.3637 0
M  V30 7363 O 710.961 0.742487 -3.94778 0
M  V30 7364 N 709.167 -0.0932516 -2.9045 0
M  V30 7365 H 708.714 -0.852004 -2.43102 0
M  V30 7366 H 708.672 0.762308 -3.05018 0
M  V30 7367 N 712.444 0.87505 -1.31075 0
M  V30 7368 C 713.69 1.63009 -1.20647 0
M  V30 7369 C 714.023 1.9276 0.236045 0
M  V30 7370 O 713.298 1.55559 1.16754 0
M  V30 7371 C 713.581 2.96357 -2.0456 0
M  V30 7372 C 713.434 2.73516 -3.57084 0
M  V30 7373 C 714.753 3.974 -1.89107 0
M  V30 7374 H 711.872 0.591518 -0.439631 0
M  V30 7375 H 714.514 1.0119 -1.60812 0
M  V30 7376 H 712.664 3.49119 -1.70435 0
M  V30 7377 H 714.336 2.27465 -4.01319 0
M  V30 7378 H 712.579 2.0784 -3.80769 0
M  V30 7379 H 713.25 3.68377 -4.11099 0
M  V30 7380 H 715.726 3.5383 -2.18961 0
M  V30 7381 H 714.602 4.88596 -2.5013 0
M  V30 7382 H 714.863 4.33794 -0.85296 0
M  V30 7383 N 713.922 1.13953 1.08869 0
M  V30 7384 C 714.852 0.844824 2.17681 0
M  V30 7385 C 715.833 -0.198213 1.68941 0
M  V30 7386 O 717.018 -0.0559073 1.9412 0
M  V30 7387 C 714.148 0.316325 3.45856 0
M  V30 7388 C 713.102 1.29426 4.07962 0
M  V30 7389 C 712.428 0.625275 5.31031 0
M  V30 7390 C 713.728 2.65484 4.49795 0
M  V30 7391 H 715.422 1.75471 2.42591 0
M  V30 7392 H 712.968 0.845116 1.16592 0
M  V30 7393 H 714.921 0.0977876 4.21287 0
M  V30 7394 H 713.645 -0.628972 3.20486 0
M  V30 7395 H 712.304 1.49889 3.34558 0
M  V30 7396 H 711.952 -0.325678 5.01945 0
M  V30 7397 H 711.652 1.27777 5.73539 0
M  V30 7398 H 713.176 0.416152 6.0918 0
M  V30 7399 H 714.59 2.48957 5.16424 0
M  V30 7400 H 712.987 3.26963 5.03205 0
M  V30 7401 H 714.057 3.22717 3.61914 0
M  V30 7402 N 715.4 -1.26948 0.933913 0
M  V30 7403 C 716.649 -1.93378 0.573409 0
M  V30 7404 C 716.962 -1.74148 -0.890614 0
M  V30 7405 O 718.168 -2.34971 -1.36017 0
M  V30 7406 C 716.624 -3.46449 0.974747 0
M  V30 7407 C 716.232 -3.74425 2.45988 0
M  V30 7408 C 717.976 -4.18924 0.685791 0
M  V30 7409 C 715.883 -5.209 2.8003 0
M  V30 7410 H 714.813 -0.723952 0.210736 0
M  V30 7411 H 717.464 -1.44143 1.13557 0
M  V30 7412 H 715.846 -3.94528 0.341181 0
M  V30 7413 H 717.02 -3.37079 3.14188 0
M  V30 7414 H 715.335 -3.15167 2.72138 0
M  V30 7415 H 717.932 -5.26786 0.916546 0
M  V30 7416 H 718.275 -4.14587 -0.377217 0
M  V30 7417 H 718.808 -3.76687 1.27874 0
M  V30 7418 H 715.547 -5.30332 3.85264 0
M  V30 7419 H 715.067 -5.59369 2.16485 0
M  V30 7420 H 716.746 -5.88837 2.68105 0
M  V30 7421 N 716.879 -0.700114 -1.41195 0
M  V30 7422 C 717.826 -0.0376652 -2.30769 0
M  V30 7423 C 718.796 0.766544 -1.47354 0
M  V30 7424 O 719.981 0.73365 -1.76131 0
M  V30 7425 C 717.121 0.889452 -3.33441 0
M  V30 7426 C 716.234 0.076373 -4.31932 0
M  V30 7427 C 715.369 1.00155 -5.21673 0
M  V30 7428 C 714.408 0.181644 -6.1183 0
M  V30 7429 N 713.545 1.06087 -6.94039 0
M  V30 7430 H 718.385 -0.80726 -2.86858 0
M  V30 7431 H 715.922 -0.409798 -1.41277 0
M  V30 7432 H 717.88 1.44107 -3.91522 0
M  V30 7433 H 716.51 1.6254 -2.78892 0
M  V30 7434 H 715.562 -0.592223 -3.75762 0
M  V30 7435 H 716.874 -0.559076 -4.95657 0
M  V30 7436 H 716.028 1.62223 -5.8461 0
M  V30 7437 H 714.767 1.67085 -4.58186 0
M  V30 7438 H 713.772 -0.452085 -5.47938 0
M  V30 7439 H 714.997 -0.483925 -6.77374 0
M  V30 7440 H 712.943 1.7161 -6.33156 0
M  V30 7441 H 712.86 0.481094 -7.54468 0
M  V30 7442 H 714.128 1.66822 -7.6144 0
M  V30 7443 N 718.357 1.51182 -0.445186 0
M  V30 7444 C 719.289 2.25714 0.398206 0
M  V30 7445 C 720.302 1.30032 0.979562 0
M  V30 7446 O 721.491 1.55731 0.872368 0
M  V30 7447 C 718.591 3.00348 1.56985 0
M  V30 7448 C 717.764 4.23187 1.10596 0
M  V30 7449 C 716.823 4.80334 2.14863 0
M  V30 7450 O 715.849 5.4196 1.73977 0
M  V30 7451 N 717.051 4.65053 3.47427 0
M  V30 7452 H 719.816 2.98732 -0.240629 0
M  V30 7453 H 717.377 1.59556 -0.274507 0
M  V30 7454 H 719.369 3.35464 2.26376 0
M  V30 7455 H 717.939 2.30291 2.11387 0
M  V30 7456 H 717.159 3.93476 0.238832 0
M  V30 7457 H 718.447 5.02886 0.773537 0
M  V30 7458 H 717.845 4.15984 3.83372 0
M  V30 7459 H 716.402 5.04509 4.12691 0
M  V30 7460 N 719.835 0.176821 1.56605 0
M  V30 7461 C 721.083 -0.465793 1.96659 0
M  V30 7462 C 721.404 -1.63406 1.06412 0
M  V30 7463 O 720.674 -1.95457 0.131603 0
M  V30 7464 H 719.254 -0.175072 0.726195 0
M  V30 7465 H 721.916 0.25929 1.93168 0
M  V30 7466 H 721.012 -0.822138 3.01077 0
M  V30 7467 N 721.313 -1.57302 -0.09688 0
M  V30 7468 C 722.243 -2.0497 -1.11846 0
M  V30 7469 C 723.224 -0.938278 -1.41882 0
M  V30 7470 O 724.409 -1.20943 -1.51942 0
M  V30 7471 C 721.539 -2.47264 -2.43881 0
M  V30 7472 C 720.493 -3.62053 -2.28257 0
M  V30 7473 C 719.819 -3.90318 -3.65453 0
M  V30 7474 C 721.119 -4.93005 -1.72461 0
M  V30 7475 H 722.813 -2.90567 -0.721888 0
M  V30 7476 H 720.359 -1.39786 -0.345803 0
M  V30 7477 H 722.312 -2.7922 -3.15617 0
M  V30 7478 H 721.036 -1.58664 -2.8547 0
M  V30 7479 H 719.695 -3.30341 -1.58967 0
M  V30 7480 H 719.343 -2.98889 -4.04567 0
M  V30 7481 H 719.043 -4.67597 -3.55846 0
M  V30 7482 H 720.567 -4.24747 -4.3866 0
M  V30 7483 H 721.981 -5.23354 -2.34036 0
M  V30 7484 H 720.378 -5.74436 -1.73618 0
M  V30 7485 H 721.448 -4.80053 -0.683898 0
M  V30 7486 N 722.791 0.367657 -1.53252 0
M  V30 7487 C 724.019 1.13119 -1.73239 0
M  V30 7488 C 724.434 1.831 -0.460404 0
M  V30 7489 O 723.791 1.73483 0.566557 0
M  V30 7490 C 723.842 2.16308 -2.89643 0
M  V30 7491 O 723.563 1.49175 -4.1192 0
M  V30 7492 C 725.064 3.05224 -3.21486 0
M  V30 7493 H 722.284 0.338318 -0.579467 0
M  V30 7494 H 724.828 0.42721 -1.99988 0
M  V30 7495 H 722.983 2.82307 -2.65295 0
M  V30 7496 H 723.397 2.17912 -4.7709 0
M  V30 7497 H 724.871 3.73613 -4.06346 0
M  V30 7498 H 725.348 3.69919 -2.36763 0
M  V30 7499 H 725.954 2.44843 -3.47753 0
M  V30 7500 N 724.269 1.44576 0.627338 0
M  V30 7501 C 725.515 1.47777 1.38888 0
M  V30 7502 C 725.848 0.111406 1.9388 0
M  V30 7503 O 725.123 -0.87149 1.73883 0
M  V30 7504 C 725.406 2.54119 2.55138 0
M  V30 7505 C 725.259 4.00128 2.0547 0
M  V30 7506 C 726.578 2.56929 3.57317 0
M  V30 7507 H 723.697 0.538048 0.50366 0
M  V30 7508 H 726.339 1.76277 0.708978 0
M  V30 7509 H 724.489 2.29948 3.13139 0
M  V30 7510 H 726.161 4.35444 1.5227 0
M  V30 7511 H 724.404 4.11724 1.36623 0
M  V30 7512 H 725.075 4.7019 2.89181 0
M  V30 7513 H 727.551 2.78536 3.09122 0
M  V30 7514 H 726.427 3.33234 4.36173 0
M  V30 7515 H 726.688 1.6127 4.11636 0
M  V30 7516 N 725.747 -0.868086 1.31537 0
M  V30 7517 C 727.024 -1.60384 1.11965 0
M  V30 7518 C 727.404 -2.08584 -0.324949 0
M  V30 7519 O 726.752 -1.86561 -1.31937 0
M  V30 7520 C 726.962 -2.76038 2.13551 0
M  V30 7521 C 728.31 -3.45954 2.46173 0
M  V30 7522 O 729.334 -2.86247 2.11993 0
M  V30 7523 O 728.193 -4.53666 3.04711 0
M  V30 7524 H 725.287 -0.705705 0.431172 0
M  V30 7525 H 727.833 -0.913385 1.43022 0
M  V30 7526 H 726.605 -2.37849 3.10714 0
M  V30 7527 H 726.228 -3.52769 1.83411 0
M  V30 7528 N 727.225 -1.14528 -1.08264 0
M  V30 7529 C 728.135 -0.84728 -2.18765 0
M  V30 7530 C 729.151 0.172826 -1.7314 0
M  V30 7531 O 730.327 0.000985336 -2.014 0
M  V30 7532 C 727.392 -0.330633 -3.4512 0
M  V30 7533 C 726.453 -1.41348 -4.05363 0
M  V30 7534 C 725.686 -0.921387 -5.25686 0
M  V30 7535 O 725.909 0.236587 -5.69909 0
M  V30 7536 O 724.843 -1.70101 -5.77364 0
M  V30 7537 H 728.669 -1.7708 -2.46731 0
M  V30 7538 H 726.254 -0.923661 -1.17426 0
M  V30 7539 H 728.136 -0.0485053 -4.21372 0
M  V30 7540 H 726.811 0.565147 -3.18728 0
M  V30 7541 H 725.718 -1.74908 -3.30693 0
M  V30 7542 H 727.051 -2.28383 -4.36007 0
M  V30 7543 N 728.703 1.26451 -0.940633 0
M  V30 7544 C 729.633 2.28773 -0.467479 0
M  V30 7545 C 730.614 1.63218 0.478955 0
M  V30 7546 O 731.799 1.90427 0.380929 0
M  V30 7547 C 728.929 3.46259 0.268656 0
M  V30 7548 C 727.883 4.23898 -0.591171 0
M  V30 7549 C 727.209 5.33993 0.274891 0
M  V30 7550 C 728.509 4.87974 -1.86223 0
M  V30 7551 H 730.203 2.68601 -1.32265 0
M  V30 7552 H 727.749 1.29123 -0.637436 0
M  V30 7553 H 729.702 4.16951 0.610696 0
M  V30 7554 H 728.426 3.05383 1.15796 0
M  V30 7555 H 727.085 3.54969 -0.916098 0
M  V30 7556 H 726.733 4.89358 1.16353 0
M  V30 7557 H 726.433 5.86849 -0.297006 0
M  V30 7558 H 727.957 6.07523 0.612213 0
M  V30 7559 H 729.371 5.50883 -1.58747 0
M  V30 7560 H 727.768 5.50945 -2.37866 0
M  V30 7561 H 728.838 4.10945 -2.57394 0
M  V30 7562 N 730.181 0.707592 1.40822 0
M  V30 7563 C 731.429 0.243189 2.00632 0
M  V30 7564 C 731.75 -1.16512 1.56365 0
M  V30 7565 O 731.02 -1.78841 0.799553 0
M  V30 7566 H 729.6 0.0869203 0.741926 0
M  V30 7567 H 732.262 0.911438 1.72275 0
M  V30 7568 H 731.358 0.270014 3.1093 0
M  V30 7569 N 731.66 -1.50943 0.453197 0
M  V30 7570 C 732.937 -1.94872 -0.168633 0
M  V30 7571 C 733.317 -1.39272 -1.5864 0
M  V30 7572 O 732.665 -0.586272 -2.20851 0
M  V30 7573 C 732.875 -3.48757 -0.130217 0
M  V30 7574 C 734.223 -4.23331 -0.327975 0
M  V30 7575 O 735.247 -3.55594 -0.207619 0
M  V30 7576 O 734.106 -5.43529 -0.569077 0
M  V30 7577 H 731.2 -0.818042 -0.121394 0
M  V30 7578 H 733.746 -1.61782 0.512316 0
M  V30 7579 H 732.518 -3.81725 0.860346 0
M  V30 7580 H 732.141 -3.88333 -0.853397 0
M  V30 7581 N 733.138 -0.185124 -1.56509 0
M  V30 7582 C 734.071 0.77877 -2.145 0
M  V30 7583 C 735.049 1.21649 -1.07891 0
M  V30 7584 O 736.233 1.30579 -1.35946 0
M  V30 7585 C 733.36 2.05048 -2.69579 0
M  V30 7586 C 732.406 1.75569 -3.88687 0
M  V30 7587 S 733.239 0.912642 -5.27666 0
M  V30 7588 C 734.395 2.19471 -5.8616 0
M  V30 7589 H 734.628 0.285751 -2.95924 0
M  V30 7590 H 732.161 0.0297417 -1.54371 0
M  V30 7591 H 734.119 2.78085 -3.01958 0
M  V30 7592 H 732.78 2.51462 -1.88216 0
M  V30 7593 H 731.973 2.69962 -4.25601 0
M  V30 7594 H 731.575 1.10619 -3.57267 0
M  V30 7595 H 733.867 3.14815 -5.99915 0
M  V30 7596 H 734.81 1.87005 -6.8296 0
M  V30 7597 H 735.218 2.31862 -5.14685 0
M  V30 7598 N 734.616 1.57351 0.0885366 0
M  V30 7599 C 735.893 1.77449 0.822873 0
M  V30 7600 C 736.273 0.768463 1.96616 0
M  V30 7601 O 735.621 -0.201757 2.27608 0
M  V30 7602 C 735.831 3.23425 1.31137 0
M  V30 7603 C 737.179 3.86791 1.75152 0
M  V30 7604 O 738.203 3.27215 1.40745 0
M  V30 7605 O 737.062 4.91568 2.38794 0
M  V30 7606 H 734.156 0.727653 0.393002 0
M  V30 7607 H 736.702 1.69556 0.0699095 0
M  V30 7608 H 735.474 3.88188 0.49254 0
M  V30 7609 H 735.097 3.35977 2.12615 0
M  V30 7610 N 736.094 -0.359525 1.53444 0
M  V30 7611 C 737.004 -1.46445 1.83278 0
M  V30 7612 C 738.02 -1.5833 0.721629 0
M  V30 7613 O 739.196 -1.7411 1.01231 0
M  V30 7614 C 736.261 -2.81638 2.02191 0
M  V30 7615 C 735.322 -2.7923 3.26082 0
M  V30 7616 C 734.555 -4.07974 3.44082 0
M  V30 7617 O 734.778 -5.04447 2.66251 0
M  V30 7618 O 733.712 -4.13417 4.37458 0
M  V30 7619 H 737.538 -1.24156 2.77162 0
M  V30 7620 H 735.123 -0.550201 1.389 0
M  V30 7621 H 737.005 -3.61732 2.16167 0
M  V30 7622 H 735.68 -3.03892 1.11496 0
M  V30 7623 H 734.587 -1.97813 3.17523 0
M  V30 7624 H 735.92 -2.6193 4.16718 0
M  V30 7625 N 737.572 -1.44907 -0.619662 0
M  V30 7626 C 738.502 -1.55488 -1.742 0
M  V30 7627 C 739.483 -0.407143 -1.65156 0
M  V30 7628 O 740.668 -0.628743 -1.8374 0
M  V30 7629 C 737.798 -1.5097 -3.1277 0
M  V30 7630 C 736.752 -2.64337 -3.36615 0
M  V30 7631 C 736.078 -2.44872 -4.75333 0
M  V30 7632 C 737.378 -4.06423 -3.28051 0
M  V30 7633 H 739.072 -2.49432 -1.65602 0
M  V30 7634 H 736.618 -1.20047 -0.795281 0
M  V30 7635 H 738.571 -1.56971 -3.91073 0
M  V30 7636 H 737.295 -0.535486 -3.2218 0
M  V30 7637 H 735.954 -2.57744 -2.60698 0
M  V30 7638 H 735.602 -1.45617 -4.81461 0
M  V30 7639 H 735.302 -3.20888 -4.92244 0
M  V30 7640 H 736.826 -2.52709 -5.55851 0
M  V30 7641 H 738.24 -4.14324 -3.96243 0
M  V30 7642 H 736.637 -4.82733 -3.56495 0
M  V30 7643 H 737.707 -4.29183 -2.25676 0
M  V30 7644 N 739.05 0.861098 -1.31996 0
M  V30 7645 C 740.297 1.61481 -1.22188 0
M  V30 7646 C 740.625 1.93276 0.217853 0
M  V30 7647 O 739.88 1.56942 1.16909 0
M  V30 7648 C 740.179 2.94822 -2.02027 0
M  V30 7649 C 739.845 2.82483 -3.51446 0
M  V30 7650 C 738.507 2.78825 -3.92186 0
M  V30 7651 C 740.859 2.68878 -4.46491 0
M  V30 7652 C 738.187 2.59433 -5.26224 0
M  V30 7653 C 740.539 2.51022 -5.80664 0
M  V30 7654 C 739.203 2.45753 -6.20614 0
M  V30 7655 H 738.473 0.590902 -0.447119 0
M  V30 7656 H 741.12 0.999376 -1.63355 0
M  V30 7657 H 739.425 3.6045 -1.53569 0
M  V30 7658 H 741.122 3.52149 -1.91812 0
M  V30 7659 H 737.712 2.86152 -3.19085 0
M  V30 7660 H 741.896 2.70754 -4.1594 0
M  V30 7661 H 737.152 2.53784 -5.5624 0
M  V30 7662 H 741.326 2.39473 -6.53931 0
M  V30 7663 H 738.953 2.30485 -7.24417 0
M  V30 7664 N 740.528 1.15101 1.07655 0
M  V30 7665 C 741.458 0.867864 2.16773 0
M  V30 7666 C 742.439 -0.180283 1.69142 0
M  V30 7667 O 743.624 -0.0353152 1.94168 0
M  V30 7668 C 740.754 0.35299 3.45501 0
M  V30 7669 C 739.708 1.33746 4.06566 0
M  V30 7670 C 739.034 0.681562 5.30338 0
M  V30 7671 C 740.334 2.7024 4.46954 0
M  V30 7672 H 742.028 1.78034 2.40716 0
M  V30 7673 H 739.574 0.857435 1.15689 0
M  V30 7674 H 741.527 0.142465 4.21159 0
M  V30 7675 H 740.251 -0.594945 3.21135 0
M  V30 7676 H 738.91 1.53429 3.32949 0
M  V30 7677 H 738.558 -0.272422 5.02262 0
M  V30 7678 H 738.258 1.33853 5.72151 0
M  V30 7679 H 739.782 0.48074 6.08705 0
M  V30 7680 H 741.196 2.5442 5.13754 0
M  V30 7681 H 739.593 3.32282 4.99709 0
M  V30 7682 H 740.663 3.26537 3.58471 0
M  V30 7683 N 742.006 -1.2595 0.947325 0
M  V30 7684 C 742.954 -2.28152 0.452687 0
M  V30 7685 C 743.948 -1.62655 -0.473239 0
M  V30 7686 O 745.154 -1.76549 -0.350774 0
M  V30 7687 H 741.529 -0.741049 0.12787 0
M  V30 7688 H 743.5 -2.67267 1.32707 0
M  V30 7689 C 742.249 -3.46719 -0.26098 0
M  V30 7690 H 741.572 -3.97345 0.442352 0
M  V30 7691 H 743.012 -4.20135 -0.571208 0
M  V30 7692 C 741.471 -3.02605 -1.48094 0
M  V30 7693 O 742.001 -3.07979 -2.57899 0
M  V30 7694 N 740.207 -2.57877 -1.33969 0
M  V30 7695 H 739.754 -2.53704 -0.446295 0
M  V30 7696 H 739.712 -2.28725 -2.15713 0
M  V30 7697 N 743.484 -0.715051 -1.40445 0
M  V30 7698 C 744.895 -0.326763 -1.83818 0
M  V30 7699 C 745.246 1.13851 -1.59789 0
M  V30 7700 O 744.371 1.87611 -1.07848 0
M  V30 7701 C 744.966 -0.586297 -3.33688 0
M  V30 7702 C 743.525 -0.251724 -3.75557 0
M  V30 7703 C 742.672 -0.858928 -2.63662 0
M  V30 7704 H 745.623 -0.914241 -1.2972 0
M  V30 7705 H 745.644 0.148636 -3.8021 0
M  V30 7706 H 745.156 -1.65281 -3.51146 0
M  V30 7707 H 743.257 0.809754 -3.63695 0
M  V30 7708 H 743.37 -0.720348 -4.73654 0
M  V30 7709 H 741.734 -0.287013 -2.53078 0
M  V30 7710 H 742.517 -1.9297 -2.83932 0
M  V30 7711 N 744.962 1.50701 -0.461195 0
M  V30 7712 C 746.19 2.06681 0.0951756 0
M  V30 7713 C 746.605 1.32615 1.34382 0
M  V30 7714 O 745.962 0.392531 1.78229 0
M  V30 7715 C 746.013 3.59354 0.393316 0
M  V30 7716 O 745.734 4.30626 -0.805797 0
M  V30 7717 C 747.235 4.31926 0.997744 0
M  V30 7718 H 744.455 0.670995 -0.00267259 0
M  V30 7719 H 746.999 1.93991 -0.647137 0
M  V30 7720 H 745.154 3.7188 1.08555 0
M  V30 7721 H 745.568 5.21667 -0.544409 0
M  V30 7722 H 747.042 5.39756 1.15619 0
M  V30 7723 H 747.519 3.91772 1.98523 0
M  V30 7724 H 748.125 4.23905 0.344188 0
M  V30 7725 N 746.441 0.193421 1.56409 0
M  V30 7726 C 747.391 -0.74089 2.15627 0
M  V30 7727 C 748.375 -1.17747 1.09656 0
M  V30 7728 O 749.567 -1.13615 1.35723 0
M  V30 7729 C 746.696 -1.96091 2.81786 0
M  V30 7730 C 745.782 -1.54531 3.94944 0
M  V30 7731 N 746.173 -0.840569 4.98767 0
M  V30 7732 C 744.471 -1.83473 4.06514 0
M  V30 7733 C 745.172 -0.632571 5.7825 0
M  V30 7734 N 744.148 -1.18078 5.30621 0
M  V30 7735 H 747.95 -0.193718 2.93261 0
M  V30 7736 H 745.464 -0.00643211 1.62399 0
M  V30 7737 H 747.461 -2.64071 3.22602 0
M  V30 7738 H 746.121 -2.51282 2.05639 0
M  V30 7739 H 747.132 -0.496218 5.15517 0
M  V30 7740 H 743.809 -2.40184 3.41493 0
M  V30 7741 H 745.199 -0.0736433 6.7186 0
M  V30 7742 N 747.919 -1.57396 -0.0801906 0
M  V30 7743 C 749.166 -1.86836 -0.780927 0
M  V30 7744 C 749.494 -0.784012 -1.77999 0
M  V30 7745 O 748.749 0.220881 -1.94449 0
M  V30 7746 C 749.048 -3.22915 -1.53169 0
M  V30 7747 C 748.714 -4.45843 -0.67339 0
M  V30 7748 C 747.376 -4.79213 -0.436829 0
M  V30 7749 C 749.728 -5.21142 -0.0776786 0
M  V30 7750 C 747.056 -5.853 0.405062 0
M  V30 7751 C 749.408 -6.28119 0.751619 0
M  V30 7752 C 748.072 -6.59995 0.998131 0
M  V30 7753 H 747.342 -0.683682 -0.285761 0
M  V30 7754 H 749.989 -1.91454 -0.0419435 0
M  V30 7755 H 748.294 -3.14049 -2.34265 0
M  V30 7756 H 749.991 -3.42926 -2.07853 0
M  V30 7757 H 746.581 -4.19721 -0.867891 0
M  V30 7758 H 750.765 -4.95682 -0.247572 0
M  V30 7759 H 746.021 -6.084 0.60488 0
M  V30 7760 H 750.195 -6.8563 1.22 0
M  V30 7761 H 747.822 -7.42027 1.65227 0
M  V30 7762 N 749.397 0.351382 -1.53633 0
M  V30 7763 C 750.646 1.08988 -1.69719 0
M  V30 7764 C 750.959 1.90043 -0.462948 0
M  V30 7765 O 752.165 2.66769 -0.504613 0
M  V30 7766 C 750.621 1.98691 -3.00083 0
M  V30 7767 C 750.229 1.22881 -4.30818 0
M  V30 7768 C 751.973 2.72446 -3.25536 0
M  V30 7769 C 749.88 2.11568 -5.52262 0
M  V30 7770 H 748.81 0.410588 -0.632403 0
M  V30 7771 H 751.461 0.349886 -1.80133 0
M  V30 7772 H 749.843 2.76478 -2.83506 0
M  V30 7773 H 751.017 0.500582 -4.58073 0
M  V30 7774 H 749.332 0.60928 -4.11918 0
M  V30 7775 H 751.929 3.39055 -4.13456 0
M  V30 7776 H 752.272 3.38588 -2.42206 0
M  V30 7777 H 752.805 2.01735 -3.42852 0
M  V30 7778 H 749.544 1.4998 -6.38111 0
M  V30 7779 H 749.064 2.82201 -5.29266 0
M  V30 7780 H 750.743 2.70802 -5.87601 0
M  V30 7781 N 750.875 1.45233 0.611969 0
M  V30 7782 C 751.807 1.49575 1.73666 0
M  V30 7783 C 752.82 0.386987 1.58134 0
M  V30 7784 O 754.009 0.653804 1.66095 0
M  V30 7785 C 751.109 1.33223 3.11617 0
M  V30 7786 C 750.282 2.57694 3.5343 0
M  V30 7787 C 749.341 2.35962 4.70328 0
M  V30 7788 O 748.367 3.09553 4.77667 0
M  V30 7789 N 749.569 1.40243 5.63305 0
M  V30 7790 H 752.334 2.46539 1.70407 0
M  V30 7791 H 749.895 1.40917 0.79712 0
M  V30 7792 H 751.887 1.16502 3.87569 0
M  V30 7793 H 750.457 0.44551 3.09409 0
M  V30 7794 H 749.677 2.8956 2.67486 0
M  V30 7795 H 750.965 3.40441 3.78124 0
M  V30 7796 H 750.363 0.795023 5.60086 0
M  V30 7797 H 748.92 1.29496 6.38807 0
M  V30 7798 N 752.353 -0.854086 1.3245 0
M  V30 7799 C 753.283 -1.97827 1.24044 0
M  V30 7800 C 754.264 -1.69646 0.124166 0
M  V30 7801 O 755.449 -1.91687 0.31143 0
M  V30 7802 C 752.579 -3.33673 0.963324 0
M  V30 7803 C 751.533 -3.76207 2.04089 0
M  V30 7804 C 750.859 -5.0969 1.61618 0
M  V30 7805 C 752.159 -3.91612 3.45597 0
M  V30 7806 H 753.853 -2.05118 2.18099 0
M  V30 7807 H 751.399 -0.985489 1.04996 0
M  V30 7808 H 753.352 -4.11871 0.891061 0
M  V30 7809 H 752.076 -3.26597 -0.0128649 0
M  V30 7810 H 750.735 -3.0026 2.10332 0
M  V30 7811 H 750.383 -4.99072 0.627418 0
M  V30 7812 H 750.083 -5.3912 2.33717 0
M  V30 7813 H 751.607 -5.90381 1.55829 0
M  V30 7814 H 753.021 -4.60163 3.4194 0
M  V30 7815 H 751.418 -4.3246 4.16051 0
M  V30 7816 H 752.488 -2.9451 3.85217 0
M  V30 7817 N 753.831 -1.1567 -1.07043 0
M  V30 7818 C 755.056 -0.957946 -1.83952 0
M  V30 7819 C 755.481 0.488807 -1.81638 0
M  V30 7820 O 754.839 1.34869 -1.21162 0
M  V30 7821 C 754.887 -1.48064 -3.288 0
M  V30 7822 O 753.991 -0.681921 -4.06723 0
M  V30 7823 H 753.332 -0.341453 -0.569479 0
M  V30 7824 H 755.862 -1.53728 -1.35015 0
M  V30 7825 H 755.872 -1.49484 -3.7963 0
M  V30 7826 H 754.547 -2.53388 -3.29799 0
M  V30 7827 H 753.124 -0.737612 -3.65532 0
M  V30 7828 N 755.309 1.25446 -0.953992 0
M  V30 7829 C 756.725 1.4539 -0.658316 0
M  V30 7830 C 756.925 1.85607 0.784356 0
M  V30 7831 O 755.981 1.98568 1.55972 0
M  V30 7832 C 757.294 2.52643 -1.6307 0
M  V30 7833 C 758.842 2.66484 -1.64181 0
M  V30 7834 C 759.317 3.76921 -2.60182 0
M  V30 7835 N 760.808 3.84331 -2.58542 0
M  V30 7836 C 761.543 4.69271 -3.29503 0
M  V30 7837 N 761.039 5.58503 -4.09934 0
M  V30 7838 N 762.832 4.6323 -3.18393 0
M  V30 7839 H 754.983 0.976337 -1.8863 0
M  V30 7840 H 757.246 0.490343 -0.811337 0
M  V30 7841 H 756.952 2.29949 -2.66114 0
M  V30 7842 H 756.826 3.50547 -1.39271 0
M  V30 7843 H 759.213 2.88545 -0.618552 0
M  V30 7844 H 759.294 1.68982 -1.92038 0
M  V30 7845 H 758.938 3.55612 -3.62633 0
M  V30 7846 H 758.868 4.73906 -2.29609 0
M  V30 7847 H 761.359 3.20544 -2.0015 0
M  V30 7848 H 761.672 6.20241 -4.61 0
M  V30 7849 H 760.017 5.58214 -4.14032 0
M  V30 7850 H 763.208 3.92527 -2.5503 0
M  V30 7851 H 763.381 5.29204 -3.73961 0
M  V30 7852 N 756.787 0.722489 1.40064 0
M  V30 7853 C 757.717 0.0892452 2.33329 0
M  V30 7854 C 758.698 -0.737992 1.53257 0
M  V30 7855 O 759.883 -0.685516 1.81698 0
M  V30 7856 C 757.013 -0.828139 3.37282 0
M  V30 7857 C 755.967 -0.106005 4.27869 0
M  V30 7858 C 755.293 -1.13957 5.22415 0
M  V30 7859 C 756.593 1.04395 5.11761 0
M  V30 7860 H 758.287 0.868269 2.86534 0
M  V30 7861 H 755.833 0.418982 1.3777 0
M  V30 7862 H 757.786 -1.28058 4.01471 0
M  V30 7863 H 756.51 -1.63914 2.82489 0
M  V30 7864 H 755.169 0.326683 3.65142 0
M  V30 7865 H 754.817 -1.9438 4.63924 0
M  V30 7866 H 754.517 -0.661233 5.83868 0
M  V30 7867 H 756.041 -1.59197 5.89482 0
M  V30 7868 H 757.455 0.670541 5.69365 0
M  V30 7869 H 755.852 1.4511 5.82291 0
M  V30 7870 H 756.922 1.87144 4.47331 0
M  V30 7871 N 758.265 -1.50454 0.469181 0
M  V30 7872 C 759.681 -1.59124 0.123226 0
M  V30 7873 C 759.881 -1.47749 -1.37013 0
M  V30 7874 O 758.937 -1.335 -2.14322 0
M  V30 7875 C 760.25 -2.93101 0.67172 0
M  V30 7876 C 761.798 -3.06491 0.634978 0
M  V30 7877 C 762.273 -4.43041 1.16098 0
M  V30 7878 N 763.764 -4.49448 1.12031 0
M  V30 7879 C 764.499 -5.53491 1.49784 0
M  V30 7880 N 763.995 -6.64798 1.94976 0
M  V30 7881 N 765.788 -5.44025 1.41399 0
M  V30 7882 H 757.939 -1.56091 1.44046 0
M  V30 7883 H 760.202 -0.737564 0.59557 0
M  V30 7884 H 759.908 -3.06895 1.7178 0
M  V30 7885 H 759.782 -3.77027 0.114222 0
M  V30 7886 H 762.169 -2.92346 -0.402187 0
M  V30 7887 H 762.25 -2.24328 1.22926 0
M  V30 7888 H 761.894 -4.57935 2.19677 0
M  V30 7889 H 761.824 -5.23794 0.542939 0
M  V30 7890 H 764.315 -3.69575 0.788828 0
M  V30 7891 H 764.628 -7.40246 2.21936 0
M  V30 7892 H 762.973 -6.65923 1.98927 0
M  V30 7893 H 766.164 -4.55955 1.05935 0
M  V30 7894 H 766.337 -6.2499 1.71147 0
M  V30 7895 N 759.743 -0.201713 -1.56304 0
M  V30 7896 C 760.706 0.702811 -2.18159 0
M  V30 7897 C 761.706 1.13619 -1.13787 0
M  V30 7898 O 762.896 1.0482 -1.39134 0
M  V30 7899 C 760.028 1.96032 -2.78898 0
M  V30 7900 H 761.221 0.163836 -2.99452 0
M  V30 7901 H 758.774 0.04791 -1.56227 0
M  V30 7902 H 759.509 2.54165 -2.01421 0
M  V30 7903 H 759.294 1.65824 -3.55309 0
M  V30 7904 H 760.784 2.60519 -3.26373 0
M  V30 7905 N 761.222 1.57436 0.0718424 0
M  V30 7906 C 762.47 1.86878 0.769484 0
M  V30 7907 C 762.791 0.7937 1.78116 0
M  V30 7908 O 762.061 -0.177642 1.95093 0
M  V30 7909 H 760.641 0.689593 0.287177 0
M  V30 7910 H 763.303 1.94841 0.0479427 0
M  V30 7911 H 762.399 2.84387 1.28572 0
M  V30 7912 N 762.7 -0.34323 1.53817 0
M  V30 7913 C 763.925 -1.1079 1.75329 0
M  V30 7914 C 764.35 -1.81571 0.491293 0
M  V30 7915 O 763.708 -1.72561 -0.556089 0
M  V30 7916 C 763.756 -2.09681 2.9337 0
M  V30 7917 O 762.86 -3.17207 2.63541 0
M  V30 7918 H 762.201 -0.320402 0.581583 0
M  V30 7919 H 764.731 -0.393525 2.0078 0
M  V30 7920 H 764.741 -2.52897 3.20168 0
M  V30 7921 H 763.416 -1.5756 3.84899 0
M  V30 7922 H 761.993 -2.78806 2.47632 0
M  V30 7923 N 764.178 -1.45556 -0.604258 0
M  V30 7924 C 765.125 -1.54482 -1.71476 0
M  V30 7925 C 766.095 -0.390479 -1.61445 0
M  V30 7926 O 767.28 -0.604371 -1.80975 0
M  V30 7927 C 764.42 -1.52064 -3.09791 0
M  V30 7928 C 763.533 -2.78073 -3.30604 0
M  V30 7929 C 762.668 -2.67304 -4.59044 0
M  V30 7930 C 761.707 -3.88352 -4.73127 0
M  V30 7931 N 760.844 -3.76098 -5.9287 0
M  V30 7932 H 765.684 -2.49349 -1.63184 0
M  V30 7933 H 763.221 -1.23725 -0.795641 0
M  V30 7934 H 765.179 -1.48649 -3.89819 0
M  V30 7935 H 763.809 -0.607442 -3.17033 0
M  V30 7936 H 762.861 -2.91561 -2.44329 0
M  V30 7937 H 764.173 -3.67847 -3.36883 0
M  V30 7938 H 763.327 -2.61875 -5.47272 0
M  V30 7939 H 762.066 -1.75135 -4.55169 0
M  V30 7940 H 761.071 -3.94137 -3.83322 0
M  V30 7941 H 762.296 -4.81591 -4.78797 0
M  V30 7942 H 760.242 -2.867 -5.90033 0
M  V30 7943 H 760.159 -4.59509 -6.00323 0
M  V30 7944 H 761.427 -3.74607 -6.83586 0
M  V30 7945 N 765.656 0.84705 -1.32902 0
M  V30 7946 C 766.604 1.97765 -1.22441 0
M  V30 7947 C 767.598 1.68919 -0.127546 0
M  V30 7948 O 768.804 1.77633 -0.290973 0
M  V30 7949 H 765.179 0.649072 -0.379748 0
M  V30 7950 H 767.15 2.03713 -2.18044 0
M  V30 7951 C 765.899 3.33834 -0.972125 0
M  V30 7952 H 765.222 3.56564 -1.80837 0
M  V30 7953 H 766.662 4.13467 -0.939209 0
M  V30 7954 C 765.121 3.35328 0.325059 0
M  V30 7955 O 765.651 3.78887 1.33445 0
M  V30 7956 N 763.857 2.88488 0.349718 0
M  V30 7957 H 763.404 2.53234 -0.472236 0
M  V30 7958 H 763.362 2.8987 1.21748 0
M  V30 7959 N 767.134 1.16236 1.06428 0
M  V30 7960 C 768.064 0.890807 2.1584 0
M  V30 7961 C 769.045 -0.162333 1.69324 0
M  V30 7962 O 770.23 -0.0147191 1.94194 0
M  V30 7963 C 767.36 0.389615 3.45108 0
M  V30 7964 C 766.314 1.38051 4.05125 0
M  V30 7965 C 765.64 0.737773 5.29586 0
M  V30 7966 C 766.94 2.74965 4.44062 0
M  V30 7967 H 768.634 1.80577 2.38814 0
M  V30 7968 H 766.18 0.869657 1.14774 0
M  V30 7969 H 768.133 0.187127 4.20984 0
M  V30 7970 H 766.857 -0.560851 3.21748 0
M  V30 7971 H 765.516 1.56952 3.31303 0
M  V30 7972 H 765.164 -0.219135 5.02522 0
M  V30 7973 H 764.864 1.39914 5.70699 0
M  V30 7974 H 766.388 0.545275 6.0816 0
M  V30 7975 H 767.802 2.59855 5.11027 0
M  V30 7976 H 766.199 3.37563 4.96156 0
M  V30 7977 H 767.269 3.30321 3.54987 0
M  V30 7978 N 768.612 -1.24939 0.960631 0
M  V30 7979 C 769.858 -1.93104 0.61958 0
M  V30 7980 C 770.191 -1.74991 -0.84212 0
M  V30 7981 O 769.466 -1.09867 -1.60498 0
M  V30 7982 C 769.749 -3.46326 0.986422 0
M  V30 7983 C 769.602 -3.73638 2.50429 0
M  V30 7984 C 770.921 -4.37067 0.515827 0
M  V30 7985 H 768.04 -0.701311 0.226566 0
M  V30 7986 H 770.682 -1.47442 1.19836 0
M  V30 7987 H 768.832 -3.85348 0.493907 0
M  V30 7988 H 770.504 -3.44217 3.07103 0
M  V30 7989 H 768.747 -3.19035 2.93937 0
M  V30 7990 H 769.418 -4.80815 2.71147 0
M  V30 7991 H 771.894 -4.05381 0.938389 0
M  V30 7992 H 770.77 -5.43022 0.80114 0
M  V30 7993 H 771.031 -4.38224 -0.584171 0
M  V30 7994 N 770.09 -0.729906 -1.39679 0
M  V30 7995 C 771.315 -0.284345 -2.05442 0
M  V30 7996 C 771.74 1.07056 -1.54663 0
M  V30 7997 O 771.098 1.67732 -0.688157 0
M  V30 7998 C 771.146 -0.290089 -3.59431 0
M  V30 7999 O 770.25 0.723978 -4.05995 0
M  V30 8000 H 769.591 -0.130311 -0.651088 0
M  V30 8001 H 772.121 -0.994403 -1.78809 0
M  V30 8002 H 772.131 -0.132712 -4.07784 0
M  V30 8003 H 770.806 -1.27877 -3.95753 0
M  V30 8004 H 769.383 0.533154 -3.69069 0
M  V30 8005 N 771.568 1.50203 -0.477153 0
M  V30 8006 C 772.498 2.31517 0.303646 0
M  V30 8007 C 773.479 1.38696 0.984753 0
M  V30 8008 O 774.664 1.67615 0.980758 0
M  V30 8009 C 771.794 3.18598 1.38249 0
M  V30 8010 C 770.748 4.2002 0.822645 0
M  V30 8011 C 770.074 4.95878 2.00024 0
M  V30 8012 C 771.374 5.22023 -0.170185 0
M  V30 8013 H 773.068 2.97042 -0.375027 0
M  V30 8014 H 770.614 1.42848 -0.181802 0
M  V30 8015 H 772.567 3.74282 1.93625 0
M  V30 8016 H 771.291 2.5097 2.09002 0
M  V30 8017 H 769.95 3.65445 0.290813 0
M  V30 8018 H 769.598 4.24717 2.69489 0
M  V30 8019 H 769.298 5.64487 1.63183 0
M  V30 8020 H 770.822 5.54399 2.55878 0
M  V30 8021 H 772.236 5.72543 0.294606 0
M  V30 8022 H 770.633 5.98386 -0.453181 0
M  V30 8023 H 771.703 4.72396 -1.09408 0
M  V30 8024 O 773.085 0.351473 1.57629 0
M  V30 8025 H 773.776 -0.202268 1.92641 0
M  V30 END ATOM
M  V30 BEGIN BOND
M  V30 END BOND
M  V30 END CTAB
M  END
$$$$
