drugbank_target|P06731 Carcinoembryonic antigen-related cell adhesion molecule 5 (DB05097; DB08217)
 OpenBabel12092120483D

  0  0  0     0  0            999 V3000
M  V30 BEGIN CTAB
M  V30 COUNTS 10675 10812 0 0 0
M  V30 BEGIN ATOM
M  V30 1 H -0.908 1.98254 -0.117106 0
M  V30 2 N 0 1.576 0 0
M  V30 3 C 0.933 2.03868 1.02534 0
M  V30 4 C 1.911 0.928543 1.3348 0
M  V30 5 O 3.095 1.19667 1.45644 0
M  V30 6 C 0.222 2.43627 2.35294 0
M  V30 7 C -0.732 3.65373 2.2001 0
M  V30 8 S 0.101 5.13292 1.52614 0
M  V30 9 C 1.257 5.56322 2.86805 0
M  V30 10 H 1.49 2.90518 0.631377 0
M  V30 11 H -0.977 1.52953 0.210867 0
M  V30 12 H 0.981 2.67203 3.11629 0
M  V30 13 H -0.358 1.57376 2.7183 0
M  V30 14 H -1.165 3.90944 3.18086 0
M  V30 15 H -1.563 3.418 1.51819 0
M  V30 16 H 0.729 5.58782 3.83104 0
M  V30 17 H 1.672 6.56266 2.65933 0
M  V30 18 H 2.08 4.83886 2.90714 0
M  V30 19 N 1.4781 -0.272755 1.55222 0
M  V30 20 C 2.3881 -1.35918 1.91216 0
M  V30 21 C 3.4041 -1.54026 0.809436 0
M  V30 22 O 4.5801 -1.68148 1.10852 0
M  V30 23 C 1.6451 -2.69834 2.17693 0
M  V30 24 C 0.7061 -2.6047 3.41253 0
M  V30 25 C -0.0609 -3.88 3.66458 0
M  V30 26 O 0.1621 -4.88693 2.94169 0
M  V30 27 O -0.9039 -3.88189 4.59992 0
M  V30 28 H 2.9221 -1.0839 2.83699 0
M  V30 29 H 0.5071 -0.471301 1.41771 0
M  V30 30 H 2.3891 -3.49017 2.36147 0
M  V30 31 H 1.0641 -2.97148 1.28392 0
M  V30 32 H -0.0289 -1.79663 3.28134 0
M  V30 33 H 1.3041 -2.38106 4.30774 0
M  V30 34 N 2.9562 -1.48159 -0.537278 0
M  V30 35 C 4.1812 -1.59707 -1.32319 0
M  V30 36 C 4.6062 -0.254859 -1.86365 0
M  V30 37 O 3.9642 0.772378 -1.64024 0
M  V30 38 C 4.0122 -2.6412 -2.45505 0
M  V30 39 O 3.1162 -2.20774 -3.48328 0
M  V30 40 H 2.4572 -0.535791 -0.392204 0
M  V30 41 H 4.9872 -1.94092 -0.647268 0
M  V30 42 H 4.9972 -2.85166 -2.91795 0
M  V30 43 H 3.6722 -3.61567 -2.05528 0
M  V30 44 H 2.2492 -2.09911 -3.08207 0
M  V30 45 N 4.4343 0.785586 -1.36625 0
M  V30 46 C 5.8453 1.36101 -1.27803 0
M  V30 47 C 6.1963 1.96035 0.0804875 0
M  V30 48 O 5.3213 1.92834 0.982042 0
M  V30 49 C 5.9163 2.47442 -2.31426 0
M  V30 50 C 4.4753 3.00789 -2.26281 0
M  V30 51 C 3.6223 1.73896 -2.15999 0
M  V30 52 H 6.5733 0.586928 -1.47448 0
M  V30 53 H 6.5943 3.2656 -1.95291 0
M  V30 54 H 6.1063 2.03791 -3.30289 0
M  V30 55 H 4.2073 3.48851 -1.30896 0
M  V30 56 H 4.3203 3.57343 -3.19128 0
M  V30 57 H 2.6843 1.9628 -1.62316 0
M  V30 58 H 3.4673 1.32368 -3.16755 0
M  V30 59 N 5.9124 1.20967 1.01018 0
M  V30 60 C 7.1374 1.0503 1.78839 0
M  V30 61 C 7.5624 -0.395752 1.8389 0
M  V30 62 O 6.9204 -1.28529 1.27867 0
M  V30 63 C 6.9684 1.64602 3.2084 0
M  V30 64 O 6.0724 0.887988 4.02726 0
M  V30 65 H 5.4134 0.369987 0.551367 0
M  V30 66 H 7.9434 1.60399 1.27018 0
M  V30 67 H 7.9534 1.68607 3.71532 0
M  V30 68 H 6.6284 2.69841 3.16479 0
M  V30 69 H 5.2054 0.922648 3.61305 0
M  V30 70 N 7.3905 -1.2043 1.01659 0
M  V30 71 C 8.3535 -2.21433 0.591616 0
M  V30 72 C 9.3535 -1.57203 -0.338226 0
M  V30 73 O 10.5435 -1.73737 -0.126918 0
M  V30 74 C 7.6755 -3.40628 -0.136058 0
M  V30 75 H 8.8685 -2.60545 1.48514 0
M  V30 76 H 6.4215 -1.33893 0.806379 0
M  V30 77 H 7.1565 -3.07019 -1.04449 0
M  V30 78 H 6.9415 -3.88475 0.531917 0
M  V30 79 H 8.4315 -4.15475 -0.420735 0
M  V30 80 N 8.8686 -0.792821 -1.36206 0
M  V30 81 C 10.2796 -0.429513 -1.81692 0
M  V30 82 C 10.6306 1.04695 -1.65932 0
M  V30 83 O 9.7556 1.81256 -1.18218 0
M  V30 84 C 10.3506 -0.772831 -3.29868 0
M  V30 85 C 8.9096 -0.462307 -3.7355 0
M  V30 86 C 8.0566 -1.00569 -2.5842 0
M  V30 87 H 11.0076 -0.985672 -1.24379 0
M  V30 88 H 11.0286 -0.0651928 -3.80444 0
M  V30 89 H 10.5406 -1.84747 -3.41307 0
M  V30 90 H 8.6416 0.604158 -3.67669 0
M  V30 91 H 8.7546 -0.985299 -4.68859 0
M  V30 92 H 7.1186 -0.428734 -2.51066 0
M  V30 93 H 7.9016 -2.08616 -2.72643 0
M  V30 94 N 10.3467 1.47872 -0.545128 0
M  V30 95 C 11.7577 1.86384 -0.108581 0
M  V30 96 C 12.1087 1.45309 1.31832 0
M  V30 97 O 11.2337 0.850641 1.9898 0
M  V30 98 C 11.8287 3.38265 -0.190274 0
M  V30 99 C 10.3877 3.75914 0.191164 0
M  V30 100 C 9.5347 2.71926 -0.543273 0
M  V30 101 H 12.4857 1.39561 -0.755537 0
M  V30 102 H 12.5067 3.75831 0.594217 0
M  V30 103 H 12.0187 3.6813 -1.2289 0
M  V30 104 H 10.1197 3.51665 1.23136 0
M  V30 105 H 10.2327 4.78836 -0.158987 0
M  V30 106 H 8.5967 2.54697 0.0122495 0
M  V30 107 H 9.3797 3.04634 -1.58282 0
M  V30 108 N 11.8248 0.280983 1.55075 0
M  V30 109 C 12.7748 -0.618585 2.19448 0
M  V30 110 C 13.7588 -1.11401 1.16098 0
M  V30 111 O 14.9508 -1.0581 1.41891 0
M  V30 112 C 12.0798 -1.79951 2.92357 0
M  V30 113 C 11.1658 -1.321 4.03002 0
M  V30 114 N 11.5568 -0.559044 5.02701 0
M  V30 115 C 9.8548 -1.60346 4.16179 0
M  V30 116 C 10.5558 -0.306722 5.80891 0
M  V30 117 N 9.5318 -0.880825 5.36416 0
M  V30 118 H 13.3338 -0.0286638 2.93886 0
M  V30 119 H 10.8478 0.0848104 1.62178 0
M  V30 120 H 12.8448 -2.45531 3.36927 0
M  V30 121 H 11.5048 -2.39333 2.19431 0
M  V30 122 H 12.5158 -0.205827 5.17491 0
M  V30 123 H 9.1928 -2.20621 3.54447 0
M  V30 124 H 10.5828 0.30391 6.71212 0
M  V30 125 N 13.3029 -1.57598 0.00835791 0
M  V30 126 C 14.7189 -1.55764 -0.347822 0
M  V30 127 C 14.9189 -1.01186 -1.74252 0
M  V30 128 O 13.9749 -0.649371 -2.44007 0
M  V30 129 C 15.2879 -2.99927 -0.215407 0
M  V30 130 C 16.8359 -3.11656 -0.289725 0
M  V30 131 C 17.3109 -4.57621 -0.18634 0
M  V30 132 N 18.8019 -4.62557 -0.243978 0
M  V30 133 C 19.5369 -5.73094 -0.18745 0
M  V30 134 N 19.0329 -6.92753 -0.0810331 0
M  V30 135 N 20.8259 -5.61588 -0.239925 0
M  V30 136 H 12.9769 -1.91411 0.92062 0
M  V30 137 H 15.2399 -0.879562 0.353659 0
M  V30 138 H 14.9459 -3.43729 0.744512 0
M  V30 139 H 14.8199 -3.63865 -0.994097 0
M  V30 140 H 17.2069 -2.67779 -1.24009 0
M  V30 141 H 17.2879 -2.5048 0.51898 0
M  V30 142 H 16.9319 -5.02174 0.760519 0
M  V30 143 H 16.8619 -5.16752 -1.01364 0
M  V30 144 H 19.3529 -3.76481 -0.327217 0
M  V30 145 H 19.6659 -7.72787 -0.0440241 0
M  V30 146 H 18.0109 -6.94984 -0.0465419 0
M  V30 147 H 21.2019 -4.66996 -0.321317 0
M  V30 148 H 21.3749 -6.47714 -0.192407 0
M  V30 149 N 14.781 0.264519 -1.55364 0
M  V30 150 C 16.027 0.992314 -1.77552 0
M  V30 151 C 16.382 1.83626 -0.574379 0
M  V30 152 O 15.675 1.86648 0.432782 0
M  V30 153 C 15.869 1.9004 -3.02687 0
M  V30 154 C 15.698 1.14583 -4.34857 0
M  V30 155 C 14.468 0.858068 -4.97961 0
M  V30 156 C 16.666 0.532069 -5.1154 0
M  V30 157 N 14.648 0.0775974 -6.13851 0
M  V30 158 C 16.019 -0.113823 -6.19896 0
M  V30 159 C 18.074 0.440763 -4.95945 0
M  V30 160 C 16.777 -0.842231 -7.14352 0
M  V30 161 C 18.803 -0.274072 -5.90765 0
M  V30 162 C 18.165 -0.90867 -6.98515 0
M  V30 163 H 14.264 0.344811 -0.701875 0
M  V30 164 H 16.848 0.267141 -1.92859 0
M  V30 165 H 15.019 2.59775 -2.88741 0
M  V30 166 H 16.751 2.56243 -3.13243 0
M  V30 167 H 13.506 1.16547 -4.59036 0
M  V30 168 H 13.93 -0.300216 -6.76334 0
M  V30 169 H 18.572 0.917064 -4.12735 0
M  V30 170 H 16.29 -1.33019 -7.97077 0
M  V30 171 H 19.876 -0.345151 -5.80775 0
M  V30 172 H 18.756 -1.45299 -7.70622 0
M  V30 173 N 16.2591 1.48442 0.529413 0
M  V30 174 C 17.4991 1.58086 1.29569 0
M  V30 175 C 17.8631 0.249302 1.90375 0
M  V30 176 O 19.0641 0.220738 2.67892 0
M  V30 177 C 17.3351 2.68793 2.35552 0
M  V30 178 S 18.8941 2.98207 3.21898 0
M  V30 179 H 15.7121 0.557922 0.440732 0
M  V30 180 H 18.3141 1.85966 0.603059 0
M  V30 181 H 17.0181 3.64102 1.89363 0
M  V30 182 H 16.5491 2.42817 3.09522 0
M  V30 183 H 18.5641 2.37548 4.35644 0
M  V30 184 N 17.7372 -0.778329 1.37039 0
M  V30 185 C 18.9862 -1.53189 1.3121 0
M  V30 186 C 19.2992 -1.95328 -0.103095 0
M  V30 187 O 20.5052 -2.70012 -0.283826 0
M  V30 188 C 18.9612 -2.76591 2.30272 0
M  V30 189 C 18.5692 -2.41577 3.77286 0
M  V30 190 C 20.3132 -3.5455 2.33441 0
M  V30 191 C 18.2202 -3.61441 4.68096 0
M  V30 192 H 17.1502 -0.5751 0.487622 0
M  V30 193 H 19.8012 -0.853101 1.62464 0
M  V30 194 H 18.1832 -3.46326 1.92027 0
M  V30 195 H 19.3572 -1.79668 4.2433 0
M  V30 196 H 17.6722 -1.76806 3.76999 0
M  V30 197 H 20.2692 -4.43628 2.98493 0
M  V30 198 H 20.6122 -3.93936 1.34611 0
M  V30 199 H 21.1452 -2.91805 2.7036 0
M  V30 200 H 17.8842 -3.27142 5.6803 0
M  V30 201 H 17.4042 -4.22478 4.25761 0
M  V30 202 H 19.0832 -4.28335 4.8491 0
M  V30 203 N 19.2153 -1.21501 -1.00376 0
M  V30 204 C 20.6263 -1.03146 -1.55621 0
M  V30 205 C 20.9773 0.408375 -1.91903 0
M  V30 206 O 20.1023 1.29177 -1.73616 0
M  V30 207 C 20.6973 -1.86612 -2.82775 0
M  V30 208 C 19.2563 -1.72586 -3.34501 0
M  V30 209 C 18.4033 -1.83747 -2.07683 0
M  V30 210 H 21.3543 -1.35505 -0.826081 0
M  V30 211 H 21.3753 -1.3771 -3.54706 0
M  V30 212 H 20.8873 -2.91399 -2.56336 0
M  V30 213 H 18.9883 -0.704877 -3.65872 0
M  V30 214 H 19.1013 -2.54623 -4.05837 0
M  V30 215 H 17.4653 -1.27069 -2.20739 0
M  V30 216 H 18.2483 -2.90044 -1.83655 0
M  V30 217 N 20.6934 1.19889 -1.02296 0
M  V30 218 C 21.9394 1.89973 -0.726759 0
M  V30 219 C 22.2944 1.7776 0.73614 0
M  V30 220 O 21.5874 1.15523 1.52856 0
M  V30 221 C 21.7814 3.39883 -1.10518 0
M  V30 222 C 21.6104 3.66684 -2.60332 0
M  V30 223 C 20.3804 3.85045 -3.27213 0
M  V30 224 C 22.5784 3.68727 -3.58532 0
M  V30 225 N 20.5604 3.99422 -4.66192 0
M  V30 226 C 21.9314 3.88604 -4.83101 0
M  V30 227 C 23.9864 3.51722 -3.52414 0
M  V30 228 C 22.6894 3.9324 -6.02292 0
M  V30 229 C 24.7154 3.57632 -4.71013 0
M  V30 230 C 24.0774 3.77988 -5.94394 0
M  V30 231 H 20.1764 0.714551 -0.317712 0
M  V30 232 H 22.7604 1.44123 -1.30907 0
M  V30 233 H 20.9314 3.8447 -0.551142 0
M  V30 234 H 22.6634 3.97464 -0.761853 0
M  V30 235 H 19.4184 3.83689 -2.77632 0
M  V30 236 H 19.8424 4.10473 -5.38368 0
M  V30 237 H 24.4844 3.34945 -2.58015 0
M  V30 238 H 22.2024 4.08811 -6.97065 0
M  V30 239 H 25.7884 3.45773 -4.67902 0
M  V30 240 H 24.6684 3.82428 -6.8463 0
M  V30 241 N 22.1715 0.800033 1.35784 0
M  V30 242 C 23.1035 0.163596 2.28615 0
M  V30 243 C 24.1165 -0.633317 1.49976 0
M  V30 244 O 25.3055 -0.466754 1.72289 0
M  V30 245 C 22.4055 -0.790958 3.29541 0
M  V30 246 C 21.5785 -0.0418255 4.3738 0
M  V30 247 C 20.6375 -0.91389 5.18203 0
M  V30 248 O 19.6635 -0.367234 5.68014 0
M  V30 249 N 20.8655 -2.23682 5.35674 0
M  V30 250 H 23.6305 0.96105 2.83873 0
M  V30 251 H 21.1915 0.654894 1.48063 0
M  V30 252 H 23.1835 -1.37844 3.80501 0
M  V30 253 H 21.7535 -1.48925 2.74846 0
M  V30 254 H 20.9735 0.726813 3.87442 0
M  V30 255 H 22.2615 0.474719 5.06581 0
M  V30 256 H 21.6595 -2.70497 4.96838 0
M  V30 257 H 20.2165 -2.77369 5.89839 0
M  V30 258 N 23.6496 -1.47581 0.552962 0
M  V30 259 C 25.0656 -1.5818 0.212424 0
M  V30 260 C 25.2656 -1.55213 -1.28496 0
M  V30 261 O 24.3216 -1.45329 -2.06484 0
M  V30 262 C 25.6346 -2.88865 0.835318 0
M  V30 263 C 27.1826 -3.0244 0.806156 0
M  V30 264 C 27.6576 -4.35819 1.40804 0
M  V30 265 N 29.1486 -4.42444 1.37103 0
M  V30 266 C 29.8836 -5.44202 1.80641 0
M  V30 267 N 29.3796 -6.52795 2.32015 0
M  V30 268 N 31.1726 -5.35222 1.71738 0
M  V30 269 H 23.3236 -1.47753 1.52587 0
M  V30 270 H 25.5866 -0.702941 0.636064 0
M  V30 271 H 25.2926 -2.9676 1.88749 0
M  V30 272 H 25.1666 -3.7579 0.325848 0
M  V30 273 H 27.5536 -2.94144 -0.237317 0
M  V30 274 H 27.6346 -2.17068 1.35334 0
M  V30 275 H 27.2786 -4.44871 2.45056 0
M  V30 276 H 27.2086 -5.19916 0.836338 0
M  V30 277 H 29.6996 -3.6456 0.995202 0
M  V30 278 H 30.0126 -7.26609 2.63171 0
M  V30 279 H 28.3576 -6.53696 2.36023 0
M  V30 280 H 31.5486 -4.49284 1.31382 0
M  V30 281 H 31.7216 -6.14389 2.05987 0
M  V30 282 N 25.1277 -0.289203 -1.54924 0
M  V30 283 C 26.0577 0.58549 -2.2604 0
M  V30 284 C 27.0387 1.14753 -1.25562 0
M  V30 285 O 28.2237 1.17906 -1.54311 0
M  V30 286 C 25.3537 1.76305 -2.99222 0
M  V30 287 C 24.3077 1.33191 -4.06748 0
M  V30 288 C 23.6337 2.5937 -4.6758 0
M  V30 289 C 24.9337 0.471775 -5.20165 0
M  V30 290 H 26.6277 -0.00763532 -2.99399 0
M  V30 291 H 24.1737 -0.00511229 -1.43999 0
M  V30 292 H 26.1267 2.38097 -3.47689 0
M  V30 293 H 24.8507 2.38223 -2.23422 0
M  V30 294 H 23.5097 0.737121 -3.59113 0
M  V30 295 H 23.1577 3.19576 -3.88433 0
M  V30 296 H 22.8577 2.31228 -5.40192 0
M  V30 297 H 24.3817 3.21985 -5.18804 0
M  V30 298 H 25.7957 0.995056 -5.64599 0
M  V30 299 H 24.1927 0.284639 -5.99425 0
M  V30 300 H 25.2627 -0.506041 -4.82252 0
M  V30 301 N 26.6058 1.57591 -0.0167156 0
M  V30 302 C 27.5358 2.12496 0.967858 0
M  V30 303 C 28.5168 1.03807 1.34752 0
M  V30 304 O 29.7018 1.31577 1.42833 0
M  V30 305 C 26.8318 2.64194 2.25431 0
M  V30 306 C 25.7858 3.77559 2.01576 0
M  V30 307 C 25.1118 4.15636 3.36379 0
M  V30 308 C 26.4118 5.04151 1.36489 0
M  V30 309 H 28.1058 2.95013 0.510643 0
M  V30 310 H 25.6518 1.41915 0.244181 0
M  V30 311 H 27.6048 3.01236 2.94678 0
M  V30 312 H 26.3288 1.78821 2.73296 0
M  V30 313 H 24.9878 3.40937 1.34751 0
M  V30 314 H 24.6358 3.27263 3.81979 0
M  V30 315 H 24.3358 4.92022 3.21229 0
M  V30 316 H 25.8598 4.5525 4.06915 0
M  V30 317 H 27.2738 5.38857 1.95718 0
M  V30 318 H 25.6708 5.85453 1.31776 0
M  V30 319 H 26.7408 4.83733 0.336219 0
M  V30 320 N 28.0839 -0.256276 1.55502 0
M  V30 321 C 29.0139 -1.32102 1.92539 0
M  V30 322 C 29.9949 -1.50684 0.789194 0
M  V30 323 O 31.1799 -1.63449 1.04872 0
M  V30 324 C 28.3099 -2.67752 2.21192 0
M  V30 325 C 27.2639 -2.63878 3.36975 0
M  V30 326 C 26.5899 -4.03236 3.51147 0
M  V30 327 C 27.8899 -2.21682 4.72921 0
M  V30 328 H 29.5839 -1.01351 2.81724 0
M  V30 329 H 27.1299 -0.486105 1.35547 0
M  V30 330 H 29.0829 -3.42365 2.45691 0
M  V30 331 H 27.8069 -3.0012 1.28824 0
M  V30 332 H 26.4659 -1.91722 3.12471 0
M  V30 333 H 26.1139 -4.32854 2.56216 0
M  V30 334 H 25.8139 -4.01535 4.29003 0
M  V30 335 H 27.3379 -4.79563 3.77957 0
M  V30 336 H 28.7519 -2.86023 4.96854 0
M  V30 337 H 27.1489 -2.3111 5.53812 0
M  V30 338 H 28.2189 -1.16833 4.70615 0
M  V30 339 N 29.562 -1.4872 -0.521534 0
M  V30 340 C 30.79 -1.60843 -1.30142 0
M  V30 341 C 31.205 -0.271897 -1.86832 0
M  V30 342 O 30.562 0.739969 -1.66825 0
M  V30 343 C 30.613 -2.66155 -2.4463 0
M  V30 344 O 30.334 -3.94623 -1.90275 0
M  V30 345 C 31.835 -2.88795 -3.36322 0
M  V30 346 H 29.055 -0.542075 -0.395468 0
M  V30 347 H 31.599 -1.94609 -0.628285 0
M  V30 348 H 29.754 -2.35224 -3.07812 0
M  V30 349 H 30.168 -4.52468 -2.65279 0
M  V30 350 H 31.642 -3.66264 -4.12983 0
M  V30 351 H 32.119 -1.97934 -3.9207 0
M  V30 352 H 32.725 -3.21063 -2.78924 0
M  V30 353 N 31.0401 0.771051 -1.3745 0
M  V30 354 C 32.0031 1.86598 -1.33093 0
M  V30 355 C 33.0031 1.59076 -0.234845 0
M  V30 356 O 34.1931 1.67145 -0.490732 0
M  V30 357 C 31.3251 3.23747 -1.06773 0
M  V30 358 H 32.5181 1.91873 -2.30488 0
M  V30 359 H 30.0711 0.970876 -1.2249 0
M  V30 360 H 30.8061 3.24148 -0.099129 0
M  V30 361 H 30.5911 3.45115 -1.86112 0
M  V30 362 H 32.0811 4.03824 -1.06377 0
M  V30 363 N 32.5182 1.22032 0.997298 0
M  V30 364 C 33.7432 1.06921 1.77715 0
M  V30 365 C 34.1682 -0.376226 1.84299 0
M  V30 366 O 33.5262 -1.27165 1.29223 0
M  V30 367 C 33.5742 1.67996 3.19076 0
M  V30 368 O 32.6782 0.930653 4.01762 0
M  V30 369 H 32.0192 0.375814 0.547412 0
M  V30 370 H 34.5492 1.61737 1.25309 0
M  V30 371 H 34.5592 1.72538 3.69723 0
M  V30 372 H 33.2342 2.73182 3.13599 0
M  V30 373 H 31.8112 0.960917 3.60307 0
M  V30 374 N 33.9963 -1.19345 1.0293 0
M  V30 375 C 34.9263 -2.2481 0.631105 0
M  V30 376 C 35.9073 -1.66245 -0.360104 0
M  V30 377 O 37.0923 -1.92677 -0.242726 0
M  V30 378 C 34.2223 -3.47295 -0.0184607 0
M  V30 379 C 33.1763 -4.18536 0.895073 0
M  V30 380 C 32.5023 -5.34586 0.110592 0
M  V30 381 C 33.8023 -4.73287 2.209 0
M  V30 382 H 35.4963 -2.58372 1.51275 0
M  V30 383 H 33.0423 -1.24194 0.728818 0
M  V30 384 H 34.9953 -4.20268 -0.308675 0
M  V30 385 H 33.7193 -3.12933 -0.934907 0
M  V30 386 H 32.3783 -3.47446 1.16949 0
M  V30 387 H 32.0263 -4.96469 -0.807902 0
M  V30 388 H 31.7263 -5.83183 0.719087 0
M  V30 389 H 33.2503 -6.10355 -0.172871 0
M  V30 390 H 34.6643 -5.38013 1.98028 0
M  V30 391 H 33.0613 -5.32373 2.76946 0
M  V30 392 H 34.1313 -3.91331 2.86336 0
M  V30 393 N 35.4744 -0.807222 -1.35358 0
M  V30 394 C 36.4044 -0.232509 -2.3234 0
M  V30 395 C 37.3854 0.642386 -1.57504 0
M  V30 396 O 38.5704 0.572526 -1.85569 0
M  V30 397 C 35.7004 0.619238 -3.41735 0
M  V30 398 C 34.6544 -0.157215 -4.27711 0
M  V30 399 C 33.9804 0.816273 -5.28433 0
M  V30 400 C 35.2804 -1.35656 -5.04376 0
M  V30 401 H 36.9744 -1.04276 -2.80654 0
M  V30 402 H 34.5204 -0.50288 -1.34934 0
M  V30 403 H 36.4734 1.03137 -4.08584 0
M  V30 404 H 35.1974 1.46239 -2.92031 0
M  V30 405 H 33.8564 -0.550525 -3.62443 0
M  V30 406 H 33.5044 1.65494 -4.74996 0
M  V30 407 H 33.2044 0.301067 -5.86828 0
M  V30 408 H 34.7284 1.22659 -5.98153 0
M  V30 409 H 36.1424 -1.01927 -5.64166 0
M  V30 410 H 34.5394 -1.8063 -5.7227 0
M  V30 411 H 35.6094 -2.14288 -4.34981 0
M  V30 412 N 36.9525 1.47285 -0.560781 0
M  V30 413 C 38.1805 2.06855 -0.0430262 0
M  V30 414 C 38.5955 1.41291 1.25229 0
M  V30 415 O 37.9525 0.510648 1.7521 0
M  V30 416 C 38.0035 3.61178 0.152518 0
M  V30 417 O 37.7245 4.24285 -1.0915 0
M  V30 418 C 39.2255 4.37624 0.707145 0
M  V30 419 H 36.4455 0.669319 -0.0474652 0
M  V30 420 H 38.9895 1.89237 -0.77521 0
M  V30 421 H 37.1445 3.78298 0.834843 0
M  V30 422 H 37.5585 5.16868 -0.891482 0
M  V30 423 H 39.0325 5.46271 0.793244 0
M  V30 424 H 39.5095 4.04152 1.71923 0
M  V30 425 H 40.1155 4.25257 0.0604027 0
M  V30 426 N 38.4306 0.297415 1.54768 0
M  V30 427 C 39.6776 -0.312913 2.00068 0
M  V30 428 C 40.0056 -1.54171 1.18582 0
M  V30 429 O 39.2606 -1.94108 0.249133 0
M  V30 430 C 39.5596 -0.717561 3.50123 0
M  V30 431 C 39.2256 0.409095 4.4904 0
M  V30 432 C 37.8876 0.718399 4.75807 0
M  V30 433 C 40.2396 1.16717 5.07963 0
M  V30 434 C 37.5676 1.78896 5.5876 0
M  V30 435 C 39.9196 2.22762 5.92081 0
M  V30 436 C 38.5836 2.54303 6.1716 0
M  V30 437 H 37.8536 -0.114503 0.7321 0
M  V30 438 H 40.5006 0.415767 1.86932 0
M  V30 439 H 38.8056 -1.52627 3.60849 0
M  V30 440 H 40.5026 -1.20091 3.82595 0
M  V30 441 H 37.0926 0.157918 4.28309 0
M  V30 442 H 41.2766 0.941466 4.87289 0
M  V30 443 H 36.5326 2.0381 5.7643 0
M  V30 444 H 40.7066 2.81962 6.36765 0
M  V30 445 H 38.3336 3.3739 6.81229 0
M  V30 446 N 39.9087 -1.5758 0.0250728 0
M  V30 447 C 41.1547 -1.92746 -0.649648 0
M  V30 448 C 41.5097 -0.901588 -1.69968 0
M  V30 449 O 40.8027 0.0829251 -1.9142 0
M  V30 450 C 40.9967 -3.32421 -1.31268 0
M  V30 451 C 40.8257 -4.48499 -0.328394 0
M  V30 452 C 39.5957 -5.05251 0.070284 0
M  V30 453 C 41.7937 -5.12618 0.415665 0
M  V30 454 N 39.7757 -6.04851 1.05016 0
M  V30 455 C 41.1467 -6.0728 1.24943 0
M  V30 456 C 43.2017 -4.95612 0.476803 0
M  V30 457 C 41.9047 -6.86766 2.1388 0
M  V30 458 C 43.9307 -5.75703 1.3535 0
M  V30 459 C 43.2927 -6.69978 2.17504 0
M  V30 460 H 39.3917 -0.753231 -0.210159 0
M  V30 461 H 41.9757 -1.94486 0.0912999 0
M  V30 462 H 40.1467 -3.31508 -2.02379 0
M  V30 463 H 41.8787 -3.54946 -1.94411 0
M  V30 464 H 38.6337 -4.72628 -0.303323 0
M  V30 465 H 39.0577 -6.5934 1.53622 0
M  V30 466 H 43.6997 -4.22554 -0.144105 0
M  V30 467 H 41.4177 -7.59132 2.77027 0
M  V30 468 H 45.0037 -5.64579 1.40504 0
M  V30 469 H 43.8837 -7.30873 2.84244 0
M  V30 470 N 41.3868 0.248026 -1.55636 0
M  V30 471 C 42.3348 1.32683 -1.91045 0
M  V30 472 C 43.3288 1.49883 -0.789401 0
M  V30 473 O 44.5348 1.51371 -0.974007 0
M  V30 474 H 40.9098 0.444272 -0.606734 0
M  V30 475 H 42.8808 1.00085 -2.81115 0
M  V30 476 C 41.6298 2.6755 -2.22064 0
M  V30 477 H 40.9528 2.55114 -3.07826 0
M  V30 478 H 42.3928 3.41912 -2.50743 0
M  V30 479 C 40.8518 3.20556 -1.0366 0
M  V30 480 O 41.3818 4.00695 -0.284016 0
M  V30 481 N 39.5878 2.78568 -0.82753 0
M  V30 482 H 39.1348 2.1351 -1.44123 0
M  V30 483 H 39.0928 3.14378 -0.0369803 0
M  V30 484 N 42.8649 1.48995 0.513639 0
M  V30 485 C 44.2759 1.5119 1.09537 0
M  V30 486 C 44.6269 0.290906 1.94031 0
M  V30 487 O 43.7519 -0.60049 2.07902 0
M  V30 488 C 44.3469 2.73964 1.99322 0
M  V30 489 C 42.9059 2.78978 2.52682 0
M  V30 490 C 42.0529 2.44934 1.30009 0
M  V30 491 H 45.0039 1.55875 0.298125 0
M  V30 492 H 45.0249 2.53409 2.83838 0
M  V30 493 H 44.5369 3.62813 1.37799 0
M  V30 494 H 42.6379 1.94378 3.1788 0
M  V30 495 H 42.7509 3.8083 2.90698 0
M  V30 496 H 41.1149 1.9644 1.62122 0
M  V30 497 H 41.8979 3.36043 0.702131 0
M  V30 498 N 44.343 -0.763751 1.37857 0
M  V30 499 C 45.754 -1.3405 1.29952 0
M  V30 500 C 46.105 -1.96138 -0.0492898 0
M  V30 501 O 45.23 -1.94372 -0.951239 0
M  V30 502 C 45.825 -2.43729 2.35333 0
M  V30 503 C 44.384 -2.97151 2.31037 0
M  V30 504 C 43.531 -1.70438 2.18738 0
M  V30 505 H 46.482 -0.563396 1.48363 0
M  V30 506 H 46.503 -3.23412 2.00462 0
M  V30 507 H 46.015 -1.9851 3.33489 0
M  V30 508 H 44.116 -3.46724 1.3643 0
M  V30 509 H 44.229 -3.52221 3.24772 0
M  V30 510 H 42.593 -1.93673 1.65418 0
M  V30 511 H 43.376 -1.27312 3.18821 0
M  V30 512 N 45.8211 -1.22559 -0.990812 0
M  V30 513 C 47.0491 -1.07779 -1.76611 0
M  V30 514 C 47.4641 0.371513 -1.85109 0
M  V30 515 O 46.8211 1.25737 -1.32274 0
M  V30 516 C 46.8721 -1.68512 -3.19822 0
M  V30 517 O 46.5931 -3.07774 -3.1178 0
M  V30 518 C 48.0941 -1.59035 -4.13791 0
M  V30 519 H 45.3141 -0.377729 -0.554583 0
M  V30 520 H 47.8581 -1.62195 -1.24551 0
M  V30 521 H 46.0131 -1.18154 -3.68942 0
M  V30 522 H 46.4271 -3.37062 -4.01858 0
M  V30 523 H 47.9011 -2.0625 -5.1202 0
M  V30 524 H 48.3781 -0.547273 -4.35777 0
M  V30 525 H 48.9841 -2.08709 -3.70568 0
M  V30 526 N 47.2992 1.18797 -1.03562 0
M  V30 527 C 48.5272 1.92599 -0.755869 0
M  V30 528 C 48.9422 1.75886 0.686271 0
M  V30 529 O 48.2992 1.08517 1.46732 0
M  V30 530 C 48.3502 3.44159 -1.10619 0
M  V30 531 O 48.0712 3.60341 -2.4917 0
M  V30 532 C 49.5722 4.3507 -0.850214 0
M  V30 533 H 46.7922 0.611587 -0.276048 0
M  V30 534 H 49.3362 1.50742 -1.38192 0
M  V30 535 H 47.4912 3.83823 -0.525194 0
M  V30 536 H 47.9052 4.54128 -2.62427 0
M  V30 537 H 49.3792 5.39989 -1.14523 0
M  V30 538 H 49.8562 4.38673 0.215176 0
M  V30 539 H 50.4622 4.01097 -1.41426 0
M  V30 540 N 48.7773 0.814389 1.34928 0
M  V30 541 C 49.7403 0.235759 2.27984 0
M  V30 542 C 50.7403 -0.581412 1.49921 0
M  V30 543 O 51.9303 -0.398758 1.69575 0
M  V30 544 C 49.0623 -0.670433 3.34242 0
M  V30 545 H 50.2553 1.05659 2.80671 0
M  V30 546 H 47.8083 0.585614 1.44915 0
M  V30 547 H 48.5433 -1.51466 2.86755 0
M  V30 548 H 48.3283 -0.0860822 3.92005 0
M  V30 549 H 49.8183 -1.06935 4.03676 0
M  V30 550 N 50.2554 -1.46986 0.568584 0
M  V30 551 C 51.2024 -2.30153 -0.172707 0
M  V30 552 C 52.1724 -1.39759 -0.897586 0
M  V30 553 O 53.3574 -1.68716 -0.891044 0
M  V30 554 C 50.4974 -3.23952 -1.1895 0
M  V30 555 C 49.6104 -4.29441 -0.469517 0
M  V30 556 C 48.7454 -5.1038 -1.47259 0
M  V30 557 C 47.7844 -6.07632 -0.738225 0
M  V30 558 N 46.9214 -6.8149 -1.68868 0
M  V30 559 H 51.7614 -2.93019 0.542596 0
M  V30 560 H 49.2984 -1.44422 0.279401 0
M  V30 561 H 51.2564 -3.76767 -1.79173 0
M  V30 562 H 49.8864 -2.62926 -1.87269 0
M  V30 563 H 48.9384 -3.79594 0.247467 0
M  V30 564 H 50.2504 -4.98689 0.105241 0
M  V30 565 H 49.4044 -5.67402 -2.14803 0
M  V30 566 H 48.1434 -4.4106 -2.08128 0
M  V30 567 H 47.1484 -5.49778 -0.0489293 0
M  V30 568 H 48.3734 -6.78966 -0.135129 0
M  V30 569 H 46.3194 -6.14891 -2.28573 0
M  V30 570 H 46.2364 -7.46948 -1.16636 0
M  V30 571 H 47.5044 -7.43078 -2.3549 0
M  V30 572 N 51.7335 -0.305618 -1.54608 0
M  V30 573 C 52.6635 0.561482 -2.26649 0
M  V30 574 C 53.6445 1.13415 -1.26772 0
M  V30 575 O 54.8295 1.16262 -1.55553 0
M  V30 576 C 51.9595 1.73122 -3.01075 0
M  V30 577 C 50.9135 1.2887 -4.08138 0
M  V30 578 C 50.2395 2.54396 -4.70305 0
M  V30 579 C 51.5395 0.416578 -5.20636 0
M  V30 580 H 53.2335 -0.0393902 -2.99374 0
M  V30 581 H 50.7795 -0.020385 -1.43986 0
M  V30 582 H 52.7325 2.34396 -3.50195 0
M  V30 583 H 51.4565 2.3584 -2.25936 0
M  V30 584 H 50.1155 0.698991 -3.59875 0
M  V30 585 H 49.7635 3.15439 -3.918 0
M  V30 586 H 49.4635 2.25486 -5.42614 0
M  V30 587 H 50.9875 3.16464 -5.2219 0
M  V30 588 H 52.4015 0.935116 -5.65622 0
M  V30 589 H 50.7985 0.221046 -5.99693 0
M  V30 590 H 51.8685 -0.557162 -4.81688 0
M  V30 591 N 53.2116 1.57565 -0.0334293 0
M  V30 592 C 54.4396 1.9628 0.654347 0
M  V30 593 C 54.8546 0.910138 1.65414 0
M  V30 594 O 54.2116 -0.107595 1.82183 0
M  V30 595 C 54.2626 3.35067 1.35693 0
M  V30 596 O 53.9836 4.36296 0.397191 0
M  V30 597 C 55.4846 3.88439 2.13613 0
M  V30 598 H 52.7046 0.646369 0.180132 0
M  V30 599 H 55.2486 2.04282 -0.0944721 0
M  V30 600 H 53.4036 3.2827 2.05712 0
M  V30 601 H 53.8176 5.1678 0.896597 0
M  V30 602 H 55.2916 4.8788 2.58219 0
M  V30 603 H 55.7686 3.22914 2.97696 0
M  V30 604 H 56.3746 3.98516 1.48543 0
M  V30 605 N 54.6897 -0.239769 1.55765 0
M  V30 606 C 55.9387 -0.964754 1.77131 0
M  V30 607 C 56.2517 -1.86213 0.59868 0
M  V30 608 O 57.4577 -2.6244 0.695522 0
M  V30 609 C 55.9137 -1.76552 3.1362 0
M  V30 610 C 55.5217 -0.915185 4.38553 0
M  V30 611 C 57.2657 -2.48281 3.44321 0
M  V30 612 C 55.1727 -1.71225 5.66071 0
M  V30 613 H 54.1027 -0.363953 0.660344 0
M  V30 614 H 56.7537 -0.219181 1.82186 0
M  V30 615 H 55.1357 -2.55331 3.02691 0
M  V30 616 H 56.3097 -0.169217 4.60489 0
M  V30 617 H 54.6247 -0.310889 4.15238 0
M  V30 618 H 57.2217 -3.08382 4.36812 0
M  V30 619 H 57.5647 -3.20256 2.65973 0
M  V30 620 H 58.0977 -1.76507 3.56497 0
M  V30 621 H 54.8367 -1.03612 6.4726 0
M  V30 622 H 54.3567 -2.43331 5.48224 0
M  V30 623 H 56.0357 -2.27758 6.05587 0
M  V30 624 N 56.1678 -1.49265 -0.50573 0
M  V30 625 C 57.0778 -1.68312 -1.63427 0
M  V30 626 C 58.0938 -0.565682 -1.64548 0
M  V30 627 O 59.2698 -0.839801 -1.83055 0
M  V30 628 C 56.3348 -1.74107 -2.99813 0
M  V30 629 C 55.3958 -2.97653 -3.09356 0
M  V30 630 C 54.6288 -3.03163 -4.39236 0
M  V30 631 O 54.8518 -2.16396 -5.27758 0
M  V30 632 O 53.7858 -3.9558 -4.53652 0
M  V30 633 H 57.6118 -2.63907 -1.50289 0
M  V30 634 H 55.1968 -1.32951 -0.681502 0
M  V30 635 H 57.0788 -1.803 -3.80881 0
M  V30 636 H 55.7538 -0.816901 -3.13223 0
M  V30 637 H 54.6608 -2.96981 -2.27493 0
M  V30 638 H 55.9938 -3.89535 -3.00871 0
M  V30 639 N 57.6459 0.756429 -1.3826 0
M  V30 640 C 58.8709 1.55077 -1.37717 0
M  V30 641 C 59.2959 1.88073 0.03164 0
M  V30 642 O 58.6539 1.50364 1.01293 0
M  V30 643 C 58.7019 2.8283 -2.23695 0
M  V30 644 O 57.8059 3.77862 -1.6521 0
M  V30 645 H 57.1469 0.469152 -0.469885 0
M  V30 646 H 59.6769 0.935019 -1.81985 0
M  V30 647 H 59.6869 3.31783 -2.37453 0
M  V30 648 H 58.3619 2.58144 -3.2609 0
M  V30 649 H 56.9389 3.36555 -1.60578 0
M  V30 650 N 59.124 1.23083 0.984299 0
M  V30 651 C 60.352 1.08714 1.76037 0
M  V30 652 C 60.767 -0.361691 1.85303 0
M  V30 653 O 60.124 -1.25034 1.32939 0
M  V30 654 C 60.175 1.70206 3.18923 0
M  V30 655 O 59.896 3.09423 3.10144 0
M  V30 656 C 61.397 1.61227 4.12941 0
M  V30 657 H 58.617 0.380664 0.552572 0
M  V30 658 H 61.161 1.62853 1.23689 0
M  V30 659 H 59.316 1.20109 3.6831 0
M  V30 660 H 59.73 3.39188 4.00065 0
M  V30 661 H 61.204 2.08962 5.10919 0
M  V30 662 H 61.681 0.570375 4.35481 0
M  V30 663 H 62.287 2.10671 3.69456 0
M  V30 664 N 60.6021 -1.18246 1.0419 0
M  V30 665 C 62.0131 -1.69914 0.773698 0
M  V30 666 C 62.3641 -1.83085 -0.705297 0
M  V30 667 O 61.4891 -1.51123 -1.5489 0
M  V30 668 C 62.0841 -3.08619 1.39784 0
M  V30 669 C 60.6431 -3.57494 1.17792 0
M  V30 670 C 59.7901 -2.34013 1.48773 0
M  V30 671 H 62.7411 -1.02904 1.20816 0
M  V30 672 H 62.7621 -3.71958 0.801714 0
M  V30 673 H 62.2741 -2.99001 2.47426 0
M  V30 674 H 60.3751 -3.72406 0.120295 0
M  V30 675 H 60.4881 -4.40852 1.87581 0
M  V30 676 H 58.8521 -2.37986 0.907463 0
M  V30 677 H 59.6351 -2.27013 2.57527 0
M  V30 678 N 62.0802 -0.821533 -1.34494 0
M  V30 679 C 63.3272 -0.408946 -1.98328 0
M  V30 680 C 63.6552 1.02764 -1.65136 0
M  V30 681 O 62.9102 1.73026 -0.914349 0
M  V30 682 C 63.2092 -0.556512 -3.53041 0
M  V30 683 C 62.8752 -1.95861 -4.0614 0
M  V30 684 C 61.5372 -2.34217 -4.20352 0
M  V30 685 C 63.8892 -2.87523 -4.34718 0
M  V30 686 C 61.2172 -3.63572 -4.6047 0
M  V30 687 C 63.5692 -4.1634 -4.76281 0
M  V30 688 C 62.2332 -4.54675 -4.88699 0
M  V30 689 H 61.5032 -0.149644 -0.725732 0
M  V30 690 H 64.1502 -1.04521 -1.6046 0
M  V30 691 H 62.4552 0.163148 -3.9146 0
M  V30 692 H 64.1522 -0.217826 -4.00408 0
M  V30 693 H 60.7422 -1.65066 -3.95539 0
M  V30 694 H 64.9262 -2.59133 -4.23277 0
M  V30 695 H 60.1822 -3.93101 -4.68275 0
M  V30 696 H 64.3562 -4.87455 -4.97354 0
M  V30 697 H 61.9832 -5.54959 -5.19542 0
M  V30 698 N 63.5583 1.46682 -0.576371 0
M  V30 699 C 64.5063 2.31953 0.17335 0
M  V30 700 C 65.5003 1.44098 0.89062 0
M  V30 701 O 66.7063 1.60759 0.809728 0
M  V30 702 H 63.0813 0.748273 0.0747727 0
M  V30 703 H 65.0523 2.93007 -0.564738 0
M  V30 704 C 63.8013 3.27142 1.17786 0
M  V30 705 H 63.1243 3.94719 0.635361 0
M  V30 706 H 64.5643 3.896 1.67296 0
M  V30 707 C 63.0233 2.52036 2.23561 0
M  V30 708 O 63.5533 2.27877 3.3081 0
M  V30 709 N 61.7593 2.12709 1.97998 0
M  V30 710 H 61.3063 2.32557 1.10792 0
M  V30 711 H 61.2643 1.62776 2.68982 0
M  V30 712 N 65.0364 0.313813 1.54444 0
M  V30 713 C 66.2824 -0.292108 2.00685 0
M  V30 714 C 66.6154 -1.52548 1.20177 0
M  V30 715 O 65.8904 -1.92452 0.281531 0
M  V30 716 C 66.1734 -0.635968 3.5444 0
M  V30 717 C 66.0264 0.607437 4.4568 0
M  V30 718 C 67.3454 -1.45747 4.15266 0
M  V30 719 H 64.4644 -0.104697 0.729526 0
M  V30 720 H 67.1064 0.428457 1.85106 0
M  V30 721 H 65.2564 -1.24986 3.67846 0
M  V30 722 H 66.9284 1.24581 4.44159 0
M  V30 723 H 65.1714 1.23822 4.15753 0
M  V30 724 H 65.8424 0.322515 5.51057 0
M  V30 725 H 68.3184 -0.938645 4.05375 0
M  V30 726 H 67.1944 -1.66683 5.2298 0
M  V30 727 H 67.4554 -2.45063 3.67963 0
M  V30 728 N 66.5145 -1.57545 0.0417849 0
M  V30 729 C 67.4775 -2.09885 -0.92093 0
M  V30 730 C 68.4775 -1.01648 -1.24596 0
M  V30 731 O 69.6675 -1.27759 -1.1842 0
M  V30 732 C 66.7995 -2.57527 -2.23367 0
M  V30 733 H 67.9925 -2.96236 -0.467382 0
M  V30 734 H 65.5455 -1.5493 -0.206467 0
M  V30 735 H 66.2805 -1.74542 -2.73323 0
M  V30 736 H 66.0655 -3.36613 -2.01083 0
M  V30 737 H 67.5555 -2.98201 -2.92346 0
M  V30 738 N 67.9926 0.231505 -1.5589 0
M  V30 739 C 68.9026 1.308 -1.94752 0
M  V30 740 C 69.9186 1.51826 -0.849989 0
M  V30 741 O 71.0946 1.6515 -1.15271 0
M  V30 742 C 68.1596 2.63968 -2.24771 0
M  V30 743 C 67.2206 2.51331 -3.48039 0
M  V30 744 C 66.4536 3.78148 -3.76616 0
M  V30 745 O 66.6766 4.80722 -3.07022 0
M  V30 746 O 65.6106 3.75857 -4.70123 0
M  V30 747 H 69.4366 1.0083 -2.86474 0
M  V30 748 H 67.0216 0.433547 -1.42971 0
M  V30 749 H 68.9036 3.42633 -2.45318 0
M  V30 750 H 67.5786 2.9364 -1.36225 0
M  V30 751 H 66.4856 1.709 -3.32782 0
M  V30 752 H 67.8186 2.26601 -4.36936 0
M  V30 753 N 69.4707 1.49531 0.497807 0
M  V30 754 C 70.7187 1.58865 1.24926 0
M  V30 755 C 71.0397 0.278721 1.92998 0
M  V30 756 O 70.3097 -0.702144 1.82885 0
M  V30 757 H 68.8897 0.585343 0.464094 0
M  V30 758 H 71.5517 1.86174 0.57666 0
M  V30 759 H 70.6477 2.38633 2.01149 0
M  V30 760 N 70.9488 -0.749086 1.3866 0
M  V30 761 C 71.8958 -1.86291 1.36251 0
M  V30 762 C 72.8658 -1.64578 0.224347 0
M  V30 763 O 74.0508 -1.86181 0.417279 0
M  V30 764 C 71.1908 -3.23644 1.19786 0
M  V30 765 C 70.3038 -3.57158 2.43027 0
M  V30 766 C 69.4388 -4.83838 2.19258 0
M  V30 767 C 68.4778 -5.10152 3.38247 0
M  V30 768 N 67.6148 -6.28029 3.13884 0
M  V30 769 H 72.4548 -1.87685 2.3147 0
M  V30 770 H 69.9918 -0.917287 1.14997 0
M  V30 771 H 71.9498 -4.0291 1.08254 0
M  V30 772 H 70.5798 -3.21566 0.282031 0
M  V30 773 H 69.6318 -2.72701 2.65214 0
M  V30 774 H 70.9438 -3.7253 3.31697 0
M  V30 775 H 70.0978 -5.71057 2.04888 0
M  V30 776 H 68.8368 -4.70614 1.2796 0
M  V30 777 H 67.8418 -4.21401 3.53131 0
M  V30 778 H 69.0668 -5.25271 4.30427 0
M  V30 779 H 67.0128 -6.1612 2.25238 0
M  V30 780 H 66.9298 -6.43922 3.96106 0
M  V30 781 H 68.1978 -7.18124 3.03179 0
M  V30 782 N 72.4269 -1.23603 -0.977757 0
M  V30 783 C 73.3369 -1.03632 -2.1047 0
M  V30 784 C 74.3529 0.0199435 -1.73989 0
M  V30 785 O 75.5289 -0.176076 -2.00629 0
M  V30 786 C 72.5939 -0.63276 -3.40877 0
M  V30 787 C 71.6549 -1.76437 -3.91367 0
M  V30 788 C 70.8879 -1.37997 -5.15551 0
M  V30 789 O 71.1109 -0.265357 -5.69782 0
M  V30 790 O 70.0449 -2.20201 -5.60174 0
M  V30 791 H 73.8709 -1.98086 -2.30208 0
M  V30 792 H 71.4559 -1.02332 -1.08851 0
M  V30 793 H 73.3379 -0.418761 -4.19314 0
M  V30 794 H 72.0129 0.282754 -3.22463 0
M  V30 795 H 70.9199 -2.03304 -3.14036 0
M  V30 796 H 72.2529 -2.6583 -4.14241 0
M  V30 797 N 73.905 1.17692 -1.04816 0
M  V30 798 C 75.151 1.88137 -0.75711 0
M  V30 799 C 75.484 1.80604 0.713841 0
M  V30 800 O 74.759 1.21146 1.52164 0
M  V30 801 C 75.042 3.38318 -1.2334 0
M  V30 802 C 74.895 3.54622 -2.76701 0
M  V30 803 C 76.214 4.32214 -0.829415 0
M  V30 804 H 73.333 0.683163 -0.27651 0
M  V30 805 H 75.975 1.38424 -1.30149 0
M  V30 806 H 74.125 3.80787 -0.770286 0
M  V30 807 H 75.797 3.21194 -3.31107 0
M  V30 808 H 74.04 2.97026 -3.16161 0
M  V30 809 H 74.711 4.60028 -3.05088 0
M  V30 810 H 77.187 3.97565 -1.22805 0
M  V30 811 H 76.063 5.35838 -1.19033 0
M  V30 812 H 76.324 4.41294 0.266891 0
M  V30 813 N 75.3831 0.828654 1.34056 0
M  V30 814 C 76.3131 0.269443 2.3194 0
M  V30 815 C 77.2941 -0.617247 1.58506 0
M  V30 816 O 78.4791 -0.542931 1.86456 0
M  V30 817 C 75.6091 -0.564793 3.42677 0
M  V30 818 C 74.5631 0.225241 4.27407 0
M  V30 819 C 73.8891 -0.7321 5.29664 0
M  V30 820 C 75.1891 1.43663 5.02154 0
M  V30 821 H 76.8831 1.08728 2.7896 0
M  V30 822 H 74.4291 0.524283 1.34117 0
M  V30 823 H 76.3821 -0.966233 4.10173 0
M  V30 824 H 75.1061 -1.41574 2.9432 0
M  V30 825 H 73.7651 0.608117 3.61521 0
M  V30 826 H 73.4131 -1.57916 4.77568 0
M  V30 827 H 73.1131 -0.20767 5.87233 0
M  V30 828 H 74.6371 -1.13128 6.00029 0
M  V30 829 H 76.0511 1.1089 5.62473 0
M  V30 830 H 74.4481 1.89711 5.69324 0
M  V30 831 H 75.5181 2.21181 4.31517 0
M  V30 832 N 76.8612 -1.46375 0.584142 0
M  V30 833 C 77.7912 -2.33103 -0.136037 0
M  V30 834 C 78.7722 -1.45431 -0.882255 0
M  V30 835 O 79.9572 -1.74246 -0.857434 0
M  V30 836 C 77.0872 -3.27731 -1.14933 0
M  V30 837 C 76.0412 -4.24855 -0.517862 0
M  V30 838 C 75.3672 -5.09001 -1.63773 0
M  V30 839 C 76.6672 -5.19439 0.545886 0
M  V30 840 H 78.3612 -2.93568 0.588086 0
M  V30 841 H 75.9072 -1.41166 0.284259 0
M  V30 842 H 77.8602 -3.87261 -1.66153 0
M  V30 843 H 76.5842 -2.65377 -1.90375 0
M  V30 844 H 75.2432 -3.6659 -0.0267361 0
M  V30 845 H 74.8912 -4.43031 -2.38185 0
M  V30 846 H 74.5912 -5.74777 -1.22085 0
M  V30 847 H 76.1152 -5.71396 -2.15266 0
M  V30 848 H 77.5292 -5.73177 0.118704 0
M  V30 849 H 75.9262 -5.93566 0.88317 0
M  V30 850 H 76.9962 -4.63285 1.43162 0
M  V30 851 N 78.3393 -0.321999 -1.54275 0
M  V30 852 C 79.2693 0.537411 -2.27231 0
M  V30 853 C 80.2503 1.12064 -1.27968 0
M  V30 854 O 81.4353 1.14606 -1.56777 0
M  V30 855 C 78.5653 1.69919 -3.02894 0
M  V30 856 C 77.5193 1.24534 -4.09482 0
M  V30 857 C 76.8453 2.49394 -4.72977 0
M  V30 858 C 78.1453 0.361335 -5.21049 0
M  V30 859 H 79.8393 -0.0711406 -2.99315 0
M  V30 860 H 77.3853 -0.0356555 -1.43956 0
M  V30 861 H 79.3383 2.30668 -3.52662 0
M  V30 862 H 78.0623 2.33431 -2.28424 0
M  V30 863 H 76.7213 0.660782 -3.60596 0
M  V30 864 H 76.3693 3.11265 -3.95124 0
M  V30 865 H 76.0693 2.19718 -5.44975 0
M  V30 866 H 77.5933 3.10908 -5.25517 0
M  V30 867 H 79.0073 0.875072 -5.66582 0
M  V30 868 H 77.4043 0.157428 -5.99893 0
M  V30 869 H 78.4743 -0.60822 -4.8107 0
M  V30 870 N 79.8174 1.5752 -0.0501392 0
M  V30 871 C 81.0634 1.92936 0.624798 0
M  V30 872 C 81.3964 0.928685 1.70555 0
M  V30 873 O 80.6714 -0.0454779 1.94447 0
M  V30 874 C 80.9544 3.38737 1.22185 0
M  V30 875 C 80.8074 4.49552 0.149218 0
M  V30 876 C 82.1264 3.84913 2.13378 0
M  V30 877 H 79.2454 0.701604 0.225657 0
M  V30 878 H 81.8874 1.89671 -0.111693 0
M  V30 879 H 80.0374 3.4165 1.84953 0
M  V30 880 H 81.7094 4.58768 -0.482648 0
M  V30 881 H 79.9524 4.30638 -0.522841 0
M  V30 882 H 80.6234 5.48653 0.606966 0
M  V30 883 H 83.0994 3.8387 1.60572 0
M  V30 884 H 81.9754 4.87584 2.52097 0
M  V30 885 H 82.2364 3.21611 3.03346 0
M  V30 886 N 81.2955 -0.223234 1.56011 0
M  V30 887 C 82.2455 -1.28008 1.88674 0
M  V30 888 C 83.2295 -1.42369 0.749663 0
M  V30 889 O 84.4215 -1.45212 1.01205 0
M  V30 890 C 81.5505 -2.63084 2.20548 0
M  V30 891 C 80.6365 -2.52632 3.40643 0
M  V30 892 N 81.0275 -2.11829 4.59306 0
M  V30 893 C 79.3255 -2.83594 3.44224 0
M  V30 894 C 80.0265 -2.12587 5.41463 0
M  V30 895 N 79.0025 -2.5301 4.81131 0
M  V30 896 H 82.8045 -0.955487 2.77935 0
M  V30 897 H 80.3185 -0.431801 1.56554 0
M  V30 898 H 82.3155 -3.39385 2.42122 0
M  V30 899 H 80.9755 -2.96391 1.32599 0
M  V30 900 H 81.9865 -1.82988 4.84496 0
M  V30 901 H 78.6635 -3.21284 2.66614 0
M  V30 902 H 80.0535 -1.83179 6.46448 0
M  V30 903 N 82.7736 -1.49793 -0.48987 0
M  V30 904 C 83.7216 -1.67783 -1.61095 0
M  V30 905 C 84.7156 -0.543683 -1.60438 0
M  V30 906 O 85.9216 -0.723647 -1.64813 0
M  V30 907 H 82.2966 -0.529255 -0.534222 0
M  V30 908 H 84.2676 -2.61861 -1.43078 0
M  V30 909 C 83.0166 -1.77191 -2.99164 0
M  V30 910 H 82.3396 -2.63841 -3.0038 0
M  V30 911 H 83.7796 -1.93809 -3.77113 0
M  V30 912 C 82.2386 -0.519203 -3.32875 0
M  V30 913 O 82.7686 0.350124 -4.00171 0
M  V30 914 N 80.9746 -0.378816 -2.8812 0
M  V30 915 H 80.5216 -1.08725 -2.33531 0
M  V30 916 H 80.4796 0.458239 -3.11043 0
M  V30 917 N 84.2517 0.741722 -1.39055 0
M  V30 918 C 85.1817 1.869 -1.39966 0
M  V30 919 C 86.1627 1.6804 -0.26392 0
M  V30 920 O 87.3477 1.88458 -0.468755 0
M  V30 921 C 84.4777 3.24572 -1.23574 0
M  V30 922 C 83.4317 3.58056 -2.34477 0
M  V30 923 C 82.7577 4.94593 -2.0318 0
M  V30 924 C 84.0577 3.61716 -3.76774 0
M  V30 925 H 85.7517 1.86395 -2.34302 0
M  V30 926 H 83.2977 0.895361 -1.1278 0
M  V30 927 H 85.2507 4.031 -1.22834 0
M  V30 928 H 83.9747 3.25587 -0.257045 0
M  V30 929 H 82.6337 2.81854 -2.34423 0
M  V30 930 H 82.2817 4.92181 -1.03765 0
M  V30 931 H 81.9817 5.17964 -2.77465 0
M  V30 932 H 83.5057 5.75486 -2.04079 0
M  V30 933 H 84.9197 4.30335 -3.78794 0
M  V30 934 H 83.3167 3.96603 -4.50362 0
M  V30 935 H 84.3867 2.61672 -4.08235 0
M  V30 936 N 85.7298 1.2412 0.971189 0
M  V30 937 C 87.1408 1.07236 1.52831 0
M  V30 938 C 87.4918 -0.357352 1.92918 0
M  V30 939 O 86.6168 -1.24528 1.76979 0
M  V30 940 C 87.2118 1.94043 2.77728 0
M  V30 941 C 85.7708 1.81394 3.29808 0
M  V30 942 C 84.9178 1.89189 2.02738 0
M  V30 943 H 87.8688 1.37648 0.789864 0
M  V30 944 H 87.8898 1.47066 3.5093 0
M  V30 945 H 87.4018 2.98093 2.4852 0
M  V30 946 H 85.5028 0.801634 3.63874 0
M  V30 947 H 85.6158 2.65294 3.98944 0
M  V30 948 H 83.9798 1.32877 2.17292 0
M  V30 949 H 84.7628 2.94812 1.759 0
M  V30 950 N 87.2079 -1.17134 1.05439 0
M  V30 951 C 88.1399 -2.2078 0.615539 0
M  V30 952 C 89.1529 -1.59584 -0.322001 0
M  V30 953 O 90.3419 -1.78133 -0.114344 0
M  V30 954 C 87.4419 -3.38691 -0.118938 0
M  V30 955 C 86.6149 -4.29454 0.829924 0
M  V30 956 C 85.6739 -5.26024 0.136258 0
M  V30 957 O 84.6999 -5.63952 0.77115 0
M  V30 958 N 85.9019 -5.69487 -1.1254 0
M  V30 959 H 88.6669 -2.59052 1.50705 0
M  V30 960 H 86.2279 -1.32058 0.936603 0
M  V30 961 H 88.2199 -4.00329 -0.593179 0
M  V30 962 H 86.7899 -2.98996 -0.91215 0
M  V30 963 H 86.0099 -3.65211 1.48373 0
M  V30 964 H 87.2979 -4.86984 1.47392 0
M  V30 965 H 86.6959 -5.4075 -1.6615 0
M  V30 966 H 85.2529 -6.33257 -1.54366 0
M  V30 967 N 88.686 -0.835752 -1.33615 0
M  V30 968 C 89.636 -0.238856 -2.26745 0
M  V30 969 C 90.62 0.604343 -1.49119 0
M  V30 970 O 91.812 0.456822 -1.71003 0
M  V30 971 C 88.941 0.587725 -3.38232 0
M  V30 972 C 88.027 -0.266811 -4.2326 0
M  V30 973 N 88.418 -1.34403 -4.87616 0
M  V30 974 C 86.716 -0.0533131 -4.45968 0
M  V30 975 C 87.417 -1.86819 -5.50884 0
M  V30 976 N 86.393 -1.17013 -5.30857 0
M  V30 977 H 90.195 -1.06266 -2.74016 0
M  V30 978 H 87.709 -0.679881 -1.47483 0
M  V30 979 H 89.706 1.03161 -4.03935 0
M  V30 980 H 88.366 1.40954 -2.9251 0
M  V30 981 H 89.377 -1.7269 -4.88261 0
M  V30 982 H 86.054 0.735312 -4.10974 0
M  V30 983 H 87.444 -2.7701 -6.1214 0
M  V30 984 N 90.1641 1.46063 -0.591896 0
M  V30 985 C 91.0941 2.33172 0.123673 0
M  V30 986 C 92.0751 1.45897 0.87453 0
M  V30 987 O 93.2601 1.74698 0.848181 0
M  V30 988 C 90.3901 3.28336 1.13194 0
M  V30 989 C 89.3441 4.25124 0.495324 0
M  V30 990 C 88.6701 5.09863 1.61071 0
M  V30 991 C 89.9701 5.19143 -0.573425 0
M  V30 992 H 91.6641 2.93252 -0.603646 0
M  V30 993 H 89.2101 1.41014 -0.291741 0
M  V30 994 H 91.1631 3.88137 1.64097 0
M  V30 995 H 89.8871 2.66383 1.88965 0
M  V30 996 H 88.5461 3.66599 0.00729452 0
M  V30 997 H 88.1941 4.44288 2.35832 0
M  V30 998 H 87.8941 5.75417 1.19035 0
M  V30 999 H 89.4181 5.72529 2.12233 0
M  V30 1000 H 90.8321 5.73106 -0.1491 0
M  V30 1001 H 89.2291 5.93089 -0.914636 0
M  V30 1002 H 90.2991 4.62519 -1.45617 0
M  V30 1003 N 91.6422 0.330177 1.54103 0
M  V30 1004 C 92.8892 -0.270405 2.00686 0
M  V30 1005 C 93.2172 -1.51621 1.21825 0
M  V30 1006 O 92.4722 -1.93536 0.29025 0
M  V30 1007 C 92.7712 -0.643134 3.51566 0
M  V30 1008 C 92.4372 0.504251 4.48072 0
M  V30 1009 C 91.0992 0.819163 4.74176 0
M  V30 1010 C 93.4512 1.27465 5.05373 0
M  V30 1011 C 90.7792 1.90708 5.5484 0
M  V30 1012 C 93.1312 2.35271 5.87223 0
M  V30 1013 C 91.7952 2.67336 6.11627 0
M  V30 1014 H 91.0652 -0.0989482 0.734364 0
M  V30 1015 H 93.7122 0.455324 1.86008 0
M  V30 1016 H 92.0172 -1.44938 3.64006 0
M  V30 1017 H 93.7142 -1.11949 3.85056 0
M  V30 1018 H 90.3042 0.248733 4.27878 0
M  V30 1019 H 94.4882 1.04462 4.85182 0
M  V30 1020 H 89.7442 2.15991 5.71977 0
M  V30 1021 H 93.9182 2.95405 6.30641 0
M  V30 1022 H 91.5452 3.51763 6.73919 0
M  V30 1023 N 93.1203 -1.57491 0.0584922 0
M  V30 1024 C 94.3683 -1.92597 -0.612436 0
M  V30 1025 C 94.6893 -0.938162 -1.70949 0
M  V30 1026 O 93.9593 0.0158301 -1.95894 0
M  V30 1027 H 92.5393 -0.710964 -0.229214 0
M  V30 1028 H 95.2013 -1.94571 0.113218 0
M  V30 1029 H 94.2973 -2.94038 -1.04633 0
M  V30 1030 N 94.5984 0.214957 -1.56127 0
M  V30 1031 C 95.8284 0.953707 -1.8327 0
M  V30 1032 C 96.2364 1.78181 -0.636262 0
M  V30 1033 O 95.5794 1.79191 0.404516 0
M  V30 1034 C 95.6414 1.91516 -3.0424 0
M  V30 1035 C 95.3054 1.27094 -4.38972 0
M  V30 1036 C 96.3024 0.657575 -5.15725 0
M  V30 1037 C 93.9874 1.28073 -4.85698 0
M  V30 1038 C 95.9814 0.0625968 -6.37369 0
M  V30 1039 C 93.6684 0.681914 -6.07283 0
M  V30 1040 C 94.6664 0.0739046 -6.8296 0
M  V30 1041 O 94.3544 -0.515582 -8.02245 0
M  V30 1042 H 94.0864 0.284764 -0.613095 0
M  V30 1043 H 96.6404 0.233283 -2.04071 0
M  V30 1044 H 94.8704 2.67475 -2.79274 0
M  V30 1045 H 96.5594 2.52001 -3.18198 0
M  V30 1046 H 97.3254 0.642288 -4.80728 0
M  V30 1047 H 93.2044 1.74337 -4.26764 0
M  V30 1048 H 96.7484 -0.412593 -6.96379 0
M  V30 1049 H 92.6454 0.694636 -6.41752 0
M  V30 1050 H 93.4134 -0.410544 -8.1747 0
M  V30 1051 N 96.0765 1.50051 0.48192 0
M  V30 1052 C 97.3015 1.64508 1.26301 0
M  V30 1053 C 97.7265 0.323851 1.85291 0
M  V30 1054 O 97.0845 -0.710969 1.66778 0
M  V30 1055 C 97.1325 2.7305 2.35533 0
M  V30 1056 O 96.2365 2.3355 3.39895 0
M  V30 1057 H 95.5775 0.549978 0.372048 0
M  V30 1058 H 98.1075 1.9636 0.574786 0
M  V30 1059 H 98.1175 2.95799 2.8101 0
M  V30 1060 H 96.7925 3.68946 1.91967 0
M  V30 1061 H 95.3695 2.21205 3.00204 0
M  V30 1062 N 97.5546 -0.734337 1.39446 0
M  V30 1063 C 98.8006 -1.49505 1.37913 0
M  V30 1064 C 99.1556 -1.92384 -0.0248416 0
M  V30 1065 O 98.4486 -1.6395 -0.991506 0
M  V30 1066 C 98.6426 -2.74711 2.28623 0
M  V30 1067 C 98.4716 -2.44075 3.777 0
M  V30 1068 C 97.2416 -2.36338 4.46623 0
M  V30 1069 C 99.4396 -2.09574 4.69663 0
M  V30 1070 N 97.4216 -1.9818 5.81032 0
M  V30 1071 C 98.7926 -1.81865 5.92727 0
M  V30 1072 C 100.848 -1.96048 4.57678 0
M  V30 1073 C 99.5506 -1.41992 7.05146 0
M  V30 1074 C 101.577 -1.57579 5.7002 0
M  V30 1075 C 100.939 -1.30754 6.92158 0
M  V30 1076 H 97.0376 -0.545896 0.55993 0
M  V30 1077 H 99.6216 -0.853373 1.75002 0
M  V30 1078 H 97.7926 -3.36657 1.93692 0
M  V30 1079 H 99.5246 -3.40916 2.18078 0
M  V30 1080 H 96.2796 -2.53456 4.00071 0
M  V30 1081 H 96.7036 -1.81691 6.52163 0
M  V30 1082 H 101.346 -2.15455 3.63784 0
M  V30 1083 H 99.0636 -1.21327 7.9894 0
M  V30 1084 H 102.65 -1.47718 5.62735 0
M  V30 1085 H 101.53 -1.01432 7.77612 0
M  V30 1086 N 99.0327 -1.24633 -0.964593 0
M  V30 1087 C 100.263 -1.11339 -1.74032 0
M  V30 1088 C 100.671 0.336593 -1.86182 0
M  V30 1089 O 100.014 1.24389 -1.35178 0
M  V30 1090 C 100.076 -1.68284 -3.1768 0
M  V30 1091 C 99.7397 -3.17196 -3.28992 0
M  V30 1092 C 100.737 -4.14308 -3.14078 0
M  V30 1093 C 98.4217 -3.57215 -3.53133 0
M  V30 1094 C 100.416 -5.4942 -3.23135 0
M  V30 1095 C 98.1027 -4.92468 -3.61827 0
M  V30 1096 C 99.1007 -5.8838 -3.46841 0
M  V30 1097 O 98.7887 -7.21173 -3.55197 0
M  V30 1098 H 98.5207 -0.389551 -0.552472 0
M  V30 1099 H 101.075 -1.65282 -1.21946 0
M  V30 1100 H 99.3047 -1.08777 -3.71085 0
M  V30 1101 H 100.994 -1.50234 -3.77074 0
M  V30 1102 H 101.76 -3.84731 -2.95308 0
M  V30 1103 H 97.6387 -2.83063 -3.63863 0
M  V30 1104 H 101.183 -6.24263 -3.11355 0
M  V30 1105 H 97.0797 -5.21714 -3.80111 0
M  V30 1106 H 97.8477 -7.29135 -3.71892 0
M  V30 1107 N 100.511 1.16574 -1.06058 0
M  V30 1108 C 101.458 2.20883 -0.669263 0
M  V30 1109 C 102.428 1.62729 0.332918 0
M  V30 1110 O 103.613 1.895 0.222346 0
M  V30 1111 C 100.753 3.45049 -0.0593572 0
M  V30 1112 C 99.8658 4.17458 -1.11143 0
M  V30 1113 C 99.0008 5.29135 -0.467916 0
M  V30 1114 C 98.0398 5.93343 -1.50369 0
M  V30 1115 N 97.1768 6.96516 -0.883706 0
M  V30 1116 H 102.017 2.53709 -1.5632 0
M  V30 1117 H 99.5538 1.24616 -0.781625 0
M  V30 1118 H 101.512 4.16033 0.311771 0
M  V30 1119 H 100.142 3.12781 0.797992 0
M  V30 1120 H 99.1938 3.45101 -1.60029 0
M  V30 1121 H 100.506 4.61307 -1.89731 0
M  V30 1122 H 99.6598 6.06684 -0.0436871 0
M  V30 1123 H 98.3988 4.86443 0.349864 0
M  V30 1124 H 97.4038 5.14517 -1.93784 0
M  V30 1125 H 98.6288 6.38114 -2.32352 0
M  V30 1126 H 96.5748 6.55943 -0.086595 0
M  V30 1127 H 96.4918 7.38723 -1.607 0
M  V30 1128 H 97.7598 7.77993 -0.484543 0
M  V30 1129 N 101.989 0.842826 1.3317 0
M  V30 1130 C 103.237 0.439577 1.97262 0
M  V30 1131 C 103.558 -1.00548 1.67078 0
M  V30 1132 O 102.828 -1.70098 0.971779 0
M  V30 1133 H 101.408 0.159558 0.72976 0
M  V30 1134 H 104.07 1.07665 1.62463 0
M  V30 1135 H 103.166 0.574886 3.0676 0
M  V30 1136 N 103.467 -1.45747 0.599634 0
M  V30 1137 C 104.377 -2.34262 -0.125888 0
M  V30 1138 C 105.393 -1.50768 -0.868625 0
M  V30 1139 O 106.569 -1.83592 -0.828003 0
M  V30 1140 C 103.634 -3.28252 -1.11587 0
M  V30 1141 C 102.695 -4.27651 -0.375956 0
M  V30 1142 C 101.928 -5.1715 -1.31877 0
M  V30 1143 O 102.151 -5.09916 -2.55621 0
M  V30 1144 O 101.085 -5.96286 -0.820157 0
M  V30 1145 H 104.911 -2.97688 0.601315 0
M  V30 1146 H 102.496 -1.44999 0.359934 0
M  V30 1147 H 104.378 -3.86191 -1.68626 0
M  V30 1148 H 103.053 -2.67401 -1.82424 0
M  V30 1149 H 101.96 -3.7335 0.236698 0
M  V30 1150 H 103.293 -4.91334 0.29177 0
M  V30 1151 N 104.945 -0.338344 -1.53925 0
M  V30 1152 C 106.361 0.0137736 -1.59594 0
M  V30 1153 C 106.561 1.49186 -1.35447 0
M  V30 1154 O 105.617 2.24987 -1.14616 0
M  V30 1155 C 106.93 -0.41773 -2.97784 0
M  V30 1156 C 108.478 -0.369633 -3.1081 0
M  V30 1157 C 108.953 -0.776524 -4.51369 0
M  V30 1158 N 110.444 -0.730506 -4.57403 0
M  V30 1159 C 111.179 -1.01736 -5.64303 0
M  V30 1160 N 110.675 -1.3721 -6.79077 0
M  V30 1161 N 112.468 -0.941942 -5.54151 0
M  V30 1162 H 104.619 -1.3012 -1.67876 0
M  V30 1163 H 106.882 -0.530082 -0.78595 0
M  V30 1164 H 106.588 -1.44811 -3.20504 0
M  V30 1165 H 106.462 0.209729 -3.76616 0
M  V30 1166 H 108.849 0.651568 -2.87817 0
M  V30 1167 H 108.93 -1.03223 -2.34049 0
M  V30 1168 H 108.574 -1.79571 -4.75096 0
M  V30 1169 H 108.504 -0.0914649 -5.26521 0
M  V30 1170 H 110.995 -0.468783 -3.74981 0
M  V30 1171 H 111.308 -1.57597 -7.5656 0
M  V30 1172 H 109.653 -1.4105 -6.80536 0
M  V30 1173 H 112.844 -0.664184 -4.63364 0
M  V30 1174 H 113.017 -1.16884 -6.37371 0
M  V30 1175 N 106.423 1.57458 -0.0668435 0
M  V30 1176 C 107.669 1.93587 0.6043 0
M  V30 1177 C 108.002 0.946722 1.69561 0
M  V30 1178 O 107.277 -0.0248516 1.94484 0
M  V30 1179 C 107.56 3.40014 1.18585 0
M  V30 1180 C 107.413 4.49685 0.101529 0
M  V30 1181 C 108.732 3.87154 2.09284 0
M  V30 1182 H 105.851 0.703958 0.218202 0
M  V30 1183 H 108.493 1.89542 -0.131804 0
M  V30 1184 H 106.643 3.43592 1.81319 0
M  V30 1185 H 108.315 4.5823 -0.531279 0
M  V30 1186 H 106.558 4.30059 -0.568487 0
M  V30 1187 H 107.229 5.49266 0.54874 0
M  V30 1188 H 109.705 3.85551 1.56491 0
M  V30 1189 H 108.581 4.90231 2.46911 0
M  V30 1190 H 108.842 3.2481 2.99918 0
M  V30 1191 N 107.901 -0.206675 1.56239 0
M  V30 1192 C 109.178 -0.954051 1.70755 0
M  V30 1193 C 109.558 -2.01841 0.618353 0
M  V30 1194 O 108.906 -2.25444 -0.372434 0
M  V30 1195 C 109.116 -1.551 3.12642 0
M  V30 1196 C 110.464 -2.03757 3.72516 0
M  V30 1197 O 111.488 -1.64965 3.15698 0
M  V30 1198 O 110.347 -2.75103 4.72208 0
M  V30 1199 H 107.441 -0.446636 0.696021 0
M  V30 1200 H 109.987 -0.197283 1.68549 0
M  V30 1201 H 108.759 -0.783212 3.83382 0
M  V30 1202 H 108.382 -2.37291 3.19028 0
M  V30 1203 N 109.379 -1.50304 -0.473955 0
M  V30 1204 C 110.627 -1.60832 -1.22382 0
M  V30 1205 C 110.948 -0.30939 -1.9253 0
M  V30 1206 O 110.218 0.67296 -1.83978 0
M  V30 1207 H 108.798 -0.592652 -0.454723 0
M  V30 1208 H 111.46 -1.87068 -0.546968 0
M  V30 1209 H 110.556 -2.41803 -1.97327 0
M  V30 1210 N 110.857 0.726932 -1.39834 0
M  V30 1211 C 111.805 1.86235 -1.39353 0
M  V30 1212 C 112.799 1.67144 -0.275555 0
M  V30 1213 O 114.005 1.74387 -0.44601 0
M  V30 1214 H 110.38 0.613174 -0.43534 0
M  V30 1215 H 112.351 1.83756 -2.35109 0
M  V30 1216 C 111.1 3.23995 -1.26185 0
M  V30 1217 H 110.423 3.39285 -2.11484 0
M  V30 1218 H 111.863 4.03609 -1.29907 0
M  V30 1219 C 110.322 3.36888 0.0290018 0
M  V30 1220 O 110.852 3.89152 0.99619 0
M  V30 1221 N 109.058 2.90446 0.0947437 0
M  V30 1222 H 108.605 2.48102 -0.693035 0
M  V30 1223 H 108.563 2.99451 0.957932 0
M  V30 1224 N 112.336 1.25143 0.95797 0
M  V30 1225 C 113.752 1.01892 1.22842 0
M  V30 1226 C 113.952 -0.266311 1.99732 0
M  V30 1227 O 113.008 -0.979913 2.3271 0
M  V30 1228 C 114.321 2.24004 2.00606 0
M  V30 1229 C 115.869 2.28731 2.13662 0
M  V30 1230 C 116.344 3.5049 2.94823 0
M  V30 1231 N 117.835 3.50866 3.02403 0
M  V30 1232 C 118.57 4.4174 3.65586 0
M  V30 1233 N 118.066 5.42882 4.30408 0
M  V30 1234 N 119.859 4.29429 3.62694 0
M  V30 1235 H 112.01 2.07718 0.443493 0
M  V30 1236 H 114.273 0.912031 0.258657 0
M  V30 1237 H 113.979 3.17395 1.51503 0
M  V30 1238 H 113.853 2.26907 3.01319 0
M  V30 1239 H 116.24 1.35865 2.61963 0
M  V30 1240 H 116.321 2.29848 1.12265 0
M  V30 1241 H 115.965 4.43676 2.47213 0
M  V30 1242 H 115.895 3.46617 3.96439 0
M  V30 1243 H 118.386 2.777 2.56302 0
M  V30 1244 H 118.699 6.0844 4.76467 0
M  V30 1245 H 117.044 5.46758 4.29047 0
M  V30 1246 H 120.235 3.49643 3.11236 0
M  V30 1247 H 120.408 5.00448 4.1165 0
M  V30 1248 N 113.814 -1.1601 1.06675 0
M  V30 1249 C 114.746 -2.20115 0.638921 0
M  V30 1250 C 115.759 -1.59916 -0.305057 0
M  V30 1251 O 116.948 -1.78245 -0.0954446 0
M  V30 1252 C 114.048 -3.38798 -0.0830083 0
M  V30 1253 C 113.221 -4.2855 0.875426 0
M  V30 1254 C 112.28 -5.25849 0.192042 0
M  V30 1255 O 111.306 -5.63102 0.830921 0
M  V30 1256 N 112.508 -5.70648 -1.06493 0
M  V30 1257 H 115.273 -2.57439 1.53444 0
M  V30 1258 H 112.834 -1.31057 0.950557 0
M  V30 1259 H 114.826 -4.00936 -0.550685 0
M  V30 1260 H 113.396 -2.99947 -0.880386 0
M  V30 1261 H 112.616 -3.63617 1.52238 0
M  V30 1262 H 113.904 -4.85393 1.52548 0
M  V30 1263 H 113.302 -5.42482 -1.60405 0
M  V30 1264 H 111.859 -6.34859 -1.47641 0
M  V30 1265 N 115.292 -0.849877 -1.32721 0
M  V30 1266 C 116.541 -0.447175 -1.96681 0
M  V30 1267 C 116.854 1.00135 -1.68025 0
M  V30 1268 O 118.06 1.50926 -2.25685 0
M  V30 1269 C 116.516 -0.7487 -3.52026 0
M  V30 1270 C 116.124 -2.21264 -3.89546 0
M  V30 1271 C 117.868 -0.413487 -4.22481 0
M  V30 1272 C 115.775 -2.45763 -5.37917 0
M  V30 1273 H 114.705 -0.163486 -0.736063 0
M  V30 1274 H 117.356 -1.03999 -1.51183 0
M  V30 1275 H 115.738 -0.0853727 -3.95908 0
M  V30 1276 H 116.912 -2.91736 -3.56689 0
M  V30 1277 H 115.227 -2.5119 -3.32103 0
M  V30 1278 H 117.824 -0.574017 -5.3161 0
M  V30 1279 H 118.167 0.644492 -4.11281 0
M  V30 1280 H 118.7 -1.03251 -3.84167 0
M  V30 1281 H 115.439 -3.50168 -5.54132 0
M  V30 1282 H 114.959 -1.79864 -5.72197 0
M  V30 1283 H 116.638 -2.29471 -6.0494 0
M  V30 1284 N 116.77 1.45427 -0.607355 0
M  V30 1285 C 118.019 2.01452 -0.100036 0
M  V30 1286 C 118.332 1.48159 1.27704 0
M  V30 1287 O 119.538 1.96159 1.87707 0
M  V30 1288 C 117.994 3.59672 -0.128158 0
M  V30 1289 C 117.602 4.21962 -1.50507 0
M  V30 1290 C 119.346 4.23262 0.323932 0
M  V30 1291 C 117.253 5.72333 -1.48959 0
M  V30 1292 H 116.183 0.75325 -0.0336299 0
M  V30 1293 H 118.834 1.66901 -0.76265 0
M  V30 1294 H 117.216 3.91411 0.601105 0
M  V30 1295 H 118.39 4.01796 -2.25602 0
M  V30 1296 H 116.705 3.70565 -1.89923 0
M  V30 1297 H 119.302 5.33522 0.354691 0
M  V30 1298 H 119.645 3.93921 1.34656 0
M  V30 1299 H 120.178 3.96239 -0.352056 0
M  V30 1300 H 116.917 6.06373 -2.48981 0
M  V30 1301 H 116.437 5.94691 -0.781214 0
M  V30 1302 H 118.116 6.35525 -1.21313 0
M  V30 1303 N 118.248 0.346503 1.53744 0
M  V30 1304 C 119.496 -0.248612 2.00565 0
M  V30 1305 C 119.817 -1.5083 1.23593 0
M  V30 1306 O 119.087 -1.92858 0.343912 0
M  V30 1307 H 117.667 -0.0948564 0.740953 0
M  V30 1308 H 120.329 0.468341 1.89189 0
M  V30 1309 H 119.425 -0.488994 3.08245 0
M  V30 1310 N 119.726 -1.57421 0.075193 0
M  V30 1311 C 120.956 -1.97659 -0.601203 0
M  V30 1312 C 121.364 -0.952427 -1.63479 0
M  V30 1313 O 120.707 0.0688241 -1.83571 0
M  V30 1314 C 120.769 -3.34218 -1.32434 0
M  V30 1315 C 120.433 -4.5484 -0.443826 0
M  V30 1316 C 121.43 -5.19034 0.299969 0
M  V30 1317 C 119.115 -5.00952 -0.367709 0
M  V30 1318 C 121.109 -6.27695 1.10807 0
M  V30 1319 C 118.796 -6.09484 0.444058 0
M  V30 1320 C 119.794 -6.72719 1.18061 0
M  V30 1321 O 119.482 -7.79161 1.97898 0
M  V30 1322 H 119.214 -0.65494 -0.167422 0
M  V30 1323 H 121.768 -2.04886 0.145157 0
M  V30 1324 H 119.998 -3.23615 -2.11685 0
M  V30 1325 H 121.687 -3.59038 -1.89331 0
M  V30 1326 H 122.453 -4.84351 0.250776 0
M  V30 1327 H 118.332 -4.51509 -0.930638 0
M  V30 1328 H 121.876 -6.76982 1.68347 0
M  V30 1329 H 117.773 -6.43601 0.494803 0
M  V30 1330 H 118.541 -7.96055 1.90367 0
M  V30 1331 N 121.204 0.198386 -1.56346 0
M  V30 1332 C 122.45 0.920648 -1.80698 0
M  V30 1333 C 122.783 1.83045 -0.648697 0
M  V30 1334 O 122.058 1.91308 0.350925 0
M  V30 1335 C 122.341 1.73971 -3.15287 0
M  V30 1336 C 122.194 0.85485 -4.41602 0
M  V30 1337 C 123.513 2.71296 -3.46535 0
M  V30 1338 H 120.632 0.333261 -0.657348 0
M  V30 1339 H 123.274 0.188198 -1.89066 0
M  V30 1340 H 121.424 2.36416 -3.08285 0
M  V30 1341 H 123.096 0.245362 -4.60647 0
M  V30 1342 H 121.339 0.161398 -4.335 0
M  V30 1343 H 122.01 1.46286 -5.32264 0
M  V30 1344 H 124.486 2.18983 -3.53816 0
M  V30 1345 H 123.362 3.2569 -4.41834 0
M  V30 1346 H 123.623 3.5018 -2.69864 0
M  V30 1347 N 122.682 1.50554 0.465978 0
M  V30 1348 C 123.931 1.61038 1.21448 0
M  V30 1349 C 124.244 0.31865 1.92987 0
M  V30 1350 O 125.45 0.302469 2.6981 0
M  V30 1351 C 123.906 2.84283 2.20706 0
M  V30 1352 C 123.514 4.20352 1.54946 0
M  V30 1353 C 125.258 3.04115 2.96166 0
M  V30 1354 C 123.165 5.34778 2.5252 0
M  V30 1355 H 122.095 0.599718 0.457005 0
M  V30 1356 H 124.746 1.7699 0.484424 0
M  V30 1357 H 123.128 2.61901 2.97025 0
M  V30 1358 H 124.302 4.53008 0.843811 0
M  V30 1359 H 122.617 4.06167 0.917475 0
M  V30 1360 H 125.214 3.86774 3.69202 0
M  V30 1361 H 125.557 2.16045 3.55852 0
M  V30 1362 H 126.09 3.26702 2.26959 0
M  V30 1363 H 122.829 6.25018 1.97566 0
M  V30 1364 H 122.349 5.06534 3.21222 0
M  V30 1365 H 124.028 5.65561 3.14245 0
M  V30 1366 N 124.16 -0.719506 1.40217 0
M  V30 1367 C 125.408 -1.47641 1.3801 0
M  V30 1368 C 125.729 -1.94992 -0.018145 0
M  V30 1369 O 124.999 -1.70073 -0.972207 0
M  V30 1370 H 123.579 -0.547744 0.507923 0
M  V30 1371 H 126.241 -0.853187 1.75233 0
M  V30 1372 H 125.337 -2.35112 2.05253 0
M  V30 1373 N 125.638 -1.25649 -0.95132 0
M  V30 1374 C 126.866 -1.13343 -1.73092 0
M  V30 1375 C 127.281 0.312434 -1.86197 0
M  V30 1376 O 126.638 1.21465 -1.36207 0
M  V30 1377 C 126.689 -1.78602 -3.14299 0
M  V30 1378 O 126.41 -3.17537 -3.01831 0
M  V30 1379 C 127.911 -1.72119 -4.08522 0
M  V30 1380 H 125.131 -0.395181 -0.542285 0
M  V30 1381 H 127.675 -1.66076 -1.19328 0
M  V30 1382 H 125.83 -1.29832 -3.64996 0
M  V30 1383 H 126.244 -3.49676 -3.90931 0
M  V30 1384 H 127.718 -2.22435 -5.052 0
M  V30 1385 H 128.195 -0.685635 -4.33815 0
M  V30 1386 H 128.801 -2.20393 -3.63741 0
M  V30 1387 N 127.117 1.15442 -1.07289 0
M  V30 1388 C 128.049 2.19773 -0.650585 0
M  V30 1389 C 129.062 1.60076 0.296572 0
M  V30 1390 O 130.251 1.78293 0.0859905 0
M  V30 1391 C 127.351 3.38838 0.0650398 0
M  V30 1392 C 126.524 4.2808 -0.898141 0
M  V30 1393 C 125.583 5.2574 -0.219926 0
M  V30 1394 O 124.609 5.62654 -0.860773 0
M  V30 1395 N 125.811 5.71205 1.03466 0
M  V30 1396 H 128.576 2.56622 -1.54808 0
M  V30 1397 H 126.137 1.30551 -0.957494 0
M  V30 1398 H 128.129 4.01222 0.529415 0
M  V30 1399 H 126.699 3.00409 0.864466 0
M  V30 1400 H 125.919 3.62804 -1.54165 0
M  V30 1401 H 127.207 4.84577 -1.5512 0
M  V30 1402 H 126.605 5.43325 1.57526 0
M  V30 1403 H 125.162 6.35633 1.44272 0
M  V30 1404 N 128.595 0.856903 1.32268 0
M  V30 1405 C 129.527 0.260412 2.27716 0
M  V30 1406 C 130.54 -0.569137 1.52528 0
M  V30 1407 O 131.729 -0.39326 1.74114 0
M  V30 1408 C 128.829 -0.650477 3.32599 0
M  V30 1409 C 128.002 0.14372 4.37164 0
M  V30 1410 C 127.061 -0.69328 5.21613 0
M  V30 1411 O 126.087 -0.12599 5.69061 0
M  V30 1412 N 127.289 -2.00761 5.44679 0
M  V30 1413 H 130.054 1.08059 2.79541 0
M  V30 1414 H 127.615 0.717103 1.45152 0
M  V30 1415 H 129.607 -1.21581 3.86005 0
M  V30 1416 H 128.177 -1.37133 2.80915 0
M  V30 1417 H 127.397 0.890486 3.8401 0
M  V30 1418 H 128.685 0.68915 5.04111 0
M  V30 1419 H 128.083 -2.49181 5.07863 0
M  V30 1420 H 126.64 -2.52103 6.01072 0
M  V30 1421 N 130.073 -1.45103 0.615059 0
M  V30 1422 C 131.036 -2.29025 -0.0895485 0
M  V30 1423 C 132.036 -1.40174 -0.787906 0
M  V30 1424 O 133.226 -1.62217 -0.634933 0
M  V30 1425 C 130.358 -3.21376 -1.13711 0
M  V30 1426 H 131.551 -2.92807 0.648382 0
M  V30 1427 H 129.104 -1.51749 0.374444 0
M  V30 1428 H 129.839 -2.6241 -1.90556 0
M  V30 1429 H 129.624 -3.86834 -0.640475 0
M  V30 1430 H 131.114 -3.84459 -1.63036 0
M  V30 1431 N 131.551 -0.354651 -1.53558 0
M  V30 1432 C 132.779 0.239515 -2.05509 0
M  V30 1433 C 133.194 1.4333 -1.2289 0
M  V30 1434 O 132.551 1.80538 -0.266899 0
M  V30 1435 C 132.602 0.643719 -3.55723 0
M  V30 1436 O 132.323 -0.502602 -4.35207 0
M  V30 1437 C 133.824 1.29743 -4.23889 0
M  V30 1438 H 131.044 0.0442697 -0.669538 0
M  V30 1439 H 133.588 -0.509856 -1.98042 0
M  V30 1440 H 131.743 1.34302 -3.63376 0
M  V30 1441 H 132.157 -0.178172 -5.24197 0
M  V30 1442 H 133.631 1.53091 -5.30346 0
M  V30 1443 H 134.108 2.25441 -3.76926 0
M  V30 1444 H 134.714 0.639865 -4.20459 0
M  V30 1445 N 133.029 1.57378 -0.0835403 0
M  V30 1446 C 134.44 1.81261 0.447358 0
M  V30 1447 C 134.791 0.998331 1.68902 0
M  V30 1448 O 133.916 0.224282 2.15235 0
M  V30 1449 C 134.511 3.28767 0.818386 0
M  V30 1450 C 133.07 3.53455 1.29409 0
M  V30 1451 C 132.217 2.75831 0.285024 0
M  V30 1452 H 135.168 1.5566 -0.309115 0
M  V30 1453 H 135.189 3.41459 1.67887 0
M  V30 1454 H 134.701 3.88006 -0.0855019 0
M  V30 1455 H 132.802 2.99534 2.21608 0
M  V30 1456 H 132.915 4.62128 1.2639 0
M  V30 1457 H 131.279 2.42947 0.764767 0
M  V30 1458 H 132.062 3.37813 -0.611341 0
M  V30 1459 N 134.507 -0.190092 1.56449 0
M  V30 1460 C 135.755 -0.907908 1.80559 0
M  V30 1461 C 136.076 -1.83583 0.657438 0
M  V30 1462 O 135.346 -1.93203 -0.323924 0
M  V30 1463 H 133.926 -0.338247 0.666032 0
M  V30 1464 H 136.588 -0.194403 1.93928 0
M  V30 1465 H 135.684 -1.49604 2.73907 0
M  V30 1466 N 135.985 -1.50799 -0.457987 0
M  V30 1467 C 137.396 -1.55152 -1.0385 0
M  V30 1468 C 137.747 -0.362719 -1.92818 0
M  V30 1469 O 136.872 0.522915 -2.09987 0
M  V30 1470 C 137.467 -2.81173 -1.89017 0
M  V30 1471 C 136.026 -2.88164 -2.42154 0
M  V30 1472 C 135.173 -2.49591 -1.20829 0
M  V30 1473 H 138.124 -1.56874 -0.240068 0
M  V30 1474 H 138.145 -2.63769 -2.74238 0
M  V30 1475 H 137.657 -3.67677 -1.24238 0
M  V30 1476 H 135.758 -2.06042 -3.10447 0
M  V30 1477 H 135.871 -3.91356 -2.76364 0
M  V30 1478 H 134.235 -2.02322 -1.54719 0
M  V30 1479 H 135.018 -3.38418 -0.576927 0
M  V30 1480 N 137.463 0.71206 -1.40597 0
M  V30 1481 C 138.426 1.80785 -1.40888 0
M  V30 1482 C 139.426 1.57937 -0.302103 0
M  V30 1483 O 140.616 1.64913 -0.561182 0
M  V30 1484 C 137.748 3.18927 -1.20409 0
M  V30 1485 H 138.941 1.81924 -2.38419 0
M  V30 1486 H 136.494 0.91805 -1.26497 0
M  V30 1487 H 137.229 3.23436 -0.236522 0
M  V30 1488 H 137.014 3.36911 -2.00582 0
M  V30 1489 H 138.504 3.98949 -1.23408 0
M  V30 1490 N 138.941 1.26152 0.944643 0
M  V30 1491 C 140.171 1.14094 1.72239 0
M  V30 1492 C 140.579 -0.306931 1.86694 0
M  V30 1493 O 139.922 -1.22222 1.3714 0
M  V30 1494 C 139.984 1.73316 3.14963 0
M  V30 1495 C 139.648 3.2239 3.23904 0
M  V30 1496 C 140.645 4.19252 3.07447 0
M  V30 1497 C 138.33 3.62788 3.47405 0
M  V30 1498 C 140.324 5.54491 3.14353 0
M  V30 1499 C 138.011 4.98162 3.53947 0
M  V30 1500 C 139.009 5.93823 3.37436 0
M  V30 1501 O 138.697 7.26732 3.43679 0
M  V30 1502 H 138.429 0.398292 0.546205 0
M  V30 1503 H 140.983 1.67201 1.19301 0
M  V30 1504 H 139.213 1.14667 3.69308 0
M  V30 1505 H 140.902 1.56214 3.74636 0
M  V30 1506 H 141.668 3.8938 2.8915 0
M  V30 1507 H 137.547 2.88816 3.59313 0
M  V30 1508 H 141.091 6.29137 3.01384 0
M  V30 1509 H 136.988 5.27695 3.71763 0
M  V30 1510 H 137.756 7.3496 3.60245 0
M  V30 1511 N 140.419 -1.14872 1.07899 0
M  V30 1512 C 141.644 -1.90202 0.826926 0
M  V30 1513 C 142.069 -1.77774 -0.614664 0
M  V30 1514 O 141.427 -1.11431 -1.43013 0
M  V30 1515 C 141.475 -3.38352 1.24702 0
M  V30 1516 O 140.579 -4.10497 0.39575 0
M  V30 1517 H 139.92 -0.591968 0.300782 0
M  V30 1518 H 142.45 -1.45437 1.43907 0
M  V30 1519 H 142.46 -3.89156 1.22563 0
M  V30 1520 H 141.135 -3.46715 2.29698 0
M  V30 1521 H 139.712 -3.69796 0.480117 0
M  V30 1522 N 141.898 -0.863906 -1.31812 0
M  V30 1523 C 143.146 -0.470904 -1.96537 0
M  V30 1524 C 143.467 0.978771 -1.68657 0
M  V30 1525 O 142.737 1.6853 -0.998717 0
M  V30 1526 H 141.317 -0.171148 -0.72713 0
M  V30 1527 H 143.979 -1.10236 -1.60729 0
M  V30 1528 H 143.075 -0.623616 -3.05806 0
M  V30 1529 N 143.376 1.44774 -0.622745 0
M  V30 1530 C 144.792 1.56986 -0.287652 0
M  V30 1531 C 144.992 1.61167 1.20944 0
M  V30 1532 O 144.048 1.55015 1.99315 0
M  V30 1533 C 145.361 2.84551 -0.972188 0
M  V30 1534 C 146.909 2.9825 -0.949536 0
M  V30 1535 C 147.384 4.28605 -1.61437 0
M  V30 1536 N 148.875 4.35399 -1.58057 0
M  V30 1537 C 149.61 5.34964 -2.064 0
M  V30 1538 N 149.106 6.40981 -2.62897 0
M  V30 1539 N 150.899 5.26419 -1.97078 0
M  V30 1540 H 143.05 1.40304 -1.59463 0
M  V30 1541 H 145.313 0.671794 -0.668878 0
M  V30 1542 H 145.019 2.87417 -2.02693 0
M  V30 1543 H 144.893 3.73807 -0.504771 0
M  V30 1544 H 147.28 2.94941 0.0967067 0
M  V30 1545 H 147.361 2.10364 -1.45536 0
M  V30 1546 H 147.005 4.32672 -2.66002 0
M  V30 1547 H 146.935 5.15334 -1.08344 0
M  V30 1548 H 149.426 3.59397 -1.16801 0
M  V30 1549 H 149.739 7.13225 -2.97539 0
M  V30 1550 H 148.084 6.4169 -2.66943 0
M  V30 1551 H 151.275 4.42504 -1.52669 0
M  V30 1552 H 151.448 6.03861 -2.35066 0
M  V30 1553 N 144.854 0.36279 1.53368 0
M  V30 1554 C 145.764 -0.492994 2.29362 0
M  V30 1555 C 146.78 -1.09507 1.35219 0
M  V30 1556 O 147.956 -1.10662 1.68273 0
M  V30 1557 C 145.021 -1.61855 3.066 0
M  V30 1558 C 144.082 -1.04429 4.16405 0
M  V30 1559 C 143.315 -2.11621 4.89951 0
M  V30 1560 O 143.538 -3.32684 4.63333 0
M  V30 1561 O 142.472 -1.74835 5.75948 0
M  V30 1562 H 146.298 0.125331 3.03441 0
M  V30 1563 H 143.883 0.127253 1.48857 0
M  V30 1564 H 145.765 -2.27302 3.54841 0
M  V30 1565 H 144.44 -2.22233 2.3536 0
M  V30 1566 H 143.347 -0.353819 3.72423 0
M  V30 1567 H 144.68 -0.485113 4.89804 0
M  V30 1568 N 146.332 -1.57332 0.0918853 0
M  V30 1569 C 147.581 -1.93412 -0.572249 0
M  V30 1570 C 147.894 -0.975515 -1.69538 0
M  V30 1571 O 149.1 -1.22991 -2.42045 0
M  V30 1572 C 147.556 -3.43648 -1.0693 0
M  V30 1573 C 147.164 -4.47994 0.0239049 0
M  V30 1574 C 148.908 -3.88695 -1.70635 0
M  V30 1575 C 146.815 -5.89381 -0.488319 0
M  V30 1576 H 145.745 -0.721939 -0.217532 0
M  V30 1577 H 148.396 -1.82735 0.167369 0
M  V30 1578 H 146.778 -3.49466 -1.8625 0
M  V30 1579 H 147.952 -4.53815 0.799277 0
M  V30 1580 H 146.267 -4.12536 0.565946 0
M  V30 1581 H 148.864 -4.91725 -2.10025 0
M  V30 1582 H 149.207 -3.27166 -2.57426 0
M  V30 1583 H 149.74 -3.85564 -0.979023 0
M  V30 1584 H 146.479 -6.54602 0.342906 0
M  V30 1585 H 145.999 -5.87037 -1.23077 0
M  V30 1586 H 147.678 -6.39863 -0.958317 0
M  V30 1587 N 147.81 0.181792 -1.56548 0
M  V30 1588 C 149.059 0.898348 -1.8059 0
M  V30 1589 C 149.372 1.83862 -0.667379 0
M  V30 1590 O 150.578 2.59678 -0.792446 0
M  V30 1591 C 149.034 1.64791 -3.19956 0
M  V30 1592 C 148.642 0.751789 -4.41647 0
M  V30 1593 C 150.386 2.35331 -3.53298 0
M  V30 1594 C 148.293 1.50098 -5.72035 0
M  V30 1595 H 147.223 0.339194 -0.673397 0
M  V30 1596 H 149.874 0.151413 -1.82874 0
M  V30 1597 H 148.256 2.43921 -3.11959 0
M  V30 1598 H 149.43 -0.0018076 -4.608 0
M  V30 1599 H 147.745 0.156562 -4.16106 0
M  V30 1600 H 150.342 2.91958 -4.47956 0
M  V30 1601 H 150.685 3.10164 -2.77676 0
M  V30 1602 H 151.218 1.63154 -3.62803 0
M  V30 1603 H 147.957 0.795175 -6.50659 0
M  V30 1604 H 147.477 2.22817 -5.56878 0
M  V30 1605 H 149.156 2.05125 -6.13622 0
M  V30 1606 N 149.288 1.51039 0.449983 0
M  V30 1607 C 150.518 1.66627 1.22143 0
M  V30 1608 C 150.926 0.357776 1.85786 0
M  V30 1609 O 150.269 -0.672424 1.70951 0
M  V30 1610 C 150.331 2.71562 2.35573 0
M  V30 1611 C 149.995 4.14526 1.92399 0
M  V30 1612 C 150.992 4.99717 1.43453 0
M  V30 1613 C 148.677 4.60559 2.00475 0
M  V30 1614 C 150.671 6.28998 1.03155 0
M  V30 1615 C 148.358 5.8984 1.59788 0
M  V30 1616 C 149.356 6.73886 1.11208 0
M  V30 1617 O 149.044 8.0075 0.710935 0
M  V30 1618 H 148.776 0.562635 0.374724 0
M  V30 1619 H 151.33 1.98146 0.541036 0
M  V30 1620 H 149.56 2.3533 3.06849 0
M  V30 1621 H 151.249 2.76156 2.97478 0
M  V30 1622 H 152.015 4.65361 1.36618 0
M  V30 1623 H 147.894 3.95273 2.37235 0
M  V30 1624 H 151.438 6.9455 0.651663 0
M  V30 1625 H 147.335 6.23713 1.66289 0
M  V30 1626 H 148.103 8.142 0.837913 0
M  V30 1627 N 150.766 -0.704594 1.40972 0
M  V30 1628 C 152.177 -1.28418 1.3552 0
M  V30 1629 C 152.528 -1.96171 0.0339434 0
M  V30 1630 O 151.653 -1.98231 -0.867944 0
M  V30 1631 C 152.248 -2.33528 2.45459 0
M  V30 1632 C 150.807 -2.87085 2.43433 0
M  V30 1633 C 149.954 -1.61007 2.2577 0
M  V30 1634 H 152.905 -0.499963 1.50619 0
M  V30 1635 H 152.926 -3.14619 2.13998 0
M  V30 1636 H 152.438 -1.84187 3.41609 0
M  V30 1637 H 150.539 -3.40626 1.51013 0
M  V30 1638 H 150.652 -3.3813 3.39419 0
M  V30 1639 H 149.016 -1.86482 1.73483 0
M  V30 1640 H 149.799 -1.13675 3.23933 0
M  V30 1641 N 152.244 -1.26651 -0.937939 0
M  V30 1642 C 153.192 -1.08308 -2.05845 0
M  V30 1643 C 154.186 -0.0090757 -1.69398 0
M  V30 1644 O 155.392 -0.166007 -1.79233 0
M  V30 1645 H 151.767 -0.333416 -0.674046 0
M  V30 1646 H 153.738 -2.03261 -2.18467 0
M  V30 1647 C 152.487 -0.736229 -3.39816 0
M  V30 1648 H 151.81 -1.55453 -3.6834 0
M  V30 1649 H 153.25 -0.64769 -4.19024 0
M  V30 1650 C 151.709 0.558824 -3.32233 0
M  V30 1651 O 152.239 1.59621 -3.68624 0
M  V30 1652 N 150.445 0.550657 -2.85335 0
M  V30 1653 H 149.992 -0.293943 -2.55917 0
M  V30 1654 H 149.95 1.41726 -2.80644 0
M  V30 1655 N 153.722 1.14298 -1.08507 0
M  V30 1656 C 154.685 2.17607 -0.719711 0
M  V30 1657 C 155.685 1.58907 0.245997 0
M  V30 1658 O 156.875 1.74181 0.0254081 0
M  V30 1659 C 154.007 3.40842 -0.0627695 0
M  V30 1660 H 155.2 2.51443 -1.63452 0
M  V30 1661 H 152.753 1.28963 -0.88307 0
M  V30 1662 H 153.488 3.12587 0.863716 0
M  V30 1663 H 153.273 3.84713 -0.757504 0
M  V30 1664 H 154.763 4.17221 0.177786 0
M  V30 1665 N 155.201 0.870884 1.31352 0
M  V30 1666 C 156.426 0.495957 2.01383 0
M  V30 1667 C 156.851 -0.904324 1.64935 0
M  V30 1668 O 156.209 -1.59687 0.858466 0
M  V30 1669 C 156.257 0.661433 3.54482 0
M  V30 1670 O 155.361 -0.298851 4.11316 0
M  V30 1671 H 154.702 0.197158 0.634054 0
M  V30 1672 H 157.232 1.17455 1.67527 0
M  V30 1673 H 157.242 0.555072 4.04207 0
M  V30 1674 H 155.917 1.68246 3.8035 0
M  V30 1675 H 154.494 -0.147368 3.72609 0
M  V30 1676 N 156.679 -1.44442 0.630414 0
M  V30 1677 C 157.609 -2.33418 -0.0618083 0
M  V30 1678 C 158.59 -1.48165 -0.835541 0
M  V30 1679 O 159.775 -1.76886 -0.801564 0
M  V30 1680 C 156.905 -3.31222 -1.04449 0
M  V30 1681 C 155.859 -4.26288 -0.382436 0
M  V30 1682 C 155.185 -5.13954 -1.47497 0
M  V30 1683 C 156.485 -5.1744 0.710865 0
M  V30 1684 H 158.179 -2.91548 0.681184 0
M  V30 1685 H 155.725 -1.40191 0.329026 0
M  V30 1686 H 157.678 -3.92351 -1.53748 0
M  V30 1687 H 156.402 -2.71299 -1.81836 0
M  V30 1688 H 155.061 -3.6649 0.0899054 0
M  V30 1689 H 154.709 -4.50385 -2.2397 0
M  V30 1690 H 154.409 -5.7837 -1.03737 0
M  V30 1691 H 155.933 -5.77955 -1.96979 0
M  V30 1692 H 157.347 -5.72509 0.300996 0
M  V30 1693 H 155.744 -5.90455 1.07156 0
M  V30 1694 H 156.814 -4.58496 1.57829 0
M  V30 1695 N 158.157 -0.370918 -1.53173 0
M  V30 1696 C 159.087 0.464847 -2.28826 0
M  V30 1697 C 160.068 1.07936 -1.31468 0
M  V30 1698 O 161.253 1.0956 -1.60344 0
M  V30 1699 C 158.383 1.60196 -3.08147 0
M  V30 1700 C 157.337 1.11443 -4.13237 0
M  V30 1701 C 156.663 2.3422 -4.80672 0
M  V30 1702 C 157.963 0.195384 -5.21934 0
M  V30 1703 H 159.657 -0.166329 -2.98938 0
M  V30 1704 H 157.203 -0.0814359 -1.4377 0
M  V30 1705 H 159.156 2.19332 -3.59822 0
M  V30 1706 H 157.88 2.26045 -2.35735 0
M  V30 1707 H 156.539 0.545727 -3.62515 0
M  V30 1708 H 156.187 2.98537 -4.04827 0
M  V30 1709 H 155.887 2.02269 -5.51689 0
M  V30 1710 H 157.411 2.94032 -5.35143 0
M  V30 1711 H 158.825 0.694375 -5.69079 0
M  V30 1712 H 157.222 -0.0335027 -6.00091 0
M  V30 1713 H 158.292 -0.760961 -4.78892 0
M  V30 1714 N 159.635 1.57281 -0.100228 0
M  V30 1715 C 160.884 1.93713 0.561984 0
M  V30 1716 C 161.197 0.984492 1.69018 0
M  V30 1717 O 162.403 1.24273 2.41389 0
M  V30 1718 C 160.859 3.4421 1.05106 0
M  V30 1719 C 160.467 4.47975 -0.0476628 0
M  V30 1720 C 162.211 3.89595 1.68571 0
M  V30 1721 C 160.118 5.89631 0.457055 0
M  V30 1722 H 159.048 0.723082 0.2137 0
M  V30 1723 H 161.699 1.82644 -0.177057 0
M  V30 1724 H 160.081 3.50449 1.84395 0
M  V30 1725 H 161.255 4.53385 -0.823333 0
M  V30 1726 H 159.57 4.1223 -0.587816 0
M  V30 1727 H 162.167 4.92832 2.07414 0
M  V30 1728 H 162.51 3.28526 2.55688 0
M  V30 1729 H 163.043 3.86078 0.958562 0
M  V30 1730 H 159.782 6.54411 -0.377616 0
M  V30 1731 H 159.302 5.87681 1.19962 0
M  V30 1732 H 160.981 6.40363 0.92437 0
M  V30 1733 N 161.113 -0.173488 1.56642 0
M  V30 1734 C 162.045 -1.23935 1.92802 0
M  V30 1735 C 163.058 -1.40589 0.820889 0
M  V30 1736 O 164.247 -1.40631 1.09933 0
M  V30 1737 C 161.347 -2.60837 2.16373 0
M  V30 1738 C 160.52 -2.6551 3.47596 0
M  V30 1739 C 159.579 -3.8376 3.60021 0
M  V30 1740 O 158.605 -3.69859 4.32658 0
M  V30 1741 N 159.807 -5.00127 2.94709 0
M  V30 1742 H 162.572 -0.932236 2.84832 0
M  V30 1743 H 160.133 -0.363268 1.57772 0
M  V30 1744 H 162.125 -3.38407 2.21952 0
M  V30 1745 H 160.695 -2.83948 1.30738 0
M  V30 1746 H 159.915 -1.74052 3.53694 0
M  V30 1747 H 161.203 -2.65641 4.33949 0
M  V30 1748 H 160.601 -5.14322 2.35563 0
M  V30 1749 H 159.158 -5.75567 3.05886 0
M  V30 1750 N 162.591 -1.51276 -0.441967 0
M  V30 1751 C 163.539 -1.72823 -1.55676 0
M  V30 1752 C 164.533 -0.59445 -1.58627 0
M  V30 1753 O 165.739 -0.775715 -1.62427 0
M  V30 1754 H 162.114 -0.545983 -0.517113 0
M  V30 1755 H 164.085 -2.6628 -1.34675 0
M  V30 1756 C 162.834 -1.86619 -2.93375 0
M  V30 1757 H 162.157 -2.73264 -2.91834 0
M  V30 1758 H 163.597 -2.05709 -3.70756 0
M  V30 1759 C 162.056 -0.624842 -3.31055 0
M  V30 1760 O 162.586 0.222636 -4.01083 0
M  V30 1761 N 160.792 -0.470288 -2.86769 0
M  V30 1762 H 160.339 -1.161 -2.29953 0
M  V30 1763 H 160.297 0.359051 -3.12343 0
M  V30 1764 N 164.069 0.697108 -1.41344 0
M  V30 1765 C 165.318 1.45279 -1.39918 0
M  V30 1766 C 165.631 1.95597 -0.0109624 0
M  V30 1767 O 166.837 2.71208 0.125919 0
M  V30 1768 C 165.293 2.62695 -2.46007 0
M  V30 1769 C 164.901 2.19169 -3.90729 0
M  V30 1770 C 166.645 3.40336 -2.53715 0
M  V30 1771 C 164.552 3.33535 -4.88373 0
M  V30 1772 H 163.482 0.545692 -0.520323 0
M  V30 1773 H 166.133 0.756929 -1.67161 0
M  V30 1774 H 164.515 3.34541 -2.11892 0
M  V30 1775 H 165.689 1.54623 -4.34083 0
M  V30 1776 H 164.004 1.54525 -3.86666 0
M  V30 1777 H 166.601 4.2547 -3.2385 0
M  V30 1778 H 166.944 3.85418 -1.5735 0
M  V30 1779 H 167.477 2.75546 -2.86913 0
M  V30 1780 H 164.216 2.93468 -5.86137 0
M  V30 1781 H 163.736 3.96936 -4.49668 0
M  V30 1782 H 165.415 3.99335 -5.09059 0
M  V30 1783 N 165.547 1.27147 0.931209 0
M  V30 1784 C 166.796 1.12664 1.67302 0
M  V30 1785 C 167.109 -0.327718 1.92835 0
M  V30 1786 O 168.315 -0.593392 2.64936 0
M  V30 1787 C 166.771 1.9683 3.01307 0
M  V30 1788 C 166.379 3.46901 2.83485 0
M  V30 1789 C 168.123 1.90985 3.79111 0
M  V30 1790 C 166.03 4.23279 4.13024 0
M  V30 1791 H 164.96 0.41803 0.627509 0
M  V30 1792 H 167.611 1.51539 1.03481 0
M  V30 1793 H 165.993 1.50797 3.66164 0
M  V30 1794 H 167.167 4.00773 2.27415 0
M  V30 1795 H 165.482 3.54088 2.19113 0
M  V30 1796 H 168.079 2.45328 4.75098 0
M  V30 1797 H 168.422 0.882718 4.06834 0
M  V30 1798 H 168.955 2.34895 3.21044 0
M  V30 1799 H 165.694 5.26503 3.90481 0
M  V30 1800 H 165.214 3.74186 4.6877 0
M  V30 1801 H 166.893 4.32265 4.81411 0
M  V30 1802 N 167.025 -1.13721 1.09112 0
M  V30 1803 C 167.957 -2.1871 0.685467 0
M  V30 1804 C 168.97 -1.60527 -0.271068 0
M  V30 1805 O 170.159 -1.78407 -0.0576148 0
M  V30 1806 C 167.259 -3.38898 -0.0111255 0
M  V30 1807 C 166.432 -4.26597 0.966131 0
M  V30 1808 C 165.491 -5.25324 0.303539 0
M  V30 1809 O 164.517 -5.61213 0.950177 0
M  V30 1810 N 165.719 -5.72779 -0.943651 0
M  V30 1811 H 168.484 -2.54126 1.58871 0
M  V30 1812 H 166.045 -1.29012 0.978143 0
M  V30 1813 H 168.037 -4.02014 -0.465517 0
M  V30 1814 H 166.607 -3.01747 -0.816565 0
M  V30 1815 H 165.827 -3.60306 1.59917 0
M  V30 1816 H 167.115 -4.82048 1.6281 0
M  V30 1817 H 166.513 -5.45762 -1.48862 0
M  V30 1818 H 165.07 -6.37847 -1.34142 0
M  V30 1819 N 168.503 -0.877838 -1.30888 0
M  V30 1820 C 169.451 -0.328662 -2.30266 0
M  V30 1821 C 170.445 0.560496 -1.59859 0
M  V30 1822 O 171.651 0.445722 -1.74394 0
M  V30 1823 H 168.026 -0.0876142 -0.746879 0
M  V30 1824 H 169.997 -1.18061 -2.74051 0
M  V30 1825 C 168.746 0.448071 -3.44801 0
M  V30 1826 H 168.069 -0.226859 -3.99156 0
M  V30 1827 H 169.509 0.797541 -4.16432 0
M  V30 1828 C 167.968 1.64239 -2.94155 0
M  V30 1829 O 168.498 2.74175 -2.93583 0
M  V30 1830 N 166.704 1.47716 -2.50256 0
M  V30 1831 H 166.251 0.582821 -2.5092 0
M  V30 1832 H 166.209 2.27765 -2.16727 0
M  V30 1833 N 169.982 1.44106 -0.638065 0
M  V30 1834 C 171.259 1.95453 -0.0759321 0
M  V30 1835 C 171.639 1.57984 1.40015 0
M  V30 1836 O 170.987 0.857361 2.11806 0
M  V30 1837 C 171.197 3.47655 -0.306132 0
M  V30 1838 C 172.545 4.24114 -0.203008 0
M  V30 1839 O 173.569 3.55405 -0.237871 0
M  V30 1840 O 172.428 5.46381 -0.113827 0
M  V30 1841 H 169.522 0.826797 0.0183332 0
M  V30 1842 H 172.068 1.54122 -0.710251 0
M  V30 1843 H 170.84 3.68 -1.3301 0
M  V30 1844 H 170.463 3.95949 0.361991 0
M  V30 1845 N 171.46 0.379036 1.52974 0
M  V30 1846 C 172.688 -0.20679 2.05864 0
M  V30 1847 C 173.103 -1.41356 1.25155 0
M  V30 1848 O 172.46 -1.8009 0.295588 0
M  V30 1849 C 172.511 -0.587045 3.56702 0
M  V30 1850 O 172.232 0.571776 4.34353 0
M  V30 1851 C 173.733 -1.22983 4.25899 0
M  V30 1852 H 170.953 -0.0336123 0.670158 0
M  V30 1853 H 173.497 0.541298 1.97206 0
M  V30 1854 H 171.652 -1.28504 3.65466 0
M  V30 1855 H 172.066 0.261544 5.23847 0
M  V30 1856 H 173.54 -1.44635 5.32715 0
M  V30 1857 H 174.017 -2.19416 3.80465 0
M  V30 1858 H 174.623 -0.572892 4.21424 0
M  V30 1859 N 172.938 -1.57226 0.108567 0
M  V30 1860 C 174.186 -1.94448 -0.550853 0
M  V30 1861 C 174.507 -0.992074 -1.67878 0
M  V30 1862 O 173.777 -0.0465 -1.95845 0
M  V30 1863 H 172.357 -0.717897 -0.206479 0
M  V30 1864 H 175.019 -1.94112 0.175062 0
M  V30 1865 H 174.115 -2.97218 -0.952259 0
M  V30 1866 N 174.416 0.165178 -1.56732 0
M  V30 1867 C 175.663 0.880807 -1.8234 0
M  V30 1868 C 175.991 1.81977 -0.686621 0
M  V30 1869 O 175.246 1.92971 0.325697 0
M  V30 1870 C 175.545 1.70405 -3.1416 0
M  V30 1871 C 175.211 0.913475 -4.4155 0
M  V30 1872 C 173.873 0.695303 -4.7615 0
M  V30 1873 C 176.225 0.359349 -5.1996 0
M  V30 1874 C 173.553 -0.0879947 -5.86634 0
M  V30 1875 C 175.905 -0.410893 -6.31264 0
M  V30 1876 C 174.569 -0.639808 -6.64427 0
M  V30 1877 H 173.839 0.32231 -0.667231 0
M  V30 1878 H 176.486 0.145402 -1.90947 0
M  V30 1879 H 174.791 2.50903 -3.00923 0
M  V30 1880 H 176.488 2.26091 -3.31186 0
M  V30 1881 H 173.078 1.09357 -4.14414 0
M  V30 1882 H 177.262 0.515228 -4.93618 0
M  V30 1883 H 172.518 -0.27503 -6.10781 0
M  V30 1884 H 176.692 -0.847494 -6.91224 0
M  V30 1885 H 174.319 -1.24864 -7.49875 0
M  V30 1886 N 175.894 1.51508 0.433938 0
M  V30 1887 C 177.124 1.67914 1.20369 0
M  V30 1888 C 177.532 0.377461 1.85397 0
M  V30 1889 O 176.875 -0.654255 1.71654 0
M  V30 1890 C 176.937 2.74045 2.32679 0
M  V30 1891 C 176.601 4.16543 1.87991 0
M  V30 1892 C 177.598 5.01211 1.38145 0
M  V30 1893 C 175.283 4.6266 1.95579 0
M  V30 1894 C 177.277 6.30056 0.964774 0
M  V30 1895 C 174.964 5.91501 1.53523 0
M  V30 1896 C 175.962 6.75027 1.04055 0
M  V30 1897 O 175.65 8.01459 0.625964 0
M  V30 1898 H 175.382 0.566578 0.368735 0
M  V30 1899 H 177.936 1.98709 0.51999 0
M  V30 1900 H 176.166 2.38572 3.04336 0
M  V30 1901 H 177.855 2.79295 2.94532 0
M  V30 1902 H 178.621 4.66783 1.31675 0
M  V30 1903 H 174.5 3.97767 2.33029 0
M  V30 1904 H 178.044 6.95202 0.57796 0
M  V30 1905 H 173.941 6.25442 1.59665 0
M  V30 1906 H 174.709 8.15043 0.751509 0
M  V30 1907 N 177.372 -0.689602 1.41712 0
M  V30 1908 C 178.6 -1.47827 1.44758 0
M  V30 1909 C 179.015 -1.88721 0.0545703 0
M  V30 1910 O 178.372 -1.57176 -0.927463 0
M  V30 1911 C 178.423 -2.73698 2.3616 0
M  V30 1912 O 178.144 -2.34524 3.7004 0
M  V30 1913 C 179.645 -3.67389 2.48072 0
M  V30 1914 H 176.865 -0.455357 0.49284 0
M  V30 1915 H 179.409 -0.848574 1.86063 0
M  V30 1916 H 177.564 -3.32891 1.98148 0
M  V30 1917 H 177.978 -3.15701 4.18847 0
M  V30 1918 H 179.452 -4.52475 3.16181 0
M  V30 1919 H 179.929 -4.12284 1.51388 0
M  V30 1920 H 180.535 -3.14097 2.86746 0
M  V30 1921 N 178.85 -1.27639 -0.924453 0
M  V30 1922 C 179.78 -1.13166 -2.04244 0
M  V30 1923 C 180.761 -0.032256 -1.70069 0
M  V30 1924 O 181.946 -0.207328 -1.9309 0
M  V30 1925 C 179.076 -0.781496 -3.38393 0
M  V30 1926 C 178.03 -1.83449 -3.86692 0
M  V30 1927 C 177.356 -1.33822 -5.17683 0
M  V30 1928 C 178.656 -3.23917 -4.09726 0
M  V30 1929 H 180.35 -2.06689 -2.1661 0
M  V30 1930 H 177.896 -0.995136 -1.04082 0
M  V30 1931 H 179.849 -0.667057 -4.16087 0
M  V30 1932 H 178.573 0.189439 -3.2605 0
M  V30 1933 H 177.232 -1.93789 -3.11193 0
M  V30 1934 H 176.88 -0.35665 -5.01734 0
M  V30 1935 H 176.58 -2.04224 -5.50968 0
M  V30 1936 H 178.104 -1.23679 -5.97943 0
M  V30 1937 H 179.518 -3.16559 -4.77978 0
M  V30 1938 H 177.915 -3.92059 -4.54324 0
M  V30 1939 H 178.985 -3.68729 -3.14908 0
M  V30 1940 N 180.328 1.1314 -1.09713 0
M  V30 1941 C 181.278 2.16709 -0.708593 0
M  V30 1942 C 182.262 1.58471 0.278523 0
M  V30 1943 O 183.454 1.76779 0.088427 0
M  V30 1944 C 180.583 3.43039 -0.133923 0
M  V30 1945 C 179.669 4.08277 -1.14763 0
M  V30 1946 N 180.06 4.48637 -2.33577 0
M  V30 1947 C 178.358 4.34954 -0.986446 0
M  V30 1948 C 179.059 4.9952 -2.98085 0
M  V30 1949 N 178.035 4.94561 -2.25632 0
M  V30 1950 H 181.837 2.45672 -1.61315 0
M  V30 1951 H 179.351 1.29967 -0.973775 0
M  V30 1952 H 181.348 4.16583 0.162465 0
M  V30 1953 H 180.008 3.15549 0.765447 0
M  V30 1954 H 181.019 4.41246 -2.7115 0
M  V30 1955 H 177.696 4.17258 -0.142008 0
M  V30 1956 H 179.086 5.40521 -3.99108 0
M  V30 1957 N 181.806 0.884767 1.30421 0
M  V30 1958 C 183.052 0.503851 1.96441 0
M  V30 1959 C 183.385 -0.944518 1.69684 0
M  V30 1960 O 182.66 -1.66737 1.00145 0
M  V30 1961 C 182.943 0.779085 3.51571 0
M  V30 1962 C 182.796 2.27807 3.87846 0
M  V30 1963 C 184.115 0.255452 4.39358 0
M  V30 1964 H 181.234 0.184533 0.713524 0
M  V30 1965 H 183.876 1.10872 1.54297 0
M  V30 1966 H 182.026 0.264274 3.876 0
M  V30 1967 H 183.698 2.86127 3.61841 0
M  V30 1968 H 181.941 2.74479 3.35922 0
M  V30 1969 H 182.612 2.42125 4.96064 0
M  V30 1970 H 185.088 0.696079 4.10236 0
M  V30 1971 H 183.964 0.477361 5.4682 0
M  V30 1972 H 184.225 -0.843293 4.33983 0
M  V30 1973 N 183.284 -1.43765 0.645699 0
M  V30 1974 C 184.533 -2.01116 0.153412 0
M  V30 1975 C 184.846 -1.51493 -1.23731 0
M  V30 1976 O 186.052 -2.01067 -1.8244 0
M  V30 1977 C 184.508 -3.59206 0.223473 0
M  V30 1978 C 184.116 -4.17823 1.61642 0
M  V30 1979 C 185.86 -4.23972 -0.211597 0
M  V30 1980 C 183.767 -5.68183 1.64081 0
M  V30 1981 H 182.697 -0.752093 0.0535891 0
M  V30 1982 H 185.348 -1.6482 0.806633 0
M  V30 1983 H 183.73 -3.92867 -0.497118 0
M  V30 1984 H 184.904 -3.95674 2.36176 0
M  V30 1985 H 183.219 -3.65399 1.99681 0
M  V30 1986 H 185.816 -5.34275 -0.213112 0
M  V30 1987 H 186.159 -3.97352 -1.24165 0
M  V30 1988 H 186.692 -3.95166 0.456988 0
M  V30 1989 H 183.431 -5.99559 2.64971 0
M  V30 1990 H 182.951 -5.9241 0.938611 0
M  V30 1991 H 184.63 -6.32085 1.3812 0
M  V30 1992 N 184.763 -0.387143 -1.52771 0
M  V30 1993 C 185.71 0.449048 -2.26389 0
M  V30 1994 C 186.68 1.05961 -1.27912 0
M  V30 1995 O 187.865 1.08804 -1.56737 0
M  V30 1996 C 185.005 1.57155 -3.0724 0
M  V30 1997 C 184.118 0.984066 -4.20643 0
M  V30 1998 C 183.253 2.07745 -4.88892 0
M  V30 1999 C 182.292 1.46574 -5.94292 0
M  V30 2000 N 181.429 2.49834 -6.56146 0
M  V30 2001 H 186.269 -0.185205 -2.97424 0
M  V30 2002 H 183.806 -0.103164 -1.46738 0
M  V30 2003 H 185.764 2.23309 -3.52405 0
M  V30 2004 H 184.394 2.17615 -2.38419 0
M  V30 2005 H 183.446 0.212193 -3.79808 0
M  V30 2006 H 184.758 0.497029 -4.96318 0
M  V30 2007 H 183.912 2.81673 -5.3735 0
M  V30 2008 H 182.651 2.59807 -4.12737 0
M  V30 2009 H 181.656 0.711696 -5.45174 0
M  V30 2010 H 182.881 0.953088 -6.72379 0
M  V30 2011 H 180.827 3.0107 -5.82832 0
M  V30 2012 H 180.744 2.05879 -7.27427 0
M  V30 2013 H 182.012 3.23399 -7.09249 0
M  V30 2014 N 186.241 1.57166 -0.116904 0
M  V30 2015 C 187.466 1.999 0.55271 0
M  V30 2016 C 187.891 0.996039 1.59564 0
M  V30 2017 O 187.249 -0.032556 1.81271 0
M  V30 2018 C 187.297 3.4152 1.15742 0
M  V30 2019 O 186.401 3.44106 2.27299 0
M  V30 2020 H 185.742 0.649447 0.138258 0
M  V30 2021 H 188.272 2.03573 -0.204759 0
M  V30 2022 H 188.282 3.79684 1.49346 0
M  V30 2023 H 186.957 4.14034 0.393493 0
M  V30 2024 H 185.534 3.17759 1.9515 0
M  V30 2025 N 187.719 -0.156864 1.56817 0
M  V30 2026 C 188.996 -0.899244 1.73704 0
M  V30 2027 C 189.376 -1.99771 0.682254 0
M  V30 2028 O 188.724 -2.26515 -0.300522 0
M  V30 2029 C 188.934 -1.45075 3.17418 0
M  V30 2030 C 190.282 -1.91802 3.7881 0
M  V30 2031 O 191.306 -1.54838 3.20786 0
M  V30 2032 O 190.165 -2.5994 4.80722 0
M  V30 2033 H 187.259 -0.424267 0.709878 0
M  V30 2034 H 189.805 -0.143561 1.69092 0
M  V30 2035 H 188.577 -0.660846 3.85679 0
M  V30 2036 H 188.2 -2.27021 3.26416 0
M  V30 2037 N 189.197 -1.51736 -0.425897 0
M  V30 2038 C 190.127 -1.76827 -1.52494 0
M  V30 2039 C 191.108 -0.618524 -1.58456 0
M  V30 2040 O 192.293 -0.862416 -1.74 0
M  V30 2041 C 189.423 -1.90374 -2.90474 0
M  V30 2042 C 188.377 -3.0588 -2.99369 0
M  V30 2043 C 187.703 -3.04625 -4.3944 0
M  V30 2044 C 189.003 -4.45644 -2.72394 0
M  V30 2045 H 190.697 -2.68855 -1.31748 0
M  V30 2046 H 188.243 -1.29372 -0.632362 0
M  V30 2047 H 190.196 -2.0651 -3.6733 0
M  V30 2048 H 188.92 -0.95004 -3.12477 0
M  V30 2049 H 187.579 -2.89467 -2.24954 0
M  V30 2050 H 187.227 -2.0701 -4.58428 0
M  V30 2051 H 186.927 -3.82195 -4.46319 0
M  V30 2052 H 188.451 -3.22869 -5.18255 0
M  V30 2053 H 189.865 -4.62348 -3.38979 0
M  V30 2054 H 188.262 -5.25006 -2.9067 0
M  V30 2055 H 189.332 -4.54893 -1.67929 0
M  V30 2056 N 190.675 0.682077 -1.42076 0
M  V30 2057 C 191.921 1.44428 -1.42367 0
M  V30 2058 C 192.254 1.94164 -0.0373056 0
M  V30 2059 O 191.529 1.70429 0.937239 0
M  V30 2060 C 191.812 2.64654 -2.44194 0
M  V30 2061 C 191.665 2.20596 -3.91991 0
M  V30 2062 C 192.984 3.66865 -2.431 0
M  V30 2063 H 190.103 0.523834 -0.518428 0
M  V30 2064 H 192.745 0.77576 -1.73442 0
M  V30 2065 H 190.895 3.2169 -2.17826 0
M  V30 2066 H 192.567 1.68783 -4.29313 0
M  V30 2067 H 190.81 1.52242 -4.06208 0
M  V30 2068 H 191.481 3.06921 -4.58807 0
M  V30 2069 H 193.957 3.19531 -2.66532 0
M  V30 2070 H 192.833 4.48577 -3.16339 0
M  V30 2071 H 193.094 4.17493 -1.45437 0
M  V30 2072 N 192.153 1.28127 0.917671 0
M  V30 2073 C 193.101 1.11569 2.04096 0
M  V30 2074 C 194.095 0.0360242 1.69362 0
M  V30 2075 O 195.301 0.194501 1.78946 0
M  V30 2076 H 191.676 0.344097 0.668656 0
M  V30 2077 H 193.647 2.06711 2.15205 0
M  V30 2078 C 192.396 0.790197 3.38602 0
M  V30 2079 H 191.719 1.61293 3.6582 0
M  V30 2080 H 193.159 0.714271 4.1794 0
M  V30 2081 C 191.618 -0.505897 3.3308 0
M  V30 2082 O 192.148 -1.53736 3.71117 0
M  V30 2083 N 190.354 -0.505193 2.86175 0
M  V30 2084 H 189.901 0.334621 2.55417 0
M  V30 2085 H 189.859 -1.37243 2.82863 0
M  V30 2086 N 193.631 -1.12557 1.10312 0
M  V30 2087 C 194.541 -2.21841 0.763142 0
M  V30 2088 C 195.557 -1.72354 -0.238801 0
M  V30 2089 O 196.733 -2.01249 -0.0778746 0
M  V30 2090 C 193.798 -3.46131 0.198632 0
M  V30 2091 C 192.859 -4.10464 1.25769 0
M  V30 2092 C 192.092 -5.28821 0.72002 0
M  V30 2093 O 192.315 -5.6859 -0.453993 0
M  V30 2094 O 191.249 -5.83437 1.47935 0
M  V30 2095 H 195.075 -2.53312 1.67532 0
M  V30 2096 H 192.66 -1.20867 0.878157 0
M  V30 2097 H 194.542 -4.2125 -0.112401 0
M  V30 2098 H 193.217 -3.16338 -0.686419 0
M  V30 2099 H 192.124 -3.3713 1.62156 0
M  V30 2100 H 193.457 -4.44408 2.11571 0
M  V30 2101 N 195.109 -0.891671 -1.2995 0
M  V30 2102 C 196.019 -0.367691 -2.31701 0
M  V30 2103 C 197.035 0.533486 -1.6562 0
M  V30 2104 O 198.211 0.424997 -1.96865 0
M  V30 2105 C 195.276 0.403406 -3.44345 0
M  V30 2106 C 194.337 -0.528328 -4.26037 0
M  V30 2107 C 193.57 0.206063 -5.33302 0
M  V30 2108 O 193.793 1.43119 -5.52153 0
M  V30 2109 O 192.727 -0.447281 -6.00236 0
M  V30 2110 H 196.553 -1.21163 -2.78484 0
M  V30 2111 H 194.138 -0.655725 -1.34241 0
M  V30 2112 H 196.02 0.839753 -4.12948 0
M  V30 2113 H 194.695 1.22354 -2.99685 0
M  V30 2114 H 193.602 -1.01362 -3.60106 0
M  V30 2115 H 194.935 -1.31465 -4.74318 0
M  V30 2116 N 196.587 1.43421 -0.653314 0
M  V30 2117 C 197.55 2.29182 0.0287951 0
M  V30 2118 C 198.55 1.42213 0.750465 0
M  V30 2119 O 199.74 1.63843 0.591701 0
M  V30 2120 C 196.872 3.24278 1.05151 0
M  V30 2121 H 198.065 2.90985 -0.725786 0
M  V30 2122 H 195.618 1.50702 -0.414545 0
M  V30 2123 H 196.353 2.6737 1.83532 0
M  V30 2124 H 196.138 3.88396 0.537687 0
M  V30 2125 H 197.628 3.88647 1.52786 0
M  V30 2126 N 198.065 0.39524 1.52563 0
M  V30 2127 C 199.293 -0.184943 2.06072 0
M  V30 2128 C 199.708 -1.40021 1.26647 0
M  V30 2129 O 199.065 -1.79767 0.314672 0
M  V30 2130 C 199.116 -0.549179 3.57304 0
M  V30 2131 O 198.837 0.617813 4.33722 0
M  V30 2132 C 200.338 -1.18459 4.2718 0
M  V30 2133 H 197.558 -0.0265025 0.670476 0
M  V30 2134 H 200.102 0.562184 1.96621 0
M  V30 2135 H 198.257 -1.2462 3.66809 0
M  V30 2136 H 198.671 0.317091 5.23541 0
M  V30 2137 H 200.145 -1.38976 5.34219 0
M  V30 2138 H 200.622 -2.15368 3.82771 0
M  V30 2139 H 201.228 -0.528163 4.22008 0
M  V30 2140 N 199.544 -1.57102 0.125237 0
M  V30 2141 C 200.792 -1.95021 -0.530198 0
M  V30 2142 C 201.113 -1.00982 -1.66816 0
M  V30 2143 O 200.383 -0.0672693 -1.95784 0
M  V30 2144 H 198.963 -0.720046 -0.198853 0
M  V30 2145 H 201.625 -1.93916 0.19564 0
M  V30 2146 H 200.721 -2.98211 -0.920681 0
M  V30 2147 N 201.022 0.148545 -1.56898 0
M  V30 2148 C 201.954 1.20852 -1.9475 0
M  V30 2149 C 202.967 1.39265 -0.843152 0
M  V30 2150 O 204.156 1.38864 -1.12156 0
M  V30 2151 C 201.256 2.57362 -2.20495 0
M  V30 2152 C 200.429 2.59947 -3.51776 0
M  V30 2153 C 199.488 3.77984 -3.6608 0
M  V30 2154 O 198.514 3.62929 -4.38487 0
M  V30 2155 N 199.716 4.95375 -3.02629 0
M  V30 2156 H 202.481 0.886804 -2.86279 0
M  V30 2157 H 200.042 0.338121 -1.5833 0
M  V30 2158 H 202.034 3.34833 -2.27307 0
M  V30 2159 H 200.604 2.81832 -1.35238 0
M  V30 2160 H 199.824 1.68403 -3.56419 0
M  V30 2161 H 201.112 2.58704 -4.38121 0
M  V30 2162 H 200.51 5.10509 -2.43715 0
M  V30 2163 H 199.067 5.70627 -3.15004 0
M  V30 2164 N 202.5 1.5196 0.417844 0
M  V30 2165 C 203.747 1.65591 1.16559 0
M  V30 2166 C 204.075 0.381565 1.90721 0
M  V30 2167 O 203.33 -0.635156 1.85106 0
M  V30 2168 C 203.629 2.82269 2.19223 0
M  V30 2169 C 203.295 4.20819 1.61933 0
M  V30 2170 C 201.957 4.58506 1.46033 0
M  V30 2171 C 204.309 5.07196 1.20008 0
M  V30 2172 C 201.637 5.80257 0.867113 0
M  V30 2173 C 203.989 6.29544 0.621086 0
M  V30 2174 C 202.653 6.65987 0.449144 0
M  V30 2175 H 201.923 0.605939 0.42652 0
M  V30 2176 H 204.57 1.86041 0.45397 0
M  V30 2177 H 202.875 2.56118 2.96498 0
M  V30 2178 H 204.572 2.90012 2.76936 0
M  V30 2179 H 201.162 3.91116 1.7529 0
M  V30 2180 H 205.346 4.7867 1.31105 0
M  V30 2181 H 200.602 6.07124 0.721833 0
M  V30 2182 H 204.776 6.95805 0.287798 0
M  V30 2183 H 202.403 7.60199 -0.012632 0
M  V30 2184 N 203.978 -0.674533 1.42435 0
M  V30 2185 C 205.394 -0.98769 1.25367 0
M  V30 2186 C 205.594 -2.00879 0.158044 0
M  V30 2187 O 204.65 -2.48075 -0.470633 0
M  V30 2188 C 205.963 -1.49224 2.6106 0
M  V30 2189 C 207.511 -1.61 2.68417 0
M  V30 2190 C 207.986 -2.14852 4.04478 0
M  V30 2191 N 209.477 -2.22185 4.06434 0
M  V30 2192 C 210.212 -2.64928 5.08528 0
M  V30 2193 N 209.708 -3.07121 6.21006 0
M  V30 2194 N 211.501 -2.64679 4.95885 0
M  V30 2195 H 203.652 0.00152503 2.124 0
M  V30 2196 H 205.915 -0.0618434 0.945981 0
M  V30 2197 H 205.621 -0.816453 3.42092 0
M  V30 2198 H 205.495 -2.47094 2.84999 0
M  V30 2199 H 207.882 -2.27686 1.87732 0
M  V30 2200 H 207.963 -0.616195 2.48267 0
M  V30 2201 H 207.607 -1.48775 4.85622 0
M  V30 2202 H 207.537 -3.15024 4.2198 0
M  V30 2203 H 210.028 -1.92435 3.25234 0
M  V30 2204 H 210.341 -3.38423 6.94759 0
M  V30 2205 H 208.686 -3.04978 6.24511 0
M  V30 2206 H 211.877 -2.31078 4.07088 0
M  V30 2207 H 212.05 -2.9767 5.75584 0
M  V30 2208 N 205.456 -1.28612 -0.910864 0
M  V30 2209 C 206.702 -1.16106 -1.66274 0
M  V30 2210 C 207.035 0.289113 -1.92036 0
M  V30 2211 O 206.31 1.21 -1.52281 0
M  V30 2212 C 206.593 -1.96309 -3.01885 0
M  V30 2213 C 206.446 -3.49405 -2.8326 0
M  V30 2214 C 207.765 -1.78076 -4.02463 0
M  V30 2215 H 204.884 -0.423152 -0.603417 0
M  V30 2216 H 207.526 -1.57961 -1.05586 0
M  V30 2217 H 205.676 -1.60742 -3.53687 0
M  V30 2218 H 207.348 -3.94894 -2.38446 0
M  V30 2219 H 205.591 -3.74893 -2.18261 0
M  V30 2220 H 206.262 -4.00784 -3.79574 0
M  V30 2221 H 208.738 -2.0912 -3.59733 0
M  V30 2222 H 207.614 -2.36561 -4.95308 0
M  V30 2223 H 207.875 -0.733008 -4.35981 0
M  V30 2224 N 206.934 1.1197 -1.10907 0
M  V30 2225 C 208.164 1.8713 -0.875553 0
M  V30 2226 C 208.572 1.8016 0.577843 0
M  V30 2227 O 207.915 1.17699 1.41042 0
M  V30 2228 C 207.977 3.37005 -1.2517 0
M  V30 2229 C 207.641 3.67748 -2.71313 0
M  V30 2230 C 208.638 3.65698 -3.69542 0
M  V30 2231 C 206.323 3.96928 -3.07821 0
M  V30 2232 C 208.317 3.92395 -5.023 0
M  V30 2233 C 206.004 4.23284 -4.40765 0
M  V30 2234 C 207.002 4.21005 -5.37814 0
M  V30 2235 O 206.69 4.46704 -6.68364 0
M  V30 2236 H 206.422 0.598786 -0.313737 0
M  V30 2237 H 208.976 1.42568 -1.47863 0
M  V30 2238 H 207.206 3.82146 -0.591741 0
M  V30 2239 H 208.895 3.93519 -0.994877 0
M  V30 2240 H 209.661 3.43211 -3.42682 0
M  V30 2241 H 205.54 3.97841 -2.32902 0
M  V30 2242 H 209.084 3.90531 -5.78041 0
M  V30 2243 H 204.981 4.45246 -4.67361 0
M  V30 2244 H 205.749 4.64299 -6.74069 0
M  V30 2245 N 208.412 0.89855 1.29475 0
M  V30 2246 C 209.823 0.572537 1.77705 0
M  V30 2247 C 210.174 -0.911778 1.73727 0
M  V30 2248 O 209.299 -1.71288 1.32247 0
M  V30 2249 C 209.894 1.03252 3.22683 0
M  V30 2250 C 208.453 0.757687 3.68695 0
M  V30 2251 C 207.6 1.20787 2.49612 0
M  V30 2252 H 210.551 1.08139 1.16153 0
M  V30 2253 H 210.572 0.367307 3.78723 0
M  V30 2254 H 210.084 2.11285 3.25546 0
M  V30 2255 H 208.185 -0.310079 3.71308 0
M  V30 2256 H 208.298 1.35476 4.59547 0
M  V30 2257 H 206.662 0.626888 2.46865 0
M  V30 2258 H 207.445 2.29622 2.55203 0
M  V30 2259 N 209.89 -1.43072 0.660911 0
M  V30 2260 C 210.8 -2.34585 -0.0264163 0
M  V30 2261 C 211.816 -1.54316 -0.803898 0
M  V30 2262 O 212.992 -1.86939 -0.749391 0
M  V30 2263 C 210.057 -3.32689 -0.975639 0
M  V30 2264 C 209.118 -4.2886 -0.194236 0
M  V30 2265 C 208.351 -5.22278 -1.09825 0
M  V30 2266 O 208.574 -5.20299 -2.33763 0
M  V30 2267 O 207.508 -5.99228 -0.566513 0
M  V30 2268 H 211.334 -2.94869 0.727034 0
M  V30 2269 H 208.919 -1.43342 0.42111 0
M  V30 2270 H 210.801 -3.92995 -1.52094 0
M  V30 2271 H 209.476 -2.74898 -1.70918 0
M  V30 2272 H 208.383 -3.72011 0.394835 0
M  V30 2273 H 209.716 -4.89655 0.499899 0
M  V30 2274 N 211.368 -0.403325 -1.52352 0
M  V30 2275 C 212.298 0.416205 -2.29761 0
M  V30 2276 C 213.279 1.05123 -1.33728 0
M  V30 2277 O 214.464 1.06134 -1.62632 0
M  V30 2278 C 211.594 1.53624 -3.11475 0
M  V30 2279 C 210.548 1.02653 -4.15507 0
M  V30 2280 C 209.874 2.23971 -4.85532 0
M  V30 2281 C 211.174 0.08463 -5.22231 0
M  V30 2282 H 212.868 -0.229701 -2.98518 0
M  V30 2283 H 210.414 -0.111913 -1.43564 0
M  V30 2284 H 212.367 2.1165 -3.64393 0
M  V30 2285 H 211.091 2.20994 -2.40477 0
M  V30 2286 H 209.75 0.46871 -3.63591 0
M  V30 2287 H 209.398 2.89883 -4.11068 0
M  V30 2288 H 209.098 1.90521 -5.55856 0
M  V30 2289 H 210.622 2.82614 -5.41259 0
M  V30 2290 H 212.036 0.573509 -5.70424 0
M  V30 2291 H 210.433 -0.160783 -5.99885 0
M  V30 2292 H 211.503 -0.86237 -4.7717 0
M  V30 2293 N 212.846 1.57033 -0.133567 0
M  V30 2294 C 214.257 1.82593 0.389464 0
M  V30 2295 C 214.608 1.05156 1.6564 0
M  V30 2296 O 213.733 0.292644 2.14412 0
M  V30 2297 C 214.328 3.31204 0.713377 0
M  V30 2298 C 212.887 3.57393 1.18098 0
M  V30 2299 C 212.034 2.76598 0.197126 0
M  V30 2300 H 214.985 1.54598 -0.358481 0
M  V30 2301 H 215.006 3.46627 1.56939 0
M  V30 2302 H 214.518 3.87537 -0.2089 0
M  V30 2303 H 212.619 3.06433 2.11966 0
M  V30 2304 H 212.732 4.65915 1.11624 0
M  V30 2305 H 211.096 2.45257 0.687088 0
M  V30 2306 H 211.879 3.35697 -0.718504 0
M  V30 2307 N 214.325 -0.140222 1.56975 0
M  V30 2308 C 215.272 -1.17292 1.98774 0
M  V30 2309 C 216.242 -1.4232 0.856408 0
M  V30 2310 O 217.427 -1.54541 1.119 0
M  V30 2311 C 214.567 -2.49973 2.37923 0
M  V30 2312 C 213.68 -2.32062 3.64378 0
M  V30 2313 C 212.815 -3.57825 3.926 0
M  V30 2314 C 211.854 -3.3498 5.12303 0
M  V30 2315 N 210.991 -4.52891 5.36502 0
M  V30 2316 H 215.831 -0.809472 2.86795 0
M  V30 2317 H 213.368 -0.388237 1.41884 0
M  V30 2318 H 215.326 -3.27346 2.58652 0
M  V30 2319 H 213.956 -2.84252 1.52972 0
M  V30 2320 H 213.008 -1.45711 3.51387 0
M  V30 2321 H 214.32 -2.11145 4.51906 0
M  V30 2322 H 213.474 -4.43624 4.13863 0
M  V30 2323 H 212.213 -3.81753 3.03506 0
M  V30 2324 H 211.218 -2.4757 4.90906 0
M  V30 2325 H 212.443 -3.12444 6.02956 0
M  V30 2326 H 210.389 -4.76979 4.50363 0
M  V30 2327 H 210.306 -4.35001 6.18312 0
M  V30 2328 H 211.574 -5.39884 5.62268 0
M  V30 2329 N 215.803 -1.52179 -0.40978 0
M  V30 2330 C 217.214 -1.58377 -0.988615 0
M  V30 2331 C 217.565 -0.423879 -1.91566 0
M  V30 2332 O 216.69 0.455844 -2.11544 0
M  V30 2333 C 217.285 -2.87044 -1.79976 0
M  V30 2334 C 215.844 -2.95722 -2.32863 0
M  V30 2335 C 214.991 -2.53309 -1.12828 0
M  V30 2336 H 217.942 -1.57558 -0.190039 0
M  V30 2337 H 217.963 -2.7236 -2.65707 0
M  V30 2338 H 217.475 -3.71444 -1.12478 0
M  V30 2339 H 215.576 -2.15814 -3.03735 0
M  V30 2340 H 215.689 -3.99951 -2.63773 0
M  V30 2341 H 214.053 -2.07142 -1.48204 0
M  V30 2342 H 214.836 -3.40082 -0.46897 0
M  V30 2343 N 217.281 0.66697 -1.42791 0
M  V30 2344 C 218.506 1.46004 -1.47301 0
M  V30 2345 C 218.931 1.87894 -0.0880317 0
M  V30 2346 O 218.289 1.56502 0.915253 0
M  V30 2347 C 218.337 2.68031 -2.41229 0
M  V30 2348 O 217.441 3.6659 -1.88906 0
M  V30 2349 H 216.782 0.43832 -0.49877 0
M  V30 2350 H 219.312 0.817391 -1.87563 0
M  V30 2351 H 219.322 3.1601 -2.58073 0
M  V30 2352 H 217.997 2.36883 -3.41847 0
M  V30 2353 H 216.574 3.25661 -1.81656 0
M  V30 2354 N 218.759 1.29093 0.90403 0
M  V30 2355 C 220.008 1.16187 1.64874 0
M  V30 2356 C 220.321 -0.286742 1.93487 0
M  V30 2357 O 221.527 -0.537062 2.66135 0
M  V30 2358 C 219.983 2.03177 2.97064 0
M  V30 2359 C 219.591 3.52836 2.76062 0
M  V30 2360 C 221.335 1.98984 3.74974 0
M  V30 2361 C 219.242 4.31945 4.03952 0
M  V30 2362 H 218.172 0.431246 0.618501 0
M  V30 2363 H 220.823 1.53699 1.00243 0
M  V30 2364 H 219.205 1.5853 3.62883 0
M  V30 2365 H 220.379 4.05507 2.18863 0
M  V30 2366 H 218.694 3.58656 2.11553 0
M  V30 2367 H 221.291 2.55351 4.69787 0
M  V30 2368 H 221.634 0.968815 4.0487 0
M  V30 2369 H 222.167 2.41652 3.15989 0
M  V30 2370 H 218.906 5.34667 3.79225 0
M  V30 2371 H 218.426 3.84045 4.60727 0
M  V30 2372 H 220.105 4.42379 4.72133 0
M  V30 2373 N 220.237 -1.11381 1.11499 0
M  V30 2374 C 221.462 -1.87475 0.887019 0
M  V30 2375 C 221.887 -1.79639 -0.557796 0
M  V30 2376 O 221.245 -1.15924 -1.39396 0
M  V30 2377 C 221.293 -3.34213 1.35403 0
M  V30 2378 O 220.397 -4.0903 0.526146 0
M  V30 2379 H 219.738 -0.582099 0.319463 0
M  V30 2380 H 222.268 -1.40785 1.48461 0
M  V30 2381 H 222.278 -3.8506 1.34881 0
M  V30 2382 H 220.953 -3.39232 2.40612 0
M  V30 2383 H 219.53 -3.68082 0.597522 0
M  V30 2384 N 221.715 -0.905404 -1.28997 0
M  V30 2385 C 222.94 -0.549175 -1.99997 0
M  V30 2386 C 223.365 0.860276 -1.67275 0
M  V30 2387 O 222.723 1.57355 -0.900502 0
M  V30 2388 C 222.771 -0.755185 -3.52604 0
M  V30 2389 O 221.875 0.189692 -4.11964 0
M  V30 2390 H 221.216 -0.213899 -0.628604 0
M  V30 2391 H 223.746 -1.21856 -1.64354 0
M  V30 2392 H 223.756 -0.662045 -4.02593 0
M  V30 2393 H 222.431 -1.78271 -3.75755 0
M  V30 2394 H 221.008 0.0485257 -3.72868 0
M  V30 2395 N 223.193 1.4272 -0.668489 0
M  V30 2396 C 224.141 2.32586 0.0254857 0
M  V30 2397 C 225.135 1.49471 0.797176 0
M  V30 2398 O 226.341 1.65583 0.705853 0
M  V30 2399 H 222.716 0.751514 0.0270339 0
M  V30 2400 H 224.687 2.88823 -0.749936 0
M  V30 2401 C 223.436 3.3397 0.967427 0
M  V30 2402 H 222.759 3.97961 0.383048 0
M  V30 2403 H 224.199 3.9945 1.42181 0
M  V30 2404 C 222.658 2.65744 2.0708 0
M  V30 2405 O 223.188 2.48454 3.15648 0
M  V30 2406 N 221.394 2.2487 1.8407 0
M  V30 2407 H 220.941 2.39132 0.95778 0
M  V30 2408 H 220.899 1.79552 2.58086 0
M  V30 2409 N 224.671 0.411399 1.52136 0
M  V30 2410 C 225.619 -0.427633 2.28635 0
M  V30 2411 C 226.613 -1.04383 1.33419 0
M  V30 2412 O 227.819 -0.981772 1.50868 0
M  V30 2413 H 224.194 -0.156689 0.735495 0
M  V30 2414 H 226.165 0.238761 2.97443 0
M  V30 2415 C 224.914 -1.53082 3.12188 0
M  V30 2416 H 224.237 -1.06601 3.85326 0
M  V30 2417 H 225.677 -2.09167 3.68816 0
M  V30 2418 C 224.136 -2.49946 2.25895 0
M  V30 2419 O 224.666 -3.53884 1.90076 0
M  V30 2420 N 222.872 -2.2021 1.8962 0
M  V30 2421 H 222.419 -1.35719 2.18948 0
M  V30 2422 H 222.377 -2.85266 1.32176 0
M  V30 2423 N 226.149 -1.5696 0.141893 0
M  V30 2424 C 227.374 -2.00754 -0.520838 0
M  V30 2425 C 227.799 -1.0213 -1.57959 0
M  V30 2426 O 227.157 0.00371324 -1.813 0
M  V30 2427 C 227.205 -3.43318 -1.10294 0
M  V30 2428 O 226.309 -3.47679 -2.21795 0
M  V30 2429 H 225.65 -0.651564 -0.127908 0
M  V30 2430 H 228.18 -2.03221 0.23712 0
M  V30 2431 H 228.19 -3.82012 -1.43287 0
M  V30 2432 H 226.865 -4.14608 -0.327574 0
M  V30 2433 H 225.442 -3.20824 -1.9007 0
M  V30 2434 N 227.627 0.131896 -1.57047 0
M  V30 2435 C 228.574 1.16236 -1.99393 0
M  V30 2436 C 229.544 1.41863 -0.863943 0
M  V30 2437 O 230.729 1.53946 -1.12718 0
M  V30 2438 C 227.869 2.48708 -2.39245 0
M  V30 2439 C 226.982 2.30127 -3.65603 0
M  V30 2440 C 226.117 3.55738 -3.94492 0
M  V30 2441 C 225.156 3.32259 -5.14073 0
M  V30 2442 N 224.293 4.50039 -5.38896 0
M  V30 2443 H 229.133 0.794251 -2.87221 0
M  V30 2444 H 226.67 0.380707 -1.42088 0
M  V30 2445 H 228.628 3.25969 -2.60384 0
M  V30 2446 H 227.258 2.83437 -1.54478 0
M  V30 2447 H 226.31 1.43845 -3.52154 0
M  V30 2448 H 227.622 2.08746 -4.5302 0
M  V30 2449 H 226.776 4.41423 -4.1621 0
M  V30 2450 H 225.515 3.80138 -3.05526 0
M  V30 2451 H 224.52 2.44963 -4.92212 0
M  V30 2452 H 225.745 3.09242 -6.04604 0
M  V30 2453 H 223.691 4.74584 -4.52886 0
M  V30 2454 H 223.608 4.31716 -6.2061 0
M  V30 2455 H 224.876 5.36895 -5.65123 0
M  V30 2456 N 229.106 1.52395 0.401703 0
M  V30 2457 C 230.517 1.58899 0.980202 0
M  V30 2458 C 230.868 0.434032 1.91339 0
M  V30 2459 O 229.993 -0.444619 2.11783 0
M  V30 2460 C 230.588 2.87994 1.78451 0
M  V30 2461 C 229.147 2.96953 2.31292 0
M  V30 2462 C 228.294 2.53903 1.11483 0
M  V30 2463 H 231.245 1.57657 0.18168 0
M  V30 2464 H 231.266 2.73765 2.64259 0
M  V30 2465 H 230.778 3.72035 1.10506 0
M  V30 2466 H 228.879 2.17422 3.02586 0
M  V30 2467 H 228.992 4.01344 2.61649 0
M  V30 2468 H 227.356 2.07925 1.47104 0
M  V30 2469 H 228.139 3.40326 0.450928 0
M  V30 2470 N 230.584 -0.659388 1.43143 0
M  V30 2471 C 231.83 -1.42145 1.44647 0
M  V30 2472 C 232.163 -1.9408 0.0681907 0
M  V30 2473 O 231.438 -1.71899 -0.910007 0
M  V30 2474 C 231.721 -2.60735 2.48373 0
M  V30 2475 C 231.574 -2.14332 3.95451 0
M  V30 2476 C 232.893 -3.62951 2.48906 0
M  V30 2477 H 230.012 -0.51552 0.526696 0
M  V30 2478 H 232.654 -0.748069 1.74654 0
M  V30 2479 H 230.804 -3.18184 2.22916 0
M  V30 2480 H 232.476 -1.61932 4.31944 0
M  V30 2481 H 230.719 -1.4576 4.08578 0
M  V30 2482 H 231.39 -2.99583 4.63631 0
M  V30 2483 H 233.866 -3.1525 2.71582 0
M  V30 2484 H 232.742 -4.43487 3.23435 0
M  V30 2485 H 233.003 -4.15126 1.52061 0
M  V30 2486 N 232.062 -1.29571 -0.897171 0
M  V30 2487 C 232.972 -1.16808 -2.03453 0
M  V30 2488 C 233.988 -0.0907471 -1.73763 0
M  V30 2489 O 235.164 -0.303312 -1.99103 0
M  V30 2490 C 232.229 -0.848264 -3.36163 0
M  V30 2491 C 231.29 -2.0097 -3.79354 0
M  V30 2492 C 230.523 -1.70505 -5.05731 0
M  V30 2493 O 230.746 -0.62718 -5.66941 0
M  V30 2494 O 229.68 -2.5538 -5.45036 0
M  V30 2495 H 233.506 -2.12325 -2.17144 0
M  V30 2496 H 231.091 -1.09047 -1.02123 0
M  V30 2497 H 232.973 -0.684581 -4.15802 0
M  V30 2498 H 231.648 0.0771071 -3.23608 0
M  V30 2499 H 230.555 -2.22863 -3.00471 0
M  V30 2500 H 231.888 -2.91636 -3.96496 0
M  V30 2501 N 233.54 1.10788 -1.12088 0
M  V30 2502 C 234.817 1.79136 -0.785476 0
M  V30 2503 C 235.197 1.98246 0.725377 0
M  V30 2504 O 234.545 1.57258 1.65778 0
M  V30 2505 C 234.755 3.12375 -1.55636 0
M  V30 2506 C 236.103 3.8731 -1.74001 0
M  V30 2507 O 237.127 3.22085 -1.52117 0
M  V30 2508 O 235.986 5.04369 -2.10415 0
M  V30 2509 H 233.08 0.776226 -0.285311 0
M  V30 2510 H 235.626 1.1747 -1.2247 0
M  V30 2511 H 234.398 2.93863 -2.5838 0
M  V30 2512 H 234.021 3.81758 -1.11114 0
M  V30 2513 N 235.018 0.912232 1.28515 0
M  V30 2514 C 235.965 0.397954 2.27343 0
M  V30 2515 C 236.935 -0.526766 1.57526 0
M  V30 2516 O 238.12 -0.449292 1.85435 0
M  V30 2517 C 235.26 -0.357263 3.43246 0
M  V30 2518 C 234.373 0.599788 4.27816 0
M  V30 2519 C 233.508 -0.173725 5.30916 0
M  V30 2520 C 232.547 0.777039 6.07148 0
M  V30 2521 N 231.684 0.0371398 7.0209 0
M  V30 2522 H 236.524 1.24577 2.70711 0
M  V30 2523 H 234.061 0.625612 1.33133 0
M  V30 2524 H 236.019 -0.8113 4.09236 0
M  V30 2525 H 234.649 -1.16943 3.00872 0
M  V30 2526 H 233.701 1.17235 3.61884 0
M  V30 2527 H 235.013 1.32704 4.80823 0
M  V30 2528 H 234.167 -0.688394 6.02782 0
M  V30 2529 H 232.906 -0.934041 4.78672 0
M  V30 2530 H 231.911 1.3031 5.34134 0
M  V30 2531 H 233.136 1.53689 6.61481 0
M  V30 2532 H 231.082 -0.705213 6.52198 0
M  V30 2533 H 230.999 0.704249 7.52713 0
M  V30 2534 H 232.267 -0.457383 7.78157 0
M  V30 2535 N 236.496 -1.42363 0.676048 0
M  V30 2536 C 237.773 -1.95183 0.127726 0
M  V30 2537 C 238.153 -1.61641 -1.35777 0
M  V30 2538 O 237.501 -0.913216 -2.09458 0
M  V30 2539 C 237.711 -3.46721 0.398199 0
M  V30 2540 C 239.059 -4.23427 0.315383 0
M  V30 2541 O 240.083 -3.54649 0.332016 0
M  V30 2542 O 238.942 -5.45888 0.25865 0
M  V30 2543 H 236.036 -0.826992 0.00359427 0
M  V30 2544 H 238.582 -1.52184 0.750864 0
M  V30 2545 H 237.354 -3.64344 1.4272 0
M  V30 2546 H 236.977 -3.96769 -0.256885 0
M  V30 2547 N 237.974 -0.419461 -1.51915 0
M  V30 2548 C 238.937 0.389116 -2.25873 0
M  V30 2549 C 239.937 0.964924 -1.28631 0
M  V30 2550 O 241.127 0.842179 -1.52489 0
M  V30 2551 C 238.259 1.54874 -3.03689 0
M  V30 2552 H 239.452 -0.258799 -2.98781 0
M  V30 2553 H 237.005 -0.172209 -1.55348 0
M  V30 2554 H 237.74 2.23323 -2.35154 0
M  V30 2555 H 237.525 1.14223 -3.75094 0
M  V30 2556 H 239.015 2.12046 -3.59759 0
M  V30 2557 N 239.452 1.56882 -0.150215 0
M  V30 2558 C 240.698 1.96518 0.500834 0
M  V30 2559 C 241.031 1.03527 1.64304 0
M  V30 2560 O 240.306 0.0782751 1.94342 0
M  V30 2561 C 240.589 3.45822 1.00395 0
M  V30 2562 C 240.442 4.49591 -0.136983 0
M  V30 2563 C 241.761 3.97704 1.88467 0
M  V30 2564 H 238.88 0.714535 0.18058 0
M  V30 2565 H 241.522 1.88577 -0.232091 0
M  V30 2566 H 239.672 3.5272 1.62851 0
M  V30 2567 H 241.344 4.5477 -0.77343 0
M  V30 2568 H 239.587 4.26441 -0.795652 0
M  V30 2569 H 240.258 5.51402 0.256815 0
M  V30 2570 H 242.734 3.93304 1.35834 0
M  V30 2571 H 241.61 5.0263 2.20578 0
M  V30 2572 H 241.871 3.40252 2.82279 0
M  V30 2573 N 240.93 -0.123565 1.57115 0
M  V30 2574 C 241.893 -1.13583 1.99076 0
M  V30 2575 C 242.893 -1.34564 0.880296 0
M  V30 2576 O 244.083 -1.31158 1.14644 0
M  V30 2577 C 241.215 -2.49128 2.32698 0
M  V30 2578 H 242.408 -0.775287 2.89706 0
M  V30 2579 H 239.961 -0.36771 1.51913 0
M  V30 2580 H 240.696 -2.90111 1.44934 0
M  V30 2581 H 240.481 -2.35255 3.13684 0
M  V30 2582 H 241.971 -3.2199 2.65918 0
M  V30 2583 N 242.408 -1.52605 -0.393616 0
M  V30 2584 C 243.655 -1.67424 -1.1391 0
M  V30 2585 C 243.983 -0.411859 -1.90089 0
M  V30 2586 O 243.238 0.605626 -1.86093 0
M  V30 2587 C 243.537 -2.85721 -2.14705 0
M  V30 2588 C 243.203 -4.23342 -1.55218 0
M  V30 2589 C 241.865 -4.60771 -1.3872 0
M  V30 2590 C 244.217 -5.09041 -1.11924 0
M  V30 2591 C 241.545 -5.81563 -0.774689 0
M  V30 2592 C 243.897 -6.30452 -0.520853 0
M  V30 2593 C 242.561 -6.66617 -0.343134 0
M  V30 2594 H 241.831 -0.612648 -0.416826 0
M  V30 2595 H 244.478 -1.8674 -0.424315 0
M  V30 2596 H 242.783 -2.60803 -2.92385 0
M  V30 2597 H 244.48 -2.94382 -2.72288 0
M  V30 2598 H 241.07 -3.93855 -1.69045 0
M  V30 2599 H 245.254 -4.80695 -1.23473 0
M  V30 2600 H 240.51 -6.08196 -0.625154 0
M  V30 2601 H 244.684 -6.96175 -0.177065 0
M  V30 2602 H 242.311 -7.60083 0.133571 0
M  V30 2603 N 243.887 0.651787 -1.4349 0
M  V30 2604 C 245.115 1.43937 -1.48626 0
M  V30 2605 C 245.53 1.8851 -0.104587 0
M  V30 2606 O 244.887 1.5958 0.885464 0
M  V30 2607 C 244.938 2.6734 -2.43334 0
M  V30 2608 O 244.659 2.24631 -3.76128 0
M  V30 2609 C 246.16 3.60683 -2.57726 0
M  V30 2610 H 243.38 0.44213 -0.504739 0
M  V30 2611 H 245.924 0.798944 -1.88248 0
M  V30 2612 H 244.079 3.2752 -2.06904 0
M  V30 2613 H 244.493 3.04485 -4.2707 0
M  V30 2614 H 245.967 4.43933 -3.28067 0
M  V30 2615 H 246.444 4.08126 -1.62265 0
M  V30 2616 H 247.05 3.06384 -2.94973 0
M  V30 2617 N 245.365 1.30045 0.890287 0
M  V30 2618 C 246.605 1.19839 1.65584 0
M  V30 2619 C 246.969 -0.244175 1.90441 0
M  V30 2620 O 248.17 -0.469378 2.6467 0
M  V30 2621 C 246.441 1.99876 2.96284 0
M  V30 2622 S 248 2.06309 3.87275 0
M  V30 2623 H 244.818 0.427157 0.568382 0
M  V30 2624 H 247.42 1.64453 1.05715 0
M  V30 2625 H 246.124 3.03809 2.75913 0
M  V30 2626 H 245.655 1.55903 3.61189 0
M  V30 2627 H 247.67 1.18661 4.81803 0
M  V30 2628 N 246.843 -1.10192 1.12674 0
M  V30 2629 C 247.753 -2.20172 0.810026 0
M  V30 2630 C 248.769 -1.72821 -0.202188 0
M  V30 2631 O 249.945 -2.01369 -0.0351691 0
M  V30 2632 C 247.01 -3.45631 0.272007 0
M  V30 2633 C 246.071 -4.07704 1.34447 0
M  V30 2634 C 245.304 -5.27175 0.832029 0
M  V30 2635 O 245.527 -5.69425 -0.333284 0
M  V30 2636 O 244.461 -5.80168 1.60277 0
M  V30 2637 H 248.287 -2.49701 1.72867 0
M  V30 2638 H 245.872 -1.18977 0.903597 0
M  V30 2639 H 247.754 -4.21394 -0.0230219 0
M  V30 2640 H 246.429 -3.17723 -0.619164 0
M  V30 2641 H 245.336 -3.33614 1.6927 0
M  V30 2642 H 246.669 -4.3982 2.2095 0
M  V30 2643 N 248.321 -0.919034 -1.28029 0
M  V30 2644 C 249.732 -0.600735 -1.76771 0
M  V30 2645 C 250.083 0.884024 -1.75156 0
M  V30 2646 O 249.208 1.69163 -1.34956 0
M  V30 2647 C 249.803 -1.08372 -3.21 0
M  V30 2648 C 248.362 -0.816248 -3.67443 0
M  V30 2649 C 247.509 -1.24742 -2.47658 0
M  V30 2650 H 250.46 -1.09974 -1.14418 0
M  V30 2651 H 250.481 -0.427512 -3.78091 0
M  V30 2652 H 249.993 -2.16437 -3.22144 0
M  V30 2653 H 248.094 0.250968 -3.71754 0
M  V30 2654 H 248.207 -1.4277 -4.57333 0
M  V30 2655 H 246.571 -0.666083 -2.45836 0
M  V30 2656 H 247.354 -2.33653 -2.51518 0
M  V30 2657 N 249.799 1.42003 -0.683588 0
M  V30 2658 C 250.709 2.34597 -0.0109075 0
M  V30 2659 C 251.725 1.55576 0.779245 0
M  V30 2660 O 252.901 1.88107 0.719555 0
M  V30 2661 C 249.966 3.34199 0.922588 0
M  V30 2662 C 249.027 4.29115 0.125984 0
M  V30 2663 C 248.26 5.23959 1.01502 0
M  V30 2664 O 248.483 5.23952 2.25456 0
M  V30 2665 O 247.417 6.00053 0.47111 0
M  V30 2666 H 251.243 2.93675 -0.773853 0
M  V30 2667 H 248.828 1.42654 -0.443861 0
M  V30 2668 H 250.71 3.95365 1.45823 0
M  V30 2669 H 249.385 2.77582 1.66523 0
M  V30 2670 H 248.292 3.71335 -0.453969 0
M  V30 2671 H 249.625 4.88798 -0.577736 0
M  V30 2672 N 251.277 0.427512 1.51691 0
M  V30 2673 C 252.505 -0.141191 2.06418 0
M  V30 2674 C 252.92 -1.37303 1.29589 0
M  V30 2675 O 252.277 -1.79059 0.352732 0
M  V30 2676 C 252.328 -0.473266 3.58389 0
M  V30 2677 O 252.049 0.709673 4.32314 0
M  V30 2678 C 253.55 -1.09371 4.29596 0
M  V30 2679 H 250.77 -0.0122747 0.670888 0
M  V30 2680 H 253.314 0.603764 1.95384 0
M  V30 2681 H 251.469 -1.16812 3.69369 0
M  V30 2682 H 251.883 0.42807 5.2275 0
M  V30 2683 H 253.357 -1.27613 5.37046 0
M  V30 2684 H 253.834 -2.072 3.87253 0
M  V30 2685 H 254.44 -0.43853 4.23033 0
M  V30 2686 N 252.755 -1.56801 0.158532 0
M  V30 2687 C 253.687 -2.14488 -0.807923 0
M  V30 2688 C 254.7 -1.09721 -1.20271 0
M  V30 2689 O 255.889 -1.36956 -1.14478 0
M  V30 2690 C 252.989 -2.66217 -2.09718 0
M  V30 2691 C 252.162 -3.95507 -1.86796 0
M  V30 2692 C 251.221 -4.3243 -2.99818 0
M  V30 2693 O 250.247 -5.00543 -2.71008 0
M  V30 2694 N 251.449 -3.92947 -4.27285 0
M  V30 2695 H 254.214 -2.98042 -0.314816 0
M  V30 2696 H 251.775 -1.61881 -0.0246692 0
M  V30 2697 H 253.767 -2.87924 -2.84398 0
M  V30 2698 H 252.337 -1.87324 -2.50257 0
M  V30 2699 H 251.557 -3.82309 -0.96089 0
M  V30 2700 H 252.845 -4.79972 -1.68833 0
M  V30 2701 H 252.243 -3.38087 -4.53557 0
M  V30 2702 H 250.8 -4.19681 -4.9871 0
M  V30 2703 N 254.233 0.115231 -1.57178 0
M  V30 2704 C 255.51 0.852873 -1.76027 0
M  V30 2705 C 255.89 1.97892 -0.73498 0
M  V30 2706 O 255.238 2.27232 0.24036 0
M  V30 2707 C 255.448 1.36608 -3.21153 0
M  V30 2708 C 256.796 1.81692 -3.83762 0
M  V30 2709 O 257.82 1.46278 -3.24779 0
M  V30 2710 O 256.679 2.47104 -4.87444 0
M  V30 2711 H 253.773 0.405296 -0.720877 0
M  V30 2712 H 256.319 0.0986785 -1.69413 0
M  V30 2713 H 255.091 0.558357 -3.87296 0
M  V30 2714 H 254.714 2.18287 -3.3232 0
M  V30 2715 N 255.711 1.52812 0.385517 0
M  V30 2716 C 256.674 1.77188 1.45386 0
M  V30 2717 C 257.674 0.641953 1.4743 0
M  V30 2718 O 258.864 0.910033 1.4854 0
M  V30 2719 C 255.996 1.87582 2.8465 0
M  V30 2720 H 257.189 2.72583 1.25054 0
M  V30 2721 H 254.742 1.43586 0.617467 0
M  V30 2722 H 255.477 0.941849 3.10322 0
M  V30 2723 H 255.262 2.69748 2.84567 0
M  V30 2724 H 256.752 2.08102 3.62054 0
M  V30 2725 N 257.189 -0.644168 1.43834 0
M  V30 2726 C 258.417 -1.43147 1.49387 0
M  V30 2727 C 258.832 -1.88452 0.114583 0
M  V30 2728 O 258.189 -1.60047 -0.876989 0
M  V30 2729 C 258.24 -2.66046 2.44748 0
M  V30 2730 O 257.961 -2.22633 3.77314 0
M  V30 2731 C 259.462 -3.59311 2.59635 0
M  V30 2732 H 256.682 -0.439447 0.507077 0
M  V30 2733 H 259.226 -0.78895 1.88669 0
M  V30 2734 H 257.381 -3.26418 2.08638 0
M  V30 2735 H 257.795 -3.02216 4.28679 0
M  V30 2736 H 259.269 -4.42187 3.30416 0
M  V30 2737 H 259.746 -4.07259 1.64427 0
M  V30 2738 H 260.352 -3.04816 2.96593 0
M  V30 2739 N 258.668 -1.30515 -0.883378 0
M  V30 2740 C 259.898 -1.22182 -1.66599 0
M  V30 2741 C 260.306 0.217507 -1.87946 0
M  V30 2742 O 259.649 1.1554 -1.42815 0
M  V30 2743 C 259.711 -1.88146 -3.06335 0
M  V30 2744 C 259.375 -3.37476 -3.08154 0
M  V30 2745 C 260.372 -4.33443 -2.87094 0
M  V30 2746 C 258.057 -3.7895 -3.29701 0
M  V30 2747 C 260.051 -5.68858 -2.8754 0
M  V30 2748 C 257.738 -5.14482 -3.29776 0
M  V30 2749 C 258.736 -6.09246 -3.0872 0
M  V30 2750 O 258.424 -7.42302 -3.08615 0
M  V30 2751 H 258.156 -0.423898 -0.52658 0
M  V30 2752 H 260.71 -1.72703 -1.11188 0
M  V30 2753 H 258.94 -1.32157 -3.63416 0
M  V30 2754 H 260.629 -1.7391 -3.66756 0
M  V30 2755 H 261.395 -4.02733 -2.70243 0
M  V30 2756 H 257.274 -3.05631 -3.45124 0
M  V30 2757 H 260.818 -6.428 -2.71024 0
M  V30 2758 H 256.715 -5.44832 -3.46163 0
M  V30 2759 H 257.483 -7.5131 -3.24769 0
M  V30 2760 N 260.146 1.09593 -1.13257 0
M  V30 2761 C 261.076 2.18214 -0.830946 0
M  V30 2762 C 262.057 1.68812 0.208966 0
M  V30 2763 O 263.242 1.9408 0.0682666 0
M  V30 2764 C 260.372 3.46051 -0.294296 0
M  V30 2765 C 259.326 4.08778 -1.26826 0
M  V30 2766 C 258.652 5.31419 -0.591449 0
M  V30 2767 C 259.952 4.51476 -2.62615 0
M  V30 2768 H 261.646 2.43703 -1.73923 0
M  V30 2769 H 259.192 1.17128 -0.837675 0
M  V30 2770 H 261.145 4.2134 -0.0709606 0
M  V30 2771 H 259.869 3.20079 0.649366 0
M  V30 2772 H 258.528 3.35505 -1.47756 0
M  V30 2773 H 258.176 5.01727 0.357633 0
M  V30 2774 H 257.876 5.74341 -1.24123 0
M  V30 2775 H 259.4 6.09433 -0.377355 0
M  V30 2776 H 260.814 5.17999 -2.45663 0
M  V30 2777 H 259.211 5.05277 -3.23752 0
M  V30 2778 H 260.281 3.63962 -3.20406 0
M  V30 2779 N 261.624 0.925811 1.2754 0
M  V30 2780 C 262.87 0.575575 1.95086 0
M  V30 2781 C 263.225 -0.873246 1.71441 0
M  V30 2782 O 262.518 -1.61443 1.03183 0
M  V30 2783 C 262.712 0.835296 3.47502 0
M  V30 2784 C 262.541 2.30781 3.85967 0
M  V30 2785 C 261.311 2.96017 4.09514 0
M  V30 2786 C 263.509 3.28519 3.95702 0
M  V30 2787 N 261.491 4.3344 4.34744 0
M  V30 2788 C 262.862 4.51146 4.25285 0
M  V30 2789 C 264.917 3.23753 3.7827 0
M  V30 2790 C 263.62 5.69606 4.39251 0
M  V30 2791 C 265.646 4.41523 3.9346 0
M  V30 2792 C 265.008 5.62928 4.23428 0
M  V30 2793 H 261.107 0.260711 0.737261 0
M  V30 2794 H 263.691 1.19204 1.53943 0
M  V30 2795 H 261.862 0.248005 3.87607 0
M  V30 2796 H 263.594 0.447878 4.02214 0
M  V30 2797 H 260.349 2.46695 4.04275 0
M  V30 2798 H 260.773 5.04528 4.5142 0
M  V30 2799 H 265.415 2.3096 3.54143 0
M  V30 2800 H 263.133 6.62866 4.62205 0
M  V30 2801 H 266.719 4.39351 3.81394 0
M  V30 2802 H 265.599 6.52538 4.34929 0
M  V30 2803 N 263.102 -1.41638 0.69111 0
M  V30 2804 C 264.348 -2.02104 0.229258 0
M  V30 2805 C 264.703 -1.53741 -1.15678 0
M  V30 2806 O 263.996 -0.736849 -1.76865 0
M  V30 2807 C 264.19 -3.56714 0.221277 0
M  V30 2808 C 264.019 -4.20083 1.605 0
M  V30 2809 C 262.789 -4.54566 2.20676 0
M  V30 2810 C 264.987 -4.46587 2.55078 0
M  V30 2811 N 262.969 -5.03199 3.5166 0
M  V30 2812 C 264.34 -4.96946 3.70735 0
M  V30 2813 C 266.395 -4.28593 2.53401 0
M  V30 2814 C 265.098 -5.31203 4.8499 0
M  V30 2815 C 267.124 -4.63936 3.66765 0
M  V30 2816 C 266.486 -5.14463 4.81152 0
M  V30 2817 H 262.585 -0.771256 0.12918 0
M  V30 2818 H 265.169 -1.72251 0.907626 0
M  V30 2819 H 263.34 -3.86051 -0.426562 0
M  V30 2820 H 265.072 -4.03896 -0.254983 0
M  V30 2821 H 261.827 -4.4087 1.73005 0
M  V30 2822 H 262.251 -5.31926 4.18789 0
M  V30 2823 H 266.893 -3.88771 1.66184 0
M  V30 2824 H 264.611 -5.69951 5.72871 0
M  V30 2825 H 268.197 -4.51677 3.66714 0
M  V30 2826 H 267.077 -5.41299 5.67419 0
M  V30 2827 N 264.58 -0.43555 -1.51462 0
M  V30 2828 C 265.826 0.131709 -2.02372 0
M  V30 2829 C 266.159 1.42516 -1.3192 0
M  V30 2830 O 265.434 1.89606 -0.433573 0
M  V30 2831 C 265.717 0.352301 -3.58373 0
M  V30 2832 C 265.57 -0.959676 -4.39443 0
M  V30 2833 C 266.889 1.12286 -4.25535 0
M  V30 2834 H 264.008 0.0463936 -0.735538 0
M  V30 2835 H 266.65 -0.574197 -1.81116 0
M  V30 2836 H 264.8 0.9536 -3.76615 0
M  V30 2837 H 266.472 -1.59482 -4.32855 0
M  V30 2838 H 264.715 -1.56468 -4.04599 0
M  V30 2839 H 265.386 -0.759394 -5.46752 0
M  V30 2840 H 267.862 0.613545 -4.11552 0
M  V30 2841 H 266.738 1.24598 -5.34571 0
M  V30 2842 H 266.999 2.15048 -3.86273 0
M  V30 2843 N 266.058 1.56714 -0.166846 0
M  V30 2844 C 267.006 2.19056 0.782123 0
M  V30 2845 C 268 1.15328 1.24079 0
M  V30 2846 O 269.206 1.33537 1.20697 0
M  V30 2847 H 265.581 0.70167 0.270486 0
M  V30 2848 H 267.552 2.97494 0.232322 0
M  V30 2849 C 266.301 2.84206 2.00306 0
M  V30 2850 H 265.624 3.63748 1.65914 0
M  V30 2851 H 267.064 3.31302 2.64604 0
M  V30 2852 C 265.523 1.83744 2.82382 0
M  V30 2853 O 266.053 1.32014 3.79388 0
M  V30 2854 N 264.259 1.52601 2.47308 0
M  V30 2855 H 263.806 1.9486 1.68485 0
M  V30 2856 H 263.764 0.856351 3.02513 0
M  V30 2857 N 267.536 -0.106894 1.57237 0
M  V30 2858 C 268.484 -1.14944 2.02215 0
M  V30 2859 C 269.478 -1.42167 0.92114 0
M  V30 2860 O 270.684 -1.41987 1.10634 0
M  V30 2861 H 267.059 -0.387841 0.64427 0
M  V30 2862 H 269.03 -0.743683 2.88984 0
M  V30 2863 C 267.779 -2.4647 2.4525 0
M  V30 2864 H 267.102 -2.26363 3.29545 0
M  V30 2865 H 268.542 -3.17948 2.80508 0
M  V30 2866 C 267.001 -3.09921 1.321 0
M  V30 2867 O 267.531 -3.9651 0.643622 0
M  V30 2868 N 265.737 -2.69986 1.07497 0
M  V30 2869 H 265.284 -1.99667 1.62761 0
M  V30 2870 H 265.242 -3.12769 0.319876 0
M  V30 2871 N 269.014 -1.53014 -0.377408 0
M  V30 2872 C 269.946 -1.74884 -1.48149 0
M  V30 2873 C 270.959 -0.629433 -1.5014 0
M  V30 2874 O 272.148 -0.905416 -1.53833 0
M  V30 2875 C 269.248 -1.80299 -2.86959 0
M  V30 2876 C 268.421 -3.09776 -3.08801 0
M  V30 2877 C 267.48 -3.06586 -4.27658 0
M  V30 2878 O 266.506 -3.80419 -4.23403 0
M  V30 2879 N 267.708 -2.26578 -5.34455 0
M  V30 2880 H 270.473 -2.70147 -1.29771 0
M  V30 2881 H 268.034 -1.51646 -0.56703 0
M  V30 2882 H 270.026 -1.75657 -3.64591 0
M  V30 2883 H 268.596 -0.92372 -2.98641 0
M  V30 2884 H 267.816 -3.27815 -2.18931 0
M  V30 2885 H 269.104 -3.95366 -3.20255 0
M  V30 2886 H 268.502 -1.66081 -5.40771 0
M  V30 2887 H 267.059 -2.27766 -6.10709 0
M  V30 2888 N 270.492 0.636531 -1.44174 0
M  V30 2889 C 271.717 1.42847 -1.50364 0
M  V30 2890 C 272.142 1.87665 -0.127867 0
M  V30 2891 O 271.5 1.58408 0.88185 0
M  V30 2892 C 271.548 2.62854 -2.4686 0
M  V30 2893 O 270.652 3.62501 -1.9664 0
M  V30 2894 H 269.993 0.427642 -0.507955 0
M  V30 2895 H 272.523 0.777422 -1.89255 0
M  V30 2896 H 272.533 3.10465 -2.64718 0
M  V30 2897 H 271.208 2.29578 -3.46795 0
M  V30 2898 H 269.785 3.21735 -1.88523 0
M  V30 2899 N 271.97 1.30982 0.876444 0
M  V30 2900 C 272.9 1.20668 1.99903 0
M  V30 2901 C 273.881 0.095354 1.69833 0
M  V30 2902 O 275.066 0.27885 1.92188 0
M  V30 2903 C 272.196 0.90655 3.3526 0
M  V30 2904 C 271.15 1.97675 3.79617 0
M  V30 2905 C 270.476 1.52943 5.1236 0
M  V30 2906 C 271.776 3.389 3.97422 0
M  V30 2907 H 273.47 2.14586 2.0879 0
M  V30 2908 H 271.016 1.03308 1.00317 0
M  V30 2909 H 272.969 0.821025 4.13324 0
M  V30 2910 H 271.693 -0.0682969 3.26529 0
M  V30 2911 H 270.352 2.05205 3.03787 0
M  V30 2912 H 270 0.54262 5.00065 0
M  V30 2913 H 269.7 2.24532 5.43009 0
M  V30 2914 H 271.224 1.45786 5.92941 0
M  V30 2915 H 272.638 3.34081 4.659 0
M  V30 2916 H 271.035 4.0865 4.3946 0
M  V30 2917 H 272.105 3.80163 3.01006 0
M  V30 2918 N 273.449 -1.08991 1.13837 0
M  V30 2919 C 274.86 -1.62746 0.914917 0
M  V30 2920 C 275.211 -1.88403 -0.547594 0
M  V30 2921 O 274.336 -1.63706 -1.41525 0
M  V30 2922 C 274.931 -2.95662 1.65437 0
M  V30 2923 C 273.49 -3.46225 1.47666 0
M  V30 2924 C 272.637 -2.20562 1.6807 0
M  V30 2925 H 275.588 -0.922946 1.29102 0
M  V30 2926 H 275.609 -3.63825 1.11407 0
M  V30 2927 H 275.121 -2.76956 2.71877 0
M  V30 2928 H 273.222 -3.70046 0.435478 0
M  V30 2929 H 273.335 -4.23368 2.24268 0
M  V30 2930 H 271.699 -2.29439 1.10589 0
M  V30 2931 H 272.482 -2.0437 2.7584 0
M  V30 2932 N 274.927 -0.932562 -1.27047 0
M  V30 2933 C 276.173 -0.576412 -1.94436 0
M  V30 2934 C 276.506 0.880891 -1.73072 0
M  V30 2935 O 275.781 1.62905 -1.06264 0
M  V30 2936 C 276.064 -0.909031 -3.48437 0
M  V30 2937 C 275.917 -2.42044 -3.79123 0
M  V30 2938 C 277.236 -0.418341 -4.38107 0
M  V30 2939 H 274.355 -0.210888 -0.706184 0
M  V30 2940 H 276.997 -1.16522 -1.50075 0
M  V30 2941 H 275.147 -0.407947 -3.86352 0
M  V30 2942 H 276.819 -2.99359 -3.50973 0
M  V30 2943 H 275.062 -2.86758 -3.25503 0
M  V30 2944 H 275.733 -2.6037 -4.86736 0
M  V30 2945 H 278.209 -0.847856 -4.0737 0
M  V30 2946 H 277.085 -0.679981 -5.44672 0
M  V30 2947 H 277.346 0.681642 -4.36814 0
M  V30 2948 N 276.405 1.4127 -0.698611 0
M  V30 2949 C 277.63 2.06024 -0.238512 0
M  V30 2950 C 278.055 1.5224 1.10475 0
M  V30 2951 O 277.413 0.650623 1.69223 0
M  V30 2952 C 277.461 3.59988 -0.209952 0
M  V30 2953 O 276.565 4.04282 0.814235 0
M  V30 2954 H 275.906 0.653829 -0.115775 0
M  V30 2955 H 278.436 1.8098 -0.954326 0
M  V30 2956 H 278.446 4.07979 -0.0418436 0
M  V30 2957 H 277.121 3.98503 -1.1903 0
M  V30 2958 H 275.698 3.6779 0.615234 0
M  V30 2959 N 277.883 0.443576 1.51229 0
M  V30 2960 C 279.294 -0.0180867 1.86691 0
M  V30 2961 C 279.645 -1.41384 1.36033 0
M  V30 2962 O 278.77 -2.04291 0.713722 0
M  V30 2963 C 279.365 -0.039597 3.38777 0
M  V30 2964 C 277.924 -0.445692 3.73752 0
M  V30 2965 C 277.071 0.357584 2.74985 0
M  V30 2966 H 280.022 0.659138 1.44364 0
M  V30 2967 H 280.043 -0.847761 3.70936 0
M  V30 2968 H 279.555 0.976382 3.75617 0
M  V30 2969 H 277.656 -1.46704 3.42503 0
M  V30 2970 H 277.769 -0.166155 4.78812 0
M  V30 2971 H 276.133 -0.184973 2.54027 0
M  V30 2972 H 276.916 1.37256 3.14668 0
M  V30 2973 N 279.361 -1.56624 0.175154 0
M  V30 2974 C 280.777 -1.58571 -0.180966 0
M  V30 2975 C 280.977 -1.19065 -1.6256 0
M  V30 2976 O 280.033 -0.904044 -2.35761 0
M  V30 2977 C 281.346 -3.00522 0.103326 0
M  V30 2978 C 282.894 -3.12972 0.0418426 0
M  V30 2979 C 283.369 -4.57022 0.299175 0
M  V30 2980 N 284.86 -4.62541 0.247086 0
M  V30 2981 C 285.595 -5.71857 0.420318 0
M  V30 2982 N 285.091 -6.89717 0.652816 0
M  V30 2983 N 286.884 -5.60972 0.355957 0
M  V30 2984 H 279.035 -1.80589 1.11809 0
M  V30 2985 H 281.298 -0.837178 0.444788 0
M  V30 2986 H 281.004 -3.33916 1.10422 0
M  V30 2987 H 280.878 -3.72344 -0.603299 0
M  V30 2988 H 283.265 -2.79403 -0.949636 0
M  V30 2989 H 283.346 -2.43578 0.781238 0
M  V30 2990 H 282.99 -4.913 1.28788 0
M  V30 2991 H 282.92 -5.24579 -0.460876 0
M  V30 2992 H 285.411 -3.77829 0.0731895 0
M  V30 2993 H 285.724 -7.68911 0.774347 0
M  V30 2994 H 284.069 -6.91572 0.689476 0
M  V30 2995 H 287.26 -4.67773 0.174882 0
M  V30 2996 H 287.433 -6.46111 0.494388 0
M  V30 2997 N 280.839 0.0985539 -1.57292 0
M  V30 2998 C 281.769 1.12064 -2.04851 0
M  V30 2999 C 282.75 1.41981 -0.936767 0
M  V30 3000 O 283.935 1.52071 -1.20781 0
M  V30 3001 C 281.065 2.44144 -2.47004 0
M  V30 3002 C 280.019 2.28643 -3.6181 0
M  V30 3003 C 279.345 3.65869 -3.89929 0
M  V30 3004 C 280.645 1.72986 -4.92822 0
M  V30 3005 H 282.339 0.724979 -2.9049 0
M  V30 3006 H 279.885 0.34729 -1.39749 0
M  V30 3007 H 281.838 3.15914 -2.78884 0
M  V30 3008 H 280.562 2.85639 -1.5836 0
M  V30 3009 H 279.221 1.59318 -3.30172 0
M  V30 3010 H 278.869 4.04885 -2.98458 0
M  V30 3011 H 278.569 3.56344 -4.67218 0
M  V30 3012 H 280.093 4.39112 -4.2428 0
M  V30 3013 H 281.507 2.34593 -5.23105 0
M  V30 3014 H 279.904 1.74229 -5.74251 0
M  V30 3015 H 280.974 0.689007 -4.7998 0
M  V30 3016 N 282.317 1.53212 0.369288 0
M  V30 3017 C 283.249 1.75668 1.47219 0
M  V30 3018 C 284.262 0.637387 1.49804 0
M  V30 3019 O 285.451 0.913561 1.5335 0
M  V30 3020 C 282.551 1.81818 2.85999 0
M  V30 3021 C 281.724 3.11409 3.07153 0
M  V30 3022 C 280.783 3.08849 4.26026 0
M  V30 3023 O 279.809 3.82659 4.2138 0
M  V30 3024 N 281.011 2.29409 5.33246 0
M  V30 3025 H 283.776 2.70832 1.28337 0
M  V30 3026 H 281.337 1.51944 0.55898 0
M  V30 3027 H 283.329 1.77588 3.63655 0
M  V30 3028 H 281.899 0.939544 2.98146 0
M  V30 3029 H 281.119 3.28971 2.1719 0
M  V30 3030 H 282.407 3.97059 3.18154 0
M  V30 3031 H 281.805 1.68946 5.39883 0
M  V30 3032 H 280.362 2.31001 6.09493 0
M  V30 3033 N 283.795 -0.628877 1.44509 0
M  V30 3034 C 284.725 -1.75187 1.54376 0
M  V30 3035 C 285.706 -1.65411 0.396618 0
M  V30 3036 O 286.891 -1.84137 0.617031 0
M  V30 3037 C 284.021 -3.13725 1.48976 0
M  V30 3038 C 282.975 -3.38291 2.62189 0
M  V30 3039 C 282.301 -4.76883 2.41841 0
M  V30 3040 C 283.601 -3.30632 4.04326 0
M  V30 3041 H 285.295 -1.67187 2.48373 0
M  V30 3042 H 282.841 -0.802909 1.19538 0
M  V30 3043 H 284.794 -3.92064 1.54478 0
M  V30 3044 H 283.518 -3.22515 0.514961 0
M  V30 3045 H 282.177 -2.62334 2.56079 0
M  V30 3046 H 281.825 -4.82378 1.42548 0
M  V30 3047 H 281.525 -4.94278 3.17747 0
M  V30 3048 H 283.049 -5.57449 2.49165 0
M  V30 3049 H 284.463 -3.98873 4.11793 0
M  V30 3050 H 282.86 -3.59561 4.80454 0
M  V30 3051 H 283.93 -2.28404 4.27738 0
M  V30 3052 N 285.273 -1.31445 -0.869486 0
M  V30 3053 C 286.498 -1.24256 -1.66058 0
M  V30 3054 C 286.923 0.188928 -1.87149 0
M  V30 3055 O 286.281 1.13522 -1.4136 0
M  V30 3056 C 286.329 -1.9924 -3.00559 0
M  V30 3057 O 285.433 -1.33007 -3.90362 0
M  V30 3058 H 284.774 -0.428973 -0.506831 0
M  V30 3059 H 287.304 -1.73521 -1.08404 0
M  V30 3060 H 287.314 -2.08854 -3.50491 0
M  V30 3061 H 285.989 -3.03342 -2.84528 0
M  V30 3062 H 284.566 -1.31848 -3.48813 0
M  V30 3063 N 286.751 1.08385 -1.14413 0
M  V30 3064 C 287.699 2.17406 -0.826888 0
M  V30 3065 C 288.693 1.6827 0.195312 0
M  V30 3066 O 289.899 1.79927 0.0513892 0
M  V30 3067 H 286.274 0.70934 -0.249681 0
M  V30 3068 H 288.245 2.41388 -1.75426 0
M  V30 3069 C 286.994 3.46215 -0.320979 0
M  V30 3070 H 286.317 3.84401 -1.0989 0
M  V30 3071 H 287.757 4.23777 -0.137549 0
M  V30 3072 C 286.216 3.23067 0.955472 0
M  V30 3073 O 286.746 3.4668 2.02918 0
M  V30 3074 N 284.952 2.7661 0.890798 0
M  V30 3075 H 284.499 2.57594 0.0168815 0
M  V30 3076 H 284.457 2.61501 1.74542 0
M  V30 3077 N 288.23 0.939286 1.26551 0
M  V30 3078 C 289.478 0.58469 1.93457 0
M  V30 3079 C 289.799 -0.878774 1.74076 0
M  V30 3080 O 289.069 -1.62421 1.09528 0
M  V30 3081 H 287.649 0.21325 0.715914 0
M  V30 3082 H 290.311 1.1942 1.54029 0
M  V30 3083 H 289.407 0.800849 3.0165 0
M  V30 3084 N 289.708 -1.40897 0.706093 0
M  V30 3085 C 290.656 -2.32572 0.0361893 0
M  V30 3086 C 291.65 -1.51532 -0.757266 0
M  V30 3087 O 292.856 -1.67396 -0.661703 0
M  V30 3088 H 289.231 -0.751966 -0.00709935 0
M  V30 3089 H 291.202 -2.86733 0.826249 0
M  V30 3090 C 289.951 -3.36418 -0.87854 0
M  V30 3091 H 289.274 -3.98836 -0.277401 0
M  V30 3092 H 290.714 -4.0308 -1.3154 0
M  V30 3093 C 289.173 -2.71141 -1.99961 0
M  V30 3094 O 289.703 -2.56735 -3.0895 0
M  V30 3095 N 287.909 -2.29671 -1.78043 0
M  V30 3096 H 287.456 -2.41588 -0.894042 0
M  V30 3097 H 287.414 -1.86332 -2.53235 0
M  V30 3098 N 291.186 -0.45159 -1.50991 0
M  V30 3099 C 292.602 -0.104647 -1.59257 0
M  V30 3100 C 292.802 1.38728 -1.4614 0
M  V30 3101 O 291.858 2.15866 -1.30989 0
M  V30 3102 C 293.171 -0.637468 -2.93865 0
M  V30 3103 C 294.719 -0.599166 -3.07212 0
M  V30 3104 C 295.194 -1.1092 -4.44366 0
M  V30 3105 N 296.685 -1.06778 -4.50725 0
M  V30 3106 C 297.42 -1.43314 -5.55201 0
M  V30 3107 N 296.916 -1.87204 -6.67028 0
M  V30 3108 N 298.709 -1.3504 -5.45638 0
M  V30 3109 H 290.86 -1.42214 -1.57762 0
M  V30 3110 H 293.123 -0.586921 -0.744465 0
M  V30 3111 H 292.829 -1.68187 -3.08879 0
M  V30 3112 H 292.703 -0.0702139 -3.77135 0
M  V30 3113 H 295.09 0.436277 -2.91857 0
M  V30 3114 H 295.171 -1.20299 -2.25747 0
M  V30 3115 H 294.815 -2.14318 -4.60467 0
M  V30 3116 H 294.745 -0.481773 -5.24392 0
M  V30 3117 H 297.236 -0.745643 -3.70471 0
M  V30 3118 H 297.549 -2.13282 -7.42786 0
M  V30 3119 H 295.894 -1.91142 -6.68199 0
M  V30 3120 H 299.085 -1.00607 -4.57161 0
M  V30 3121 H 299.258 -1.63841 -6.26945 0
M  V30 3122 N 292.664 1.56529 -0.183458 0
M  V30 3123 C 293.892 2.01623 0.464285 0
M  V30 3124 C 294.307 1.06366 1.55986 0
M  V30 3125 O 293.664 0.0665398 1.82379 0
M  V30 3126 C 293.715 3.46475 1.03139 0
M  V30 3127 O 293.436 4.38095 -0.0204675 0
M  V30 3128 C 294.937 4.0703 1.75617 0
M  V30 3129 H 292.157 0.660596 0.117704 0
M  V30 3130 H 294.701 2.02451 -0.288751 0
M  V30 3131 H 292.856 3.46383 1.73486 0
M  V30 3132 H 293.27 5.22973 0.399952 0
M  V30 3133 H 294.744 5.10271 2.10542 0
M  V30 3134 H 295.221 3.49819 2.65563 0
M  V30 3135 H 295.827 4.1086 1.09882 0
M  V30 3136 N 294.142 -0.090211 1.57342 0
M  V30 3137 C 295.072 -1.10976 2.05443 0
M  V30 3138 C 296.053 -1.41482 0.944284 0
M  V30 3139 O 297.238 -1.51428 1.21586 0
M  V30 3140 C 294.368 -2.42831 2.48295 0
M  V30 3141 C 293.322 -2.26721 3.63018 0
M  V30 3142 C 292.648 -3.63796 3.91863 0
M  V30 3143 C 293.948 -1.7037 4.93732 0
M  V30 3144 H 295.642 -0.709564 2.9087 0
M  V30 3145 H 293.188 -0.339874 1.39932 0
M  V30 3146 H 295.141 -3.14431 2.80555 0
M  V30 3147 H 293.865 -2.84795 1.59873 0
M  V30 3148 H 292.524 -1.57565 3.31012 0
M  V30 3149 H 292.172 -4.03297 3.00601 0
M  V30 3150 H 291.872 -3.53861 4.69101 0
M  V30 3151 H 293.396 -4.36855 4.26603 0
M  V30 3152 H 294.81 -2.31816 5.24342 0
M  V30 3153 H 293.207 -1.71181 5.75167 0
M  V30 3154 H 294.277 -0.663542 4.80339 0
M  V30 3155 N 295.62 -1.53406 -0.361157 0
M  V30 3156 C 296.848 -1.73717 -1.12383 0
M  V30 3157 C 297.263 -0.468161 -1.82904 0
M  V30 3158 O 296.62 0.559198 -1.73722 0
M  V30 3159 C 296.671 -2.90558 -2.15078 0
M  V30 3160 O 296.392 -4.12549 -1.47428 0
M  V30 3161 C 297.893 -3.22777 -3.03858 0
M  V30 3162 H 295.113 -0.580896 -0.335858 0
M  V30 3163 H 297.657 -2.00167 -0.418728 0
M  V30 3164 H 295.812 -2.66489 -2.8118 0
M  V30 3165 H 296.226 -4.78009 -2.15887 0
M  V30 3166 H 297.7 -4.07927 -3.71887 0
M  V30 3167 H 298.177 -2.38329 -3.68912 0
M  V30 3168 H 298.783 -3.48787 -2.43367 0
M  V30 3169 N 297.098 0.621204 -1.44841 0
M  V30 3170 C 298.028 1.74366 -1.55303 0
M  V30 3171 C 299.009 1.65199 -0.405385 0
M  V30 3172 O 300.194 1.83807 -0.626787 0
M  V30 3173 C 297.324 3.12931 -1.50637 0
M  V30 3174 C 296.278 3.36896 -2.63979 0
M  V30 3175 C 295.604 4.75594 -2.44366 0
M  V30 3176 C 296.904 3.28483 -4.06074 0
M  V30 3177 H 298.598 1.65867 -2.49256 0
M  V30 3178 H 296.144 0.796558 -1.19962 0
M  V30 3179 H 298.097 3.9124 -1.56555 0
M  V30 3180 H 296.821 3.22237 -0.532057 0
M  V30 3181 H 295.48 2.60972 -2.57467 0
M  V30 3182 H 295.128 4.81616 -1.45105 0
M  V30 3183 H 294.828 4.92586 -3.20364 0
M  V30 3184 H 296.352 5.5612 -2.52117 0
M  V30 3185 H 297.766 3.96684 -4.13902 0
M  V30 3186 H 296.163 3.57008 -4.82354 0
M  V30 3187 H 297.233 2.26133 -4.28943 0
M  V30 3188 N 298.576 1.31904 0.862503 0
M  V30 3189 C 299.823 1.22017 1.61611 0
M  V30 3190 C 300.151 -0.21991 1.93253 0
M  V30 3191 O 299.406 -1.17076 1.56817 0
M  V30 3192 C 299.705 2.01713 2.95037 0
M  V30 3193 C 299.371 3.51145 2.82857 0
M  V30 3194 C 298.033 3.91889 2.79243 0
M  V30 3195 C 300.385 4.46204 2.69353 0
M  V30 3196 C 297.713 5.25947 2.59993 0
M  V30 3197 C 300.065 5.80397 2.5164 0
M  V30 3198 C 298.729 6.20352 2.46413 0
M  V30 3199 H 297.999 0.44649 0.591378 0
M  V30 3200 H 300.646 1.63248 1.00111 0
M  V30 3201 H 298.951 1.53185 3.60613 0
M  V30 3202 H 300.648 1.91437 3.52353 0
M  V30 3203 H 297.238 3.1878 2.86491 0
M  V30 3204 H 301.422 4.15652 2.71196 0
M  V30 3205 H 296.678 5.5597 2.54376 0
M  V30 3206 H 300.852 6.53676 2.40169 0
M  V30 3207 H 298.479 7.24172 2.31256 0
M  V30 3208 N 300.054 -1.07777 1.14986 0
M  V30 3209 C 301.002 -2.16964 0.838406 0
M  V30 3210 C 301.996 -1.68372 -0.186386 0
M  V30 3211 O 303.202 -1.79951 -0.0418465 0
M  V30 3212 H 299.577 -0.708006 0.253439 0
M  V30 3213 H 301.548 -2.40454 1.76704 0
M  V30 3214 C 300.297 -3.4604 0.339335 0
M  V30 3215 H 299.62 -3.83813 1.11927 0
M  V30 3216 H 301.06 -4.23698 0.160021 0
M  V30 3217 C 299.519 -3.23569 -0.938325 0
M  V30 3218 O 300.049 -3.47752 -2.01077 0
M  V30 3219 N 298.255 -2.77079 -0.876117 0
M  V30 3220 H 297.802 -2.576 -0.00322037 0
M  V30 3221 H 297.76 -2.62422 -1.73153 0
M  V30 3222 N 301.532 -0.945985 -1.26051 0
M  V30 3223 C 302.778 -0.597002 -1.93814 0
M  V30 3224 C 303.111 0.862484 -1.73997 0
M  V30 3225 O 302.386 1.61769 -1.07986 0
M  V30 3226 C 302.669 -0.945937 -3.47454 0
M  V30 3227 C 302.522 -2.46052 -3.76535 0
M  V30 3228 C 303.841 -0.464785 -4.37639 0
M  V30 3229 H 300.96 -0.218366 -0.703907 0
M  V30 3230 H 303.602 -1.18107 -1.48831 0
M  V30 3231 H 301.752 -0.448902 -3.85898 0
M  V30 3232 H 303.424 -3.03065 -3.47778 0
M  V30 3233 H 301.667 -2.90194 -3.22444 0
M  V30 3234 H 302.338 -2.65517 -4.83947 0
M  V30 3235 H 304.814 -0.891016 -4.06448 0
M  V30 3236 H 303.69 -0.737712 -5.4392 0
M  V30 3237 H 303.951 0.635274 -4.37512 0
M  V30 3238 N 303.011 1.40521 -0.713556 0
M  V30 3239 C 304.239 2.05237 -0.261775 0
M  V30 3240 C 304.654 1.53755 1.09567 0
M  V30 3241 O 304.011 0.693268 1.6882 0
M  V30 3242 C 304.062 3.60763 -0.230706 0
M  V30 3243 O 303.783 4.10345 -1.53455 0
M  V30 3244 C 305.284 4.42651 0.239874 0
M  V30 3245 H 302.504 0.660533 -0.118057 0
M  V30 3246 H 305.048 1.79967 -0.971192 0
M  V30 3247 H 303.203 3.8501 0.429661 0
M  V30 3248 H 303.617 5.04526 -1.43366 0
M  V30 3249 H 305.091 5.51599 0.210468 0
M  V30 3250 H 305.568 4.20082 1.28171 0
M  V30 3251 H 306.174 4.23507 -0.390142 0
M  V30 3252 N 304.489 0.459591 1.5075 0
M  V30 3253 C 305.905 0.113092 1.59199 0
M  V30 3254 C 306.105 -1.37951 1.46874 0
M  V30 3255 O 305.161 -2.15168 1.32132 0
M  V30 3256 C 306.474 0.653043 2.93523 0
M  V30 3257 C 308.022 0.615449 3.0689 0
M  V30 3258 C 308.497 1.13275 4.43771 0
M  V30 3259 N 309.988 1.09167 4.50152 0
M  V30 3260 C 310.723 1.46256 5.54434 0
M  V30 3261 N 310.219 1.90739 6.66026 0
M  V30 3262 N 312.012 1.37932 5.44914 0
M  V30 3263 H 304.163 1.43049 1.57005 0
M  V30 3264 H 306.426 0.590861 0.741341 0
M  V30 3265 H 306.132 1.69822 3.07983 0
M  V30 3266 H 306.006 0.0902132 3.77092 0
M  V30 3267 H 308.393 -0.420793 2.92084 0
M  V30 3268 H 308.474 1.21495 2.25106 0
M  V30 3269 H 308.118 2.16757 4.59324 0
M  V30 3270 H 308.048 0.509576 5.24129 0
M  V30 3271 H 310.539 0.76528 3.7007 0
M  V30 3272 H 310.852 2.17218 7.41644 0
M  V30 3273 H 309.197 1.94683 6.67176 0
M  V30 3274 H 312.388 1.0303 4.56621 0
M  V30 3275 H 312.561 1.67164 6.26067 0
M  V30 3276 N 305.967 -1.56429 0.191757 0
M  V30 3277 C 306.915 -2.20273 -0.747174 0
M  V30 3278 C 307.909 -1.17288 -1.22229 0
M  V30 3279 O 309.115 -1.35441 -1.18557 0
M  V30 3280 H 305.49 -0.705885 -0.259289 0
M  V30 3281 H 307.461 -2.97826 -0.184963 0
M  V30 3282 C 306.21 -2.87356 -1.95759 0
M  V30 3283 H 305.533 -3.66341 -1.60106 0
M  V30 3284 H 306.973 -3.3547 -2.59299 0
M  V30 3285 C 305.432 -1.88213 -2.79423 0
M  V30 3286 O 305.962 -1.38033 -3.7724 0
M  V30 3287 N 304.168 -1.56516 -2.44849 0
M  V30 3288 H 303.715 -1.97516 -1.65364 0
M  V30 3289 H 303.673 -0.904369 -3.01112 0
M  V30 3290 N 307.445 0.0818655 -1.57387 0
M  V30 3291 C 308.722 0.815343 -1.77796 0
M  V30 3292 C 309.102 1.96289 -0.77679 0
M  V30 3293 O 308.45 2.27691 0.192106 0
M  V30 3294 C 308.66 1.29765 -3.23978 0
M  V30 3295 C 310.008 1.7351 -3.8753 0
M  V30 3296 O 311.032 1.39356 -3.27808 0
M  V30 3297 O 309.891 2.36708 -4.92576 0
M  V30 3298 H 306.985 0.389914 -0.729312 0
M  V30 3299 H 309.531 0.0627213 -1.69584 0
M  V30 3300 H 308.303 0.47608 -3.88393 0
M  V30 3301 H 307.926 2.11189 -3.36875 0
M  V30 3302 N 308.923 1.53595 0.353017 0
M  V30 3303 C 310.151 1.74311 1.1146 0
M  V30 3304 C 310.566 0.477854 1.82653 0
M  V30 3305 O 309.923 -0.549977 1.74016 0
M  V30 3306 C 309.974 2.91694 2.13534 0
M  V30 3307 O 309.695 4.13325 1.45238 0
M  V30 3308 C 311.196 3.24384 3.02142 0
M  V30 3309 H 308.416 0.582669 0.332773 0
M  V30 3310 H 310.96 2.00386 0.408107 0
M  V30 3311 H 309.115 2.67977 2.79763 0
M  V30 3312 H 309.529 4.79148 2.13349 0
M  V30 3313 H 311.003 4.09893 3.69718 0
M  V30 3314 H 311.48 2.40282 3.67643 0
M  V30 3315 H 312.086 3.50073 2.41514 0
M  V30 3316 N 310.401 -0.613514 1.45168 0
M  V30 3317 C 311.364 -1.7065 1.53007 0
M  V30 3318 C 312.364 -1.5548 0.410184 0
M  V30 3319 O 313.554 -1.60656 0.673455 0
M  V30 3320 C 310.686 -3.09875 1.42093 0
M  V30 3321 H 311.879 -1.65068 2.50385 0
M  V30 3322 H 309.432 -0.828728 1.32521 0
M  V30 3323 H 310.167 -3.21039 0.458769 0
M  V30 3324 H 309.952 -3.22293 2.23315 0
M  V30 3325 H 311.442 -3.895 1.50598 0
M  V30 3326 N 311.879 -1.3236 -0.855495 0
M  V30 3327 C 313.104 -1.2601 -1.64731 0
M  V30 3328 C 313.529 0.169068 -1.87339 0
M  V30 3329 O 312.887 1.12016 -1.42556 0
M  V30 3330 C 312.935 -2.02417 -2.98429 0
M  V30 3331 O 312.039 -1.3714 -3.8893 0
M  V30 3332 H 311.38 -0.434325 -0.502253 0
M  V30 3333 H 313.91 -1.74661 -1.06558 0
M  V30 3334 H 313.92 -2.12559 -3.48257 0
M  V30 3335 H 312.595 -3.06343 -2.81295 0
M  V30 3336 H 311.172 -1.3554 -3.47395 0
M  V30 3337 N 313.357 1.07166 -1.15556 0
M  V30 3338 C 314.587 1.83248 -0.954133 0
M  V30 3339 C 314.995 1.82449 0.500911 0
M  V30 3340 O 314.338 1.23575 1.35923 0
M  V30 3341 C 314.4 3.31393 -1.39351 0
M  V30 3342 C 314.064 3.5591 -2.86666 0
M  V30 3343 C 315.061 3.49695 -3.8472 0
M  V30 3344 C 312.746 3.83515 -3.24379 0
M  V30 3345 C 314.74 3.70737 -5.18491 0
M  V30 3346 C 312.427 4.04209 -4.58321 0
M  V30 3347 C 313.425 3.97815 -5.55186 0
M  V30 3348 O 313.113 4.17954 -6.86709 0
M  V30 3349 H 312.845 0.584941 -0.338851 0
M  V30 3350 H 315.399 1.36169 -1.53777 0
M  V30 3351 H 313.629 3.79292 -0.75329 0
M  V30 3352 H 315.318 3.88945 -1.16089 0
M  V30 3353 H 316.084 3.28368 -3.56931 0
M  V30 3354 H 311.963 3.87605 -2.49567 0
M  V30 3355 H 315.507 3.65663 -5.94085 0
M  V30 3356 H 311.404 4.25023 -4.85825 0
M  V30 3357 H 312.172 4.35291 -6.93155 0
M  V30 3358 N 314.835 0.952656 1.25548 0
M  V30 3359 C 315.782 0.47008 2.25962 0
M  V30 3360 C 316.752 -0.476384 1.59122 0
M  V30 3361 O 317.937 -0.39007 1.8677 0
M  V30 3362 C 315.077 -0.247881 3.44209 0
M  V30 3363 C 314.19 0.735591 4.25691 0
M  V30 3364 C 313.325 -0.0047306 5.312 0
M  V30 3365 C 312.364 0.969805 6.04368 0
M  V30 3366 N 311.501 0.260486 7.01617 0
M  V30 3367 H 316.341 1.33126 2.66611 0
M  V30 3368 H 313.878 0.66765 1.31076 0
M  V30 3369 H 315.836 -0.680695 4.1161 0
M  V30 3370 H 314.466 -1.07312 3.0444 0
M  V30 3371 H 313.518 1.28689 3.57971 0
M  V30 3372 H 314.83 1.47934 4.76358 0
M  V30 3373 H 313.984 -0.496275 6.04667 0
M  V30 3374 H 312.723 -0.781282 4.81401 0
M  V30 3375 H 311.728 1.47237 5.29718 0
M  V30 3376 H 312.953 1.74655 6.56256 0
M  V30 3377 H 310.899 -0.497364 6.54112 0
M  V30 3378 H 310.816 0.943362 7.50091 0
M  V30 3379 H 312.084 -0.209587 7.79218 0
M  V30 3380 N 316.313 -1.40141 0.720998 0
M  V30 3381 C 317.553 -2.02644 0.267335 0
M  V30 3382 C 317.917 -1.55948 -1.12001 0
M  V30 3383 O 319.118 -2.10552 -1.67097 0
M  V30 3384 C 317.389 -3.55679 0.350281 0
M  V30 3385 S 318.948 -4.38793 -0.0256004 0
M  V30 3386 H 315.766 -0.703105 0.105664 0
M  V30 3387 H 318.368 -1.71175 0.944416 0
M  V30 3388 H 317.072 -3.87157 1.36153 0
M  V30 3389 H 316.603 -3.91883 -0.345096 0
M  V30 3390 H 318.618 -4.803 -1.24604 0
M  V30 3391 N 317.792 -0.46758 -1.50504 0
M  V30 3392 C 318.702 0.33382 -2.32213 0
M  V30 3393 C 319.718 0.999323 -1.42441 0
M  V30 3394 O 320.894 0.988068 -1.75497 0
M  V30 3395 C 317.959 1.4035 -3.17022 0
M  V30 3396 C 317.02 0.754961 -4.2261 0
M  V30 3397 C 316.253 1.77367 -5.03365 0
M  V30 3398 O 316.476 2.99976 -4.8515 0
M  V30 3399 O 315.41 1.34744 -5.86624 0
M  V30 3400 H 319.236 -0.334067 -3.01857 0
M  V30 3401 H 316.821 -0.229496 -1.47627 0
M  V30 3402 H 318.703 2.02318 -3.69656 0
M  V30 3403 H 317.378 2.05492 -2.5011 0
M  V30 3404 H 316.285 0.0964244 -3.73976 0
M  V30 3405 H 317.618 0.146545 -4.91982 0
M  V30 3406 N 319.27 1.56325 -0.20005 0
M  V30 3407 C 320.498 2.02105 0.442874 0
M  V30 3408 C 320.913 1.08014 1.5485 0
M  V30 3409 O 320.27 0.0858797 1.82298 0
M  V30 3410 C 320.321 3.47549 0.994583 0
M  V30 3411 O 320.042 4.38049 -0.0669322 0
M  V30 3412 C 321.543 4.0887 1.7129 0
M  V30 3413 H 318.763 0.661807 0.110691 0
M  V30 3414 H 321.307 2.02134 -0.310207 0
M  V30 3415 H 319.462 3.48204 1.69803 0
M  V30 3416 H 319.876 5.23368 0.344462 0
M  V30 3417 H 321.35 5.12475 2.05118 0
M  V30 3418 H 321.827 3.52615 2.61838 0
M  V30 3419 H 322.433 4.12002 1.05518 0
M  V30 3420 N 320.748 -0.0735177 1.57428 0
M  V30 3421 C 321.68 -1.11423 2.00294 0
M  V30 3422 C 322.693 -1.35084 0.908637 0
M  V30 3423 O 323.882 -1.33355 1.18654 0
M  V30 3424 C 320.982 -2.46548 2.32523 0
M  V30 3425 C 320.155 -2.42867 3.63778 0
M  V30 3426 C 319.214 -3.60087 3.83697 0
M  V30 3427 O 318.24 -3.41595 4.55304 0
M  V30 3428 N 319.442 -4.80372 3.25919 0
M  V30 3429 H 322.207 -0.749206 2.90184 0
M  V30 3430 H 319.768 -0.262195 1.59763 0
M  V30 3431 H 321.76 -3.23607 2.43024 0
M  V30 3432 H 320.33 -2.75059 1.48531 0
M  V30 3433 H 319.55 -1.51206 3.64047 0
M  V30 3434 H 320.838 -2.37506 4.49965 0
M  V30 3435 H 320.236 -4.983 2.67795 0
M  V30 3436 H 318.793 -5.54948 3.41871 0
M  V30 3437 N 322.226 -1.5378 -0.344866 0
M  V30 3438 C 323.174 -1.82373 -1.4437 0
M  V30 3439 C 324.168 -0.694128 -1.54526 0
M  V30 3440 O 325.374 -0.877442 -1.57165 0
M  V30 3441 H 321.749 -0.577765 -0.481344 0
M  V30 3442 H 323.72 -2.74306 -1.17468 0
M  V30 3443 C 322.469 -2.04898 -2.80913 0
M  V30 3444 H 321.792 -2.9127 -2.73865 0
M  V30 3445 H 323.232 -2.28871 -3.56923 0
M  V30 3446 C 321.691 -0.834116 -3.26411 0
M  V30 3447 O 322.221 -0.0328885 -4.01687 0
M  V30 3448 N 320.427 -0.65171 -2.83198 0
M  V30 3449 H 319.974 -1.30489 -2.22104 0
M  V30 3450 H 319.932 0.159686 -3.13994 0
M  V30 3451 N 323.704 0.605807 -1.45491 0
M  V30 3452 C 325.115 1.18777 -1.44045 0
M  V30 3453 C 325.466 1.95471 -0.169001 0
M  V30 3454 O 324.591 2.0374 0.729324 0
M  V30 3455 C 325.186 2.16064 -2.60963 0
M  V30 3456 C 323.745 2.69633 -2.62631 0
M  V30 3457 C 322.892 1.45072 -2.36325 0
M  V30 3458 H 325.843 0.395017 -1.53705 0
M  V30 3459 H 325.864 2.9913 -2.35163 0
M  V30 3460 H 325.376 1.60217 -3.53486 0
M  V30 3461 H 323.477 3.29414 -1.74119 0
M  V30 3462 H 323.59 3.13944 -3.61906 0
M  V30 3463 H 321.954 1.74089 -1.85917 0
M  V30 3464 H 322.737 0.910899 -3.30995 0
M  V30 3465 N 325.182 1.32811 0.848464 0
M  V30 3466 C 326.428 1.23907 1.60546 0
M  V30 3467 C 326.761 -0.197161 1.93197 0
M  V30 3468 O 326.036 -1.13596 1.5788 0
M  V30 3469 C 326.319 2.10489 2.92175 0
M  V30 3470 C 326.172 3.62522 2.66266 0
M  V30 3471 C 327.491 1.97075 3.93509 0
M  V30 3472 H 324.61 0.451459 0.58254 0
M  V30 3473 H 327.252 1.62818 0.979296 0
M  V30 3474 H 325.402 1.77434 3.45614 0
M  V30 3475 H 327.074 4.05821 2.19334 0
M  V30 3476 H 325.317 3.84879 2.00126 0
M  V30 3477 H 325.988 4.18437 3.6002 0
M  V30 3478 H 328.464 2.26045 3.49346 0
M  V30 3479 H 327.34 2.59923 4.83457 0
M  V30 3480 H 327.601 0.940186 4.31987 0
M  V30 3481 N 326.66 -1.06551 1.16123 0
M  V30 3482 C 327.885 -1.83544 0.965735 0
M  V30 3483 C 328.31 -1.81843 -0.481102 0
M  V30 3484 O 327.668 -1.21732 -1.34354 0
M  V30 3485 C 327.716 -3.28169 1.49457 0
M  V30 3486 O 326.82 -4.0643 0.699157 0
M  V30 3487 H 326.161 -0.568026 0.343864 0
M  V30 3488 H 328.691 -1.34362 1.54299 0
M  V30 3489 H 328.701 -3.78992 1.51092 0
M  V30 3490 H 327.376 -3.28722 2.54784 0
M  V30 3491 H 325.953 -3.65216 0.7531 0
M  V30 3492 N 328.138 -0.959301 -1.25041 0
M  V30 3493 C 329.101 -0.487677 -2.23952 0
M  V30 3494 C 330.101 0.41119 -1.55454 0
M  V30 3495 O 331.291 0.207825 -1.72956 0
M  V30 3496 C 328.423 0.294807 -3.39623 0
M  V30 3497 H 329.616 -1.36198 -2.67189 0
M  V30 3498 H 327.169 -0.743042 -1.37508 0
M  V30 3499 H 327.904 1.18658 -3.01813 0
M  V30 3500 H 327.689 -0.35012 -3.90534 0
M  V30 3501 H 329.179 0.614089 -4.1306 0
M  V30 3502 N 329.616 1.39756 -0.72842 0
M  V30 3503 C 331.032 1.5442 -0.403308 0
M  V30 3504 C 331.232 1.69694 1.08656 0
M  V30 3505 O 330.288 1.69373 1.87267 0
M  V30 3506 C 331.601 2.76555 -1.18058 0
M  V30 3507 C 333.149 2.90384 -1.16815 0
M  V30 3508 C 333.624 4.15449 -1.92785 0
M  V30 3509 N 335.115 4.22475 -1.89918 0
M  V30 3510 C 335.85 5.1818 -2.45514 0
M  V30 3511 N 335.346 6.19714 -3.09719 0
M  V30 3512 N 337.139 5.1035 -2.35584 0
M  V30 3513 H 329.29 1.28089 -1.69431 0
M  V30 3514 H 331.553 0.620327 -0.716867 0
M  V30 3515 H 331.259 2.7159 -2.23455 0
M  V30 3516 H 331.133 3.69033 -0.780662 0
M  V30 3517 H 333.52 2.94846 -0.12234 0
M  V30 3518 H 333.601 1.98988 -1.6074 0
M  V30 3519 H 333.245 4.11749 -2.97364 0
M  V30 3520 H 333.175 5.05877 -1.46272 0
M  V30 3521 H 335.666 3.49743 -1.43138 0
M  V30 3522 H 335.979 6.8919 -3.49625 0
M  V30 3523 H 334.324 6.20121 -3.13807 0
M  V30 3524 H 337.515 4.2996 -1.85072 0
M  V30 3525 H 337.688 5.84761 -2.79211 0
M  V30 3526 N 331.094 0.475555 1.50254 0
M  V30 3527 C 332.51 0.12997 1.5907 0
M  V30 3528 C 332.71 -1.36385 1.48328 0
M  V30 3529 O 331.766 -2.13754 1.34407 0
M  V30 3530 C 333.079 0.684139 2.92814 0
M  V30 3531 C 334.627 0.647965 3.0622 0
M  V30 3532 C 335.102 1.17975 4.42545 0
M  V30 3533 N 336.593 1.13936 4.48969 0
M  V30 3534 C 337.328 1.52129 5.52851 0
M  V30 3535 N 336.824 1.97793 6.63965 0
M  V30 3536 N 338.617 1.43704 5.4342 0
M  V30 3537 H 330.768 1.44706 1.55479 0
M  V30 3538 H 333.031 0.598691 0.735033 0
M  V30 3539 H 332.737 1.73079 3.06164 0
M  V30 3540 H 332.611 0.130204 3.76975 0
M  V30 3541 H 334.998 -0.38979 2.92514 0
M  V30 3542 H 335.079 1.23876 2.23805 0
M  V30 3543 H 334.723 2.21616 4.57 0
M  V30 3544 H 334.653 0.565138 5.23559 0
M  V30 3545 H 337.144 0.804488 3.69238 0
M  V30 3546 H 337.457 2.25072 7.39299 0
M  V30 3547 H 335.802 2.01749 6.65073 0
M  V30 3548 H 338.993 1.07867 4.55502 0
M  V30 3549 H 339.166 1.73794 6.24259 0
M  V30 3550 N 332.573 -1.56217 0.208337 0
M  V30 3551 C 333.798 -2.02782 -0.435222 0
M  V30 3552 C 334.223 -1.08738 -1.53485 0
M  V30 3553 O 333.581 -0.0731855 -1.81152 0
M  V30 3554 C 333.629 -3.47687 -0.956335 0
M  V30 3555 O 332.733 -3.56773 -2.06849 0
M  V30 3556 H 332.074 -0.656403 -0.100158 0
M  V30 3557 H 334.604 -2.02033 0.3231 0
M  V30 3558 H 334.614 -3.87745 -1.26955 0
M  V30 3559 H 333.289 -4.15624 -0.15143 0
M  V30 3560 H 331.866 -3.28597 -1.76292 0
M  V30 3561 N 334.051 0.0651679 -1.57465 0
M  V30 3562 C 335.328 0.79644 -1.78651 0
M  V30 3563 C 335.708 1.95454 -0.797566 0
M  V30 3564 O 335.056 2.27882 0.167946 0
M  V30 3565 C 335.266 1.26322 -3.25337 0
M  V30 3566 C 336.614 1.6939 -3.89348 0
M  V30 3567 O 337.638 1.35872 -3.29268 0
M  V30 3568 O 336.497 2.31471 -4.95059 0
M  V30 3569 H 333.591 0.382157 -0.733407 0
M  V30 3570 H 336.137 0.0447311 -1.69641 0
M  V30 3571 H 334.909 0.434859 -3.88876 0
M  V30 3572 H 334.532 2.07604 -3.39096 0
M  V30 3573 N 335.529 1.53961 0.336706 0
M  V30 3574 C 336.754 1.75797 1.10046 0
M  V30 3575 C 337.179 0.498985 1.81361 0
M  V30 3576 O 336.537 -0.548769 1.72795 0
M  V30 3577 C 336.585 2.94257 2.08436 0
M  V30 3578 O 335.689 2.64883 3.16087 0
M  V30 3579 H 335.03 0.582936 0.317934 0
M  V30 3580 H 337.56 2.00945 0.38501 0
M  V30 3581 H 337.57 3.21237 2.51537 0
M  V30 3582 H 336.245 3.85564 1.55927 0
M  V30 3583 H 334.822 2.48812 2.77753 0
M  V30 3584 N 337.007 -0.598083 1.45811 0
M  V30 3585 C 338.253 -1.35882 1.50545 0
M  V30 3586 C 338.586 -1.93616 0.150445 0
M  V30 3587 O 337.861 -1.75604 -0.83628 0
M  V30 3588 C 338.144 -2.49966 2.59208 0
M  V30 3589 C 337.997 -1.97367 4.04186 0
M  V30 3590 C 339.316 -3.52068 2.64076 0
M  V30 3591 H 336.435 -0.492717 0.548087 0
M  V30 3592 H 339.077 -0.673319 1.77669 0
M  V30 3593 H 337.227 -3.08443 2.3621 0
M  V30 3594 H 338.899 -1.43466 4.38423 0
M  V30 3595 H 337.142 -1.283 4.14393 0
M  V30 3596 H 337.813 -2.79649 4.75921 0
M  V30 3597 H 340.289 -3.03448 2.84708 0
M  V30 3598 H 339.165 -4.2937 3.41954 0
M  V30 3599 H 339.426 -4.08304 1.69531 0
M  V30 3600 N 338.485 -1.33259 -0.841409 0
M  V30 3601 C 339.734 -1.23921 -1.59143 0
M  V30 3602 C 340.047 0.1941 -1.94635 0
M  V30 3603 O 341.253 0.409474 -2.68394 0
M  V30 3604 C 339.709 -2.17119 -2.87032 0
M  V30 3605 C 339.317 -3.65606 -2.58914 0
M  V30 3606 C 341.061 -2.16648 -3.65053 0
M  V30 3607 C 338.968 -4.50726 -3.82884 0
M  V30 3608 H 337.898 -0.460264 -0.597221 0
M  V30 3609 H 340.549 -1.58307 -0.927959 0
M  V30 3610 H 338.931 -1.75663 -3.54906 0
M  V30 3611 H 340.105 -4.15487 -1.99267 0
M  V30 3612 H 338.42 -3.68341 -1.942 0
M  V30 3613 H 341.017 -2.77474 -4.57069 0
M  V30 3614 H 341.36 -1.16088 -3.99787 0
M  V30 3615 H 341.893 -2.56453 -3.041 0
M  V30 3616 H 338.632 -5.52151 -3.53283 0
M  V30 3617 H 338.152 -4.0559 -4.41879 0
M  V30 3618 H 339.831 -4.64401 -4.50489 0
M  V30 3619 N 339.963 1.05934 -1.16686 0
M  V30 3620 C 340.893 2.1546 -0.899949 0
M  V30 3621 C 341.874 1.69391 0.155154 0
M  V30 3622 O 343.059 1.94199 0.00648693 0
M  V30 3623 C 340.189 3.44939 -0.404241 0
M  V30 3624 C 339.143 4.04536 -1.39767 0
M  V30 3625 C 338.469 5.29268 -0.760216 0
M  V30 3626 C 339.769 4.42893 -2.76845 0
M  V30 3627 H 341.463 2.38046 -1.81588 0
M  V30 3628 H 339.009 1.14404 -0.874514 0
M  V30 3629 H 340.962 4.20901 -0.204971 0
M  V30 3630 H 339.686 3.21983 0.547206 0
M  V30 3631 H 338.345 3.30635 -1.58355 0
M  V30 3632 H 337.993 5.02611 0.197831 0
M  V30 3633 H 337.693 5.70101 -1.42332 0
M  V30 3634 H 339.217 6.07924 -0.57105 0
M  V30 3635 H 340.631 5.09921 -2.62019 0
M  V30 3636 H 339.028 4.94721 -3.39663 0
M  V30 3637 H 340.098 3.53584 -3.31823 0
M  V30 3638 N 341.441 0.965919 1.2453 0
M  V30 3639 C 342.389 0.486506 2.27455 0
M  V30 3640 C 343.383 -0.449041 1.6334 0
M  V30 3641 O 344.589 -0.324527 1.7705 0
M  V30 3642 H 340.964 0.138857 0.739069 0
M  V30 3643 H 342.935 1.3666 2.65267 0
M  V30 3644 C 341.684 -0.209481 3.47068 0
M  V30 3645 H 341.007 0.50129 3.96645 0
M  V30 3646 H 342.447 -0.508775 4.20936 0
M  V30 3647 C 340.906 -1.43586 3.0477 0
M  V30 3648 O 341.436 -2.53299 3.11773 0
M  V30 3649 N 339.642 -1.30126 2.59838 0
M  V30 3650 H 339.189 -0.408583 2.54339 0
M  V30 3651 H 339.147 -2.12294 2.31902 0
M  V30 3652 N 342.919 -1.39368 0.735821 0
M  V30 3653 C 344.165 -2.00794 0.284544 0
M  V30 3654 C 344.498 -1.58255 -1.12557 0
M  V30 3655 O 343.773 -0.811819 -1.76748 0
M  V30 3656 C 344.056 -3.58011 0.387337 0
M  V30 3657 C 343.909 -4.10566 1.83728 0
M  V30 3658 C 345.228 -4.395 -0.22975 0
M  V30 3659 H 342.347 -0.729501 0.104866 0
M  V30 3660 H 344.989 -1.65564 0.93213 0
M  V30 3661 H 343.139 -3.88154 -0.164006 0
M  V30 3662 H 344.811 -3.91139 2.44556 0
M  V30 3663 H 343.054 -3.64095 2.35833 0
M  V30 3664 H 343.725 -5.19702 1.86047 0
M  V30 3665 H 346.201 -4.15406 0.240257 0
M  V30 3666 H 345.077 -5.48752 -0.127485 0
M  V30 3667 H 345.338 -4.22062 -1.3159 0
M  V30 3668 N 344.397 -0.483516 -1.5 0
M  V30 3669 C 345.327 0.293829 -2.31644 0
M  V30 3670 C 346.308 0.978864 -1.39112 0
M  V30 3671 O 347.493 0.973644 -1.68029 0
M  V30 3672 C 344.623 1.36897 -3.19181 0
M  V30 3673 C 343.577 0.804833 -4.20365 0
M  V30 3674 C 342.903 1.9792 -4.96721 0
M  V30 3675 C 344.203 -0.192313 -5.21946 0
M  V30 3676 H 345.897 -0.387616 -2.9688 0
M  V30 3677 H 343.443 -0.187856 -1.42769 0
M  V30 3678 H 345.396 1.92037 -3.751 0
M  V30 3679 H 344.12 2.07936 -2.51853 0
M  V30 3680 H 342.779 0.275319 -3.65565 0
M  V30 3681 H 342.427 2.67686 -4.25856 0
M  V30 3682 H 342.127 1.60789 -5.65173 0
M  V30 3683 H 343.651 2.53526 -5.55479 0
M  V30 3684 H 345.065 0.270333 -5.72662 0
M  V30 3685 H 343.462 -0.478543 -5.98189 0
M  V30 3686 H 344.532 -1.11409 -4.71928 0
M  V30 3687 N 345.875 1.56104 -0.216619 0
M  V30 3688 C 347.105 2.02269 0.420802 0
M  V30 3689 C 347.513 1.09575 1.5424 0
M  V30 3690 O 346.856 0.0967308 1.83445 0
M  V30 3691 C 346.918 3.44784 1.01806 0
M  V30 3692 C 346.582 4.56988 0.0325154 0
M  V30 3693 C 347.579 5.14225 -0.766055 0
M  V30 3694 C 345.264 5.02228 -0.0848092 0
M  V30 3695 C 347.258 6.15169 -1.6687 0
M  V30 3696 C 344.945 6.03011 -0.990994 0
M  V30 3697 C 345.943 6.59357 -1.78149 0
M  V30 3698 O 345.631 7.58179 -2.67245 0
M  V30 3699 H 345.363 0.667353 0.107776 0
M  V30 3700 H 347.917 2.02747 -0.329034 0
M  V30 3701 H 346.147 3.41359 1.81689 0
M  V30 3702 H 347.836 3.74626 1.56237 0
M  V30 3703 H 348.602 4.80126 -0.685836 0
M  V30 3704 H 344.481 4.58054 0.520349 0
M  V30 3705 H 348.025 6.59076 -2.28615 0
M  V30 3706 H 343.922 6.36532 -1.07225 0
M  V30 3707 H 344.69 7.75682 -2.61265 0
M  V30 3708 N 347.353 -0.0568162 1.57498 0
M  V30 3709 C 348.601 -0.751617 1.87604 0
M  V30 3710 C 348.922 -1.77351 0.81066 0
M  V30 3711 O 348.192 -1.95254 -0.159018 0
M  V30 3712 H 346.772 -0.280583 0.692302 0
M  V30 3713 H 349.434 -0.0293483 1.94878 0
M  V30 3714 H 348.53 -1.25852 2.856 0
M  V30 3715 N 348.832 -1.54138 -0.328536 0
M  V30 3716 C 350.243 -1.63395 -0.903272 0
M  V30 3717 C 350.594 -0.524828 -1.8905 0
M  V30 3718 O 349.719 0.343068 -2.13663 0
M  V30 3719 C 350.314 -2.9618 -1.64507 0
M  V30 3720 C 348.873 -3.0765 -2.1686 0
M  V30 3721 C 348.02 -2.58933 -0.992416 0
M  V30 3722 H 350.971 -1.58344 -0.106253 0
M  V30 3723 H 350.992 -2.86061 -2.50897 0
M  V30 3724 H 350.504 -3.76884 -0.926302 0
M  V30 3725 H 348.605 -2.31611 -2.91868 0
M  V30 3726 H 348.718 -4.1337 -2.42202 0
M  V30 3727 H 347.082 -2.14706 -1.37016 0
M  V30 3728 H 347.865 -3.42089 -0.288041 0
M  V30 3729 N 350.31 0.590341 -1.46126 0
M  V30 3730 C 351.587 1.35029 -1.41515 0
M  V30 3731 C 351.967 2.10888 -0.0946472 0
M  V30 3732 O 351.315 2.08998 0.923693 0
M  V30 3733 C 351.525 2.28269 -2.63997 0
M  V30 3734 C 352.873 2.90338 -3.09821 0
M  V30 3735 O 353.897 2.38585 -2.64492 0
M  V30 3736 O 352.756 3.84321 -3.88535 0
M  V30 3737 H 349.85 0.606317 -0.562413 0
M  V30 3738 H 352.396 0.611994 -1.58281 0
M  V30 3739 H 351.168 1.71591 -3.51671 0
M  V30 3740 H 350.791 3.0945 -2.49652 0
M  V30 3741 N 351.788 1.33704 0.83433 0
M  V30 3742 C 352.751 1.24244 1.92603 0
M  V30 3743 C 353.751 0.160383 1.59998 0
M  V30 3744 O 354.941 0.412228 1.69252 0
M  V30 3745 C 352.073 0.91555 3.28376 0
M  V30 3746 H 353.266 2.21287 2.02416 0
M  V30 3747 H 350.819 1.17827 1.02696 0
M  V30 3748 H 351.554 -0.0521886 3.24258 0
M  V30 3749 H 351.339 1.69811 3.53422 0
M  V30 3750 H 352.829 0.874231 4.08347 0
M  V30 3751 N 353.266 -1.05314 1.17247 0
M  V30 3752 C 354.677 -1.59753 0.96623 0
M  V30 3753 C 355.028 -1.9005 -0.487378 0
M  V30 3754 O 354.153 -1.68126 -1.36245 0
M  V30 3755 C 354.748 -2.90249 1.74759 0
M  V30 3756 C 353.307 -3.41352 1.58606 0
M  V30 3757 C 352.454 -2.15103 1.75002 0
M  V30 3758 H 355.405 -0.881406 1.31973 0
M  V30 3759 H 355.426 -3.60097 1.22925 0
M  V30 3760 H 354.938 -2.68166 2.8055 0
M  V30 3761 H 353.039 -3.68474 0.552985 0
M  V30 3762 H 353.152 -4.16019 2.37624 0
M  V30 3763 H 351.516 -2.25804 1.17833 0
M  V30 3764 H 352.299 -1.95491 2.82202 0
M  V30 3765 N 354.744 -0.972509 -1.24016 0
M  V30 3766 C 355.972 -0.654803 -1.96265 0
M  V30 3767 C 356.387 0.776708 -1.72083 0
M  V30 3768 O 355.744 1.52171 -1.00748 0
M  V30 3769 C 355.795 -0.92592 -3.49441 0
M  V30 3770 O 355.516 -2.30116 -3.72798 0
M  V30 3771 C 357.017 -0.623068 -4.38899 0
M  V30 3772 H 354.237 -0.243907 -0.6251 0
M  V30 3773 H 356.781 -1.30175 -1.57717 0
M  V30 3774 H 354.936 -0.325108 -3.86033 0
M  V30 3775 H 355.35 -2.38483 -4.67147 0
M  V30 3776 H 356.824 -0.863189 -5.45209 0
M  V30 3777 H 357.301 0.442754 -4.36963 0
M  V30 3778 H 357.907 -1.204 -4.07902 0
M  V30 3779 N 356.222 1.38976 -0.743202 0
M  V30 3780 C 357.471 1.99581 -0.291592 0
M  V30 3781 C 357.784 1.59656 1.13001 0
M  V30 3782 O 358.99 2.13157 1.68156 0
M  V30 3783 C 357.446 3.56813 -0.470391 0
M  V30 3784 C 357.054 4.05695 -1.90041 0
M  V30 3785 C 358.798 4.24423 -0.0809709 0
M  V30 3786 C 356.705 5.5553 -2.02832 0
M  V30 3787 H 355.635 0.746615 -0.105272 0
M  V30 3788 H 358.286 1.58872 -0.918258 0
M  V30 3789 H 356.668 3.95359 0.225299 0
M  V30 3790 H 357.842 3.78464 -2.62872 0
M  V30 3791 H 356.157 3.50775 -2.24379 0
M  V30 3792 H 358.754 5.34474 -0.155445 0
M  V30 3793 H 359.097 4.04962 0.96497 0
M  V30 3794 H 359.63 3.9108 -0.728124 0
M  V30 3795 H 356.369 5.79881 -3.05643 0
M  V30 3796 H 355.889 5.84537 -1.34448 0
M  V30 3797 H 357.568 6.21069 -1.81335 0
M  V30 3798 N 357.7 0.491464 1.49741 0
M  V30 3799 C 358.925 -0.0557177 2.07325 0
M  V30 3800 C 359.35 -1.30925 1.35056 0
M  V30 3801 O 358.708 -1.76733 0.404365 0
M  V30 3802 C 358.756 -0.302074 3.59333 0
M  V30 3803 O 357.86 -1.37868 3.88672 0
M  V30 3804 H 357.201 0.0219956 0.663636 0
M  V30 3805 H 359.731 0.688352 1.92673 0
M  V30 3806 H 359.741 -0.536464 4.04458 0
M  V30 3807 H 358.416 0.61383 4.11345 0
M  V30 3808 H 356.993 -1.12999 3.55367 0
M  V30 3809 N 359.178 -1.55987 0.224894 0
M  V30 3810 C 360.589 -1.84553 -0.282345 0
M  V30 3811 C 360.94 -1.14634 -1.59227 0
M  V30 3812 O 360.065 -0.417155 -2.12341 0
M  V30 3813 C 360.66 -3.348 -0.519062 0
M  V30 3814 C 359.219 -3.63671 -0.970604 0
M  V30 3815 C 358.366 -2.77277 -0.0355261 0
M  V30 3816 H 361.317 -1.52245 0.448006 0
M  V30 3817 H 361.338 -3.55187 -1.36463 0
M  V30 3818 H 360.85 -3.8566 0.43449 0
M  V30 3819 H 358.951 -3.1827 -1.9374 0
M  V30 3820 H 359.064 -4.71631 -0.842698 0
M  V30 3821 H 357.428 -2.48846 -0.542927 0
M  V30 3822 H 358.211 -3.30937 0.913003 0
M  V30 3823 N 360.656 0.0484629 -1.57525 0
M  V30 3824 C 361.586 1.0549 -2.08313 0
M  V30 3825 C 362.567 1.38929 -0.981463 0
M  V30 3826 O 363.752 1.48151 -1.25558 0
M  V30 3827 C 360.882 2.36162 -2.54646 0
M  V30 3828 C 359.836 2.17016 -3.68901 0
M  V30 3829 C 359.162 3.53278 -4.01371 0
M  V30 3830 C 360.462 1.57219 -4.98076 0
M  V30 3831 H 362.156 0.632195 -2.92649 0
M  V30 3832 H 359.702 0.302654 -1.40784 0
M  V30 3833 H 361.655 3.06882 -2.88793 0
M  V30 3834 H 360.379 2.80456 -1.67368 0
M  V30 3835 H 359.038 1.48733 -3.35073 0
M  V30 3836 H 358.686 3.95185 -3.11188 0
M  V30 3837 H 358.386 3.41299 -4.78318 0
M  V30 3838 H 359.91 4.25391 -4.38035 0
M  V30 3839 H 361.324 2.17832 -5.30304 0
M  V30 3840 H 359.721 1.55871 -5.79503 0
M  V30 3841 H 360.791 0.535956 -4.81929 0
M  V30 3842 N 362.134 1.5431 0.320358 0
M  V30 3843 C 363.082 1.84647 1.4145 0
M  V30 3844 C 364.076 0.718624 1.53402 0
M  V30 3845 O 365.282 0.902335 1.5575 0
M  V30 3846 H 361.657 0.585349 0.472091 0
M  V30 3847 H 363.628 2.7614 1.13089 0
M  V30 3848 C 362.377 2.09341 2.77617 0
M  V30 3849 H 361.7 2.9559 2.69196 0
M  V30 3850 H 363.14 2.3452 3.53237 0
M  V30 3851 C 361.599 0.885939 3.25043 0
M  V30 3852 O 362.129 0.0967891 4.01583 0
M  V30 3853 N 360.335 0.696682 2.82125 0
M  V30 3854 H 359.882 1.34006 2.2 0
M  V30 3855 H 359.84 -0.109712 3.14209 0
M  V30 3856 N 363.613 -0.582584 1.46437 0
M  V30 3857 C 364.841 -1.36682 1.55324 0
M  V30 3858 C 365.256 -1.87796 0.194409 0
M  V30 3859 O 364.613 -1.63623 -0.808318 0
M  V30 3860 C 364.664 -2.55426 2.55812 0
M  V30 3861 O 364.385 -2.0643 3.86417 0
M  V30 3862 C 365.886 -3.47976 2.74641 0
M  V30 3863 H 363.106 -0.417545 0.525259 0
M  V30 3864 H 365.65 -0.708219 1.91845 0
M  V30 3865 H 363.805 -3.17275 2.22295 0
M  V30 3866 H 364.219 -2.83762 4.41111 0
M  V30 3867 H 365.693 -4.27775 3.48874 0
M  V30 3868 H 366.17 -3.99919 1.81553 0
M  V30 3869 H 366.776 -2.91962 3.09255 0
M  V30 3870 N 365.091 -1.34144 -0.827227 0
M  V30 3871 C 366.316 -1.29476 -1.62021 0
M  V30 3872 C 366.741 0.129292 -1.87655 0
M  V30 3873 O 366.099 1.08967 -1.449 0
M  V30 3874 C 366.147 -2.08702 -2.94068 0
M  V30 3875 O 365.251 -1.45359 -3.85933 0
M  V30 3876 H 364.592 -0.444881 -0.492927 0
M  V30 3877 H 367.122 -1.76882 -1.02829 0
M  V30 3878 H 367.132 -2.19898 -3.43669 0
M  V30 3879 H 365.807 -3.12241 -2.74734 0
M  V30 3880 H 364.384 -1.42879 -3.44442 0
M  V30 3881 N 366.569 1.04691 -1.17803 0
M  V30 3882 C 367.799 1.81183 -0.992788 0
M  V30 3883 C 368.207 1.8347 0.462098 0
M  V30 3884 O 367.55 1.2643 1.33271 0
M  V30 3885 C 367.612 3.28363 -1.46349 0
M  V30 3886 C 367.276 3.49749 -2.94151 0
M  V30 3887 C 368.273 3.41456 -3.92051 0
M  V30 3888 C 365.958 3.76548 -3.32441 0
M  V30 3889 C 367.952 3.59656 -5.26238 0
M  V30 3890 C 365.639 3.94396 -4.66792 0
M  V30 3891 C 366.637 3.8595 -5.635 0
M  V30 3892 O 366.325 4.03294 -6.9542 0
M  V30 3893 H 366.057 0.577622 -0.351182 0
M  V30 3894 H 368.611 1.32876 -1.5663 0
M  V30 3895 H 366.841 3.77609 -0.833574 0
M  V30 3896 H 368.53 3.86395 -1.24313 0
M  V30 3897 H 369.296 3.20723 -3.63815 0
M  V30 3898 H 365.175 3.82224 -2.57732 0
M  V30 3899 H 368.719 3.52979 -6.01707 0
M  V30 3900 H 364.616 4.14622 -4.94731 0
M  V30 3901 H 365.384 4.2049 -7.02232 0
M  V30 3902 N 368.047 0.979072 1.23499 0
M  V30 3903 C 369.463 0.687475 1.44034 0
M  V30 3904 C 369.663 -0.746801 1.8715 0
M  V30 3905 O 368.719 -1.51939 2.0167 0
M  V30 3906 C 370.032 1.68127 2.49307 0
M  V30 3907 C 371.58 1.69516 2.63122 0
M  V30 3908 C 372.055 2.67723 3.71603 0
M  V30 3909 N 373.546 2.66233 3.79044 0
M  V30 3910 C 374.281 3.38891 4.62537 0
M  V30 3911 N 373.777 4.21103 5.50131 0
M  V30 3912 N 375.57 3.27661 4.56721 0
M  V30 3913 H 367.721 1.90559 0.938135 0
M  V30 3914 H 369.984 0.821051 0.473897 0
M  V30 3915 H 369.69 2.70693 2.2454 0
M  V30 3916 H 369.564 1.46306 3.4767 0
M  V30 3917 H 371.951 0.676561 2.8724 0
M  V30 3918 H 372.032 1.95404 1.65079 0
M  V30 3919 H 371.676 3.69724 3.48233 0
M  V30 3920 H 371.606 2.39111 4.69184 0
M  V30 3921 H 374.097 2.06568 3.16446 0
M  V30 3922 H 374.41 4.73403 6.10827 0
M  V30 3923 H 372.755 4.25195 5.49759 0
M  V30 3924 H 375.946 2.62887 3.87309 0
M  V30 3925 H 376.119 3.84547 5.21562 0
M  V30 3926 N 369.525 -1.3858 0.750561 0
M  V30 3927 C 370.75 -2.04997 0.314812 0
M  V30 3928 C 371.175 -1.56235 -1.04749 0
M  V30 3929 O 370.533 -0.712981 -1.66692 0
M  V30 3930 C 370.581 -3.58961 0.343415 0
M  V30 3931 O 369.685 -4.07025 -0.663628 0
M  V30 3932 H 369.026 -0.649081 0.139962 0
M  V30 3933 H 371.556 -1.77313 1.02084 0
M  V30 3934 H 371.566 -4.07542 0.193233 0
M  V30 3935 H 370.241 -3.93811 1.33738 0
M  V30 3936 H 368.818 -3.6982 -0.478307 0
M  V30 3937 N 371.003 -0.499398 -1.49478 0
M  V30 3938 C 372.251 0.0455996 -2.02049 0
M  V30 3939 C 372.572 1.37633 -1.38138 0
M  V30 3940 O 371.842 1.8842 -0.536166 0
M  V30 3941 H 370.422 0.0198416 -0.746736 0
M  V30 3942 H 373.084 -0.656274 -1.83519 0
M  V30 3943 H 372.18 0.176445 -3.11601 0
M  V30 3944 N 372.481 1.55866 -0.233164 0
M  V30 3945 C 373.391 2.24431 0.683217 0
M  V30 3946 C 374.407 1.2558 1.2044 0
M  V30 3947 O 375.583 1.58422 1.24356 0
M  V30 3948 C 372.648 2.91979 1.86947 0
M  V30 3949 C 371.709 4.06204 1.38912 0
M  V30 3950 C 370.942 4.70522 2.51883 0
M  V30 3951 O 371.165 4.33865 3.70293 0
M  V30 3952 O 370.099 5.59296 2.22423 0
M  V30 3953 H 373.925 3.03426 0.129059 0
M  V30 3954 H 371.51 1.494 -0.0022283 0
M  V30 3955 H 373.392 3.34573 2.56201 0
M  V30 3956 H 372.067 2.15935 2.41151 0
M  V30 3957 H 370.974 3.68155 0.664259 0
M  V30 3958 H 372.307 4.84025 0.893328 0
M  V30 3959 N 373.959 -0.0401083 1.57549 0
M  V30 3960 C 374.907 -1.06264 2.06908 0
M  V30 3961 C 375.901 -1.38132 0.980608 0
M  V30 3962 O 377.107 -1.37167 1.16556 0
M  V30 3963 H 373.482 -0.360166 0.660139 0
M  V30 3964 H 375.453 -0.620445 2.91878 0
M  V30 3965 C 374.202 -2.35846 2.55483 0
M  V30 3966 H 373.525 -2.12183 3.38849 0
M  V30 3967 H 374.965 -3.05765 2.93741 0
M  V30 3968 C 373.424 -3.0404 1.45126 0
M  V30 3969 O 373.954 -3.93424 0.811216 0
M  V30 3970 N 372.16 -2.65184 1.18852 0
M  V30 3971 H 371.707 -1.92584 1.71083 0
M  V30 3972 H 371.665 -3.1113 0.452244 0
M  V30 3973 N 375.437 -1.54477 -0.31217 0
M  V30 3974 C 376.367 -1.87652 -1.38957 0
M  V30 3975 C 377.348 -0.734358 -1.53431 0
M  V30 3976 O 378.533 -0.98911 -1.67123 0
M  V30 3977 C 375.663 -2.11396 -2.75552 0
M  V30 3978 C 374.617 -3.27243 -2.75855 0
M  V30 3979 C 373.943 -3.36382 -4.15633 0
M  V30 3980 C 375.243 -4.64622 -2.38587 0
M  V30 3981 H 376.937 -2.77887 -1.11442 0
M  V30 3982 H 374.483 -1.33707 -0.534655 0
M  V30 3983 H 376.436 -2.33189 -3.51 0
M  V30 3984 H 375.16 -1.17921 -3.04569 0
M  V30 3985 H 373.819 -3.05356 -2.02863 0
M  V30 3986 H 373.467 -2.40445 -4.41809 0
M  V30 3987 H 373.167 -4.14249 -4.1674 0
M  V30 3988 H 374.691 -3.60422 -4.92877 0
M  V30 3989 H 376.105 -4.86219 -3.03749 0
M  V30 3990 H 374.502 -5.45121 -2.50925 0
M  V30 3991 H 375.572 -4.66097 -1.33723 0
M  V30 3992 N 376.915 0.57481 -1.46744 0
M  V30 3993 C 377.863 1.70435 -1.58286 0
M  V30 3994 C 378.857 1.63287 -0.450956 0
M  V30 3995 O 380.063 1.68685 -0.628121 0
M  V30 3996 H 376.438 0.56364 -0.497809 0
M  V30 3997 H 378.409 1.57833 -2.53242 0
M  V30 3998 C 377.158 3.08815 -1.59776 0
M  V30 3999 H 376.481 3.1499 -2.46214 0
M  V30 4000 H 377.921 3.87588 -1.71905 0
M  V30 4001 C 376.38 3.35301 -0.327812 0
M  V30 4002 O 376.91 3.97511 0.57861 0
M  V30 4003 N 375.116 2.89816 -0.213274 0
M  V30 4004 H 374.663 2.39371 -0.951798 0
M  V30 4005 H 374.621 3.0791 0.63553 0
M  V30 4006 N 378.394 1.34581 0.820102 0
M  V30 4007 C 379.324 1.29038 1.94606 0
M  V30 4008 C 380.305 0.1673 1.69275 0
M  V30 4009 O 381.49 0.360112 1.90832 0
M  V30 4010 C 378.62 1.04793 3.31113 0
M  V30 4011 C 377.574 2.13597 3.70891 0
M  V30 4012 C 376.9 1.74537 5.05412 0
M  V30 4013 C 378.2 3.55451 3.8269 0
M  V30 4014 H 379.894 2.23248 1.99501 0
M  V30 4015 H 377.44 1.0747 0.958449 0
M  V30 4016 H 379.393 0.995592 4.0947 0
M  V30 4017 H 378.117 0.0702565 3.26524 0
M  V30 4018 H 376.776 2.17905 2.9481 0
M  V30 4019 H 376.424 0.754226 4.97313 0
M  V30 4020 H 376.124 2.47361 5.32997 0
M  V30 4021 H 377.648 1.70803 5.86224 0
M  V30 4022 H 379.062 3.5354 4.51312 0
M  V30 4023 H 377.459 4.26922 4.21732 0
M  V30 4024 H 378.529 3.92587 2.84611 0
M  V30 4025 N 379.872 -1.04064 1.18357 0
M  V30 4026 C 381.097 -1.81454 1.00445 0
M  V30 4027 C 381.522 -1.82823 -0.442423 0
M  V30 4028 O 380.88 -1.24555 -1.31741 0
M  V30 4029 C 380.928 -3.24925 1.56384 0
M  V30 4030 O 380.032 -4.04856 0.785209 0
M  V30 4031 H 379.373 -0.560604 0.355835 0
M  V30 4032 H 381.903 -1.31059 1.57114 0
M  V30 4033 H 381.913 -3.75702 1.59097 0
M  V30 4034 H 380.588 -3.23244 2.61699 0
M  V30 4035 H 379.165 -3.63537 0.830399 0
M  V30 4036 N 381.35 -0.985608 -1.22978 0
M  V30 4037 C 382.59 -0.665487 -1.93263 0
M  V30 4038 C 382.954 0.78706 -1.75127 0
M  V30 4039 O 384.155 1.21826 -2.39608 0
M  V30 4040 C 382.426 -1.0515 -3.41582 0
M  V30 4041 S 383.985 -0.848637 -4.30516 0
M  V30 4042 H 380.803 -0.24355 -0.667985 0
M  V30 4043 H 383.405 -1.26635 -1.48942 0
M  V30 4044 H 382.109 -2.10517 -3.52293 0
M  V30 4045 H 381.64 -0.442134 -3.90908 0
M  V30 4046 H 383.655 0.264717 -4.95493 0
M  V30 4047 N 382.828 1.3818 -0.7579 0
M  V30 4048 C 383.778 2.27741 -0.108674 0
M  V30 4049 C 384.762 1.45415 0.688709 0
M  V30 4050 O 385.954 1.68108 0.553956 0
M  V30 4051 C 383.083 3.34313 0.780367 0
M  V30 4052 C 382.169 4.24093 -0.0240977 0
M  V30 4053 N 382.56 4.9451 -1.06271 0
M  V30 4054 C 380.858 4.45542 0.202049 0
M  V30 4055 C 381.559 5.60675 -1.54979 0
M  V30 4056 N 380.535 5.36684 -0.864348 0
M  V30 4057 H 384.337 2.79649 -0.904071 0
M  V30 4058 H 381.851 1.51133 -0.594346 0
M  V30 4059 H 383.848 3.97368 1.26114 0
M  V30 4060 H 382.508 2.83962 1.57467 0
M  V30 4061 H 383.519 4.97345 -1.44459 0
M  V30 4062 H 380.196 4.06091 0.96935 0
M  V30 4063 H 381.586 6.26992 -2.41517 0
M  V30 4064 N 384.306 0.507319 1.49211 0
M  V30 4065 C 385.269 -0.256763 2.27757 0
M  V30 4066 C 386.269 -0.888287 1.34038 0
M  V30 4067 O 387.459 -0.751841 1.5714 0
M  V30 4068 C 384.591 -1.36905 3.12202 0
M  V30 4069 H 385.784 0.432557 2.96764 0
M  V30 4070 H 383.337 0.262488 1.5408 0
M  V30 4071 H 384.072 -2.09233 2.47775 0
M  V30 4072 H 383.857 -0.921599 3.81115 0
M  V30 4073 H 385.347 -1.9071 3.7151 0
M  V30 4074 N 385.784 -1.5574 0.241426 0
M  V30 4075 C 386.747 -2.19877 -0.647063 0
M  V30 4076 C 387.747 -1.16642 -1.10686 0
M  V30 4077 O 388.937 -1.41757 -1.01245 0
M  V30 4078 C 386.069 -2.83797 -1.88871 0
M  V30 4079 H 387.262 -2.99772 -0.087574 0
M  V30 4080 H 384.815 -1.56298 -0.00813574 0
M  V30 4081 H 385.55 -2.07824 -2.48957 0
M  V30 4082 H 385.335 -3.59414 -1.56728 0
M  V30 4083 H 386.825 -3.32898 -2.52129 0
M  V30 4084 N 387.262 0.0317525 -1.57568 0
M  V30 4085 C 388.487 0.738664 -1.938 0
M  V30 4086 C 388.912 1.68242 -0.841208 0
M  V30 4087 O 388.27 1.80157 0.203267 0
M  V30 4088 C 388.318 1.47417 -3.29091 0
M  V30 4089 O 387.422 2.5872 -3.2115 0
M  V30 4090 H 386.763 0.198856 -0.633524 0
M  V30 4091 H 389.293 -0.0119713 -2.04596 0
M  V30 4092 H 389.303 1.84468 -3.63917 0
M  V30 4093 H 387.978 0.781988 -4.08482 0
M  V30 4094 H 386.555 2.24231 -2.97951 0
M  V30 4095 N 388.74 1.54641 0.303973 0
M  V30 4096 C 389.688 1.86137 1.39484 0
M  V30 4097 C 390.682 0.734854 1.52631 0
M  V30 4098 O 391.888 0.918803 1.54784 0
M  V30 4099 H 388.263 0.590324 0.465856 0
M  V30 4100 H 390.234 2.77324 1.10154 0
M  V30 4101 C 388.983 2.12274 2.75382 0
M  V30 4102 H 388.306 2.98429 2.66046 0
M  V30 4103 H 389.746 2.38254 3.5073 0
M  V30 4104 C 388.205 0.920365 3.24085 0
M  V30 4105 O 388.735 0.139377 4.01458 0
M  V30 4106 N 386.941 0.726566 2.81371 0
M  V30 4107 H 386.488 1.36332 2.18567 0
M  V30 4108 H 386.446 -0.0763799 3.14307 0
M  V30 4109 N 390.218 -0.567019 1.47046 0
M  V30 4110 C 391.629 -1.14916 1.47143 0
M  V30 4111 C 391.98 -1.94954 0.220767 0
M  V30 4112 O 391.105 -2.05602 -0.67505 0
M  V30 4113 C 391.7 -2.09069 2.666 0
M  V30 4114 C 390.259 -2.62575 2.69687 0
M  V30 4115 C 389.406 -1.38755 2.40088 0
M  V30 4116 H 392.357 -0.354126 1.54699 0
M  V30 4117 H 392.378 -2.92789 2.43011 0
M  V30 4118 H 391.89 -1.50789 3.57609 0
M  V30 4119 H 389.991 -3.24681 1.82792 0
M  V30 4120 H 390.104 -3.04239 3.70102 0
M  V30 4121 H 388.468 -1.69098 1.90468 0
M  V30 4122 H 389.251 -0.822822 3.33293 0
M  V30 4123 N 391.696 -1.35014 -0.812953 0
M  V30 4124 C 393.107 -1.25035 -1.38648 0
M  V30 4125 C 393.458 0.119967 -1.95833 0
M  V30 4126 O 392.583 1.02069 -1.90816 0
M  V30 4127 C 393.178 -2.26394 -2.52054 0
M  V30 4128 C 391.737 -2.20175 -3.05287 0
M  V30 4129 C 390.884 -2.12451 -1.78213 0
M  V30 4130 H 393.835 -1.46235 -0.616516 0
M  V30 4131 H 393.856 -1.88672 -3.30429 0
M  V30 4132 H 393.368 -3.26116 -2.10404 0
M  V30 4133 H 391.469 -1.23841 -3.51417 0
M  V30 4134 H 391.582 -3.11863 -3.63701 0
M  V30 4135 H 389.946 -1.58328 -1.9951 0
M  V30 4136 H 390.729 -3.14024 -1.38723 0
M  V30 4137 N 393.175 1.03435 -1.18907 0
M  V30 4138 C 394.138 2.09756 -0.923844 0
M  V30 4139 C 395.138 1.60528 0.093416 0
M  V30 4140 O 396.328 1.73631 -0.140727 0
M  V30 4141 C 393.46 3.38692 -0.387354 0
M  V30 4142 H 394.653 2.34719 -1.86674 0
M  V30 4143 H 392.206 1.19959 -1.00197 0
M  V30 4144 H 392.941 3.19396 0.561845 0
M  V30 4145 H 392.726 3.75742 -1.12074 0
M  V30 4146 H 394.216 4.17016 -0.220694 0
M  V30 4147 N 394.653 0.992116 1.22453 0
M  V30 4148 C 395.585 0.500024 2.23679 0
M  V30 4149 C 396.598 -0.404463 1.57696 0
M  V30 4150 O 397.787 -0.206722 1.77299 0
M  V30 4151 C 394.887 -0.294711 3.37616 0
M  V30 4152 C 394.06 0.605723 4.33186 0
M  V30 4153 C 393.119 -0.13717 5.26021 0
M  V30 4154 O 392.145 0.477164 5.67196 0
M  V30 4155 N 393.347 -1.4197 5.62872 0
M  V30 4156 H 396.112 1.37045 2.66531 0
M  V30 4157 H 393.673 0.866741 1.36745 0
M  V30 4158 H 395.665 -0.800329 3.96707 0
M  V30 4159 H 394.235 -1.06623 2.93854 0
M  V30 4160 H 393.455 1.29202 3.72425 0
M  V30 4161 H 394.743 1.21896 4.93983 0
M  V30 4162 H 394.141 -1.94015 5.31389 0
M  V30 4163 H 392.698 -1.87052 6.24383 0
M  V30 4164 N 396.131 -1.37776 0.765217 0
M  V30 4165 C 397.361 -2.03828 0.337277 0
M  V30 4166 C 397.769 -1.57841 -1.04321 0
M  V30 4167 O 397.112 -0.752043 -1.67601 0
M  V30 4168 C 397.174 -3.58292 0.294407 0
M  V30 4169 C 396.838 -4.27384 1.61838 0
M  V30 4170 C 397.835 -4.51956 2.56967 0
M  V30 4171 C 395.52 -4.65345 1.89102 0
M  V30 4172 C 397.514 -5.13536 3.77571 0
M  V30 4173 C 395.201 -5.26647 3.09978 0
M  V30 4174 C 396.199 -5.50679 4.04032 0
M  V30 4175 O 395.887 -6.10702 5.2278 0
M  V30 4176 H 395.619 -0.661292 0.140248 0
M  V30 4177 H 398.173 -1.77222 1.03834 0
M  V30 4178 H 396.403 -3.83918 -0.462983 0
M  V30 4179 H 398.092 -4.05763 -0.105581 0
M  V30 4180 H 398.858 -4.23048 2.37183 0
M  V30 4181 H 394.737 -4.45978 1.16725 0
M  V30 4182 H 398.281 -5.3221 4.50997 0
M  V30 4183 H 394.178 -5.54979 3.29649 0
M  V30 4184 H 394.946 -6.29183 5.23517 0
M  V30 4185 N 397.609 -0.515225 -1.4894 0
M  V30 4186 C 398.834 0.022727 -2.07388 0
M  V30 4187 C 399.259 1.2876 -1.37122 0
M  V30 4188 O 398.617 1.76067 -0.432431 0
M  V30 4189 C 398.665 0.244869 -3.59768 0
M  V30 4190 O 397.769 1.31667 -3.90817 0
M  V30 4191 H 397.11 -0.0325506 -0.663202 0
M  V30 4192 H 399.64 -0.718918 -1.91553 0
M  V30 4193 H 399.65 0.47205 -4.0526 0
M  V30 4194 H 398.325 -0.679194 -4.10317 0
M  V30 4195 H 396.902 1.07331 -3.5712 0
M  V30 4196 N 399.087 1.5561 -0.249682 0
M  V30 4197 C 400.333 2.00044 0.367952 0
M  V30 4198 C 400.688 1.1349 1.55363 0
M  V30 4199 O 399.981 0.191079 1.90645 0
M  V30 4200 C 400.175 3.4775 0.824887 0
M  V30 4201 C 400.004 4.48596 -0.314973 0
M  V30 4202 C 398.774 4.99077 -0.790555 0
M  V30 4203 C 400.972 5.0144 -1.14291 0
M  V30 4204 N 398.954 5.83675 -1.90254 0
M  V30 4205 C 400.325 5.83236 -2.10322 0
M  V30 4206 C 402.38 4.83736 -1.17916 0
M  V30 4207 C 401.083 6.49217 -3.09692 0
M  V30 4208 C 403.109 5.50497 -2.16117 0
M  V30 4209 C 402.471 6.32084 -3.10884 0
M  V30 4210 H 398.57 0.775512 0.100522 0
M  V30 4211 H 401.154 1.91193 -0.367896 0
M  V30 4212 H 399.325 3.56994 1.53002 0
M  V30 4213 H 401.057 3.79056 1.4177 0
M  V30 4214 H 397.812 4.72119 -0.374218 0
M  V30 4215 H 398.236 6.30671 -2.46137 0
M  V30 4216 H 402.878 4.20286 -0.460352 0
M  V30 4217 H 400.596 7.11832 -3.8252 0
M  V30 4218 H 404.182 5.38752 -2.19631 0
M  V30 4219 H 403.062 6.82832 -3.8563 0
M  V30 4220 N 400.565 -0.0233959 1.57583 0
M  V30 4221 C 401.812 -0.713063 1.8953 0
M  V30 4222 C 402.14 -1.75056 0.847673 0
M  V30 4223 O 401.395 -1.95119 -0.150636 0
M  V30 4224 C 401.694 -1.41428 3.28227 0
M  V30 4225 C 401.36 -0.512222 4.47981 0
M  V30 4226 C 400.022 -0.263785 4.80476 0
M  V30 4227 C 402.374 0.110248 5.21083 0
M  V30 4228 C 399.702 0.615804 5.83459 0
M  V30 4229 C 402.054 0.977573 6.25001 0
M  V30 4230 C 400.718 1.23542 6.55968 0
M  V30 4231 H 399.988 -0.260928 0.69354 0
M  V30 4232 H 402.635 0.0271047 1.91481 0
M  V30 4233 H 400.94 -2.22791 3.22291 0
M  V30 4234 H 402.637 -1.95355 3.50196 0
M  V30 4235 H 399.227 -0.716013 4.22577 0
M  V30 4236 H 403.411 -0.0687137 4.96252 0
M  V30 4237 H 398.667 0.82382 6.05824 0
M  V30 4238 H 402.841 1.46638 6.80786 0
M  V30 4239 H 400.468 1.91871 7.35588 0
M  V30 4240 N 402.043 -1.548 -0.295768 0
M  V30 4241 C 403.289 -1.74588 -1.03184 0
M  V30 4242 C 403.622 -0.532962 -1.86744 0
M  V30 4243 O 402.897 0.469872 -1.88739 0
M  V30 4244 C 403.18 -3.03791 -1.93347 0
M  V30 4245 C 403.033 -4.35392 -1.12933 0
M  V30 4246 C 404.352 -3.28892 -2.92435 0
M  V30 4247 H 401.471 -0.635221 -0.373715 0
M  V30 4248 H 404.113 -1.87519 -0.30606 0
M  V30 4249 H 402.263 -2.92898 -2.55232 0
M  V30 4250 H 403.935 -4.58211 -0.532943 0
M  V30 4251 H 402.178 -4.31642 -0.432168 0
M  V30 4252 H 402.849 -5.22074 -1.79284 0
M  V30 4253 H 405.325 -3.39429 -2.4068 0
M  V30 4254 H 404.201 -4.20603 -3.52682 0
M  V30 4255 H 404.462 -2.47437 -3.6637 0
M  V30 4256 N 403.521 0.559213 -1.47345 0
M  V30 4257 C 404.469 1.68747 -1.60085 0
M  V30 4258 C 405.463 1.628 -0.46825 0
M  V30 4259 O 406.669 1.68009 -0.645977 0
M  V30 4260 H 403.044 0.558329 -0.503759 0
M  V30 4261 H 405.015 1.55138 -2.54902 0
M  V30 4262 C 403.764 3.07103 -1.63042 0
M  V30 4263 H 403.087 3.12361 -2.49541 0
M  V30 4264 H 404.527 3.85743 -1.76006 0
M  V30 4265 C 402.986 3.34935 -0.363357 0
M  V30 4266 O 403.516 3.98102 0.536416 0
M  V30 4267 N 401.722 2.89574 -0.244 0
M  V30 4268 H 401.269 2.38348 -0.977133 0
M  V30 4269 H 401.227 3.08566 0.602836 0
M  V30 4270 N 404.999 1.35443 0.805782 0
M  V30 4271 C 406.247 1.28507 1.55982 0
M  V30 4272 C 406.568 -0.140046 1.94496 0
M  V30 4273 O 405.838 -1.07666 1.63661 0
M  V30 4274 H 404.418 0.472676 0.578434 0
M  V30 4275 H 407.08 1.69555 0.961098 0
M  V30 4276 H 406.176 1.90148 2.47488 0
M  V30 4277 N 406.477 -1.02803 1.19454 0
M  V30 4278 C 407.705 -1.79841 1.02297 0
M  V30 4279 C 408.12 -1.83879 -0.428259 0
M  V30 4280 O 407.477 -1.28345 -1.29745 0
M  V30 4281 C 407.528 -3.24852 1.58598 0
M  V30 4282 O 407.249 -3.21097 2.98041 0
M  V30 4283 C 408.75 -4.18485 1.46236 0
M  V30 4284 H 405.97 -0.565936 0.360496 0
M  V30 4285 H 408.514 -1.2948 1.58288 0
M  V30 4286 H 406.669 -3.72401 1.06753 0
M  V30 4287 H 407.083 -4.12033 3.24545 0
M  V30 4288 H 408.557 -5.18121 1.90407 0
M  V30 4289 H 409.034 -4.37254 0.41301 0
M  V30 4290 H 409.64 -3.76811 1.97215 0
M  V30 4291 N 407.956 -0.998596 -1.21925 0
M  V30 4292 C 409.203 -0.677663 -1.90824 0
M  V30 4293 C 409.531 0.790905 -1.77693 0
M  V30 4294 O 408.786 1.58817 -1.14349 0
M  V30 4295 C 409.085 -1.03648 -3.42041 0
M  V30 4296 C 408.751 -2.49825 -3.75364 0
M  V30 4297 C 407.413 -2.8977 -3.8417 0
M  V30 4298 C 409.765 -3.44545 -3.91073 0
M  V30 4299 C 407.093 -4.23412 -4.06127 0
M  V30 4300 C 409.445 -4.77853 -4.14535 0
M  V30 4301 C 408.109 -5.17531 -4.21566 0
M  V30 4302 H 407.379 -0.247975 -0.698276 0
M  V30 4303 H 410.026 -1.25584 -1.44571 0
M  V30 4304 H 408.331 -0.376457 -3.89987 0
M  V30 4305 H 410.028 -0.766113 -3.93614 0
M  V30 4306 H 406.618 -2.17866 -3.69097 0
M  V30 4307 H 410.802 -3.14853 -3.83642 0
M  V30 4308 H 406.058 -4.53734 -4.09799 0
M  V30 4309 H 410.232 -5.51189 -4.25633 0
M  V30 4310 H 407.859 -6.21102 -4.38333 0
M  V30 4311 N 409.434 1.37368 -0.772513 0
M  V30 4312 C 410.366 2.28899 -0.117502 0
M  V30 4313 C 411.379 1.4867 0.663405 0
M  V30 4314 O 412.568 1.71314 0.501372 0
M  V30 4315 C 409.668 3.2788 0.857192 0
M  V30 4316 C 408.841 4.37207 0.129938 0
M  V30 4317 C 407.9 5.16257 1.01811 0
M  V30 4318 O 406.926 5.67159 0.481601 0
M  V30 4319 N 408.128 5.31058 2.3443 0
M  V30 4320 H 410.893 2.85752 -0.903662 0
M  V30 4321 H 408.454 1.49353 -0.62493 0
M  V30 4322 H 410.446 3.77647 1.45482 0
M  V30 4323 H 409.016 2.7179 1.54432 0
M  V30 4324 H 408.236 3.88827 -0.648605 0
M  V30 4325 H 409.524 5.07434 -0.372559 0
M  V30 4326 H 408.922 4.91287 2.80452 0
M  V30 4327 H 407.479 5.84131 2.89197 0
M  V30 4328 N 410.912 0.523116 1.48665 0
M  V30 4329 C 411.844 -0.280421 2.27478 0
M  V30 4330 C 412.857 -0.910694 1.34945 0
M  V30 4331 O 414.046 -0.790295 1.60052 0
M  V30 4332 C 411.146 -1.41171 3.08097 0
M  V30 4333 C 410.319 -0.884642 4.28361 0
M  V30 4334 C 409.378 -1.89622 4.90846 0
M  V30 4335 O 408.404 -1.4559 5.50265 0
M  V30 4336 N 409.606 -3.22801 4.82472 0
M  V30 4337 H 412.371 0.395481 2.97079 0
M  V30 4338 H 409.932 0.357018 1.57915 0
M  V30 4339 H 411.924 -2.08645 3.4677 0
M  V30 4340 H 410.494 -1.99139 2.40961 0
M  V30 4341 H 409.714 -0.0341177 3.94185 0
M  V30 4342 H 411.002 -0.511268 5.06225 0
M  V30 4343 H 410.4 -3.61246 4.35336 0
M  V30 4344 H 408.957 -3.85927 5.25265 0
M  V30 4345 N 412.39 -1.55475 0.257931 0
M  V30 4346 C 413.615 -2.04064 -0.370488 0
M  V30 4347 C 414.04 -1.13565 -1.49948 0
M  V30 4348 O 413.398 -0.130781 -1.80828 0
M  V30 4349 C 413.446 -3.50554 -0.845237 0
M  V30 4350 O 412.55 -3.63173 -1.95394 0
M  V30 4351 H 411.891 -0.659257 -0.0792243 0
M  V30 4352 H 414.421 -2.00903 0.387212 0
M  V30 4353 H 414.431 -3.91588 -1.14555 0
M  V30 4354 H 413.106 -4.15896 -0.0191259 0
M  V30 4355 H 411.683 -3.34039 -1.65748 0
M  V30 4356 N 413.868 0.0150385 -1.57593 0
M  V30 4357 C 415.096 0.714395 -1.94175 0
M  V30 4358 C 415.511 1.68135 -0.858841 0
M  V30 4359 O 414.868 1.81766 0.163567 0
M  V30 4360 C 414.919 1.45933 -3.30735 0
M  V30 4361 O 414.64 0.531167 -4.34868 0
M  V30 4362 C 416.141 2.25456 -3.81686 0
M  V30 4363 H 413.361 0.199923 -0.640525 0
M  V30 4364 H 415.905 -0.0316096 -2.04476 0
M  V30 4365 H 414.06 2.15709 -3.21789 0
M  V30 4366 H 414.474 1.05509 -5.13778 0
M  V30 4367 H 415.948 2.731 -4.79709 0
M  V30 4368 H 416.425 3.07485 -3.13607 0
M  V30 4369 H 417.031 1.60727 -3.9376 0
M  V30 4370 N 415.346 1.54954 0.287554 0
M  V30 4371 C 416.278 1.83224 1.37701 0
M  V30 4372 C 417.291 0.715898 1.46215 0
M  V30 4373 O 418.48 0.993565 1.48292 0
M  V30 4374 C 415.58 1.96723 2.75959 0
M  V30 4375 C 414.753 3.27253 2.90215 0
M  V30 4376 C 413.812 3.30998 4.09056 0
M  V30 4377 O 412.838 4.04457 4.00503 0
M  V30 4378 N 414.04 2.57353 5.20336 0
M  V30 4379 H 416.805 2.77254 1.138 0
M  V30 4380 H 414.366 1.54694 0.477652 0
M  V30 4381 H 416.358 1.96615 3.5373 0
M  V30 4382 H 414.928 1.09626 2.92747 0
M  V30 4383 H 414.148 3.40022 1.99447 0
M  V30 4384 H 415.436 4.13365 2.96659 0
M  V30 4385 H 414.834 1.97327 5.30169 0
M  V30 4386 H 413.391 2.62984 5.96391 0
M  V30 4387 N 416.824 -0.551391 1.4764 0
M  V30 4388 C 417.734 -1.68525 1.63207 0
M  V30 4389 C 418.75 -1.6621 0.514815 0
M  V30 4390 O 419.926 -1.85551 0.783113 0
M  V30 4391 C 416.991 -3.05025 1.64805 0
M  V30 4392 C 416.052 -3.18362 2.88 0
M  V30 4393 C 415.285 -4.4835 2.89513 0
M  V30 4394 O 415.508 -5.34163 2.00065 0
M  V30 4395 O 414.442 -4.65602 3.81443 0
M  V30 4396 H 418.268 -1.58333 2.59161 0
M  V30 4397 H 415.853 -0.722063 1.30792 0
M  V30 4398 H 417.735 -3.86245 1.68502 0
M  V30 4399 H 416.41 -3.15587 0.720197 0
M  V30 4400 H 415.317 -2.36518 2.89845 0
M  V30 4401 H 416.65 -3.12707 3.80099 0
M  V30 4402 N 418.302 -1.35869 -0.798587 0
M  V30 4403 C 419.232 -1.32118 -1.92528 0
M  V30 4404 C 420.213 -0.194209 -1.68988 0
M  V30 4405 O 421.398 -0.390426 -1.90235 0
M  V30 4406 C 418.528 -1.10047 -3.29404 0
M  V30 4407 C 417.482 -2.19471 -3.67446 0
M  V30 4408 C 416.808 -1.82555 -5.02571 0
M  V30 4409 C 418.108 -3.61495 -3.76987 0
M  V30 4410 H 419.802 -2.26394 -1.95924 0
M  V30 4411 H 417.348 -1.08981 -0.94123 0
M  V30 4412 H 419.301 -1.06061 -4.07835 0
M  V30 4413 H 418.025 -0.122195 -3.26371 0
M  V30 4414 H 416.684 -2.22568 -2.91306 0
M  V30 4415 H 416.332 -0.833249 -4.9605 0
M  V30 4416 H 416.032 -2.5581 -5.28995 0
M  V30 4417 H 417.556 -1.80108 -5.83432 0
M  V30 4418 H 418.97 -3.60676 -4.4563 0
M  V30 4419 H 417.367 -4.33577 -4.14887 0
M  V30 4420 H 418.437 -3.97065 -2.78329 0
M  V30 4421 N 419.78 1.02168 -1.19998 0
M  V30 4422 C 421.027 1.75685 -1.00702 0
M  V30 4423 C 421.355 1.88947 0.461426 0
M  V30 4424 O 420.61 1.40832 1.35885 0
M  V30 4425 C 420.909 3.18081 -1.62969 0
M  V30 4426 C 420.575 3.24809 -3.12746 0
M  V30 4427 C 419.237 3.26352 -3.53621 0
M  V30 4428 C 421.589 3.23379 -4.08749 0
M  V30 4429 C 418.917 3.2413 -4.89036 0
M  V30 4430 C 421.269 3.22698 -5.44104 0
M  V30 4431 C 419.933 3.22542 -5.84399 0
M  V30 4432 H 419.203 0.642877 -0.368496 0
M  V30 4433 H 421.85 1.19865 -1.49348 0
M  V30 4434 H 420.155 3.77027 -1.06573 0
M  V30 4435 H 421.852 3.73648 -1.45561 0
M  V30 4436 H 418.442 3.2434 -2.80181 0
M  V30 4437 H 422.626 3.21361 -3.78207 0
M  V30 4438 H 417.882 3.22338 -5.19527 0
M  V30 4439 H 422.056 3.20543 -6.18244 0
M  V30 4440 H 419.683 3.20575 -6.89301 0
M  V30 4441 N 421.258 1.00505 1.21394 0
M  V30 4442 C 422.507 0.683159 1.89778 0
M  V30 4443 C 422.82 -0.789471 1.7896 0
M  V30 4444 O 424.026 -1.22344 2.42372 0
M  V30 4445 C 422.482 1.17146 3.40301 0
M  V30 4446 C 422.09 2.67017 3.5973 0
M  V30 4447 C 423.834 0.924461 4.14311 0
M  V30 4448 C 421.741 3.09387 5.04017 0
M  V30 4449 H 420.671 0.25183 0.710702 0
M  V30 4450 H 423.322 1.21622 1.37406 0
M  V30 4451 H 421.704 0.566451 3.91928 0
M  V30 4452 H 422.878 3.32968 3.18542 0
M  V30 4453 H 421.193 2.89732 2.99073 0
M  V30 4454 H 423.79 1.21658 5.20676 0
M  V30 4455 H 424.133 -0.139286 4.16067 0
M  V30 4456 H 424.666 1.49226 3.6875 0
M  V30 4457 H 421.405 4.14989 5.07409 0
M  V30 4458 H 420.925 2.48149 5.46061 0
M  V30 4459 H 422.604 3.01371 5.72525 0
M  V30 4460 N 422.737 -1.36956 0.779787 0
M  V30 4461 C 424.148 -1.82094 0.412156 0
M  V30 4462 C 424.499 -1.64926 -1.06273 0
M  V30 4463 O 423.624 -1.16483 -1.82375 0
M  V30 4464 C 424.219 -3.3059 0.741319 0
M  V30 4465 C 422.778 -3.73974 0.426641 0
M  V30 4466 C 421.925 -2.59368 0.980987 0
M  V30 4467 H 424.876 -1.25314 0.973758 0
M  V30 4468 H 424.897 -3.80489 0.028887 0
M  V30 4469 H 424.409 -3.43054 1.81482 0
M  V30 4470 H 422.51 -3.67076 -0.639215 0
M  V30 4471 H 422.623 -4.69778 0.940515 0
M  V30 4472 H 420.987 -2.51463 0.404757 0
M  V30 4473 H 421.77 -2.74621 2.06005 0
M  V30 4474 N 424.215 -0.530993 -1.48385 0
M  V30 4475 C 425.163 0.244595 -2.3131 0
M  V30 4476 C 426.157 0.93451 -1.41291 0
M  V30 4477 O 427.363 0.85878 -1.58193 0
M  V30 4478 H 423.738 0.0977472 -0.74562 0
M  V30 4479 H 425.709 -0.474369 -2.94605 0
M  V30 4480 C 424.458 1.2779 -3.23365 0
M  V30 4481 H 423.781 0.756439 -3.92579 0
M  V30 4482 H 425.221 1.79198 -3.84271 0
M  V30 4483 C 423.68 2.31205 -2.45042 0
M  V30 4484 O 424.21 3.37661 -2.17596 0
M  V30 4485 N 422.416 2.04446 -2.0652 0
M  V30 4486 H 421.963 1.17891 -2.2904 0
M  V30 4487 H 421.921 2.73861 -1.54427 0
M  V30 4488 N 425.693 1.55336 -0.266172 0
M  V30 4489 C 426.942 1.98574 0.353749 0
M  V30 4490 C 427.255 1.15789 1.57646 0
M  V30 4491 O 428.461 1.49129 2.26876 0
M  V30 4492 C 426.917 3.53403 0.680747 0
M  V30 4493 C 426.525 4.44953 -0.52165 0
M  V30 4494 C 428.269 4.05251 1.26379 0
M  V30 4495 C 426.176 5.91156 -0.169736 0
M  V30 4496 H 425.106 0.741643 0.135949 0
M  V30 4497 H 427.757 1.79743 -0.369421 0
M  V30 4498 H 426.139 3.68001 1.46257 0
M  V30 4499 H 427.313 4.42121 -1.29869 0
M  V30 4500 H 425.628 4.03691 -1.02093 0
M  V30 4501 H 428.225 5.12021 1.54074 0
M  V30 4502 H 428.568 3.53749 2.19471 0
M  V30 4503 H 429.101 3.94057 0.544447 0
M  V30 4504 H 425.84 6.46736 -1.0683 0
M  V30 4505 H 425.36 5.97079 0.570717 0
M  V30 4506 H 427.039 6.4655 0.241245 0
M  V30 4507 N 427.171 -0.0066808 1.57599 0
M  V30 4508 C 428.399 -0.704087 1.94551 0
M  V30 4509 C 428.814 -1.67677 0.867746 0
M  V30 4510 O 428.171 -1.8185 -0.153925 0
M  V30 4511 C 428.222 -1.44177 3.31505 0
M  V30 4512 O 427.943 -0.508097 4.35144 0
M  V30 4513 C 429.444 -2.23429 3.82876 0
M  V30 4514 H 426.664 -0.196523 0.641576 0
M  V30 4515 H 429.208 0.042453 2.04456 0
M  V30 4516 H 427.363 -2.13999 3.22929 0
M  V30 4517 H 427.777 -1.02782 5.14331 0
M  V30 4518 H 429.251 -2.70552 4.8115 0
M  V30 4519 H 429.728 -3.05818 3.15233 0
M  V30 4520 H 430.334 -1.58636 3.94607 0
M  V30 4521 N 428.649 -1.55105 -0.279332 0
M  V30 4522 C 429.895 -1.75672 -1.01327 0
M  V30 4523 C 430.228 -0.552739 -1.86168 0
M  V30 4524 O 429.503 0.449827 -1.89227 0
M  V30 4525 C 429.786 -3.05825 -1.90114 0
M  V30 4526 C 429.639 -4.36565 -1.08309 0
M  V30 4527 C 430.958 -3.31975 -2.8893 0
M  V30 4528 H 428.077 -0.639149 -0.366957 0
M  V30 4529 H 430.719 -1.87833 -0.286154 0
M  V30 4530 H 428.869 -2.95588 -2.52111 0
M  V30 4531 H 430.541 -4.58751 -0.484314 0
M  V30 4532 H 428.784 -4.32076 -0.386362 0
M  V30 4533 H 429.455 -5.23946 -1.73737 0
M  V30 4534 H 431.931 -3.41963 -2.37067 0
M  V30 4535 H 430.807 -4.2432 -3.48201 0
M  V30 4536 H 431.068 -2.51309 -3.63725 0
M  V30 4537 N 430.127 0.543554 -1.4793 0
M  V30 4538 C 431.075 1.67039 -1.61866 0
M  V30 4539 C 432.069 1.62294 -0.48549 0
M  V30 4540 O 433.275 1.67315 -0.66376 0
M  V30 4541 H 429.65 0.552954 -0.509652 0
M  V30 4542 H 431.621 1.52426 -2.56533 0
M  V30 4543 C 430.37 3.05357 -1.6629 0
M  V30 4544 H 429.693 3.09696 -2.5284 0
M  V30 4545 H 431.133 3.83855 -1.80088 0
M  V30 4546 C 429.592 3.34531 -0.398861 0
M  V30 4547 O 430.122 3.98649 0.494162 0
M  V30 4548 N 428.328 2.89299 -0.2747 0
M  V30 4549 H 427.875 2.37298 -1.00236 0
M  V30 4550 H 427.833 3.09188 0.570075 0
M  V30 4551 N 431.605 1.3629 0.791371 0
M  V30 4552 C 432.553 1.30514 1.92533 0
M  V30 4553 C 433.547 0.197285 1.68247 0
M  V30 4554 O 434.753 0.364176 1.76278 0
M  V30 4555 H 431.128 0.406263 0.632815 0
M  V30 4556 H 433.099 2.26282 1.94523 0
M  V30 4557 C 431.848 1.10933 3.29529 0
M  V30 4558 H 431.171 1.95427 3.48781 0
M  V30 4559 H 432.611 1.10937 4.0923 0
M  V30 4560 C 431.07 -0.186123 3.36385 0
M  V30 4561 O 431.6 -1.17664 3.84081 0
M  V30 4562 N 429.806 -0.230128 2.89687 0
M  V30 4563 H 429.353 0.576545 2.51065 0
M  V30 4564 H 429.311 -1.09658 2.94657 0
M  V30 4565 N 433.083 -1.0153 1.20538 0
M  V30 4566 C 434.308 -1.79283 1.04271 0
M  V30 4567 C 434.733 -1.8372 -0.403544 0
M  V30 4568 O 434.091 -1.27321 -1.2907 0
M  V30 4569 C 434.139 -3.21535 1.63241 0
M  V30 4570 O 433.243 -4.03099 0.870908 0
M  V30 4571 H 432.584 -0.55293 0.367647 0
M  V30 4572 H 435.114 -1.27696 1.59859 0
M  V30 4573 H 435.124 -3.72243 1.6703 0
M  V30 4574 H 433.799 -3.1762 2.68497 0
M  V30 4575 H 432.376 -3.61693 0.907323 0
M  V30 4576 N 434.561 -1.01147 -1.20859 0
M  V30 4577 C 435.809 -0.696486 -1.89719 0
M  V30 4578 C 436.13 0.775788 -1.78904 0
M  V30 4579 O 435.4 1.55759 -1.18811 0
M  V30 4580 H 433.98 -0.254628 -0.702263 0
M  V30 4581 H 436.642 -1.28197 -1.46804 0
M  V30 4582 H 435.738 -0.975357 -2.96468 0
M  V30 4583 N 436.039 1.36541 -0.78704 0
M  V30 4584 C 437.264 2.0409 -0.369053 0
M  V30 4585 C 437.689 1.58957 1.00569 0
M  V30 4586 O 437.047 0.756926 1.64743 0
M  V30 4587 C 437.095 3.57924 -0.438466 0
M  V30 4588 O 436.199 4.08642 0.555479 0
M  V30 4589 H 435.54 0.645142 -0.157122 0
M  V30 4590 H 438.07 1.74545 -1.06749 0
M  V30 4591 H 438.08 4.06887 -0.301218 0
M  V30 4592 H 436.755 3.90127 -1.44132 0
M  V30 4593 H 435.332 3.70958 0.380088 0
M  V30 4594 N 437.518 0.538854 1.48102 0
M  V30 4595 C 438.748 0.0122958 2.06596 0
M  V30 4596 C 439.156 -1.27861 1.39457 0
M  V30 4597 O 438.499 -1.77348 0.478907 0
M  V30 4598 C 438.561 -0.273131 3.58461 0
M  V30 4599 C 438.225 0.92561 4.47528 0
M  V30 4600 C 439.222 1.82637 4.86765 0
M  V30 4601 C 436.907 1.13511 4.89306 0
M  V30 4602 C 438.901 2.92047 5.66558 0
M  V30 4603 C 436.588 2.23233 5.68868 0
M  V30 4604 C 437.586 3.12333 6.07402 0
M  V30 4605 O 437.274 4.20155 6.85365 0
M  V30 4606 H 437.006 0.0344283 0.675123 0
M  V30 4607 H 439.56 0.746494 1.91355 0
M  V30 4608 H 437.79 -1.06141 3.71848 0
M  V30 4609 H 439.479 -0.742842 3.99045 0
M  V30 4610 H 440.245 1.67649 4.55103 0
M  V30 4611 H 436.124 0.450835 4.5879 0
M  V30 4612 H 439.668 3.6162 5.96554 0
M  V30 4613 H 435.565 2.38201 5.99942 0
M  V30 4614 H 436.333 4.17975 7.03732 0
M  V30 4615 N 438.996 -1.55193 0.274407 0
M  V30 4616 C 440.224 -2.03987 -0.345943 0
M  V30 4617 C 440.639 -1.15279 -1.4952 0
M  V30 4618 O 439.996 -0.172759 -1.8168 0
M  V30 4619 C 440.047 -3.51898 -0.827631 0
M  V30 4620 O 439.768 -4.37231 0.275855 0
M  V30 4621 C 441.269 -4.16577 -1.51587 0
M  V30 4622 H 438.489 -0.666335 -0.0789892 0
M  V30 4623 H 441.033 -2.00423 0.406294 0
M  V30 4624 H 439.188 -3.55909 -1.52996 0
M  V30 4625 H 439.602 -5.24415 -0.0943638 0
M  V30 4626 H 441.076 -5.21678 -1.80433 0
M  V30 4627 H 441.553 -3.64707 -2.44716 0
M  V30 4628 H 442.159 -4.16568 -0.857409 0
M  V30 4629 N 440.474 -0.00167713 -1.576 0
M  V30 4630 C 441.714 0.687302 -1.92498 0
M  V30 4631 C 442.078 1.70844 -0.876144 0
M  V30 4632 O 443.279 2.44792 -1.11043 0
M  V30 4633 C 441.55 1.31217 -3.32441 0
M  V30 4634 S 443.109 2.02604 -3.89226 0
M  V30 4635 H 439.927 0.226985 -0.673794 0
M  V30 4636 H 442.529 -0.0587666 -1.95412 0
M  V30 4637 H 441.233 0.556164 -4.06614 0
M  V30 4638 H 440.764 2.09613 -3.32905 0
M  V30 4639 H 442.779 3.30137 -3.70438 0
M  V30 4640 N 441.952 1.55251 0.271103 0
M  V30 4641 C 442.884 1.84675 1.35749 0
M  V30 4642 C 443.897 0.731366 1.45447 0
M  V30 4643 O 445.086 1.00924 1.4723 0
M  V30 4644 C 442.186 1.99638 2.73857 0
M  V30 4645 C 441.359 3.30312 2.86727 0
M  V30 4646 C 440.418 3.35318 4.05522 0
M  V30 4647 O 439.444 4.08682 3.96191 0
M  V30 4648 N 440.646 2.62857 5.17577 0
M  V30 4649 H 443.411 2.78445 1.10853 0
M  V30 4650 H 440.972 1.55191 0.461218 0
M  V30 4651 H 442.964 2.00355 3.51625 0
M  V30 4652 H 441.534 1.12725 2.91568 0
M  V30 4653 H 440.754 3.42118 1.95829 0
M  V30 4654 H 442.042 4.16488 2.92258 0
M  V30 4655 H 441.44 2.02939 5.28046 0
M  V30 4656 H 439.997 2.69295 5.93568 0
M  V30 4657 N 443.43 -0.535701 1.48216 0
M  V30 4658 C 444.393 -1.623 1.61838 0
M  V30 4659 C 445.393 -1.53087 0.492024 0
M  V30 4660 O 446.583 -1.5686 0.757668 0
M  V30 4661 C 443.715 -3.01907 1.58319 0
M  V30 4662 H 444.908 -1.51564 2.58783 0
M  V30 4663 H 442.461 -0.757317 1.36727 0
M  V30 4664 H 443.196 -3.18155 0.628299 0
M  V30 4665 H 442.981 -3.10003 2.40085 0
M  V30 4666 H 444.471 -3.80969 1.71033 0
M  V30 4667 N 444.908 -1.36708 -0.784132 0
M  V30 4668 C 445.858 -1.2799 -1.88686 0
M  V30 4669 C 446.842 -0.170282 -1.59996 0
M  V30 4670 O 448.034 -0.403571 -1.72338 0
M  V30 4671 C 445.163 -1.07674 -3.25977 0
M  V30 4672 C 444.249 -2.23127 -3.60659 0
M  V30 4673 N 444.64 -3.48467 -3.66612 0
M  V30 4674 C 442.938 -2.15009 -3.90752 0
M  V30 4675 C 443.639 -4.24525 -3.97685 0
M  V30 4676 N 442.615 -3.53524 -4.12943 0
M  V30 4677 H 446.417 -2.22927 -1.91522 0
M  V30 4678 H 443.931 -1.29503 -0.979933 0
M  V30 4679 H 445.928 -0.995151 -4.04849 0
M  V30 4680 H 444.588 -0.13643 -3.24413 0
M  V30 4681 H 445.599 -3.82534 -3.49125 0
M  V30 4682 H 442.276 -1.28963 -3.97083 0
M  V30 4683 H 443.666 -5.32944 -4.0917 0
M  V30 4684 N 446.386 1.0089 -1.21074 0
M  V30 4685 C 447.334 2.11707 -0.963476 0
M  V30 4686 C 448.328 1.69172 0.0879032 0
M  V30 4687 O 449.534 1.79889 -0.0631415 0
M  V30 4688 H 445.909 0.692026 -0.294287 0
M  V30 4689 H 447.88 2.29743 -1.90422 0
M  V30 4690 C 446.629 3.43473 -0.540509 0
M  V30 4691 H 445.952 3.76634 -1.34114 0
M  V30 4692 H 447.392 4.22044 -0.406777 0
M  V30 4693 C 445.851 3.2849 0.748079 0
M  V30 4694 O 446.381 3.58883 1.8046 0
M  V30 4695 N 444.587 2.81715 0.713081 0
M  V30 4696 H 444.134 2.5718 -0.146973 0
M  V30 4697 H 444.092 2.72071 1.57558 0
M  V30 4698 N 447.864 1.01787 1.20321 0
M  V30 4699 C 449.089 0.727009 1.9424 0
M  V30 4700 C 449.514 -0.706179 1.74341 0
M  V30 4701 O 448.872 -1.48609 1.03852 0
M  V30 4702 C 448.92 1.06958 3.44372 0
M  V30 4703 O 448.024 0.181983 4.11998 0
M  V30 4704 H 447.365 0.269626 0.606793 0
M  V30 4705 H 449.895 1.36158 1.52716 0
M  V30 4706 H 449.905 1.02182 3.94997 0
M  V30 4707 H 448.58 2.11378 3.58179 0
M  V30 4708 H 447.157 0.287378 3.71791 0
M  V30 4709 N 449.342 -1.36122 0.79427 0
M  V30 4710 C 450.619 -1.93398 0.292685 0
M  V30 4711 C 450.999 -1.72567 -1.21589 0
M  V30 4712 O 450.347 -1.08745 -2.00965 0
M  V30 4713 C 450.557 -3.42099 0.690614 0
M  V30 4714 C 451.905 -4.19231 0.673105 0
M  V30 4715 O 452.929 -3.50559 0.631389 0
M  V30 4716 O 451.788 -5.41732 0.720362 0
M  V30 4717 H 448.882 -0.823712 0.0736693 0
M  V30 4718 H 451.428 -1.45273 0.87714 0
M  V30 4719 H 450.2 -3.50938 1.73085 0
M  V30 4720 H 449.823 -3.97519 0.0803036 0
M  V30 4721 N 450.82 -0.546701 -1.47814 0
M  V30 4722 C 452.048 -0.0232857 -2.06887 0
M  V30 4723 C 452.463 1.26571 -1.4009 0
M  V30 4724 O 451.82 1.7569 -0.493906 0
M  V30 4725 C 451.871 0.186975 -3.61016 0
M  V30 4726 O 451.592 -1.05097 -4.25307 0
M  V30 4727 C 453.093 0.748872 -4.36929 0
M  V30 4728 H 450.313 -0.0410763 -0.669742 0
M  V30 4729 H 452.857 -0.757117 -1.89968 0
M  V30 4730 H 451.012 0.870903 -3.77484 0
M  V30 4731 H 451.426 -0.842121 -5.17695 0
M  V30 4732 H 452.9 0.845334 -5.45489 0
M  V30 4733 H 453.377 1.75772 -4.02493 0
M  V30 4734 H 453.983 0.100979 -4.2518 0
M  V30 4735 N 452.299 1.55045 -0.282633 0
M  V30 4736 C 453.547 1.99365 0.331334 0
M  V30 4737 C 453.868 1.1725 1.55812 0
M  V30 4738 O 453.138 0.263871 1.94115 0
M  V30 4739 H 451.718 0.736397 0.125414 0
M  V30 4740 H 454.38 1.90964 -0.389711 0
M  V30 4741 H 453.476 3.0596 0.616036 0
M  V30 4742 N 453.777 0.010035 1.57597 0
M  V30 4743 C 454.707 -0.976857 2.12084 0
M  V30 4744 C 455.688 -1.35191 1.03235 0
M  V30 4745 O 456.873 -1.43389 1.3097 0
M  V30 4746 C 454.003 -2.26548 2.63236 0
M  V30 4747 C 452.957 -2.03175 3.76701 0
M  V30 4748 C 452.283 -3.38138 4.14206 0
M  V30 4749 C 453.583 -1.38625 5.03568 0
M  V30 4750 H 455.277 -0.523145 2.94794 0
M  V30 4751 H 452.823 -0.250195 1.4181 0
M  V30 4752 H 454.776 -2.95952 2.99984 0
M  V30 4753 H 453.5 -2.74051 1.77661 0
M  V30 4754 H 452.159 -1.36195 3.40362 0
M  V30 4755 H 451.807 -3.83363 3.25641 0
M  V30 4756 H 451.507 -3.23312 4.90656 0
M  V30 4757 H 453.031 -4.08841 4.53521 0
M  V30 4758 H 454.445 -1.98 5.38023 0
M  V30 4759 H 452.842 -1.34256 5.84889 0
M  V30 4760 H 453.912 -0.356722 4.83586 0
M  V30 4761 N 455.255 -1.55392 -0.262866 0
M  V30 4762 C 456.203 -1.8977 -1.345 0
M  V30 4763 C 457.197 -0.775063 -1.50629 0
M  V30 4764 O 458.403 -0.959519 -1.52293 0
M  V30 4765 H 454.778 -0.602467 -0.450041 0
M  V30 4766 H 456.749 -2.80147 -1.02762 0
M  V30 4767 C 455.498 -2.19501 -2.69657 0
M  V30 4768 H 454.821 -3.05378 -2.5804 0
M  V30 4769 H 456.261 -2.47469 -3.44289 0
M  V30 4770 C 454.72 -1.00597 -3.21531 0
M  V30 4771 O 455.25 -0.245768 -4.00947 0
M  V30 4772 N 453.456 -0.800911 -2.79345 0
M  V30 4773 H 453.003 -1.42079 -2.14875 0
M  V30 4774 H 452.961 -0.00697996 -3.14399 0
M  V30 4775 N 456.733 0.527833 -1.48498 0
M  V30 4776 C 458.149 0.856571 -1.34666 0
M  V30 4777 C 458.349 1.98271 -0.35931 0
M  V30 4778 O 457.405 2.51551 0.218703 0
M  V30 4779 C 458.718 1.22207 -2.74747 0
M  V30 4780 C 460.266 1.33183 -2.83251 0
M  V30 4781 C 460.741 1.73075 -4.24039 0
M  V30 4782 N 462.232 1.80174 -4.26722 0
M  V30 4783 C 462.967 2.1243 -5.32598 0
M  V30 4784 N 462.463 2.43096 -6.4875 0
M  V30 4785 N 464.256 2.13454 -5.19994 0
M  V30 4786 H 456.407 -0.215174 -2.11307 0
M  V30 4787 H 458.67 -0.0336281 -0.947403 0
M  V30 4788 H 458.376 0.468195 -3.4857 0
M  V30 4789 H 458.25 2.17173 -3.08409 0
M  V30 4790 H 460.637 2.07647 -2.09683 0
M  V30 4791 H 460.718 0.363333 -2.53206 0
M  V30 4792 H 460.362 0.991712 -4.98124 0
M  V30 4793 H 460.292 2.70979 -4.51529 0
M  V30 4794 H 462.783 1.58744 -3.42942 0
M  V30 4795 H 463.096 2.6682 -7.25277 0
M  V30 4796 H 461.441 2.40611 -6.52021 0
M  V30 4797 H 464.632 1.88956 -4.28268 0
M  V30 4798 H 464.805 2.38261 -6.02608 0
M  V30 4799 N 458.211 1.37122 0.776871 0
M  V30 4800 C 459.439 1.3523 1.5659 0
M  V30 4801 C 459.854 -0.0635518 1.88693 0
M  V30 4802 O 459.211 -1.02394 1.51069 0
M  V30 4803 C 459.262 2.18583 2.8793 0
M  V30 4804 O 458.983 3.5465 2.57206 0
M  V30 4805 C 460.484 2.24612 3.82183 0
M  V30 4806 H 457.704 0.4634 0.485285 0
M  V30 4807 H 460.248 1.80392 0.963266 0
M  V30 4808 H 458.403 1.76943 3.4463 0
M  V30 4809 H 458.817 3.98286 3.41275 0
M  V30 4810 H 460.291 2.87267 4.71361 0
M  V30 4811 H 460.768 1.25309 4.20944 0
M  V30 4812 H 461.374 2.66543 3.31414 0
M  V30 4813 N 459.689 -1.00246 1.21608 0
M  V30 4814 C 460.917 -1.77631 1.06089 0
M  V30 4815 C 461.332 -1.84746 -0.38916 0
M  V30 4816 O 460.689 -1.31068 -1.26994 0
M  V30 4817 C 460.74 -3.21415 1.65453 0
M  V30 4818 O 460.461 -3.14703 3.04785 0
M  V30 4819 C 461.962 -4.15289 1.55079 0
M  V30 4820 H 459.182 -0.558162 0.37242 0
M  V30 4821 H 461.726 -1.26093 1.60999 0
M  V30 4822 H 459.881 -3.70053 1.14629 0
M  V30 4823 H 460.295 -4.05056 3.33212 0
M  V30 4824 H 461.769 -5.13965 2.01355 0
M  V30 4825 H 462.246 -4.36279 0.505665 0
M  V30 4826 H 462.852 -3.72543 2.05163 0
M  V30 4827 N 461.167 -1.02423 -1.1978 0
M  V30 4828 C 462.413 -0.719051 -1.89625 0
M  V30 4829 C 462.746 0.750083 -1.7913 0
M  V30 4830 O 462.021 1.54574 -1.18056 0
M  V30 4831 C 462.304 -1.16499 -3.40735 0
M  V30 4832 C 462.157 -2.695 -3.60125 0
M  V30 4833 C 463.476 -0.742166 -4.33797 0
M  V30 4834 H 460.595 -0.26269 -0.688595 0
M  V30 4835 H 463.237 -1.27333 -1.41018 0
M  V30 4836 H 461.387 -0.69341 -3.82262 0
M  V30 4837 H 463.059 -3.24569 -3.278 0
M  V30 4838 H 461.302 -3.10113 -3.03336 0
M  V30 4839 H 461.973 -2.95757 -4.66081 0
M  V30 4840 H 464.449 -1.1477 -3.99959 0
M  V30 4841 H 463.325 -1.08213 -5.38127 0
M  V30 4842 H 463.586 0.355747 -4.40666 0
M  V30 4843 N 462.645 1.35699 -0.801477 0
M  V30 4844 C 463.873 2.03157 -0.391768 0
M  V30 4845 C 464.288 1.60412 0.995668 0
M  V30 4846 O 463.645 0.799228 1.64069 0
M  V30 4847 C 463.696 3.58566 -0.459671 0
M  V30 4848 O 463.417 3.99756 -1.7924 0
M  V30 4849 C 464.918 4.4328 -0.0421205 0
M  V30 4850 H 462.138 0.651688 -0.159825 0
M  V30 4851 H 464.682 1.73426 -1.08368 0
M  V30 4852 H 462.837 3.86963 0.183939 0
M  V30 4853 H 463.251 4.94387 -1.75162 0
M  V30 4854 H 464.725 5.51821 -0.140754 0
M  V30 4855 H 465.202 4.27383 1.01196 0
M  V30 4856 H 465.808 4.20168 -0.658687 0
M  V30 4857 N 464.123 0.554532 1.47522 0
M  V30 4858 C 465.351 0.034257 2.06872 0
M  V30 4859 C 465.766 -1.25826 1.40759 0
M  V30 4860 O 465.123 -1.75425 0.503217 0
M  V30 4861 C 465.174 -0.167827 3.6111 0
M  V30 4862 O 464.895 1.07351 4.24744 0
M  V30 4863 C 466.396 -0.72569 4.3732 0
M  V30 4864 H 463.616 0.0446275 0.669514 0
M  V30 4865 H 466.16 0.767181 1.89564 0
M  V30 4866 H 464.315 -0.850872 3.7794 0
M  V30 4867 H 464.729 0.869563 5.17242 0
M  V30 4868 H 466.203 -0.816394 5.45929 0
M  V30 4869 H 466.68 -1.73635 4.0342 0
M  V30 4870 H 467.286 -0.0784292 4.25228 0
M  V30 4871 N 465.601 -1.54893 0.290851 0
M  V30 4872 C 466.85 -1.99111 -0.322113 0
M  V30 4873 C 467.163 -1.18283 -1.55784 0
M  V30 4874 O 468.369 -1.5272 -2.24475 0
M  V30 4875 C 466.825 -3.54442 -0.624438 0
M  V30 4876 C 466.433 -4.44066 0.592373 0
M  V30 4877 C 468.177 -4.07211 -1.19916 0
M  V30 4878 C 466.084 -5.90812 0.263762 0
M  V30 4879 H 465.014 -0.743712 -0.124133 0
M  V30 4880 H 467.665 -1.79132 0.39797 0
M  V30 4881 H 466.047 -3.70281 -1.40384 0
M  V30 4882 H 467.221 -4.39999 1.36886 0
M  V30 4883 H 465.536 -4.02015 1.08502 0
M  V30 4884 H 468.133 -5.14407 -1.45909 0
M  V30 4885 H 468.476 -3.57196 -2.13815 0
M  V30 4886 H 469.009 -3.94873 -0.481687 0
M  V30 4887 H 465.748 -6.44955 1.17105 0
M  V30 4888 H 465.268 -5.97911 -0.475655 0
M  V30 4889 H 466.947 -6.46852 -0.138354 0
M  V30 4890 N 467.08 -0.0183926 -1.57589 0
M  V30 4891 C 468.308 0.673046 -1.95647 0
M  V30 4892 C 468.723 1.66275 -0.894312 0
M  V30 4893 O 468.08 1.82072 0.124975 0
M  V30 4894 C 468.131 1.38884 -3.33756 0
M  V30 4895 O 467.852 0.438806 -4.35897 0
M  V30 4896 C 469.353 2.1731 -3.86383 0
M  V30 4897 H 466.573 0.186292 -0.644621 0
M  V30 4898 H 469.117 -0.0749748 -2.04363 0
M  V30 4899 H 467.272 2.08835 -3.26293 0
M  V30 4900 H 467.686 0.945869 -5.15901 0
M  V30 4901 H 469.16 2.62863 -4.85394 0
M  V30 4902 H 469.637 3.00764 -3.20059 0
M  V30 4903 H 470.243 1.52339 -3.97081 0
M  V30 4904 N 468.558 1.5553 0.254621 0
M  V30 4905 C 469.804 1.77262 0.985193 0
M  V30 4906 C 470.137 0.582286 1.85265 0
M  V30 4907 O 469.412 -0.419666 1.89919 0
M  V30 4908 C 469.695 3.0881 1.85225 0
M  V30 4909 C 469.548 4.38233 1.0135 0
M  V30 4910 C 470.867 3.3653 2.83612 0
M  V30 4911 H 467.986 0.644906 0.356742 0
M  V30 4912 H 470.628 1.88264 0.256236 0
M  V30 4913 H 468.778 2.99562 2.47376 0
M  V30 4914 H 470.45 4.59463 0.411269 0
M  V30 4915 H 468.693 4.32636 0.317574 0
M  V30 4916 H 469.364 5.26644 1.65379 0
M  V30 4917 H 471.84 3.45691 2.31596 0
M  V30 4918 H 470.716 4.29805 3.41407 0
M  V30 4919 H 470.977 2.57064 3.59681 0
M  V30 4920 N 470.036 -0.519951 1.48776 0
M  V30 4921 C 471.266 -1.29783 1.60748 0
M  V30 4922 C 471.674 -1.87253 0.27072 0
M  V30 4923 O 471.017 -1.67628 -0.751438 0
M  V30 4924 C 471.079 -2.47984 2.60277 0
M  V30 4925 C 470.743 -2.11526 4.051 0
M  V30 4926 C 471.74 -1.66608 4.92481 0
M  V30 4927 C 469.425 -2.21742 4.50706 0
M  V30 4928 C 471.419 -1.32384 6.23501 0
M  V30 4929 C 469.106 -1.87129 5.81744 0
M  V30 4930 C 470.104 -1.42523 6.67964 0
M  V30 4931 O 469.792 -1.0837 7.96562 0
M  V30 4932 H 469.524 -0.400562 0.544542 0
M  V30 4933 H 472.078 -0.632879 1.95407 0
M  V30 4934 H 470.308 -3.17493 2.2076 0
M  V30 4935 H 471.997 -3.10036 2.61978 0
M  V30 4936 H 472.763 -1.58178 4.58481 0
M  V30 4937 H 468.642 -2.55415 3.83776 0
M  V30 4938 H 472.186 -0.974949 6.90754 0
M  V30 4939 H 468.083 -1.95204 6.15277 0
M  V30 4940 H 468.851 -1.21681 8.09405 0
M  V30 4941 N 471.514 -1.37532 -0.769588 0
M  V30 4942 C 472.477 -1.33292 -1.86456 0
M  V30 4943 C 473.477 -0.236537 -1.59051 0
M  V30 4944 O 474.667 -0.492511 -1.67093 0
M  V30 4945 C 471.799 -1.07118 -3.23633 0
M  V30 4946 H 472.992 -2.30692 -1.91628 0
M  V30 4947 H 470.545 -1.22593 -0.969572 0
M  V30 4948 H 471.28 -0.102578 -3.24138 0
M  V30 4949 H 471.065 -1.86479 -3.44917 0
M  V30 4950 H 472.555 -1.06806 -4.03711 0
M  V30 4951 N 472.992 0.995999 -1.22138 0
M  V30 4952 C 473.902 2.11985 -1.00496 0
M  V30 4953 C 474.918 1.7394 0.0457701 0
M  V30 4954 O 476.094 2.00868 -0.146273 0
M  V30 4955 C 473.159 3.41779 -0.582086 0
M  V30 4956 C 472.22 3.93943 -1.70608 0
M  V30 4957 C 471.453 5.17542 -1.30328 0
M  V30 4958 O 471.676 5.70114 -0.180743 0
M  V30 4959 O 470.61 5.63382 -2.11861 0
M  V30 4960 H 474.436 2.33123 -1.94647 0
M  V30 4961 H 472.021 1.10358 -1.00705 0
M  V30 4962 H 473.903 4.1989 -0.356467 0
M  V30 4963 H 472.578 3.22007 0.330592 0
M  V30 4964 H 471.485 3.17019 -1.98619 0
M  V30 4965 H 472.818 4.18141 -2.59651 0
M  V30 4966 N 474.47 1.03057 1.19235 0
M  V30 4967 C 475.881 0.757449 1.70645 0
M  V30 4968 C 476.232 -0.722735 1.82403 0
M  V30 4969 O 475.357 -1.56325 1.49638 0
M  V30 4970 C 475.952 1.36833 3.09939 0
M  V30 4971 C 474.511 1.14375 3.58602 0
M  V30 4972 C 473.658 1.46533 2.35422 0
M  V30 4973 H 476.609 1.19828 1.04052 0
M  V30 4974 H 476.63 0.766184 3.72706 0
M  V30 4975 H 476.142 2.44562 3.01349 0
M  V30 4976 H 474.243 0.0847542 3.72504 0
M  V30 4977 H 474.356 1.83366 4.42622 0
M  V30 4978 H 472.72 0.884712 2.38841 0
M  V30 4979 H 473.503 2.55349 2.2946 0
M  V30 4980 N 475.948 -1.35272 0.808662 0
M  V30 4981 C 477.359 -1.81179 0.450688 0
M  V30 4982 C 477.71 -1.67143 -1.02751 0
M  V30 4983 O 476.835 -1.20325 -1.79864 0
M  V30 4984 C 477.43 -3.28943 0.811275 0
M  V30 4985 C 475.989 -3.72985 0.505871 0
M  V30 4986 C 475.136 -2.57229 1.03578 0
M  V30 4987 H 478.087 -1.2322 1.00012 0
M  V30 4988 H 478.108 -3.80342 0.109588 0
M  V30 4989 H 477.62 -3.39127 1.88718 0
M  V30 4990 H 475.721 -3.68349 -0.561209 0
M  V30 4991 H 475.834 -4.67677 1.03995 0
M  V30 4992 H 474.198 -2.50548 0.458005 0
M  V30 4993 H 474.981 -2.7019 2.11784 0
M  V30 4994 N 477.426 -0.562348 -1.47226 0
M  V30 4995 C 478.373 0.182461 -2.30078 0
M  V30 4996 C 479.343 0.903503 -1.39377 0
M  V30 4997 O 480.528 0.898188 -1.68337 0
M  V30 4998 C 477.668 1.20322 -3.23445 0
M  V30 4999 C 476.781 0.487717 -4.29238 0
M  V30 5000 C 475.916 1.49422 -5.09752 0
M  V30 5001 C 474.955 0.763976 -6.07314 0
M  V30 5002 N 474.092 1.71755 -6.80768 0
M  V30 5003 H 478.932 -0.530169 -2.93246 0
M  V30 5004 H 476.469 -0.273276 -1.44539 0
M  V30 5005 H 478.427 1.80768 -3.76004 0
M  V30 5006 H 477.057 1.88382 -2.6213 0
M  V30 5007 H 476.109 -0.231374 -3.79696 0
M  V30 5008 H 477.421 -0.0841003 -4.98729 0
M  V30 5009 H 476.575 2.17206 -5.66486 0
M  V30 5010 H 475.314 2.09995 -4.40174 0
M  V30 5011 H 474.319 0.0722344 -5.49753 0
M  V30 5012 H 475.544 0.16391 -6.78902 0
M  V30 5013 H 473.49 2.31177 -6.13916 0
M  V30 5014 H 473.407 1.19802 -7.46447 0
M  V30 5015 H 474.675 2.38638 -7.42073 0
M  V30 5016 N 478.904 1.54736 -0.299062 0
M  V30 5017 C 480.315 1.8569 0.193971 0
M  V30 5018 C 480.666 1.22101 1.53577 0
M  V30 5019 O 479.791 0.51799 2.10109 0
M  V30 5020 C 480.386 3.36895 0.358733 0
M  V30 5021 C 478.945 3.67887 0.795986 0
M  V30 5022 C 478.092 2.77131 -0.096807 0
M  V30 5023 H 481.043 1.49934 -0.520134 0
M  V30 5024 H 481.064 3.61294 1.19361 0
M  V30 5025 H 480.576 3.83148 -0.617998 0
M  V30 5026 H 478.677 3.27151 1.78334 0
M  V30 5027 H 478.79 4.75114 0.616718 0
M  V30 5028 H 477.154 2.51153 0.423581 0
M  V30 5029 H 477.937 3.26204 -1.06986 0
M  V30 5030 N 480.382 0.0267497 1.57577 0
M  V30 5031 C 481.629 -0.652404 1.91703 0
M  V30 5032 C 481.957 -1.72271 0.902936 0
M  V30 5033 O 481.212 -1.955 -0.0884843 0
M  V30 5034 C 481.511 -1.30914 3.3256 0
M  V30 5035 C 481.177 -0.369441 4.49384 0
M  V30 5036 C 479.839 -0.110791 4.81072 0
M  V30 5037 C 482.191 0.275971 5.20469 0
M  V30 5038 C 479.519 0.801116 5.81205 0
M  V30 5039 C 481.871 1.17592 6.21575 0
M  V30 5040 C 480.535 1.44348 6.51705 0
M  V30 5041 H 479.805 -0.238732 0.70149 0
M  V30 5042 H 482.452 0.0880091 1.91298 0
M  V30 5043 H 480.757 -2.12425 3.29216 0
M  V30 5044 H 482.454 -1.84115 3.56234 0
M  V30 5045 H 479.044 -0.581211 4.24641 0
M  V30 5046 H 483.228 0.0892 4.9622 0
M  V30 5047 H 478.484 1.01614 6.02897 0
M  V30 5048 H 482.658 1.68223 6.75777 0
M  V30 5049 H 480.285 2.15176 7.29111 0
M  V30 5050 N 481.861 -1.55662 -0.24637 0
M  V30 5051 C 483.11 -1.7672 -0.972254 0
M  V30 5052 C 483.423 -0.59078 -1.86465 0
M  V30 5053 O 484.629 -0.684391 -2.62732 0
M  V30 5054 C 483.085 -3.12869 -1.7788 0
M  V30 5055 C 482.693 -4.38161 -0.933768 0
M  V30 5056 C 484.437 -3.43265 -2.49738 0
M  V30 5057 C 482.344 -5.6534 -1.73623 0
M  V30 5058 H 481.274 -0.658795 -0.366749 0
M  V30 5059 H 483.925 -1.82092 -0.226902 0
M  V30 5060 H 482.307 -3.01606 -2.56612 0
M  V30 5061 H 483.481 -4.60413 -0.188736 0
M  V30 5062 H 481.796 -4.15102 -0.328488 0
M  V30 5063 H 484.393 -4.35501 -3.10231 0
M  V30 5064 H 484.736 -2.64614 -3.2138 0
M  V30 5065 H 485.269 -3.55746 -1.78016 0
M  V30 5066 H 482.008 -6.46814 -1.06354 0
M  V30 5067 H 481.528 -5.47188 -2.45653 0
M  V30 5068 H 483.207 -6.04616 -2.30323 0
M  V30 5069 N 483.339 0.512053 -1.4905 0
M  V30 5070 C 484.567 1.29116 -1.61669 0
M  V30 5071 C 484.982 1.86655 -0.283787 0
M  V30 5072 O 484.339 1.67293 0.729331 0
M  V30 5073 C 484.39 2.4293 -2.67707 0
M  V30 5074 O 484.111 1.87758 -3.95826 0
M  V30 5075 C 485.612 3.34476 -2.90931 0
M  V30 5076 H 482.832 0.392009 -0.544583 0
M  V30 5077 H 485.376 0.615881 -1.95006 0
M  V30 5078 H 483.531 3.06308 -2.37179 0
M  V30 5079 H 483.945 2.62393 -4.54148 0
M  V30 5080 H 485.419 4.10642 -3.68886 0
M  V30 5081 H 485.896 3.90801 -2.00427 0
M  V30 5082 H 486.502 2.76874 -3.22832 0
M  V30 5083 N 484.817 1.37938 0.762283 0
M  V30 5084 C 486.042 1.37059 1.55659 0
M  V30 5085 C 486.467 -0.0396123 1.88058 0
M  V30 5086 O 485.825 -1.01929 1.49934 0
M  V30 5087 C 485.873 2.22494 2.83776 0
M  V30 5088 O 484.977 1.63607 3.78559 0
M  V30 5089 H 484.318 0.467892 0.47114 0
M  V30 5090 H 486.848 1.81587 0.942725 0
M  V30 5091 H 486.858 2.36045 3.32786 0
M  V30 5092 H 485.533 3.24993 2.59524 0
M  V30 5093 H 484.11 1.5915 3.37233 0
M  V30 5094 N 486.295 -0.989507 1.22664 0
M  V30 5095 C 487.243 -2.10148 0.997035 0
M  V30 5096 C 488.237 -1.6929 -0.0609783 0
M  V30 5097 O 489.443 -1.79766 0.0917523 0
M  V30 5098 H 485.818 -0.687256 0.305259 0
M  V30 5099 H 487.789 -2.26685 1.94053 0
M  V30 5100 C 486.538 -3.4257 0.595085 0
M  V30 5101 H 485.861 -3.74453 1.40089 0
M  V30 5102 H 487.301 -4.21344 0.473869 0
M  V30 5103 C 485.76 -3.29638 -0.695725 0
M  V30 5104 O 486.29 -3.61709 -1.74727 0
M  V30 5105 N 484.496 -2.82814 -0.668173 0
M  V30 5106 H 484.043 -2.56914 0.18787 0
M  V30 5107 H 484.001 -2.74544 -1.5321 0
M  V30 5108 N 487.773 -1.03688 -1.18687 0
M  V30 5109 C 488.721 -0.618292 -2.24232 0
M  V30 5110 C 489.715 0.353045 -1.6568 0
M  V30 5111 O 490.921 0.220749 -1.78641 0
M  V30 5112 H 487.296 -0.181711 -0.729716 0
M  V30 5113 H 489.267 -1.51893 -2.56848 0
M  V30 5114 C 488.016 0.00677342 -3.47699 0
M  V30 5115 H 487.339 -0.731692 -3.93047 0
M  V30 5116 H 488.779 0.262492 -4.23187 0
M  V30 5117 C 487.238 1.25572 -3.12623 0
M  V30 5118 O 487.768 2.34691 -3.26011 0
M  V30 5119 N 485.974 1.14755 -2.66982 0
M  V30 5120 H 485.521 0.259601 -2.56289 0
M  V30 5121 H 485.479 1.98412 -2.43885 0
M  V30 5122 N 489.251 1.34841 -0.815825 0
M  V30 5123 C 490.476 2.03261 -0.41226 0
M  V30 5124 C 490.901 1.61055 0.971751 0
M  V30 5125 O 490.259 0.7917 1.63101 0
M  V30 5126 C 490.307 3.56914 -0.514289 0
M  V30 5127 O 489.411 4.09728 0.468675 0
M  V30 5128 H 488.752 0.641664 -0.170771 0
M  V30 5129 H 491.282 1.72241 -1.10427 0
M  V30 5130 H 491.292 4.06156 -0.387457 0
M  V30 5131 H 489.967 3.86982 -1.52375 0
M  V30 5132 H 488.544 3.71681 0.301316 0
M  V30 5133 N 490.729 0.570148 1.46925 0
M  V30 5134 C 491.677 -0.183181 2.31878 0
M  V30 5135 C 492.671 -0.896721 1.43719 0
M  V30 5136 O 493.877 -0.816536 1.60414 0
M  V30 5137 H 490.252 -0.077944 0.74795 0
M  V30 5138 H 492.223 0.552312 2.93244 0
M  V30 5139 C 490.972 -1.19172 3.2664 0
M  V30 5140 H 490.295 -0.652088 3.94446 0
M  V30 5141 H 491.735 -1.68946 3.88887 0
M  V30 5142 C 490.194 -2.24627 2.51086 0
M  V30 5143 O 490.724 -3.31773 2.26472 0
M  V30 5144 N 488.93 -1.98898 2.11867 0
M  V30 5145 H 488.477 -1.11777 2.32086 0
M  V30 5146 H 488.435 -2.6967 1.61634 0
M  V30 5147 N 492.207 -1.54576 0.307264 0
M  V30 5148 C 493.618 -1.8579 -0.184121 0
M  V30 5149 C 493.969 -1.22914 -1.52927 0
M  V30 5150 O 493.094 -0.529126 -2.09831 0
M  V30 5151 C 493.689 -3.37081 -0.340862 0
M  V30 5152 C 492.248 -3.68304 -0.776465 0
M  V30 5153 C 491.395 -2.77076 0.111503 0
M  V30 5154 H 494.346 -1.49656 0.528078 0
M  V30 5155 H 494.367 -3.61922 -1.17443 0
M  V30 5156 H 493.879 -3.82815 0.638309 0
M  V30 5157 H 491.98 -3.28092 -1.76596 0
M  V30 5158 H 492.093 -4.75434 -0.591512 0
M  V30 5159 H 490.457 -2.51374 -0.410256 0
M  V30 5160 H 491.24 -3.25632 1.08714 0
M  V30 5161 N 493.685 -0.035106 -1.57561 0
M  V30 5162 C 494.931 0.64318 -1.92331 0
M  V30 5163 C 495.264 1.71434 -0.912368 0
M  V30 5164 O 494.539 1.94395 0.0640303 0
M  V30 5165 C 494.822 1.25411 -3.37556 0
M  V30 5166 C 494.675 0.192109 -4.4939 0
M  V30 5167 C 495.994 2.17041 -3.82859 0
M  V30 5168 H 493.113 0.232341 -0.699419 0
M  V30 5169 H 495.755 -0.0935889 -1.89769 0
M  V30 5170 H 493.905 1.88205 -3.39869 0
M  V30 5171 H 495.577 -0.438849 -4.59208 0
M  V30 5172 H 493.82 -0.481725 -4.31117 0
M  V30 5173 H 494.491 0.659292 -5.48049 0
M  V30 5174 H 496.967 1.64228 -3.8232 0
M  V30 5175 H 495.843 2.56738 -4.85157 0
M  V30 5176 H 496.104 3.06401 -3.18702 0
M  V30 5177 N 495.163 1.55791 0.238111 0
M  V30 5178 C 496.073 1.94196 1.31625 0
M  V30 5179 C 497.089 0.843545 1.52185 0
M  V30 5180 O 498.265 1.1457 1.65637 0
M  V30 5181 C 495.33 2.2365 2.64918 0
M  V30 5182 C 494.391 3.46971 2.52804 0
M  V30 5183 C 493.624 3.7501 3.79741 0
M  V30 5184 O 493.847 3.04982 4.82019 0
M  V30 5185 O 492.781 4.68525 3.77846 0
M  V30 5186 H 496.607 2.86044 1.02043 0
M  V30 5187 H 494.192 1.42786 0.439603 0
M  V30 5188 H 496.074 2.43863 3.4367 0
M  V30 5189 H 494.749 1.34979 2.94215 0
M  V30 5190 H 493.656 3.32055 1.72309 0
M  V30 5191 H 494.989 4.35971 2.28451 0
M  V30 5192 N 496.642 -0.504142 1.49319 0
M  V30 5193 C 497.919 -1.26548 1.49147 0
M  V30 5194 C 498.299 -2.09977 0.21744 0
M  V30 5195 O 497.647 -2.14028 -0.800269 0
M  V30 5196 C 497.857 -2.12489 2.76857 0
M  V30 5197 C 499.205 -2.7178 3.26222 0
M  V30 5198 O 500.229 -2.22758 2.77952 0
M  V30 5199 O 499.088 -3.61015 4.10281 0
M  V30 5200 H 496.182 -0.572495 0.596806 0
M  V30 5201 H 498.728 -0.51867 1.61579 0
M  V30 5202 H 497.5 -1.50796 3.61077 0
M  V30 5203 H 497.123 -2.94368 2.6727 0
M  V30 5204 N 498.12 -1.38341 -0.754957 0
M  V30 5205 C 499.03 -1.3769 -1.89944 0
M  V30 5206 C 500.046 -0.274194 -1.71826 0
M  V30 5207 O 501.222 -0.512391 -1.94773 0
M  V30 5208 C 498.287 -1.19938 -3.25293 0
M  V30 5209 C 497.348 -2.40001 -3.55946 0
M  V30 5210 C 496.581 -2.23087 -4.84838 0
M  V30 5211 O 496.804 -1.22386 -5.57116 0
M  V30 5212 O 495.738 -3.11646 -5.14937 0
M  V30 5213 H 499.564 -2.3412 -1.93446 0
M  V30 5214 H 497.149 -1.19246 -0.900044 0
M  V30 5215 H 499.031 -1.12093 -4.06218 0
M  V30 5216 H 497.706 -0.265919 -3.22606 0
M  V30 5217 H 496.613 -2.53421 -2.75188 0
M  V30 5218 H 497.946 -3.31973 -3.63394 0
M  V30 5219 N 499.598 0.982988 -1.23187 0
M  V30 5220 C 500.875 1.69814 -0.970707 0
M  V30 5221 C 501.255 2.04811 0.511424 0
M  V30 5222 O 500.603 1.73924 1.48198 0
M  V30 5223 C 500.813 2.94143 -1.87831 0
M  V30 5224 C 502.161 3.66712 -2.14026 0
M  V30 5225 O 503.185 3.04171 -1.8536 0
M  V30 5226 O 502.044 4.79258 -2.62629 0
M  V30 5227 H 499.138 0.741659 -0.365884 0
M  V30 5228 H 501.684 1.03844 -1.34218 0
M  V30 5229 H 500.456 2.64858 -2.88038 0
M  V30 5230 H 500.079 3.6785 -1.50905 0
M  V30 5231 N 501.076 1.04316 1.18135 0
M  V30 5232 C 502.039 0.640794 2.2006 0
M  V30 5233 C 503.039 -0.303124 1.57917 0
M  V30 5234 O 504.229 -0.0881855 1.73977 0
M  V30 5235 C 501.361 -0.060148 3.40847 0
M  V30 5236 H 502.554 1.54281 2.57172 0
M  V30 5237 H 500.107 0.836004 1.32063 0
M  V30 5238 H 500.842 -0.975845 3.0927 0
M  V30 5239 H 500.627 0.618319 3.87194 0
M  V30 5240 H 502.117 -0.328082 4.16309 0
M  V30 5241 N 502.554 -1.34406 0.822964 0
M  V30 5242 C 503.8 -1.98578 0.411666 0
M  V30 5243 C 504.133 -1.65093 -1.02264 0
M  V30 5244 O 503.408 -0.92258 -1.71227 0
M  V30 5245 C 503.691 -3.54823 0.614235 0
M  V30 5246 C 503.544 -3.9805 2.09466 0
M  V30 5247 C 504.863 -4.40071 0.050221 0
M  V30 5248 H 501.982 -0.721355 0.151047 0
M  V30 5249 H 504.624 -1.59301 1.03554 0
M  V30 5250 H 502.774 -3.88411 0.0831774 0
M  V30 5251 H 504.446 -3.74795 2.68936 0
M  V30 5252 H 502.689 -3.4836 2.5851 0
M  V30 5253 H 503.36 -5.06819 2.18721 0
M  V30 5254 H 505.836 -4.13037 0.503953 0
M  V30 5255 H 504.712 -5.48452 0.221759 0
M  V30 5256 H 504.973 -4.29576 -1.04482 0
M  V30 5257 N 504.032 -0.577932 -1.46621 0
M  V30 5258 C 504.995 0.147805 -2.28723 0
M  V30 5259 C 505.995 0.823325 -1.38123 0
M  V30 5260 O 507.185 0.676011 -1.60548 0
M  V30 5261 C 504.317 1.21853 -3.18378 0
M  V30 5262 H 505.51 -0.573654 -2.94362 0
M  V30 5263 H 503.063 -0.335703 -1.52652 0
M  V30 5264 H 503.798 1.97173 -2.57475 0
M  V30 5265 H 503.583 0.738714 -3.85078 0
M  V30 5266 H 505.073 1.72768 -3.80186 0
M  V30 5267 N 505.51 1.54411 -0.315457 0
M  V30 5268 C 506.44 2.27002 0.547039 0
M  V30 5269 C 507.421 1.27492 1.12605 0
M  V30 5270 O 508.606 1.5629 1.15269 0
M  V30 5271 C 505.736 3.02171 1.71201 0
M  V30 5272 C 504.69 4.0895 1.26268 0
M  V30 5273 C 504.016 4.71915 2.51396 0
M  V30 5274 C 505.316 5.20891 0.383419 0
M  V30 5275 H 507.01 2.99343 -0.0584517 0
M  V30 5276 H 504.556 1.4397 -0.0295527 0
M  V30 5277 H 506.509 3.51681 2.32161 0
M  V30 5278 H 505.233 2.27433 2.34397 0
M  V30 5279 H 503.892 3.60312 0.676062 0
M  V30 5280 H 503.54 3.93801 3.12937 0
M  V30 5281 H 503.24 5.44039 2.22026 0
M  V30 5282 H 504.764 5.24195 3.13133 0
M  V30 5283 H 506.178 5.66206 0.899082 0
M  V30 5284 H 504.575 5.99821 0.182857 0
M  V30 5285 H 505.645 4.81324 -0.587821 0
M  V30 5286 N 506.988 0.0434614 1.5754 0
M  V30 5287 C 508.216 -0.641835 1.96693 0
M  V30 5288 C 508.631 -1.64832 0.920652 0
M  V30 5289 O 507.988 -1.82247 -0.095993 0
M  V30 5290 C 508.039 -1.33557 3.35924 0
M  V30 5291 O 507.76 -0.369403 4.3654 0
M  V30 5292 C 509.261 -2.11135 3.89791 0
M  V30 5293 H 506.481 -0.176013 0.647503 0
M  V30 5294 H 509.025 0.107478 2.04217 0
M  V30 5295 H 507.18 -2.03617 3.29574 0
M  V30 5296 H 507.594 -0.863674 5.1734 0
M  V30 5297 H 509.068 -2.55107 4.89514 0
M  V30 5298 H 509.545 -2.95634 3.24803 0
M  V30 5299 H 510.151 -1.46002 3.99454 0
M  V30 5300 N 508.466 -1.55915 -0.229846 0
M  V30 5301 C 509.706 -1.80314 -0.962614 0
M  V30 5302 C 510.07 -0.61568 -1.81861 0
M  V30 5303 O 511.271 -0.738795 -2.58448 0
M  V30 5304 C 509.542 -3.0956 -1.78627 0
M  V30 5305 S 511.101 -3.55243 -2.57581 0
M  V30 5306 H 507.919 -0.633142 -0.323499 0
M  V30 5307 H 510.521 -1.94155 -0.228919 0
M  V30 5308 H 509.225 -3.94033 -1.14742 0
M  V30 5309 H 508.756 -2.98503 -2.56241 0
M  V30 5310 H 510.771 -3.17924 -3.80971 0
M  V30 5311 N 509.944 0.496216 -1.49584 0
M  V30 5312 C 510.854 1.62352 -1.69349 0
M  V30 5313 C 511.87 1.64184 -0.576147 0
M  V30 5314 O 513.046 1.82517 -0.85144 0
M  V30 5315 C 510.111 2.98698 -1.76013 0
M  V30 5316 C 509.172 3.07454 -2.99617 0
M  V30 5317 C 508.405 4.37296 -3.05953 0
M  V30 5318 O 508.628 5.2637 -2.19752 0
M  V30 5319 O 507.562 4.51124 -3.9846 0
M  V30 5320 H 511.388 1.48606 -2.64859 0
M  V30 5321 H 508.973 0.673022 -1.33382 0
M  V30 5322 H 510.855 3.79725 -1.82721 0
M  V30 5323 H 509.53 3.12696 -0.836828 0
M  V30 5324 H 508.437 2.25597 -2.98424 0
M  V30 5325 H 509.77 2.98385 -3.91443 0
M  V30 5326 N 511.423 1.38739 0.74761 0
M  V30 5327 C 512.834 1.31507 1.32524 0
M  V30 5328 C 513.185 -0.0263963 1.96182 0
M  V30 5329 O 512.31 -0.92849 1.95469 0
M  V30 5330 C 512.905 2.38162 2.40966 0
M  V30 5331 C 511.464 2.34489 2.94434 0
M  V30 5332 C 510.611 2.20712 1.67873 0
M  V30 5333 H 513.562 1.4901 0.546043 0
M  V30 5334 H 513.583 2.04222 3.21051 0
M  V30 5335 H 513.095 3.35783 1.94605 0
M  V30 5336 H 511.196 1.40467 3.45108 0
M  V30 5337 H 511.309 3.28861 3.48407 0
M  V30 5338 H 509.673 1.67667 1.91729 0
M  V30 5339 H 510.456 3.20285 1.23582 0
M  V30 5340 N 512.901 -0.976442 1.23707 0
M  V30 5341 C 513.811 -2.10359 1.03856 0
M  V30 5342 C 514.827 -1.73991 -0.0180919 0
M  V30 5343 O 516.003 -2.0061 0.178211 0
M  V30 5344 C 513.068 -3.40809 0.636387 0
M  V30 5345 C 512.129 -3.91179 1.76854 0
M  V30 5346 C 511.362 -5.15404 1.38546 0
M  V30 5347 O 511.585 -5.69754 0.27142 0
M  V30 5348 O 510.519 -5.5994 2.20797 0
M  V30 5349 H 514.345 -2.29997 1.98331 0
M  V30 5350 H 511.93 -1.08742 1.02448 0
M  V30 5351 H 513.812 -4.19269 0.423223 0
M  V30 5352 H 512.487 -3.22493 -0.279322 0
M  V30 5353 H 511.394 -3.13819 2.03638 0
M  V30 5354 H 512.727 -4.13958 2.6627 0
M  V30 5355 N 514.379 -1.04941 -1.1758 0
M  V30 5356 C 515.628 -0.753124 -1.87112 0
M  V30 5357 C 515.941 0.722507 -1.81767 0
M  V30 5358 O 517.147 1.13265 -2.46746 0
M  V30 5359 C 515.603 -1.29695 -3.35719 0
M  V30 5360 C 515.211 -2.80184 -3.49572 0
M  V30 5361 C 516.955 -1.07759 -4.10595 0
M  V30 5362 C 514.862 -3.2788 -4.92187 0
M  V30 5363 H 513.792 -0.278034 -0.700866 0
M  V30 5364 H 516.443 -1.26637 -1.32798 0
M  V30 5365 H 514.825 -0.711522 -3.89555 0
M  V30 5366 H 515.999 -3.44561 -3.05965 0
M  V30 5367 H 514.314 -3.00632 -2.88113 0
M  V30 5368 H 516.911 -1.40899 -5.15802 0
M  V30 5369 H 517.254 -0.0152302 -4.16297 0
M  V30 5370 H 517.787 -1.62809 -3.62957 0
M  V30 5371 H 514.526 -4.33535 -4.91658 0
M  V30 5372 H 514.046 -2.68245 -5.36475 0
M  V30 5373 H 515.725 -3.22412 -5.60945 0
M  V30 5374 N 515.857 1.33968 -0.830081 0
M  V30 5375 C 516.789 2.28194 -0.21448 0
M  V30 5376 C 517.802 1.5135 0.599752 0
M  V30 5377 O 518.991 1.73286 0.42826 0
M  V30 5378 C 516.091 3.31221 0.717356 0
M  V30 5379 C 515.264 4.37365 -0.055613 0
M  V30 5380 C 514.323 5.2011 0.798231 0
M  V30 5381 O 513.349 5.68691 0.240616 0
M  V30 5382 N 514.551 5.40523 2.11695 0
M  V30 5383 H 517.316 2.81662 -1.02405 0
M  V30 5384 H 514.877 1.46568 -0.687713 0
M  V30 5385 H 516.869 3.83477 1.29334 0
M  V30 5386 H 515.439 2.78095 1.42765 0
M  V30 5387 H 514.659 3.85727 -0.812936 0
M  V30 5388 H 515.947 5.05397 -0.587444 0
M  V30 5389 H 515.345 5.0274 2.59363 0
M  V30 5390 H 513.902 5.95871 2.64162 0
M  V30 5391 N 517.335 0.585699 1.46312 0
M  V30 5392 C 518.283 -0.158577 2.32059 0
M  V30 5393 C 519.277 -0.881427 1.44662 0
M  V30 5394 O 520.483 -0.799476 1.61271 0
M  V30 5395 H 516.858 -0.0700066 0.748734 0
M  V30 5396 H 518.829 0.583383 2.92642 0
M  V30 5397 C 517.578 -1.15701 3.27885 0
M  V30 5398 H 516.901 -0.610215 3.95116 0
M  V30 5399 H 518.341 -1.64812 3.90657 0
M  V30 5400 C 516.8 -2.21951 2.53455 0
M  V30 5401 O 517.33 -3.29352 2.29978 0
M  V30 5402 N 515.536 -1.9664 2.13965 0
M  V30 5403 H 515.083 -1.09309 2.33258 0
M  V30 5404 H 515.041 -2.6794 1.64485 0
M  V30 5405 N 518.813 -1.54241 0.323641 0
M  V30 5406 C 520.041 -2.04985 -0.280871 0
M  V30 5407 C 520.456 -1.19978 -1.45777 0
M  V30 5408 O 519.813 -0.230471 -1.81039 0
M  V30 5409 C 519.864 -3.54353 -0.715258 0
M  V30 5410 O 519.585 -4.36132 0.414817 0
M  V30 5411 C 521.086 -4.21189 -1.38257 0
M  V30 5412 H 518.306 -0.66851 -0.0577502 0
M  V30 5413 H 520.85 -1.99029 0.469852 0
M  V30 5414 H 519.005 -3.60596 -1.41596 0
M  V30 5415 H 519.419 -5.2445 0.0725227 0
M  V30 5416 H 520.893 -5.27154 -1.63745 0
M  V30 5417 H 521.37 -3.72307 -2.32989 0
M  V30 5418 H 521.976 -4.19085 -0.724447 0
M  V30 5419 N 520.291 -0.0518155 -1.57515 0
M  V30 5420 C 521.519 0.631395 -1.9703 0
M  V30 5421 C 521.934 1.64341 -0.92938 0
M  V30 5422 O 521.291 1.82296 0.0863266 0
M  V30 5423 C 521.342 1.31774 -3.36627 0
M  V30 5424 O 521.063 0.346247 -4.3673 0
M  V30 5425 C 522.564 2.09065 -3.90905 0
M  V30 5426 H 519.784 0.172576 -0.648428 0
M  V30 5427 H 522.328 -0.118306 -2.04158 0
M  V30 5428 H 520.483 2.01867 -3.30649 0
M  V30 5429 H 520.897 0.836226 -5.17791 0
M  V30 5430 H 522.371 2.52508 -4.9086 0
M  V30 5431 H 522.848 2.93908 -3.26366 0
M  V30 5432 H 523.454 1.43882 -4.00223 0
M  V30 5433 N 521.769 1.56035 0.221574 0
M  V30 5434 C 522.999 1.82864 0.961468 0
M  V30 5435 C 523.407 0.628703 1.78449 0
M  V30 5436 O 522.75 -0.412109 1.79018 0
M  V30 5437 C 522.812 3.03425 1.92804 0
M  V30 5438 C 522.476 4.38429 1.28954 0
M  V30 5439 C 523.473 5.15441 0.679431 0
M  V30 5440 C 521.158 4.85151 1.30131 0
M  V30 5441 C 523.152 6.37337 0.0896148 0
M  V30 5442 C 520.839 6.06989 0.707651 0
M  V30 5443 C 521.837 6.82923 0.102855 0
M  V30 5444 O 521.525 8.02456 -0.48157 0
M  V30 5445 H 521.257 0.611883 0.28736 0
M  V30 5446 H 523.811 2.0397 0.241932 0
M  V30 5447 H 522.041 2.78138 2.68656 0
M  V30 5448 H 523.73 3.17127 2.53348 0
M  V30 5449 H 524.496 4.80452 0.662661 0
M  V30 5450 H 520.375 4.26021 1.76145 0
M  V30 5451 H 523.919 6.96547 -0.383069 0
M  V30 5452 H 519.816 6.41451 0.721834 0
M  V30 5453 H 520.584 8.17636 -0.375887 0
M  V30 5454 N 523.247 -0.488276 1.49845 0
M  V30 5455 C 524.177 -1.59675 1.70371 0
M  V30 5456 C 525.158 -1.60878 0.552473 0
M  V30 5457 O 526.343 -1.77417 0.78973 0
M  V30 5458 C 523.473 -2.98098 1.782 0
M  V30 5459 C 522.427 -3.11761 2.93239 0
M  V30 5460 C 521.753 -4.51661 2.86193 0
M  V30 5461 C 523.053 -2.90589 4.33999 0
M  V30 5462 H 524.747 -1.42752 2.63177 0
M  V30 5463 H 522.293 -0.685317 1.26647 0
M  V30 5464 H 524.246 -3.75555 1.91144 0
M  V30 5465 H 522.97 -3.16138 0.820018 0
M  V30 5466 H 521.629 -2.36732 2.79917 0
M  V30 5467 H 521.277 -4.66595 1.87877 0
M  V30 5468 H 520.977 -4.61742 3.63412 0
M  V30 5469 H 522.501 -5.31162 3.01163 0
M  V30 5470 H 523.915 -3.57807 4.47936 0
M  V30 5471 H 522.312 -3.1213 5.12538 0
M  V30 5472 H 523.382 -1.86595 4.4756 0
M  V30 5473 N 524.725 -1.39134 -0.740242 0
M  V30 5474 C 525.971 -1.37278 -1.50088 0
M  V30 5475 C 526.326 0.0329967 -1.92372 0
M  V30 5476 O 525.619 0.998447 -1.63529 0
M  V30 5477 C 525.813 -2.27457 -2.75678 0
M  V30 5478 C 525.642 -3.76662 -2.45674 0
M  V30 5479 C 524.412 -4.45617 -2.38229 0
M  V30 5480 C 526.61 -4.6877 -2.11563 0
M  V30 5481 N 524.592 -5.80187 -2.00641 0
M  V30 5482 C 525.963 -5.91951 -1.84376 0
M  V30 5483 C 528.018 -4.56843 -1.97987 0
M  V30 5484 C 526.721 -7.04538 -1.4498 0
M  V30 5485 C 528.747 -5.69347 -1.59994 0
M  V30 5486 C 528.109 -6.91597 -1.33687 0
M  V30 5487 H 524.208 -0.557611 -0.548265 0
M  V30 5488 H 526.792 -1.74638 -0.860784 0
M  V30 5489 H 524.963 -1.92263 -3.37475 0
M  V30 5490 H 526.695 -2.16631 -3.41838 0
M  V30 5491 H 523.45 -3.98993 -2.5515 0
M  V30 5492 H 523.874 -6.51387 -1.84454 0
M  V30 5493 H 528.516 -3.62868 -2.16995 0
M  V30 5494 H 526.234 -7.98419 -1.24712 0
M  V30 5495 H 529.82 -5.62104 -1.50102 0
M  V30 5496 H 528.7 -7.77176 -1.04728 0
M  V30 5497 N 526.204 0.969867 -1.24223 0
M  V30 5498 C 527.45 1.71582 -1.09231 0
M  V30 5499 C 527.805 1.88898 0.365432 0
M  V30 5500 O 527.098 1.43781 1.2664 0
M  V30 5501 C 527.292 3.10883 -1.76314 0
M  V30 5502 C 527.121 3.07155 -3.2846 0
M  V30 5503 C 525.891 3.11757 -3.97663 0
M  V30 5504 C 528.089 2.895 -4.25082 0
M  V30 5505 N 526.071 2.98025 -5.36707 0
M  V30 5506 C 527.442 2.84041 -5.51109 0
M  V30 5507 C 529.497 2.74064 -4.15684 0
M  V30 5508 C 528.2 2.64725 -6.68815 0
M  V30 5509 C 530.226 2.56115 -5.33066 0
M  V30 5510 C 529.588 2.51363 -6.58024 0
M  V30 5511 H 525.687 0.636496 -0.454309 0
M  V30 5512 H 528.271 1.15004 -1.57106 0
M  V30 5513 H 526.442 3.65657 -1.30955 0
M  V30 5514 H 528.174 3.74171 -1.54201 0
M  V30 5515 H 524.929 3.20352 -3.48814 0
M  V30 5516 H 525.353 2.94405 -6.09635 0
M  V30 5517 H 529.995 2.76521 -3.19837 0
M  V30 5518 H 527.713 2.61011 -7.64787 0
M  V30 5519 H 531.299 2.45119 -5.27644 0
M  V30 5520 H 530.179 2.37651 -7.47323 0
M  V30 5521 N 527.682 1.05563 1.17022 0
M  V30 5522 C 528.928 0.769074 1.87652 0
M  V30 5523 C 529.261 -0.702326 1.81055 0
M  V30 5524 O 528.536 -1.5139 1.22112 0
M  V30 5525 C 528.819 1.25492 3.37526 0
M  V30 5526 C 528.672 2.78953 3.52853 0
M  V30 5527 C 529.991 0.856919 4.31677 0
M  V30 5528 H 527.11 0.280854 0.681388 0
M  V30 5529 H 529.752 1.31027 1.37593 0
M  V30 5530 H 527.902 0.794516 3.80289 0
M  V30 5531 H 529.574 3.33146 3.19079 0
M  V30 5532 H 527.817 3.18046 2.95007 0
M  V30 5533 H 528.488 3.08011 4.58076 0
M  V30 5534 H 530.964 1.25334 3.96775 0
M  V30 5535 H 529.84 1.22443 5.35069 0
M  V30 5536 H 530.101 -0.238787 4.41455 0
M  V30 5537 N 529.16 -1.33526 0.837174 0
M  V30 5538 C 530.108 -2.31168 0.257698 0
M  V30 5539 C 531.102 -1.5806 -0.609388 0
M  V30 5540 O 532.308 -1.72941 -0.499139 0
M  V30 5541 H 528.683 -0.74922 0.0646058 0
M  V30 5542 H 530.654 -2.77552 1.09578 0
M  V30 5543 C 529.403 -3.4326 -0.553887 0
M  V30 5544 H 528.726 -3.99665 0.104008 0
M  V30 5545 H 530.166 -4.13782 -0.925219 0
M  V30 5546 C 528.625 -2.88965 -1.73207 0
M  V30 5547 O 529.155 -2.85013 -2.83073 0
M  V30 5548 N 527.361 -2.45596 -1.55342 0
M  V30 5549 H 526.908 -2.49009 -0.659705 0
M  V30 5550 H 526.866 -2.0962 -2.34322 0
M  V30 5551 N 530.638 -0.59345 -1.46 0
M  V30 5552 C 531.586 0.146268 -2.3214 0
M  V30 5553 C 532.58 0.873743 -1.45128 0
M  V30 5554 O 533.786 0.790912 -1.61693 0
M  V30 5555 H 530.161 0.0660349 -0.749095 0
M  V30 5556 H 532.132 -0.598895 -2.92328 0
M  V30 5557 C 530.881 1.1396 -3.28494 0
M  V30 5558 H 530.204 0.589252 -3.95434 0
M  V30 5559 H 531.644 1.62738 -3.91526 0
M  V30 5560 C 530.103 2.20604 -2.54628 0
M  V30 5561 O 530.633 3.28128 -2.31722 0
M  V30 5562 N 528.839 1.95502 -2.15005 0
M  V30 5563 H 528.386 1.0807 -2.33834 0
M  V30 5564 H 528.344 2.67064 -1.65904 0
M  V30 5565 N 532.116 1.54067 -0.331816 0
M  V30 5566 C 533.048 2.22139 0.564538 0
M  V30 5567 C 534.061 1.22408 1.07332 0
M  V30 5568 O 535.25 1.4883 0.985481 0
M  V30 5569 C 532.35 2.87876 1.78831 0
M  V30 5570 C 531.523 4.13817 1.41682 0
M  V30 5571 C 530.582 4.63072 2.49901 0
M  V30 5572 O 529.608 5.27562 2.13699 0
M  V30 5573 N 530.81 4.38001 3.80967 0
M  V30 5574 H 533.575 2.99694 -0.0183736 0
M  V30 5575 H 531.136 1.61153 -0.155396 0
M  V30 5576 H 533.128 3.17747 2.50637 0
M  V30 5577 H 531.698 2.13977 2.27887 0
M  V30 5578 H 530.918 3.9062 0.530044 0
M  V30 5579 H 532.206 4.95762 1.14443 0
M  V30 5580 H 531.604 3.864 4.13173 0
M  V30 5581 H 530.161 4.72507 4.48977 0
M  V30 5582 N 533.594 0.0601682 1.57485 0
M  V30 5583 C 534.819 -0.624416 1.97777 0
M  V30 5584 C 535.244 -1.63051 0.937867 0
M  V30 5585 O 534.602 -1.81036 -0.0978845 0
M  V30 5586 C 534.65 -1.27979 3.37126 0
M  V30 5587 O 533.754 -2.39556 3.35688 0
M  V30 5588 H 533.095 -0.161581 0.64404 0
M  V30 5589 H 535.625 0.131237 2.04179 0
M  V30 5590 H 535.635 -1.62937 3.74053 0
M  V30 5591 H 534.31 -0.542501 4.12347 0
M  V30 5592 H 532.887 -2.06478 3.10517 0
M  V30 5593 N 535.072 -1.5615 -0.213296 0
M  V30 5594 C 536.002 -1.96109 -1.26742 0
M  V30 5595 C 536.983 -0.830448 -1.48451 0
M  V30 5596 O 538.168 -1.09339 -1.60495 0
M  V30 5597 C 535.298 -2.28492 -2.61551 0
M  V30 5598 C 534.252 -3.44124 -2.54485 0
M  V30 5599 C 533.578 -3.62134 -3.93399 0
M  V30 5600 C 534.878 -4.78855 -2.08556 0
M  V30 5601 H 536.572 -2.84412 -0.935434 0
M  V30 5602 H 534.118 -1.36836 -0.44854 0
M  V30 5603 H 536.071 -2.55039 -3.3546 0
M  V30 5604 H 534.795 -1.37052 -2.96453 0
M  V30 5605 H 533.454 -3.17639 -1.83033 0
M  V30 5606 H 533.102 -2.68055 -4.25623 0
M  V30 5607 H 532.802 -4.39913 -3.89551 0
M  V30 5608 H 534.326 -3.91038 -4.68958 0
M  V30 5609 H 535.74 -5.04552 -2.72213 0
M  V30 5610 H 534.137 -5.59975 -2.1575 0
M  V30 5611 H 535.207 -4.73657 -1.03811 0
M  V30 5612 N 536.55 0.480323 -1.50102 0
M  V30 5613 C 537.961 1.06142 -1.53593 0
M  V30 5614 C 538.312 1.93335 -0.334055 0
M  V30 5615 O 537.437 2.09188 0.55403 0
M  V30 5616 C 538.032 1.9317 -2.78336 0
M  V30 5617 C 536.591 2.46405 -2.84538 0
M  V30 5618 C 535.738 1.24521 -2.4777 0
M  V30 5619 H 538.689 0.26333 -1.565 0
M  V30 5620 H 538.71 2.78123 -2.59669 0
M  V30 5621 H 538.222 1.29683 -3.65792 0
M  V30 5622 H 536.323 3.13472 -2.01411 0
M  V30 5623 H 536.436 2.82143 -3.87211 0
M  V30 5624 H 534.8 1.57706 -2.00003 0
M  V30 5625 H 535.583 0.627102 -3.37524 0
M  V30 5626 N 538.028 1.39524 0.732853 0
M  V30 5627 C 539.274 1.37068 1.49467 0
M  V30 5628 C 539.607 -0.0327166 1.94172 0
M  V30 5629 O 538.882 -0.998071 1.66939 0
M  V30 5630 C 539.165 2.34494 2.73285 0
M  V30 5631 C 539.018 3.83784 2.34585 0
M  V30 5632 C 540.337 2.29717 3.75391 0
M  V30 5633 H 537.456 0.499206 0.542183 0
M  V30 5634 H 540.098 1.70532 0.837783 0
M  V30 5635 H 538.248 2.06087 3.29333 0
M  V30 5636 H 539.92 4.22949 1.84151 0
M  V30 5637 H 538.163 4.00455 1.66787 0
M  V30 5638 H 538.834 4.47444 3.23262 0
M  V30 5639 H 541.31 2.54839 3.28932 0
M  V30 5640 H 540.186 2.99962 4.59689 0
M  V30 5641 H 540.447 1.30291 4.22465 0
M  V30 5642 N 539.506 -0.963266 1.24736 0
M  V30 5643 C 540.731 -1.74699 1.11781 0
M  V30 5644 C 541.156 -1.85267 -0.325258 0
M  V30 5645 O 540.514 -1.32681 -1.23553 0
M  V30 5646 C 540.562 -3.14322 1.76731 0
M  V30 5647 O 539.666 -3.99043 1.04109 0
M  V30 5648 H 539.007 -0.53684 0.390767 0
M  V30 5649 H 541.537 -1.20801 1.65131 0
M  V30 5650 H 541.547 -3.64824 1.82668 0
M  V30 5651 H 540.222 -3.05946 2.81726 0
M  V30 5652 H 538.799 -3.5752 1.05991 0
M  V30 5653 N 540.985 -1.06182 -1.16461 0
M  V30 5654 C 542.396 -0.802426 -1.68576 0
M  V30 5655 C 542.747 0.67412 -1.84255 0
M  V30 5656 O 541.872 1.52303 -1.5373 0
M  V30 5657 C 542.467 -1.45002 -3.06202 0
M  V30 5658 C 541.026 -1.23843 -3.55443 0
M  V30 5659 C 540.173 -1.52724 -2.31454 0
M  V30 5660 H 543.124 -1.22545 -1.00839 0
M  V30 5661 H 543.145 -0.864731 -3.70544 0
M  V30 5662 H 542.657 -2.52466 -2.94759 0
M  V30 5663 H 540.758 -0.183487 -3.72148 0
M  V30 5664 H 540.871 -1.95036 -4.37604 0
M  V30 5665 H 539.235 -0.947726 -2.36411 0
M  V30 5666 H 540.018 -2.61343 -2.22609 0
M  V30 5667 N 542.463 1.3308 -0.844243 0
M  V30 5668 C 543.879 1.50447 -0.532729 0
M  V30 5669 C 544.079 1.78292 0.938837 0
M  V30 5670 O 543.135 1.84635 1.72239 0
M  V30 5671 C 544.448 2.65555 -1.41072 0
M  V30 5672 C 545.996 2.7944 -1.41005 0
M  V30 5673 C 546.471 3.97616 -2.27301 0
M  V30 5674 N 547.962 4.0486 -2.2504 0
M  V30 5675 C 548.697 4.95508 -2.88547 0
M  V30 5676 N 548.193 5.91236 -3.61126 0
M  V30 5677 N 549.986 4.88548 -2.77989 0
M  V30 5678 H 542.137 1.13269 -1.79677 0
M  V30 5679 H 544.4 0.55734 -0.766861 0
M  V30 5680 H 544.106 2.51675 -2.45668 0
M  V30 5681 H 543.98 3.61089 -1.09061 0
M  V30 5682 H 546.367 2.92749 -0.371784 0
M  V30 5683 H 546.448 1.8465 -1.77026 0
M  V30 5684 H 546.092 3.85066 -3.3119 0
M  V30 5685 H 546.022 4.91661 -1.88619 0
M  V30 5686 H 548.513 3.36353 -1.72264 0
M  V30 5687 H 548.826 6.57079 -4.06776 0
M  V30 5688 H 547.171 5.91295 -3.65234 0
M  V30 5689 H 550.362 4.12729 -2.20846 0
M  V30 5690 H 550.535 5.58994 -3.27765 0
M  V30 5691 N 543.941 0.601185 1.45683 0
M  V30 5692 C 544.871 -0.108824 2.33246 0
M  V30 5693 C 545.852 -0.865223 1.46451 0
M  V30 5694 O 547.037 -0.83704 1.75235 0
M  V30 5695 C 544.167 -1.11101 3.2905 0
M  V30 5696 C 543.121 -0.468244 4.25431 0
M  V30 5697 C 542.447 -1.57822 5.10878 0
M  V30 5698 C 543.747 0.606469 5.18767 0
M  V30 5699 H 545.441 0.622306 2.92861 0
M  V30 5700 H 542.987 0.300714 1.40825 0
M  V30 5701 H 544.94 -1.61622 3.89174 0
M  V30 5702 H 543.664 -1.87265 2.67581 0
M  V30 5703 H 542.323 0.0160484 3.66596 0
M  V30 5704 H 541.971 -2.32998 4.45781 0
M  V30 5705 H 541.671 -1.15369 5.76163 0
M  V30 5706 H 543.195 -2.08583 5.73869 0
M  V30 5707 H 544.609 0.185589 5.73 0
M  V30 5708 H 543.006 0.952381 5.92494 0
M  V30 5709 H 544.076 1.48559 4.61582 0
M  V30 5710 N 545.419 -1.53889 0.339982 0
M  V30 5711 C 546.351 -2.22435 -0.55275 0
M  V30 5712 C 547.364 -1.22975 -1.06681 0
M  V30 5713 O 548.553 -1.49351 -0.977575 0
M  V30 5714 C 545.653 -2.8882 -1.77302 0
M  V30 5715 C 544.826 -4.14563 -1.39486 0
M  V30 5716 C 543.885 -4.64391 -2.47442 0
M  V30 5717 O 542.911 -5.28687 -2.10899 0
M  V30 5718 N 544.113 -4.40015 -3.78639 0
M  V30 5719 H 546.878 -2.9968 0.0342669 0
M  V30 5720 H 544.439 -1.61068 0.16394 0
M  V30 5721 H 546.431 -3.19072 -2.48948 0
M  V30 5722 H 545.001 -2.15182 -2.26749 0
M  V30 5723 H 544.221 -3.90896 -0.509321 0
M  V30 5724 H 545.509 -4.96362 -1.11813 0
M  V30 5725 H 544.907 -3.88586 -4.11118 0
M  V30 5726 H 543.464 -4.74881 -4.46465 0
M  V30 5727 N 546.897 -0.0685191 -1.57451 0
M  V30 5728 C 547.827 0.89747 -2.15564 0
M  V30 5729 C 548.808 1.31266 -1.08181 0
M  V30 5730 O 549.993 1.38429 -1.36202 0
M  V30 5731 C 547.123 2.16623 -2.71463 0
M  V30 5732 C 546.077 1.89054 -3.83982 0
M  V30 5733 C 545.403 3.22532 -4.26471 0
M  V30 5734 C 546.703 1.1984 -5.08366 0
M  V30 5735 H 548.397 0.413373 -2.96533 0
M  V30 5736 H 545.943 0.197391 -1.42641 0
M  V30 5737 H 547.896 2.84614 -3.10761 0
M  V30 5738 H 546.62 2.67269 -1.8771 0
M  V30 5739 H 545.279 1.23469 -3.45183 0
M  V30 5740 H 544.927 3.71013 -3.39644 0
M  V30 5741 H 544.627 3.04879 -5.02317 0
M  V30 5742 H 546.151 3.91727 -4.68383 0
M  V30 5743 H 547.565 1.77896 -5.45001 0
M  V30 5744 H 545.962 1.12456 -5.89469 0
M  V30 5745 H 547.032 0.176996 -4.84577 0
M  V30 5746 N 548.375 1.56261 0.205012 0
M  V30 5747 C 549.6 1.84491 0.947512 0
M  V30 5748 C 550.025 0.650894 1.76479 0
M  V30 5749 O 549.383 -0.40035 1.76824 0
M  V30 5750 C 549.431 3.10863 1.82747 0
M  V30 5751 O 548.535 2.90719 2.925 0
M  V30 5752 H 547.876 0.607783 0.267386 0
M  V30 5753 H 550.406 2.03485 0.213323 0
M  V30 5754 H 550.416 3.41399 2.23407 0
M  V30 5755 H 549.091 3.97392 1.2269 0
M  V30 5756 H 547.668 2.71457 2.55667 0
M  V30 5757 N 549.853 -0.472356 1.50355 0
M  V30 5758 C 550.801 -1.59126 1.69651 0
M  V30 5759 C 551.795 -1.59793 0.56237 0
M  V30 5760 O 553.001 -1.63957 0.742832 0
M  V30 5761 H 549.376 -0.528008 0.535454 0
M  V30 5762 H 551.347 -1.40013 2.63513 0
M  V30 5763 C 550.096 -2.97075 1.8067 0
M  V30 5764 H 549.419 -2.9728 2.67329 0
M  V30 5765 H 550.859 -3.74825 1.98197 0
M  V30 5766 C 549.318 -3.32247 0.558016 0
M  V30 5767 O 549.848 -4.00553 -0.303399 0
M  V30 5768 N 548.054 -2.87659 0.412415 0
M  V30 5769 H 547.601 -2.32246 1.11443 0
M  V30 5770 H 547.559 -3.11556 -0.421908 0
M  V30 5771 N 551.331 -1.39911 -0.725443 0
M  V30 5772 C 552.608 -1.28158 -1.47766 0
M  V30 5773 C 552.988 0.104545 -2.10841 0
M  V30 5774 O 552.336 1.11657 -1.99361 0
M  V30 5775 C 552.546 -2.41306 -2.52135 0
M  V30 5776 C 553.894 -2.81076 -3.18247 0
M  V30 5777 O 554.918 -2.40827 -2.62452 0
M  V30 5778 O 553.777 -3.50581 -4.19231 0
M  V30 5779 H 550.871 -0.502761 -0.656628 0
M  V30 5780 H 553.417 -1.51808 -0.758456 0
M  V30 5781 H 552.189 -3.33932 -2.03974 0
M  V30 5782 H 551.812 -2.19374 -3.31603 0
M  V30 5783 N 552.809 0.956637 -1.25245 0
M  V30 5784 C 553.757 2.0743 -1.0524 0
M  V30 5785 C 554.751 1.69392 0.0160725 0
M  V30 5786 O 555.957 1.7946 -0.139382 0
M  V30 5787 H 552.332 0.678921 -0.323373 0
M  V30 5788 H 554.303 2.2146 -1.99995 0
M  V30 5789 C 553.052 3.40872 -0.685702 0
M  V30 5790 H 552.375 3.70607 -1.49968 0
M  V30 5791 H 553.815 4.19939 -0.585415 0
M  V30 5792 C 552.274 3.31367 0.608082 0
M  V30 5793 O 552.804 3.66214 1.65076 0
M  V30 5794 N 551.01 2.84486 0.592955 0
M  V30 5795 H 550.557 2.56326 -0.25592 0
M  V30 5796 H 550.515 2.78509 1.45877 0
M  V30 5797 N 554.287 1.06798 1.15896 0
M  V30 5798 C 555.703 0.792423 1.38538 0
M  V30 5799 C 555.903 -0.60592 1.92174 0
M  V30 5800 O 554.959 -1.36561 2.12385 0
M  V30 5801 C 556.272 1.86157 2.36149 0
M  V30 5802 C 557.82 1.88567 2.49823 0
M  V30 5803 C 558.295 2.9455 3.5072 0
M  V30 5804 N 559.786 2.93616 3.58251 0
M  V30 5805 C 560.521 3.72267 4.36125 0
M  V30 5806 N 560.017 4.60751 5.17379 0
M  V30 5807 N 561.81 3.60637 4.31158 0
M  V30 5808 H 553.961 1.96993 0.794198 0
M  V30 5809 H 556.224 0.853942 0.411688 0
M  V30 5810 H 555.93 2.86603 2.03843 0
M  V30 5811 H 555.804 1.71692 3.3586 0
M  V30 5812 H 558.191 0.887765 2.8143 0
M  V30 5813 H 558.272 2.0711 1.5013 0
M  V30 5814 H 557.916 3.94537 3.19849 0
M  V30 5815 H 557.846 2.73255 4.50155 0
M  V30 5816 H 560.337 2.29472 3.00252 0
M  V30 5817 H 560.65 5.17408 5.74028 0
M  V30 5818 H 558.995 4.64803 5.16704 0
M  V30 5819 H 562.186 2.90892 3.66742 0
M  V30 5820 H 562.359 4.22176 4.91601 0
M  V30 5821 N 555.766 -1.3263 0.851289 0
M  V30 5822 C 556.994 -2.01563 0.466899 0
M  V30 5823 C 557.409 -1.63996 -0.935447 0
M  V30 5824 O 556.766 -0.85957 -1.6099 0
M  V30 5825 C 556.817 -3.56613 0.592433 0
M  V30 5826 O 556.538 -3.92828 1.93954 0
M  V30 5827 C 558.039 -4.42818 0.206612 0
M  V30 5828 H 555.259 -0.645307 0.183902 0
M  V30 5829 H 557.803 -1.69285 1.1473 0
M  V30 5830 H 555.958 -3.87379 -0.0401936 0
M  V30 5831 H 556.372 -4.87545 1.9339 0
M  V30 5832 H 557.846 -5.50918 0.345462 0
M  V30 5833 H 558.323 -4.30844 -0.85264 0
M  V30 5834 H 558.929 -4.17434 0.814176 0
M  V30 5835 N 557.244 -0.608902 -1.45362 0
M  V30 5836 C 558.174 0.0964526 -2.33301 0
M  V30 5837 C 559.155 0.857444 -1.46908 0
M  V30 5838 O 560.34 0.827735 -1.75676 0
M  V30 5839 C 557.47 1.09354 -3.29635 0
M  V30 5840 C 556.424 0.445676 -4.25673 0
M  V30 5841 C 555.75 1.5511 -5.11708 0
M  V30 5842 C 557.05 -0.633972 -5.18438 0
M  V30 5843 H 558.744 -0.637829 -2.92527 0
M  V30 5844 H 556.29 -0.308178 -1.40664 0
M  V30 5845 H 558.243 1.59556 -3.90025 0
M  V30 5846 H 556.967 1.85843 -2.6857 0
M  V30 5847 H 555.626 -0.0354897 -3.66583 0
M  V30 5848 H 555.274 2.30631 -4.4701 0
M  V30 5849 H 554.974 1.12311 -5.76767 0
M  V30 5850 H 556.498 2.05537 -5.74967 0
M  V30 5851 H 557.912 -0.215974 -5.72893 0
M  V30 5852 H 556.309 -0.983789 -5.91981 0
M  V30 5853 H 557.379 -1.51005 -4.60788 0
M  V30 5854 N 558.722 1.53707 -0.348139 0
M  V30 5855 C 559.95 2.05406 0.248224 0
M  V30 5856 C 560.365 1.22282 1.43849 0
M  V30 5857 O 559.722 0.259244 1.80649 0
M  V30 5858 C 559.773 3.55446 0.658793 0
M  V30 5859 O 559.494 4.35417 -0.484149 0
M  V30 5860 C 560.995 4.23335 1.31539 0
M  V30 5861 H 558.215 0.669344 0.0471075 0
M  V30 5862 H 560.759 1.98257 -0.501456 0
M  V30 5863 H 558.914 3.62803 1.35841 0
M  V30 5864 H 559.328 5.24268 -0.155949 0
M  V30 5865 H 560.802 5.29692 1.55338 0
M  V30 5866 H 561.279 3.75967 2.27036 0
M  V30 5867 H 561.885 4.20184 0.657683 0
M  V30 5868 N 560.2 0.0768682 1.57412 0
M  V30 5869 C 561.13 -0.886026 2.16037 0
M  V30 5870 C 562.111 -1.30691 1.08876 0
M  V30 5871 O 563.296 -1.37705 1.36934 0
M  V30 5872 C 560.426 -2.1518 2.72608 0
M  V30 5873 C 559.38 -1.87015 3.8498 0
M  V30 5874 C 558.706 -3.20266 4.28175 0
M  V30 5875 C 560.006 -1.17143 5.08994 0
M  V30 5876 H 561.7 -0.397642 2.96748 0
M  V30 5877 H 559.246 -0.189823 1.42743 0
M  V30 5878 H 561.199 -2.82962 3.12266 0
M  V30 5879 H 559.923 -2.66269 1.89125 0
M  V30 5880 H 558.582 -1.21636 3.45833 0
M  V30 5881 H 558.23 -3.69207 3.41607 0
M  V30 5882 H 557.93 -3.0221 5.03927 0
M  V30 5883 H 559.454 -3.89237 4.70454 0
M  V30 5884 H 560.868 -1.75003 5.45937 0
M  V30 5885 H 559.265 -1.09328 5.90057 0
M  V30 5886 H 560.335 -0.151295 4.84664 0
M  V30 5887 N 561.678 -1.56367 -0.196722 0
M  V30 5888 C 562.608 -1.97442 -1.24655 0
M  V30 5889 C 563.589 -0.846147 -1.47561 0
M  V30 5890 O 564.774 -1.11035 -1.59326 0
M  V30 5891 C 561.904 -2.31253 -2.59112 0
M  V30 5892 C 560.858 -3.46804 -2.50821 0
M  V30 5893 C 560.184 -3.66286 -3.89536 0
M  V30 5894 C 561.484 -4.8104 -2.03465 0
M  V30 5895 H 563.178 -2.85388 -0.905216 0
M  V30 5896 H 560.724 -1.37304 -0.434002 0
M  V30 5897 H 562.677 -2.58583 -3.32736 0
M  V30 5898 H 561.401 -1.40188 -2.94983 0
M  V30 5899 H 560.06 -3.19563 -1.79653 0
M  V30 5900 H 559.708 -2.72555 -4.22756 0
M  V30 5901 H 559.408 -4.4402 -3.84864 0
M  V30 5902 H 560.932 -3.9599 -4.64784 0
M  V30 5903 H 562.346 -5.07411 -2.66846 0
M  V30 5904 H 560.743 -5.62232 -2.09798 0
M  V30 5905 H 561.813 -4.74732 -0.98781 0
M  V30 5906 N 563.156 0.464375 -1.50603 0
M  V30 5907 C 564.381 1.24372 -1.65971 0
M  V30 5908 C 564.806 1.84901 -0.345453 0
M  V30 5909 O 564.164 1.67596 0.691457 0
M  V30 5910 C 564.212 2.32331 -2.7578 0
M  V30 5911 O 563.316 3.37146 -2.375 0
M  V30 5912 H 562.657 0.365604 -0.554283 0
M  V30 5913 H 565.187 0.55183 -1.97018 0
M  V30 5914 H 565.197 2.77539 -2.99059 0
M  V30 5915 H 563.872 1.87648 -3.71162 0
M  V30 5916 H 562.449 2.97602 -2.24694 0
M  V30 5917 N 564.634 1.40294 0.718013 0
M  V30 5918 C 565.88 1.38645 1.48005 0
M  V30 5919 C 566.213 -0.0121202 1.94196 0
M  V30 5920 O 565.488 -0.980309 1.67989 0
M  V30 5921 C 565.771 2.37379 2.70782 0
M  V30 5922 C 565.624 3.8625 2.30501 0
M  V30 5923 C 566.943 2.33685 3.72933 0
M  V30 5924 H 564.062 0.504928 0.536858 0
M  V30 5925 H 566.704 1.71411 0.819649 0
M  V30 5926 H 564.854 2.09568 3.27129 0
M  V30 5927 H 566.526 4.24879 1.79655 0
M  V30 5928 H 564.769 4.02202 1.6253 0
M  V30 5929 H 565.44 4.50847 3.18498 0
M  V30 5930 H 567.916 2.58314 3.2621 0
M  V30 5931 H 566.792 3.0482 4.56482 0
M  V30 5932 H 567.053 1.34765 4.21059 0
M  V30 5933 N 566.112 -0.949982 1.2575 0
M  V30 5934 C 567.34 -1.72972 1.13527 0
M  V30 5935 C 567.755 -1.8623 -0.310453 0
M  V30 5936 O 567.112 -1.36336 -1.2132 0
M  V30 5937 C 567.163 -3.14108 1.78936 0
M  V30 5938 O 566.884 -3.01493 3.17858 0
M  V30 5939 C 568.385 -4.08338 1.72554 0
M  V30 5940 H 565.605 -0.541864 0.395758 0
M  V30 5941 H 568.149 -1.19151 1.66202 0
M  V30 5942 H 566.304 -3.64858 1.30221 0
M  V30 5943 H 566.718 -3.90559 3.50092 0
M  V30 5944 H 568.192 -5.04963 2.22973 0
M  V30 5945 H 568.669 -4.33742 0.690251 0
M  V30 5946 H 569.275 -3.63506 2.2078 0
M  V30 5947 N 567.59 -1.07411 -1.15328 0
M  V30 5948 C 569.006 -0.799759 -1.38116 0
M  V30 5949 C 569.206 0.59572 -1.92493 0
M  V30 5950 O 568.262 1.35433 -2.13106 0
M  V30 5951 C 569.575 -1.87407 -2.35158 0
M  V30 5952 C 571.123 -1.89889 -2.48819 0
M  V30 5953 C 571.598 -2.96406 -3.49153 0
M  V30 5954 N 573.089 -2.95512 -3.56689 0
M  V30 5955 C 573.824 -3.74575 -4.34144 0
M  V30 5956 N 573.32 -4.63488 -5.14928 0
M  V30 5957 N 575.113 -3.62919 -4.29239 0
M  V30 5958 H 567.264 -1.97411 -0.78374 0
M  V30 5959 H 569.527 -0.856113 -0.407154 0
M  V30 5960 H 569.233 -2.8768 -2.0232 0
M  V30 5961 H 569.107 -1.73471 -3.34944 0
M  V30 5962 H 571.494 -0.902677 -2.80955 0
M  V30 5963 H 571.575 -2.07904 -1.49029 0
M  V30 5964 H 571.219 -3.96227 -3.17752 0
M  V30 5965 H 571.149 -2.75638 -4.48699 0
M  V30 5966 H 573.64 -2.31061 -2.99031 0
M  V30 5967 H 573.953 -5.20445 -5.71276 0
M  V30 5968 H 572.298 -4.67537 -5.14232 0
M  V30 5969 H 575.489 -2.92833 -3.65194 0
M  V30 5970 H 575.662 -4.24777 -4.89355 0
M  V30 5971 N 569.068 1.32177 -0.85831 0
M  V30 5972 C 570.016 2.30729 -0.294442 0
M  V30 5973 C 571.01 1.59009 0.584165 0
M  V30 5974 O 572.216 1.73713 0.471562 0
M  V30 5975 H 568.591 0.748097 -0.0765171 0
M  V30 5976 H 570.562 2.75774 -1.1398 0
M  V30 5977 C 569.311 3.44098 0.499208 0
M  V30 5978 H 568.634 3.99449 -0.167579 0
M  V30 5979 H 570.074 4.15202 0.859273 0
M  V30 5980 C 568.533 2.91684 1.68588 0
M  V30 5981 O 569.063 2.89481 2.78503 0
M  V30 5982 N 567.269 2.48036 1.51415 0
M  V30 5983 H 566.816 2.50027 0.620006 0
M  V30 5984 H 566.774 2.13322 2.30957 0
M  V30 5985 N 570.547 0.616602 1.45037 0
M  V30 5986 C 571.824 0.0469086 1.95544 0
M  V30 5987 C 572.204 -1.42345 1.55888 0
M  V30 5988 O 571.552 -2.13055 0.825824 0
M  V30 5989 C 571.762 0.254489 3.48071 0
M  V30 5990 C 573.11 0.140025 4.24369 0
M  V30 5991 O 574.134 0.185084 3.55719 0
M  V30 5992 O 572.993 0.0327034 5.4649 0
M  V30 5993 H 570.087 -0.0306051 0.826433 0
M  V30 5994 H 572.633 0.687293 1.55159 0
M  V30 5995 H 571.405 1.27532 3.69934 0
M  V30 5996 H 571.028 -0.42073 3.95368 0
M  V30 5997 N 572.025 -1.5352 0.356285 0
M  V30 5998 C 573.271 -2.01414 -0.236653 0
M  V30 5999 C 573.604 -1.24339 -1.49176 0
M  V30 6000 O 572.879 -0.334496 -1.91602 0
M  V30 6001 C 573.162 -3.56059 -0.537982 0
M  V30 6002 C 573.015 -4.43835 0.730112 0
M  V30 6003 C 574.334 -4.19127 -1.34239 0
M  V30 6004 H 571.453 -0.732135 -0.0845386 0
M  V30 6005 H 574.095 -1.83854 0.479341 0
M  V30 6006 H 572.245 -3.71153 -1.14795 0
M  V30 6007 H 573.917 -4.40555 1.36782 0
M  V30 6008 H 572.16 -4.1218 1.3524 0
M  V30 6009 H 572.831 -5.49958 0.474358 0
M  V30 6010 H 575.307 -4.07809 -0.826498 0
M  V30 6011 H 574.183 -5.27378 -1.52198 0
M  V30 6012 H 574.444 -3.74581 -2.34822 0
M  V30 6013 N 573.503 -0.0852151 -1.57369 0
M  V30 6014 C 574.751 0.579658 -1.93609 0
M  V30 6015 C 575.072 1.69332 -0.967043 0
M  V30 6016 O 574.342 1.95892 -0.0174215 0
M  V30 6017 H 572.922 0.217113 -0.714752 0
M  V30 6018 H 575.584 -0.146226 -1.94351 0
M  V30 6019 H 574.68 0.996276 -2.95771 0
M  V30 6020 N 574.981 1.5647 0.188427 0
M  V30 6021 C 576.392 1.70864 0.752494 0
M  V30 6022 C 576.743 0.692905 1.83557 0
M  V30 6023 O 575.868 -0.149307 2.15884 0
M  V30 6024 C 576.463 3.09789 1.37173 0
M  V30 6025 C 575.022 3.25925 1.88281 0
M  V30 6026 C 574.169 2.66817 0.755259 0
M  V30 6027 H 577.12 1.58657 -0.0367408 0
M  V30 6028 H 577.141 3.07489 2.24122 0
M  V30 6029 H 576.653 3.83693 0.583219 0
M  V30 6030 H 574.754 2.56948 2.6983 0
M  V30 6031 H 574.867 4.33498 2.04001 0
M  V30 6032 H 573.231 2.2617 1.17128 0
M  V30 6033 H 574.014 3.43294 -0.0211237 0
M  V30 6034 N 576.459 -0.456382 1.50847 0
M  V30 6035 C 577.689 -1.22848 1.66108 0
M  V30 6036 C 578.097 -1.85936 0.349897 0
M  V30 6037 O 577.44 -1.70664 -0.679665 0
M  V30 6038 C 577.502 -2.36722 2.70561 0
M  V30 6039 C 577.166 -1.94154 4.13707 0
M  V30 6040 C 578.163 -1.4557 4.99105 0
M  V30 6041 C 575.848 -2.02426 4.59705 0
M  V30 6042 C 577.842 -1.0582 6.28555 0
M  V30 6043 C 575.529 -1.62287 5.89157 0
M  V30 6044 C 576.527 -1.14064 6.73408 0
M  V30 6045 O 576.215 -0.744873 8.00442 0
M  V30 6046 H 575.947 -0.377105 0.561042 0
M  V30 6047 H 578.501 -0.549431 1.97915 0
M  V30 6048 H 576.731 -3.07844 2.34027 0
M  V30 6049 H 578.42 -2.98646 2.74892 0
M  V30 6050 H 579.186 -1.38589 4.64777 0
M  V30 6051 H 575.065 -2.38908 3.94264 0
M  V30 6052 H 578.609 -0.6811 6.94267 0
M  V30 6053 H 574.506 -1.68932 6.23003 0
M  V30 6054 H 575.274 -0.87242 8.13837 0
M  V30 6055 N 577.937 -1.40673 -0.710563 0
M  V30 6056 C 578.847 -1.43663 -1.85467 0
M  V30 6057 C 579.863 -0.328721 -1.70867 0
M  V30 6058 O 581.039 -0.574098 -1.93044 0
M  V30 6059 C 578.104 -1.30226 -3.21313 0
M  V30 6060 C 577.165 -2.51204 -3.48131 0
M  V30 6061 C 576.398 -2.38398 -4.77495 0
M  V30 6062 O 576.621 -1.40048 -5.5294 0
M  V30 6063 O 575.555 -3.2787 -5.04762 0
M  V30 6064 H 579.381 -2.40156 -1.859 0
M  V30 6065 H 576.966 -1.22049 -0.861652 0
M  V30 6066 H 578.848 -1.2496 -4.02446 0
M  V30 6067 H 577.523 -0.368419 -3.21597 0
M  V30 6068 H 576.43 -2.62048 -2.66987 0
M  V30 6069 H 577.763 -3.43366 -3.52648 0
M  V30 6070 N 579.415 0.9433 -1.26252 0
M  V30 6071 C 580.655 1.70397 -1.1289 0
M  V30 6072 C 581.019 1.89268 0.322713 0
M  V30 6073 O 582.22 2.62503 0.578418 0
M  V30 6074 C 580.491 3.04296 -1.87453 0
M  V30 6075 S 582.05 3.95475 -1.90119 0
M  V30 6076 H 578.868 0.585559 -0.403289 0
M  V30 6077 H 581.47 1.12424 -1.59941 0
M  V30 6078 H 580.174 2.8824 -2.9214 0
M  V30 6079 H 579.705 3.67327 -1.40835 0
M  V30 6080 H 581.72 4.86297 -0.986373 0
M  V30 6081 N 580.893 1.08022 1.14757 0
M  V30 6082 C 582.141 0.805913 1.85336 0
M  V30 6083 C 582.462 -0.670162 1.83122 0
M  V30 6084 O 581.732 -1.48567 1.2769 0
M  V30 6085 H 580.312 0.295138 0.686223 0
M  V30 6086 H 582.974 1.36538 1.3908 0
M  V30 6087 H 582.07 1.14655 2.90277 0
M  V30 6088 N 582.371 -1.3172 0.865308 0
M  V30 6089 C 583.62 -1.96145 0.470098 0
M  V30 6090 C 583.933 -1.69182 -0.981674 0
M  V30 6091 O 585.139 -2.27431 -1.48281 0
M  V30 6092 C 583.595 -3.51129 0.789732 0
M  V30 6093 C 583.203 -3.86938 2.25795 0
M  V30 6094 C 584.947 -4.2197 0.462765 0
M  V30 6095 C 582.854 -5.35012 2.52024 0
M  V30 6096 H 581.784 -0.734105 0.172065 0
M  V30 6097 H 584.435 -1.49959 1.05757 0
M  V30 6098 H 582.817 -3.95781 0.131571 0
M  V30 6099 H 583.991 -3.5326 2.95879 0
M  V30 6100 H 582.306 -3.29149 2.55049 0
M  V30 6101 H 584.903 -5.30904 0.636019 0
M  V30 6102 H 585.246 -4.12005 -0.59645 0
M  V30 6103 H 585.779 -3.82936 1.07727 0
M  V30 6104 H 582.518 -5.50008 3.56611 0
M  V30 6105 H 582.038 -5.70058 1.8653 0
M  V30 6106 H 583.717 -6.0222 2.36515 0
M  V30 6107 N 583.85 -0.624285 -1.44708 0
M  V30 6108 C 584.782 0.12305 -2.28869 0
M  V30 6109 C 585.795 0.81557 -1.40898 0
M  V30 6110 O 586.984 0.678162 -1.65116 0
M  V30 6111 C 584.084 1.19612 -3.1709 0
M  V30 6112 C 583.257 0.587452 -4.33437 0
M  V30 6113 C 582.316 1.55358 -5.02743 0
M  V30 6114 O 581.341 1.07338 -5.58988 0
M  V30 6115 N 582.543 2.88798 -5.03563 0
M  V30 6116 H 585.308 -0.599193 -2.93649 0
M  V30 6117 H 582.87 -0.464954 -1.5508 0
M  V30 6118 H 584.861 1.84261 -3.60319 0
M  V30 6119 H 583.432 1.82067 -2.54107 0
M  V30 6120 H 582.652 -0.237509 -3.93484 0
M  V30 6121 H 583.94 0.161326 -5.08544 0
M  V30 6122 H 583.338 3.30399 -4.59188 0
M  V30 6123 H 581.894 3.48826 -5.50603 0
M  V30 6124 N 585.328 1.53329 -0.364422 0
M  V30 6125 C 586.276 2.27212 0.497737 0
M  V30 6126 C 587.27 1.30146 1.08437 0
M  V30 6127 O 588.476 1.47778 1.0277 0
M  V30 6128 H 584.851 0.730329 0.179232 0
M  V30 6129 H 586.822 2.98037 -0.147182 0
M  V30 6130 C 585.571 3.07333 1.6261 0
M  V30 6131 H 584.894 3.81866 1.184 0
M  V30 6132 H 586.334 3.62209 2.20409 0
M  V30 6133 C 584.793 2.18102 2.56775 0
M  V30 6134 O 585.323 1.79104 3.59562 0
M  V30 6135 N 583.529 1.82759 2.25937 0
M  V30 6136 H 583.076 2.14671 1.42387 0
M  V30 6137 H 583.034 1.23342 2.89196 0
M  V30 6138 N 586.806 0.0935595 1.57322 0
M  V30 6139 C 587.753 -0.865935 2.1394 0
M  V30 6140 C 588.723 -1.28083 1.05754 0
M  V30 6141 O 589.908 -1.36285 1.33533 0
M  V30 6142 C 587.048 -2.12023 2.72287 0
M  V30 6143 C 586.161 -1.756 3.94701 0
M  V30 6144 C 585.296 -2.95804 4.41218 0
M  V30 6145 C 584.335 -2.555 5.56225 0
M  V30 6146 N 583.472 -3.68534 5.97601 0
M  V30 6147 H 588.312 -0.376261 2.95615 0
M  V30 6148 H 585.849 -0.174052 1.46067 0
M  V30 6149 H 587.807 -2.85477 3.04235 0
M  V30 6150 H 586.437 -2.58492 1.93343 0
M  V30 6151 H 585.489 -0.921208 3.69077 0
M  V30 6152 H 586.801 -1.41964 4.78171 0
M  V30 6153 H 585.955 -3.77513 4.74941 0
M  V30 6154 H 584.694 -3.32649 3.56645 0
M  V30 6155 H 583.699 -1.72218 5.22131 0
M  V30 6156 H 584.924 -2.19801 6.42545 0
M  V30 6157 H 582.87 -4.051 5.15974 0
M  V30 6158 H 582.787 -3.38737 6.75865 0
M  V30 6159 H 584.055 -4.50757 6.35955 0
M  V30 6160 N 588.284 -1.56567 -0.180126 0
M  V30 6161 C 589.214 -1.98753 -1.22553 0
M  V30 6162 C 590.195 -0.86175 -1.46656 0
M  V30 6163 O 591.38 -1.12719 -1.58139 0
M  V30 6164 C 588.51 -2.33988 -2.56645 0
M  V30 6165 C 587.464 -3.49445 -2.47128 0
M  V30 6166 C 586.79 -3.70397 -3.8563 0
M  V30 6167 C 588.09 -4.83171 -1.98352 0
M  V30 6168 H 589.784 -2.86332 -0.874896 0
M  V30 6169 H 587.33 -1.37757 -0.419414 0
M  V30 6170 H 589.283 -2.62097 -3.29974 0
M  V30 6171 H 588.007 -1.43309 -2.93479 0
M  V30 6172 H 586.666 -3.2145 -1.76254 0
M  V30 6173 H 586.314 -2.77023 -4.19842 0
M  V30 6174 H 586.014 -4.48077 -3.80132 0
M  V30 6175 H 587.538 -4.00897 -4.60558 0
M  V30 6176 H 588.952 -5.10213 -2.61449 0
M  V30 6177 H 587.349 -5.64425 -2.03823 0
M  V30 6178 H 588.419 -4.75753 -0.937402 0
M  V30 6179 N 589.762 0.448376 -1.51087 0
M  V30 6180 C 590.987 1.22605 -1.6728 0
M  V30 6181 C 591.412 1.84524 -0.365045 0
M  V30 6182 O 590.77 1.6832 0.673642 0
M  V30 6183 C 590.818 2.29393 -2.78229 0
M  V30 6184 O 589.922 3.34608 -2.41063 0
M  V30 6185 H 589.263 0.359705 -0.558129 0
M  V30 6186 H 591.793 0.530903 -1.97592 0
M  V30 6187 H 591.803 2.74352 -3.01986 0
M  V30 6188 H 590.478 1.83701 -3.73131 0
M  V30 6189 H 589.055 2.95202 -2.27838 0
M  V30 6190 N 591.24 1.41047 0.703093 0
M  V30 6191 C 592.486 1.40207 1.46526 0
M  V30 6192 C 592.819 0.00847763 1.94198 0
M  V30 6193 O 592.094 -0.962437 1.69019 0
M  V30 6194 C 592.377 2.40238 2.6825 0
M  V30 6195 C 592.23 3.88674 2.26391 0
M  V30 6196 C 593.549 2.37627 3.70434 0
M  V30 6197 H 590.668 0.510594 0.531472 0
M  V30 6198 H 593.31 1.72271 0.801422 0
M  V30 6199 H 591.46 2.13026 3.24888 0
M  V30 6200 H 593.132 4.2676 1.75138 0
M  V30 6201 H 591.375 4.03903 1.58255 0
M  V30 6202 H 592.046 4.542 3.13698 0
M  V30 6203 H 594.522 2.61759 3.23452 0
M  V30 6204 H 593.398 3.09645 4.53223 0
M  V30 6205 H 593.659 1.39223 4.19606 0
M  V30 6206 N 592.718 -0.936591 1.26751 0
M  V30 6207 C 593.995 -1.66094 1.03306 0
M  V30 6208 C 594.375 -2.06568 -0.435058 0
M  V30 6209 O 593.723 -1.79305 -1.41641 0
M  V30 6210 C 593.933 -2.86969 1.98619 0
M  V30 6211 C 595.281 -3.58516 2.27489 0
M  V30 6212 O 596.305 -2.97082 1.96522 0
M  V30 6213 O 595.164 -4.69181 2.80235 0
M  V30 6214 H 592.258 -0.727568 0.393158 0
M  V30 6215 H 594.804 -0.987914 1.3798 0
M  V30 6216 H 593.576 -2.53985 2.9767 0
M  V30 6217 H 593.199 -3.61996 1.64454 0
M  V30 6218 N 594.196 -1.08629 -1.14182 0
M  V30 6219 C 595.146 -0.687882 -2.17376 0
M  V30 6220 C 596.13 0.293632 -1.58198 0
M  V30 6221 O 597.322 0.105292 -1.76687 0
M  V30 6222 C 594.451 -0.101184 -3.43151 0
M  V30 6223 C 593.537 -1.10862 -4.09354 0
M  V30 6224 N 593.928 -2.29285 -4.50846 0
M  V30 6225 C 592.226 -0.944897 -4.35876 0
M  V30 6226 C 592.927 -2.93305 -5.02342 0
M  V30 6227 N 591.903 -2.20903 -4.96692 0
M  V30 6228 H 595.705 -1.58963 -2.472 0
M  V30 6229 H 593.219 -0.961329 -1.3089 0
M  V30 6230 H 595.216 0.202209 -4.16409 0
M  V30 6231 H 593.876 0.795522 -3.14804 0
M  V30 6232 H 594.887 -2.66927 -4.43813 0
M  V30 6233 H 591.564 -0.102186 -4.17375 0
M  V30 6234 H 592.954 -3.93932 -5.44304 0
M  V30 6235 N 595.674 1.31259 -0.872281 0
M  V30 6236 C 596.899 2.0133 -0.498099 0
M  V30 6237 C 597.324 1.65031 0.902568 0
M  V30 6238 O 596.682 0.860164 1.59596 0
M  V30 6239 C 596.73 3.54411 -0.665205 0
M  V30 6240 O 595.834 4.11347 0.294473 0
M  V30 6241 H 595.175 0.633844 -0.197832 0
M  V30 6242 H 597.705 1.67402 -1.17633 0
M  V30 6243 H 597.715 4.04147 -0.559373 0
M  V30 6244 H 596.39 3.80171 -1.68651 0
M  V30 6245 H 594.967 3.72624 0.143403 0
M  V30 6246 N 597.152 0.631951 1.44375 0
M  V30 6247 C 598.429 0.067646 1.95483 0
M  V30 6248 C 598.809 -1.40683 1.57389 0
M  V30 6249 O 598.157 -2.12167 0.848375 0
M  V30 6250 C 598.367 0.291392 3.47781 0
M  V30 6251 C 599.715 0.185028 4.24197 0
M  V30 6252 O 600.739 0.222803 3.55503 0
M  V30 6253 O 599.598 0.0906642 5.46425 0
M  V30 6254 H 596.692 -0.0218379 0.826712 0
M  V30 6255 H 599.238 0.703711 1.54421 0
M  V30 6256 H 598.01 1.31449 3.68561 0
M  V30 6257 H 597.633 -0.378772 3.95792 0
M  V30 6258 N 598.631 -1.53133 0.372548 0
M  V30 6259 C 600.042 -1.86404 -0.105155 0
M  V30 6260 C 600.393 -1.29289 -1.47576 0
M  V30 6261 O 599.518 -0.617646 -2.07398 0
M  V30 6262 C 600.113 -3.38223 -0.197588 0
M  V30 6263 C 598.672 -3.71266 -0.619556 0
M  V30 6264 C 597.819 -2.76353 0.228919 0
M  V30 6265 H 600.77 -1.47282 0.591077 0
M  V30 6266 H 600.791 -3.66577 -1.01987 0
M  V30 6267 H 600.303 -3.79763 0.800099 0
M  V30 6268 H 598.404 -3.35287 -1.62522 0
M  V30 6269 H 598.517 -4.77515 -0.389332 0
M  V30 6270 H 596.881 -2.52888 -0.303271 0
M  V30 6271 H 597.664 -3.20728 1.22428 0
M  V30 6272 N 600.109 -0.101901 -1.5727 0
M  V30 6273 C 601.355 0.561027 -1.94885 0
M  V30 6274 C 601.688 1.6741 -0.984258 0
M  V30 6275 O 600.963 1.94491 -0.0184767 0
M  V30 6276 C 601.246 1.10982 -3.42571 0
M  V30 6277 C 601.099 0.00133418 -4.498 0
M  V30 6278 C 602.418 2.00608 -3.9172 0
M  V30 6279 H 599.537 0.202467 -0.708644 0
M  V30 6280 H 602.179 -0.173992 -1.89202 0
M  V30 6281 H 600.329 1.73621 -3.47546 0
M  V30 6282 H 602.001 -0.63322 -4.56933 0
M  V30 6283 H 600.244 -0.664143 -4.28686 0
M  V30 6284 H 600.915 0.426253 -5.50352 0
M  V30 6285 H 603.391 1.47864 -3.88941 0
M  V30 6286 H 602.267 2.3593 -4.95609 0
M  V30 6287 H 602.528 2.92608 -3.3141 0
M  V30 6288 N 601.587 1.56661 0.17182 0
M  V30 6289 C 602.836 1.81158 0.886831 0
M  V30 6290 C 603.149 0.679072 1.83434 0
M  V30 6291 O 604.355 0.808964 2.59168 0
M  V30 6292 C 602.811 3.20999 1.6275 0
M  V30 6293 C 602.419 4.42117 0.723652 0
M  V30 6294 C 604.163 3.5479 2.33076 0
M  V30 6295 C 602.07 5.7298 1.46452 0
M  V30 6296 H 601 0.675543 0.334899 0
M  V30 6297 H 603.651 1.82967 0.139765 0
M  V30 6298 H 602.033 3.13506 2.4193 0
M  V30 6299 H 603.207 4.60789 -0.0311485 0
M  V30 6300 H 601.522 4.16197 0.130063 0
M  V30 6301 H 604.119 4.49806 2.89099 0
M  V30 6302 H 604.462 2.79646 3.08389 0
M  V30 6303 H 604.995 3.63834 1.6084 0
M  V30 6304 H 601.734 6.51152 0.753729 0
M  V30 6305 H 601.254 5.58285 2.19266 0
M  V30 6306 H 602.933 6.14916 2.01214 0
M  V30 6307 N 603.065 -0.440357 1.51323 0
M  V30 6308 C 603.995 -1.54174 1.75364 0
M  V30 6309 C 604.976 -1.59039 0.603375 0
M  V30 6310 O 606.161 -1.74815 0.845774 0
M  V30 6311 C 603.291 -2.92277 1.87593 0
M  V30 6312 C 602.245 -3.02274 3.03009 0
M  V30 6313 C 601.571 -4.42327 3.00418 0
M  V30 6314 C 602.871 -2.76634 4.43024 0
M  V30 6315 H 604.565 -1.34307 2.67585 0
M  V30 6316 H 602.111 -0.644678 1.28763 0
M  V30 6317 H 604.064 -3.69284 2.02995 0
M  V30 6318 H 602.788 -3.13369 0.920179 0
M  V30 6319 H 601.447 -2.27706 2.87307 0
M  V30 6320 H 601.095 -4.60382 2.02626 0
M  V30 6321 H 600.795 -4.49946 3.77918 0
M  V30 6322 H 602.319 -5.21312 3.17909 0
M  V30 6323 H 603.733 -3.43376 4.59093 0
M  V30 6324 H 602.13 -2.95666 5.22208 0
M  V30 6325 H 603.2 -1.72262 4.5327 0
M  V30 6326 N 604.543 -1.41418 -0.695603 0
M  V30 6327 C 605.491 -1.43467 -1.83084 0
M  V30 6328 C 606.485 -0.312719 -1.66489 0
M  V30 6329 O 607.691 -0.484744 -1.7335 0
M  V30 6330 H 604.066 -0.448891 -0.603325 0
M  V30 6331 H 606.037 -2.39144 -1.78473 0
M  V30 6332 C 604.786 -1.3337 -3.21104 0
M  V30 6333 H 604.109 -2.18989 -3.3449 0
M  V30 6334 H 605.549 -1.38865 -4.00615 0
M  V30 6335 C 604.008 -0.0460484 -3.36869 0
M  V30 6336 O 604.538 0.909258 -3.91274 0
M  V30 6337 N 602.744 0.0300222 -2.90584 0
M  V30 6338 H 602.291 -0.748129 -2.46497 0
M  V30 6339 H 602.249 0.890991 -3.01511 0
M  V30 6340 N 606.021 0.929856 -1.27246 0
M  V30 6341 C 607.267 1.6798 -1.13625 0
M  V30 6342 C 607.6 1.91586 0.317589 0
M  V30 6343 O 606.875 1.50467 1.23247 0
M  V30 6344 C 607.158 3.04766 -1.91806 0
M  V30 6345 C 607.011 2.88415 -3.45162 0
M  V30 6346 C 608.33 4.05063 -1.72082 0
M  V30 6347 H 605.449 0.609632 -0.414147 0
M  V30 6348 H 608.091 1.0792 -1.56376 0
M  V30 6349 H 606.241 3.56034 -1.55474 0
M  V30 6350 H 607.913 2.44282 -3.91311 0
M  V30 6351 H 606.156 2.23802 -3.71611 0
M  V30 6352 H 606.827 3.85482 -3.95105 0
M  V30 6353 H 609.303 3.62798 -2.03757 0
M  V30 6354 H 608.179 4.98765 -2.29182 0
M  V30 6355 H 608.44 4.37021 -0.668206 0
M  V30 6356 N 607.499 1.09233 1.13605 0
M  V30 6357 C 608.429 0.751738 2.21068 0
M  V30 6358 C 609.41 -0.269688 1.67948 0
M  V30 6359 O 610.595 -0.13819 1.93708 0
M  V30 6360 C 607.725 0.16935 3.46887 0
M  V30 6361 C 606.679 1.12007 4.13084 0
M  V30 6362 C 606.005 0.399483 5.33206 0
M  V30 6363 C 607.305 2.46168 4.6065 0
M  V30 6364 H 608.999 1.65024 2.49815 0
M  V30 6365 H 606.545 0.794905 1.20072 0
M  V30 6366 H 608.498 -0.0809824 4.21322 0
M  V30 6367 H 607.222 -0.764335 3.1753 0
M  V30 6368 H 605.881 1.35564 3.40614 0
M  V30 6369 H 605.529 -0.538277 5.00112 0
M  V30 6370 H 605.229 1.03337 5.78442 0
M  V30 6371 H 606.753 0.157403 6.10397 0
M  V30 6372 H 608.167 2.26829 5.26518 0
M  V30 6373 H 606.564 3.05326 5.1662 0
M  V30 6374 H 607.634 3.07076 3.75276 0
M  V30 6375 N 608.977 -1.30795 0.87923 0
M  V30 6376 C 610.207 -2.00237 0.50881 0
M  V30 6377 C 610.615 -1.66115 -0.905682 0
M  V30 6378 O 609.958 -0.89138 -1.60624 0
M  V30 6379 C 610.02 -3.54508 0.597003 0
M  V30 6380 C 609.684 -4.12131 1.97477 0
M  V30 6381 C 610.681 -4.28552 2.94346 0
M  V30 6382 C 608.366 -4.47644 2.2786 0
M  V30 6383 C 610.36 -4.79689 4.19735 0
M  V30 6384 C 608.047 -4.98481 3.53496 0
M  V30 6385 C 609.045 -5.14456 4.49248 0
M  V30 6386 O 608.733 -5.64199 5.72656 0
M  V30 6387 H 608.465 -0.647026 0.195788 0
M  V30 6388 H 611.019 -1.67785 1.1848 0
M  V30 6389 H 609.249 -3.86461 -0.135945 0
M  V30 6390 H 610.938 -4.05198 0.238684 0
M  V30 6391 H 611.704 -4.01424 2.72183 0
M  V30 6392 H 607.583 -4.34481 1.54102 0
M  V30 6393 H 611.127 -4.92073 4.9448 0
M  V30 6394 H 607.024 -5.25044 3.75498 0
M  V30 6395 H 607.792 -5.82551 5.74957 0
M  V30 6396 N 610.455 -0.639598 -1.44038 0
M  V30 6397 C 611.703 -0.147188 -2.01563 0
M  V30 6398 C 612.024 1.2384 -1.50628 0
M  V30 6399 O 611.294 1.82452 -0.713316 0
M  V30 6400 H 609.874 -0.0514231 -0.745228 0
M  V30 6401 H 612.536 -0.828205 -1.76428 0
M  V30 6402 H 611.632 -0.121358 -3.11864 0
M  V30 6403 N 611.933 1.52934 -0.380664 0
M  V30 6404 C 613.344 1.86457 0.0952684 0
M  V30 6405 C 613.695 1.3007 1.46889 0
M  V30 6406 O 612.82 0.628636 2.07068 0
M  V30 6407 C 613.415 3.38323 0.179648 0
M  V30 6408 C 611.974 3.71589 0.599858 0
M  V30 6409 C 611.121 2.76228 -0.243572 0
M  V30 6410 H 614.072 1.46966 -0.59888 0
M  V30 6411 H 614.093 3.67113 1.00042 0
M  V30 6412 H 613.605 3.79333 -0.820228 0
M  V30 6413 H 611.706 3.36144 1.60742 0
M  V30 6414 H 611.819 4.77715 0.364003 0
M  V30 6415 H 610.183 2.53045 0.289855 0
M  V30 6416 H 610.966 3.20074 -1.24127 0
M  V30 6417 N 613.412 0.11024 1.57214 0
M  V30 6418 C 614.689 -0.592956 1.86396 0
M  V30 6419 C 615.069 -1.85379 1.00985 0
M  V30 6420 O 614.417 -2.28337 0.0863592 0
M  V30 6421 C 614.627 -0.893816 3.3736 0
M  V30 6422 C 615.975 -1.25069 4.05762 0
M  V30 6423 O 616.999 -0.984356 3.42329 0
M  V30 6424 O 615.858 -1.75017 5.17718 0
M  V30 6425 H 612.952 -0.29828 0.771335 0
M  V30 6426 H 615.498 0.144083 1.69087 0
M  V30 6427 H 614.27 2.6031e-05 3.913 0
M  V30 6428 H 613.893 -1.68631 3.60068 0
M  V30 6429 N 614.89 -1.56749 -0.16351 0
M  V30 6430 C 616.167 -1.73321 -0.906599 0
M  V30 6431 C 616.547 -0.673779 -2.00059 0
M  V30 6432 O 615.895 0.310121 -2.26386 0
M  V30 6433 C 616.105 -3.168 -1.46419 0
M  V30 6434 C 617.453 -3.77993 -1.93407 0
M  V30 6435 O 618.477 -3.20127 -1.56196 0
M  V30 6436 O 617.336 -4.79615 -2.61976 0
M  V30 6437 H 614.43 -0.708073 -0.427272 0
M  V30 6438 H 616.976 -1.69029 -0.150727 0
M  V30 6439 H 615.748 -3.85396 -0.677189 0
M  V30 6440 H 615.371 -3.2545 -2.28403 0
M  V30 6441 N 616.368 0.432326 -1.51554 0
M  V30 6442 C 617.779 1.01202 -1.56892 0
M  V30 6443 C 618.13 1.92175 -0.395394 0
M  V30 6444 O 617.255 2.10844 0.487198 0
M  V30 6445 C 617.85 1.84217 -2.8434 0
M  V30 6446 C 616.409 2.37228 -2.92233 0
M  V30 6447 C 615.556 1.16576 -2.51606 0
M  V30 6448 H 618.507 0.213407 -1.57259 0
M  V30 6449 H 618.528 2.69721 -2.68385 0
M  V30 6450 H 618.04 1.17979 -3.69733 0
M  V30 6451 H 616.141 3.06905 -2.11282 0
M  V30 6452 H 616.254 2.69682 -3.95991 0
M  V30 6453 H 614.618 1.51263 -2.04919 0
M  V30 6454 H 615.401 0.519404 -3.39348 0
M  V30 6455 N 617.846 1.41785 0.688094 0
M  V30 6456 C 619.074 1.44915 1.47673 0
M  V30 6457 C 619.489 0.0565786 1.88715 0
M  V30 6458 O 618.846 -0.92579 1.57275 0
M  V30 6459 C 618.897 2.36452 2.73446 0
M  V30 6460 O 618.618 3.7029 2.34131 0
M  V30 6461 C 620.119 2.48463 3.67125 0
M  V30 6462 H 617.339 0.493324 0.454832 0
M  V30 6463 H 619.883 1.86153 0.846594 0
M  V30 6464 H 618.038 1.98502 3.3268 0
M  V30 6465 H 618.452 4.19183 3.15255 0
M  V30 6466 H 619.926 3.16662 4.52138 0
M  V30 6467 H 620.403 1.51826 4.12123 0
M  V30 6468 H 621.009 2.8708 3.13792 0
M  V30 6469 N 619.324 -0.923095 1.27737 0
M  V30 6470 C 620.573 -1.66581 1.13727 0
M  V30 6471 C 620.886 -1.9304 -0.315433 0
M  V30 6472 O 622.092 -2.65309 -0.57651 0
M  V30 6473 C 620.548 -3.00047 1.98745 0
M  V30 6474 C 620.156 -2.8127 3.48699 0
M  V30 6475 C 621.9 -3.77887 1.93395 0
M  V30 6476 C 619.807 -4.1032 4.25901 0
M  V30 6477 H 618.737 -0.624834 0.422017 0
M  V30 6478 H 621.388 -1.02514 1.52194 0
M  V30 6479 H 619.77 -3.65197 1.53125 0
M  V30 6480 H 620.944 -2.24859 4.02213 0
M  V30 6481 H 619.259 -2.16854 3.55476 0
M  V30 6482 H 621.856 -4.73526 2.48348 0
M  V30 6483 H 622.199 -4.06264 0.908605 0
M  V30 6484 H 622.732 -3.19541 2.36935 0
M  V30 6485 H 619.471 -3.8712 5.28978 0
M  V30 6486 H 618.991 -4.66377 3.77163 0
M  V30 6487 H 620.67 -4.78648 4.35321 0
M  V30 6488 N 620.802 -1.09834 -1.13024 0
M  V30 6489 C 622.027 -0.85909 -1.88771 0
M  V30 6490 C 622.452 0.584402 -1.78791 0
M  V30 6491 O 621.81 1.41101 -1.13842 0
M  V30 6492 C 621.858 -1.30427 -3.36186 0
M  V30 6493 O 620.962 -0.465368 -4.09766 0
M  V30 6494 H 620.303 -0.310786 -0.586778 0
M  V30 6495 H 622.833 -1.46355 -1.42973 0
M  V30 6496 H 622.843 -1.2915 -3.8702 0
M  V30 6497 H 621.518 -2.3555 -3.42767 0
M  V30 6498 H 620.095 -0.542814 -3.68928 0
M  V30 6499 N 622.28 1.30327 -0.886154 0
M  V30 6500 C 623.691 1.78243 -0.555554 0
M  V30 6501 C 624.042 1.72849 0.928314 0
M  V30 6502 O 623.167 1.30607 1.72542 0
M  V30 6503 C 623.762 3.23654 -1.00168 0
M  V30 6504 C 622.321 3.69401 -0.722471 0
M  V30 6505 C 621.468 2.50753 -1.18399 0
M  V30 6506 H 624.419 1.1718 -1.07026 0
M  V30 6507 H 624.44 3.79056 -0.331152 0
M  V30 6508 H 623.952 3.27548 -2.08169 0
M  V30 6509 H 622.053 3.70995 0.345496 0
M  V30 6510 H 622.166 4.60818 -1.31085 0
M  V30 6511 H 620.53 2.47452 -0.603303 0
M  V30 6512 H 621.313 2.57383 -2.27176 0
M  V30 6513 N 623.758 0.647228 1.43697 0
M  V30 6514 C 624.983 0.164083 2.0675 0
M  V30 6515 C 625.408 -1.15892 1.48158 0
M  V30 6516 O 624.766 -1.71459 0.589194 0
M  V30 6517 C 624.814 0.0800368 3.60511 0
M  V30 6518 O 623.918 -0.959453 4.01084 0
M  V30 6519 H 623.259 0.0921288 0.657578 0
M  V30 6520 H 625.789 0.88846 1.84303 0
M  V30 6521 H 625.799 -0.105263 4.07864 0
M  V30 6522 H 624.474 1.04586 4.02535 0
M  V30 6523 H 623.051 -0.747425 3.65333 0
M  V30 6524 N 625.236 -1.5273 0.388769 0
M  V30 6525 C 626.466 -2.05693 -0.193397 0
M  V30 6526 C 626.874 -1.26038 -1.41107 0
M  V30 6527 O 626.217 -0.30001 -1.81234 0
M  V30 6528 C 626.279 -3.53962 -0.628561 0
M  V30 6529 C 625.943 -4.54519 0.475576 0
M  V30 6530 C 626.94 -5.02526 1.33281 0
M  V30 6531 C 624.625 -4.98174 0.642453 0
M  V30 6532 C 626.619 -5.92812 2.34205 0
M  V30 6533 C 624.306 -5.88262 1.65503 0
M  V30 6534 C 625.304 -6.35473 2.50325 0
M  V30 6535 O 624.992 -7.23781 3.49852 0
M  V30 6536 H 624.724 -0.675197 -0.0329395 0
M  V30 6537 H 627.278 -1.97835 0.552326 0
M  V30 6538 H 625.508 -3.59437 -1.42625 0
M  V30 6539 H 627.197 -3.89669 -1.13633 0
M  V30 6540 H 627.963 -4.6953 1.21519 0
M  V30 6541 H 623.842 -4.60999 -0.00805093 0
M  V30 6542 H 627.386 -6.29585 3.00447 0
M  V30 6543 H 623.283 -6.20672 1.77304 0
M  V30 6544 H 624.051 -7.4184 3.45855 0
M  V30 6545 N 626.714 -0.118576 -1.57153 0
M  V30 6546 C 627.942 0.54726 -1.99531 0
M  V30 6547 C 628.357 1.60251 -0.998246 0
M  V30 6548 O 627.714 1.82498 0.00893106 0
M  V30 6549 C 627.765 1.17378 -3.41913 0
M  V30 6550 O 627.486 0.160703 -4.37805 0
M  V30 6551 C 628.987 1.92297 -3.9942 0
M  V30 6552 H 626.207 0.144919 -0.655164 0
M  V30 6553 H 628.751 -0.20479 -2.03472 0
M  V30 6554 H 626.906 1.87661 -3.38913 0
M  V30 6555 H 627.32 0.61586 -5.20872 0
M  V30 6556 H 628.794 2.31462 -5.01128 0
M  V30 6557 H 629.271 2.79801 -3.38538 0
M  V30 6558 H 629.877 1.26777 -4.05965 0
M  V30 6559 N 628.193 1.56834 0.155195 0
M  V30 6560 C 629.423 1.86778 0.883044 0
M  V30 6561 C 629.831 0.703824 1.75622 0
M  V30 6562 O 629.174 -0.33581 1.80605 0
M  V30 6563 C 629.236 3.1133 1.79761 0
M  V30 6564 C 628.9 4.43504 1.10242 0
M  V30 6565 C 629.897 5.17859 0.460204 0
M  V30 6566 C 627.582 4.90233 1.09437 0
M  V30 6567 C 629.576 6.37144 -0.180782 0
M  V30 6568 C 627.263 6.09444 0.449569 0
M  V30 6569 C 628.261 6.82744 -0.186888 0
M  V30 6570 O 627.949 7.99692 -0.821486 0
M  V30 6571 H 627.681 0.62352 0.261149 0
M  V30 6572 H 630.235 2.04813 0.155204 0
M  V30 6573 H 628.465 2.89282 2.56618 0
M  V30 6574 H 630.154 3.27587 2.39669 0
M  V30 6575 H 630.92 4.8283 0.458289 0
M  V30 6576 H 626.799 4.33109 1.57917 0
M  V30 6577 H 630.343 6.94296 -0.678154 0
M  V30 6578 H 626.24 6.43936 0.449123 0
M  V30 6579 H 627.008 8.15306 -0.722337 0
M  V30 6580 N 629.671 -0.424282 1.51781 0
M  V30 6581 C 630.901 -1.19297 1.68677 0
M  V30 6582 C 631.309 -1.85152 0.389258 0
M  V30 6583 O 630.652 -1.72067 -0.643311 0
M  V30 6584 C 630.714 -2.30929 2.75521 0
M  V30 6585 C 630.378 -1.85335 4.17732 0
M  V30 6586 C 631.375 -1.34951 5.0208 0
M  V30 6587 C 629.06 -1.92629 4.63896 0
M  V30 6588 C 631.054 -0.924636 6.30658 0
M  V30 6589 C 628.741 -1.49754 5.92467 0
M  V30 6590 C 629.739 -0.997543 6.75676 0
M  V30 6591 O 629.427 -0.57492 8.01842 0
M  V30 6592 H 629.159 -0.36512 0.568914 0
M  V30 6593 H 631.713 -0.507327 1.99036 0
M  V30 6594 H 629.943 -3.02811 2.40505 0
M  V30 6595 H 631.632 -2.92748 2.81165 0
M  V30 6596 H 632.398 -1.287 4.67612 0
M  V30 6597 H 628.277 -2.30491 3.99243 0
M  V30 6598 H 631.821 -0.533682 6.95556 0
M  V30 6599 H 627.718 -1.55679 6.26446 0
M  V30 6600 H 628.486 -0.699597 8.15505 0
M  V30 6601 N 631.149 -1.42148 -0.680565 0
M  V30 6602 C 632.565 -1.24947 -0.992995 0
M  V30 6603 C 632.765 -0.149527 -2.00944 0
M  V30 6604 O 631.821 0.481145 -2.47873 0
M  V30 6605 C 633.134 -2.60426 -1.5033 0
M  V30 6606 C 634.682 -2.67733 -1.62137 0
M  V30 6607 C 635.157 -4.03564 -2.16565 0
M  V30 6608 N 636.648 -4.05488 -2.23905 0
M  V30 6609 C 637.383 -5.07401 -2.67081 0
M  V30 6610 N 636.879 -6.19698 -3.09751 0
M  V30 6611 N 638.672 -4.94758 -2.66778 0
M  V30 6612 H 630.823 -2.12399 -0.0074788 0
M  V30 6613 H 633.086 -0.94571 -0.0658529 0
M  V30 6614 H 632.792 -3.41743 -0.830947 0
M  V30 6615 H 632.666 -2.83949 -2.483 0
M  V30 6616 H 635.053 -1.86765 -2.2848 0
M  V30 6617 H 635.134 -2.48004 -0.626713 0
M  V30 6618 H 634.778 -4.84987 -1.50833 0
M  V30 6619 H 634.708 -4.20641 -3.1681 0
M  V30 6620 H 637.199 -3.24415 -1.93812 0
M  V30 6621 H 637.512 -6.93318 -3.41365 0
M  V30 6622 H 635.857 -6.23212 -3.07623 0
M  V30 6623 H 639.048 -4.06105 -2.32801 0
M  V30 6624 H 639.221 -5.74317 -3.00107 0
M  V30 6625 N 632.627 0.916307 -1.28225 0
M  V30 6626 C 634.038 1.48024 -1.13779 0
M  V30 6627 C 634.389 1.94289 0.273139 0
M  V30 6628 O 633.514 1.82226 1.16716 0
M  V30 6629 C 634.109 2.69029 -2.05935 0
M  V30 6630 C 632.668 3.2161 -1.95561 0
M  V30 6631 C 631.815 1.94321 -1.97825 0
M  V30 6632 H 634.766 0.729272 -1.40951 0
M  V30 6633 H 634.787 3.44204 -1.62184 0
M  V30 6634 H 634.299 2.35325 -3.08616 0
M  V30 6635 H 632.4 3.60045 -0.959076 0
M  V30 6636 H 632.513 3.87032 -2.82388 0
M  V30 6637 H 630.877 2.1131 -1.42198 0
M  V30 6638 H 631.66 1.62917 -3.0218 0
M  V30 6639 N 634.105 1.10431 1.1244 0
M  V30 6640 C 635.353 0.845045 1.83585 0
M  V30 6641 C 635.674 -0.631168 1.84503 0
M  V30 6642 O 634.944 -1.45825 1.30813 0
M  V30 6643 H 633.524 0.309628 0.679809 0
M  V30 6644 H 636.186 1.39458 1.36153 0
M  V30 6645 H 635.282 1.20786 2.8778 0
M  V30 6646 N 635.583 -1.29855 0.893053 0
M  V30 6647 C 636.829 -1.96116 0.516349 0
M  V30 6648 C 637.162 -1.70281 -0.933695 0
M  V30 6649 O 636.437 -1.01205 -1.66096 0
M  V30 6650 C 636.72 -3.51068 0.801455 0
M  V30 6651 C 636.573 -3.86387 2.30272 0
M  V30 6652 C 637.892 -4.39186 0.283423 0
M  V30 6653 H 635.011 -0.712335 0.189072 0
M  V30 6654 H 637.653 -1.53587 1.11852 0
M  V30 6655 H 635.803 -3.87424 0.288949 0
M  V30 6656 H 637.475 -3.60012 2.88425 0
M  V30 6657 H 635.718 -3.34167 2.76613 0
M  V30 6658 H 636.389 -4.94512 2.45279 0
M  V30 6659 H 638.865 -4.09785 0.722187 0
M  V30 6660 H 637.741 -5.46505 0.512169 0
M  V30 6661 H 638.002 -4.34511 -0.815643 0
M  V30 6662 N 637.061 -0.65484 -1.43351 0
M  V30 6663 C 638.009 0.0476784 -2.32551 0
M  V30 6664 C 639.003 0.811403 -1.48703 0
M  V30 6665 O 640.209 0.721621 -1.64902 0
M  V30 6666 H 636.584 0.0342038 -0.751222 0
M  V30 6667 H 638.555 -0.722342 -2.89525 0
M  V30 6668 C 637.304 0.999251 -3.33032 0
M  V30 6669 H 636.627 0.421005 -3.97577 0
M  V30 6670 H 638.067 1.45986 -3.98076 0
M  V30 6671 C 636.526 2.09606 -2.63756 0
M  V30 6672 O 637.056 3.18004 -2.4543 0
M  V30 6673 N 635.262 1.86207 -2.23103 0
M  V30 6674 H 634.809 0.980555 -2.38208 0
M  V30 6675 H 634.767 2.59787 -1.77081 0
M  V30 6676 N 638.539 1.52521 -0.396863 0
M  V30 6677 C 639.469 2.29582 0.425941 0
M  V30 6678 C 640.45 1.33281 1.05689 0
M  V30 6679 O 641.635 1.62181 1.06823 0
M  V30 6680 C 638.765 3.10821 1.54943 0
M  V30 6681 C 637.719 4.15069 1.04413 0
M  V30 6682 C 637.045 4.84578 2.26028 0
M  V30 6683 C 638.345 5.22191 0.106767 0
M  V30 6684 H 640.039 2.98612 -0.217045 0
M  V30 6685 H 637.585 1.43611 -0.105826 0
M  V30 6686 H 639.538 3.63492 2.13193 0
M  V30 6687 H 638.262 2.39538 2.22011 0
M  V30 6688 H 636.921 3.63389 0.484118 0
M  V30 6689 H 636.569 4.09835 2.91623 0
M  V30 6690 H 636.269 5.55043 1.92876 0
M  V30 6691 H 637.793 5.40056 2.84906 0
M  V30 6692 H 639.207 5.70176 0.597685 0
M  V30 6693 H 637.604 5.99947 -0.135352 0
M  V30 6694 H 638.674 4.77531 -0.842134 0
M  V30 6695 N 640.017 0.126909 1.57088 0
M  V30 6696 C 641.242 -0.53997 2.00248 0
M  V30 6697 C 641.667 -1.58927 1.00618 0
M  V30 6698 O 641.025 -1.81288 -0.0210131 0
M  V30 6699 C 641.073 -1.13565 3.4225 0
M  V30 6700 O 640.177 -2.25103 3.45547 0
M  V30 6701 H 639.518 -0.13412 0.650314 0
M  V30 6702 H 642.048 0.217718 2.03438 0
M  V30 6703 H 642.058 -1.46925 3.80627 0
M  V30 6704 H 640.733 -0.367122 4.14277 0
M  V30 6705 H 639.31 -1.93123 3.18995 0
M  V30 6706 N 641.495 -1.56914 -0.146875 0
M  V30 6707 C 642.425 -2.01308 -1.1831 0
M  V30 6708 C 643.406 -0.892664 -1.44795 0
M  V30 6709 O 644.591 -1.16048 -1.55713 0
M  V30 6710 C 641.721 -2.3938 -2.51624 0
M  V30 6711 C 640.675 -3.54608 -2.3966 0
M  V30 6712 C 640.001 -3.78493 -3.77686 0
M  V30 6713 C 641.301 -4.87269 -1.88058 0
M  V30 6714 H 642.995 -2.88123 -0.813964 0
M  V30 6715 H 640.541 -1.38615 -0.3901 0
M  V30 6716 H 642.494 -2.69037 -3.24341 0
M  V30 6717 H 641.218 -1.49502 -2.90373 0
M  V30 6718 H 639.877 -3.25116 -1.69396 0
M  V30 6719 H 639.525 -2.85866 -4.13871 0
M  V30 6720 H 639.225 -4.56039 -3.70543 0
M  V30 6721 H 640.749 -4.10576 -4.51951 0
M  V30 6722 H 642.163 -5.15644 -2.50568 0
M  V30 6723 H 640.56 -5.68622 -1.91805 0
M  V30 6724 H 641.63 -4.77634 -0.836277 0
M  V30 6725 N 642.974 0.416227 -1.52004 0
M  V30 6726 C 644.199 1.19029 -1.69843 0
M  V30 6727 C 644.624 1.83708 -0.404103 0
M  V30 6728 O 643.982 1.69711 0.637787 0
M  V30 6729 C 644.03 2.23439 -2.83032 0
M  V30 6730 O 643.134 3.29419 -2.48106 0
M  V30 6731 H 642.475 0.347785 -0.565634 0
M  V30 6732 H 645.005 0.488871 -1.98674 0
M  V30 6733 H 645.015 2.67884 -3.07737 0
M  V30 6734 H 643.69 1.75745 -3.76944 0
M  V30 6735 H 642.267 2.90303 -2.34048 0
M  V30 6736 N 644.452 1.42507 0.673017 0
M  V30 6737 C 645.692 1.44559 1.44507 0
M  V30 6738 C 646.056 0.0606206 1.91904 0
M  V30 6739 O 647.257 -0.044139 2.68764 0
M  V30 6740 C 645.528 2.44291 2.60877 0
M  V30 6741 S 647.087 2.65059 3.49699 0
M  V30 6742 H 643.905 0.51181 0.49353 0
M  V30 6743 H 646.507 1.79124 0.783256 0
M  V30 6744 H 645.211 3.43685 2.24297 0
M  V30 6745 H 644.742 2.11157 3.31928 0
M  V30 6746 H 646.757 1.93494 4.56919 0
M  V30 6747 N 645.93 -0.909495 1.28709 0
M  V30 6748 C 646.88 -1.9991 1.09636 0
M  V30 6749 C 647.864 -1.60889 0.01872 0
M  V30 6750 O 649.056 -1.75374 0.239338 0
M  V30 6751 C 646.185 -3.34675 0.764702 0
M  V30 6752 C 645.271 -3.80085 1.8814 0
M  V30 6753 N 645.662 -3.97824 3.12361 0
M  V30 6754 C 643.96 -4.09278 1.77221 0
M  V30 6755 C 644.661 -4.35928 3.85151 0
M  V30 6756 N 643.637 -4.44426 3.13028 0
M  V30 6757 H 647.439 -2.11681 2.03883 0
M  V30 6758 H 644.953 -1.09763 1.1969 0
M  V30 6759 H 646.95 -4.12426 0.609132 0
M  V30 6760 H 645.61 -3.24255 -0.169952 0
M  V30 6761 H 646.621 -3.83626 3.47925 0
M  V30 6762 H 643.298 -4.0747 0.909621 0
M  V30 6763 H 644.688 -4.57581 4.92006 0
M  V30 6764 N 647.408 -1.11026 -1.11852 0
M  V30 6765 C 648.371 -0.768006 -2.1595 0
M  V30 6766 C 649.371 0.210538 -1.59416 0
M  V30 6767 O 650.561 -0.0133978 -1.74195 0
M  V30 6768 C 647.693 -0.138678 -3.40618 0
M  V30 6769 H 648.886 -1.69012 -2.4774 0
M  V30 6770 H 646.439 -0.911578 -1.26964 0
M  V30 6771 H 647.174 0.793872 -3.14433 0
M  V30 6772 H 646.959 -0.843012 -3.8293 0
M  V30 6773 H 648.449 0.0848039 -4.17514 0
M  V30 6774 N 648.886 1.2938 -0.899927 0
M  V30 6775 C 649.849 2.25983 -0.382677 0
M  V30 6776 C 650.849 1.53366 0.483259 0
M  V30 6777 O 652.039 1.71798 0.28828 0
M  V30 6778 C 649.171 3.37878 0.452915 0
M  V30 6779 H 650.364 2.73252 -1.23586 0
M  V30 6780 H 647.917 1.40825 -0.678088 0
M  V30 6781 H 648.652 2.95949 1.32608 0
M  V30 6782 H 648.437 3.91742 -0.167562 0
M  V30 6783 H 649.927 4.09746 0.806107 0
M  V30 6784 N 650.364 0.662433 1.43002 0
M  V30 6785 C 651.589 0.186003 2.06564 0
M  V30 6786 C 652.014 -1.14314 1.49379 0
M  V30 6787 O 651.372 -1.70824 0.607346 0
M  V30 6788 C 651.42 0.118269 3.60406 0
M  V30 6789 O 650.524 -0.916859 4.02079 0
M  V30 6790 H 649.865 0.0990981 0.656563 0
M  V30 6791 H 652.395 0.907958 1.8335 0
M  V30 6792 H 652.405 -0.0619981 4.07953 0
M  V30 6793 H 651.08 1.08849 4.01403 0
M  V30 6794 H 649.657 -0.708635 3.66105 0
M  V30 6795 N 651.842 -1.52309 0.404946 0
M  V30 6796 C 652.79 -2.28452 -0.437321 0
M  V30 6797 C 653.784 -1.32975 -1.04948 0
M  V30 6798 O 654.99 -1.50451 -0.988159 0
M  V30 6799 H 651.365 -0.734824 -0.159805 0
M  V30 6800 H 653.336 -2.97542 0.22615 0
M  V30 6801 C 652.085 -3.11536 -1.54404 0
M  V30 6802 H 651.408 -3.84871 -1.08233 0
M  V30 6803 H 652.848 -3.67926 -2.10729 0
M  V30 6804 C 651.307 -2.24833 -2.50902 0
M  V30 6805 O 651.837 -1.88574 -3.54687 0
M  V30 6806 N 650.043 -1.88685 -2.21012 0
M  V30 6807 H 649.59 -2.18371 -1.36646 0
M  V30 6808 H 649.548 -1.30966 -2.85824 0
M  V30 6809 N 653.32 -0.135238 -1.57019 0
M  V30 6810 C 654.731 0.387521 -1.82634 0
M  V30 6811 C 655.082 1.65528 -1.05332 0
M  V30 6812 O 654.207 2.14381 -0.294926 0
M  V30 6813 C 654.802 0.709852 -3.3128 0
M  V30 6814 C 653.361 1.17718 -3.57518 0
M  V30 6815 C 652.508 0.194183 -2.76619 0
M  V30 6816 H 655.459 -0.360126 -1.5456 0
M  V30 6817 H 655.48 1.5657 -3.46794 0
M  V30 6818 H 654.992 -0.213024 -3.87515 0
M  V30 6819 H 653.093 2.1164 -3.06658 0
M  V30 6820 H 653.206 1.11128 -4.66034 0
M  V30 6821 H 651.57 0.684478 -2.4533 0
M  V30 6822 H 652.353 -0.722076 -3.3562 0
M  V30 6823 N 654.798 1.5699 0.138552 0
M  V30 6824 C 656.209 1.73171 0.697754 0
M  V30 6825 C 656.56 0.750952 1.8126 0
M  V30 6826 O 655.685 -0.080549 2.1625 0
M  V30 6827 C 656.28 3.13996 1.27248 0
M  V30 6828 C 654.839 3.3175 1.77816 0
M  V30 6829 C 653.986 2.69084 0.669991 0
M  V30 6830 H 656.937 1.5846 -0.0871979 0
M  V30 6831 H 656.958 3.14463 2.14227 0
M  V30 6832 H 656.47 3.85354 0.460855 0
M  V30 6833 H 654.571 2.65403 2.61519 0
M  V30 6834 H 654.684 4.39768 1.90107 0
M  V30 6835 H 653.048 2.29782 1.09874 0
M  V30 6836 H 653.831 3.43053 -0.130329 0
M  V30 6837 N 656.276 -0.40816 1.52223 0
M  V30 6838 C 657.239 -1.48 1.7501 0
M  V30 6839 C 658.239 -1.48367 0.619996 0
M  V30 6840 O 659.429 -1.49874 0.887881 0
M  V30 6841 C 656.561 -2.87403 1.83336 0
M  V30 6842 H 657.754 -1.29086 2.70697 0
M  V30 6843 H 655.307 -0.638715 1.42654 0
M  V30 6844 H 656.042 -3.11686 0.895677 0
M  V30 6845 H 655.827 -2.8854 2.65494 0
M  V30 6846 H 657.317 -3.65103 2.02705 0
M  V30 6847 N 657.755 -1.42862 -0.66545 0
M  V30 6848 C 658.687 -1.43026 -1.79098 0
M  V30 6849 C 659.7 -0.32803 -1.59461 0
M  V30 6850 O 660.889 -0.591709 -1.68407 0
M  V30 6851 C 657.989 -1.21566 -3.16346 0
M  V30 6852 C 657.162 -2.44399 -3.62751 0
M  V30 6853 C 656.221 -2.18344 -4.78761 0
M  V30 6854 O 655.247 -2.91611 -4.88827 0
M  V30 6855 N 656.449 -1.1924 -5.68122 0
M  V30 6856 H 659.214 -2.40045 -1.79439 0
M  V30 6857 H 656.775 -1.37861 -0.848872 0
M  V30 6858 H 658.767 -1.02037 -3.91625 0
M  V30 6859 H 657.337 -0.330368 -3.10849 0
M  V30 6860 H 656.557 -2.79433 -2.78048 0
M  V30 6861 H 657.845 -3.26173 -3.90498 0
M  V30 6862 H 657.243 -0.586603 -5.6265 0
M  V30 6863 H 655.8 -1.05698 -6.43173 0
M  V30 6864 N 659.233 0.902656 -1.29189 0
M  V30 6865 C 660.463 1.68394 -1.19695 0
M  V30 6866 C 660.871 1.87602 0.245384 0
M  V30 6867 O 660.214 1.41084 1.17648 0
M  V30 6868 C 660.276 3.09094 -1.83578 0
M  V30 6869 C 659.94 3.1313 -3.32864 0
M  V30 6870 C 660.937 2.93497 -4.29134 0
M  V30 6871 C 658.622 3.3529 -3.74013 0
M  V30 6872 C 660.616 2.95953 -5.64527 0
M  V30 6873 C 658.303 3.37377 -5.09529 0
M  V30 6874 C 659.301 3.1773 -6.04596 0
M  V30 6875 O 658.989 3.196 -7.37639 0
M  V30 6876 H 658.721 0.532815 -0.416034 0
M  V30 6877 H 661.275 1.1374 -1.71033 0
M  V30 6878 H 659.505 3.65338 -1.26747 0
M  V30 6879 H 661.194 3.69297 -1.68447 0
M  V30 6880 H 661.96 2.76192 -3.98677 0
M  V30 6881 H 657.839 3.49623 -3.00474 0
M  V30 6882 H 661.383 2.80536 -6.38706 0
M  V30 6883 H 657.28 3.54213 -5.39633 0
M  V30 6884 H 658.048 3.35887 -7.46406 0
M  V30 6885 N 660.711 1.11618 1.11262 0
M  V30 6886 C 661.936 0.889013 1.8738 0
M  V30 6887 C 662.361 -0.555884 1.79698 0
M  V30 6888 O 661.719 -1.39272 1.16073 0
M  V30 6889 C 661.767 1.35759 3.34069 0
M  V30 6890 O 660.871 0.530499 4.08974 0
M  V30 6891 H 660.212 0.320082 0.581759 0
M  V30 6892 H 662.742 1.48611 1.40627 0
M  V30 6893 H 662.752 1.35291 3.84916 0
M  V30 6894 H 661.427 2.40973 3.38976 0
M  V30 6895 H 660.004 0.601439 3.68018 0
M  V30 6896 N 662.189 -1.289 0.906776 0
M  V30 6897 C 663.435 -1.95919 0.546551 0
M  V30 6898 C 663.79 -1.70126 -0.8986 0
M  V30 6899 O 663.083 -1.00775 -1.62957 0
M  V30 6900 C 663.277 -3.48704 0.783617 0
M  V30 6901 C 663.106 -3.8935 2.25026 0
M  V30 6902 C 661.876 -4.13864 2.89905 0
M  V30 6903 C 664.074 -4.00535 3.22608 0
M  V30 6904 N 662.056 -4.41131 4.26939 0
M  V30 6905 C 663.427 -4.31936 4.44783 0
M  V30 6906 C 665.482 -3.83035 3.18102 0
M  V30 6907 C 664.185 -4.47659 5.63022 0
M  V30 6908 C 666.211 -3.99971 4.35634 0
M  V30 6909 C 665.573 -4.31738 5.5658 0
M  V30 6910 H 661.672 -0.74105 0.249737 0
M  V30 6911 H 664.256 -1.55696 1.16906 0
M  V30 6912 H 662.427 -3.87933 0.190437 0
M  V30 6913 H 664.159 -4.02835 0.38812 0
M  V30 6914 H 660.914 -4.07893 2.40666 0
M  V30 6915 H 661.338 -4.5886 4.97771 0
M  V30 6916 H 665.98 -3.57533 2.25677 0
M  V30 6917 H 663.698 -4.71995 6.55932 0
M  V30 6918 H 667.284 -3.87874 4.33641 0
M  V30 6919 H 666.164 -4.44568 6.4601 0
M  V30 6920 N 663.667 -0.670007 -1.42649 0
M  V30 6921 C 664.597 -0.00258501 -2.335 0
M  V30 6922 C 665.578 0.794364 -1.50412 0
M  V30 6923 O 666.763 0.75248 -1.79029 0
M  V30 6924 C 663.893 0.952748 -3.33976 0
M  V30 6925 C 662.847 0.264733 -4.2718 0
M  V30 6926 C 662.173 1.33267 -5.17826 0
M  V30 6927 C 663.473 -0.853289 -5.15283 0
M  V30 6928 H 665.167 -0.761326 -2.89559 0
M  V30 6929 H 662.713 -0.367561 -1.3923 0
M  V30 6930 H 664.666 1.4287 -3.96442 0
M  V30 6931 H 663.39 1.74285 -2.7621 0
M  V30 6932 H 662.049 -0.190938 -3.66102 0
M  V30 6933 H 661.697 2.11464 -4.5639 0
M  V30 6934 H 661.397 0.877476 -5.81011 0
M  V30 6935 H 662.921 1.80965 -5.83167 0
M  V30 6936 H 664.335 -0.458763 -5.71462 0
M  V30 6937 H 662.732 -1.23398 -5.87276 0
M  V30 6938 H 663.802 -1.70412 -4.53969 0
M  V30 6939 N 665.145 1.52092 -0.413018 0
M  V30 6940 C 666.394 2.01041 0.16287 0
M  V30 6941 C 666.707 1.30288 1.45892 0
M  V30 6942 O 667.913 1.70075 2.11629 0
M  V30 6943 C 666.369 3.58283 0.340806 0
M  V30 6944 C 665.977 4.37955 -0.943377 0
M  V30 6945 C 667.721 4.15452 0.871774 0
M  V30 6946 C 665.628 5.86847 -0.732417 0
M  V30 6947 H 664.558 0.751224 0.0646414 0
M  V30 6948 H 667.209 1.75404 -0.539059 0
M  V30 6949 H 665.591 3.80266 1.10516 0
M  V30 6950 H 666.765 4.2773 -1.71418 0
M  V30 6951 H 665.08 3.92122 -1.40105 0
M  V30 6952 H 667.677 5.24375 1.0457 0
M  V30 6953 H 668.02 3.73057 1.84755 0
M  V30 6954 H 668.553 3.97452 0.166377 0
M  V30 6955 H 665.292 6.33609 -1.67986 0
M  V30 6956 H 664.812 5.998 -0.000980058 0
M  V30 6957 H 666.491 6.45906 -0.376105 0
M  V30 6958 N 666.623 0.143563 1.56945 0
M  V30 6959 C 667.9 -0.553285 1.87612 0
M  V30 6960 C 668.28 -1.83195 1.04894 0
M  V30 6961 O 667.628 -2.28102 0.134773 0
M  V30 6962 C 667.838 -0.822055 3.3918 0
M  V30 6963 C 669.186 -1.16435 4.08324 0
M  V30 6964 O 670.21 -0.911522 3.4434 0
M  V30 6965 O 669.069 -1.63996 5.21313 0
M  V30 6966 H 666.163 -0.281851 0.777489 0
M  V30 6967 H 668.709 0.179916 1.68744 0
M  V30 6968 H 667.481 0.0830265 3.91212 0
M  V30 6969 H 667.104 -1.60956 3.63564 0
M  V30 6970 N 668.101 -1.57061 -0.130224 0
M  V30 6971 C 669.349 -1.83893 -0.838313 0
M  V30 6972 C 669.67 -0.727046 -1.80939 0
M  V30 6973 O 668.94 0.249927 -1.94299 0
M  V30 6974 H 667.52 -0.67846 -0.312573 0
M  V30 6975 H 670.182 -1.94529 -0.120224 0
M  V30 6976 H 669.278 -2.79419 -1.39038 0
M  V30 6977 N 669.579 0.400081 -1.52437 0
M  V30 6978 C 670.527 1.50851 -1.7705 0
M  V30 6979 C 671.521 1.56928 -0.637969 0
M  V30 6980 O 672.727 1.60226 -0.820212 0
M  V30 6981 H 669.102 0.50186 -0.560036 0
M  V30 6982 H 671.073 1.27281 -2.69893 0
M  V30 6983 C 669.822 2.88117 -1.94638 0
M  V30 6984 H 669.145 2.84187 -2.81208 0
M  V30 6985 H 670.585 3.64942 -2.15855 0
M  V30 6986 C 669.044 3.29206 -0.715899 0
M  V30 6987 O 669.574 4.01544 0.111944 0
M  V30 6988 N 667.78 2.85363 -0.549191 0
M  V30 6989 H 667.327 2.26664 -1.22397 0
M  V30 6990 H 667.285 3.13214 0.27278 0
M  V30 6991 N 671.057 1.43213 0.657864 0
M  V30 6992 C 672.306 1.43871 1.41365 0
M  V30 6993 C 672.619 0.064898 1.95492 0
M  V30 6994 O 673.825 -0.0510796 2.71452 0
M  V30 6995 C 672.281 2.53158 2.55811 0
M  V30 6996 C 671.889 3.96624 2.08311 0
M  V30 6997 C 673.633 2.63004 3.3321 0
M  V30 6998 C 671.54 4.97385 3.1994 0
M  V30 6999 H 670.47 0.535174 0.531136 0
M  V30 7000 H 673.121 1.69185 0.710543 0
M  V30 7001 H 671.503 2.21037 3.2857 0
M  V30 7002 H 672.677 4.38182 1.42593 0
M  V30 7003 H 670.992 3.90781 1.43804 0
M  V30 7004 H 673.589 3.3546 4.16378 0
M  V30 7005 H 673.932 1.67918 3.80932 0
M  V30 7006 H 674.465 2.94403 2.67529 0
M  V30 7007 H 671.204 5.94007 2.77192 0
M  V30 7008 H 670.724 4.60444 3.84385 0
M  V30 7009 H 672.403 5.19877 3.85145 0
M  V30 7010 N 672.536 -0.895792 1.29666 0
M  V30 7011 C 673.468 -2.00563 1.10937 0
M  V30 7012 C 674.481 -1.62705 0.055734 0
M  V30 7013 O 675.67 -1.7595 0.300656 0
M  V30 7014 C 672.77 -3.32262 0.667448 0
M  V30 7015 C 671.943 -3.98625 1.80047 0
M  V30 7016 C 671.002 -5.08617 1.3489 0
M  V30 7017 O 670.028 -5.30837 2.05429 0
M  V30 7018 N 671.23 -5.80076 0.221937 0
M  V30 7019 H 673.995 -2.17184 2.06522 0
M  V30 7020 H 671.556 -1.06822 1.21658 0
M  V30 7021 H 673.548 -4.03196 0.348586 0
M  V30 7022 H 672.118 -3.11985 -0.196055 0
M  V30 7023 H 671.338 -3.21005 2.28801 0
M  V30 7024 H 672.626 -4.39704 2.56003 0
M  V30 7025 H 672.024 -5.64514 -0.366084 0
M  V30 7026 H 670.581 -6.51789 -0.0375346 0
M  V30 7027 N 674.014 -1.12206 -1.10668 0
M  V30 7028 C 674.946 -0.74552 -2.16736 0
M  V30 7029 C 675.959 0.226696 -1.61214 0
M  V30 7030 O 677.148 0.0083936 -1.78498 0
M  V30 7031 C 674.248 -0.0823368 -3.388 0
M  V30 7032 C 673.421 -1.08341 -4.2377 0
M  V30 7033 C 672.48 -0.448292 -5.24287 0
M  V30 7034 O 671.506 -1.10458 -5.58379 0
M  V30 7035 N 672.708 0.785336 -5.75163 0
M  V30 7036 H 675.473 -1.65818 -2.49649 0
M  V30 7037 H 673.034 -1.01335 -1.26265 0
M  V30 7038 H 675.026 0.354476 -4.03145 0
M  V30 7039 H 673.596 0.733041 -3.03884 0
M  V30 7040 H 672.816 -1.69792 -3.55759 0
M  V30 7041 H 674.104 -1.76042 -4.77375 0
M  V30 7042 H 673.502 1.33755 -5.4966 0
M  V30 7043 H 672.059 1.16501 -6.41304 0
M  V30 7044 N 675.492 1.28418 -0.913599 0
M  V30 7045 C 676.442 2.24928 -0.373042 0
M  V30 7046 C 677.426 1.52444 0.514753 0
M  V30 7047 O 678.618 1.73414 0.3545 0
M  V30 7048 C 675.747 3.41124 0.385896 0
M  V30 7049 C 674.833 4.20929 -0.51761 0
M  V30 7050 N 675.224 4.78777 -1.63113 0
M  V30 7051 C 673.522 4.44865 -0.317969 0
M  V30 7052 C 674.223 5.38822 -2.19193 0
M  V30 7053 N 673.199 5.22974 -1.48321 0
M  V30 7054 H 677.001 2.67224 -1.22346 0
M  V30 7055 H 674.515 1.43187 -0.766236 0
M  V30 7056 H 676.512 4.09347 0.789997 0
M  V30 7057 H 675.172 3.00362 1.23341 0
M  V30 7058 H 676.183 4.77148 -2.01372 0
M  V30 7059 H 672.86 4.14614 0.49004 0
M  V30 7060 H 674.25 5.94615 -3.12861 0
M  V30 7061 N 676.97 0.677563 1.42291 0
M  V30 7062 C 678.198 0.209459 2.05837 0
M  V30 7063 C 678.613 -1.13444 1.50917 0
M  V30 7064 O 677.97 -1.70529 0.65008 0
M  V30 7065 C 678.021 0.138819 3.61233 0
M  V30 7066 O 677.742 1.42962 4.14118 0
M  V30 7067 C 679.243 -0.352449 4.41897 0
M  V30 7068 H 676.463 0.101209 0.663323 0
M  V30 7069 H 679.007 0.925077 1.8238 0
M  V30 7070 H 677.162 -0.527505 3.83792 0
M  V30 7071 H 677.576 1.3048 5.08011 0
M  V30 7072 H 679.05 -0.350778 5.50884 0
M  V30 7073 H 679.527 -1.3882 4.16684 0
M  V30 7074 H 680.133 0.282236 4.24362 0
M  V30 7075 N 678.448 -1.51871 0.421078 0
M  V30 7076 C 679.38 -2.25052 -0.434065 0
M  V30 7077 C 680.393 -1.28458 -1.00013 0
M  V30 7078 O 681.582 -1.54323 -0.897033 0
M  V30 7079 C 678.682 -2.97813 -1.61743 0
M  V30 7080 C 677.855 -4.21374 -1.17315 0
M  V30 7081 C 676.914 -4.76854 -2.22478 0
M  V30 7082 O 675.94 -5.39123 -1.82577 0
M  V30 7083 N 677.142 -4.59467 -3.54782 0
M  V30 7084 H 679.907 -2.99077 0.193073 0
M  V30 7085 H 677.468 -1.59972 0.249088 0
M  V30 7086 H 679.46 -3.3182 -2.31685 0
M  V30 7087 H 678.03 -2.26899 -2.15024 0
M  V30 7088 H 677.25 -3.93046 -0.3014 0
M  V30 7089 H 678.538 -5.01591 -0.853444 0
M  V30 7090 H 677.936 -4.09832 -3.89941 0
M  V30 7091 H 676.493 -4.9788 -4.20665 0
M  V30 7092 N 679.926 -0.151884 -1.56866 0
M  V30 7093 C 680.836 0.798876 -2.20579 0
M  V30 7094 C 681.852 1.268 -1.19154 0
M  V30 7095 O 683.028 1.32418 -1.51748 0
M  V30 7096 C 680.093 2.01861 -2.81874 0
M  V30 7097 C 679.154 1.59825 -3.9844 0
M  V30 7098 C 678.387 2.75984 -4.56802 0
M  V30 7099 O 678.61 3.92331 -4.14044 0
M  V30 7100 O 677.544 2.51175 -5.46987 0
M  V30 7101 H 681.37 0.2865 -3.02346 0
M  V30 7102 H 678.955 0.0753806 -1.4921 0
M  V30 7103 H 680.837 2.73235 -3.20813 0
M  V30 7104 H 679.512 2.52042 -2.03117 0
M  V30 7105 H 678.419 0.854601 -3.64208 0
M  V30 7106 H 679.752 1.14355 -4.78731 0
M  V30 7107 N 681.404 1.57128 0.121893 0
M  V30 7108 C 682.334 2.03165 1.15092 0
M  V30 7109 C 683.315 0.915587 1.43356 0
M  V30 7110 O 684.5 1.1851 1.53847 0
M  V30 7111 C 681.63 2.43352 2.47784 0
M  V30 7112 C 680.584 3.58376 2.33989 0
M  V30 7113 C 679.91 3.84454 3.71617 0
M  V30 7114 C 681.21 4.90199 1.80283 0
M  V30 7115 H 682.904 2.89382 0.768023 0
M  V30 7116 H 680.45 1.39218 0.367998 0
M  V30 7117 H 682.403 2.74163 3.20019 0
M  V30 7118 H 681.127 1.54103 2.87958 0
M  V30 7119 H 679.786 3.2777 1.64202 0
M  V30 7120 H 679.434 2.92414 4.09271 0
M  V30 7121 H 679.134 4.61877 3.6324 0
M  V30 7122 H 680.658 4.17714 4.45362 0
M  V30 7123 H 682.072 5.19565 2.42333 0
M  V30 7124 H 680.469 5.71601 1.82735 0
M  V30 7125 H 681.539 4.78904 0.760184 0
M  V30 7126 N 682.882 -0.391992 1.52647 0
M  V30 7127 C 684.129 -1.13732 1.67545 0
M  V30 7128 C 684.457 -1.90045 0.413881 0
M  V30 7129 O 683.712 -1.86157 -0.603646 0
M  V30 7130 C 684.011 -2.14401 2.85949 0
M  V30 7131 C 683.677 -1.54767 4.23507 0
M  V30 7132 C 682.339 -1.38229 4.60919 0
M  V30 7133 C 684.691 -1.11382 5.0916 0
M  V30 7134 C 682.019 -0.7685 5.81645 0
M  V30 7135 C 684.371 -0.514143 6.30507 0
M  V30 7136 C 683.035 -0.33604 6.66654 0
M  V30 7137 H 682.305 -0.416174 0.613091 0
M  V30 7138 H 684.952 -0.422327 1.86785 0
M  V30 7139 H 683.257 -2.92108 2.61114 0
M  V30 7140 H 684.954 -2.71974 2.94671 0
M  V30 7141 H 681.544 -1.68626 3.94035 0
M  V30 7142 H 685.728 -1.22962 4.80826 0
M  V30 7143 H 680.984 -0.618681 6.08262 0
M  V30 7144 H 685.158 -0.169657 6.96193 0
M  V30 7145 H 682.785 0.14166 7.60068 0
M  V30 7146 N 684.36 -1.4356 -0.65026 0
M  V30 7147 C 685.609 -1.44619 -1.406 0
M  V30 7148 C 685.922 -0.0752645 -1.95455 0
M  V30 7149 O 687.128 0.0366832 -2.71475 0
M  V30 7150 C 685.584 -2.54511 -2.54465 0
M  V30 7151 C 685.192 -3.97723 -2.06204 0
M  V30 7152 C 686.936 -2.64768 -3.31811 0
M  V30 7153 C 684.843 -4.99075 -3.17298 0
M  V30 7154 H 683.773 -0.537983 -0.52829 0
M  V30 7155 H 686.424 -1.69559 -0.701561 0
M  V30 7156 H 684.806 -2.22777 -3.27393 0
M  V30 7157 H 685.98 -4.38932 -1.40267 0
M  V30 7158 H 684.295 -3.91538 -1.41729 0
M  V30 7159 H 686.892 -3.37664 -4.14593 0
M  V30 7160 H 687.235 -1.69936 -3.80036 0
M  V30 7161 H 687.768 -2.95817 -2.65964 0
M  V30 7162 H 684.507 -5.95469 -2.74038 0
M  V30 7163 H 684.027 -4.62476 -3.81937 0
M  V30 7164 H 685.706 -5.21913 -3.82382 0
M  V30 7165 N 685.838 0.888903 -1.30139 0
M  V30 7166 C 687.063 1.67884 -1.21777 0
M  V30 7167 C 687.488 1.86848 0.216689 0
M  V30 7168 O 686.846 1.39659 1.15608 0
M  V30 7169 C 686.894 3.03483 -1.94757 0
M  V30 7170 O 685.998 3.92294 -1.27198 0
M  V30 7171 H 685.339 0.513144 -0.421402 0
M  V30 7172 H 687.869 1.10968 -1.71893 0
M  V30 7173 H 687.879 3.53553 -2.03627 0
M  V30 7174 H 686.554 2.89 -2.99085 0
M  V30 7175 H 685.131 3.50732 -1.26655 0
M  V30 7176 N 687.317 1.12792 1.10072 0
M  V30 7177 C 688.265 0.794523 2.18609 0
M  V30 7178 C 689.259 -0.220271 1.67962 0
M  V30 7179 O 690.465 -0.0780938 1.79831 0
M  V30 7180 H 686.84 0.239123 0.712969 0
M  V30 7181 H 688.811 1.71823 2.43966 0
M  V30 7182 C 687.56 0.269548 3.46654 0
M  V30 7183 H 686.883 1.04171 3.8599 0
M  V30 7184 H 688.323 0.0746242 4.23934 0
M  V30 7185 C 686.782 -1.00333 3.21613 0
M  V30 7186 O 687.312 -2.08042 3.4363 0
M  V30 7187 N 685.518 -0.931763 2.75257 0
M  V30 7188 H 685.065 -0.0551197 2.57541 0
M  V30 7189 H 685.023 -1.78405 2.58881 0
M  V30 7190 N 688.795 -1.27931 0.920396 0
M  V30 7191 C 690.044 -1.93975 0.552867 0
M  V30 7192 C 690.357 -1.73193 -0.909035 0
M  V30 7193 O 691.563 -2.33515 -1.38502 0
M  V30 7194 C 690.019 -3.47463 0.937947 0
M  V30 7195 C 689.627 -3.77013 2.42003 0
M  V30 7196 C 691.371 -4.19628 0.64132 0
M  V30 7197 C 689.278 -5.23841 2.74489 0
M  V30 7198 H 688.208 -0.726146 0.203046 0
M  V30 7199 H 690.859 -1.45339 1.12022 0
M  V30 7200 H 689.241 -3.94867 0.299317 0
M  V30 7201 H 690.415 -3.40393 3.10595 0
M  V30 7202 H 688.73 -3.18035 2.6878 0
M  V30 7203 H 691.327 -5.27729 0.860622 0
M  V30 7204 H 691.67 -4.14164 -0.421168 0
M  V30 7205 H 692.203 -3.78022 1.23872 0
M  V30 7206 H 688.942 -5.34388 3.79618 0
M  V30 7207 H 688.462 -5.61634 2.1054 0
M  V30 7208 H 690.141 -5.91647 2.61845 0
M  V30 7209 N 690.273 -0.685099 -1.4193 0
M  V30 7210 C 691.501 -0.220372 -2.05723 0
M  V30 7211 C 691.916 1.12642 -1.51516 0
M  V30 7212 O 691.273 1.70182 -0.659114 0
M  V30 7213 C 691.324 -0.157974 -3.61155 0
M  V30 7214 O 691.045 -1.45156 -4.13354 0
M  V30 7215 C 692.546 0.329009 -4.42077 0
M  V30 7216 H 689.766 -0.104725 -0.662777 0
M  V30 7217 H 692.31 -0.934736 -1.81887 0
M  V30 7218 H 690.465 0.507144 -3.84066 0
M  V30 7219 H 690.879 -1.33172 -5.07312 0
M  V30 7220 H 692.353 0.321559 -5.51063 0
M  V30 7221 H 692.83 1.36608 -4.17414 0
M  V30 7222 H 693.436 -0.304737 -4.24207 0
M  V30 7223 N 691.751 1.51645 -0.429126 0
M  V30 7224 C 692.661 2.31288 0.392809 0
M  V30 7225 C 693.677 1.39852 1.03525 0
M  V30 7226 O 694.853 1.72926 1.03241 0
M  V30 7227 C 691.918 3.13347 1.48372 0
M  V30 7228 C 690.979 4.20551 0.862268 0
M  V30 7229 C 690.212 4.98688 1.9012 0
M  V30 7230 O 690.435 4.77359 3.12225 0
M  V30 7231 O 689.369 5.83005 1.4963 0
M  V30 7232 H 693.195 3.02609 -0.257138 0
M  V30 7233 H 690.78 1.48163 -0.191851 0
M  V30 7234 H 692.662 3.64387 2.1166 0
M  V30 7235 H 691.337 2.44799 2.1179 0
M  V30 7236 H 690.244 3.73609 0.191568 0
M  V30 7237 H 691.577 4.91449 0.271704 0
M  V30 7238 N 693.229 0.160201 1.56784 0
M  V30 7239 C 694.176 -0.774416 2.1742 0
M  V30 7240 C 695.146 -1.23483 1.11091 0
M  V30 7241 O 696.331 -1.30499 1.39193 0
M  V30 7242 C 693.471 -2.00283 2.81035 0
M  V30 7243 C 692.584 -1.58701 4.01793 0
M  V30 7244 C 691.719 -2.76824 4.53367 0
M  V30 7245 C 690.758 -2.31679 5.66561 0
M  V30 7246 N 689.895 -3.42856 6.12694 0
M  V30 7247 H 694.735 -0.250542 2.96945 0
M  V30 7248 H 692.272 -0.111943 1.46673 0
M  V30 7249 H 694.23 -2.72316 3.16069 0
M  V30 7250 H 692.86 -2.5006 2.04132 0
M  V30 7251 H 691.912 -0.76384 3.72652 0
M  V30 7252 H 693.224 -1.21555 4.83762 0
M  V30 7253 H 692.378 -3.57029 4.90525 0
M  V30 7254 H 691.117 -3.17223 3.70433 0
M  V30 7255 H 690.122 -1.49917 5.28966 0
M  V30 7256 H 691.347 -1.9235 6.5129 0
M  V30 7257 H 689.293 -3.82852 5.32692 0
M  V30 7258 H 689.21 -3.09767 6.89624 0
M  V30 7259 H 690.478 -4.23379 6.545 0
M  V30 7260 N 694.707 -1.5719 -0.113559 0
M  V30 7261 C 695.655 -2.01725 -1.158 0
M  V30 7262 C 696.649 -0.915105 -1.42556 0
M  V30 7263 O 697.855 -1.10031 -1.42454 0
M  V30 7264 H 694.23 -0.64262 -0.390569 0
M  V30 7265 H 696.201 -2.88666 -0.755926 0
M  V30 7266 C 694.95 -2.44203 -2.47507 0
M  V30 7267 H 694.273 -3.28582 -2.27758 0
M  V30 7268 H 695.713 -2.79158 -3.19135 0
M  V30 7269 C 694.172 -1.30785 -3.10478 0
M  V30 7270 O 694.702 -0.626807 -3.9678 0
M  V30 7271 N 692.908 -1.06352 -2.7044 0
M  V30 7272 H 692.455 -1.61913 -2.00355 0
M  V30 7273 H 692.413 -0.306614 -3.12901 0
M  V30 7274 N 696.185 0.383891 -1.52853 0
M  V30 7275 C 697.41 1.154 -1.7233 0
M  V30 7276 C 697.835 1.82809 -0.44298 0
M  V30 7277 O 697.193 1.71026 0.601645 0
M  V30 7278 C 697.241 2.17386 -2.87708 0
M  V30 7279 O 696.345 3.24082 -2.55038 0
M  V30 7280 H 695.686 0.335709 -0.572883 0
M  V30 7281 H 698.216 0.44662 -1.99666 0
M  V30 7282 H 698.226 2.61296 -3.1335 0
M  V30 7283 H 696.901 1.6771 -3.80587 0
M  V30 7284 H 695.478 2.85273 -2.40153 0
M  V30 7285 N 697.663 1.43903 0.642637 0
M  V30 7286 C 698.911 1.45791 1.39962 0
M  V30 7287 C 699.232 0.0873144 1.94804 0
M  V30 7288 O 698.502 -0.878825 1.75081 0
M  V30 7289 H 697.082 0.536797 0.519479 0
M  V30 7290 H 699.744 1.7959 0.757189 0
M  V30 7291 H 698.84 2.17665 2.2367 0
M  V30 7292 N 699.141 -0.881989 1.30609 0
M  V30 7293 C 700.071 -2.00413 1.1982 0
M  V30 7294 C 701.052 -1.69871 0.0881538 0
M  V30 7295 O 702.237 -1.92304 0.2707 0
M  V30 7296 C 699.367 -3.35641 0.89233 0
M  V30 7297 C 698.321 -3.80451 1.96064 0
M  V30 7298 C 697.647 -5.13003 1.5077 0
M  V30 7299 C 698.947 -3.98855 3.37213 0
M  V30 7300 H 700.641 -2.09698 2.13699 0
M  V30 7301 H 698.187 -1.00754 1.02882 0
M  V30 7302 H 700.14 -4.13669 0.803497 0
M  V30 7303 H 698.864 -3.26497 -0.0821381 0
M  V30 7304 H 697.523 -3.04654 2.03916 0
M  V30 7305 H 697.171 -5.0029 0.521417 0
M  V30 7306 H 696.871 -5.43956 2.22229 0
M  V30 7307 H 698.395 -5.93554 1.43271 0
M  V30 7308 H 699.809 -4.67312 3.32103 0
M  V30 7309 H 698.206 -4.41188 4.06784 0
M  V30 7310 H 699.276 -3.02614 3.78883 0
M  V30 7311 N 700.619 -1.13374 -1.09472 0
M  V30 7312 C 701.849 -0.917019 -1.85133 0
M  V30 7313 C 702.257 0.537568 -1.81402 0
M  V30 7314 O 701.6 1.38385 -1.20811 0
M  V30 7315 C 701.662 -1.32646 -3.34134 0
M  V30 7316 C 701.326 -2.79437 -3.61613 0
M  V30 7317 C 702.323 -3.77596 -3.57375 0
M  V30 7318 C 700.008 -3.16586 -3.89973 0
M  V30 7319 C 702.002 -5.10916 -3.81108 0
M  V30 7320 C 699.689 -4.50085 -4.13361 0
M  V30 7321 C 700.687 -5.47059 -4.0892 0
M  V30 7322 O 700.375 -6.78149 -4.31705 0
M  V30 7323 H 700.107 -0.326997 -0.591649 0
M  V30 7324 H 702.661 -1.51002 -1.39239 0
M  V30 7325 H 700.891 -0.676719 -3.80733 0
M  V30 7326 H 702.58 -1.08229 -3.91205 0
M  V30 7327 H 703.346 -3.50242 -3.35493 0
M  V30 7328 H 699.225 -2.41707 -3.92554 0
M  V30 7329 H 702.769 -5.86597 -3.77558 0
M  V30 7330 H 698.666 -4.77163 -4.34724 0
M  V30 7331 H 699.434 -6.84244 -4.49168 0
M  V30 7332 N 702.098 1.27442 -0.927168 0
M  V30 7333 C 703.326 1.98498 -0.583622 0
M  V30 7334 C 703.741 1.69171 0.838241 0
M  V30 7335 O 703.098 0.951969 1.55704 0
M  V30 7336 C 703.149 3.52552 -0.799341 0
M  V30 7337 O 702.87 3.80851 -2.16527 0
M  V30 7338 C 704.371 4.4086 -0.464436 0
M  V30 7339 H 701.591 0.633487 -0.221213 0
M  V30 7340 H 704.135 1.62308 -1.24404 0
M  V30 7341 H 702.29 3.86955 -0.185728 0
M  V30 7342 H 702.704 4.75441 -2.21487 0
M  V30 7343 H 704.178 5.47967 -0.666075 0
M  V30 7344 H 704.655 4.35082 0.599995 0
M  V30 7345 H 705.261 4.11977 -1.05617 0
M  V30 7346 N 703.576 0.692616 1.41565 0
M  V30 7347 C 704.816 0.226453 2.03142 0
M  V30 7348 C 705.18 -1.1512 1.5366 0
M  V30 7349 O 706.381 -1.71305 2.07143 0
M  V30 7350 C 704.652 0.27855 3.56313 0
M  V30 7351 S 706.211 -0.114001 4.38652 0
M  V30 7352 H 703.029 0.0914767 0.705091 0
M  V30 7353 H 705.631 0.909737 1.73043 0
M  V30 7354 H 704.335 1.28325 3.89821 0
M  V30 7355 H 703.866 -0.423981 3.91109 0
M  V30 7356 H 705.881 -1.34256 4.77692 0
M  V30 7357 N 705.054 -1.51416 0.437162 0
M  V30 7358 C 705.986 -2.255 -0.410171 0
M  V30 7359 C 706.999 -1.29511 -0.986444 0
M  V30 7360 O 708.188 -1.55266 -0.880614 0
M  V30 7361 C 705.288 -2.99511 -1.58575 0
M  V30 7362 C 704.461 -4.22595 -1.12839 0
M  V30 7363 C 703.52 -4.79187 -2.17407 0
M  V30 7364 O 702.546 -5.4103 -1.76849 0
M  V30 7365 N 703.748 -4.63204 -3.49889 0
M  V30 7366 H 706.513 -2.98856 0.224783 0
M  V30 7367 H 704.074 -1.59699 0.266041 0
M  V30 7368 H 706.066 -3.34258 -2.28152 0
M  V30 7369 H 704.636 -2.29167 -2.12606 0
M  V30 7370 H 703.856 -3.93344 -0.259695 0
M  V30 7371 H 705.144 -5.02468 -0.800196 0
M  V30 7372 H 704.542 -4.13945 -3.85573 0
M  V30 7373 H 703.099 -5.02313 -4.15361 0
M  V30 7374 N 706.532 -0.168513 -1.56696 0
M  V30 7375 C 707.495 0.748928 -2.16619 0
M  V30 7376 C 708.495 1.16007 -1.11351 0
M  V30 7377 O 709.685 1.07748 -1.3688 0
M  V30 7378 C 706.817 2.01904 -2.74677 0
M  V30 7379 H 708.01 0.227317 -2.99037 0
M  V30 7380 H 705.563 0.0810372 -1.5609 0
M  V30 7381 H 706.298 2.58381 -1.95985 0
M  V30 7382 H 706.083 1.73323 -3.51712 0
M  V30 7383 H 707.573 2.67383 -3.20774 0
M  V30 7384 N 708.01 1.57248 0.105221 0
M  V30 7385 C 708.958 2.02337 1.14728 0
M  V30 7386 C 709.952 0.922652 1.42069 0
M  V30 7387 O 711.158 1.10785 1.41869 0
M  V30 7388 H 707.533 0.644682 0.387155 0
M  V30 7389 H 709.504 2.89063 0.740607 0
M  V30 7390 C 708.253 2.45513 2.46209 0
M  V30 7391 H 707.576 3.29785 2.26013 0
M  V30 7392 H 709.016 2.80846 3.1765 0
M  V30 7393 C 707.475 1.3243 3.09781 0
M  V30 7394 O 708.005 0.647841 3.96442 0
M  V30 7395 N 706.211 1.07785 2.69872 0
M  V30 7396 H 705.758 1.62973 1.99493 0
M  V30 7397 H 705.716 0.323204 3.12734 0
M  V30 7398 N 709.488 -0.375779 1.53054 0
M  V30 7399 C 710.436 -1.48015 1.79428 0
M  V30 7400 C 711.43 -1.55893 0.662854 0
M  V30 7401 O 712.636 -1.58901 0.845599 0
M  V30 7402 H 709.011 -0.492887 0.56795 0
M  V30 7403 H 710.982 -1.22971 2.71884 0
M  V30 7404 C 709.731 -2.84984 1.99197 0
M  V30 7405 H 709.054 -2.79677 2.85693 0
M  V30 7406 H 710.494 -3.61462 2.21633 0
M  V30 7407 C 708.953 -3.28025 0.768183 0
M  V30 7408 O 709.483 -4.01671 -0.0480482 0
M  V30 7409 N 707.689 -2.84454 0.594521 0
M  V30 7410 H 707.236 -2.24688 1.25988 0
M  V30 7411 H 707.194 -3.13609 -0.222916 0
M  V30 7412 N 710.966 -1.44241 -0.634997 0
M  V30 7413 C 712.191 -1.50516 -1.42687 0
M  V30 7414 C 712.616 -0.129864 -1.87651 0
M  V30 7415 O 711.974 0.880164 -1.58502 0
M  V30 7416 C 712.022 -2.4714 -2.62591 0
M  V30 7417 O 711.126 -1.97025 -3.62291 0
M  V30 7418 H 710.467 -0.50841 -0.427101 0
M  V30 7419 H 712.997 -1.89337 -0.775408 0
M  V30 7420 H 713.007 -2.65048 -3.10183 0
M  V30 7421 H 711.682 -3.47039 -2.29209 0
M  V30 7422 H 710.259 -1.88866 -3.21534 0
M  V30 7423 N 712.444 0.87505 -1.31075 0
M  V30 7424 C 713.407 1.96333 -1.18263 0
M  V30 7425 C 714.407 1.60416 -0.111106 0
M  V30 7426 O 715.597 1.7044 -0.359987 0
M  V30 7427 C 712.729 3.31036 -0.81414 0
M  V30 7428 H 713.922 2.09125 -2.14958 0
M  V30 7429 H 711.475 1.06271 -1.14614 0
M  V30 7430 H 712.21 3.23944 0.151875 0
M  V30 7431 H 711.995 3.58476 -1.58862 0
M  V30 7432 H 713.485 4.10842 -0.748249 0
M  V30 7433 N 713.922 1.13953 1.08869 0
M  V30 7434 C 715.147 0.928559 1.85452 0
M  V30 7435 C 715.572 -0.517642 1.80837 0
M  V30 7436 O 714.93 -1.36779 1.19001 0
M  V30 7437 C 714.978 1.42814 3.31114 0
M  V30 7438 O 714.082 0.617129 4.07756 0
M  V30 7439 H 713.423 0.33235 0.574839 0
M  V30 7440 H 715.953 1.5156 1.37443 0
M  V30 7441 H 715.963 1.43425 3.8196 0
M  V30 7442 H 714.638 2.48109 3.33788 0
M  V30 7443 H 713.215 0.679365 3.66659 0
M  V30 7444 N 715.4 -1.26948 0.933913 0
M  V30 7445 C 716.648 -1.93704 0.576484 0
M  V30 7446 C 716.969 -1.73702 -0.886145 0
M  V30 7447 O 716.239 -1.08838 -1.62884 0
M  V30 7448 H 714.819 -0.716812 0.210214 0
M  V30 7449 H 717.481 -1.54534 1.18766 0
M  V30 7450 H 716.577 -3.01987 0.788055 0
M  V30 7451 N 716.879 -0.700114 -1.41195 0
M  V30 7452 C 717.829 -0.0144098 -2.27995 0
M  V30 7453 C 718.813 0.748249 -1.42443 0
M  V30 7454 O 720.005 0.622995 -1.65674 0
M  V30 7455 C 717.134 0.917938 -3.308 0
M  V30 7456 C 716.22 0.151286 -4.2383 0
M  V30 7457 N 716.611 -0.85732 -4.98481 0
M  V30 7458 C 714.909 0.386108 -4.44326 0
M  V30 7459 C 715.61 -1.31663 -5.66604 0
M  V30 7460 N 714.586 -0.641689 -5.39799 0
M  V30 7461 H 718.388 -0.787662 -2.83149 0
M  V30 7462 H 715.902 -0.531344 -1.53462 0
M  V30 7463 H 717.899 1.42437 -3.91813 0
M  V30 7464 H 716.559 1.69074 -2.77208 0
M  V30 7465 H 717.57 -1.2377 -5.02893 0
M  V30 7466 H 714.247 1.13644 -4.01735 0
M  V30 7467 H 715.637 -2.15384 -6.36443 0
M  V30 7468 N 718.357 1.51182 -0.445186 0
M  V30 7469 C 719.582 2.07056 0.119445 0
M  V30 7470 C 720.007 1.30966 1.35016 0
M  V30 7471 O 719.365 0.349827 1.77893 0
M  V30 7472 C 719.413 3.58234 0.412428 0
M  V30 7473 O 718.517 3.84249 1.49754 0
M  V30 7474 H 717.858 0.663998 -0.00157797 0
M  V30 7475 H 720.388 1.94699 -0.628779 0
M  V30 7476 H 720.398 4.02617 0.660583 0
M  V30 7477 H 719.073 4.13038 -0.487049 0
M  V30 7478 H 717.65 3.51724 1.23873 0
M  V30 7479 N 719.835 0.176821 1.56605 0
M  V30 7480 C 721.251 -0.179278 1.5859 0
M  V30 7481 C 721.451 -1.62433 1.19238 0
M  V30 7482 O 720.507 -2.35665 0.906552 0
M  V30 7483 C 721.82 0.106524 3.00511 0
M  V30 7484 C 723.368 0.0451731 3.12967 0
M  V30 7485 C 723.843 0.304038 4.5699 0
M  V30 7486 N 725.334 0.252008 4.62514 0
M  V30 7487 C 726.069 0.426404 5.71812 0
M  V30 7488 N 725.565 0.660155 6.89648 0
M  V30 7489 N 727.358 0.361926 5.60934 0
M  V30 7490 H 719.509 1.12001 1.8047 0
M  V30 7491 H 721.772 0.445679 0.836704 0
M  V30 7492 H 721.478 1.10778 3.33798 0
M  V30 7493 H 721.352 -0.599337 3.72408 0
M  V30 7494 H 723.739 -0.946662 2.79504 0
M  V30 7495 H 723.82 0.78383 2.43495 0
M  V30 7496 H 723.464 1.29311 4.91163 0
M  V30 7497 H 723.394 -0.455294 5.24628 0
M  V30 7498 H 725.885 0.0772102 3.77821 0
M  V30 7499 H 726.198 0.782529 7.68828 0
M  V30 7500 H 724.543 0.696835 6.91498 0
M  V30 7501 H 727.734 0.17986 4.67754 0
M  V30 7502 H 727.907 0.501263 6.46058 0
M  V30 7503 N 721.313 -1.57302 -0.09688 0
M  V30 7504 C 722.541 -1.90202 -0.814295 0
M  V30 7505 C 722.956 -0.770344 -1.72369 0
M  V30 7506 O 722.313 0.257764 -1.8067 0
M  V30 7507 C 722.364 -3.22708 -1.62916 0
M  V30 7508 O 722.085 -4.31522 -0.756343 0
M  V30 7509 C 723.586 -3.69459 -2.44979 0
M  V30 7510 H 720.806 -0.629275 -0.232925 0
M  V30 7511 H 723.35 -2.04364 -0.0746482 0
M  V30 7512 H 721.505 -3.1015 -2.32133 0
M  V30 7513 H 721.919 -5.07604 -1.32054 0
M  V30 7514 H 723.393 -4.64875 -2.9765 0
M  V30 7515 H 723.87 -2.97211 -3.23361 0
M  V30 7516 H 724.476 -3.84879 -1.80964 0
M  V30 7517 N 722.791 0.367657 -1.53252 0
M  V30 7518 C 724.019 1.13119 -1.73239 0
M  V30 7519 C 724.434 1.831 -0.460404 0
M  V30 7520 O 723.791 1.73483 0.566557 0
M  V30 7521 C 723.842 2.16308 -2.89643 0
M  V30 7522 O 723.563 1.49175 -4.1192 0
M  V30 7523 C 725.064 3.05224 -3.21486 0
M  V30 7524 H 722.284 0.338318 -0.579467 0
M  V30 7525 H 724.828 0.42721 -1.99988 0
M  V30 7526 H 722.983 2.82307 -2.65295 0
M  V30 7527 H 723.397 2.17912 -4.7709 0
M  V30 7528 H 724.871 3.73613 -4.06346 0
M  V30 7529 H 725.348 3.69919 -2.36763 0
M  V30 7530 H 725.954 2.44843 -3.47753 0
M  V30 7531 N 724.269 1.44576 0.627338 0
M  V30 7532 C 725.515 1.47777 1.38888 0
M  V30 7533 C 725.848 0.111406 1.9388 0
M  V30 7534 O 725.123 -0.87149 1.73883 0
M  V30 7535 C 725.406 2.54119 2.55138 0
M  V30 7536 C 725.259 4.00128 2.0547 0
M  V30 7537 C 726.578 2.56929 3.57317 0
M  V30 7538 H 723.697 0.538048 0.50366 0
M  V30 7539 H 726.339 1.76277 0.708978 0
M  V30 7540 H 724.489 2.29948 3.13139 0
M  V30 7541 H 726.161 4.35444 1.5227 0
M  V30 7542 H 724.404 4.11724 1.36623 0
M  V30 7543 H 725.075 4.7019 2.89181 0
M  V30 7544 H 727.551 2.78536 3.09122 0
M  V30 7545 H 726.427 3.33234 4.36173 0
M  V30 7546 H 726.688 1.6127 4.11636 0
M  V30 7547 N 725.747 -0.868086 1.31537 0
M  V30 7548 C 726.694 -1.97548 1.19346 0
M  V30 7549 C 727.664 -1.65913 0.0787922 0
M  V30 7550 O 728.849 -1.89129 0.251985 0
M  V30 7551 C 725.989 -3.32922 0.908692 0
M  V30 7552 C 725.102 -3.77141 2.10687 0
M  V30 7553 C 724.237 -5.01241 1.75873 0
M  V30 7554 C 723.276 -5.37914 2.92088 0
M  V30 7555 N 722.413 -6.53192 2.57457 0
M  V30 7556 H 727.253 -2.07307 2.14074 0
M  V30 7557 H 724.79 -1.01483 1.06487 0
M  V30 7558 H 726.748 -4.10867 0.724138 0
M  V30 7559 H 725.378 -3.228 -0.0017611 0
M  V30 7560 H 724.43 -2.94961 2.40213 0
M  V30 7561 H 725.742 -4.00248 2.97663 0
M  V30 7562 H 724.896 -5.86858 1.53891 0
M  V30 7563 H 723.635 -4.80041 0.86091 0
M  V30 7564 H 722.64 -4.50814 3.14717 0
M  V30 7565 H 723.865 -5.61077 3.82582 0
M  V30 7566 H 721.811 -6.33536 1.702 0
M  V30 7567 H 721.728 -6.76252 3.37963 0
M  V30 7568 H 722.996 -7.41997 2.38873 0
M  V30 7569 N 727.225 -1.14528 -1.08264 0
M  V30 7570 C 728.453 -0.937964 -1.84418 0
M  V30 7571 C 728.868 0.51357 -1.81681 0
M  V30 7572 O 728.225 1.35591 -1.22153 0
M  V30 7573 C 728.276 -1.43272 -3.31897 0
M  V30 7574 O 727.997 -2.82738 -3.34651 0
M  V30 7575 C 729.498 -1.26555 -4.24851 0
M  V30 7576 H 726.718 -0.333704 -0.582136 0
M  V30 7577 H 729.262 -1.52076 -1.36723 0
M  V30 7578 H 727.417 -0.892653 -3.76975 0
M  V30 7579 H 727.831 -3.04971 -4.26724 0
M  V30 7580 H 729.305 -1.66031 -5.26439 0
M  V30 7581 H 729.782 -0.208589 -4.38704 0
M  V30 7582 H 730.388 -1.79423 -3.856 0
M  V30 7583 N 728.703 1.26451 -0.940633 0
M  V30 7584 C 729.952 1.93071 -0.583656 0
M  V30 7585 C 730.265 1.74618 0.881366 0
M  V30 7586 O 731.471 2.35689 1.34769 0
M  V30 7587 C 729.927 3.45927 -0.993106 0
M  V30 7588 C 729.535 3.73115 -2.4797 0
M  V30 7589 C 731.279 4.18554 -0.707998 0
M  V30 7590 C 729.186 5.19408 -2.82788 0
M  V30 7591 H 728.116 0.722824 -0.214572 0
M  V30 7592 H 730.767 1.43538 -1.1432 0
M  V30 7593 H 729.149 3.94341 -0.362099 0
M  V30 7594 H 730.323 3.35408 -3.15971 0
M  V30 7595 H 728.638 3.13719 -2.73805 0
M  V30 7596 H 731.235 5.26293 -0.94447 0
M  V30 7597 H 731.578 4.14782 0.355225 0
M  V30 7598 H 732.111 3.76003 -1.2987 0
M  V30 7599 H 728.85 5.28281 -3.88071 0
M  V30 7600 H 728.37 5.58214 -2.19449 0
M  V30 7601 H 730.049 5.87407 -2.71224 0
M  V30 7602 N 730.181 0.707592 1.40822 0
M  V30 7603 C 731.409 0.253073 2.05346 0
M  V30 7604 C 731.824 -1.10218 1.53289 0
M  V30 7605 O 731.181 -1.69112 0.686105 0
M  V30 7606 C 731.232 0.215411 3.60858 0
M  V30 7607 O 730.953 1.51714 4.10992 0
M  V30 7608 C 732.454 -0.258636 4.42545 0
M  V30 7609 H 729.674 0.115256 0.661027 0
M  V30 7610 H 732.218 0.963555 1.80377 0
M  V30 7611 H 730.373 -0.445978 3.84824 0
M  V30 7612 H 730.787 1.41226 5.05129 0
M  V30 7613 H 732.261 -0.233849 5.51504 0
M  V30 7614 H 732.738 -1.2995 4.19535 0
M  V30 7615 H 733.344 0.372186 4.23668 0
M  V30 7616 N 731.66 -1.50943 0.453197 0
M  V30 7617 C 732.906 -2.02512 -0.108082 0
M  V30 7618 C 733.239 -1.33574 -1.40967 0
M  V30 7619 O 732.514 -0.455671 -1.89087 0
M  V30 7620 C 732.797 -3.58759 -0.310453 0
M  V30 7621 C 732.65 -4.38293 1.0109 0
M  V30 7622 C 733.969 -4.26816 -1.07313 0
M  V30 7623 H 731.088 -0.73603 -0.0378064 0
M  V30 7624 H 733.73 -1.80433 0.595295 0
M  V30 7625 H 731.88 -3.77702 -0.909582 0
M  V30 7626 H 733.552 -4.30964 1.64523 0
M  V30 7627 H 731.795 -4.02745 1.61179 0
M  V30 7628 H 732.466 -5.45828 0.82315 0
M  V30 7629 H 734.942 -4.1224 -0.565473 0
M  V30 7630 H 733.818 -5.35989 -1.1835 0
M  V30 7631 H 734.079 -3.88757 -2.10525 0
M  V30 7632 N 733.138 -0.185124 -1.56509 0
M  V30 7633 C 734.363 0.465278 -2.02114 0
M  V30 7634 C 734.788 1.55083 -1.06447 0
M  V30 7635 O 734.146 1.81241 -0.0462852 0
M  V30 7636 C 734.194 1.00784 -3.46229 0
M  V30 7637 O 733.298 2.12123 -3.53663 0
M  V30 7638 H 732.639 0.109891 -0.654843 0
M  V30 7639 H 735.169 -0.293072 -2.0249 0
M  V30 7640 H 735.179 1.32697 -3.85818 0
M  V30 7641 H 733.854 0.213113 -4.15354 0
M  V30 7642 H 732.431 1.8115 -3.25943 0
M  V30 7643 N 734.616 1.57351 0.0885366 0
M  V30 7644 C 735.579 2.01557 1.09121 0
M  V30 7645 C 736.579 0.910052 1.3257 0
M  V30 7646 O 737.769 1.17537 1.28572 0
M  V30 7647 C 734.901 2.38189 2.43883 0
M  V30 7648 H 736.094 2.91361 0.710562 0
M  V30 7649 H 733.647 1.52694 0.333779 0
M  V30 7650 H 734.382 1.5136 2.86811 0
M  V30 7651 H 734.167 3.18846 2.28209 0
M  V30 7652 H 735.657 2.73025 3.15986 0
M  V30 7653 N 736.094 -0.359525 1.53444 0
M  V30 7654 C 737.004 -1.46445 1.83278 0
M  V30 7655 C 738.02 -1.5833 0.721629 0
M  V30 7656 O 739.196 -1.7411 1.01231 0
M  V30 7657 C 736.261 -2.81638 2.02191 0
M  V30 7658 C 735.322 -2.7923 3.26082 0
M  V30 7659 C 734.555 -4.07974 3.44082 0
M  V30 7660 O 734.778 -5.04447 2.66251 0
M  V30 7661 O 733.712 -4.13417 4.37458 0
M  V30 7662 H 737.538 -1.24156 2.77162 0
M  V30 7663 H 735.123 -0.550201 1.389 0
M  V30 7664 H 737.005 -3.61732 2.16167 0
M  V30 7665 H 735.68 -3.03892 1.11496 0
M  V30 7666 H 734.587 -1.97813 3.17523 0
M  V30 7667 H 735.92 -2.6193 4.16718 0
M  V30 7668 N 737.572 -1.44907 -0.619662 0
M  V30 7669 C 738.502 -1.55488 -1.742 0
M  V30 7670 C 739.483 -0.407143 -1.65156 0
M  V30 7671 O 740.668 -0.628743 -1.8374 0
M  V30 7672 C 737.798 -1.5097 -3.1277 0
M  V30 7673 C 736.752 -2.64337 -3.36615 0
M  V30 7674 C 736.078 -2.44872 -4.75333 0
M  V30 7675 C 737.378 -4.06423 -3.28051 0
M  V30 7676 H 739.072 -2.49432 -1.65602 0
M  V30 7677 H 736.618 -1.20047 -0.795281 0
M  V30 7678 H 738.571 -1.56971 -3.91073 0
M  V30 7679 H 737.295 -0.535486 -3.2218 0
M  V30 7680 H 735.954 -2.57744 -2.60698 0
M  V30 7681 H 735.602 -1.45617 -4.81461 0
M  V30 7682 H 735.302 -3.20888 -4.92244 0
M  V30 7683 H 736.826 -2.52709 -5.55851 0
M  V30 7684 H 738.24 -4.14324 -3.96243 0
M  V30 7685 H 736.637 -4.82733 -3.56495 0
M  V30 7686 H 737.707 -4.29183 -2.25676 0
M  V30 7687 N 739.05 0.861098 -1.31996 0
M  V30 7688 C 740.461 1.43065 -1.19955 0
M  V30 7689 C 740.812 1.95273 0.190489 0
M  V30 7690 O 739.937 1.87012 1.08882 0
M  V30 7691 C 740.532 2.60052 -2.1716 0
M  V30 7692 C 739.091 3.13026 -2.09026 0
M  V30 7693 C 738.238 1.85756 -2.05888 0
M  V30 7694 H 741.189 0.668834 -1.43918 0
M  V30 7695 H 741.21 3.37016 -1.76637 0
M  V30 7696 H 740.722 2.22024 -3.18319 0
M  V30 7697 H 738.823 3.55653 -1.11092 0
M  V30 7698 H 738.936 3.74707 -2.98549 0
M  V30 7699 H 737.3 2.05088 -1.51033 0
M  V30 7700 H 738.083 1.49954 -3.08818 0
M  V30 7701 N 740.528 1.15101 1.07655 0
M  V30 7702 C 741.475 0.844958 2.14777 0
M  V30 7703 C 742.445 -0.200798 1.64882 0
M  V30 7704 O 743.63 -0.0690278 1.90675 0
M  V30 7705 C 740.77 0.337018 3.4345 0
M  V30 7706 C 739.883 1.44398 4.07153 0
M  V30 7707 C 739.018 0.892487 5.23649 0
M  V30 7708 C 738.057 1.9766 5.79307 0
M  V30 7709 N 737.194 1.44171 6.87138 0
M  V30 7710 H 742.034 1.76242 2.40297 0
M  V30 7711 H 739.571 0.879435 1.17917 0
M  V30 7712 H 741.529 0.024256 4.17193 0
M  V30 7713 H 740.159 -0.543531 3.18191 0
M  V30 7714 H 739.211 1.87299 3.31094 0
M  V30 7715 H 740.523 2.26262 4.4453 0
M  V30 7716 H 739.677 0.532083 6.04362 0
M  V30 7717 H 738.416 0.0429854 4.87681 0
M  V30 7718 H 737.421 2.34586 4.97242 0
M  V30 7719 H 738.646 2.82982 6.17331 0
M  V30 7720 H 736.592 0.614518 6.53115 0
M  V30 7721 H 736.509 2.19665 7.23383 0
M  V30 7722 H 737.777 1.10945 7.71564 0
M  V30 7723 N 742.006 -1.2595 0.947325 0
M  V30 7724 C 743.417 -1.75389 0.639963 0
M  V30 7725 C 743.768 -1.77081 -0.844788 0
M  V30 7726 O 742.893 -1.3869 -1.66114 0
M  V30 7727 C 743.488 -3.18506 1.15496 0
M  V30 7728 C 742.047 -3.65534 0.897894 0
M  V30 7729 C 741.194 -2.44818 1.30228 0
M  V30 7730 H 744.145 -1.1194 1.12495 0
M  V30 7731 H 744.166 -3.77045 0.511627 0
M  V30 7732 H 743.678 -3.17243 2.23559 0
M  V30 7733 H 741.779 -3.72221 -0.168096 0
M  V30 7734 H 741.892 -4.54039 1.52922 0
M  V30 7735 H 740.256 -2.44291 0.720678 0
M  V30 7736 H 741.039 -2.46251 2.39198 0
M  V30 7737 N 743.484 -0.715051 -1.40445 0
M  V30 7738 C 744.709 -0.26254 -2.05732 0
M  V30 7739 C 745.134 1.08691 -1.53519 0
M  V30 7740 O 744.492 1.68453 -0.670328 0
M  V30 7741 C 744.54 -0.25195 -3.59719 0
M  V30 7742 O 743.644 0.766998 -4.05205 0
M  V30 7743 H 742.985 -0.123398 -0.652433 0
M  V30 7744 H 745.515 -0.975382 -1.79854 0
M  V30 7745 H 745.525 -0.0894537 -4.07902 0
M  V30 7746 H 744.2 -1.23672 -3.97087 0
M  V30 7747 H 742.777 0.572269 -3.68483 0
M  V30 7748 N 744.962 1.50701 -0.461195 0
M  V30 7749 C 746.211 2.01458 0.0988277 0
M  V30 7750 C 746.524 1.34863 1.41673 0
M  V30 7751 O 747.73 1.76721 2.06111 0
M  V30 7752 C 746.186 3.59186 0.226648 0
M  V30 7753 C 745.794 4.34732 -1.08223 0
M  V30 7754 C 747.538 4.18015 0.73916 0
M  V30 7755 C 745.445 5.8422 -0.918747 0
M  V30 7756 H 744.375 0.7529 0.040709 0
M  V30 7757 H 747.026 1.736 -0.594589 0
M  V30 7758 H 745.408 3.83589 0.983621 0
M  V30 7759 H 746.582 4.22059 -1.84939 0
M  V30 7760 H 744.897 3.87466 -1.52509 0
M  V30 7761 H 747.494 5.27436 0.878347 0
M  V30 7762 H 747.837 3.78746 1.72793 0
M  V30 7763 H 748.37 3.9778 0.0398469 0
M  V30 7764 H 745.109 6.27944 -1.88059 0
M  V30 7765 H 744.629 5.99493 -0.191801 0
M  V30 7766 H 746.308 6.44382 -0.581405 0
M  V30 7767 N 746.441 0.193421 1.56409 0
M  V30 7768 C 747.666 -0.454552 2.02358 0
M  V30 7769 C 748.091 -1.54516 1.07268 0
M  V30 7770 O 747.449 -1.81214 0.0558962 0
M  V30 7771 C 747.497 -0.989469 3.46759 0
M  V30 7772 O 746.601 -2.10244 3.54783 0
M  V30 7773 H 745.942 -0.106417 0.655417 0
M  V30 7774 H 748.472 0.303807 2.02332 0
M  V30 7775 H 748.482 -1.30649 3.86516 0
M  V30 7776 H 747.157 -0.191083 4.15461 0
M  V30 7777 H 745.734 -1.79419 3.26899 0
M  V30 7778 N 747.919 -1.57396 -0.0801906 0
M  V30 7779 C 749.144 -1.91437 -0.797909 0
M  V30 7780 C 749.569 -0.789075 -1.70749 0
M  V30 7781 O 748.927 0.25857 -1.79447 0
M  V30 7782 C 748.975 -3.24402 -1.57467 0
M  V30 7783 O 748.079 -3.13043 -2.68473 0
M  V30 7784 H 747.42 -0.627109 -0.218243 0
M  V30 7785 H 749.95 -2.04537 -0.050949 0
M  V30 7786 H 749.96 -3.58072 -1.95571 0
M  V30 7787 H 748.635 -4.05884 -0.907229 0
M  V30 7788 H 747.212 -2.90915 -2.33287 0
M  V30 7789 N 749.397 0.351382 -1.53633 0
M  V30 7790 C 750.345 1.45142 -1.8176 0
M  V30 7791 C 751.339 1.54819 -0.687571 0
M  V30 7792 O 752.545 1.57536 -0.870772 0
M  V30 7793 H 748.92 0.483789 -0.575719 0
M  V30 7794 H 750.891 1.1863 -2.73806 0
M  V30 7795 C 749.64 2.81779 -2.03706 0
M  V30 7796 H 748.963 2.75097 -2.90107 0
M  V30 7797 H 750.403 3.5789 -2.27356 0
M  V30 7798 C 748.862 3.26762 -0.820271 0
M  V30 7799 O 749.392 4.01697 -0.0158603 0
M  V30 7800 N 747.598 2.83472 -0.639699 0
M  V30 7801 H 747.145 2.22655 -1.29547 0
M  V30 7802 H 747.103 3.13924 0.172995 0
M  V30 7803 N 750.875 1.45233 0.611969 0
M  V30 7804 C 751.823 1.53898 1.74408 0
M  V30 7805 C 752.817 0.409254 1.64382 0
M  V30 7806 O 754.023 0.584988 1.70229 0
M  V30 7807 H 750.398 0.483303 0.576127 0
M  V30 7808 H 752.369 2.49143 1.64227 0
M  V30 7809 C 751.118 1.51865 3.12782 0
M  V30 7810 H 750.441 2.38118 3.21154 0
M  V30 7811 H 751.881 1.61986 3.91838 0
M  V30 7812 C 750.34 0.242374 3.36027 0
M  V30 7813 O 750.87 -0.679587 3.9591 0
M  V30 7814 N 749.076 0.139448 2.90265 0
M  V30 7815 H 748.623 0.890571 2.41716 0
M  V30 7816 H 748.581 -0.713686 3.06193 0
M  V30 7817 N 752.353 -0.854086 1.3245 0
M  V30 7818 C 753.578 -1.64597 1.26185 0
M  V30 7819 C 754.003 -1.87357 -0.167074 0
M  V30 7820 O 753.361 -1.42675 -1.11864 0
M  V30 7821 C 753.409 -2.98213 2.02734 0
M  V30 7822 O 752.513 -3.88784 1.37554 0
M  V30 7823 H 751.854 -0.50179 0.434859 0
M  V30 7824 H 754.384 -1.06372 1.74775 0
M  V30 7825 H 754.394 -3.4803 2.1293 0
M  V30 7826 H 753.069 -2.80969 3.06642 0
M  V30 7827 H 751.646 -3.4725 1.3591 0
M  V30 7828 N 753.831 -1.1567 -1.07043 0
M  V30 7829 C 754.778 -0.856336 -2.14326 0
M  V30 7830 C 755.748 0.192051 -1.64986 0
M  V30 7831 O 756.933 0.0589148 -1.90709 0
M  V30 7832 C 754.073 -0.355227 -3.43267 0
M  V30 7833 C 753.186 -1.46555 -4.06381 0
M  V30 7834 C 752.321 -0.920245 -5.23168 0
M  V30 7835 C 751.36 -2.00729 -5.78251 0
M  V30 7836 N 750.497 -1.47813 -6.86364 0
M  V30 7837 H 755.337 -1.77514 -2.39359 0
M  V30 7838 H 752.874 -0.885676 -1.17449 0
M  V30 7839 H 754.832 -0.0463804 -4.17174 0
M  V30 7840 H 753.462 0.526649 -3.18475 0
M  V30 7841 H 752.514 -1.89052 -3.30096 0
M  V30 7842 H 753.826 -2.28616 -4.43324 0
M  V30 7843 H 752.98 -0.564127 -6.04072 0
M  V30 7844 H 751.719 -0.0688477 -4.87651 0
M  V30 7845 H 750.724 -2.3722 -4.95991 0
M  V30 7846 H 751.949 -2.86252 -6.15822 0
M  V30 7847 H 749.895 -0.649145 -6.5278 0
M  V30 7848 H 749.812 -2.23498 -7.22208 0
M  V30 7849 H 751.08 -1.15036 -7.70965 0
M  V30 7850 N 755.309 1.25446 -0.953992 0
M  V30 7851 C 756.72 1.75047 -0.649255 0
M  V30 7852 C 757.071 1.77527 0.835385 0
M  V30 7853 O 756.196 1.39569 1.65377 0
M  V30 7854 C 756.791 3.17889 -1.17183 0
M  V30 7855 C 755.35 3.65052 -0.917267 0
M  V30 7856 C 754.497 2.44124 -1.31525 0
M  V30 7857 H 757.448 1.11342 -1.13087 0
M  V30 7858 H 757.469 3.76768 -0.531616 0
M  V30 7859 H 756.981 3.16052 -2.25239 0
M  V30 7860 H 755.082 3.72305 0.148354 0
M  V30 7861 H 755.195 4.53222 -1.55328 0
M  V30 7862 H 753.559 2.43906 -0.733624 0
M  V30 7863 H 754.342 2.44979 -2.405 0
M  V30 7864 N 756.787 0.722489 1.40064 0
M  V30 7865 C 758.033 0.265371 2.01056 0
M  V30 7866 C 758.366 -1.14062 1.57174 0
M  V30 7867 O 757.641 -1.77514 0.794916 0
M  V30 7868 C 757.924 0.353157 3.58364 0
M  V30 7869 C 757.777 1.79802 4.123 0
M  V30 7870 C 759.096 -0.271677 4.39261 0
M  V30 7871 H 756.215 0.0979002 0.730469 0
M  V30 7872 H 758.857 0.916289 1.66446 0
M  V30 7873 H 757.007 -0.201037 3.87979 0
M  V30 7874 H 758.679 2.40813 3.93455 0
M  V30 7875 H 756.922 2.32348 3.66329 0
M  V30 7876 H 757.593 1.81079 5.21454 0
M  V30 7877 H 760.069 0.200607 4.15616 0
M  V30 7878 H 758.945 -0.179843 5.48605 0
M  V30 7879 H 759.206 -1.35611 4.20787 0
M  V30 7880 N 758.265 -1.50454 0.469181 0
M  V30 7881 C 759.175 -2.32248 -0.331349 0
M  V30 7882 C 760.191 -1.42548 -0.997807 0
M  V30 7883 O 761.367 -1.75602 -0.9862 0
M  V30 7884 C 758.432 -3.17171 -1.40012 0
M  V30 7885 C 757.493 -4.2269 -0.750463 0
M  V30 7886 C 756.726 -5.03554 -1.76831 0
M  V30 7887 O 756.949 -4.85469 -2.99459 0
M  V30 7888 O 755.883 -5.86767 -1.3412 0
M  V30 7889 H 759.709 -3.01821 0.337279 0
M  V30 7890 H 757.294 -1.47602 0.231066 0
M  V30 7891 H 759.176 -3.69871 -2.01924 0
M  V30 7892 H 757.851 -2.50328 -2.05226 0
M  V30 7893 H 756.758 -3.73986 -0.0924446 0
M  V30 7894 H 758.091 -4.91997 -0.14131 0
M  V30 7895 N 759.743 -0.201713 -1.56304 0
M  V30 7896 C 761.02 0.483273 -1.89536 0
M  V30 7897 C 761.4 1.79176 -1.11621 0
M  V30 7898 O 760.748 2.27445 -0.219339 0
M  V30 7899 C 760.958 0.695604 -3.41998 0
M  V30 7900 C 762.306 1.012 -4.12364 0
M  V30 7901 O 763.33 0.783094 -3.47485 0
M  V30 7902 O 762.189 1.44534 -5.27041 0
M  V30 7903 H 759.283 0.252801 -0.787414 0
M  V30 7904 H 761.829 -0.24242 -1.6796 0
M  V30 7905 H 760.601 -0.228165 -3.90634 0
M  V30 7906 H 760.224 1.47351 -3.69288 0
M  V30 7907 N 761.222 1.57436 0.0718424 0
M  V30 7908 C 762.169 2.03686 1.08539 0
M  V30 7909 C 763.139 0.917474 1.38462 0
M  V30 7910 O 764.324 1.18513 1.4953 0
M  V30 7911 C 761.464 2.48566 2.39393 0
M  V30 7912 C 760.577 3.74122 2.16001 0
M  V30 7913 C 759.712 4.07786 3.40418 0
M  V30 7914 C 758.751 5.26383 3.1239 0
M  V30 7915 N 757.888 5.55685 4.29138 0
M  V30 7916 H 762.728 2.90043 0.684018 0
M  V30 7917 H 760.265 1.43438 0.326183 0
M  V30 7918 H 762.223 2.72639 3.15791 0
M  V30 7919 H 760.853 1.65186 2.77333 0
M  V30 7920 H 759.905 3.57389 1.30296 0
M  V30 7921 H 761.217 4.60659 1.91298 0
M  V30 7922 H 760.371 4.32759 4.25211 0
M  V30 7923 H 759.11 3.19817 3.68197 0
M  V30 7924 H 758.115 5.01206 2.25993 0
M  V30 7925 H 759.34 6.1597 2.85934 0
M  V30 7926 H 757.286 4.70675 4.56948 0
M  V30 7927 H 757.203 6.3664 4.07708 0
M  V30 7928 H 758.471 5.85209 5.14928 0
M  V30 7929 N 762.7 -0.34323 1.53817 0
M  V30 7930 C 763.977 -1.10047 1.61706 0
M  V30 7931 C 764.357 -2.06495 0.438514 0
M  V30 7932 O 763.705 -2.21297 -0.569188 0
M  V30 7933 C 763.915 -1.81985 2.97796 0
M  V30 7934 C 765.263 -2.35717 3.53161 0
M  V30 7935 O 766.287 -1.9208 2.99973 0
M  V30 7936 O 765.146 -3.15551 4.46195 0
M  V30 7937 H 762.24 -0.506096 0.654061 0
M  V30 7938 H 764.786 -0.344697 1.66162 0
M  V30 7939 H 763.558 -1.11722 3.75012 0
M  V30 7940 H 763.181 -2.64419 2.96931 0
M  V30 7941 N 764.178 -1.45556 -0.604258 0
M  V30 7942 C 765.141 -1.54091 -1.69672 0
M  V30 7943 C 766.141 -0.420076 -1.55216 0
M  V30 7944 O 767.331 -0.683671 -1.60224 0
M  V30 7945 C 764.463 -1.44063 -3.08964 0
M  V30 7946 H 765.656 -2.51431 -1.6347 0
M  V30 7947 H 763.209 -1.33046 -0.820273 0
M  V30 7948 H 763.944 -0.479201 -3.2074 0
M  V30 7949 H 763.729 -2.25362 -3.20865 0
M  V30 7950 H 765.219 -1.53075 -3.88533 0
M  V30 7951 N 765.656 0.84705 -1.32902 0
M  V30 7952 C 766.902 1.60414 -1.24078 0
M  V30 7953 C 767.235 1.93217 0.195105 0
M  V30 7954 O 766.51 1.58001 1.13428 0
M  V30 7955 C 766.793 2.91951 -2.108 0
M  V30 7956 C 766.646 2.6588 -3.62805 0
M  V30 7957 C 767.965 3.93299 -1.97494 0
M  V30 7958 H 765.084 0.58206 -0.452079 0
M  V30 7959 H 767.726 0.977562 -1.62922 0
M  V30 7960 H 765.876 3.45425 -1.77802 0
M  V30 7961 H 767.548 2.18902 -4.06054 0
M  V30 7962 H 765.791 1.99716 -3.85092 0
M  V30 7963 H 766.462 3.59574 -4.1882 0
M  V30 7964 H 768.938 3.49105 -2.26417 0
M  V30 7965 H 767.814 4.8318 -2.60438 0
M  V30 7966 H 768.075 4.31887 -0.944782 0
M  V30 7967 N 767.134 1.16236 1.06428 0
M  V30 7968 C 768.097 0.870163 2.1204 0
M  V30 7969 C 769.097 -0.134239 1.60239 0
M  V30 7970 O 770.287 0.0964932 1.73933 0
M  V30 7971 C 767.419 0.301033 3.39568 0
M  V30 7972 H 768.612 1.8064 2.39394 0
M  V30 7973 H 766.165 0.971116 1.2247 0
M  V30 7974 H 766.9 -0.642948 3.17863 0
M  V30 7975 H 766.685 1.02475 3.78472 0
M  V30 7976 H 768.175 0.114494 4.17443 0
M  V30 7977 N 768.612 -1.24939 0.960631 0
M  V30 7978 C 769.859 -1.92818 0.618663 0
M  V30 7979 C 770.187 -1.75177 -0.845173 0
M  V30 7980 O 769.442 -1.09412 -1.62258 0
M  V30 7981 C 769.741 -3.45066 0.930809 0
M  V30 7982 C 769.407 -3.82869 2.38164 0
M  V30 7983 C 768.069 -3.92899 2.7782 0
M  V30 7984 C 770.421 -4.01483 3.32356 0
M  V30 7985 C 767.749 -4.18955 4.10723 0
M  V30 7986 C 770.101 -4.29033 4.6488 0
M  V30 7987 C 768.765 -4.37282 5.04322 0
M  V30 7988 H 768.035 -0.705571 0.226385 0
M  V30 7989 H 770.682 -1.48365 1.21079 0
M  V30 7990 H 768.987 -3.9096 0.256355 0
M  V30 7991 H 770.684 -3.95783 0.644712 0
M  V30 7992 H 767.274 -3.75622 2.06413 0
M  V30 7993 H 771.458 -3.93143 3.02907 0
M  V30 7994 H 766.714 -4.23558 4.40918 0
M  V30 7995 H 770.888 -4.42381 5.3784 0
M  V30 7996 H 768.515 -4.57225 6.0733 0
M  V30 7997 N 770.09 -0.729906 -1.39679 0
M  V30 7998 C 771.318 -0.285709 -2.04918 0
M  V30 7999 C 771.733 1.07765 -1.55023 0
M  V30 8000 O 771.09 1.67999 -0.712923 0
M  V30 8001 C 771.141 -0.272793 -3.60469 0
M  V30 8002 O 770.862 -1.58233 -4.08527 0
M  V30 8003 C 772.363 0.188199 -4.429 0
M  V30 8004 H 769.583 -0.125758 -0.65911 0
M  V30 8005 H 772.127 -0.992129 -1.78821 0
M  V30 8006 H 770.282 0.384699 -3.85485 0
M  V30 8007 H 770.696 -1.49245 -5.02818 0
M  V30 8008 H 772.17 0.14608 -5.51807 0
M  V30 8009 H 772.647 1.2326 -4.21549 0
M  V30 8010 H 773.253 -0.439541 -4.23023 0
M  V30 8011 N 771.568 1.50203 -0.477153 0
M  V30 8012 C 772.808 2.04265 0.0744065 0
M  V30 8013 C 773.172 1.35082 1.36443 0
M  V30 8014 O 774.373 1.79732 1.99875 0
M  V30 8015 C 772.644 3.56539 0.247874 0
M  V30 8016 S 774.203 4.32219 0.757117 0
M  V30 8017 H 771.021 0.71088 0.0130891 0
M  V30 8018 H 773.623 1.8453 -0.645678 0
M  V30 8019 H 772.327 4.04443 -0.696709 0
M  V30 8020 H 771.858 3.80638 0.993896 0
M  V30 8021 H 773.873 4.52789 2.0297 0
M  V30 8022 N 773.046 0.209999 1.56195 0
M  V30 8023 C 773.956 -0.716459 2.23392 0
M  V30 8024 C 774.972 -1.22291 1.23778 0
M  V30 8025 O 776.148 -1.26694 1.56558 0
M  V30 8026 C 773.213 -1.91261 2.89172 0
M  V30 8027 C 772.274 -1.44927 4.04097 0
M  V30 8028 C 771.507 -2.5884 4.66731 0
M  V30 8029 O 771.73 -3.76693 4.2832 0
M  V30 8030 O 770.664 -2.30701 5.55932 0
M  V30 8031 H 774.49 -0.174089 3.03201 0
M  V30 8032 H 772.075 -0.0199505 1.49387 0
M  V30 8033 H 773.957 -2.6114 3.30733 0
M  V30 8034 H 772.632 -2.4433 2.12331 0
M  V30 8035 H 771.539 -0.718839 3.67129 0
M  V30 8036 H 772.872 -0.965084 4.82646 0
M  V30 8037 N 774.524 -1.57472 -0.0634922 0
M  V30 8038 C 775.935 -1.76303 -0.614337 0
M  V30 8039 C 776.286 -0.836578 -1.77471 0
M  V30 8040 O 775.411 -0.0227184 -2.16388 0
M  V30 8041 C 776.006 -3.19709 -1.12122 0
M  V30 8042 C 774.565 -3.39856 -1.61786 0
M  V30 8043 C 773.712 -2.71975 -0.540845 0
M  V30 8044 H 776.663 -1.57864 0.162702 0
M  V30 8045 H 776.684 -3.24326 -1.98979 0
M  V30 8046 H 776.196 -3.87114 -0.276472 0
M  V30 8047 H 774.297 -2.77578 -2.48558 0
M  V30 8048 H 774.41 -4.48338 -1.68908 0
M  V30 8049 H 772.774 -2.34763 -0.987854 0
M  V30 8050 H 773.557 -3.4204 0.293856 0
M  V30 8051 N 776.003 0.335068 -1.53997 0
M  V30 8052 C 776.913 1.43511 -1.85585 0
M  V30 8053 C 777.929 1.57162 -0.746726 0
M  V30 8054 O 779.105 1.72477 -1.03988 0
M  V30 8055 C 776.17 2.78386 -2.06646 0
M  V30 8056 C 775.231 2.74007 -3.30483 0
M  V30 8057 C 774.464 4.02449 -3.50529 0
M  V30 8058 O 774.687 5.00147 -2.74242 0
M  V30 8059 O 773.621 4.06405 -4.4398 0
M  V30 8060 H 777.447 1.19731 -2.79102 0
M  V30 8061 H 775.032 0.528033 -1.39758 0
M  V30 8062 H 776.914 3.58247 -2.21894 0
M  V30 8063 H 775.589 3.0208 -1.16317 0
M  V30 8064 H 774.496 1.92736 -3.2063 0
M  V30 8065 H 775.829 2.55267 -4.20832 0
M  V30 8066 N 777.481 1.45874 0.596531 0
M  V30 8067 C 778.444 1.54988 1.68853 0
M  V30 8068 C 779.444 0.428302 1.54991 0
M  V30 8069 O 780.634 0.692158 1.59859 0
M  V30 8070 C 777.766 1.457 3.08195 0
M  V30 8071 H 778.959 2.52294 1.62135 0
M  V30 8072 H 776.512 1.33479 0.813206 0
M  V30 8073 H 777.247 0.496204 3.20481 0
M  V30 8074 H 777.032 2.27061 3.19665 0
M  V30 8075 H 778.522 1.55133 3.87716 0
M  V30 8076 N 778.959 -0.83999 1.33349 0
M  V30 8077 C 779.891 -1.95678 1.19344 0
M  V30 8078 C 780.904 -1.62322 0.124692 0
M  V30 8079 O 782.093 -1.74516 0.375012 0
M  V30 8080 C 779.193 -3.29133 0.807771 0
M  V30 8081 C 778.366 -3.9063 1.96792 0
M  V30 8082 C 777.425 -5.02438 1.56341 0
M  V30 8083 O 776.451 -5.21646 2.27759 0
M  V30 8084 N 777.653 -5.78612 0.467767 0
M  V30 8085 H 780.418 -2.08229 2.15548 0
M  V30 8086 H 777.979 -1.01566 1.26079 0
M  V30 8087 H 779.971 -4.01355 0.519282 0
M  V30 8088 H 778.541 -3.12535 -0.063555 0
M  V30 8089 H 777.761 -3.11011 2.4221 0
M  V30 8090 H 779.049 -4.2845 2.74422 0
M  V30 8091 H 778.447 -5.65559 -0.126324 0
M  V30 8092 H 777.004 -6.51362 0.238945 0
M  V30 8093 N 780.437 -1.16799 -1.0581 0
M  V30 8094 C 781.385 -0.875111 -2.1551 0
M  V30 8095 C 782.379 0.157781 -1.68664 0
M  V30 8096 O 783.585 0.011297 -1.79996 0
M  V30 8097 H 779.96 -0.26542 -0.703602 0
M  V30 8098 H 781.931 -1.8076 -2.37421 0
M  V30 8099 C 780.68 -0.39802 -3.45414 0
M  V30 8100 H 780.003 -1.18425 -3.81858 0
M  V30 8101 H 781.443 -0.231913 -4.23365 0
M  V30 8102 C 779.902 0.88327 -3.25115 0
M  V30 8103 O 780.432 1.95145 -3.51114 0
M  V30 8104 N 778.638 0.828961 -2.78526 0
M  V30 8105 H 778.185 -0.0405029 -2.57568 0
M  V30 8106 H 778.143 1.68673 -2.65324 0
M  V30 8107 N 781.915 1.24427 -0.967243 0
M  V30 8108 C 783.143 1.96541 -0.646477 0
M  V30 8109 C 783.558 1.71753 0.783996 0
M  V30 8110 O 782.915 1.00102 1.52597 0
M  V30 8111 C 782.966 3.4983 -0.911098 0
M  V30 8112 O 782.687 3.7377 -2.28534 0
M  V30 8113 C 784.188 4.3916 -0.604458 0
M  V30 8114 H 781.408 0.626129 -0.241255 0
M  V30 8115 H 783.952 1.58268 -1.29505 0
M  V30 8116 H 782.107 3.86168 -0.308741 0
M  V30 8117 H 782.521 4.68154 -2.365 0
M  V30 8118 H 783.995 5.4557 -0.840069 0
M  V30 8119 H 784.472 4.36771 0.461273 0
M  V30 8120 H 785.078 4.08409 -1.1867 0
M  V30 8121 N 783.393 0.737304 1.3929 0
M  V30 8122 C 784.621 0.296573 2.04763 0
M  V30 8123 C 785.036 -1.06941 1.55592 0
M  V30 8124 O 784.393 -1.67619 0.721822 0
M  V30 8125 C 784.444 0.291906 3.6032 0
M  V30 8126 O 784.165 1.60397 4.07682 0
M  V30 8127 C 785.666 -0.164708 4.42994 0
M  V30 8128 H 782.886 0.129251 0.658434 0
M  V30 8129 H 785.43 1.0016 1.78293 0
M  V30 8130 H 783.585 -0.364251 3.85684 0
M  V30 8131 H 783.999 1.51909 5.0202 0
M  V30 8132 H 785.473 -0.116814 5.51876 0
M  V30 8133 H 785.95 -1.21022 4.22197 0
M  V30 8134 H 786.556 0.461968 4.22784 0
M  V30 8135 N 784.871 -1.49948 0.485112 0
M  V30 8136 C 786.101 -2.06506 -0.0621921 0
M  V30 8137 C 786.509 -1.34756 -1.32806 0
M  V30 8138 O 785.852 -0.41466 -1.78959 0
M  V30 8139 C 785.914 -3.57243 -0.402182 0
M  V30 8140 C 785.578 -4.50574 0.763671 0
M  V30 8141 C 786.575 -4.93032 1.6497 0
M  V30 8142 C 784.26 -4.9308 0.957973 0
M  V30 8143 C 786.254 -5.76718 2.71432 0
M  V30 8144 C 783.941 -5.76546 2.0258 0
M  V30 8145 C 784.939 -6.18267 2.90232 0
M  V30 8146 O 784.627 -7.00066 3.95174 0
M  V30 8147 H 784.359 -0.675925 0.0100672 0
M  V30 8148 H 786.913 -1.93922 0.677023 0
M  V30 8149 H 785.143 -3.6778 -1.19478 0
M  V30 8150 H 786.832 -3.96107 -0.886219 0
M  V30 8151 H 787.598 -4.60851 1.51134 0
M  V30 8152 H 783.477 -4.60117 0.285144 0
M  V30 8153 H 787.021 -6.09203 3.39878 0
M  V30 8154 H 782.918 -6.0814 2.16417 0
M  V30 8155 H 783.686 -7.18343 3.92333 0
M  V30 8156 N 786.349 -0.21828 -1.56081 0
M  V30 8157 C 787.279 0.687922 -2.23136 0
M  V30 8158 C 788.26 1.20357 -1.202 0
M  V30 8159 O 789.445 1.24817 -1.48776 0
M  V30 8160 C 786.575 1.89762 -2.90874 0
M  V30 8161 C 785.529 1.51595 -4.00254 0
M  V30 8162 C 784.855 2.80415 -4.55271 0
M  V30 8163 C 786.155 0.708404 -5.17474 0
M  V30 8164 H 787.849 0.128854 -2.99123 0
M  V30 8165 H 785.395 0.0605354 -1.43873 0
M  V30 8166 H 787.348 2.53699 -3.36474 0
M  V30 8167 H 786.072 2.4816 -2.1233 0
M  V30 8168 H 784.731 0.900058 -3.55379 0
M  V30 8169 H 784.379 3.36951 -3.73461 0
M  V30 8170 H 784.079 2.55613 -5.2909 0
M  V30 8171 H 785.603 3.453 -5.03587 0
M  V30 8172 H 787.017 1.2514 -5.59476 0
M  V30 8173 H 785.414 0.557593 -5.97504 0
M  V30 8174 H 786.484 -0.285679 -4.84058 0
M  V30 8175 N 787.827 1.57504 0.0551401 0
M  V30 8176 C 789.073 1.89191 0.74688 0
M  V30 8177 C 789.428 0.813936 1.74335 0
M  V30 8178 O 788.721 -0.180217 1.90751 0
M  V30 8179 C 788.915 3.25311 1.48013 0
M  V30 8180 C 788.744 4.46247 0.556176 0
M  V30 8181 C 787.514 5.04954 0.186891 0
M  V30 8182 C 789.712 5.14068 -0.154295 0
M  V30 8183 N 787.694 6.09411 -0.741041 0
M  V30 8184 C 789.065 6.12851 -0.938809 0
M  V30 8185 C 791.12 4.97396 -0.224007 0
M  V30 8186 C 789.823 6.96759 -1.78658 0
M  V30 8187 C 791.849 5.81845 -1.05881 0
M  V30 8188 C 791.211 6.80178 -1.83133 0
M  V30 8189 H 787.31 0.741562 0.248213 0
M  V30 8190 H 789.894 1.94698 0.00777734 0
M  V30 8191 H 788.065 3.20781 2.18985 0
M  V30 8192 H 789.797 3.44594 2.12219 0
M  V30 8193 H 786.552 4.70472 0.543415 0
M  V30 8194 H 786.976 6.66303 -1.19874 0
M  V30 8195 H 791.618 4.21274 0.358924 0
M  V30 8196 H 789.336 7.72245 -2.38042 0
M  V30 8197 H 792.922 5.70997 -1.11595 0
M  V30 8198 H 791.802 7.44389 -2.46687 0
M  V30 8199 N 789.305 -0.326896 1.54172 0
M  V30 8200 C 790.551 -1.06304 1.7341 0
M  V30 8201 C 790.906 -1.85791 0.499935 0
M  V30 8202 O 790.199 -1.84753 -0.507625 0
M  V30 8203 C 790.393 -2.0208 2.94785 0
M  V30 8204 C 790.222 -1.32009 4.29888 0
M  V30 8205 C 788.992 -1.05798 4.941 0
M  V30 8206 C 791.19 -0.737721 5.08982 0
M  V30 8207 N 789.172 -0.324836 6.1304 0
M  V30 8208 C 790.543 -0.136006 6.19851 0
M  V30 8209 C 792.598 -0.640206 4.93767 0
M  V30 8210 C 791.301 0.553757 7.17165 0
M  V30 8211 C 793.327 0.0358492 5.91389 0
M  V30 8212 C 792.689 0.626522 7.01608 0
M  V30 8213 H 788.788 -0.372808 0.687414 0
M  V30 8214 H 791.372 -0.34462 1.91626 0
M  V30 8215 H 789.543 -2.71197 2.78041 0
M  V30 8216 H 791.275 -2.68655 3.02666 0
M  V30 8217 H 788.03 -1.34945 4.53968 0
M  V30 8218 H 788.454 0.0274982 6.76994 0
M  V30 8219 H 793.096 -1.0826 4.08705 0
M  V30 8220 H 790.814 1.00799 8.01789 0
M  V30 8221 H 794.4 0.110895 5.81694 0
M  V30 8222 H 793.28 1.14135 7.7585 0
M  V30 8223 N 790.784 -1.46188 -0.588786 0
M  V30 8224 C 792.03 -1.51407 -1.34921 0
M  V30 8225 C 792.363 -0.162771 -1.93517 0
M  V30 8226 O 791.638 0.825082 -1.76132 0
M  V30 8227 C 791.921 -2.60795 -2.48311 0
M  V30 8228 C 791.774 -4.05435 -1.94789 0
M  V30 8229 C 793.093 -2.66313 -3.50379 0
M  V30 8230 H 790.212 -0.551213 -0.489217 0
M  V30 8231 H 792.854 -1.78095 -0.661993 0
M  V30 8232 H 791.004 -2.3817 -3.06932 0
M  V30 8233 H 792.676 -4.39328 -1.40672 0
M  V30 8234 H 790.919 -4.15202 -1.25659 0
M  V30 8235 H 791.59 -4.77691 -2.76613 0
M  V30 8236 H 794.066 -2.86634 -3.01629 0
M  V30 8237 H 792.942 -3.44681 -4.27184 0
M  V30 8238 H 793.203 -1.72127 -4.07216 0
M  V30 8239 N 792.262 0.832906 -1.33792 0
M  V30 8240 C 793.21 1.96455 -1.24532 0
M  V30 8241 C 794.204 1.68774 -0.145455 0
M  V30 8242 O 795.41 1.77314 -0.309797 0
M  V30 8243 H 791.785 0.645008 -0.386611 0
M  V30 8244 H 793.756 2.01389 -2.20193 0
M  V30 8245 C 792.505 3.32784 -1.00748 0
M  V30 8246 H 791.828 3.54626 -1.84609 0
M  V30 8247 H 793.268 4.12447 -0.98301 0
M  V30 8248 C 791.727 3.35654 0.289475 0
M  V30 8249 O 792.257 3.80281 1.29419 0
M  V30 8250 N 790.463 2.88843 0.3191 0
M  V30 8251 H 790.01 2.52719 -0.499069 0
M  V30 8252 H 789.968 2.91145 1.18667 0
M  V30 8253 N 793.74 1.17359 1.05189 0
M  V30 8254 C 794.988 0.960087 1.77839 0
M  V30 8255 C 795.309 -0.512554 1.88143 0
M  V30 8256 O 794.579 -1.3721 1.39822 0
M  V30 8257 H 793.159 0.352234 0.658741 0
M  V30 8258 H 795.821 1.47834 1.27008 0
M  V30 8259 H 794.917 1.38843 2.79516 0
M  V30 8260 N 795.218 -1.23913 0.973828 0
M  V30 8261 C 796.15 -2.24397 0.466763 0
M  V30 8262 C 797.163 -1.57078 -0.427828 0
M  V30 8263 O 798.352 -1.76973 -0.233019 0
M  V30 8264 C 795.452 -3.37141 -0.344798 0
M  V30 8265 C 794.625 -4.34037 0.541349 0
M  V30 8266 C 793.684 -5.2576 -0.215243 0
M  V30 8267 O 792.71 -5.67842 0.39291 0
M  V30 8268 N 793.912 -5.60702 -1.5031 0
M  V30 8269 H 796.677 -2.68536 1.33074 0
M  V30 8270 H 794.238 -1.38017 0.846346 0
M  V30 8271 H 796.23 -3.95476 -0.859133 0
M  V30 8272 H 794.8 -2.92239 -1.10974 0
M  V30 8273 H 794.02 -3.74302 1.23659 0
M  V30 8274 H 795.308 -4.95738 1.1455 0
M  V30 8275 H 794.706 -5.28451 -2.01882 0
M  V30 8276 H 793.263 -6.21538 -1.96301 0
M  V30 8277 N 796.696 -0.74468 -1.38897 0
M  V30 8278 C 797.921 -0.306119 -2.05128 0
M  V30 8279 C 798.346 1.0541 -1.55789 0
M  V30 8280 O 797.704 1.66993 -0.705909 0
M  V30 8281 C 797.752 -0.328195 -3.59103 0
M  V30 8282 O 796.856 0.680876 -4.06741 0
M  V30 8283 H 796.197 -0.137209 -0.649669 0
M  V30 8284 H 798.727 -1.01331 -1.77745 0
M  V30 8285 H 798.737 -0.175956 -4.0762 0
M  V30 8286 H 797.412 -1.32067 -3.94374 0
M  V30 8287 H 795.989 0.49398 -3.69614 0
M  V30 8288 N 798.174 1.49689 -0.493057 0
M  V30 8289 C 799.104 2.31826 0.279073 0
M  V30 8290 C 800.085 1.39733 0.969987 0
M  V30 8291 O 801.27 1.68646 0.962925 0
M  V30 8292 C 798.4 3.20046 1.34862 0
M  V30 8293 C 797.354 4.20869 0.77805 0
M  V30 8294 C 796.68 4.97971 1.94753 0
M  V30 8295 C 797.98 5.21813 -0.225543 0
M  V30 8296 H 799.674 2.96627 -0.406512 0
M  V30 8297 H 797.22 1.42647 -0.196943 0
M  V30 8298 H 799.173 3.76315 1.89645 0
M  V30 8299 H 797.897 2.53172 2.06328 0
M  V30 8300 H 796.556 3.65733 0.252036 0
M  V30 8301 H 796.204 4.27552 2.64969 0
M  V30 8302 H 795.904 5.66186 1.57187 0
M  V30 8303 H 797.428 5.57082 2.49984 0
M  V30 8304 H 798.842 5.72823 0.233864 0
M  V30 8305 H 797.239 5.97872 -0.516622 0
M  V30 8306 H 798.309 4.71209 -1.14412 0
M  V30 8307 N 799.652 0.226554 1.55963 0
M  V30 8308 C 801.063 -0.280381 1.84583 0
M  V30 8309 C 801.414 -1.59105 1.14804 0
M  V30 8310 O 800.539 -2.12297 0.419414 0
M  V30 8311 C 801.134 -0.515499 3.34855 0
M  V30 8312 C 799.693 -0.966733 3.63774 0
M  V30 8313 C 798.84 -0.0325753 2.77281 0
M  V30 8314 H 801.791 0.449626 1.52197 0
M  V30 8315 H 801.812 -1.36085 3.55332 0
M  V30 8316 H 801.324 0.438594 3.85614 0
M  V30 8317 H 799.425 -1.93401 3.18476 0
M  V30 8318 H 799.538 -0.837679 4.7172 0
M  V30 8319 H 797.902 -0.540279 2.48904 0
M  V30 8320 H 798.685 0.916524 3.30839 0
M  V30 8321 N 801.13 -1.57531 -0.0467866 0
M  V30 8322 C 802.376 -1.8873 -0.742218 0
M  V30 8323 C 802.709 -0.822084 -1.75941 0
M  V30 8324 O 801.984 0.164922 -1.938 0
M  V30 8325 C 802.267 -3.30586 -1.42776 0
M  V30 8326 C 802.12 -4.47785 -0.425285 0
M  V30 8327 C 803.439 -3.71068 -2.36636 0
M  V30 8328 H 800.558 -0.686406 -0.268359 0
M  V30 8329 H 803.2 -1.89999 -0.00511341 0
M  V30 8330 H 801.35 -3.29634 -2.05605 0
M  V30 8331 H 803.022 -4.60867 0.199721 0
M  V30 8332 H 801.265 -4.33037 0.25713 0
M  V30 8333 H 801.936 -5.43884 -0.943086 0
M  V30 8334 H 804.412 -3.73273 -1.83866 0
M  V30 8335 H 803.288 -4.71165 -2.81593 0
M  V30 8336 H 803.549 -3.02355 -3.22542 0
M  V30 8337 N 802.608 0.318715 -1.54344 0
M  V30 8338 C 803.833 1.07987 -1.77069 0
M  V30 8339 C 804.258 1.80766 -0.520117 0
M  V30 8340 O 803.616 1.73424 0.528566 0
M  V30 8341 C 803.664 2.04987 -2.96669 0
M  V30 8342 O 802.768 3.12974 -2.68554 0
M  V30 8343 H 802.109 0.311109 -0.586606 0
M  V30 8344 H 804.639 0.361533 -2.0138 0
M  V30 8345 H 804.649 2.47771 -3.2415 0
M  V30 8346 H 803.324 1.51417 -3.87357 0
M  V30 8347 H 801.901 2.74831 -2.52037 0
M  V30 8348 N 804.086 1.46499 0.581025 0
M  V30 8349 C 805.497 1.4604 1.16315 0
M  V30 8350 C 805.848 0.202154 1.95156 0
M  V30 8351 O 804.973 -0.694638 2.04948 0
M  V30 8352 C 805.568 2.64593 2.11604 0
M  V30 8353 C 804.127 2.6717 2.65136 0
M  V30 8354 C 803.274 2.38753 1.4104 0
M  V30 8355 H 806.225 1.54354 0.368871 0
M  V30 8356 H 806.246 2.40207 2.95095 0
M  V30 8357 H 805.758 3.56154 1.54194 0
M  V30 8358 H 803.859 1.79685 3.26411 0
M  V30 8359 H 803.972 3.67182 3.07757 0
M  V30 8360 H 802.336 1.88845 1.70908 0
M  V30 8361 H 803.119 3.32493 0.854588 0
M  V30 8362 N 805.565 -0.825799 1.34232 0
M  V30 8363 C 806.981 -1.11848 1.13851 0
M  V30 8364 C 807.181 -2.01405 -0.0619031 0
M  V30 8365 O 806.237 -2.41465 -0.738287 0
M  V30 8366 C 807.55 -1.76797 2.43235 0
M  V30 8367 C 809.098 -1.89304 2.49265 0
M  V30 8368 C 809.573 -2.57669 3.78643 0
M  V30 8369 N 811.064 -2.65171 3.79788 0
M  V30 8370 C 811.799 -3.1879 4.76614 0
M  V30 8371 N 811.295 -3.72995 5.83821 0
M  V30 8372 N 813.088 -3.17164 4.64073 0
M  V30 8373 H 805.239 -0.230049 2.11151 0
M  V30 8374 H 807.502 -0.164609 0.9336 0
M  V30 8375 H 807.208 -1.18455 3.31152 0
M  V30 8376 H 807.082 -2.76693 2.56361 0
M  V30 8377 H 809.469 -2.46796 1.6179 0
M  V30 8378 H 809.55 -0.883191 2.4007 0
M  V30 8379 H 809.194 -2.00833 4.66507 0
M  V30 8380 H 809.124 -3.59152 3.8512 0
M  V30 8381 H 811.615 -2.26746 3.02315 0
M  V30 8382 H 811.928 -4.12151 6.53721 0
M  V30 8383 H 810.273 -3.71246 5.87538 0
M  V30 8384 H 813.464 -2.74082 3.79469 0
M  V30 8385 H 813.637 -3.58647 5.397 0
M  V30 8386 N 807.043 -1.17915 -1.04565 0
M  V30 8387 C 807.973 -0.925033 -2.14395 0
M  V30 8388 C 808.954 0.135375 -1.6956 0
M  V30 8389 O 810.139 -0.0161774 -1.94193 0
M  V30 8390 C 807.269 -0.444469 -3.44444 0
M  V30 8391 C 806.223 -1.44478 -4.02877 0
M  V30 8392 C 805.549 -0.821933 -5.28345 0
M  V30 8393 C 806.849 -2.81995 -4.39632 0
M  V30 8394 H 808.543 -1.84354 -2.35911 0
M  V30 8395 H 806.089 -0.887806 -1.13375 0
M  V30 8396 H 808.042 -0.254078 -4.20633 0
M  V30 8397 H 806.766 0.509592 -3.226 0
M  V30 8398 H 805.425 -1.62203 -3.28764 0
M  V30 8399 H 805.073 0.139161 -5.02807 0
M  V30 8400 H 804.773 -1.48976 -5.68401 0
M  V30 8401 H 806.297 -0.641959 -6.07216 0
M  V30 8402 H 807.711 -2.67952 -5.06828 0
M  V30 8403 H 806.108 -3.45414 -4.90723 0
M  V30 8404 H 807.178 -3.35927 -3.49687 0
M  V30 8405 N 808.521 1.23394 -0.980386 0
M  V30 8406 C 809.453 2.24146 -0.478657 0
M  V30 8407 C 810.466 1.57303 0.419492 0
M  V30 8408 O 811.655 1.77094 0.223631 0
M  V30 8409 C 808.755 3.3732 0.326913 0
M  V30 8410 C 807.928 4.33744 -0.56436 0
M  V30 8411 C 806.987 5.25866 0.187358 0
M  V30 8412 O 806.013 5.67626 -0.423019 0
M  V30 8413 N 807.215 5.61492 1.47335 0
M  V30 8414 H 809.98 2.67826 -1.34496 0
M  V30 8415 H 807.541 1.37566 -0.853653 0
M  V30 8416 H 809.533 3.95926 0.838148 0
M  V30 8417 H 808.103 2.92823 1.09422 0
M  V30 8418 H 807.323 3.73641 -1.25642 0
M  V30 8419 H 808.611 4.95123 -1.17177 0
M  V30 8420 H 808.009 5.29514 1.99077 0
M  V30 8421 H 806.566 6.2257 1.93002 0
M  V30 8422 N 809.999 0.752036 1.385 0
M  V30 8423 C 810.929 0.138718 2.33088 0
M  V30 8424 C 811.91 -0.705318 1.54788 0
M  V30 8425 O 813.095 -0.646821 1.83112 0
M  V30 8426 C 810.225 -0.75641 3.38963 0
M  V30 8427 C 809.179 -0.0152239 4.27997 0
M  V30 8428 C 808.505 -1.0285 5.24715 0
M  V30 8429 C 809.805 1.15226 5.09431 0
M  V30 8430 H 811.499 0.928852 2.84627 0
M  V30 8431 H 809.045 0.448111 1.3685 0
M  V30 8432 H 810.998 -1.19513 4.04097 0
M  V30 8433 H 809.722 -1.57885 2.85902 0
M  V30 8434 H 808.381 0.404061 3.64366 0
M  V30 8435 H 808.029 -1.84496 4.67943 0
M  V30 8436 H 807.729 -0.537238 5.85139 0
M  V30 8437 H 809.253 -1.46657 5.92726 0
M  V30 8438 H 810.667 0.791161 5.67815 0
M  V30 8439 H 809.064 1.57428 5.79082 0
M  V30 8440 H 810.134 1.9659 4.43261 0
M  V30 8441 N 811.477 -1.49425 0.500989 0
M  V30 8442 C 812.702 -2.07356 -0.0425154 0
M  V30 8443 C 813.127 -1.35887 -1.30063 0
M  V30 8444 O 812.485 -0.41561 -1.76472 0
M  V30 8445 C 812.533 -3.59518 -0.279188 0
M  V30 8446 O 811.637 -3.89542 -1.3539 0
M  V30 8447 H 810.978 -0.663482 0.0262207 0
M  V30 8448 H 813.508 -1.92231 0.700607 0
M  V30 8449 H 813.518 -4.04791 -0.5107 0
M  V30 8450 H 812.193 -4.10946 0.640009 0
M  V30 8451 H 810.77 -3.56079 -1.10734 0
M  V30 8452 N 812.955 -0.234822 -1.55841 0
M  V30 8453 C 813.903 0.686145 -2.22249 0
M  V30 8454 C 814.897 1.18948 -1.20614 0
M  V30 8455 O 816.103 1.14777 -1.38659 0
M  V30 8456 H 812.478 0.239724 -0.712767 0
M  V30 8457 H 814.449 0.102762 -2.98223 0
M  V30 8458 C 813.198 1.8776 -2.92646 0
M  V30 8459 H 812.521 1.49943 -3.70617 0
M  V30 8460 H 813.961 2.4995 -3.42493 0
M  V30 8461 C 812.42 2.74127 -1.95847 0
M  V30 8462 O 812.95 3.7329 -1.48384 0
M  V30 8463 N 811.156 2.4044 -1.63209 0
M  V30 8464 H 810.703 1.59854 -2.02001 0
M  V30 8465 H 810.661 2.98504 -0.987063 0
M  V30 8466 N 814.433 1.57553 0.0384317 0
M  V30 8467 C 815.681 1.88468 0.729672 0
M  V30 8468 C 816.002 0.831302 1.76393 0
M  V30 8469 O 815.272 -0.13622 1.95426 0
M  V30 8470 H 813.852 0.695529 0.272485 0
M  V30 8471 H 816.514 1.94899 0.0066032 0
M  V30 8472 H 815.61 2.8705 1.22511 0
M  V30 8473 N 815.911 -0.310526 1.54511 0
M  V30 8474 C 816.859 -1.40272 1.85544 0
M  V30 8475 C 817.853 -1.52941 0.728377 0
M  V30 8476 O 819.059 -1.55172 0.912234 0
M  V30 8477 H 815.434 -0.468355 0.588343 0
M  V30 8478 H 817.405 -1.11329 2.76855 0
M  V30 8479 C 816.154 -2.76279 2.11105 0
M  V30 8480 H 815.477 -2.67308 2.97298 0
M  V30 8481 H 816.917 -3.51736 2.36765 0
M  V30 8482 C 815.376 -3.24472 0.906618 0
M  V30 8483 O 815.906 -4.01514 0.122358 0
M  V30 8484 N 814.112 -2.81676 0.714632 0
M  V30 8485 H 813.659 -2.19143 1.35404 0
M  V30 8486 H 813.617 -3.14272 -0.089703 0
M  V30 8487 N 817.389 -1.46805 -0.573248 0
M  V30 8488 C 818.805 -1.31969 -0.897577 0
M  V30 8489 C 819.005 -0.298171 -1.99282 0
M  V30 8490 O 818.061 0.295953 -2.5076 0
M  V30 8491 C 819.374 -2.70859 -1.30598 0
M  V30 8492 C 820.922 -2.79022 -1.4183 0
M  V30 8493 C 821.397 -4.18516 -1.86033 0
M  V30 8494 N 822.888 -4.2098 -1.9321 0
M  V30 8495 C 823.623 -5.25814 -2.28707 0
M  V30 8496 N 823.119 -6.40968 -2.6293 0
M  V30 8497 N 824.912 -5.13184 -2.29343 0
M  V30 8498 H 817.063 -2.11869 0.150094 0
M  V30 8499 H 819.326 -0.947989 0.00447895 0
M  V30 8500 H 819.032 -3.46965 -0.575161 0
M  V30 8501 H 818.906 -3.01585 -2.26554 0
M  V30 8502 H 821.293 -2.03198 -2.13996 0
M  V30 8503 H 821.374 -2.51969 -0.441024 0
M  V30 8504 H 821.018 -4.94839 -1.14442 0
M  V30 8505 H 820.948 -4.42982 -2.84735 0
M  V30 8506 H 823.439 -3.37898 -1.69214 0
M  V30 8507 H 823.752 -7.16729 -2.88996 0
M  V30 8508 H 822.097 -6.44314 -2.60547 0
M  V30 8509 H 825.288 -4.22255 -2.02036 0
M  V30 8510 H 825.461 -5.94996 -2.56679 0
M  V30 8511 N 818.867 0.818669 -1.34668 0
M  V30 8512 C 820.095 1.60674 -1.30351 0
M  V30 8513 C 820.51 1.88408 0.121546 0
M  V30 8514 O 819.867 1.47849 1.06991 0
M  V30 8515 C 819.918 2.94516 -2.09625 0
M  V30 8516 O 819.639 2.6799 -3.46573 0
M  V30 8517 C 821.14 3.8891 -2.12754 0
M  V30 8518 H 818.36 0.499306 -0.448258 0
M  V30 8519 H 820.904 1.01828 -1.77345 0
M  V30 8520 H 819.059 3.49908 -1.66262 0
M  V30 8521 H 819.473 3.53361 -3.87603 0
M  V30 8522 H 820.947 4.79972 -2.72637 0
M  V30 8523 H 821.424 4.24599 -1.12306 0
M  V30 8524 H 822.03 3.39453 -2.56225 0
M  V30 8525 N 820.346 1.18468 1.03938 0
M  V30 8526 C 821.276 0.936389 2.13902 0
M  V30 8527 C 822.257 -0.126381 1.6963 0
M  V30 8528 O 823.442 0.0264757 1.94182 0
M  V30 8529 C 820.572 0.462729 3.44204 0
M  V30 8530 C 819.526 1.46613 4.02105 0
M  V30 8531 C 818.852 0.84994 5.27902 0
M  V30 8532 C 820.152 2.84323 4.3813 0
M  V30 8533 H 821.846 1.85602 2.3493 0
M  V30 8534 H 819.392 0.893806 1.12903 0
M  V30 8535 H 821.345 0.276382 4.20493 0
M  V30 8536 H 820.069 -0.492477 3.22866 0
M  V30 8537 H 818.728 1.63944 3.27899 0
M  V30 8538 H 818.376 -0.112493 5.02874 0
M  V30 8539 H 818.076 1.51988 5.67603 0
M  V30 8540 H 819.6 0.674152 6.06867 0
M  V30 8541 H 821.014 2.70636 5.054 0
M  V30 8542 H 819.411 3.48012 4.88884 0
M  V30 8543 H 820.481 3.37776 3.47901 0
M  V30 8544 N 821.824 -1.22873 0.986916 0
M  V30 8545 C 823.052 -1.95487 0.677663 0
M  V30 8546 C 823.467 -1.72978 -0.756572 0
M  V30 8547 O 822.824 -1.02517 -1.50985 0
M  V30 8548 C 822.875 -3.48337 0.966638 0
M  V30 8549 O 822.596 -3.70087 2.34451 0
M  V30 8550 C 824.097 -4.38142 0.674248 0
M  V30 8551 H 821.317 -0.622211 0.251185 0
M  V30 8552 H 823.861 -1.56187 1.32007 0
M  V30 8553 H 822.016 -3.85628 0.370137 0
M  V30 8554 H 822.43 -4.64332 2.43918 0
M  V30 8555 H 823.904 -5.44165 0.926759 0
M  V30 8556 H 824.381 -4.3745 -0.391728 0
M  V30 8557 H 824.987 -4.06469 1.25152 0
M  V30 8558 N 823.302 -0.75937 -1.38099 0
M  V30 8559 C 824.232 -0.151077 -2.33011 0
M  V30 8560 C 825.213 0.697099 -1.5516 0
M  V30 8561 O 826.398 0.637101 -1.83452 0
M  V30 8562 C 823.528 0.738423 -3.39359 0
M  V30 8563 C 822.482 -0.0074741 -4.27999 0
M  V30 8564 C 821.808 1.00066 -5.25253 0
M  V30 8565 C 823.108 -1.17926 -5.08813 0
M  V30 8566 H 824.802 -0.943933 -2.84131 0
M  V30 8567 H 822.348 -0.455362 -1.36611 0
M  V30 8568 H 824.301 1.17369 -4.04725 0
M  V30 8569 H 823.025 1.56366 -2.86735 0
M  V30 8570 H 821.684 -0.423379 -3.64147 0
M  V30 8571 H 821.332 1.82012 -4.68914 0
M  V30 8572 H 821.032 0.506199 -5.85416 0
M  V30 8573 H 822.556 1.43512 -5.93495 0
M  V30 8574 H 823.97 -0.821262 -5.67387 0
M  V30 8575 H 822.367 -1.60497 -5.78239 0
M  V30 8576 H 823.437 -1.98938 -4.42212 0
M  V30 8577 N 824.78 1.49157 -0.508906 0
M  V30 8578 C 826.027 2.02473 0.0327983 0
M  V30 8579 C 826.355 1.38792 1.36261 0
M  V30 8580 O 825.61 0.515576 1.88786 0
M  V30 8581 C 825.909 3.56687 0.225717 0
M  V30 8582 C 825.575 4.39046 -1.02708 0
M  V30 8583 C 824.237 4.61271 -1.37048 0
M  V30 8584 C 826.589 4.86902 -1.85946 0
M  V30 8585 C 823.917 5.28598 -2.54562 0
M  V30 8586 C 826.269 5.55521 -3.0262 0
M  V30 8587 C 824.933 5.7599 -3.3733 0
M  V30 8588 H 824.203 0.740903 0.0120017 0
M  V30 8589 H 826.85 1.79372 -0.670665 0
M  V30 8590 H 825.155 3.78511 1.01177 0
M  V30 8591 H 826.852 3.95541 0.659433 0
M  V30 8592 H 823.442 4.21994 -0.749615 0
M  V30 8593 H 827.626 4.69553 -1.6073 0
M  V30 8594 H 822.882 5.42646 -2.81682 0
M  V30 8595 H 827.056 5.91576 -3.67438 0
M  V30 8596 H 824.683 6.27934 -4.2849 0
M  V30 8597 N 826.258 0.243083 1.55714 0
M  V30 8598 C 827.206 -0.674349 2.2261 0
M  V30 8599 C 828.2 -1.18307 1.21243 0
M  V30 8600 O 829.406 -1.1404 1.39265 0
M  V30 8601 H 825.781 -0.235941 0.714028 0
M  V30 8602 H 827.752 -0.0869446 2.98273 0
M  V30 8603 C 826.501 -1.86206 2.93637 0
M  V30 8604 H 825.824 -1.47975 3.71407 0
M  V30 8605 H 827.264 -2.4813 3.43813 0
M  V30 8606 C 825.723 -2.73084 1.97298 0
M  V30 8607 O 826.253 -3.72497 1.50361 0
M  V30 8608 N 824.459 -2.39571 1.64482 0
M  V30 8609 H 824.006 -1.5878 2.02846 0
M  V30 8610 H 823.964 -2.97976 1.00288 0
M  V30 8611 N 827.736 -1.57571 -0.0300757 0
M  V30 8612 C 828.982 -1.89506 -0.722159 0
M  V30 8613 C 829.315 -0.840699 -1.7506 0
M  V30 8614 O 828.59 0.144358 -1.93964 0
M  V30 8615 C 828.873 -3.32081 -1.39262 0
M  V30 8616 C 828.726 -4.48211 -0.377768 0
M  V30 8617 C 830.045 -3.73557 -2.32687 0
M  V30 8618 H 827.164 -0.689213 -0.261064 0
M  V30 8619 H 829.806 -1.89994 0.0150388 0
M  V30 8620 H 827.956 -3.31796 -2.02098 0
M  V30 8621 H 829.628 -4.6063 0.248591 0
M  V30 8622 H 827.871 -4.3274 0.303045 0
M  V30 8623 H 828.542 -5.44854 -0.885347 0
M  V30 8624 H 831.018 -3.75202 -1.79896 0
M  V30 8625 H 829.894 -4.74125 -2.7658 0
M  V30 8626 H 830.155 -3.05759 -3.19317 0
M  V30 8627 N 829.214 0.302327 -1.54673 0
M  V30 8628 C 830.442 1.05669 -1.77881 0
M  V30 8629 C 830.857 1.80983 -0.537648 0
M  V30 8630 O 830.214 1.7573 0.492467 0
M  V30 8631 C 830.265 2.03828 -2.98557 0
M  V30 8632 O 829.986 1.3157 -4.17877 0
M  V30 8633 C 831.487 2.91314 -3.34143 0
M  V30 8634 H 828.707 0.313436 -0.593295 0
M  V30 8635 H 831.251 0.342003 -2.0162 0
M  V30 8636 H 829.406 2.70801 -2.7703 0
M  V30 8637 H 829.82 1.97481 -4.85903 0
M  V30 8638 H 831.294 3.56042 -4.21827 0
M  V30 8639 H 831.771 3.59544 -2.52239 0
M  V30 8640 H 832.377 2.29874 -3.57824 0
M  V30 8641 N 830.692 1.47107 0.565454 0
M  V30 8642 C 832.108 1.32443 0.890566 0
M  V30 8643 C 832.308 0.308735 1.99121 0
M  V30 8644 O 831.364 -0.28265 2.50913 0
M  V30 8645 C 832.677 2.71548 1.2916 0
M  V30 8646 C 834.225 2.7977 1.40349 0
M  V30 8647 C 834.7 4.19497 1.83811 0
M  V30 8648 N 836.191 4.21998 1.90975 0
M  V30 8649 C 836.926 5.2702 2.25916 0
M  V30 8650 N 836.422 6.42353 2.59527 0
M  V30 8651 N 838.215 5.14393 2.26619 0
M  V30 8652 H 830.366 2.11786 -0.161328 0
M  V30 8653 H 832.629 0.947952 -0.00950631 0
M  V30 8654 H 832.335 3.47265 0.556753 0
M  V30 8655 H 832.209 3.02782 2.24951 0
M  V30 8656 H 834.596 2.0433 2.12916 0
M  V30 8657 H 834.677 2.522 0.427655 0
M  V30 8658 H 834.321 4.95439 1.11816 0
M  V30 8659 H 834.251 4.44486 2.82382 0
M  V30 8660 H 836.742 3.38791 1.6742 0
M  V30 8661 H 837.055 7.18252 2.85191 0
M  V30 8662 H 835.4 6.45687 2.57126 0
M  V30 8663 H 838.591 4.2332 1.99794 0
M  V30 8664 H 838.764 5.96349 2.5352 0
M  V30 8665 N 832.17 -0.811516 1.35101 0
M  V30 8666 C 833.118 -1.94449 1.27642 0
M  V30 8667 C 834.112 -1.68522 0.172287 0
M  V30 8668 O 835.318 -1.76799 0.337967 0
M  V30 8669 H 831.693 -0.638776 0.396824 0
M  V30 8670 H 833.664 -1.97861 2.23369 0
M  V30 8671 C 832.413 -3.31139 1.06029 0
M  V30 8672 H 831.736 -3.51644 1.90227 0
M  V30 8673 H 833.176 -4.10831 1.0485 0
M  V30 8674 C 831.635 -3.36072 -0.236039 0
M  V30 8675 O 832.165 -3.82292 -1.23353 0
M  V30 8676 N 830.371 -2.89314 -0.273107 0
M  V30 8677 H 829.918 -2.51893 0.539211 0
M  V30 8678 H 829.876 -2.92996 -1.1402 0
M  V30 8679 N 833.648 -1.19017 -1.03309 0
M  V30 8680 C 834.925 -0.899659 -1.73682 0
M  V30 8681 C 835.305 0.595677 -2.02521 0
M  V30 8682 O 834.653 1.55263 -1.67648 0
M  V30 8683 C 834.863 -1.75508 -3.01659 0
M  V30 8684 C 836.211 -1.98679 -3.75249 0
M  V30 8685 O 837.235 -1.72624 -3.11576 0
M  V30 8686 O 836.094 -2.42587 -4.89708 0
M  V30 8687 H 833.188 -0.334903 -0.756154 0
M  V30 8688 H 835.734 -1.29809 -1.09305 0
M  V30 8689 H 834.506 -2.7684 -2.76542 0
M  V30 8690 H 834.129 -1.35565 -3.73775 0
M  V30 8691 N 835.127 1.22348 -0.993418 0
M  V30 8692 C 836.09 2.22522 -0.549251 0
M  V30 8693 C 837.09 1.56529 0.368164 0
M  V30 8694 O 838.28 1.73463 0.16005 0
M  V30 8695 C 835.412 3.40307 0.201037 0
M  V30 8696 H 836.605 2.63332 -1.43515 0
M  V30 8697 H 834.158 1.35407 -0.78068 0
M  V30 8698 H 834.893 3.0497 1.10289 0
M  V30 8699 H 834.678 3.8942 -0.457685 0
M  V30 8700 H 836.168 4.14597 0.499946 0
M  V30 8701 N 836.605 0.766683 1.37694 0
M  V30 8702 C 838.021 0.445739 1.53249 0
M  V30 8703 C 838.221 -1.03935 1.72626 0
M  V30 8704 O 837.277 -1.82525 1.74473 0
M  V30 8705 C 838.59 1.2564 2.73194 0
M  V30 8706 C 840.138 1.24779 2.87053 0
M  V30 8707 C 840.613 2.04169 4.09974 0
M  V30 8708 N 842.104 2.01497 4.17077 0
M  V30 8709 C 842.839 2.5971 5.11212 0
M  V30 8710 N 842.335 3.26691 6.10938 0
M  V30 8711 N 844.128 2.49568 5.03659 0
M  V30 8712 H 836.279 1.72899 1.23368 0
M  V30 8713 H 838.542 0.733701 0.600322 0
M  V30 8714 H 838.248 2.30859 2.65324 0
M  V30 8715 H 838.122 0.882133 3.6674 0
M  V30 8716 H 840.509 0.203603 2.94397 0
M  V30 8717 H 840.59 1.66166 1.9448 0
M  V30 8718 H 840.234 3.08606 4.03392 0
M  V30 8719 H 840.164 1.60167 5.01651 0
M  V30 8720 H 842.655 1.52728 3.45662 0
M  V30 8721 H 842.968 3.68497 6.79286 0
M  V30 8722 H 841.313 3.30789 6.11231 0
M  V30 8723 H 844.504 1.96859 4.24693 0
M  V30 8724 H 844.677 2.95231 5.76839 0
M  V30 8725 N 838.083 -1.48885 0.516809 0
M  V30 8726 C 839.046 -2.27916 -0.242256 0
M  V30 8727 C 840.046 -1.34601 -0.879735 0
M  V30 8728 O 841.236 -1.57616 -0.74182 0
M  V30 8729 C 838.368 -3.13067 -1.34914 0
M  V30 8730 H 839.561 -2.96483 0.451444 0
M  V30 8731 H 837.114 -1.5391 0.272294 0
M  V30 8732 H 837.849 -2.49102 -2.07651 0
M  V30 8733 H 837.634 -3.81695 -0.897313 0
M  V30 8734 H 839.124 -3.72716 -1.88341 0
M  V30 8735 N 839.561 -0.251338 -1.55583 0
M  V30 8736 C 840.791 0.375642 -2.03156 0
M  V30 8737 C 841.199 1.51761 -1.12983 0
M  V30 8738 O 840.542 1.83184 -0.13757 0
M  V30 8739 C 840.604 0.941001 -3.46966 0
M  V30 8740 C 840.268 -0.0692886 -4.56947 0
M  V30 8741 C 841.265 -0.88041 -5.12391 0
M  V30 8742 C 838.95 -0.196661 -5.01915 0
M  V30 8743 C 840.944 -1.80532 -6.11299 0
M  V30 8744 C 838.631 -1.12507 -6.00654 0
M  V30 8745 C 839.629 -1.92792 -6.55225 0
M  V30 8746 O 839.317 -2.84067 -7.52038 0
M  V30 8747 H 839.049 0.0928836 -0.669588 0
M  V30 8748 H 841.603 -0.374115 -2.01964 0
M  V30 8749 H 839.833 1.7404 -3.45322 0
M  V30 8750 H 841.522 1.47853 -3.78014 0
M  V30 8751 H 842.288 -0.792615 -4.78479 0
M  V30 8752 H 838.167 0.418187 -4.59099 0
M  V30 8753 H 841.711 -2.43239 -6.5382 0
M  V30 8754 H 837.608 -1.21377 -6.33986 0
M  V30 8755 H 838.376 -2.78479 -7.6967 0
M  V30 8756 N 841.039 1.57585 0.0217189 0
M  V30 8757 C 842.285 1.89887 0.712099 0
M  V30 8758 C 842.618 0.849971 1.74611 0
M  V30 8759 O 841.893 -0.13407 1.94037 0
M  V30 8760 C 842.176 3.32815 1.37499 0
M  V30 8761 C 842.029 4.48405 0.353993 0
M  V30 8762 C 843.348 3.74786 2.30703 0
M  V30 8763 H 840.467 0.690588 0.257405 0
M  V30 8764 H 843.109 1.89983 -0.0251145 0
M  V30 8765 H 841.259 3.32863 2.00335 0
M  V30 8766 H 842.931 4.60491 -0.273015 0
M  V30 8767 H 841.174 4.32573 -0.32599 0
M  V30 8768 H 841.845 5.45316 0.85644 0
M  V30 8769 H 844.321 3.76151 1.77904 0
M  V30 8770 H 843.197 4.75585 2.74061 0
M  V30 8771 H 843.458 3.07449 3.17691 0
M  V30 8772 N 842.517 -0.29412 1.54831 0
M  V30 8773 C 843.757 -1.03635 1.76179 0
M  V30 8774 C 844.121 -1.84251 0.539953 0
M  V30 8775 O 845.322 -2.61282 0.631295 0
M  V30 8776 C 843.593 -1.91275 3.01909 0
M  V30 8777 S 845.152 -2.7205 3.44288 0
M  V30 8778 H 841.97 -0.349403 0.619224 0
M  V30 8779 H 844.572 -0.309006 1.93042 0
M  V30 8780 H 843.276 -1.30937 3.88952 0
M  V30 8781 H 842.807 -2.68365 2.87652 0
M  V30 8782 H 844.822 -3.93791 3.01899 0
M  V30 8783 N 843.995 -1.47404 -0.557645 0
M  V30 8784 C 845.243 -1.53703 -1.31224 0
M  V30 8785 C 845.564 -0.200742 -1.93964 0
M  V30 8786 O 844.834 0.775253 -1.79907 0
M  V30 8787 H 843.414 -0.566171 -0.487299 0
M  V30 8788 H 846.076 -1.83699 -0.651195 0
M  V30 8789 H 845.172 -2.30335 -2.10599 0
M  V30 8790 N 845.473 0.80434 -1.35529 0
M  V30 8791 C 846.722 1.55665 -1.28263 0
M  V30 8792 C 847.035 1.95096 0.140352 0
M  V30 8793 O 848.241 2.69422 0.335303 0
M  V30 8794 C 846.697 2.80935 -2.24952 0
M  V30 8795 C 846.305 2.48733 -3.72607 0
M  V30 8796 C 848.049 3.5894 -2.26632 0
M  V30 8797 C 845.956 3.70308 -4.61114 0
M  V30 8798 H 844.886 0.584301 -0.476559 0
M  V30 8799 H 847.537 0.88395 -1.60806 0
M  V30 8800 H 845.919 3.49927 -1.85383 0
M  V30 8801 H 847.093 1.87733 -4.20824 0
M  V30 8802 H 845.408 1.83969 -3.73557 0
M  V30 8803 H 848.005 4.49244 -2.89973 0
M  V30 8804 H 848.348 3.96433 -1.27069 0
M  V30 8805 H 848.881 2.96912 -2.64742 0
M  V30 8806 H 845.62 3.37922 -5.61684 0
M  V30 8807 H 845.14 4.30526 -4.17621 0
M  V30 8808 H 846.819 4.37511 -4.76648 0
M  V30 8809 N 846.951 1.19563 1.02676 0
M  V30 8810 C 847.883 0.893054 2.11086 0
M  V30 8811 C 848.896 -0.115101 1.62393 0
M  V30 8812 O 850.085 0.11459 1.78132 0
M  V30 8813 C 847.185 0.315533 3.37428 0
M  V30 8814 C 846.358 1.37276 4.153 0
M  V30 8815 C 845.417 0.808398 5.19953 0
M  V30 8816 O 844.443 1.48661 5.49444 0
M  V30 8817 N 845.645 -0.387253 5.79207 0
M  V30 8818 H 848.41 1.82622 2.37633 0
M  V30 8819 H 845.971 1.09792 1.18984 0
M  V30 8820 H 847.963 -0.0759166 4.04629 0
M  V30 8821 H 846.533 -0.521961 3.08211 0
M  V30 8822 H 845.753 1.93897 3.43217 0
M  V30 8823 H 847.041 2.08509 4.64114 0
M  V30 8824 H 846.439 -0.955725 5.57568 0
M  V30 8825 H 844.996 -0.720457 6.47806 0
M  V30 8826 N 848.429 -1.21819 0.999893 0
M  V30 8827 C 849.377 -2.26027 0.549047 0
M  V30 8828 C 850.371 -1.64516 -0.403826 0
M  V30 8829 O 851.577 -1.77878 -0.275578 0
M  V30 8830 H 847.952 -0.734958 0.159185 0
M  V30 8831 H 849.923 -2.61398 1.43923 0
M  V30 8832 C 848.672 -3.47514 -0.11369 0
M  V30 8833 H 847.995 -3.95112 0.610482 0
M  V30 8834 H 849.435 -4.22179 -0.3925 0
M  V30 8835 C 847.894 -3.08614 -1.35126 0
M  V30 8836 O 848.424 -3.1864 -2.44605 0
M  V30 8837 N 846.63 -2.63327 -1.22911 0
M  V30 8838 H 846.177 -2.55369 -0.338288 0
M  V30 8839 H 846.135 -2.37668 -2.05818 0
M  V30 8840 N 849.908 -0.773975 -1.37286 0
M  V30 8841 C 851.133 -0.349561 -2.04433 0
M  V30 8842 C 851.558 1.02082 -1.5799 0
M  V30 8843 O 850.916 1.65458 -0.741172 0
M  V30 8844 C 850.964 -0.404292 -3.58326 0
M  V30 8845 O 850.068 0.594447 -4.08093 0
M  V30 8846 H 849.409 -0.150959 -0.646612 0
M  V30 8847 H 851.939 -1.05079 -1.75555 0
M  V30 8848 H 851.949 -0.262378 -4.07155 0
M  V30 8849 H 850.624 -1.40403 -3.91484 0
M  V30 8850 H 849.201 0.415468 -3.70578 0
M  V30 8851 N 851.386 1.48609 -0.524698 0
M  V30 8852 C 852.632 2.02797 0.0113382 0
M  V30 8853 C 852.965 1.40147 1.34433 0
M  V30 8854 O 852.24 0.545368 1.86698 0
M  V30 8855 C 852.523 3.59832 0.138931 0
M  V30 8856 C 852.376 4.32971 -1.21886 0
M  V30 8857 C 853.695 4.3145 0.868265 0
M  V30 8858 H 850.814 0.736995 0.00264645 0
M  V30 8859 H 853.456 1.77388 -0.680704 0
M  V30 8860 H 851.606 3.81612 0.72834 0
M  V30 8861 H 853.278 4.22624 -1.84897 0
M  V30 8862 H 851.521 3.94597 -1.80211 0
M  V30 8863 H 852.192 5.41279 -1.08263 0
M  V30 8864 H 854.668 4.14468 0.368145 0
M  V30 8865 H 853.544 5.41025 0.926428 0
M  V30 8866 H 853.805 3.98358 1.91737 0
M  V30 8867 N 852.864 0.259585 1.55447 0
M  V30 8868 C 854.089 -0.368317 2.04103 0
M  V30 8869 C 854.514 -1.49827 1.13725 0
M  V30 8870 O 853.872 -1.80814 0.132705 0
M  V30 8871 C 853.92 -0.841506 3.50644 0
M  V30 8872 O 853.024 -1.95008 3.63381 0
M  V30 8873 H 852.365 -0.0785227 0.659341 0
M  V30 8874 H 854.895 0.389349 2.00861 0
M  V30 8875 H 854.905 -1.14138 3.9171 0
M  V30 8876 H 853.58 -0.0147001 4.15897 0
M  V30 8877 H 852.157 -1.65393 3.34215 0
M  V30 8878 N 854.342 -1.57594 -0.0133615 0
M  V30 8879 C 855.305 -2.06534 -0.993799 0
M  V30 8880 C 856.305 -0.972267 -1.28077 0
M  V30 8881 O 857.495 -1.23537 -1.22818 0
M  V30 8882 C 854.627 -2.49554 -2.3224 0
M  V30 8883 H 855.82 -2.94419 -0.570741 0
M  V30 8884 H 853.373 -1.54113 -0.260546 0
M  V30 8885 H 854.108 -1.64872 -2.79263 0
M  V30 8886 H 853.893 -3.29371 -2.12737 0
M  V30 8887 H 855.383 -2.8779 -3.026 0
M  V30 8888 N 855.82 0.285905 -1.54985 0
M  V30 8889 C 856.768 1.37302 -1.87752 0
M  V30 8890 C 857.762 1.51763 -0.752616 0
M  V30 8891 O 858.968 1.53701 -0.936805 0
M  V30 8892 H 855.343 0.458935 -0.59572 0
M  V30 8893 H 857.314 1.0691 -2.78591 0
M  V30 8894 C 856.063 2.72885 -2.15474 0
M  V30 8895 H 855.386 2.62545 -3.01513 0
M  V30 8896 H 856.826 3.47925 -2.42331 0
M  V30 8897 C 855.285 3.22989 -0.958124 0
M  V30 8898 O 855.815 4.01268 -0.186219 0
M  V30 8899 N 854.021 2.80503 -0.759354 0
M  V30 8900 H 853.568 2.16961 -1.38874 0
M  V30 8901 H 853.526 3.14375 0.0396937 0
M  V30 8902 N 857.298 1.47698 0.54982 0
M  V30 8903 C 858.714 1.3338 0.876468 0
M  V30 8904 C 858.914 0.329837 1.98782 0
M  V30 8905 O 857.97 -0.256022 2.51199 0
M  V30 8906 C 859.283 2.72903 1.26272 0
M  V30 8907 C 860.831 2.81243 1.37373 0
M  V30 8908 C 861.306 4.21423 1.79351 0
M  V30 8909 N 862.797 4.24 1.86489 0
M  V30 8910 C 863.532 5.29386 2.20313 0
M  V30 8911 N 863.028 6.4507 2.527 0
M  V30 8912 N 864.821 5.16768 2.2115 0
M  V30 8913 H 856.972 2.11603 -0.183781 0
M  V30 8914 H 859.235 0.947798 -0.0195601 0
M  V30 8915 H 858.941 3.47836 0.519889 0
M  V30 8916 H 858.815 3.05151 2.21727 0
M  V30 8917 H 861.202 2.06577 2.10737 0
M  V30 8918 H 861.283 2.52639 0.400882 0
M  V30 8919 H 860.927 4.96597 1.06555 0
M  V30 8920 H 860.857 4.47456 2.77652 0
M  V30 8921 H 863.348 3.40547 1.63817 0
M  V30 8922 H 863.661 7.21236 2.77557 0
M  V30 8923 H 862.006 6.48377 2.50263 0
M  V30 8924 H 865.197 4.25416 1.95293 0
M  V30 8925 H 865.37 5.99004 2.4718 0
M  V30 8926 N 858.776 -0.797141 1.35954 0
M  V30 8927 C 860.001 -1.59097 1.33053 0
M  V30 8928 C 860.426 -1.87897 -0.0874592 0
M  V30 8929 O 859.784 -1.47291 -1.05712 0
M  V30 8930 C 859.832 -2.89346 2.152 0
M  V30 8931 O 858.936 -3.826 1.5392 0
M  V30 8932 H 858.277 -0.482895 0.45575 0
M  V30 8933 H 860.807 -0.988633 1.79129 0
M  V30 8934 H 860.817 -3.38686 2.27499 0
M  V30 8935 H 859.492 -2.6771 3.18283 0
M  V30 8936 H 858.069 -3.41174 1.50516 0
M  V30 8937 N 860.254 -1.20106 -1.0204 0
M  V30 8938 C 861.531 -0.918029 -1.72718 0
M  V30 8939 C 861.911 0.574163 -2.03142 0
M  V30 8940 O 861.259 1.53476 -1.69285 0
M  V30 8941 C 861.469 -1.78698 -2.9978 0
M  V30 8942 C 862.817 -2.02648 -3.7312 0
M  V30 8943 O 863.841 -1.75919 -3.09727 0
M  V30 8944 O 862.7 -2.47767 -4.87107 0
M  V30 8945 H 859.794 -0.342904 -0.752559 0
M  V30 8946 H 862.34 -1.30961 -1.07923 0
M  V30 8947 H 861.112 -2.79757 -2.7359 0
M  V30 8948 H 860.735 -1.39522 -3.72316 0
M  V30 8949 N 861.732 1.21287 -1.00634 0
M  V30 8950 C 863.143 1.72136 -0.722914 0
M  V30 8951 C 863.494 1.8091 0.759338 0
M  V30 8952 O 862.619 1.46458 1.59308 0
M  V30 8953 C 863.214 3.12633 -1.30561 0
M  V30 8954 C 861.773 3.60833 -1.07127 0
M  V30 8955 C 860.92 2.38326 -1.4176 0
M  V30 8956 H 863.871 1.06445 -1.17708 0
M  V30 8957 H 863.892 3.74174 -0.690937 0
M  V30 8958 H 863.404 3.06215 -2.38441 0
M  V30 8959 H 861.505 3.72599 -0.00968671 0
M  V30 8960 H 861.618 4.46226 -1.74411 0
M  V30 8961 H 859.982 2.40575 -0.836412 0
M  V30 8962 H 860.765 2.34558 -2.50674 0
M  V30 8963 N 863.21 0.781244 1.36873 0
M  V30 8964 C 864.456 0.350407 1.9975 0
M  V30 8965 C 864.789 -1.07293 1.6187 0
M  V30 8966 O 864.064 -1.73983 0.869491 0
M  V30 8967 C 864.347 0.504834 3.56544 0
M  V30 8968 C 864.2 1.97127 4.04303 0
M  V30 8969 C 865.519 -0.0851272 4.40018 0
M  V30 8970 H 862.638 0.128794 0.725659 0
M  V30 8971 H 865.28 0.98606 1.6241 0
M  V30 8972 H 863.43 -0.0363006 3.88483 0
M  V30 8973 H 865.102 2.57284 3.82887 0
M  V30 8974 H 863.345 2.47676 3.56145 0
M  V30 8975 H 864.016 2.03033 5.13305 0
M  V30 8976 H 866.492 0.376704 4.14391 0
M  V30 8977 H 865.368 0.0530015 5.48874 0
M  V30 8978 H 865.629 -1.17642 4.2616 0
M  V30 8979 N 864.689 -1.48329 0.532571 0
M  V30 8980 C 865.917 -2.069 0.00354299 0
M  V30 8981 C 866.332 -1.38876 -1.27902 0
M  V30 8982 O 865.689 -0.477119 -1.76153 0
M  V30 8983 C 865.74 -3.60821 -0.221416 0
M  V30 8984 O 865.461 -4.26291 1.01034 0
M  V30 8985 C 866.962 -4.36194 -0.790531 0
M  V30 8986 H 864.182 -0.670103 0.0346836 0
M  V30 8987 H 866.726 -1.90682 0.738955 0
M  V30 8988 H 864.881 -3.76636 -0.906884 0
M  V30 8989 H 865.295 -5.18475 0.792683 0
M  V30 8990 H 866.769 -5.44657 -0.897347 0
M  V30 8991 H 867.246 -4.00798 -1.79605 0
M  V30 8992 H 867.852 -4.25064 -0.141546 0
M  V30 8993 N 866.167 -0.267825 -1.55308 0
M  V30 8994 C 867.097 0.616585 -2.25212 0
M  V30 8995 C 868.078 1.16472 -1.23969 0
M  V30 8996 O 869.263 1.20021 -1.52672 0
M  V30 8997 C 866.393 1.80412 -2.96764 0
M  V30 8998 C 865.347 1.38784 -4.04874 0
M  V30 8999 C 864.673 2.65789 -4.63961 0
M  V30 9000 C 865.973 0.543415 -5.19465 0
M  V30 9001 H 867.667 0.0336257 -2.99381 0
M  V30 9002 H 865.213 0.0147328 -1.43992 0
M  V30 9003 H 867.166 2.42866 -3.44375 0
M  V30 9004 H 865.89 2.4128 -2.20118 0
M  V30 9005 H 864.549 0.786541 -3.58063 0
M  V30 9006 H 864.197 3.24899 -3.83992 0
M  V30 9007 H 863.897 2.38651 -5.36954 0
M  V30 9008 H 865.421 3.29104 -5.14318 0
M  V30 9009 H 866.835 1.07277 -5.63174 0
M  V30 9010 H 865.232 0.367219 -5.98975 0
M  V30 9011 H 866.302 -0.439534 -4.82904 0
M  V30 9012 N 867.645 1.57599 0.00500368 0
M  V30 9013 C 868.922 1.81561 0.727654 0
M  V30 9014 C 869.302 0.871604 1.92266 0
M  V30 9015 O 868.65 -0.0808232 2.28357 0
M  V30 9016 C 868.86 3.29922 1.13809 0
M  V30 9017 C 870.208 3.95531 1.54403 0
M  V30 9018 O 871.232 3.34215 1.23202 0
M  V30 9019 O 870.091 5.03535 2.12402 0
M  V30 9020 H 867.185 0.747462 0.353878 0
M  V30 9021 H 869.731 1.69688 -0.0200667 0
M  V30 9022 H 868.503 3.90253 0.286078 0
M  V30 9023 H 868.126 3.46775 1.94507 0
M  V30 9024 N 869.123 -0.277682 1.55134 0
M  V30 9025 C 870.369 -1.0114 1.7578 0
M  V30 9026 C 870.702 -1.86109 0.554719 0
M  V30 9027 O 869.977 -1.89275 -0.447813 0
M  V30 9028 C 870.26 -1.89789 3.06027 0
M  V30 9029 C 870.113 -1.07844 4.3668 0
M  V30 9030 C 871.432 -2.88577 3.32282 0
M  V30 9031 H 868.551 -0.366277 0.639539 0
M  V30 9032 H 871.193 -0.284155 1.87863 0
M  V30 9033 H 869.343 -2.51796 2.95856 0
M  V30 9034 H 871.015 -0.479432 4.58802 0
M  V30 9035 H 869.258 -0.381764 4.32117 0
M  V30 9036 H 869.929 -1.73179 5.24131 0
M  V30 9037 H 872.405 -2.36702 3.42215 0
M  V30 9038 H 871.281 -3.47749 4.2469 0
M  V30 9039 H 871.542 -3.63458 2.51696 0
M  V30 9040 N 870.601 -1.47988 -0.541979 0
M  V30 9041 C 871.531 -1.64503 -1.65713 0
M  V30 9042 C 872.512 -0.494116 -1.62765 0
M  V30 9043 O 873.697 -0.725256 -1.80149 0
M  V30 9044 C 870.827 -1.67337 -3.04328 0
M  V30 9045 C 869.781 -2.81809 -3.2213 0
M  V30 9046 C 869.107 -2.69724 -4.61685 0
M  V30 9047 C 870.407 -4.23241 -3.06046 0
M  V30 9048 H 872.101 -2.5786 -1.52147 0
M  V30 9049 H 869.647 -1.24094 -0.730529 0
M  V30 9050 H 871.6 -1.77481 -3.82202 0
M  V30 9051 H 870.324 -0.705514 -3.18889 0
M  V30 9052 H 868.983 -2.71201 -2.46669 0
M  V30 9053 H 868.631 -1.70934 -4.73065 0
M  V30 9054 H 868.331 -3.4653 -4.74543 0
M  V30 9055 H 869.855 -2.81818 -5.41674 0
M  V30 9056 H 871.269 -4.34746 -3.73723 0
M  V30 9057 H 869.666 -5.00952 -3.30405 0
M  V30 9058 H 870.736 -4.40543 -2.02609 0
M  V30 9059 N 872.079 0.78992 -1.36375 0
M  V30 9060 C 873.309 1.57644 -1.33536 0
M  V30 9061 C 873.717 1.89007 0.0855075 0
M  V30 9062 O 873.06 1.50547 1.05267 0
M  V30 9063 C 873.122 2.92424 -2.09113 0
M  V30 9064 C 872.786 2.83793 -3.58205 0
M  V30 9065 C 873.783 2.56072 -4.52464 0
M  V30 9066 C 871.468 3.02386 -4.01084 0
M  V30 9067 C 873.462 2.47044 -5.87578 0
M  V30 9068 C 871.149 2.9298 -5.36289 0
M  V30 9069 C 872.147 2.65347 -6.29349 0
M  V30 9070 O 871.835 2.55935 -7.62071 0
M  V30 9071 H 871.567 0.495639 -0.459694 0
M  V30 9072 H 874.121 0.988354 -1.80058 0
M  V30 9073 H 872.351 3.53282 -1.57254 0
M  V30 9074 H 874.04 3.53693 -1.99139 0
M  V30 9075 H 874.806 2.4141 -4.2065 0
M  V30 9076 H 870.685 3.229 -3.29023 0
M  V30 9077 H 874.229 2.25396 -6.60184 0
M  V30 9078 H 870.126 3.07204 -5.67711 0
M  V30 9079 H 870.894 2.7142 -7.72187 0
M  V30 9080 N 873.557 1.20646 1.01402 0
M  V30 9081 C 874.805 1.01618 1.74695 0
M  V30 9082 C 875.126 -0.452438 1.89679 0
M  V30 9083 O 874.396 -1.32693 1.44116 0
M  V30 9084 H 872.976 0.373013 0.647202 0
M  V30 9085 H 875.638 1.518 1.22241 0
M  V30 9086 H 874.734 1.47666 2.74957 0
M  V30 9087 N 875.035 -1.20752 1.01276 0
M  V30 9088 C 876.446 -1.7175 0.732033 0
M  V30 9089 C 876.797 -1.8131 -0.749733 0
M  V30 9090 O 875.922 -1.47301 -1.58529 0
M  V30 9091 C 876.517 -3.11936 1.32217 0
M  V30 9092 C 875.076 -3.6026 1.09039 0
M  V30 9093 C 874.223 -2.37571 1.43022 0
M  V30 9094 H 877.174 -1.0582 1.1827 0
M  V30 9095 H 877.195 -3.73802 0.710771 0
M  V30 9096 H 876.707 -3.04946 2.40061 0
M  V30 9097 H 874.808 -3.72588 0.0294464 0
M  V30 9098 H 874.921 -4.45295 1.76775 0
M  V30 9099 H 873.285 -2.40128 0.849159 0
M  V30 9100 H 874.068 -2.33225 2.51915 0
M  V30 9101 N 876.513 -0.788492 -1.36457 0
M  V30 9102 C 877.79 -0.284484 -1.9352 0
M  V30 9103 C 878.17 1.2232 -1.7205 0
M  V30 9104 O 877.518 2.01424 -1.07892 0
M  V30 9105 C 877.728 -0.676106 -3.42388 0
M  V30 9106 C 879.076 -0.655327 -4.19512 0
M  V30 9107 O 880.1 -0.616523 -3.50824 0
M  V30 9108 O 878.959 -0.697391 -5.42032 0
M  V30 9109 H 876.053 -0.0701769 -0.824017 0
M  V30 9110 H 878.599 -0.870974 -1.45644 0
M  V30 9111 H 877.371 -1.71596 -3.51668 0
M  V30 9112 H 876.994 -0.0634517 -3.97549 0
M  V30 9113 N 877.991 1.48044 -0.54043 0
M  V30 9114 C 879.219 2.06895 -0.0145153 0
M  V30 9115 C 879.634 1.39552 1.27164 0
M  V30 9116 O 878.991 0.486454 1.75897 0
M  V30 9117 C 879.042 3.60934 0.202278 0
M  V30 9118 O 878.763 4.25749 -1.03293 0
M  V30 9119 C 880.264 4.36607 0.767387 0
M  V30 9120 H 877.484 0.66991 -0.0382368 0
M  V30 9121 H 880.028 1.90288 -0.749057 0
M  V30 9122 H 878.183 3.77111 0.886897 0
M  V30 9123 H 878.597 5.18048 -0.820167 0
M  V30 9124 H 880.071 5.45126 0.86845 0
M  V30 9125 H 880.548 4.01745 1.77477 0
M  V30 9126 H 881.154 4.25133 0.119002 0
M  V30 9127 N 879.47 0.276058 1.55163 0
M  V30 9128 C 880.881 -0.221516 1.85381 0
M  V30 9129 C 881.232 -1.55372 1.19808 0
M  V30 9130 O 880.357 -2.10855 0.486742 0
M  V30 9131 C 880.952 -0.408706 3.36326 0
M  V30 9132 C 879.511 -0.850512 3.66665 0
M  V30 9133 C 878.658 0.055656 2.77244 0
M  V30 9134 H 881.609 0.497819 1.5069 0
M  V30 9135 H 881.63 -1.24711 3.59482 0
M  V30 9136 H 881.142 0.561052 3.84023 0
M  V30 9137 H 879.243 -1.83171 3.24468 0
M  V30 9138 H 879.356 -0.687181 4.74146 0
M  V30 9139 H 877.72 -0.460819 2.50497 0
M  V30 9140 H 878.503 1.02131 3.27756 0
M  V30 9141 N 880.948 -1.576 0.00335426 0
M  V30 9142 C 882.197 -1.89892 -0.680001 0
M  V30 9143 C 882.51 -0.878731 -1.7475 0
M  V30 9144 O 883.716 -1.09199 -2.48572 0
M  V30 9145 C 882.172 -3.37098 -1.26066 0
M  V30 9146 C 881.78 -4.4742 -0.227807 0
M  V30 9147 C 883.524 -3.78495 -1.92202 0
M  V30 9148 C 881.431 -5.85706 -0.81865 0
M  V30 9149 H 880.361 -0.708578 -0.257746 0
M  V30 9150 H 883.012 -1.83387 0.0644472 0
M  V30 9151 H 881.394 -3.38451 -2.05589 0
M  V30 9152 H 882.568 -4.57589 0.54307 0
M  V30 9153 H 880.883 -4.15064 0.333297 0
M  V30 9154 H 883.48 -4.7915 -2.37318 0
M  V30 9155 H 883.823 -3.12187 -2.75399 0
M  V30 9156 H 884.356 -3.79456 -1.19408 0
M  V30 9157 H 881.095 -6.55495 -0.0253787 0
M  V30 9158 H 880.615 -5.79196 -1.55861 0
M  V30 9159 H 882.294 -6.33469 -1.31627 0
M  V30 9160 N 882.426 0.269451 -1.5528 0
M  V30 9161 C 883.675 0.998381 -1.75258 0
M  V30 9162 C 883.988 1.87321 -0.563034 0
M  V30 9163 O 885.194 2.63719 -0.645313 0
M  V30 9164 C 883.65 1.82505 -3.10193 0
M  V30 9165 C 883.258 0.99871 -4.36726 0
M  V30 9166 C 885.002 2.54807 -3.3952 0
M  V30 9167 C 882.909 1.81997 -5.627 0
M  V30 9168 H 881.839 0.376488 -0.653278 0
M  V30 9169 H 884.49 0.253909 -1.81735 0
M  V30 9170 H 882.872 2.61061 -2.97763 0
M  V30 9171 H 884.046 0.257064 -4.60082 0
M  V30 9172 H 882.361 0.390074 -4.14569 0
M  V30 9173 H 884.958 3.16662 -4.30847 0
M  V30 9174 H 885.301 3.25273 -2.59813 0
M  V30 9175 H 885.834 1.83278 -3.53064 0
M  V30 9176 H 882.573 1.15945 -6.45164 0
M  V30 9177 H 882.093 2.53749 -5.43481 0
M  V30 9178 H 883.772 2.39274 -6.0113 0
M  V30 9179 N 883.904 1.48273 0.534124 0
M  V30 9180 C 885.129 1.59988 1.31979 0
M  V30 9181 C 885.554 0.258824 1.86311 0
M  V30 9182 O 884.912 -0.768885 1.64188 0
M  V30 9183 C 884.96 2.64642 2.44943 0
M  V30 9184 O 884.064 2.21515 3.47858 0
M  V30 9185 H 883.405 0.536625 0.391063 0
M  V30 9186 H 885.935 1.94229 0.643135 0
M  V30 9187 H 885.945 2.85786 2.91187 0
M  V30 9188 H 884.62 3.62004 2.04758 0
M  V30 9189 H 883.197 2.10567 3.0776 0
M  V30 9190 N 885.382 -0.782676 1.36792 0
M  V30 9191 C 886.793 -1.35828 1.28092 0
M  V30 9192 C 887.144 -1.96052 -0.076315 0
M  V30 9193 O 886.269 -1.93042 -0.977935 0
M  V30 9194 C 886.864 -2.46949 2.31952 0
M  V30 9195 C 885.423 -3.00307 2.2692 0
M  V30 9196 C 884.57 -1.73436 2.16368 0
M  V30 9197 H 887.521 -0.583788 1.47572 0
M  V30 9198 H 887.542 -3.26144 1.95986 0
M  V30 9199 H 887.054 -2.03087 3.30722 0
M  V30 9200 H 885.155 -3.48571 1.31639 0
M  V30 9201 H 885.268 -3.56663 3.19887 0
M  V30 9202 H 883.632 -1.95934 1.62733 0
M  V30 9203 H 884.415 -1.31693 3.17036 0
M  V30 9204 N 886.86 -1.21182 -1.00761 0
M  V30 9205 C 888.271 -1.02652 -1.55947 0
M  V30 9206 C 888.622 0.414466 -1.91772 0
M  V30 9207 O 887.747 1.29727 -1.73204 0
M  V30 9208 C 888.342 -1.85713 -2.83366 0
M  V30 9209 C 886.901 -1.71523 -3.35048 0
M  V30 9210 C 886.048 -1.83087 -2.08265 0
M  V30 9211 H 888.999 -1.35242 -0.830379 0
M  V30 9212 H 889.02 -1.36583 -3.55141 0
M  V30 9213 H 888.532 -2.90584 -2.5726 0
M  V30 9214 H 886.633 -0.693257 -3.66094 0
M  V30 9215 H 886.746 -2.53333 -4.06644 0
M  V30 9216 H 885.11 -1.26367 -2.21141 0
M  V30 9217 H 885.893 -2.8946 -1.84575 0
M  V30 9218 N 888.338 1.20213 -1.01915 0
M  V30 9219 C 889.615 1.85348 -0.62495 0
M  V30 9220 C 889.995 1.91101 0.896854 0
M  V30 9221 O 889.343 1.42075 1.78961 0
M  V30 9222 C 889.553 3.24849 -1.27571 0
M  V30 9223 C 890.901 4.01107 -1.39277 0
M  V30 9224 O 891.925 3.34211 -1.23212 0
M  V30 9225 O 890.784 5.20914 -1.6526 0
M  V30 9226 H 887.878 0.798303 -0.215965 0
M  V30 9227 H 890.424 1.27782 -1.11669 0
M  V30 9228 H 889.196 3.1544 -2.31545 0
M  V30 9229 H 888.819 3.90049 -0.77122 0
M  V30 9230 N 889.816 0.795718 1.36037 0
M  V30 9231 C 891.041 0.38204 2.03851 0
M  V30 9232 C 891.466 -0.995553 1.59594 0
M  V30 9233 O 890.824 -1.64258 0.767401 0
M  V30 9234 C 890.872 0.461248 3.57638 0
M  V30 9235 O 889.976 -0.529448 4.08987 0
M  V30 9236 H 889.317 0.161227 0.644129 0
M  V30 9237 H 891.847 1.07858 1.73861 0
M  V30 9238 H 891.857 0.32712 4.06687 0
M  V30 9239 H 890.532 1.46613 3.89201 0
M  V30 9240 H 889.109 -0.35646 3.71192 0
M  V30 9241 N 891.294 -1.47756 0.548274 0
M  V30 9242 C 892.519 -2.07387 0.023475 0
M  V30 9243 C 892.944 -1.39956 -1.25674 0
M  V30 9244 O 892.302 -0.471543 -1.7506 0
M  V30 9245 C 892.35 -3.60224 -0.164669 0
M  V30 9246 O 891.454 -3.93653 -1.22928 0
M  V30 9247 H 890.795 -0.662312 0.0473156 0
M  V30 9248 H 893.325 -1.89905 0.761409 0
M  V30 9249 H 893.335 -4.06211 -0.38166 0
M  V30 9250 H 892.01 -4.08702 0.770425 0
M  V30 9251 H 890.587 -3.59422 -0.993495 0
M  V30 9252 N 892.772 -0.284283 -1.55015 0
M  V30 9253 C 894.002 0.332465 -2.03907 0
M  V30 9254 C 894.41 1.49331 -1.16177 0
M  V30 9255 O 893.753 1.82851 -0.176395 0
M  V30 9256 C 893.815 0.867193 -3.48884 0
M  V30 9257 C 893.479 -0.166198 -4.56698 0
M  V30 9258 C 894.476 -0.988898 -5.10408 0
M  V30 9259 C 892.161 -0.303081 -5.01385 0
M  V30 9260 C 894.155 -1.93458 -6.07333 0
M  V30 9261 C 891.842 -1.25223 -5.98133 0
M  V30 9262 C 892.84 -2.06647 -6.50988 0
M  V30 9263 O 892.528 -2.99955 -7.45843 0
M  V30 9264 H 892.26 0.0786597 -0.671408 0
M  V30 9265 H 894.814 -0.416871 -2.01125 0
M  V30 9266 H 893.044 1.66676 -3.48935 0
M  V30 9267 H 894.733 1.39802 -3.81065 0
M  V30 9268 H 895.499 -0.89393 -4.76691 0
M  V30 9269 H 891.378 0.320711 -4.59883 0
M  V30 9270 H 894.922 -2.57053 -6.48513 0
M  V30 9271 H 890.819 -1.34798 -6.31268 0
M  V30 9272 H 891.587 -2.94742 -7.6359 0
M  V30 9273 N 894.251 1.57596 -0.0117121 0
M  V30 9274 C 895.181 2.12188 0.9746 0
M  V30 9275 C 896.162 1.03379 1.35081 0
M  V30 9276 O 897.347 1.31123 1.4325 0
M  V30 9277 C 894.477 2.63477 2.26268 0
M  V30 9278 C 893.431 3.76917 2.02774 0
M  V30 9279 C 892.757 4.14566 3.37697 0
M  V30 9280 C 894.057 5.03715 1.38089 0
M  V30 9281 H 895.751 2.9485 0.520007 0
M  V30 9282 H 893.297 1.41836 0.248685 0
M  V30 9283 H 895.25 3.00299 2.95633 0
M  V30 9284 H 893.974 1.77953 2.73862 0
M  V30 9285 H 892.633 3.40507 1.35832 0
M  V30 9286 H 892.281 3.26048 3.83016 0
M  V30 9287 H 891.981 4.91 3.22789 0
M  V30 9288 H 893.505 4.53956 4.08358 0
M  V30 9289 H 894.919 5.38233 1.97428 0
M  V30 9290 H 893.316 5.85032 1.33634 0
M  V30 9291 H 894.386 4.83624 0.351575 0
M  V30 9292 N 895.729 -0.261212 1.5542 0
M  V30 9293 C 896.954 -1.01341 1.80955 0
M  V30 9294 C 897.379 -1.78711 0.586849 0
M  V30 9295 O 896.737 -1.75266 -0.463837 0
M  V30 9296 C 896.785 -1.93835 3.04073 0
M  V30 9297 O 895.889 -3.02791 2.79985 0
M  V30 9298 H 895.23 -0.289123 0.597749 0
M  V30 9299 H 897.76 -0.286543 2.02584 0
M  V30 9300 H 897.77 -2.3557 3.33123 0
M  V30 9301 H 896.445 -1.36936 3.9271 0
M  V30 9302 H 895.022 -2.65287 2.62063 0
M  V30 9303 N 897.207 -1.48554 -0.526253 0
M  V30 9304 C 898.455 -1.56452 -1.27935 0
M  V30 9305 C 898.776 -0.24184 -1.93495 0
M  V30 9306 O 898.046 0.736917 -1.81511 0
M  V30 9307 H 896.626 -0.576379 -0.47518 0
M  V30 9308 H 899.288 -1.85039 -0.612083 0
M  V30 9309 H 898.384 -2.34751 -2.05666 0
M  V30 9310 N 898.685 0.775411 -1.37205 0
M  V30 9311 C 899.648 1.8702 -1.325 0
M  V30 9312 C 900.648 1.5915 -0.229793 0
M  V30 9313 O 901.838 1.673 -0.485423 0
M  V30 9314 C 898.97 3.24085 -1.05745 0
M  V30 9315 H 900.163 1.92604 -2.29878 0
M  V30 9316 H 897.716 0.97476 -1.22181 0
M  V30 9317 H 898.451 3.24178 -0.0888371 0
M  V30 9318 H 898.236 3.45705 -1.85016 0
M  V30 9319 H 899.726 4.0416 -1.05094 0
M  V30 9320 N 900.163 1.21714 1.00117 0
M  V30 9321 C 901.111 0.976937 2.11089 0
M  V30 9322 C 902.105 -0.0771295 1.69224 0
M  V30 9323 O 903.311 0.0745945 1.79845 0
M  V30 9324 H 899.686 0.298687 0.690138 0
M  V30 9325 H 901.657 1.91881 2.28526 0
M  V30 9326 C 900.406 0.562369 3.43122 0
M  V30 9327 H 899.729 1.36509 3.75773 0
M  V30 9328 H 901.169 0.433642 4.21777 0
M  V30 9329 C 899.628 -0.727148 3.28959 0
M  V30 9330 O 900.158 -1.78171 3.60025 0
M  V30 9331 N 898.364 -0.695129 2.82164 0
M  V30 9332 H 897.911 0.163346 2.57082 0
M  V30 9333 H 897.869 -1.55822 2.73069 0
M  V30 9334 N 901.641 -1.19671 1.02551 0
M  V30 9335 C 902.571 -2.25009 0.623965 0
M  V30 9336 C 903.552 -1.66129 -0.36538 0
M  V30 9337 O 904.737 -1.92599 -0.248842 0
M  V30 9338 C 901.867 -3.47287 -0.0294869 0
M  V30 9339 C 900.821 -4.18818 0.881781 0
M  V30 9340 C 900.147 -5.34618 0.0936189 0
M  V30 9341 C 901.447 -4.73986 2.19396 0
M  V30 9342 H 903.141 -2.58851 1.50454 0
M  V30 9343 H 900.687 -1.24425 0.724872 0
M  V30 9344 H 902.64 -4.20168 -0.322016 0
M  V30 9345 H 901.364 -3.12635 -0.944838 0
M  V30 9346 H 900.023 -3.47815 1.15845 0
M  V30 9347 H 899.671 -4.9621 -0.823661 0
M  V30 9348 H 899.371 -5.83409 0.700568 0
M  V30 9349 H 900.895 -6.10297 -0.192249 0
M  V30 9350 H 902.309 -5.38639 1.96319 0
M  V30 9351 H 900.706 -5.3325 2.75254 0
M  V30 9352 H 901.776 -3.92238 2.85092 0
M  V30 9353 N 903.119 -0.802921 -1.35613 0
M  V30 9354 C 904.067 -0.198783 -2.31749 0
M  V30 9355 C 905.061 0.649416 -1.56458 0
M  V30 9356 O 906.267 0.542989 -1.71615 0
M  V30 9357 H 902.642 -0.0455177 -0.750621 0
M  V30 9358 H 904.613 -1.02479 -2.80251 0
M  V30 9359 C 903.362 0.641066 -3.41739 0
M  V30 9360 H 902.685 -0.00226244 -3.998 0
M  V30 9361 H 904.125 1.03022 -4.11294 0
M  V30 9362 C 902.584 1.80505 -2.84464 0
M  V30 9363 O 903.114 2.90235 -2.77717 0
M  V30 9364 N 901.32 1.61542 -2.41563 0
M  V30 9365 H 900.867 0.722863 -2.4725 0
M  V30 9366 H 900.825 2.39581 -2.03589 0
M  V30 9367 N 904.597 1.47463 -0.556102 0
M  V30 9368 C 905.527 2.32801 0.180497 0
M  V30 9369 C 906.508 1.43721 0.909848 0
M  V30 9370 O 907.693 1.72578 0.89053 0
M  V30 9371 C 904.823 3.25478 1.21167 0
M  V30 9372 C 903.777 4.2379 0.598846 0
M  V30 9373 C 903.103 5.05783 1.73457 0
M  V30 9374 C 904.403 5.20387 -0.446659 0
M  V30 9375 H 906.097 2.94636 -0.531956 0
M  V30 9376 H 903.643 1.41683 -0.257267 0
M  V30 9377 H 905.596 3.8402 1.73513 0
M  V30 9378 H 904.32 2.61695 1.95405 0
M  V30 9379 H 902.979 3.66472 0.0966897 0
M  V30 9380 H 902.627 4.38405 2.46596 0
M  V30 9381 H 902.327 5.72343 1.33031 0
M  V30 9382 H 903.851 5.67183 2.26131 0
M  V30 9383 H 905.265 5.73299 -0.00930019 0
M  V30 9384 H 903.662 5.95143 -0.769735 0
M  V30 9385 H 904.732 4.65932 -1.34295 0
M  V30 9386 N 906.075 0.2925 1.54862 0
M  V30 9387 C 907.3 -0.32494 2.04839 0
M  V30 9388 C 907.725 -1.47381 1.16877 0
M  V30 9389 O 907.083 -1.80492 0.171028 0
M  V30 9390 C 907.131 -0.76694 3.5235 0
M  V30 9391 O 906.235 -1.87256 3.67436 0
M  V30 9392 H 905.576 -0.0645195 0.660858 0
M  V30 9393 H 908.106 0.431867 1.9999 0
M  V30 9394 H 908.116 -1.05804 3.94043 0
M  V30 9395 H 906.791 0.0735212 4.15835 0
M  V30 9396 H 905.368 -1.58266 3.37648 0
M  V30 9397 N 907.553 -1.57587 0.0200696 0
M  V30 9398 C 908.793 -1.93287 -0.66479 0
M  V30 9399 C 909.157 -0.896022 -1.6981 0
M  V30 9400 O 910.358 -1.13892 -2.43479 0
M  V30 9401 C 908.629 -3.33949 -1.27328 0
M  V30 9402 S 910.188 -3.91564 -1.98047 0
M  V30 9403 H 907.006 -0.676397 -0.219106 0
M  V30 9404 H 909.608 -1.9533 0.081568 0
M  V30 9405 H 908.312 -4.07235 -0.508673 0
M  V30 9406 H 907.843 -3.35329 -2.05714 0
M  V30 9407 H 909.858 -3.74265 -3.25791 0
M  V30 9408 N 909.032 0.252966 -1.55557 0
M  V30 9409 C 909.982 1.31585 -1.86197 0
M  V30 9410 C 910.966 1.43773 -0.722357 0
M  V30 9411 O 912.158 1.47117 -0.984152 0
M  V30 9412 C 909.287 2.67245 -2.15487 0
M  V30 9413 C 908.373 2.59087 -3.3576 0
M  V30 9414 N 908.764 2.20556 -4.5518 0
M  V30 9415 C 907.062 2.90112 -3.3875 0
M  V30 9416 C 907.763 2.22881 -5.37307 0
M  V30 9417 N 906.739 2.62145 -4.76215 0
M  V30 9418 H 910.541 1.00835 -2.76061 0
M  V30 9419 H 908.055 0.461598 -1.55702 0
M  V30 9420 H 910.052 3.43944 -2.35602 0
M  V30 9421 H 908.712 2.98867 -1.26919 0
M  V30 9422 H 909.723 1.922 -4.80915 0
M  V30 9423 H 906.4 3.26313 -2.60434 0
M  V30 9424 H 907.79 1.95482 -6.42835 0
M  V30 9425 N 910.51 1.48831 0.518367 0
M  V30 9426 C 911.735 1.61379 1.30275 0
M  V30 9427 C 912.16 0.278571 1.86026 0
M  V30 9428 O 911.518 -0.751427 1.64995 0
M  V30 9429 C 911.566 2.67225 2.42122 0
M  V30 9430 O 910.67 2.25192 3.45489 0
M  V30 9431 H 910.011 0.540742 0.385349 0
M  V30 9432 H 912.541 1.949 0.622498 0
M  V30 9433 H 912.551 2.88859 2.8814 0
M  V30 9434 H 911.226 3.64155 2.00907 0
M  V30 9435 H 909.803 2.13819 3.05509 0
M  V30 9436 N 911.988 -0.768124 1.37614 0
M  V30 9437 C 912.951 -1.86314 1.3349 0
M  V30 9438 C 913.951 -1.59025 0.23823 0
M  V30 9439 O 915.141 -1.6704 0.494288 0
M  V30 9440 C 912.273 -3.23519 1.07462 0
M  V30 9441 H 913.466 -1.91382 2.30896 0
M  V30 9442 H 911.019 -0.968267 1.22696 0
M  V30 9443 H 911.754 -3.24127 0.106028 0
M  V30 9444 H 911.539 -3.44719 1.86846 0
M  V30 9445 H 913.029 -4.03597 1.07236 0
M  V30 9446 N 913.466 -1.22244 -0.994698 0
M  V30 9447 C 914.691 -1.07299 -1.77487 0
M  V30 9448 C 915.116 0.372302 -1.84379 0
M  V30 9449 O 914.474 1.2689 -1.29494 0
M  V30 9450 C 914.522 -1.68675 -3.18718 0
M  V30 9451 O 913.626 -0.939202 -4.01563 0
M  V30 9452 H 912.967 -0.376979 -0.546611 0
M  V30 9453 H 915.497 -1.62003 -1.24965 0
M  V30 9454 H 915.507 -1.73324 -3.69354 0
M  V30 9455 H 914.182 -2.73849 -3.13017 0
M  V30 9456 H 912.759 -0.968583 -3.60101 0
M  V30 9457 N 914.944 1.19125 -1.03184 0
M  V30 9458 C 915.892 2.24492 -0.608781 0
M  V30 9459 C 916.886 1.65529 0.360065 0
M  V30 9460 O 918.092 1.78546 0.22832 0
M  V30 9461 H 914.467 0.73048 -0.178616 0
M  V30 9462 H 916.438 2.5749 -1.50803 0
M  V30 9463 C 915.187 3.47693 0.0215126 0
M  V30 9464 H 914.51 3.93354 -0.715024 0
M  V30 9465 H 915.95 4.23072 0.280429 0
M  V30 9466 C 914.409 3.12088 1.26896 0
M  V30 9467 O 914.939 3.25013 2.36071 0
M  V30 9468 N 913.145 2.66494 1.15886 0
M  V30 9469 H 912.692 2.56176 0.270463 0
M  V30 9470 H 912.65 2.43042 1.99444 0
M  V30 9471 N 916.422 0.810101 1.35185 0
M  V30 9472 C 917.833 0.452616 1.81131 0
M  V30 9473 C 918.184 -1.02573 1.67252 0
M  V30 9474 O 917.309 -1.79735 1.20516 0
M  V30 9475 C 917.904 0.814775 3.28857 0
M  V30 9476 C 916.463 0.509839 3.72931 0
M  V30 9477 C 915.61 1.03852 2.57119 0
M  V30 9478 H 918.561 1.00143 1.23114 0
M  V30 9479 H 918.582 0.113635 3.8033 0
M  V30 9480 H 918.094 1.89078 3.38926 0
M  V30 9481 H 916.195 -0.557289 3.68409 0
M  V30 9482 H 916.308 1.04493 4.67566 0
M  V30 9483 H 914.672 0.460671 2.50499 0
M  V30 9484 H 915.455 2.12071 2.69964 0
M  V30 9485 N 917.9 -1.47166 0.563914 0
M  V30 9486 C 919.125 -2.0735 0.0454698 0
M  V30 9487 C 919.55 -1.41281 -1.24182 0
M  V30 9488 O 918.908 -0.490084 -1.7455 0
M  V30 9489 C 918.956 -3.60378 -0.126453 0
M  V30 9490 O 918.06 -3.94934 -1.18746 0
M  V30 9491 H 917.401 -0.661773 0.0543377 0
M  V30 9492 H 919.931 -1.89086 0.781508 0
M  V30 9493 H 919.941 -4.06593 -0.338554 0
M  V30 9494 H 918.616 -4.07862 0.81373 0
M  V30 9495 H 917.193 -3.60455 -0.955318 0
M  V30 9496 N 919.378 -0.300708 -1.54705 0
M  V30 9497 C 920.789 0.191995 -1.8571 0
M  V30 9498 C 921.14 1.53447 -1.22264 0
M  V30 9499 O 920.265 2.10054 -0.520226 0
M  V30 9500 C 920.86 0.355148 -3.36933 0
M  V30 9501 C 919.419 0.792071 -3.67972 0
M  V30 9502 C 918.566 -0.099756 -2.77121 0
M  V30 9503 H 921.517 -0.521729 -1.49879 0
M  V30 9504 H 921.538 1.18977 -3.61421 0
M  V30 9505 H 921.05 -0.622075 -3.83082 0
M  V30 9506 H 919.151 1.77986 -3.27341 0
M  V30 9507 H 919.264 0.611661 -4.75179 0
M  V30 9508 H 917.628 0.420909 -2.51198 0
M  V30 9509 H 918.411 -1.07333 -3.2609 0
M  V30 9510 N 920.856 1.57574 -0.0284266 0
M  V30 9511 C 921.788 2.07079 0.982391 0
M  V30 9512 C 922.801 0.994078 1.28926 0
M  V30 9513 O 923.99 1.27028 1.25404 0
M  V30 9514 C 921.09 2.47978 2.30998 0
M  V30 9515 C 920.263 3.7872 2.18838 0
M  V30 9516 C 919.322 4.06177 3.34524 0
M  V30 9517 O 918.348 4.76438 3.11441 0
M  V30 9518 N 919.55 3.56297 4.58293 0
M  V30 9519 H 922.315 2.94421 0.560011 0
M  V30 9520 H 919.876 1.61124 0.158347 0
M  V30 9521 H 921.868 2.63439 3.07216 0
M  V30 9522 H 920.438 1.66005 2.64879 0
M  V30 9523 H 919.658 3.73062 1.27351 0
M  V30 9524 H 920.946 4.6438 2.07915 0
M  V30 9525 H 920.344 2.99453 4.79942 0
M  V30 9526 H 918.901 3.77038 5.31682 0
M  V30 9527 N 922.334 -0.244713 1.55689 0
M  V30 9528 C 923.564 -0.988508 1.81417 0
M  V30 9529 C 923.972 -1.79362 0.602143 0
M  V30 9530 O 923.315 -1.78386 -0.438639 0
M  V30 9531 C 923.377 -1.97287 3.0053 0
M  V30 9532 C 923.041 -1.35448 4.36466 0
M  V30 9533 C 924.038 -0.755874 5.14376 0
M  V30 9534 C 921.723 -1.37319 4.83165 0
M  V30 9535 C 923.717 -0.184218 6.37134 0
M  V30 9536 C 921.404 -0.797681 6.05871 0
M  V30 9537 C 922.402 -0.204224 6.82695 0
M  V30 9538 O 922.09 0.362392 8.03083 0
M  V30 9539 H 921.822 -0.296412 0.607549 0
M  V30 9540 H 924.376 -0.272185 2.03589 0
M  V30 9541 H 922.606 -2.72756 2.74119 0
M  V30 9542 H 924.295 -2.58028 3.13331 0
M  V30 9543 H 925.061 -0.733912 4.79415 0
M  V30 9544 H 920.94 -1.8245 4.23359 0
M  V30 9545 H 924.484 0.279624 6.97039 0
M  V30 9546 H 920.381 -0.816978 6.40309 0
M  V30 9547 H 921.149 0.254467 8.18104 0
M  V30 9548 N 923.813 -1.49104 -0.510467 0
M  V30 9549 C 925.038 -1.62068 -1.29417 0
M  V30 9550 C 925.463 -0.288432 -1.85875 0
M  V30 9551 O 924.821 0.742667 -1.65391 0
M  V30 9552 C 924.869 -2.68506 -2.40701 0
M  V30 9553 O 923.973 -2.27021 -3.4429 0
M  V30 9554 H 923.314 -0.542778 -0.382476 0
M  V30 9555 H 925.844 -1.95228 -0.612154 0
M  V30 9556 H 925.854 -2.90383 -2.86604 0
M  V30 9557 H 924.529 -3.65216 -1.98973 0
M  V30 9558 H 923.106 -2.15436 -3.04371 0
M  V30 9559 N 925.291 0.760815 -1.38019 0
M  V30 9560 C 926.537 1.52109 -1.35034 0
M  V30 9561 C 926.892 1.92302 0.0615509 0
M  V30 9562 O 926.185 1.62028 1.02261 0
M  V30 9563 C 926.379 2.79024 -2.23339 0
M  V30 9564 C 926.208 2.51238 -3.72974 0
M  V30 9565 C 924.978 2.44818 -4.42032 0
M  V30 9566 C 927.176 2.18499 -4.65578 0
M  V30 9567 N 925.158 2.09232 -5.77144 0
M  V30 9568 C 926.529 1.93143 -5.89148 0
M  V30 9569 C 928.584 2.04747 -4.53854 0
M  V30 9570 C 927.287 1.55423 -7.02308 0
M  V30 9571 C 929.313 1.68428 -5.66909 0
M  V30 9572 C 928.675 1.43939 -6.89537 0
M  V30 9573 H 924.774 0.556482 -0.54941 0
M  V30 9574 H 927.358 0.886614 -1.73341 0
M  V30 9575 H 925.529 3.40292 -1.87232 0
M  V30 9576 H 927.261 3.45016 -2.11533 0
M  V30 9577 H 924.016 2.61045 -3.95161 0
M  V30 9578 H 924.44 1.94104 -6.48577 0
M  V30 9579 H 929.082 2.22358 -3.59607 0
M  V30 9580 H 926.8 1.36551 -7.96479 0
M  V30 9581 H 930.386 1.5843 -5.59814 0
M  V30 9582 H 929.266 1.16253 -7.75535 0
M  V30 9583 N 926.769 1.22769 0.988202 0
M  V30 9584 C 928.185 0.988665 1.2529 0
M  V30 9585 C 928.385 -0.314938 1.99024 0
M  V30 9586 O 927.441 -1.03637 2.30251 0
M  V30 9587 C 928.754 2.19046 2.06009 0
M  V30 9588 C 930.302 2.23452 2.19176 0
M  V30 9589 C 930.777 3.43196 3.03283 0
M  V30 9590 N 932.268 3.43387 3.10869 0
M  V30 9591 C 933.003 4.32693 3.7625 0
M  V30 9592 N 932.499 5.32224 4.43519 0
M  V30 9593 N 934.292 4.20457 3.73058 0
M  V30 9594 H 926.443 2.06575 0.494014 0
M  V30 9595 H 928.706 0.905452 0.28082 0
M  V30 9596 H 928.412 3.13607 1.59197 0
M  V30 9597 H 928.286 2.19492 3.06763 0
M  V30 9598 H 930.673 1.29436 2.65199 0
M  V30 9599 H 930.754 2.27042 1.17836 0
M  V30 9600 H 930.398 4.37515 2.57959 0
M  V30 9601 H 930.328 3.36847 4.04774 0
M  V30 9602 H 932.819 2.71368 2.62998 0
M  V30 9603 H 933.132 5.9664 4.91163 0
M  V30 9604 H 931.477 5.36133 4.42252 0
M  V30 9605 H 934.668 3.41949 3.19669 0
M  V30 9606 H 934.841 4.90261 4.23731 0
M  V30 9607 N 928.247 -1.18576 1.03814 0
M  V30 9608 C 929.496 -1.87822 0.735235 0
M  V30 9609 C 929.809 -1.81069 -0.739819 0
M  V30 9610 O 931.015 -2.45654 -1.15614 0
M  V30 9611 C 929.471 -3.36941 1.26486 0
M  V30 9612 C 929.079 -3.5223 2.76836 0
M  V30 9613 C 930.823 -4.11604 1.03836 0
M  V30 9614 C 928.73 -4.95294 3.23169 0
M  V30 9615 H 927.66 -0.703487 0.271333 0
M  V30 9616 H 930.311 -1.34 1.25365 0
M  V30 9617 H 928.693 -3.90217 0.674318 0
M  V30 9618 H 929.867 -3.09239 3.41625 0
M  V30 9619 H 928.182 -2.90969 2.97869 0
M  V30 9620 H 930.779 -5.17123 1.3597 0
M  V30 9621 H 931.122 -4.16293 -0.0244945 0
M  V30 9622 H 931.655 -3.64494 1.59338 0
M  V30 9623 H 928.394 -4.95772 4.28824 0
M  V30 9624 H 927.914 -5.3901 2.63113 0
M  V30 9625 H 929.593 -5.63996 3.17045 0
M  V30 9626 N 929.725 -0.817259 -1.34754 0
M  V30 9627 C 930.673 -0.223352 -2.31525 0
M  V30 9628 C 931.667 0.632785 -1.57137 0
M  V30 9629 O 932.873 0.524757 -1.72181 0
M  V30 9630 H 929.248 -0.0534765 -0.750096 0
M  V30 9631 H 931.219 -1.05446 -2.79148 0
M  V30 9632 C 929.968 0.604784 -3.424 0
M  V30 9633 H 929.291 -0.0446664 -3.99775 0
M  V30 9634 H 930.731 0.986543 -4.12363 0
M  V30 9635 C 929.19 1.77478 -2.86362 0
M  V30 9636 O 929.72 2.87273 -2.8078 0
M  V30 9637 N 927.926 1.58971 -2.43263 0
M  V30 9638 H 927.473 0.696598 -2.48003 0
M  V30 9639 H 927.431 2.37408 -2.06119 0
M  V30 9640 N 931.203 1.46865 -0.571711 0
M  V30 9641 C 932.451 2.0203 -0.0530022 0
M  V30 9642 C 932.772 1.44687 1.30731 0
M  V30 9643 O 932.042 0.627429 1.85581 0
M  V30 9644 H 930.622 0.746815 -0.0166035 0
M  V30 9645 H 933.284 1.80099 -0.745003 0
M  V30 9646 H 932.38 3.12091 0.0242538 0
M  V30 9647 N 932.681 0.308908 1.54543 0
M  V30 9648 C 933.93 -0.298854 1.99474 0
M  V30 9649 C 934.243 -1.54393 1.20093 0
M  V30 9650 O 935.449 -2.22677 1.55329 0
M  V30 9651 C 933.905 -0.58303 3.55146 0
M  V30 9652 C 933.513 0.644157 4.43345 0
M  V30 9653 C 935.257 -1.15155 4.08582 0
M  V30 9654 C 933.164 0.332694 5.90463 0
M  V30 9655 H 932.094 -0.115445 0.74511 0
M  V30 9656 H 934.745 0.418848 1.78656 0
M  V30 9657 H 933.127 -1.36053 3.71894 0
M  V30 9658 H 934.301 1.42012 4.38371 0
M  V30 9659 H 932.616 1.13186 4.00722 0
M  V30 9660 H 935.213 -1.39896 5.16075 0
M  V30 9661 H 935.556 -2.09632 3.59667 0
M  V30 9662 H 936.089 -0.435571 3.95408 0
M  V30 9663 H 932.828 1.24624 6.43544 0
M  V30 9664 H 932.348 -0.405844 5.98425 0
M  V30 9665 H 934.027 -0.0628545 6.46969 0
M  V30 9666 N 934.159 -1.57557 0.0367827 0
M  V30 9667 C 935.57 -1.79853 -0.500971 0
M  V30 9668 C 935.921 -0.947749 -1.71791 0
M  V30 9669 O 935.046 -0.160287 -2.15806 0
M  V30 9670 C 935.641 -3.26193 -0.915626 0
M  V30 9671 C 934.2 -3.49457 -1.39845 0
M  V30 9672 C 933.347 -2.74864 -0.366784 0
M  V30 9673 H 936.298 -1.56509 0.262768 0
M  V30 9674 H 936.319 -3.36324 -1.7795 0
M  V30 9675 H 935.831 -3.88089 -0.0297227 0
M  V30 9676 H 933.932 -2.92823 -2.30402 0
M  V30 9677 H 934.045 -4.58172 -1.40054 0
M  V30 9678 H 932.409 -2.4057 -0.836554 0
M  V30 9679 H 933.192 -3.39479 0.510785 0
M  V30 9680 N 935.637 0.236453 -1.55816 0
M  V30 9681 C 936.569 1.31602 -1.87653 0
M  V30 9682 C 937.582 1.43782 -0.763584 0
M  V30 9683 O 938.771 1.44945 -1.04178 0
M  V30 9684 C 935.871 2.69342 -2.05689 0
M  V30 9685 C 935.044 2.79298 -3.36617 0
M  V30 9686 C 934.103 3.97952 -3.44268 0
M  V30 9687 O 933.129 3.86989 -4.17406 0
M  V30 9688 N 934.331 5.11594 -2.74321 0
M  V30 9689 H 937.096 1.04623 -2.80845 0
M  V30 9690 H 934.657 0.426534 -1.5618 0
M  V30 9691 H 936.649 3.47074 -2.08138 0
M  V30 9692 H 935.219 2.88984 -1.19192 0
M  V30 9693 H 934.439 1.8816 -3.46395 0
M  V30 9694 H 935.727 2.82908 -4.22895 0
M  V30 9695 H 935.125 5.23394 -2.14651 0
M  V30 9696 H 933.682 5.87422 -2.8245 0
M  V30 9697 N 937.115 1.49373 0.502552 0
M  V30 9698 C 938.047 1.62045 1.62093 0
M  V30 9699 C 939.06 0.503221 1.54827 0
M  V30 9700 O 940.249 0.775208 1.60788 0
M  V30 9701 C 937.349 1.55971 3.00876 0
M  V30 9702 C 936.522 2.832 3.33341 0
M  V30 9703 C 935.581 2.702 4.51529 0
M  V30 9704 O 934.607 3.44132 4.53389 0
M  V30 9705 N 935.809 1.81642 5.5135 0
M  V30 9706 H 938.574 2.58501 1.51649 0
M  V30 9707 H 936.135 1.46442 0.690396 0
M  V30 9708 H 938.127 1.4493 3.77859 0
M  V30 9709 H 936.697 0.673795 3.05252 0
M  V30 9710 H 935.917 3.08604 2.4527 0
M  V30 9711 H 937.205 3.67551 3.51829 0
M  V30 9712 H 936.603 1.20829 5.52645 0
M  V30 9713 H 935.16 1.76524 6.27441 0
M  V30 9714 N 938.594 -0.753485 1.38421 0
M  V30 9715 C 939.544 -1.85788 1.32162 0
M  V30 9716 C 940.528 -1.59577 0.20588 0
M  V30 9717 O 941.72 -1.71396 0.44186 0
M  V30 9718 C 938.849 -3.23498 1.14909 0
M  V30 9719 C 937.935 -3.556 2.31105 0
M  V30 9720 N 938.326 -3.58759 3.56547 0
M  V30 9721 C 936.624 -3.85866 2.23659 0
M  V30 9722 C 937.325 -3.8813 4.33278 0
M  V30 9723 N 936.301 -4.04966 3.62635 0
M  V30 9724 H 940.103 -1.86509 2.27138 0
M  V30 9725 H 937.617 -0.950843 1.31654 0
M  V30 9726 H 939.614 -4.02531 1.08509 0
M  V30 9727 H 938.274 -3.24029 0.20866 0
M  V30 9728 H 939.285 -3.40517 3.90216 0
M  V30 9729 H 935.962 -3.94112 1.37776 0
M  V30 9730 H 937.352 -3.97197 5.41926 0
M  V30 9731 N 940.072 -1.23292 -0.981677 0
M  V30 9732 C 941.3 -1.09088 -1.75805 0
M  V30 9733 C 941.715 0.357746 -1.8538 0
M  V30 9734 O 941.072 1.24751 -1.33205 0
M  V30 9735 C 941.123 -1.70885 -3.1856 0
M  V30 9736 O 940.844 -3.10082 -3.09484 0
M  V30 9737 C 942.345 -1.62106 -4.12597 0
M  V30 9738 H 939.565 -0.38184 -0.55176 0
M  V30 9739 H 942.109 -1.63116 -1.23342 0
M  V30 9740 H 940.264 -1.20893 -3.68054 0
M  V30 9741 H 940.678 -3.40039 -3.99342 0
M  V30 9742 H 942.152 -2.10049 -5.10474 0
M  V30 9743 H 942.629 -0.579642 -4.35358 0
M  V30 9744 H 943.235 -2.11457 -3.69007 0
M  V30 9745 N 941.55 1.18024 -1.04442 0
M  V30 9746 C 942.482 2.21294 -0.596799 0
M  V30 9747 C 943.495 1.59305 0.33552 0
M  V30 9748 O 944.684 1.7803 0.129443 0
M  V30 9749 C 941.784 3.38578 0.147648 0
M  V30 9750 C 940.957 4.30143 -0.793484 0
M  V30 9751 C 940.016 5.2612 -0.0916561 0
M  V30 9752 O 939.042 5.64586 -0.72331 0
M  V30 9753 N 940.244 5.68512 1.17364 0
M  V30 9754 H 943.009 2.6032 -1.48504 0
M  V30 9755 H 940.57 1.32847 -0.925374 0
M  V30 9756 H 942.562 3.99812 0.627098 0
M  V30 9757 H 941.132 2.98212 0.937466 0
M  V30 9758 H 940.352 3.66456 -1.45272 0
M  V30 9759 H 941.64 4.88216 -1.43258 0
M  V30 9760 H 941.038 5.39322 1.70729 0
M  V30 9761 H 939.595 6.31925 1.5973 0
M  V30 9762 N 943.028 0.824394 1.34319 0
M  V30 9763 C 944.274 0.413779 1.98534 0
M  V30 9764 C 944.607 -1.02089 1.65201 0
M  V30 9765 O 943.882 -1.71129 0.924402 0
M  V30 9766 C 944.165 0.61801 3.54757 0
M  V30 9767 C 944.018 2.0989 3.97827 0
M  V30 9768 C 945.337 0.0549041 4.40066 0
M  V30 9769 H 942.456 0.151815 0.721194 0
M  V30 9770 H 945.098 1.03723 1.5919 0
M  V30 9771 H 943.248 0.0873107 3.88402 0
M  V30 9772 H 944.92 2.69335 3.74508 0
M  V30 9773 H 943.163 2.58881 3.48085 0
M  V30 9774 H 943.834 2.1926 5.06586 0
M  V30 9775 H 946.31 0.508348 4.12983 0
M  V30 9776 H 945.186 0.227595 5.48428 0
M  V30 9777 H 945.447 -1.04025 4.29687 0
M  V30 9778 N 944.506 -1.46559 0.579492 0
M  V30 9779 C 945.436 -2.33059 -0.143437 0
M  V30 9780 C 946.417 -1.4515 -0.886868 0
M  V30 9781 O 947.602 -1.73973 -0.862961 0
M  V30 9782 C 944.732 -3.27364 -1.15973 0
M  V30 9783 C 943.686 -4.24689 -0.531348 0
M  V30 9784 C 943.012 -5.08479 -1.65388 0
M  V30 9785 C 944.312 -5.1961 0.529391 0
M  V30 9786 H 946.006 -2.93753 0.578762 0
M  V30 9787 H 943.552 -1.41256 0.279775 0
M  V30 9788 H 945.505 -3.86732 -1.67382 0
M  V30 9789 H 944.229 -2.64771 -1.91217 0
M  V30 9790 H 942.888 -3.6658 -0.0383749 0
M  V30 9791 H 942.536 -4.42273 -2.3959 0
M  V30 9792 H 942.236 -5.74387 -1.23909 0
M  V30 9793 H 943.76 -5.70709 -2.17079 0
M  V30 9794 H 945.174 -5.73212 0.100506 0
M  V30 9795 H 943.571 -5.93843 0.86432 0
M  V30 9796 H 944.641 -4.63737 1.4169 0
M  V30 9797 N 945.984 -0.3171 -1.54377 0
M  V30 9798 C 947.231 0.28741 -2.0045 0
M  V30 9799 C 947.559 1.52648 -1.20535 0
M  V30 9800 O 946.814 1.93775 -0.273831 0
M  V30 9801 C 947.113 0.672917 -3.51008 0
M  V30 9802 C 946.779 -0.466245 -4.48483 0
M  V30 9803 C 945.441 -0.778933 -4.74854 0
M  V30 9804 C 947.793 -1.23176 -5.06436 0
M  V30 9805 C 945.121 -1.85997 -5.56437 0
M  V30 9806 C 947.473 -2.30284 -5.89196 0
M  V30 9807 C 946.137 -2.62141 -6.13872 0
M  V30 9808 H 945.407 0.105171 -0.733499 0
M  V30 9809 H 948.054 -0.439538 -1.86388 0
M  V30 9810 H 946.359 1.48019 -3.62764 0
M  V30 9811 H 948.056 1.15209 -3.84094 0
M  V30 9812 H 944.646 -0.212449 -4.28073 0
M  V30 9813 H 948.83 -1.00344 -4.8605 0
M  V30 9814 H 944.086 -2.11134 -5.73788 0
M  V30 9815 H 948.26 -2.90048 -6.33123 0
M  V30 9816 H 945.887 -3.46037 -6.76877 0
M  V30 9817 N 947.462 1.57535 -0.0451378 0
M  V30 9818 C 948.711 1.91628 0.629415 0
M  V30 9819 C 949.024 0.924754 1.72359 0
M  V30 9820 O 950.23 1.15751 2.45589 0
M  V30 9821 C 948.686 3.40322 1.17084 0
M  V30 9822 C 948.294 4.47867 0.109101 0
M  V30 9823 C 950.038 3.83458 1.82099 0
M  V30 9824 C 947.945 5.87671 0.663072 0
M  V30 9825 H 946.875 0.715163 0.238868 0
M  V30 9826 H 949.526 1.83151 -0.113046 0
M  V30 9827 H 947.908 3.43783 1.96543 0
M  V30 9828 H 949.082 4.55988 -0.664201 0
M  V30 9829 H 947.397 4.14034 -0.443227 0
M  V30 9830 H 949.994 4.85273 2.2453 0
M  V30 9831 H 950.337 3.19379 2.67026 0
M  V30 9832 H 950.87 3.82488 1.09305 0
M  V30 9833 H 947.609 6.55332 -0.148423 0
M  V30 9834 H 947.129 5.83124 1.4045 0
M  V30 9835 H 948.808 6.36737 1.14785 0
M  V30 9836 N 948.94 -0.228186 1.55939 0
M  V30 9837 C 949.903 -1.26621 1.91049 0
M  V30 9838 C 950.903 -1.40141 0.788491 0
M  V30 9839 O 952.093 -1.3852 1.05631 0
M  V30 9840 C 949.225 -2.64108 2.15545 0
M  V30 9841 H 950.418 -0.966978 2.83883 0
M  V30 9842 H 947.971 -0.468313 1.49119 0
M  V30 9843 H 948.706 -2.99141 1.25241 0
M  V30 9844 H 948.491 -2.55673 2.97277 0
M  V30 9845 H 949.981 -3.39025 2.43827 0
M  V30 9846 N 950.418 -1.49637 -0.494624 0
M  V30 9847 C 951.365 -1.66776 -1.59545 0
M  V30 9848 C 952.335 -0.509159 -1.58104 0
M  V30 9849 O 953.52 -0.736949 -1.75993 0
M  V30 9850 C 950.66 -1.74624 -2.97658 0
M  V30 9851 C 949.773 -3.01831 -3.09067 0
M  V30 9852 C 948.908 -3.00619 -4.37952 0
M  V30 9853 C 947.947 -4.22378 -4.43016 0
M  V30 9854 N 947.084 -4.1904 -5.63339 0
M  V30 9855 H 951.924 -2.60767 -1.44238 0
M  V30 9856 H 949.461 -1.29286 -0.701673 0
M  V30 9857 H 951.419 -1.77156 -3.77719 0
M  V30 9858 H 950.049 -0.840936 -3.11654 0
M  V30 9859 H 949.101 -3.08881 -2.22029 0
M  V30 9860 H 950.413 -3.91823 -3.08669 0
M  V30 9861 H 949.567 -3.01749 -5.26339 0
M  V30 9862 H 948.306 -2.08416 -4.40924 0
M  V30 9863 H 947.311 -4.21485 -3.5303 0
M  V30 9864 H 948.536 -5.15781 -4.41755 0
M  V30 9865 H 946.482 -3.29677 -5.67141 0
M  V30 9866 H 946.399 -5.02774 -5.64583 0
M  V30 9867 H 947.667 -4.24281 -6.53916 0
M  V30 9868 N 951.896 0.746133 -1.38819 0
M  V30 9869 C 953.145 1.50085 -1.34749 0
M  V30 9870 C 953.458 1.95516 0.0574786 0
M  V30 9871 O 954.664 2.70601 0.22073 0
M  V30 9872 C 953.12 2.71141 -2.36665 0
M  V30 9873 C 952.728 2.32706 -3.82821 0
M  V30 9874 C 954.472 3.49005 -2.41652 0
M  V30 9875 C 952.379 3.50418 -4.76405 0
M  V30 9876 H 951.309 0.563563 -0.500912 0
M  V30 9877 H 953.96 0.814951 -1.6441 0
M  V30 9878 H 952.342 3.4175 -2.00058 0
M  V30 9879 H 953.516 1.69715 -4.28408 0
M  V30 9880 H 951.831 1.67959 -3.81023 0
M  V30 9881 H 954.428 4.36541 -3.08766 0
M  V30 9882 H 954.771 3.90687 -1.43769 0
M  V30 9883 H 955.304 2.85416 -2.77097 0
M  V30 9884 H 952.043 3.13795 -5.75511 0
M  V30 9885 H 951.563 4.12426 -4.35505 0
M  V30 9886 H 953.242 4.16901 -4.94775 0
M  V30 9887 N 953.375 1.23811 0.975125 0
M  V30 9888 C 954.603 1.10019 1.75224 0
M  V30 9889 C 955.018 -0.34791 1.85567 0
M  V30 9890 O 954.375 -1.24043 1.33864 0
M  V30 9891 C 954.426 1.72572 3.1765 0
M  V30 9892 O 954.147 3.11719 3.07836 0
M  V30 9893 C 955.648 1.64292 4.11732 0
M  V30 9894 H 952.868 0.38476 0.549728 0
M  V30 9895 H 955.412 1.63768 1.22476 0
M  V30 9896 H 953.567 1.22843 3.67408 0
M  V30 9897 H 953.981 3.42152 3.97533 0
M  V30 9898 H 955.455 2.12754 5.09352 0
M  V30 9899 H 955.932 0.602722 4.35045 0
M  V30 9900 H 956.538 2.13411 3.6788 0
M  V30 9901 N 954.853 -1.17469 1.05066 0
M  V30 9902 C 956.264 -1.69334 0.786304 0
M  V30 9903 C 956.615 -1.83604 -0.691671 0
M  V30 9904 O 955.74 -1.52269 -1.53763 0
M  V30 9905 C 956.335 -3.07572 1.42074 0
M  V30 9906 C 954.894 -3.56609 1.20446 0
M  V30 9907 C 954.041 -2.329 1.50508 0
M  V30 9908 H 956.992 -1.02003 1.21577 0
M  V30 9909 H 957.013 -3.71352 0.829334 0
M  V30 9910 H 956.525 -2.97154 2.49642 0
M  V30 9911 H 954.626 -3.72306 0.147968 0
M  V30 9912 H 954.739 -4.39446 1.90852 0
M  V30 9913 H 953.103 -2.37305 0.925124 0
M  V30 9914 H 953.886 -2.25093 2.59207 0
M  V30 9915 N 956.331 -0.831506 -1.3388 0
M  V30 9916 C 957.279 -0.247896 -2.31275 0
M  V30 9917 C 958.273 0.616083 -1.578 0
M  V30 9918 O 959.479 0.506465 -1.72728 0
M  V30 9919 H 955.854 -0.0614293 -0.749487 0
M  V30 9920 H 957.825 -1.08401 -2.78014 0
M  V30 9921 C 956.574 0.568434 -3.43022 0
M  V30 9922 H 955.897 -0.0870654 -3.99705 0
M  V30 9923 H 957.337 0.942751 -4.13386 0
M  V30 9924 C 955.796 1.74431 -2.88228 0
M  V30 9925 O 956.326 2.84278 -2.83811 0
M  V30 9926 N 954.532 1.56382 -2.44935 0
M  V30 9927 H 954.079 0.670255 -2.48727 0
M  V30 9928 H 954.037 2.35208 -2.08625 0
M  V30 9929 N 957.809 1.4625 -0.587256 0
M  V30 9930 C 958.757 2.32076 0.156108 0
M  V30 9931 C 959.751 1.44756 0.879887 0
M  V30 9932 O 960.957 1.61356 0.797759 0
M  V30 9933 H 957.332 0.748808 0.0692098 0
M  V30 9934 H 959.303 2.9258 -0.586497 0
M  V30 9935 C 958.052 3.28008 1.15352 0
M  V30 9936 H 957.375 3.9518 0.60601 0
M  V30 9937 H 958.815 3.90832 1.64396 0
M  V30 9938 C 957.274 2.53691 2.21681 0
M  V30 9939 O 957.804 2.30329 3.29107 0
M  V30 9940 N 956.01 2.14174 1.96412 0
M  V30 9941 H 955.557 2.33374 1.09061 0
M  V30 9942 H 955.515 1.6477 2.67765 0
M  V30 9943 N 959.287 0.325282 1.54207 0
M  V30 9944 C 960.235 -0.5554 2.25872 0
M  V30 9945 C 961.229 -1.11714 1.27344 0
M  V30 9946 O 962.435 -1.06498 1.45115 0
M  V30 9947 H 958.81 -0.19776 0.725531 0
M  V30 9948 H 960.781 0.0712858 2.98315 0
M  V30 9949 C 959.53 -1.70379 3.03095 0
M  V30 9950 H 958.853 -1.2808 3.78729 0
M  V30 9951 H 960.293 -2.29556 3.56483 0
M  V30 9952 C 958.752 -2.62242 2.11496 0
M  V30 9953 O 959.282 -3.64003 1.69895 0
M  V30 9954 N 957.488 -2.30515 1.7695 0
M  V30 9955 H 957.035 -1.47805 2.10978 0
M  V30 9956 H 956.993 -2.92241 1.15942 0
M  V30 9957 N 960.765 -1.57509 0.0534917 0
M  V30 9958 C 962.013 -1.92402 -0.618548 0
M  V30 9959 C 962.334 -0.93273 -1.71246 0
M  V30 9960 O 961.604 0.0220495 -1.95888 0
M  V30 9961 H 960.184 -0.710233 -0.23147 0
M  V30 9962 H 962.846 -1.94606 0.10704 0
M  V30 9963 H 961.942 -2.93704 -1.05566 0
M  V30 9964 N 962.243 0.219913 -1.56058 0
M  V30 9965 C 963.471 0.960915 -1.83232 0
M  V30 9966 C 963.886 1.77878 -0.632828 0
M  V30 9967 O 963.243 1.78093 0.398624 0
M  V30 9968 C 963.294 1.87716 -3.08942 0
M  V30 9969 O 963.015 1.09235 -4.24263 0
M  V30 9970 C 964.516 2.73192 -3.49115 0
M  V30 9971 H 961.736 0.281546 -0.609075 0
M  V30 9972 H 964.28 0.234648 -2.03149 0
M  V30 9973 H 962.435 2.55736 -2.90995 0
M  V30 9974 H 962.849 1.71446 -4.95688 0
M  V30 9975 H 964.323 3.33181 -4.40107 0
M  V30 9976 H 964.8 3.45668 -2.70943 0
M  V30 9977 H 965.406 2.10583 -3.69506 0
M  V30 9978 N 963.721 1.49897 0.486681 0
M  V30 9979 C 964.951 1.63599 1.2617 0
M  V30 9980 C 965.359 0.312365 1.86604 0
M  V30 9981 O 964.702 -0.713911 1.6926 0
M  V30 9982 C 964.764 2.65736 2.42125 0
M  V30 9983 C 964.428 4.09711 2.0245 0
M  V30 9984 C 965.425 4.9607 1.55596 0
M  V30 9985 C 963.11 4.55534 2.11647 0
M  V30 9986 C 965.104 6.26295 1.18462 0
M  V30 9987 C 962.791 5.85768 1.74124 0
M  V30 9988 C 963.789 6.70973 1.27608 0
M  V30 9989 O 963.477 7.98778 0.905991 0
M  V30 9990 H 963.209 0.55333 0.388332 0
M  V30 9991 H 965.763 1.96768 0.589195 0
M  V30 9992 H 963.993 2.27778 3.12497 0
M  V30 9993 H 965.682 2.68819 3.04123 0
M  V30 9994 H 966.448 4.61891 1.47925 0
M  V30 9995 H 962.327 3.8937 2.46803 0
M  V30 9996 H 965.871 6.92754 0.820839 0
M  V30 9997 H 961.768 6.19473 1.8145 0
M  V30 9998 H 962.536 8.11914 1.03621 0
M  V30 9999 N 965.199 -0.738761 1.39212 0
M  V30 10000 C 966.162 -1.83441 1.37412 0
M  V30 10001 C 967.162 -1.58484 0.271908 0
M  V30 10002 O 968.352 -1.65954 0.529609 0
M  V30 10003 C 965.484 -3.21167 1.143 0
M  V30 10004 H 966.677 -1.86441 2.34904 0
M  V30 10005 H 964.23 -0.942023 1.24722 0
M  V30 10006 H 964.965 -3.23829 0.174756 0
M  V30 10007 H 964.75 -3.40678 1.94116 0
M  V30 10008 H 966.24 -4.01231 1.15773 0
M  V30 10009 N 966.677 -1.24326 -0.968545 0
M  V30 10010 C 967.917 -1.09434 -1.72637 0
M  V30 10011 C 968.281 0.360781 -1.8858 0
M  V30 10012 O 969.482 0.631188 -2.61284 0
M  V30 10013 C 967.753 -1.81285 -3.08011 0
M  V30 10014 S 969.312 -1.82113 -3.99225 0
M  V30 10015 H 966.13 -0.391409 -0.593565 0
M  V30 10016 H 968.732 -1.57643 -1.15624 0
M  V30 10017 H 967.436 -2.86274 -2.94067 0
M  V30 10018 H 966.967 -1.33405 -3.7009 0
M  V30 10019 H 968.982 -0.888196 -4.88186 0
M  V30 10020 N 968.156 1.1691 -1.05688 0
M  V30 10021 C 969.403 1.87292 -0.76993 0
M  V30 10022 C 969.731 1.81339 0.703295 0
M  V30 10023 O 968.986 1.21959 1.5305 0
M  V30 10024 C 969.285 3.36578 -1.20207 0
M  V30 10025 C 968.951 3.62732 -2.67836 0
M  V30 10026 C 967.613 3.69579 -3.08163 0
M  V30 10027 C 969.965 3.73803 -3.63209 0
M  V30 10028 C 967.293 3.84992 -4.42717 0
M  V30 10029 C 969.645 3.90735 -4.97503 0
M  V30 10030 C 968.309 3.95823 -5.37476 0
M  V30 10031 H 967.579 0.68535 -0.281737 0
M  V30 10032 H 970.226 1.38274 -1.32486 0
M  V30 10033 H 968.531 3.87687 -0.566222 0
M  V30 10034 H 970.228 3.89409 -0.957183 0
M  V30 10035 H 966.818 3.58031 -2.35609 0
M  V30 10036 H 971.002 3.67829 -3.3319 0
M  V30 10037 H 966.258 3.87181 -4.73182 0
M  V30 10038 H 970.432 3.98243 -5.71293 0
M  V30 10039 H 968.059 4.07518 -6.41742 0
M  V30 10040 N 969.634 0.838594 1.33437 0
M  V30 10041 C 970.88 0.434813 1.98084 0
M  V30 10042 C 971.213 -1.00331 1.66275 0
M  V30 10043 O 970.488 -1.70139 0.942501 0
M  V30 10044 C 970.771 0.655602 3.54082 0
M  V30 10045 C 970.624 2.14097 3.95578 0
M  V30 10046 C 971.943 0.101576 4.39983 0
M  V30 10047 H 969.062 0.159456 0.719544 0
M  V30 10048 H 971.704 1.05406 1.58081 0
M  V30 10049 H 969.854 0.128501 3.88287 0
M  V30 10050 H 971.526 2.73292 3.71631 0
M  V30 10051 H 969.769 2.62558 3.4532 0
M  V30 10052 H 970.44 2.24621 5.04231 0
M  V30 10053 H 972.916 0.552122 4.12421 0
M  V30 10054 H 971.792 0.28575 5.48156 0
M  V30 10055 H 972.053 -0.994616 4.30767 0
M  V30 10056 N 971.112 -1.45937 0.595003 0
M  V30 10057 C 972.337 -2.07207 0.0894416 0
M  V30 10058 C 972.762 -1.43884 -1.21157 0
M  V30 10059 O 972.12 -0.526998 -1.73472 0
M  V30 10060 C 972.168 -3.60565 -0.0499828 0
M  V30 10061 O 971.272 -3.97364 -1.10342 0
M  V30 10062 H 970.613 -0.660471 0.0683627 0
M  V30 10063 H 973.143 -1.87386 0.82144 0
M  V30 10064 H 973.153 -4.0722 -0.252234 0
M  V30 10065 H 971.828 -4.06044 0.90006 0
M  V30 10066 H 970.405 -3.62401 -0.878645 0
M  V30 10067 N 972.59 -0.333456 -1.54032 0
M  V30 10068 C 973.538 0.543414 -2.26163 0
M  V30 10069 C 974.532 1.11037 -1.27934 0
M  V30 10070 O 975.738 1.05727 -1.45677 0
M  V30 10071 H 972.113 0.19391 -0.726569 0
M  V30 10072 H 974.084 -0.0871052 -2.98273 0
M  V30 10073 C 972.833 1.68769 -3.03994 0
M  V30 10074 H 972.156 1.26069 -3.79403 0
M  V30 10075 H 973.596 2.27662 -3.57695 0
M  V30 10076 C 972.055 2.61117 -2.12884 0
M  V30 10077 O 972.585 3.63097 -1.71823 0
M  V30 10078 N 970.791 2.29573 -1.7817 0
M  V30 10079 H 970.338 1.46684 -2.11759 0
M  V30 10080 H 970.296 2.91622 -1.1749 0
M  V30 10081 N 974.068 1.57479 -0.061844 0
M  V30 10082 C 974.998 2.15181 0.9066 0
M  V30 10083 C 975.979 1.07624 1.31724 0
M  V30 10084 O 977.164 1.35614 1.39006 0
M  V30 10085 C 974.294 2.70542 2.17771 0
M  V30 10086 C 973.248 3.83178 1.9068 0
M  V30 10087 C 972.574 4.25099 3.24337 0
M  V30 10088 C 973.874 5.07853 1.21994 0
M  V30 10089 H 975.568 2.96355 0.42594 0
M  V30 10090 H 973.114 1.42556 0.203435 0
M  V30 10091 H 975.067 3.09552 2.85929 0
M  V30 10092 H 973.791 1.86575 2.68062 0
M  V30 10093 H 972.45 3.44656 1.24931 0
M  V30 10094 H 972.098 3.38069 3.72449 0
M  V30 10095 H 971.798 5.01021 3.07005 0
M  V30 10096 H 973.322 4.66718 3.93709 0
M  V30 10097 H 974.736 5.44242 1.80204 0
M  V30 10098 H 973.133 5.88987 1.14954 0
M  V30 10099 H 974.203 4.84497 0.197536 0
M  V30 10100 N 975.546 -0.211634 1.56173 0
M  V30 10101 C 976.509 -1.24588 1.92381 0
M  V30 10102 C 977.509 -1.39297 0.803311 0
M  V30 10103 O 978.699 -1.37392 1.07094 0
M  V30 10104 C 975.831 -2.61807 2.18335 0
M  V30 10105 H 977.024 -0.936814 2.84893 0
M  V30 10106 H 974.577 -0.452471 1.49607 0
M  V30 10107 H 975.312 -2.97795 1.28407 0
M  V30 10108 H 975.097 -2.52506 2.99972 0
M  V30 10109 H 976.587 -3.3642 2.4741 0
M  V30 10110 N 977.024 -1.50153 -0.478725 0
M  V30 10111 C 978.252 -1.64505 -1.25482 0
M  V30 10112 C 978.667 -0.325295 -1.85977 0
M  V30 10113 O 978.024 0.691885 -1.68876 0
M  V30 10114 C 978.075 -2.73052 -2.36906 0
M  V30 10115 O 977.796 -3.99911 -1.78894 0
M  V30 10116 C 979.297 -2.98309 -3.27912 0
M  V30 10117 H 976.517 -0.55318 -0.379781 0
M  V30 10118 H 979.061 -1.96329 -0.57229 0
M  V30 10119 H 977.216 -2.43944 -3.00949 0
M  V30 10120 H 977.63 -4.5988 -2.52211 0
M  V30 10121 H 979.104 -3.77942 -4.02323 0
M  V30 10122 H 979.581 -2.09082 -3.8624 0
M  V30 10123 H 980.187 -3.2892 -2.69614 0
M  V30 10124 N 978.502 0.731368 -1.39602 0
M  V30 10125 C 979.75 1.48805 -1.36753 0
M  V30 10126 C 980.071 1.94969 0.034676 0
M  V30 10127 O 979.341 1.69243 0.986591 0
M  V30 10128 H 977.921 0.55203 -0.503261 0
M  V30 10129 H 980.583 0.868013 -1.74504 0
M  V30 10130 H 979.679 2.36844 -2.03252 0
M  V30 10131 N 979.98 1.24838 0.961938 0
M  V30 10132 C 981.396 1.01502 1.23165 0
M  V30 10133 C 981.596 -0.272651 1.99647 0
M  V30 10134 O 980.652 -0.987297 2.32398 0
M  V30 10135 C 981.965 2.23366 2.01316 0
M  V30 10136 C 983.513 2.28051 2.14387 0
M  V30 10137 C 983.988 3.49552 2.95935 0
M  V30 10138 N 985.479 3.49904 3.03515 0
M  V30 10139 C 986.214 4.40577 3.66987 0
M  V30 10140 N 985.71 5.41512 4.3213 0
M  V30 10141 N 987.503 4.28275 3.64056 0
M  V30 10142 H 979.654 2.07576 0.450086 0
M  V30 10143 H 981.917 0.911205 0.261551 0
M  V30 10144 H 981.623 3.16913 1.5251 0
M  V30 10145 H 981.497 2.25949 3.02038 0
M  V30 10146 H 983.884 1.35032 2.62393 0
M  V30 10147 H 983.965 2.29491 1.12994 0
M  V30 10148 H 983.609 4.42889 2.4862 0
M  V30 10149 H 983.539 3.45357 3.97538 0
M  V30 10150 H 986.03 2.76885 2.57183 0
M  V30 10151 H 986.343 6.06924 4.78396 0
M  V30 10152 H 984.688 5.45393 4.3078 0
M  V30 10153 H 987.879 3.48653 3.12344 0
M  V30 10154 H 988.052 4.99138 4.13237 0
M  V30 10155 N 981.458 -1.16348 1.06306 0
M  V30 10156 C 982.406 -2.22799 0.668087 0
M  V30 10157 C 983.4 -1.66426 -0.316051 0
M  V30 10158 O 984.606 -1.79089 -0.180902 0
M  V30 10159 H 980.981 -0.725487 0.19792 0
M  V30 10160 H 982.952 -2.53401 1.57577 0
M  V30 10161 C 981.701 -3.47628 0.0706797 0
M  V30 10162 H 981.024 -3.9132 0.819064 0
M  V30 10163 H 982.464 -4.23666 -0.16816 0
M  V30 10164 C 980.923 -3.15343 -1.18577 0
M  V30 10165 O 981.453 -3.31158 -2.27371 0
M  V30 10166 N 979.659 -2.69472 -1.08779 0
M  V30 10167 H 979.206 -2.56803 -0.202447 0
M  V30 10168 H 979.164 -2.48244 -1.92931 0
M  V30 10169 N 982.937 -0.845659 -1.3299 0
M  V30 10170 C 983.885 -0.272412 -2.30999 0
M  V30 10171 C 984.879 0.599311 -1.58444 0
M  V30 10172 O 986.085 0.488117 -1.73255 0
M  V30 10173 H 982.46 -0.0693751 -0.748793 0
M  V30 10174 H 984.431 -1.11343 -2.76849 0
M  V30 10175 C 983.18 0.532019 -3.43606 0
M  V30 10176 H 982.503 -0.129455 -3.9959 0
M  V30 10177 H 983.943 0.898853 -4.14363 0
M  V30 10178 C 982.402 1.71364 -2.90062 0
M  V30 10179 O 982.932 2.81252 -2.8681 0
M  V30 10180 N 981.138 1.53775 -2.4658 0
M  V30 10181 H 980.685 0.643836 -2.49424 0
M  V30 10182 H 980.643 2.32982 -2.11108 0
M  V30 10183 N 984.415 1.45619 -0.602734 0
M  V30 10184 C 985.64 2.07157 -0.100429 0
M  V30 10185 C 986.065 1.44524 1.20393 0
M  V30 10186 O 985.423 0.536191 1.7319 0
M  V30 10187 C 985.471 3.60587 0.0308604 0
M  V30 10188 O 984.575 3.97944 1.08234 0
M  V30 10189 H 983.916 0.6601 -0.0718643 0
M  V30 10190 H 986.446 1.86948 -0.831366 0
M  V30 10191 H 986.456 4.07348 0.230634 0
M  V30 10192 H 985.131 4.05561 -0.921581 0
M  V30 10193 H 983.708 3.62862 0.859414 0
M  V30 10194 N 985.893 0.34162 1.53853 0
M  V30 10195 C 987.142 -0.256475 2.00063 0
M  V30 10196 C 987.455 -1.51811 1.23341 0
M  V30 10197 O 988.661 -2.19332 1.60017 0
M  V30 10198 C 987.117 -0.507567 3.56303 0
M  V30 10199 C 986.725 0.738052 4.41879 0
M  V30 10200 C 988.469 -1.06463 4.10933 0
M  V30 10201 C 986.376 0.457865 5.89625 0
M  V30 10202 H 985.306 -0.0996143 0.747391 0
M  V30 10203 H 987.957 0.456649 1.77727 0
M  V30 10204 H 986.339 -1.28134 3.74697 0
M  V30 10205 H 987.513 1.51278 4.3526 0
M  V30 10206 H 985.828 1.21661 3.98231 0
M  V30 10207 H 988.425 -1.28918 5.18926 0
M  V30 10208 H 988.768 -2.01956 3.64032 0
M  V30 10209 H 989.301 -0.351601 3.96243 0
M  V30 10210 H 986.04 1.38247 6.40756 0
M  V30 10211 H 985.56 -0.278818 5.99152 0
M  V30 10212 H 987.239 0.0743914 6.46957 0
M  V30 10213 N 987.371 -1.57444 0.0701946 0
M  V30 10214 C 988.617 -1.93716 -0.600178 0
M  V30 10215 C 988.95 -0.950329 -1.69359 0
M  V30 10216 O 988.225 0.0207123 -1.94489 0
M  V30 10217 C 988.508 -3.40266 -1.17861 0
M  V30 10218 C 988.361 -4.49706 -0.0919575 0
M  V30 10219 C 989.68 -3.87599 -2.08459 0
M  V30 10220 H 986.799 -0.704421 -0.216704 0
M  V30 10221 H 989.441 -1.89514 0.135838 0
M  V30 10222 H 987.591 -3.43977 -1.80587 0
M  V30 10223 H 989.263 -4.58116 0.541031 0
M  V30 10224 H 987.506 -4.29937 0.577639 0
M  V30 10225 H 988.177 -5.49381 -0.537048 0
M  V30 10226 H 990.653 -3.85883 -1.5567 0
M  V30 10227 H 989.529 -4.90755 -2.45867 0
M  V30 10228 H 989.79 -3.25448 -2.99226 0
M  V30 10229 N 988.849 0.203349 -1.56283 0
M  V30 10230 C 989.796 1.25205 -1.93888 0
M  V30 10231 C 990.766 1.45654 -0.798376 0
M  V30 10232 O 991.951 1.58924 -1.05583 0
M  V30 10233 C 989.091 2.59355 -2.27659 0
M  V30 10234 C 988.204 2.46553 -3.54733 0
M  V30 10235 C 987.339 3.73351 -3.77865 0
M  V30 10236 C 986.378 3.55347 -4.98392 0
M  V30 10237 N 985.515 4.74137 -5.17821 0
M  V30 10238 H 990.355 0.924356 -2.83301 0
M  V30 10239 H 987.892 0.445082 -1.40205 0
M  V30 10240 H 989.85 3.375 -2.45254 0
M  V30 10241 H 988.48 2.90184 -1.41396 0
M  V30 10242 H 987.532 1.59749 -3.45231 0
M  V30 10243 H 988.844 2.2918 -4.43033 0
M  V30 10244 H 987.998 4.59937 -3.95655 0
M  V30 10245 H 986.737 3.9367 -2.8788 0
M  V30 10246 H 985.742 2.67146 -4.80534 0
M  V30 10247 H 986.967 3.36482 -5.89879 0
M  V30 10248 H 984.913 4.94735 -4.30782 0
M  V30 10249 H 984.83 4.59558 -6.00285 0
M  V30 10250 H 986.098 5.62098 -5.40061 0
M  V30 10251 N 990.327 1.50405 0.470755 0
M  V30 10252 C 991.552 1.65442 1.25075 0
M  V30 10253 C 991.977 0.337612 1.85045 0
M  V30 10254 O 991.335 -0.698555 1.67302 0
M  V30 10255 C 991.383 2.74793 2.33498 0
M  V30 10256 O 990.487 2.36069 3.3815 0
M  V30 10257 H 989.828 0.552728 0.367951 0
M  V30 10258 H 992.358 1.96782 0.560177 0
M  V30 10259 H 992.368 2.97879 2.78804 0
M  V30 10260 H 991.043 3.70363 1.8922 0
M  V30 10261 H 989.62 2.2343 2.98552 0
M  V30 10262 N 991.805 -0.723954 1.39988 0
M  V30 10263 C 993.054 -1.47922 1.3712 0
M  V30 10264 C 993.367 -1.95582 -0.0263665 0
M  V30 10265 O 994.573 -2.70918 -0.177652 0
M  V30 10266 C 993.029 -2.67342 2.40949 0
M  V30 10267 C 992.637 -2.26586 3.86475 0
M  V30 10268 C 994.381 -3.45116 2.47174 0
M  V30 10269 C 992.288 -3.42794 4.81919 0
M  V30 10270 H 991.218 -0.555522 0.509815 0
M  V30 10271 H 993.869 -0.788692 1.65686 0
M  V30 10272 H 992.251 -3.38524 2.0547 0
M  V30 10273 H 993.425 -1.62878 4.31054 0
M  V30 10274 H 991.74 -1.61876 3.83647 0
M  V30 10275 H 994.337 -4.31573 3.15672 0
M  V30 10276 H 994.68 -3.8835 1.49966 0
M  V30 10277 H 995.213 -2.80971 2.81602 0
M  V30 10278 H 991.952 -3.046 5.8043 0
M  V30 10279 H 991.472 -4.05445 4.42012 0
M  V30 10280 H 993.151 -4.08977 5.01345 0
M  V30 10281 N 993.283 -1.25346 -0.955304 0
M  V30 10282 C 994.511 -1.12793 -1.73451 0
M  V30 10283 C 994.926 0.318344 -1.86097 0
M  V30 10284 O 994.283 1.21897 -1.35821 0
M  V30 10285 C 994.334 -1.77603 -3.14864 0
M  V30 10286 O 994.055 -3.16577 -3.02837 0
M  V30 10287 C 995.556 -1.70821 -4.09066 0
M  V30 10288 H 992.776 -0.393457 -0.543537 0
M  V30 10289 H 995.32 -1.65696 -1.19855 0
M  V30 10290 H 993.475 -1.28673 -3.65407 0
M  V30 10291 H 993.889 -3.48433 -3.92039 0
M  V30 10292 H 995.363 -2.2083 -5.05903 0
M  V30 10293 H 995.84 -0.671858 -4.34031 0
M  V30 10294 H 996.446 -2.19237 -3.64438 0
M  V30 10295 N 994.761 1.15782 -1.06922 0
M  V30 10296 C 996.007 1.86741 -0.790922 0
M  V30 10297 C 996.34 1.81863 0.681149 0
M  V30 10298 O 995.615 1.23871 1.49954 0
M  V30 10299 C 995.898 3.36038 -1.29422 0
M  V30 10300 C 995.751 3.49573 -2.83052 0
M  V30 10301 C 997.07 4.30647 -0.907239 0
M  V30 10302 H 994.189 0.678064 -0.288787 0
M  V30 10303 H 996.831 1.36054 -1.32624 0
M  V30 10304 H 994.981 3.79336 -0.838843 0
M  V30 10305 H 996.653 3.1517 -3.36847 0
M  V30 10306 H 994.896 2.91275 -3.21467 0
M  V30 10307 H 995.567 4.5445 -3.13335 0
M  V30 10308 H 998.043 3.95286 -1.29956 0
M  V30 10309 H 996.919 5.33604 -1.28679 0
M  V30 10310 H 997.18 4.41703 0.187251 0
M  V30 10311 N 996.239 0.8527 1.3254 0
M  V30 10312 C 997.464 0.468157 2.02047 0
M  V30 10313 C 997.889 -0.926967 1.63673 0
M  V30 10314 O 997.247 -1.60855 0.836378 0
M  V30 10315 C 997.295 0.612519 3.5536 0
M  V30 10316 O 996.399 -0.355506 4.10865 0
M  V30 10317 H 995.74 0.188401 0.636711 0
M  V30 10318 H 998.27 1.15135 1.6913 0
M  V30 10319 H 998.28 0.499315 4.04933 0
M  V30 10320 H 996.955 1.62988 3.82632 0
M  V30 10321 H 995.532 -0.198703 3.7237 0
M  V30 10322 N 997.718 -1.45297 0.610449 0
M  V30 10323 C 998.681 -2.28995 -0.0968194 0
M  V30 10324 C 999.681 -1.39923 -0.792353 0
M  V30 10325 O 1000.87 -1.62014 -0.64008 0
M  V30 10326 C 998.003 -3.21013 -1.14731 0
M  V30 10327 H 999.196 -2.93012 0.639082 0
M  V30 10328 H 996.749 -1.51867 0.369624 0
M  V30 10329 H 997.484 -2.61803 -1.91388 0
M  V30 10330 H 997.269 -3.86628 -0.652753 0
M  V30 10331 H 998.759 -3.8394 -1.64256 0
M  V30 10332 N 999.196 -0.349774 -1.5367 0
M  V30 10333 C 1000.42 0.248692 -2.05904 0
M  V30 10334 C 1000.85 1.42942 -1.22267 0
M  V30 10335 O 1000.2 1.79732 -0.237899 0
M  V30 10336 C 1000.25 0.635639 -3.54953 0
M  V30 10337 O 999.356 1.7349 -3.74132 0
M  V30 10338 H 998.697 0.0399477 -0.662797 0
M  V30 10339 H 1001.23 -0.505795 -1.9825 0
M  V30 10340 H 1001.24 0.911064 -3.97698 0
M  V30 10341 H 999.912 -0.227805 -4.15276 0
M  V30 10342 H 998.489 1.45626 -3.43289 0
M  V30 10343 N 1000.67 1.57404 -0.0785433 0
M  V30 10344 C 1001.92 1.93361 0.58786 0
M  V30 10345 C 1002.24 0.959856 1.6974 0
M  V30 10346 O 1001.51 0.0091173 1.95898 0
M  V30 10347 H 1000.09 0.713825 0.220141 0
M  V30 10348 H 1002.75 1.94411 -0.137986 0
M  V30 10349 H 1001.85 2.95346 1.00881 0
M  V30 10350 N 1002.15 -0.195058 1.56388 0
M  V30 10351 C 1003.38 -0.931642 1.84738 0
M  V30 10352 C 1003.79 -1.76849 0.661046 0
M  V30 10353 O 1003.15 -1.78705 -0.370241 0
M  V30 10354 C 1003.2 -1.82777 3.11889 0
M  V30 10355 O 1002.92 -1.02471 4.25948 0
M  V30 10356 C 1004.42 -2.67603 3.53417 0
M  V30 10357 H 1001.64 -0.271821 0.613477 0
M  V30 10358 H 1004.19 -0.202299 2.03497 0
M  V30 10359 H 1002.34 -2.51074 2.95027 0
M  V30 10360 H 1002.76 -1.63539 4.98353 0
M  V30 10361 H 1004.23 -3.26138 4.45352 0
M  V30 10362 H 1004.71 -3.41314 2.76408 0
M  V30 10363 H 1005.31 -2.04678 3.7281 0
M  V30 10364 N 1003.63 -1.50653 -0.462772 0
M  V30 10365 C 1004.85 -1.66103 -1.24196 0
M  V30 10366 C 1005.28 -0.347421 -1.84864 0
M  V30 10367 O 1004.64 0.689673 -1.6767 0
M  V30 10368 C 1004.69 -2.76027 -2.32037 0
M  V30 10369 O 1003.79 -2.37859 -3.36893 0
M  V30 10370 H 1003.13 -0.554672 -0.365014 0
M  V30 10371 H 1005.66 -1.97076 -0.549734 0
M  V30 10372 H 1005.67 -2.99354 -2.77221 0
M  V30 10373 H 1004.35 -3.71361 -1.87253 0
M  V30 10374 H 1002.92 -2.2501 -2.97363 0
M  V30 10375 N 1005.11 0.71652 -1.4037 0
M  V30 10376 C 1006.52 1.29562 -1.34427 0
M  V30 10377 C 1006.87 1.96192 -0.0173106 0
M  V30 10378 O 1006 1.97488 0.884719 0
M  V30 10379 C 1006.59 2.35601 -2.4347 0
M  V30 10380 C 1005.15 2.89138 -2.4099 0
M  V30 10381 C 1004.3 1.62915 -2.24397 0
M  V30 10382 H 1007.25 0.512715 -1.5019 0
M  V30 10383 H 1007.27 3.16422 -2.11323 0
M  V30 10384 H 1006.78 1.87077 -3.40035 0
M  V30 10385 H 1004.88 3.41894 -1.4812 0
M  V30 10386 H 1004.99 3.40995 -3.3654 0
M  V30 10387 H 1003.36 1.87947 -1.71896 0
M  V30 10388 H 1004.14 1.16417 -3.22958 0
M  V30 10389 N 1006.59 1.25851 0.948643 0
M  V30 10390 C 1007.83 1.10735 1.69062 0
M  V30 10391 C 1008.16 -0.351257 1.9181 0
M  V30 10392 O 1007.43 -1.24867 1.50947 0
M  V30 10393 H 1006.01 0.406796 0.626519 0
M  V30 10394 H 1008.67 1.58066 1.14022 0
M  V30 10395 H 1007.76 1.62033 2.66743 0
M  V30 10396 N 1008.06 -1.15214 1.07534 0
M  V30 10397 C 1008.99 -2.2216 0.718837 0
M  V30 10398 C 1009.98 -1.6753 -0.29459 0
M  V30 10399 O 1011.16 -1.93481 -0.166931 0
M  V30 10400 C 1008.29 -3.471 0.117836 0
M  V30 10401 C 1007.24 -4.14701 1.05862 0
M  V30 10402 C 1006.57 -5.3374 0.320284 0
M  V30 10403 C 1007.87 -4.64254 2.39302 0
M  V30 10404 H 1009.56 -2.52237 1.61297 0
M  V30 10405 H 1007.11 -1.21239 0.776992 0
M  V30 10406 H 1009.06 -4.21156 -0.143519 0
M  V30 10407 H 1007.79 -3.16361 -0.811389 0
M  V30 10408 H 1006.45 -3.42589 1.30493 0
M  V30 10409 H 1006.09 -4.99257 -0.61246 0
M  V30 10410 H 1005.79 -5.79912 0.947381 0
M  V30 10411 H 1007.32 -6.10563 0.0667721 0
M  V30 10412 H 1008.73 -5.29827 2.18988 0
M  V30 10413 H 1007.13 -5.21095 2.97623 0
M  V30 10414 H 1008.2 -3.79793 3.01472 0
M  V30 10415 N 1009.54 -0.859717 -1.32086 0
M  V30 10416 C 1010.77 -0.478865 -2.01796 0
M  V30 10417 C 1011.19 0.918274 -1.64163 0
M  V30 10418 O 1010.55 1.60409 -0.844896 0
M  V30 10419 C 1010.6 -0.631356 -3.5503 0
M  V30 10420 O 1009.7 0.333712 -4.11048 0
M  V30 10421 H 1009.04 -0.191775 -0.635703 0
M  V30 10422 H 1011.57 -1.16031 -1.68517 0
M  V30 10423 H 1011.58 -0.520783 -4.04663 0
M  V30 10424 H 1010.26 -1.65015 -3.81763 0
M  V30 10425 H 1008.84 0.178953 -3.7247 0
M  V30 10426 N 1011.02 1.44971 -0.618145 0
M  V30 10427 C 1011.98 2.29044 0.0846739 0
M  V30 10428 C 1012.98 1.40341 0.784921 0
M  V30 10429 O 1014.17 1.62351 0.631479 0
M  V30 10430 C 1011.31 3.21617 1.13027 0
M  V30 10431 H 1012.5 2.92668 -0.654612 0
M  V30 10432 H 1010.05 1.51668 -0.377672 0
M  V30 10433 H 1010.79 2.62815 1.89997 0
M  V30 10434 H 1010.57 3.86969 0.63224 0
M  V30 10435 H 1012.06 3.84805 1.62218 0
M  V30 10436 N 1012.5 0.357919 1.53482 0
M  V30 10437 C 1013.75 -0.2337 2.00744 0
M  V30 10438 C 1014.07 -1.49908 1.2471 0
M  V30 10439 O 1013.34 -1.92597 0.358235 0
M  V30 10440 H 1011.92 -0.0893474 0.741637 0
M  V30 10441 H 1014.58 0.482388 1.88836 0
M  V30 10442 H 1013.68 -0.466073 3.086 0
M  V30 10443 N 1013.98 -1.5736 0.0868897 0
M  V30 10444 C 1014.94 -2.12436 -0.860439 0
M  V30 10445 C 1015.94 -1.05175 -1.21634 0
M  V30 10446 O 1017.13 -1.31098 -1.14713 0
M  V30 10447 C 1014.26 -2.63818 -2.159 0
M  V30 10448 H 1015.45 -2.97453 -0.382346 0
M  V30 10449 H 1013.01 -1.55458 -0.162009 0
M  V30 10450 H 1013.74 -1.82298 -2.68212 0
M  V30 10451 H 1013.53 -3.42234 -1.91359 0
M  V30 10452 H 1015.02 -3.06452 -2.83685 0
M  V30 10453 N 1015.45 0.186762 -1.56489 0
M  V30 10454 C 1016.68 0.921832 -1.85229 0
M  V30 10455 C 1017.1 1.76496 -0.670416 0
M  V30 10456 O 1016.45 1.78899 0.360758 0
M  V30 10457 C 1016.51 1.81121 -3.12854 0
M  V30 10458 O 1016.23 1.00211 -4.26485 0
M  V30 10459 C 1017.73 2.65725 -3.54831 0
M  V30 10460 H 1014.95 0.268563 -0.61491 0
M  V30 10461 H 1017.49 0.191505 -2.03601 0
M  V30 10462 H 1015.65 2.49506 -2.96354 0
M  V30 10463 H 1016.06 1.60893 -4.99213 0
M  V30 10464 H 1017.53 3.23771 -4.47075 0
M  V30 10465 H 1018.01 3.39843 -2.78215 0
M  V30 10466 H 1018.62 2.02698 -3.7389 0
M  V30 10467 N 1016.93 1.50896 0.454776 0
M  V30 10468 C 1018.18 1.6294 1.20741 0
M  V30 10469 C 1018.51 0.336339 1.91265 0
M  V30 10470 O 1017.79 -0.663153 1.82846 0
M  V30 10471 C 1018.07 2.82092 2.23822 0
M  V30 10472 C 1017.92 4.21326 1.57495 0
M  V30 10473 C 1019.24 2.96777 3.24979 0
M  V30 10474 H 1016.36 0.59302 0.437603 0
M  V30 10475 H 1019 1.83331 0.498959 0
M  V30 10476 H 1017.15 2.64837 2.84243 0
M  V30 10477 H 1018.82 4.50209 1.00546 0
M  V30 10478 H 1017.07 4.24829 0.877664 0
M  V30 10479 H 1017.74 5.00656 2.32482 0
M  V30 10480 H 1020.21 3.12627 2.74597 0
M  V30 10481 H 1019.09 3.81742 3.94416 0
M  V30 10482 H 1019.35 2.08091 3.90065 0
M  V30 10483 N 1018.41 -0.709066 1.40748 0
M  V30 10484 C 1019.66 -1.46611 1.39103 0
M  V30 10485 C 1019.98 -1.95 -0.00365366 0
M  V30 10486 O 1019.25 -1.70791 -0.959541 0
M  V30 10487 H 1017.83 -0.543954 0.511979 0
M  V30 10488 H 1020.49 -0.840141 1.75863 0
M  V30 10489 H 1019.59 -2.33581 2.06994 0
M  V30 10490 N 1019.89 -1.26353 -0.941956 0
M  V30 10491 C 1021.14 -1.11241 -1.68251 0
M  V30 10492 C 1021.45 0.344055 -1.9255 0
M  V30 10493 O 1022.66 0.615832 -2.64423 0
M  V30 10494 C 1021.11 -1.94269 -3.02965 0
M  V30 10495 C 1020.72 -3.44485 -2.86415 0
M  V30 10496 C 1022.47 -1.87764 -3.80716 0
M  V30 10497 C 1020.37 -4.19763 -4.16597 0
M  V30 10498 H 1019.3 -0.412694 -0.63103 0
M  V30 10499 H 1021.95 -1.50656 -1.04762 0
M  V30 10500 H 1020.34 -1.47687 -3.6743 0
M  V30 10501 H 1021.51 -3.9883 -2.30805 0
M  V30 10502 H 1019.82 -3.52218 -2.22107 0
M  V30 10503 H 1022.42 -2.41292 -4.77161 0
M  V30 10504 H 1022.76 -0.848195 -4.07568 0
M  V30 10505 H 1023.3 -2.32165 -3.23024 0
M  V30 10506 H 1020.04 -5.23173 -3.9493 0
M  V30 10507 H 1019.56 -3.70198 -4.71925 0
M  V30 10508 H 1021.24 -4.28168 -4.85058 0
M  V30 10509 N 1021.37 1.14642 -1.08144 0
M  V30 10510 C 1022.3 2.18656 -0.653066 0
M  V30 10511 C 1023.28 1.59137 0.333803 0
M  V30 10512 O 1024.46 1.86988 0.238305 0
M  V30 10513 C 1021.59 3.38677 0.0398337 0
M  V30 10514 C 1020.64 4.1675 -0.906755 0
M  V30 10515 S 1021.47 4.78103 -2.41201 0
M  V30 10516 C 1022.62 6.01483 -1.73115 0
M  V30 10517 H 1022.86 2.54654 -1.53423 0
M  V30 10518 H 1020.39 1.25731 -0.896162 0
M  V30 10519 H 1022.35 4.08206 0.43334 0
M  V30 10520 H 1021.01 3.01006 0.897457 0
M  V30 10521 H 1020.2 5.02649 -0.368795 0
M  V30 10522 H 1019.8 3.52809 -1.24103 0
M  V30 10523 H 1022.1 6.69353 -1.04752 0
M  V30 10524 H 1023.04 6.59863 -2.56878 0
M  V30 10525 H 1023.45 5.51474 -1.20566 0
M  V30 10526 N 1022.85 0.866709 1.31628 0
M  V30 10527 C 1024.09 0.472185 1.96095 0
M  V30 10528 C 1024.41 -0.979873 1.69286 0
M  V30 10529 O 1025.61 -1.48039 2.27589 0
M  V30 10530 C 1024.07 0.793468 3.51044 0
M  V30 10531 C 1023.68 2.26206 3.86697 0
M  V30 10532 C 1025.42 0.467255 4.21921 0
M  V30 10533 C 1023.33 2.52593 5.34743 0
M  V30 10534 H 1022.26 0.172846 0.733921 0
M  V30 10535 H 1024.91 1.05916 1.49847 0
M  V30 10536 H 1023.29 0.135783 3.95767 0
M  V30 10537 H 1024.47 2.96254 3.52945 0
M  V30 10538 H 1022.78 2.55399 3.28877 0
M  V30 10539 H 1025.38 0.641669 5.30836 0
M  V30 10540 H 1025.72 -0.592065 4.12068 0
M  V30 10541 H 1026.25 1.08134 3.82821 0
M  V30 10542 H 1022.99 3.57196 5.49628 0
M  V30 10543 H 1022.51 1.87136 5.6986 0
M  V30 10544 H 1024.19 2.37156 6.01968 0
M  V30 10545 N 1024.32 -1.44642 0.625825 0
M  V30 10546 C 1025.57 -2.01695 0.127948 0
M  V30 10547 C 1025.89 -1.49439 -1.25271 0
M  V30 10548 O 1025.16 -0.695873 -1.83124 0
M  V30 10549 H 1023.74 -0.745685 0.0443096 0
M  V30 10550 H 1026.4 -1.7721 0.811332 0
M  V30 10551 H 1025.5 -3.11966 0.0915933 0
M  V30 10552 N 1025.8 -0.366053 -1.5329 0
M  V30 10553 C 1027.05 0.223824 -2.01561 0
M  V30 10554 C 1027.38 1.48382 -1.25286 0
M  V30 10555 O 1026.66 1.91385 -0.34669 0
M  V30 10556 C 1026.94 0.5153 -3.56394 0
M  V30 10557 C 1026.79 -0.758357 -4.43361 0
M  V30 10558 C 1028.11 1.31568 -4.19974 0
M  V30 10559 H 1025.23 0.0798751 -0.732659 0
M  V30 10560 H 1027.87 -0.491038 -1.83545 0
M  V30 10561 H 1026.02 1.12429 -3.71876 0
M  V30 10562 H 1027.69 -1.39584 -4.39675 0
M  V30 10563 H 1025.94 -1.37862 -4.11311 0
M  V30 10564 H 1026.61 -0.509366 -5.49645 0
M  V30 10565 H 1029.08 0.800514 -4.08327 0
M  V30 10566 H 1027.96 1.48837 -5.28336 0
M  V30 10567 H 1028.22 2.32432 -3.76069 0
M  V30 10568 N 1027.28 1.57312 -0.0952337 0
M  V30 10569 C 1028.21 2.17056 0.860753 0
M  V30 10570 C 1029.19 1.10394 1.29411 0
M  V30 10571 O 1030.38 1.38532 1.36098 0
M  V30 10572 C 1027.51 2.751 2.11984 0
M  V30 10573 C 1026.46 3.87136 1.8251 0
M  V30 10574 C 1025.79 4.31883 3.15247 0
M  V30 10575 C 1027.09 5.10326 1.11194 0
M  V30 10576 H 1028.78 2.97192 0.362983 0
M  V30 10577 H 1026.33 1.42955 0.173151 0
M  V30 10578 H 1028.28 3.15547 2.79299 0
M  V30 10579 H 1027 1.92219 2.64044 0
M  V30 10580 H 1025.66 3.47229 1.17592 0
M  V30 10581 H 1025.31 3.45893 3.65195 0
M  V30 10582 H 1025.01 5.0742 2.96309 0
M  V30 10583 H 1026.53 4.74964 3.83721 0
M  V30 10584 H 1027.95 5.47942 1.6862 0
M  V30 10585 H 1026.34 5.91293 1.02435 0
M  V30 10586 H 1027.41 4.84807 0.0947227 0
M  V30 10587 N 1028.76 -0.17846 1.56586 0
M  V30 10588 C 1030 -0.897562 1.81856 0
M  V30 10589 C 1030.34 -1.82204 0.671955 0
M  V30 10590 O 1029.61 -1.91739 -0.326535 0
M  V30 10591 C 1029.89 -1.69942 3.17477 0
M  V30 10592 C 1029.75 -0.798545 4.42655 0
M  V30 10593 C 1031.07 -2.66861 3.49962 0
M  V30 10594 H 1028.19 -0.324863 0.661539 0
M  V30 10595 H 1030.83 -0.164106 1.8929 0
M  V30 10596 H 1028.98 -2.32471 3.11271 0
M  V30 10597 H 1030.65 -0.18668 4.60922 0
M  V30 10598 H 1028.89 -0.106181 4.3367 0
M  V30 10599 H 1029.56 -1.39496 5.34083 0
M  V30 10600 H 1032.04 -2.1446 3.56576 0
M  V30 10601 H 1030.92 -3.20037 4.45946 0
M  V30 10602 H 1031.18 -3.46715 2.74301 0
M  V30 10603 N 1030.24 -1.51135 -0.446768 0
M  V30 10604 C 1031.48 -1.63013 -1.19461 0
M  V30 10605 C 1031.8 -0.344067 -1.91941 0
M  V30 10606 O 1031.07 0.639666 -1.85162 0
M  V30 10607 H 1029.65 -0.600757 -0.443959 0
M  V30 10608 H 1032.32 -1.88024 -0.513137 0
M  V30 10609 H 1031.41 -2.45322 -1.92933 0
M  V30 10610 N 1031.71 0.701592 -1.41122 0
M  V30 10611 C 1032.96 1.46376 -1.40363 0
M  V30 10612 C 1033.29 1.94197 -0.0105442 0
M  V30 10613 O 1032.57 1.69121 0.960637 0
M  V30 10614 C 1032.85 2.67994 -2.40523 0
M  V30 10615 C 1032.7 2.25977 -3.88914 0
M  V30 10616 C 1034.02 3.70181 -2.38022 0
M  V30 10617 H 1031.14 0.530929 -0.511159 0
M  V30 10618 H 1033.78 0.799588 -1.72356 0
M  V30 10619 H 1031.93 3.24661 -2.13372 0
M  V30 10620 H 1033.61 1.74684 -4.26946 0
M  V30 10621 H 1031.85 1.57826 -4.04071 0
M  V30 10622 H 1032.52 3.13215 -4.54533 0
M  V30 10623 H 1035 3.23174 -2.62103 0
M  V30 10624 H 1033.87 4.52894 -3.10127 0
M  V30 10625 H 1034.13 4.19458 -1.3967 0
M  V30 10626 N 1033.19 1.2685 0.935242 0
M  V30 10627 C 1034.15 1.08975 2.01636 0
M  V30 10628 C 1035.15 0.0361543 1.60759 0
M  V30 10629 O 1036.34 0.280087 1.71934 0
M  V30 10630 C 1033.48 0.658831 3.34473 0
M  V30 10631 H 1034.67 2.04968 2.18925 0
M  V30 10632 H 1032.22 1.09531 1.11501 0
M  V30 10633 H 1032.96 -0.302824 3.22883 0
M  V30 10634 H 1032.74 1.41967 3.65497 0
M  V30 10635 H 1034.23 0.555783 4.13885 0
M  V30 10636 N 1034.67 -1.14067 1.0875 0
M  V30 10637 C 1035.6 -2.21385 0.74236 0
M  V30 10638 C 1036.58 -1.67833 -0.276805 0
M  V30 10639 O 1037.77 -1.93647 -0.1464 0
M  V30 10640 C 1034.9 -3.46956 0.154644 0
M  V30 10641 C 1033.85 -4.13555 1.10255 0
M  V30 10642 C 1033.18 -5.3337 0.376877 0
M  V30 10643 C 1034.48 -4.6169 2.44213 0
M  V30 10644 H 1036.17 -2.50512 1.63964 0
M  V30 10645 H 1033.72 -1.20408 0.789807 0
M  V30 10646 H 1035.67 -4.21284 -0.0988419 0
M  V30 10647 H 1034.39 -3.17203 -0.777789 0
M  V30 10648 H 1033.05 -3.41186 1.34119 0
M  V30 10649 H 1032.7 -4.99879 -0.559472 0
M  V30 10650 H 1032.4 -5.78875 1.00884 0
M  V30 10651 H 1033.92 -6.10458 0.131527 0
M  V30 10652 H 1035.34 -5.27475 2.24595 0
M  V30 10653 H 1033.74 -5.17909 3.03134 0
M  V30 10654 H 1034.81 -3.76574 3.05483 0
M  V30 10655 N 1036.15 -0.873678 -1.31166 0
M  V30 10656 C 1037.4 -0.482577 -1.95842 0
M  V30 10657 C 1037.71 0.970881 -1.69804 0
M  V30 10658 O 1038.92 1.4683 -2.28371 0
M  V30 10659 C 1037.37 -0.812074 -3.50619 0
M  V30 10660 C 1036.98 -2.28254 -3.85492 0
M  V30 10661 C 1038.72 -0.489624 -4.21667 0
M  V30 10662 C 1036.63 -2.55426 -5.33396 0
M  V30 10663 H 1035.56 -0.176736 -0.732994 0
M  V30 10664 H 1038.21 -1.06709 -1.49283 0
M  V30 10665 H 1036.59 -0.156769 -3.9569 0
M  V30 10666 H 1037.77 -2.98122 -3.51369 0
M  V30 10667 H 1036.08 -2.5714 -3.27518 0
M  V30 10668 H 1038.68 -0.669811 -5.30488 0
M  V30 10669 H 1039.02 0.570204 -4.12376 0
M  V30 10670 H 1039.56 -1.10163 -3.82242 0
M  V30 10671 H 1036.3 -3.60106 -5.47726 0
M  V30 10672 H 1035.82 -1.90156 -5.68859 0
M  V30 10673 H 1037.49 -2.40345 -6.00702 0
M  V30 10674 O 1037.67 1.41776 -0.773414 0
M  V30 10675 H 1038.36 1.90728 -0.338001 0
M  V30 END ATOM
M  V30 BEGIN BOND
M  V30 END BOND
M  V30 END CTAB
M  END
$$$$
