drugbank_target|Q96KK3 Potassium voltage-gated channel subfamily S member 1 (DB00228; DB01069; DB01110)
 OpenBabel12092121213D

  0  0  0     0  0            999 V3000
M  V30 BEGIN CTAB
M  V30 COUNTS 8188 8285 0 0 0
M  V30 BEGIN ATOM
M  V30 1 H -0.908 1.98254 -0.117106 0
M  V30 2 N 0 1.576 0 0
M  V30 3 C 0.933 2.03868 1.02534 0
M  V30 4 C 1.911 0.928543 1.3348 0
M  V30 5 O 3.095 1.19667 1.45644 0
M  V30 6 C 0.222 2.43627 2.35294 0
M  V30 7 C -0.732 3.65373 2.2001 0
M  V30 8 S 0.101 5.13292 1.52614 0
M  V30 9 C 1.257 5.56322 2.86805 0
M  V30 10 H 1.49 2.90518 0.631377 0
M  V30 11 H -0.977 1.52953 0.210867 0
M  V30 12 H 0.981 2.67203 3.11629 0
M  V30 13 H -0.358 1.57376 2.7183 0
M  V30 14 H -1.165 3.90944 3.18086 0
M  V30 15 H -1.563 3.418 1.51819 0
M  V30 16 H 0.729 5.58782 3.83104 0
M  V30 17 H 1.672 6.56266 2.65933 0
M  V30 18 H 2.08 4.83886 2.90714 0
M  V30 19 N 1.4781 -0.272755 1.55222 0
M  V30 20 C 2.4081 -1.34136 1.91127 0
M  V30 21 C 3.3891 -1.51513 0.773168 0
M  V30 22 O 4.5741 -1.64552 1.03132 0
M  V30 23 C 1.7041 -2.70083 2.1834 0
M  V30 24 C 0.6581 -2.67437 3.34158 0
M  V30 25 C -0.0159 -4.06938 3.46851 0
M  V30 26 C 1.2841 -2.26686 4.70543 0
M  V30 27 H 2.9781 -1.04333 2.80633 0
M  V30 28 H 0.5241 -0.500454 1.35024 0
M  V30 29 H 2.4771 -3.44952 2.42046 0
M  V30 30 H 1.2011 -3.01469 1.25634 0
M  V30 31 H -0.1399 -1.95026 3.1042 0
M  V30 32 H -0.4919 -4.35547 2.51611 0
M  V30 33 H -0.7919 -4.06062 4.2472 0
M  V30 34 H 0.7321 -4.83545 3.72849 0
M  V30 35 H 2.1461 -2.91277 4.93792 0
M  V30 36 H 0.5431 -2.36971 5.5133 0
M  V30 37 H 1.6131 -1.21818 4.69349 0
M  V30 38 N 2.9562 -1.48159 -0.537278 0
M  V30 39 C 3.8892 -1.567 -1.65893 0
M  V30 40 C 4.8672 -0.41787 -1.57139 0
M  V30 41 O 6.0512 -0.628461 -1.77715 0
M  V30 42 C 3.1782 -1.48818 -3.04255 0
M  V30 43 C 2.2242 -2.68482 -3.31391 0
M  V30 44 S 3.0572 -4.30516 -3.1846 0
M  V30 45 C 4.2132 -4.2522 -4.59281 0
M  V30 46 H 4.4462 -2.5159 -1.58397 0
M  V30 47 H 1.9792 -1.36602 -0.719672 0
M  V30 48 H 3.9372 -1.44958 -3.84054 0
M  V30 49 H 2.5982 -0.552777 -3.09198 0
M  V30 50 H 1.7912 -2.59085 -4.32309 0
M  V30 51 H 1.3932 -2.69567 -2.59248 0
M  V30 52 H 3.6852 -3.94703 -5.5065 0
M  V30 53 H 4.6282 -5.26292 -4.73732 0
M  V30 54 H 5.0362 -3.55791 -4.38261 0
M  V30 55 N 4.4343 0.785586 -1.36625 0
M  V30 56 C 5.3643 1.91259 -1.33949 0
M  V30 57 C 6.3453 1.68795 -0.210325 0
M  V30 58 O 7.5303 1.89854 -0.408561 0
M  V30 59 C 4.6603 3.28339 -1.13186 0
M  V30 60 C 3.6143 3.65335 -2.22967 0
M  V30 61 C 2.9403 5.00806 -1.87342 0
M  V30 62 C 4.2403 3.7352 -3.65075 0
M  V30 63 H 5.9343 1.93755 -2.28253 0
M  V30 64 H 3.4803 0.930788 -1.09874 0
M  V30 65 H 5.4333 4.06804 -1.09948 0
M  V30 66 H 4.1573 3.2624 -0.153332 0
M  V30 67 H 2.8163 2.89169 -2.25337 0
M  V30 68 H 2.4643 4.95233 -0.880545 0
M  V30 69 H 2.1643 5.26529 -2.60846 0
M  V30 70 H 3.6883 5.81687 -1.85667 0
M  V30 71 H 5.1023 4.42168 -3.64911 0
M  V30 72 H 3.4993 4.10731 -4.37516 0
M  V30 73 H 4.5693 2.74527 -3.99703 0
M  V30 74 N 5.9124 1.20967 1.01018 0
M  V30 75 C 6.8424 0.988272 2.11555 0
M  V30 76 C 7.8234 -0.0849778 1.69888 0
M  V30 77 O 9.0084 0.0738202 1.9406 0
M  V30 78 C 6.1384 0.546528 3.42973 0
M  V30 79 C 5.0924 1.56375 3.9841 0
M  V30 80 C 4.4184 0.97842 5.25672 0
M  V30 81 C 5.7184 2.94922 4.31066 0
M  V30 82 H 7.4124 1.91276 2.30334 0
M  V30 83 H 4.9584 0.921073 1.1069 0
M  V30 84 H 6.9114 0.378839 4.19694 0
M  V30 85 H 5.6354 -0.413598 3.23971 0
M  V30 86 H 4.2944 1.71891 3.23804 0
M  V30 87 H 3.9424 0.0101688 5.02999 0
M  V30 88 H 3.6424 1.65784 5.63728 0
M  V30 89 H 5.1664 0.821939 6.05043 0
M  V30 90 H 6.5804 2.8288 4.9865 0
M  V30 91 H 4.9774 3.5983 4.80253 0
M  V30 92 H 6.0474 3.4616 3.39561 0
M  V30 93 N 7.3905 -1.2043 1.01659 0
M  V30 94 C 8.6365 -1.90079 0.706963 0
M  V30 95 C 8.9695 -1.78648 -0.761474 0
M  V30 96 O 8.2445 -1.17069 -1.55323 0
M  V30 97 C 8.5275 -3.41469 1.14327 0
M  V30 98 C 8.3805 -3.61833 2.67201 0
M  V30 99 C 9.6995 -4.34261 0.714529 0
M  V30 100 H 6.8185 -0.690254 0.2583 0
M  V30 101 H 9.4605 -1.41826 1.26433 0
M  V30 102 H 7.6105 -3.82696 0.669056 0
M  V30 103 H 9.2825 -3.2986 3.22475 0
M  V30 104 H 7.5255 -3.05304 3.08175 0
M  V30 105 H 8.1965 -4.67955 2.92783 0
M  V30 106 H 10.6725 -4.00682 1.12221 0
M  V30 107 H 9.5485 -5.38806 1.04784 0
M  V30 108 H 9.8095 -4.40431 -0.383799 0
M  V30 109 N 8.8686 -0.792821 -1.36206 0
M  V30 110 C 10.2846 -0.474903 -1.52371 0
M  V30 111 C 10.4846 1.00622 -1.74578 0
M  V30 112 O 9.5406 1.79162 -1.77924 0
M  V30 113 C 10.8536 -1.3083 -2.70747 0
M  V30 114 C 12.4016 -1.30234 -2.84619 0
M  V30 115 C 12.8766 -2.11956 -4.06004 0
M  V30 116 N 14.3676 -2.09419 -4.13156 0
M  V30 117 C 15.1026 -2.69419 -5.06163 0
M  V30 118 N 14.5986 -3.3829 -6.04592 0
M  V30 119 N 16.3916 -2.59134 -4.98804 0
M  V30 120 H 8.5426 -1.75222 -1.20046 0
M  V30 121 H 10.8056 -0.745024 -0.586211 0
M  V30 122 H 10.5116 -2.35881 -2.6087 0
M  V30 123 H 10.3856 -0.95196 -3.6499 0
M  V30 124 H 12.7726 -0.259748 -2.93955 0
M  V30 125 H 12.8536 -1.69847 -1.91274 0
M  V30 126 H 12.4976 -3.16248 -3.97429 0
M  V30 127 H 12.4276 -1.69711 -4.98503 0
M  V30 128 H 14.9186 -1.59297 -3.42685 0
M  V30 129 H 15.2316 -3.81394 -6.7213 0
M  V30 130 H 13.5766 -3.42393 -6.04807 0
M  V30 131 H 16.7676 -2.04927 -4.20859 0
M  V30 132 H 16.9406 -3.06185 -5.711 0
M  V30 133 N 10.3467 1.47872 -0.545128 0
M  V30 134 C 11.5947 2.02093 -0.016553 0
M  V30 135 C 11.9157 1.42305 1.3332 0
M  V30 136 O 11.1857 0.593853 1.86682 0
M  V30 137 H 9.7657 0.746993 -0.00313038 0
M  V30 138 H 12.4277 1.81414 -0.712397 0
M  V30 139 H 11.5237 3.11996 0.0805422 0
M  V30 140 N 11.8248 0.280983 1.55075 0
M  V30 141 C 13.0528 -0.337293 2.04132 0
M  V30 142 C 13.4678 -1.4903 1.15912 0
M  V30 143 O 12.8248 -1.81606 0.180459 0
M  V30 144 C 12.8758 -0.812706 3.52246 0
M  V30 145 O 12.5968 0.294387 4.3711 0
M  V30 146 C 14.0978 -1.4982 4.17216 0
M  V30 147 H 11.3178 -0.0761638 0.666663 0
M  V30 148 H 13.8618 0.414787 2.00249 0
M  V30 149 H 12.0168 -1.51486 3.56554 0
M  V30 150 H 12.4308 -0.0721325 5.2445 0
M  V30 151 H 13.9048 -1.7822 5.22438 0
M  V30 152 H 14.3818 -2.43168 3.65741 0
M  V30 153 H 14.9878 -0.839742 4.16927 0
M  V30 154 N 13.3029 -1.57598 0.00835791 0
M  V30 155 C 14.2529 -2.05431 -0.989045 0
M  V30 156 C 15.2369 -0.950662 -1.29812 0
M  V30 157 O 16.4289 -1.21438 -1.28771 0
M  V30 158 C 13.5579 -2.56801 -2.27833 0
M  V30 159 C 12.6439 -3.74058 -1.99853 0
M  V30 160 N 13.0349 -4.8544 -1.42062 0
M  V30 161 C 11.3329 -3.82148 -2.29953 0
M  V30 162 C 12.0339 -5.66817 -1.30743 0
M  V30 163 N 11.0099 -5.13077 -1.7959 0
M  V30 164 H 14.8119 -2.88955 -0.536853 0
M  V30 165 H 12.3259 -1.61199 -0.197148 0
M  V30 166 H 14.3229 -2.89349 -3.00137 0
M  V30 167 H 12.9829 -1.74699 -2.73698 0
M  V30 168 H 13.9939 -5.0612 -1.09833 0
M  V30 169 H 10.6709 -3.10916 -2.78635 0
M  V30 170 H 12.0609 -6.66343 -0.862328 0
M  V30 171 N 14.781 0.264519 -1.55364 0
M  V30 172 C 16.011 1.01153 -1.80143 0
M  V30 173 C 16.419 1.80115 -0.579253 0
M  V30 174 O 15.762 1.77813 0.46132 0
M  V30 175 C 15.824 2.01098 -2.97993 0
M  V30 176 C 15.488 1.40995 -4.34706 0
M  V30 177 C 16.485 0.821316 -5.13372 0
M  V30 178 C 14.17 1.43461 -4.81378 0
M  V30 179 C 16.164 0.265339 -6.36847 0
M  V30 180 C 13.851 0.874771 -6.04807 0
M  V30 181 C 14.849 0.291146 -6.82379 0
M  V30 182 O 14.537 -0.260093 -8.03479 0
M  V30 183 H 14.269 0.304125 -0.603725 0
M  V30 184 H 16.823 0.298089 -2.03225 0
M  V30 185 H 15.053 2.76224 -2.70623 0
M  V30 186 H 16.742 2.61997 -3.1002 0
M  V30 187 H 17.508 0.794903 -4.78442 0
M  V30 188 H 13.387 1.87826 -4.21002 0
M  V30 189 H 16.931 -0.190837 -6.97339 0
M  V30 190 H 12.828 0.898452 -6.39217 0
M  V30 191 H 13.596 -0.150265 -8.18362 0
M  V30 192 N 16.2591 1.48442 0.529413 0
M  V30 193 C 17.1691 1.6569 1.66084 0
M  V30 194 C 18.1851 0.539432 1.65427 0
M  V30 195 O 19.3611 0.810572 1.84368 0
M  V30 196 C 16.4261 1.69315 3.02545 0
M  V30 197 C 15.4871 2.92694 3.14052 0
M  V30 198 C 14.7201 2.96137 4.44003 0
M  V30 199 O 14.9431 2.07973 5.31134 0
M  V30 200 O 13.8771 3.88312 4.59888 0
M  V30 201 H 17.7031 2.61483 1.54469 0
M  V30 202 H 15.2881 1.3185 0.702567 0
M  V30 203 H 17.1701 1.74217 3.83701 0
M  V30 204 H 15.8451 0.766966 3.14483 0
M  V30 205 H 14.7521 2.93324 2.32189 0
M  V30 206 H 16.0851 3.84699 3.0703 0
M  V30 207 N 17.7372 -0.778329 1.37039 0
M  V30 208 C 18.6852 -1.91278 1.32345 0
M  V30 209 C 19.6792 -1.68051 0.213331 0
M  V30 210 O 20.8852 -1.75922 0.38098 0
M  V30 211 H 17.2602 -0.628909 0.412283 0
M  V30 212 H 19.2312 -1.92355 2.28127 0
M  V30 213 C 17.9802 -3.28455 1.14073 0
M  V30 214 H 17.3032 -3.46901 1.98746 0
M  V30 215 H 18.7432 -4.08152 1.14837 0
M  V30 216 C 17.2022 -3.36548 -0.154015 0
M  V30 217 O 17.7322 -3.85186 -1.13993 0
M  V30 218 N 15.9382 -2.89894 -0.202475 0
M  V30 219 H 15.4852 -2.50504 0.600476 0
M  V30 220 H 15.4432 -2.9569 -1.06841 0
M  V30 221 N 19.2153 -1.21501 -1.00376 0
M  V30 222 C 20.1453 -0.999478 -2.11028 0
M  V30 223 C 21.1263 0.0759671 -1.6993 0
M  V30 224 O 22.3113 -0.0841106 -1.94018 0
M  V30 225 C 19.4413 -0.564709 -3.42678 0
M  V30 226 C 18.3953 -1.58486 -3.97576 0
M  V30 227 C 17.7213 -1.00628 -5.25146 0
M  V30 228 C 19.0213 -2.97204 -4.29496 0
M  V30 229 H 20.7153 -1.92495 -2.29317 0
M  V30 230 H 18.2613 -0.92693 -1.102 0
M  V30 231 H 20.2143 -0.401091 -4.19487 0
M  V30 232 H 18.9383 0.396411 -3.24185 0
M  V30 233 H 17.5973 -1.73606 -3.22888 0
M  V30 234 H 17.2453 -0.0368439 -5.02987 0
M  V30 235 H 16.9453 -1.68771 -5.62841 0
M  V30 236 H 18.4693 -0.854015 -6.04598 0
M  V30 237 H 19.8833 -2.8552 -4.97143 0
M  V30 238 H 18.2803 -3.62372 -4.78338 0
M  V30 239 H 19.3503 -3.47956 -3.3772 0
M  V30 240 N 20.6934 1.19889 -1.02296 0
M  V30 241 C 22.1094 1.41462 -0.738954 0
M  V30 242 C 22.3094 1.89721 0.678846 0
M  V30 243 O 21.3654 2.07016 1.4457 0
M  V30 244 C 22.6784 2.43083 -1.77005 0
M  V30 245 C 24.2264 2.5684 -1.78892 0
M  V30 246 C 24.7014 3.61709 -2.80945 0
M  V30 247 N 26.1924 3.69199 -2.79725 0
M  V30 248 C 26.9274 4.50019 -3.55345 0
M  V30 249 N 26.4234 5.34592 -4.40662 0
M  V30 250 N 28.2164 4.44612 -3.43914 0
M  V30 251 H 20.3674 0.868827 -1.93817 0
M  V30 252 H 22.6304 0.44399 -0.837602 0
M  V30 253 H 22.3364 2.14636 -2.78612 0
M  V30 254 H 22.2104 3.4217 -1.58744 0
M  V30 255 H 24.5974 2.84614 -0.779674 0
M  V30 256 H 24.6784 1.57927 -2.01228 0
M  V30 257 H 24.3224 3.34678 -3.82038 0
M  V30 258 H 24.2524 4.60259 -2.5587 0
M  V30 259 H 26.7434 3.08794 -2.17842 0
M  V30 260 H 27.0564 5.93363 -4.95116 0
M  V30 261 H 25.4014 5.34073 -4.44737 0
M  V30 262 H 28.5924 3.7758 -2.76679 0
M  V30 263 H 28.7654 5.0736 -4.031 0
M  V30 264 N 22.1715 0.800033 1.35784 0
M  V30 265 C 23.3965 0.388511 2.03729 0
M  V30 266 C 23.8215 -0.990481 1.5991 0
M  V30 267 O 23.1795 -1.64013 0.772612 0
M  V30 268 C 23.2275 0.4726 3.5749 0
M  V30 269 O 22.3315 -0.51646 4.09153 0
M  V30 270 H 21.6725 0.163271 0.643614 0
M  V30 271 H 24.2025 1.0841 1.73518 0
M  V30 272 H 24.2125 0.34003 4.06581 0
M  V30 273 H 22.8875 1.47848 3.88734 0
M  V30 274 H 21.4645 -0.344673 3.71304 0
M  V30 275 N 23.6496 -1.47581 0.552962 0
M  V30 276 C 24.5966 -2.29957 -0.197108 0
M  V30 277 C 25.5666 -1.38799 -0.912359 0
M  V30 278 O 26.7516 -1.67761 -0.908888 0
M  V30 279 C 23.8916 -3.22672 -1.22379 0
M  V30 280 C 23.0046 -4.28919 -0.515038 0
M  V30 281 C 22.1396 -5.0879 -1.52664 0
M  V30 282 C 21.1786 -6.06815 -0.802631 0
M  V30 283 N 20.3156 -6.7966 -1.76086 0
M  V30 284 H 25.1556 -2.93578 0.511486 0
M  V30 285 H 22.6926 -1.4471 0.264067 0
M  V30 286 H 24.6506 -3.74845 -1.83159 0
M  V30 287 H 23.2806 -2.60925 -1.90047 0
M  V30 288 H 22.3326 -3.79835 0.207192 0
M  V30 289 H 23.6446 -4.98773 0.0523425 0
M  V30 290 H 22.7986 -5.65091 -2.20809 0
M  V30 291 H 21.5376 -4.38828 -2.12794 0
M  V30 292 H 20.5426 -5.49695 -0.107238 0
M  V30 293 H 21.7676 -6.78784 -0.207135 0
M  V30 294 H 19.7136 -6.12432 -2.35081 0
M  V30 295 H 19.6306 -7.45669 -1.24552 0
M  V30 296 H 20.8986 -7.40538 -2.43359 0
M  V30 297 N 25.1277 -0.289203 -1.54924 0
M  V30 298 C 26.3737 0.323998 -2.00195 0
M  V30 299 C 26.7067 1.54441 -1.17735 0
M  V30 300 O 25.9817 1.92875 -0.250878 0
M  V30 301 C 26.2647 0.692276 -3.53383 0
M  V30 302 C 26.1177 -0.536457 -4.46589 0
M  V30 303 C 27.4367 1.52335 -4.12895 0
M  V30 304 H 24.5557 0.116289 -0.727768 0
M  V30 305 H 27.1977 -0.398954 -1.85764 0
M  V30 306 H 25.3477 1.30822 -3.65811 0
M  V30 307 H 27.0197 -1.17499 -4.46085 0
M  V30 308 H 25.2627 -1.17192 -4.1767 0
M  V30 309 H 25.9337 -0.234806 -5.515 0
M  V30 310 H 28.4097 1.00302 -4.0383 0
M  V30 311 H 27.2857 1.74982 -5.20262 0
M  V30 312 H 27.5467 2.50886 -3.64018 0
M  V30 313 N 26.6058 1.57591 -0.0167156 0
M  V30 314 C 27.8518 1.91567 0.665582 0
M  V30 315 C 28.1848 0.892298 1.72487 0
M  V30 316 O 27.4598 -0.0867127 1.94307 0
M  V30 317 C 27.7428 3.36069 1.29342 0
M  V30 318 C 27.5958 4.49135 0.244541 0
M  V30 319 C 28.9148 3.803 2.21495 0
M  V30 320 H 26.0338 0.69666 0.240488 0
M  V30 321 H 28.6758 1.89866 -0.0714356 0
M  V30 322 H 26.8258 3.3765 1.92158 0
M  V30 323 H 28.4978 4.59689 -0.385228 0
M  V30 324 H 26.7408 4.3165 -0.431379 0
M  V30 325 H 27.4118 5.47242 0.723207 0
M  V30 326 H 29.8878 3.80377 1.68678 0
M  V30 327 H 28.7638 4.82127 2.62382 0
M  V30 328 H 29.0248 3.15104 3.101 0
M  V30 329 N 28.0839 -0.256276 1.55502 0
M  V30 330 C 29.0139 -1.32102 1.92539 0
M  V30 331 C 29.9949 -1.50684 0.789194 0
M  V30 332 O 31.1799 -1.63449 1.04872 0
M  V30 333 C 28.3099 -2.67752 2.21192 0
M  V30 334 C 27.2639 -2.63878 3.36975 0
M  V30 335 C 26.5899 -4.03236 3.51147 0
M  V30 336 C 27.8899 -2.21682 4.72921 0
M  V30 337 H 29.5839 -1.01351 2.81724 0
M  V30 338 H 27.1299 -0.486105 1.35547 0
M  V30 339 H 29.0829 -3.42365 2.45691 0
M  V30 340 H 27.8069 -3.0012 1.28824 0
M  V30 341 H 26.4659 -1.91722 3.12471 0
M  V30 342 H 26.1139 -4.32854 2.56216 0
M  V30 343 H 25.8139 -4.01535 4.29003 0
M  V30 344 H 27.3379 -4.79563 3.77957 0
M  V30 345 H 28.7519 -2.86023 4.96854 0
M  V30 346 H 27.1489 -2.3111 5.53812 0
M  V30 347 H 28.2189 -1.16833 4.70615 0
M  V30 348 N 29.562 -1.4872 -0.521534 0
M  V30 349 C 30.973 -1.50607 -1.10337 0
M  V30 350 C 31.324 -0.280612 -1.94183 0
M  V30 351 O 30.449 0.611507 -2.0758 0
M  V30 352 C 31.044 -2.72903 -2.00772 0
M  V30 353 C 29.603 -2.77634 -2.54158 0
M  V30 354 C 28.75 -2.44241 -1.31307 0
M  V30 355 H 31.701 -1.55714 -0.306388 0
M  V30 356 H 31.722 -2.519 -2.85178 0
M  V30 357 H 31.234 -3.62077 -1.39721 0
M  V30 358 H 29.335 -1.92689 -3.18907 0
M  V30 359 H 29.448 -3.79283 -2.92714 0
M  V30 360 H 27.812 -1.95577 -1.63161 0
M  V30 361 H 28.595 -3.35666 -0.719943 0
M  V30 362 N 31.0401 0.771051 -1.3745 0
M  V30 363 C 32.2681 1.56015 -1.35893 0
M  V30 364 C 32.6831 1.88718 0.0555523 0
M  V30 365 O 32.0401 1.51502 1.01752 0
M  V30 366 C 32.0911 2.87001 -2.19801 0
M  V30 367 O 31.8121 2.557 -3.55738 0
M  V30 368 C 33.3131 3.81228 -2.26231 0
M  V30 369 H 30.5331 0.483317 -0.465453 0
M  V30 370 H 33.0771 0.955611 -1.80799 0
M  V30 371 H 31.2321 3.43877 -1.78402 0
M  V30 372 H 31.6461 3.39584 -3.99729 0
M  V30 373 H 33.1201 4.70139 -2.89263 0
M  V30 374 H 33.5971 4.20409 -1.27093 0
M  V30 375 H 34.2031 3.30281 -2.67945 0
M  V30 376 N 32.5182 1.22032 0.997298 0
M  V30 377 C 33.9292 1.0397 1.55071 0
M  V30 378 C 34.2802 -0.398192 1.92117 0
M  V30 379 O 33.4052 -1.28254 1.74298 0
M  V30 380 C 34.0002 1.88109 2.81781 0
M  V30 381 C 32.5592 1.74357 3.33581 0
M  V30 382 C 31.7062 1.84846 2.06706 0
M  V30 383 H 34.6572 1.35941 0.818883 0
M  V30 384 H 34.6782 1.39589 3.53971 0
M  V30 385 H 34.1902 2.92754 2.54787 0
M  V30 386 H 32.2912 0.72427 3.65493 0
M  V30 387 H 32.4042 2.56772 4.04481 0
M  V30 388 H 30.7682 1.28238 2.20062 0
M  V30 389 H 31.5512 2.91014 1.82114 0
M  V30 390 N 33.9963 -1.19345 1.0293 0
M  V30 391 C 34.9263 -2.2481 0.631105 0
M  V30 392 C 35.9073 -1.66245 -0.360104 0
M  V30 393 O 37.0923 -1.92677 -0.242726 0
M  V30 394 C 34.2223 -3.47295 -0.0184607 0
M  V30 395 C 33.1763 -4.18536 0.895073 0
M  V30 396 C 32.5023 -5.34586 0.110592 0
M  V30 397 C 33.8023 -4.73287 2.209 0
M  V30 398 H 35.4963 -2.58372 1.51275 0
M  V30 399 H 33.0423 -1.24194 0.728818 0
M  V30 400 H 34.9953 -4.20268 -0.308675 0
M  V30 401 H 33.7193 -3.12933 -0.934907 0
M  V30 402 H 32.3783 -3.47446 1.16949 0
M  V30 403 H 32.0263 -4.96469 -0.807902 0
M  V30 404 H 31.7263 -5.83183 0.719087 0
M  V30 405 H 33.2503 -6.10355 -0.172871 0
M  V30 406 H 34.6643 -5.38013 1.98028 0
M  V30 407 H 33.0613 -5.32373 2.76946 0
M  V30 408 H 34.1313 -3.91331 2.86336 0
M  V30 409 N 35.4744 -0.807222 -1.35358 0
M  V30 410 C 36.7224 -0.387122 -1.98358 0
M  V30 411 C 37.0434 1.04942 -1.64354 0
M  V30 412 O 36.3134 1.72615 -0.926339 0
M  V30 413 H 34.8934 -0.140154 -0.733734 0
M  V30 414 H 37.5554 -1.0332 -1.6526 0
M  V30 415 H 36.6514 -0.493352 -3.08176 0
M  V30 416 N 36.9525 1.47285 -0.560781 0
M  V30 417 C 38.2005 2.02064 -0.0379868 0
M  V30 418 C 38.5215 1.43711 1.31803 0
M  V30 419 O 37.7915 0.61362 1.86042 0
M  V30 420 H 36.3715 0.746918 -0.0110531 0
M  V30 421 H 39.0335 1.80648 -0.731598 0
M  V30 422 H 38.1295 3.12064 0.0474463 0
M  V30 423 N 38.4306 0.297415 1.54768 0
M  V30 424 C 39.8466 -0.0560823 1.59501 0
M  V30 425 C 40.0466 -1.52725 1.31444 0
M  V30 426 O 39.1026 -2.27947 1.08611 0
M  V30 427 C 40.4156 0.338631 2.98787 0
M  V30 428 C 41.9636 0.287097 3.11681 0
M  V30 429 C 42.4386 0.656579 4.53269 0
M  V30 430 N 43.9296 0.608977 4.59179 0
M  V30 431 C 44.6646 0.867385 5.66802 0
M  V30 432 N 44.1606 1.19157 6.82476 0
M  V30 433 N 45.9536 0.794687 5.56454 0
M  V30 434 H 38.1046 1.25624 1.71267 0
M  V30 435 H 40.3676 0.509057 0.799728 0
M  V30 436 H 40.0736 1.36263 3.2423 0
M  V30 437 H 39.9476 -0.309508 3.75928 0
M  V30 438 H 42.3346 -0.727649 2.85988 0
M  V30 439 H 42.4156 0.969809 2.36703 0
M  V30 440 H 42.0596 1.66912 4.7969 0
M  V30 441 H 41.9896 -0.0481649 5.26578 0
M  V30 442 H 44.4806 0.369198 3.76092 0
M  V30 443 H 44.7936 1.37482 7.60473 0
M  V30 444 H 43.1386 1.22958 6.84037 0
M  V30 445 H 46.3296 0.541098 4.64962 0
M  V30 446 H 46.5026 0.999445 6.40246 0
M  V30 447 N 39.9087 -1.5758 0.0250728 0
M  V30 448 C 41.1337 -1.96337 -0.668317 0
M  V30 449 C 41.5587 -0.901314 -1.651 0
M  V30 450 O 40.9167 0.138187 -1.80773 0
M  V30 451 C 40.9647 -3.34191 -1.35457 0
M  V30 452 O 40.0687 -3.30269 -2.46974 0
M  V30 453 H 39.4097 -0.640281 -0.175887 0
M  V30 454 H 41.9397 -2.0442 0.0857224 0
M  V30 455 H 41.9497 -3.70331 -1.71228 0
M  V30 456 H 40.6247 -4.11036 -0.634218 0
M  V30 457 H 39.2017 -3.05841 -2.13344 0
M  V30 458 N 41.3868 0.248026 -1.55636 0
M  V30 459 C 42.6148 0.993808 -1.81469 0
M  V30 460 C 43.0298 1.78991 -0.60064 0
M  V30 461 O 42.3868 1.77345 0.430682 0
M  V30 462 C 42.4378 1.93258 -3.05506 0
M  V30 463 O 42.1588 1.16869 -4.22224 0
M  V30 464 C 43.6598 2.79444 -3.4413 0
M  V30 465 H 40.8798 0.292486 -0.603898 0
M  V30 466 H 43.4238 0.271253 -2.02693 0
M  V30 467 H 41.5788 2.60943 -2.86335 0
M  V30 468 H 41.9928 1.80359 -4.92515 0
M  V30 469 H 43.4668 3.41066 -4.34026 0
M  V30 470 H 43.9438 3.50499 -2.64665 0
M  V30 471 H 44.5498 2.17214 -3.65648 0
M  V30 472 N 42.8649 1.48995 0.513639 0
M  V30 473 C 43.7749 1.67443 1.64317 0
M  V30 474 C 44.7909 0.556947 1.64846 0
M  V30 475 O 45.9669 0.830082 1.83498 0
M  V30 476 C 43.0319 1.72515 3.00732 0
M  V30 477 C 42.0929 2.96009 3.1093 0
M  V30 478 C 41.3259 3.00829 4.40837 0
M  V30 479 O 41.5489 2.13594 5.28898 0
M  V30 480 O 40.4829 3.93168 4.55744 0
M  V30 481 H 44.3089 2.63106 1.51687 0
M  V30 482 H 41.8939 1.32588 0.688543 0
M  V30 483 H 43.7759 1.78277 3.81831 0
M  V30 484 H 42.4509 0.800278 3.13651 0
M  V30 485 H 41.3579 2.9577 2.29065 0
M  V30 486 H 42.6909 3.87934 3.02933 0
M  V30 487 N 44.343 -0.763751 1.37857 0
M  V30 488 C 45.571 -1.55293 1.36718 0
M  V30 489 C 45.986 -1.88745 -0.0455434 0
M  V30 490 O 45.343 -1.52039 -1.00947 0
M  V30 491 C 45.394 -2.85831 2.2132 0
M  V30 492 O 45.115 -2.5381 3.57089 0
M  V30 493 C 46.616 -3.80023 2.28249 0
M  V30 494 H 43.836 -0.480841 0.468009 0
M  V30 495 H 46.38 -0.946009 1.81303 0
M  V30 496 H 44.535 -3.42926 1.80223 0
M  V30 497 H 44.949 -3.37459 4.01524 0
M  V30 498 H 46.423 -4.68599 2.91752 0
M  V30 499 H 46.9 -4.1973 1.2932 0
M  V30 500 H 47.506 -3.28855 2.69693 0
M  V30 501 N 45.8211 -1.22559 -0.990812 0
M  V30 502 C 47.0681 -1.05141 -1.73065 0
M  V30 503 C 47.3961 0.413191 -1.9006 0
M  V30 504 O 46.6511 1.32257 -1.44245 0
M  V30 505 C 46.9501 -1.71011 -3.13831 0
M  V30 506 C 46.6161 -3.20911 -3.16745 0
M  V30 507 C 45.2781 -3.61812 -3.17247 0
M  V30 508 C 47.6301 -4.16846 -3.12872 0
M  V30 509 C 44.9581 -4.97127 -3.1158 0
M  V30 510 C 47.3101 -5.5214 -3.08746 0
M  V30 511 C 45.9741 -5.92419 -3.07565 0
M  V30 512 H 45.2441 -0.384738 -0.633291 0
M  V30 513 H 47.8911 -1.5235 -1.16025 0
M  V30 514 H 46.1961 -1.16133 -3.74193 0
M  V30 515 H 47.8931 -1.55023 -3.69823 0
M  V30 516 H 44.4831 -2.88344 -3.17105 0
M  V30 517 H 48.6671 -3.86263 -3.11632 0
M  V30 518 H 43.9231 -5.27562 -3.09012 0
M  V30 519 H 48.0971 -6.26201 -3.04705 0
M  V30 520 H 45.7241 -6.97236 -3.02929 0
M  V30 521 N 47.2992 1.18797 -1.03562 0
M  V30 522 C 48.5452 1.8893 -0.737113 0
M  V30 523 C 48.8782 1.79837 0.732956 0
M  V30 524 O 48.1532 1.19525 1.5344 0
M  V30 525 C 48.4362 3.39607 -1.19745 0
M  V30 526 C 48.2892 3.57537 -2.72924 0
M  V30 527 C 49.6082 4.33069 -0.783526 0
M  V30 528 H 46.7272 0.686057 -0.269249 0
M  V30 529 H 49.3692 1.39797 -1.28673 0
M  V30 530 H 47.5192 3.81583 -0.729855 0
M  V30 531 H 49.1912 3.24688 -3.27682 0
M  V30 532 H 47.4342 3.00363 -3.12993 0
M  V30 533 H 48.1052 4.63238 -3.00191 0
M  V30 534 H 50.5812 3.98846 -1.18581 0
M  V30 535 H 49.4572 5.3707 -1.13343 0
M  V30 536 H 49.7182 4.40986 0.313681 0
M  V30 537 N 48.7773 0.814389 1.34928 0
M  V30 538 C 50.0023 0.410097 2.03305 0
M  V30 539 C 50.4273 -0.973464 1.60951 0
M  V30 540 O 49.7853 -1.63185 0.789964 0
M  V30 541 C 49.8333 0.51049 3.56968 0
M  V30 542 O 48.9373 -0.473035 4.09678 0
M  V30 543 H 48.2783 0.170088 0.641846 0
M  V30 544 H 50.8083 1.10244 1.72358 0
M  V30 545 H 50.8183 0.383135 4.06197 0
M  V30 546 H 49.4933 1.51963 3.87144 0
M  V30 547 H 48.0703 -0.305272 3.71648 0
M  V30 548 N 50.2554 -1.46986 0.568584 0
M  V30 549 C 51.1654 -2.33942 -0.17555 0
M  V30 550 C 52.1814 -1.48891 -0.90041 0
M  V30 551 O 53.3574 -1.81794 -0.86676 0
M  V30 552 C 50.4224 -3.25811 -1.18524 0
M  V30 553 C 49.4834 -4.26757 -0.466582 0
M  V30 554 C 48.7164 -5.14236 -1.42817 0
M  V30 555 O 48.9394 -5.04379 -2.66379 0
M  V30 556 O 47.8734 -5.94412 -0.946453 0
M  V30 557 H 51.6994 -2.98896 0.538036 0
M  V30 558 H 49.2844 -1.4573 0.329097 0
M  V30 559 H 51.1664 -3.82527 -1.76779 0
M  V30 560 H 49.8414 -2.63471 -1.88055 0
M  V30 561 H 48.7484 -3.73769 0.157451 0
M  V30 562 H 50.0814 -4.91843 0.187485 0
M  V30 563 N 51.7335 -0.305618 -1.54608 0
M  V30 564 C 52.9805 0.302298 -2.00231 0
M  V30 565 C 53.3085 1.5354 -1.19398 0
M  V30 566 O 52.5635 1.93973 -0.259423 0
M  V30 567 C 52.8625 0.698983 -3.50498 0
M  V30 568 C 52.5285 -0.432903 -4.48817 0
M  V30 569 C 51.1905 -0.743622 -4.75419 0
M  V30 570 C 53.5425 -1.19409 -5.07337 0
M  V30 571 C 50.8705 -1.81857 -5.57804 0
M  V30 572 C 53.2225 -2.25899 -5.90891 0
M  V30 573 C 51.8865 -2.57572 -6.15803 0
M  V30 574 H 51.1565 0.110619 -0.732697 0
M  V30 575 H 53.8035 -0.425674 -1.86709 0
M  V30 576 H 52.1085 1.50711 -3.61654 0
M  V30 577 H 53.8055 1.1806 -3.83227 0
M  V30 578 H 50.3955 -0.18063 -4.28219 0
M  V30 579 H 54.5795 -0.967295 -4.86782 0
M  V30 580 H 49.8355 -2.06864 -5.75341 0
M  V30 581 H 54.0095 -2.85335 -6.35261 0
M  V30 582 H 51.6365 -3.40998 -6.7943 0
M  V30 583 N 53.2116 1.57565 -0.0334293 0
M  V30 584 C 54.6226 1.79746 0.504798 0
M  V30 585 C 54.9736 0.944091 1.71992 0
M  V30 586 O 54.0986 0.155694 2.15839 0
M  V30 587 C 54.6936 3.25997 0.922567 0
M  V30 588 C 53.2526 3.49159 1.40588 0
M  V30 589 C 52.3996 2.74785 0.372633 0
M  V30 590 H 55.3506 1.56565 -0.259436 0
M  V30 591 H 55.3716 3.35945 1.78666 0
M  V30 592 H 54.8836 3.88081 0.0379825 0
M  V30 593 H 52.9846 2.92332 2.31025 0
M  V30 594 H 53.0976 4.57873 1.41028 0
M  V30 595 H 51.4616 2.40391 0.841672 0
M  V30 596 H 52.2446 3.39587 -0.503559 0
M  V30 597 N 54.6897 -0.239769 1.55765 0
M  V30 598 C 55.9377 -0.964892 1.77579 0
M  V30 599 C 56.2587 -1.85582 0.598699 0
M  V30 600 O 55.5287 -1.92075 -0.385226 0
M  V30 601 H 54.1087 -0.359265 0.654933 0
M  V30 602 H 56.7707 -0.256001 1.93211 0
M  V30 603 H 55.8667 -1.58243 2.69009 0
M  V30 604 N 56.1678 -1.49265 -0.50573 0
M  V30 605 C 57.5788 -1.51769 -1.08734 0
M  V30 606 C 57.9298 -0.301192 -1.93874 0
M  V30 607 O 57.0548 0.589456 -2.08217 0
M  V30 608 C 57.6498 -2.75017 -1.97867 0
M  V30 609 C 56.2088 -2.80314 -2.51199 0
M  V30 610 C 55.3558 -2.4562 -1.28709 0
M  V30 611 H 58.3068 -1.56031 -0.289855 0
M  V30 612 H 58.3278 -2.5491 -2.82491 0
M  V30 613 H 57.8398 -3.63539 -1.35873 0
M  V30 614 H 55.9408 -1.96061 -3.16845 0
M  V30 615 H 56.0538 -3.82366 -2.88675 0
M  V30 616 H 54.4178 -1.97297 -1.61078 0
M  V30 617 H 55.2008 -3.36411 -0.6843 0
M  V30 618 N 57.6459 0.756429 -1.3826 0
M  V30 619 C 58.9229 1.50584 -1.24835 0
M  V30 620 C 59.3029 2.10556 0.151485 0
M  V30 621 O 58.6509 1.96825 1.1607 0
M  V30 622 C 58.8609 2.57448 -2.3563 0
M  V30 623 C 60.2089 3.24429 -2.73917 0
M  V30 624 O 61.2329 2.67751 -2.34921 0
M  V30 625 O 60.0919 4.26937 -3.41156 0
M  V30 626 H 57.1859 0.667664 -0.48801 0
M  V30 627 H 59.7319 0.792083 -1.5008 0
M  V30 628 H 58.5039 2.11362 -3.29305 0
M  V30 629 H 58.1269 3.36408 -2.11933 0
M  V30 630 N 59.124 1.23083 0.984299 0
M  V30 631 C 60.352 1.08714 1.76037 0
M  V30 632 C 60.767 -0.361691 1.85303 0
M  V30 633 O 60.124 -1.25034 1.32939 0
M  V30 634 C 60.175 1.70206 3.18923 0
M  V30 635 O 59.896 3.09423 3.10144 0
M  V30 636 C 61.397 1.61227 4.12941 0
M  V30 637 H 58.617 0.380664 0.552572 0
M  V30 638 H 61.161 1.62853 1.23689 0
M  V30 639 H 59.316 1.20109 3.6831 0
M  V30 640 H 59.73 3.39188 4.00065 0
M  V30 641 H 61.204 2.08962 5.10919 0
M  V30 642 H 61.681 0.570375 4.35481 0
M  V30 643 H 62.287 2.10671 3.69456 0
M  V30 644 N 60.6021 -1.18246 1.0419 0
M  V30 645 C 61.8501 -1.87886 0.744543 0
M  V30 646 C 62.1711 -1.8082 -0.730006 0
M  V30 647 O 61.4411 -1.22736 -1.52685 0
M  V30 648 H 60.0211 -0.695556 0.272417 0
M  V30 649 H 62.6831 -1.43494 1.31892 0
M  V30 650 H 61.7791 -2.9389 1.05049 0
M  V30 651 N 62.0802 -0.821533 -1.34494 0
M  V30 652 C 63.3292 -0.405355 -1.97585 0
M  V30 653 C 63.6422 1.03677 -1.65863 0
M  V30 654 O 64.8482 1.55679 -2.22433 0
M  V30 655 C 63.3042 -0.673861 -3.53535 0
M  V30 656 C 62.9122 -2.12951 -3.94152 0
M  V30 657 C 64.6562 -0.32378 -4.23263 0
M  V30 658 C 62.5632 -2.34298 -5.43009 0
M  V30 659 H 61.4932 -0.147836 -0.739365 0
M  V30 660 H 64.1442 -1.00769 -1.53355 0
M  V30 661 H 62.5262 -0.00137554 -3.96 0
M  V30 662 H 63.7002 -2.84104 -3.62797 0
M  V30 663 H 62.0152 -2.44089 -3.37356 0
M  V30 664 H 64.6122 -0.461126 -5.32708 0
M  V30 665 H 64.9552 0.731586 -4.09821 0
M  V30 666 H 65.4882 -0.950786 -3.8627 0
M  V30 667 H 62.2272 -3.38335 -5.61435 0
M  V30 668 H 61.7472 -1.67687 -5.75883 0
M  V30 669 H 63.4262 -2.16588 -6.09671 0
M  V30 670 N 63.5583 1.46682 -0.576371 0
M  V30 671 C 64.9743 1.57822 -0.237562 0
M  V30 672 C 65.1743 1.57237 1.26011 0
M  V30 673 O 64.2303 1.48596 2.04146 0
M  V30 674 C 65.5433 2.87499 -0.881168 0
M  V30 675 C 67.0913 3.01119 -0.85417 0
M  V30 676 C 67.5663 4.33524 -1.4772 0
M  V30 677 N 69.0573 4.40207 -1.44125 0
M  V30 678 C 69.7923 5.4126 -1.89276 0
M  V30 679 N 69.2883 6.49021 -2.42371 0
M  V30 680 N 71.0813 5.32422 -1.80231 0
M  V30 681 H 63.2323 1.45306 -1.54919 0
M  V30 682 H 65.4953 0.692733 -0.647167 0
M  V30 683 H 65.2013 2.9372 -1.93447 0
M  V30 684 H 65.0753 3.75224 -0.385592 0
M  V30 685 H 67.4623 2.94485 0.190491 0
M  V30 686 H 67.5433 2.14887 -1.3877 0
M  V30 687 H 67.1873 4.40916 -2.52103 0
M  V30 688 H 67.1173 5.1852 -0.918947 0
M  V30 689 H 69.6083 3.62931 -1.05307 0
M  V30 690 H 69.9213 7.2233 -2.74698 0
M  V30 691 H 68.2663 6.49858 -2.46393 0
M  V30 692 H 71.4573 4.47137 -1.38514 0
M  V30 693 H 71.6303 6.11034 -2.15735 0
M  V30 694 N 65.0364 0.313813 1.54444 0
M  V30 695 C 66.2824 -0.284918 2.01395 0
M  V30 696 C 66.6374 -1.50537 1.19818 0
M  V30 697 O 65.9304 -1.89692 0.269748 0
M  V30 698 C 66.1244 -0.680386 3.50864 0
M  V30 699 C 65.9534 0.500198 4.4691 0
M  V30 700 C 64.7234 0.996248 4.95382 0
M  V30 701 C 66.9214 1.34928 4.96285 0
M  V30 702 N 64.9034 2.14226 5.75309 0
M  V30 703 C 66.2744 2.3426 5.7404 0
M  V30 704 C 68.3294 1.37818 4.78446 0
M  V30 705 C 67.0324 3.36272 6.35856 0
M  V30 706 C 69.0584 2.38695 5.4109 0
M  V30 707 C 68.4204 3.36755 6.18688 0
M  V30 708 H 64.5194 -0.0683689 0.779006 0
M  V30 709 H 67.1034 0.44664 1.89508 0
M  V30 710 H 65.2744 -1.38109 3.63016 0
M  V30 711 H 67.0064 -1.25975 3.84594 0
M  V30 712 H 63.7614 0.56912 4.70168 0
M  V30 713 H 64.1854 2.72005 6.19953 0
M  V30 714 H 68.8274 0.633747 4.18023 0
M  V30 715 H 66.5454 4.11627 6.95405 0
M  V30 716 H 70.1314 2.41721 5.29209 0
M  V30 717 H 69.0114 4.13535 6.66302 0
M  V30 718 N 66.5145 -1.57545 0.0417849 0
M  V30 719 C 67.9305 -1.56467 -0.314704 0
M  V30 720 C 68.1305 -1.04859 -1.72066 0
M  V30 721 O 67.1865 -0.700983 -2.42575 0
M  V30 722 C 68.4995 -3.00317 -0.15174 0
M  V30 723 C 70.0475 -3.12201 -0.223553 0
M  V30 724 C 70.5225 -4.57913 -0.0892295 0
M  V30 725 N 72.0135 -4.6297 -0.145808 0
M  V30 726 C 72.7485 -5.73362 -0.0658459 0
M  V30 727 N 72.2445 -6.92769 0.0659282 0
M  V30 728 N 74.0375 -5.6197 -0.12075 0
M  V30 729 H 66.1885 -1.89416 0.961014 0
M  V30 730 H 68.4515 -0.871862 0.372237 0
M  V30 731 H 68.1575 -3.42073 0.817254 0
M  V30 732 H 68.0315 -3.65892 -0.916692 0
M  V30 733 H 70.4185 -2.70349 -1.18301 0
M  V30 734 H 70.4995 -2.49323 0.571994 0
M  V30 735 H 70.1435 -5.00448 0.866867 0
M  V30 736 H 70.0735 -5.18786 -0.903802 0
M  V30 737 H 72.5645 -3.7709 -0.247286 0
M  V30 738 H 72.8775 -7.72707 0.119905 0
M  V30 739 H 71.2225 -6.94927 0.100885 0
M  V30 740 H 74.4135 -4.67572 -0.222187 0
M  V30 741 H 74.5865 -6.47977 -0.0549735 0
M  V30 742 N 67.9926 0.231505 -1.5589 0
M  V30 743 C 69.4086 0.580748 -1.48659 0
M  V30 744 C 69.6086 1.87617 -0.73498 0
M  V30 745 O 68.6646 2.51046 -0.270586 0
M  V30 746 C 69.9776 0.669202 -2.93159 0
M  V30 747 C 71.5256 0.760499 -3.03621 0
M  V30 748 C 72.0006 0.880383 -4.49459 0
M  V30 749 N 73.4916 0.944861 -4.53461 0
M  V30 750 C 74.2266 1.05716 -5.63571 0
M  V30 751 N 73.7226 1.13403 -6.83456 0
M  V30 752 N 75.5156 1.09152 -5.514 0
M  V30 753 H 67.6666 -0.618695 -2.03189 0
M  V30 754 H 69.9296 -0.215728 -0.923128 0
M  V30 755 H 69.6356 -0.212904 -3.51055 0
M  V30 756 H 69.5096 1.5361 -3.44505 0
M  V30 757 H 71.8966 1.63305 -2.45796 0
M  V30 758 H 71.9776 -0.131864 -2.5546 0
M  V30 759 H 71.6216 0.0123284 -5.07899 0
M  V30 760 H 71.5516 1.78802 -4.95316 0
M  V30 761 H 74.0426 0.896176 -3.6712 0
M  V30 762 H 74.3556 1.21921 -7.63122 0
M  V30 763 H 72.7006 1.10333 -6.86186 0
M  V30 764 H 75.8916 1.02805 -4.56671 0
M  V30 765 H 76.0646 1.17558 -6.37247 0
M  V30 766 N 69.4707 1.49531 0.497807 0
M  V30 767 C 70.6957 1.63159 1.28039 0
M  V30 768 C 71.1207 0.30418 1.85624 0
M  V30 769 O 70.4787 -0.728618 1.66015 0
M  V30 770 C 70.5267 2.70537 2.38416 0
M  V30 771 O 69.6307 2.29931 3.42353 0
M  V30 772 H 68.9717 0.546001 0.377861 0
M  V30 773 H 71.5017 1.9574 0.59558 0
M  V30 774 H 71.5117 2.92802 2.84132 0
M  V30 775 H 70.1867 3.6689 1.95869 0
M  V30 776 H 68.7637 2.18009 3.02533 0
M  V30 777 N 70.9488 -0.749086 1.3866 0
M  V30 778 C 72.2258 -1.4992 1.25632 0
M  V30 779 C 72.6058 -2.10633 -0.140317 0
M  V30 780 O 71.9538 -1.97437 -1.15025 0
M  V30 781 C 72.1638 -2.56195 2.36992 0
M  V30 782 C 73.5118 -3.22972 2.75634 0
M  V30 783 O 74.5358 -2.66502 2.36337 0
M  V30 784 O 73.3948 -4.25122 3.43415 0
M  V30 785 H 70.4888 -0.665067 0.491544 0
M  V30 786 H 73.0348 -0.784113 1.50498 0
M  V30 787 H 71.8068 -2.09612 3.30422 0
M  V30 788 H 71.4298 -3.35279 2.13714 0
M  V30 789 N 72.4269 -1.23603 -0.977757 0
M  V30 790 C 73.3369 -1.03632 -2.1047 0
M  V30 791 C 74.3529 0.0199435 -1.73989 0
M  V30 792 O 75.5289 -0.176076 -2.00629 0
M  V30 793 C 72.5939 -0.63276 -3.40877 0
M  V30 794 C 71.6549 -1.76437 -3.91367 0
M  V30 795 C 70.8879 -1.37997 -5.15551 0
M  V30 796 O 71.1109 -0.265357 -5.69782 0
M  V30 797 O 70.0449 -2.20201 -5.60174 0
M  V30 798 H 73.8709 -1.98086 -2.30208 0
M  V30 799 H 71.4559 -1.02332 -1.08851 0
M  V30 800 H 73.3379 -0.418761 -4.19314 0
M  V30 801 H 72.0129 0.282754 -3.22463 0
M  V30 802 H 70.9199 -2.03304 -3.14036 0
M  V30 803 H 72.2529 -2.6583 -4.14241 0
M  V30 804 N 73.905 1.17692 -1.04816 0
M  V30 805 C 74.868 2.19787 -0.650117 0
M  V30 806 C 75.868 1.58044 0.296427 0
M  V30 807 O 77.058 1.74012 0.0808097 0
M  V30 808 C 74.19 3.40869 0.0456987 0
M  V30 809 H 75.383 2.56516 -1.5537 0
M  V30 810 H 72.936 1.31708 -0.841594 0
M  V30 811 H 73.671 3.09681 0.962726 0
M  V30 812 H 73.456 3.86928 -0.634727 0
M  V30 813 H 74.946 4.16445 0.310432 0
M  V30 814 N 75.3831 0.828654 1.34056 0
M  V30 815 C 76.3131 0.269443 2.3194 0
M  V30 816 C 77.2941 -0.617247 1.58506 0
M  V30 817 O 78.4791 -0.542931 1.86456 0
M  V30 818 C 75.6091 -0.564793 3.42677 0
M  V30 819 C 74.5631 0.225241 4.27407 0
M  V30 820 C 73.8891 -0.7321 5.29664 0
M  V30 821 C 75.1891 1.43663 5.02154 0
M  V30 822 H 76.8831 1.08728 2.7896 0
M  V30 823 H 74.4291 0.524283 1.34117 0
M  V30 824 H 76.3821 -0.966233 4.10173 0
M  V30 825 H 75.1061 -1.41574 2.9432 0
M  V30 826 H 73.7651 0.608117 3.61521 0
M  V30 827 H 73.4131 -1.57916 4.77568 0
M  V30 828 H 73.1131 -0.20767 5.87233 0
M  V30 829 H 74.6371 -1.13128 6.00029 0
M  V30 830 H 76.0511 1.1089 5.62473 0
M  V30 831 H 74.4481 1.89711 5.69324 0
M  V30 832 H 75.5181 2.21181 4.31517 0
M  V30 833 N 76.8612 -1.46375 0.584142 0
M  V30 834 C 78.2772 -1.57694 0.245929 0
M  V30 835 C 78.4772 -1.57903 -1.25175 0
M  V30 836 O 77.5332 -1.49676 -2.03355 0
M  V30 837 C 78.8462 -2.87028 0.896402 0
M  V30 838 C 80.3942 -3.00662 0.870127 0
M  V30 839 C 80.8692 -4.32734 1.50017 0
M  V30 840 N 82.3602 -4.39436 1.46458 0
M  V30 841 C 83.0952 -5.40248 1.92144 0
M  V30 842 N 82.5912 -6.47726 2.4581 0
M  V30 843 N 84.3842 -5.31459 1.83052 0
M  V30 844 H 76.5352 -1.44483 1.55687 0
M  V30 845 H 78.7982 -0.689291 0.650831 0
M  V30 846 H 78.5042 -2.9269 1.95002 0
M  V30 847 H 78.3782 -3.75014 0.405486 0
M  V30 848 H 80.7652 -2.94581 -0.174871 0
M  V30 849 H 80.8462 -2.14148 1.39908 0
M  V30 850 H 80.4902 -4.39573 2.54437 0
M  V30 851 H 80.4202 -5.18025 0.946432 0
M  V30 852 H 82.9112 -3.62367 1.07231 0
M  V30 853 H 83.2242 -7.20863 2.78525 0
M  V30 854 H 81.5692 -6.48542 2.49836 0
M  V30 855 H 84.7602 -4.46396 1.40883 0
M  V30 856 H 84.9332 -6.09881 2.18973 0
M  V30 857 N 78.3393 -0.321999 -1.54275 0
M  V30 858 C 79.5853 0.281461 -2.00837 0
M  V30 859 C 79.9183 1.51909 -1.20985 0
M  V30 860 O 79.1933 1.923 -0.291733 0
M  V30 861 C 79.4763 0.617162 -3.54772 0
M  V30 862 C 79.3293 -0.631064 -4.45351 0
M  V30 863 C 80.6483 1.43542 -4.16033 0
M  V30 864 H 77.7673 0.100826 -0.730071 0
M  V30 865 H 80.4093 -0.438268 -1.84876 0
M  V30 866 H 78.5593 1.23034 -3.68504 0
M  V30 867 H 80.2313 -1.26934 -4.43492 0
M  V30 868 H 78.4743 -1.26025 -4.15091 0
M  V30 869 H 79.1453 -0.351735 -5.50878 0
M  V30 870 H 81.6213 0.917134 -4.05867 0
M  V30 871 H 80.4973 1.63907 -5.23856 0
M  V30 872 H 80.7583 2.43108 -3.69257 0
M  V30 873 N 79.8174 1.5752 -0.0501392 0
M  V30 874 C 80.7654 2.12651 0.942459 0
M  V30 875 C 81.7594 1.05807 1.32292 0
M  V30 876 O 82.9654 1.24217 1.3027 0
M  V30 877 H 79.3404 0.679673 0.321789 0
M  V30 878 H 81.3114 2.94951 0.452356 0
M  V30 879 C 80.0604 2.68565 2.20836 0
M  V30 880 H 79.3834 3.50439 1.92439 0
M  V30 881 H 80.8234 3.10761 2.8845 0
M  V30 882 C 79.2824 1.62291 2.95234 0
M  V30 883 O 79.8124 1.03508 3.88135 0
M  V30 884 N 78.0184 1.33836 2.57946 0
M  V30 885 H 77.5654 1.81826 1.82475 0
M  V30 886 H 77.5234 0.629595 3.08032 0
M  V30 887 N 81.2955 -0.223234 1.56011 0
M  V30 888 C 82.5415 -0.949279 1.79211 0
M  V30 889 C 82.8745 -1.84054 0.619494 0
M  V30 890 O 82.1495 -1.90726 -0.381317 0
M  V30 891 C 82.4325 -1.78965 3.12479 0
M  V30 892 C 82.2855 -0.924997 4.40186 0
M  V30 893 C 83.6045 -2.76774 3.42175 0
M  V30 894 H 80.7235 -0.343676 0.651963 0
M  V30 895 H 83.3655 -0.218253 1.88742 0
M  V30 896 H 81.5155 -2.41291 3.04485 0
M  V30 897 H 83.1875 -0.318615 4.60198 0
M  V30 898 H 81.4305 -0.230344 4.33188 0
M  V30 899 H 82.1015 -1.54735 5.29869 0
M  V30 900 H 84.5775 -2.24584 3.50287 0
M  V30 901 H 83.4535 -3.32678 4.36597 0
M  V30 902 H 83.7145 -3.54429 2.64258 0
M  V30 903 N 82.7736 -1.49793 -0.48987 0
M  V30 904 C 84.0216 -1.59525 -1.24081 0
M  V30 905 C 84.3426 -0.288953 -1.92847 0
M  V30 906 O 83.6126 0.692436 -1.83254 0
M  V30 907 H 82.1926 -0.587796 -0.460983 0
M  V30 908 H 84.8546 -1.86477 -0.566778 0
M  V30 909 H 83.9506 -2.39696 -1.99881 0
M  V30 910 N 84.2517 0.741722 -1.39055 0
M  V30 911 C 85.4997 1.49818 -1.35643 0
M  V30 912 C 85.8207 1.94938 0.0491642 0
M  V30 913 O 85.0907 1.68505 0.999141 0
M  V30 914 H 83.6707 0.555755 -0.499144 0
M  V30 915 H 86.3327 0.880957 -1.73854 0
M  V30 916 H 85.4287 2.38348 -2.01486 0
M  V30 917 N 85.7298 1.2412 0.971189 0
M  V30 918 C 86.9758 1.08041 1.71625 0
M  V30 919 C 87.3088 -0.380407 1.90438 0
M  V30 920 O 86.5838 -1.28127 1.46334 0
M  V30 921 C 86.8668 1.81682 3.10908 0
M  V30 922 C 86.7198 3.35493 2.99608 0
M  V30 923 C 88.0388 1.58671 4.10501 0
M  V30 924 H 85.1578 0.39388 0.622919 0
M  V30 925 H 87.7998 1.52743 1.13003 0
M  V30 926 H 85.9498 1.43684 3.60953 0
M  V30 927 H 87.6218 3.83068 2.57015 0
M  V30 928 H 85.8648 3.64052 2.35899 0
M  V30 929 H 86.5358 3.82217 3.98264 0
M  V30 930 H 89.0118 1.91719 3.69301 0
M  V30 931 H 87.8878 2.1266 5.06031 0
M  V30 932 H 88.1488 0.524161 4.38982 0
M  V30 933 N 87.2079 -1.17134 1.05439 0
M  V30 934 C 88.6239 -1.39454 0.776201 0
M  V30 935 C 88.8239 -1.91454 -0.628307 0
M  V30 936 O 87.8799 -2.10777 -1.39031 0
M  V30 937 C 89.1929 -2.38305 1.83388 0
M  V30 938 C 90.7409 -2.52006 1.85639 0
M  V30 939 C 91.2159 -3.54133 2.90437 0
M  V30 940 N 92.7069 -3.61653 2.89415 0
M  V30 941 C 93.4419 -4.4044 3.67152 0
M  V30 942 N 92.9379 -5.22721 4.54681 0
M  V30 943 N 94.7309 -4.35337 3.55581 0
M  V30 944 H 86.8819 -0.817134 1.96053 0
M  V30 945 H 89.1449 -0.421626 0.849079 0
M  V30 946 H 88.8509 -2.07173 2.84204 0
M  V30 947 H 88.7249 -3.37841 1.67761 0
M  V30 948 H 91.1119 -2.82447 0.85486 0
M  V30 949 H 91.1929 -1.52537 2.05344 0
M  V30 950 H 90.8369 -3.24431 3.90777 0
M  V30 951 H 90.7669 -4.53313 2.67983 0
M  V30 952 H 93.2579 -3.02909 2.25952 0
M  V30 953 H 93.5709 -5.80027 5.10674 0
M  V30 954 H 91.9159 -5.22093 4.58741 0
M  V30 955 H 95.1069 -3.70112 2.86592 0
M  V30 956 H 95.2799 -4.96494 4.1641 0
M  V30 957 N 88.686 -0.835752 -1.33615 0
M  V30 958 C 90.102 -0.523139 -1.50783 0
M  V30 959 C 90.302 0.950171 -1.77691 0
M  V30 960 O 89.358 1.73411 -1.83534 0
M  V30 961 C 90.671 -1.39378 -2.66448 0
M  V30 962 C 92.219 -1.39223 -2.80332 0
M  V30 963 C 92.694 -2.24765 -3.99055 0
M  V30 964 N 94.185 -2.22458 -4.06284 0
M  V30 965 C 94.92 -2.85386 -4.97336 0
M  V30 966 N 94.416 -3.57354 -5.93523 0
M  V30 967 N 96.209 -2.74872 -4.90308 0
M  V30 968 H 88.36 -1.78952 -1.14411 0
M  V30 969 H 90.623 -0.763297 -0.562212 0
M  V30 970 H 90.329 -2.44061 -2.53234 0
M  V30 971 H 90.203 -1.0676 -3.61776 0
M  V30 972 H 92.59 -0.353136 -2.92979 0
M  V30 973 H 92.671 -1.75846 -1.85773 0
M  V30 974 H 92.315 -3.28732 -3.87167 0
M  V30 975 H 92.245 -1.85485 -4.92852 0
M  V30 976 H 94.736 -1.70119 -3.37443 0
M  V30 977 H 95.049 -4.02584 -6.59656 0
M  V30 978 H 93.394 -3.61461 -5.93608 0
M  V30 979 H 96.585 -2.18213 -4.14126 0
M  V30 980 H 96.758 -3.24199 -5.61069 0
M  V30 981 N 90.1641 1.46063 -0.591896 0
M  V30 982 C 91.0961 2.28539 0.174001 0
M  V30 983 C 92.1091 1.39047 0.846753 0
M  V30 984 O 93.2981 1.63564 0.714774 0
M  V30 985 C 90.3981 3.14347 1.26645 0
M  V30 986 C 89.5711 4.32021 0.683856 0
M  V30 987 C 88.6301 4.99157 1.66518 0
M  V30 988 O 87.6561 5.56458 1.19763 0
M  V30 989 N 88.8581 4.97005 2.99943 0
M  V30 990 H 91.6231 2.94911 -0.533633 0
M  V30 991 H 89.1841 1.56077 -0.430294 0
M  V30 992 H 91.1761 3.56125 1.92242 0
M  V30 993 H 89.7461 2.49988 1.87682 0
M  V30 994 H 88.9661 3.93915 -0.1498 0
M  V30 995 H 90.2541 5.08059 0.274567 0
M  V30 996 H 89.6521 4.51714 3.40545 0
M  V30 997 H 88.2091 5.42696 3.61004 0
M  V30 998 N 91.6422 0.330177 1.54103 0
M  V30 999 C 92.5722 -0.525353 2.27513 0
M  V30 1000 C 93.5532 -1.11383 1.2856 0
M  V30 1001 O 94.7382 -1.13773 1.57383 0
M  V30 1002 C 91.8682 -1.6831 3.03791 0
M  V30 1003 C 90.8222 -1.2236 4.10137 0
M  V30 1004 C 90.1482 -2.46882 4.74293 0
M  V30 1005 C 91.4482 -0.333697 5.21233 0
M  V30 1006 H 93.1422 0.087013 2.99274 0
M  V30 1007 H 90.6882 0.0432893 1.43935 0
M  V30 1008 H 92.6412 -2.28795 3.5388 0
M  V30 1009 H 91.3652 -2.32216 2.29659 0
M  V30 1010 H 90.0242 -0.64165 3.60941 0
M  V30 1011 H 89.6722 -3.09165 3.96769 0
M  V30 1012 H 89.3722 -2.16825 5.46133 0
M  V30 1013 H 90.8962 -3.08117 5.27159 0
M  V30 1014 H 92.3102 -0.845013 5.67038 0
M  V30 1015 H 90.7072 -0.125612 5.99969 0
M  V30 1016 H 91.7772 0.633724 4.80741 0
M  V30 1017 N 93.1203 -1.57491 0.0584922 0
M  V30 1018 C 94.3453 -1.97711 -0.62652 0
M  V30 1019 C 94.7703 -0.936132 -1.63151 0
M  V30 1020 O 94.1283 0.099811 -1.81025 0
M  V30 1021 C 94.1763 -3.36989 -1.28338 0
M  V30 1022 O 93.2803 -3.35433 -2.39913 0
M  V30 1023 H 92.6213 -0.643868 -0.162266 0
M  V30 1024 H 95.1513 -2.04193 0.129064 0
M  V30 1025 H 95.1613 -3.73879 -1.63335 0
M  V30 1026 H 93.8363 -4.12289 -0.546889 0
M  V30 1027 H 92.4133 -3.10298 -2.06809 0
M  V30 1028 N 94.5984 0.214957 -1.56127 0
M  V30 1029 C 95.5614 1.24997 -1.92116 0
M  V30 1030 C 96.5614 1.39467 -0.800344 0
M  V30 1031 O 97.7514 1.37619 -1.06802 0
M  V30 1032 C 94.8834 2.62271 -2.17777 0
M  V30 1033 H 96.0764 0.942875 -2.84693 0
M  V30 1034 H 93.6294 0.455654 -1.49511 0
M  V30 1035 H 94.3644 2.98068 -1.27773 0
M  V30 1036 H 94.1494 2.53143 -2.99434 0
M  V30 1037 H 95.6394 3.36946 -2.46693 0
M  V30 1038 N 96.0765 1.50051 0.48192 0
M  V30 1039 C 97.4925 1.37237 0.814756 0
M  V30 1040 C 97.6925 0.420109 1.97072 0
M  V30 1041 O 96.7485 -0.141246 2.52105 0
M  V30 1042 C 98.0615 2.78375 1.13701 0
M  V30 1043 C 99.6095 2.87213 1.2441 0
M  V30 1044 C 100.084 4.29161 1.59954 0
M  V30 1045 N 101.575 4.32061 1.66967 0
M  V30 1046 C 102.31 5.38879 1.95952 0
M  V30 1047 N 101.806 6.55918 2.23031 0
M  V30 1048 N 103.599 5.26312 1.97363 0
M  V30 1049 H 95.7505 2.10546 -0.28005 0
M  V30 1050 H 98.0135 0.945921 -0.0627454 0
M  V30 1051 H 97.7195 3.49845 0.360787 0
M  V30 1052 H 97.5935 3.14941 2.07586 0
M  V30 1053 H 99.9805 2.15969 2.01101 0
M  V30 1054 H 100.061 2.54204 0.285299 0
M  V30 1055 H 99.7055 5.00938 0.838067 0
M  V30 1056 H 99.6355 4.59648 2.56966 0
M  V30 1057 H 102.126 3.47661 1.48123 0
M  V30 1058 H 102.439 7.33139 2.44391 0
M  V30 1059 H 100.784 6.59112 2.20447 0
M  V30 1060 H 103.975 4.33876 1.75697 0
M  V30 1061 H 104.148 6.09649 2.19618 0
M  V30 1062 N 97.5546 -0.734337 1.39446 0
M  V30 1063 C 98.5176 -1.83004 1.37994 0
M  V30 1064 C 99.5176 -1.58397 0.276938 0
M  V30 1065 O 100.708 -1.65785 0.534875 0
M  V30 1066 C 97.8396 -3.20802 1.1532 0
M  V30 1067 H 99.0326 -1.85694 2.35494 0
M  V30 1068 H 96.5856 -0.938059 1.25021 0
M  V30 1069 H 97.3206 -3.23772 0.185036 0
M  V30 1070 H 97.1056 -3.4006 1.95197 0
M  V30 1071 H 98.5956 -4.00862 1.17046 0
M  V30 1072 N 99.0327 -1.24633 -0.964593 0
M  V30 1073 C 99.9627 -1.06611 -2.07741 0
M  V30 1074 C 100.944 0.0218666 -1.70086 0
M  V30 1075 O 102.129 -0.145793 -1.93652 0
M  V30 1076 C 99.2587 -0.673444 -3.40708 0
M  V30 1077 C 98.2127 -1.71054 -3.92332 0
M  V30 1078 C 97.5387 -1.17285 -5.21678 0
M  V30 1079 C 98.8387 -3.10718 -4.19824 0
M  V30 1080 H 100.533 -1.99693 -2.23076 0
M  V30 1081 H 98.0787 -0.96152 -1.07195 0
M  V30 1082 H 100.032 -0.534345 -4.17998 0
M  V30 1083 H 98.7557 0.293073 -3.25282 0
M  V30 1084 H 97.4147 -1.83791 -3.17201 0
M  V30 1085 H 97.0627 -0.196847 -5.02615 0
M  V30 1086 H 96.7627 -1.86592 -5.57187 0
M  V30 1087 H 98.2867 -1.04593 -6.01575 0
M  V30 1088 H 99.7007 -3.01192 -4.87808 0
M  V30 1089 H 98.0977 -3.77406 -4.66567 0
M  V30 1090 H 99.1677 -3.58524 -3.26479 0
M  V30 1091 N 100.511 1.16574 -1.06058 0
M  V30 1092 C 101.474 2.19085 -0.673392 0
M  V30 1093 C 102.474 1.5835 0.279648 0
M  V30 1094 O 103.664 1.74088 0.0623488 0
M  V30 1095 C 100.796 3.40899 0.00954234 0
M  V30 1096 H 101.989 2.54853 -1.58081 0
M  V30 1097 H 99.5418 1.30808 -0.855516 0
M  V30 1098 H 100.277 3.10684 0.929826 0
M  V30 1099 H 100.062 3.86233 -0.67573 0
M  V30 1100 H 101.552 4.1675 0.266245 0
M  V30 1101 N 101.989 0.842826 1.3317 0
M  V30 1102 C 103.405 0.531128 1.50503 0
M  V30 1103 C 103.605 -0.940734 1.78192 0
M  V30 1104 O 102.661 -1.72436 1.84451 0
M  V30 1105 C 103.974 1.40789 2.65705 0
M  V30 1106 C 105.522 1.40708 2.79589 0
M  V30 1107 C 105.997 2.26878 3.97857 0
M  V30 1108 N 107.488 2.24609 4.05099 0
M  V30 1109 C 108.223 2.88019 4.95815 0
M  V30 1110 N 107.719 3.60496 5.9162 0
M  V30 1111 N 109.512 2.77469 4.88843 0
M  V30 1112 H 101.663 1.79557 1.1346 0
M  V30 1113 H 103.926 0.766267 0.558156 0
M  V30 1114 H 103.632 2.454 2.51936 0
M  V30 1115 H 103.506 1.08677 3.61205 0
M  V30 1116 H 105.893 0.368668 2.92788 0
M  V30 1117 H 105.974 1.76829 1.84838 0
M  V30 1118 H 105.618 3.3078 3.85418 0
M  V30 1119 H 105.548 1.88096 4.91861 0
M  V30 1120 H 108.039 1.71906 3.36536 0
M  V30 1121 H 108.352 4.06076 6.57512 0
M  V30 1122 H 106.697 3.64604 5.91683 0
M  V30 1123 H 109.888 2.20406 4.12963 0
M  V30 1124 H 110.061 3.2717 5.59342 0
M  V30 1125 N 103.467 -1.45747 0.599634 0
M  V30 1126 C 104.714 -2.02292 0.0917284 0
M  V30 1127 C 105.042 -1.46906 -1.27472 0
M  V30 1128 O 104.297 -0.630652 -1.8526 0
M  V30 1129 C 104.596 -3.57399 -0.00602758 0
M  V30 1130 C 104.262 -4.31902 1.29503 0
M  V30 1131 C 102.924 -4.51974 1.65144 0
M  V30 1132 C 105.276 -4.74551 2.15525 0
M  V30 1133 C 102.604 -5.11949 2.86574 0
M  V30 1134 C 104.956 -5.35868 3.36196 0
M  V30 1135 C 103.62 -5.54165 3.72099 0
M  V30 1136 H 102.89 -0.740239 0.0335658 0
M  V30 1137 H 105.537 -1.7491 0.779661 0
M  V30 1138 H 103.842 -3.84014 -0.777183 0
M  V30 1139 H 105.539 -3.98846 -0.415038 0
M  V30 1140 H 102.129 -4.16588 1.00761 0
M  V30 1141 H 106.313 -4.58784 1.8929 0
M  V30 1142 H 101.569 -5.24305 3.14507 0
M  V30 1143 H 105.743 -5.6787 4.03109 0
M  V30 1144 H 103.37 -6.00406 4.6628 0
M  V30 1145 N 104.945 -0.338344 -1.53925 0
M  V30 1146 C 106.356 0.146651 -1.86123 0
M  V30 1147 C 106.707 1.5042 -1.2597 0
M  V30 1148 O 105.832 2.08723 -0.571294 0
M  V30 1149 C 106.427 0.272879 -3.37699 0
M  V30 1150 C 104.986 0.702103 -3.69794 0
M  V30 1151 C 104.133 -0.167304 -2.76795 0
M  V30 1152 H 107.084 -0.558123 -1.48562 0
M  V30 1153 H 107.105 1.10128 -3.64214 0
M  V30 1154 H 106.617 -0.715307 -3.81451 0
M  V30 1155 H 104.718 1.6995 -3.31584 0
M  V30 1156 H 104.831 0.495604 -4.7653 0
M  V30 1157 H 103.195 0.359527 -2.5215 0
M  V30 1158 H 103.978 -1.15253 -3.23375 0
M  V30 1159 N 106.423 1.57458 -0.0668435 0
M  V30 1160 C 107.671 1.92919 0.602214 0
M  V30 1161 C 107.992 0.947215 1.70449 0
M  V30 1162 O 107.262 -0.00544117 1.95899 0
M  V30 1163 H 105.842 0.71217 0.22544 0
M  V30 1164 H 108.504 1.94508 -0.123535 0
M  V30 1165 H 107.6 2.94589 1.03073 0
M  V30 1166 N 107.901 -0.206675 1.56239 0
M  V30 1167 C 109.129 -0.945345 1.8404 0
M  V30 1168 C 109.544 -1.77336 0.647885 0
M  V30 1169 O 108.901 -1.78425 -0.383511 0
M  V30 1170 C 108.952 -1.8509 3.10522 0
M  V30 1171 O 108.673 -1.05634 4.25174 0
M  V30 1172 C 110.174 -2.70222 3.51418 0
M  V30 1173 H 107.394 -0.276372 0.61144 0
M  V30 1174 H 109.938 -0.217417 2.03341 0
M  V30 1175 H 108.093 -2.53259 2.93153 0
M  V30 1176 H 108.507 -1.67238 4.97124 0
M  V30 1177 H 109.981 -3.29438 4.42916 0
M  V30 1178 H 110.458 -3.43358 2.73864 0
M  V30 1179 H 111.064 -2.07443 3.71278 0
M  V30 1180 N 109.379 -1.50304 -0.473955 0
M  V30 1181 C 110.795 -1.37667 -0.807466 0
M  V30 1182 C 110.995 -0.430555 -1.96846 0
M  V30 1183 O 110.051 0.127874 -2.52176 0
M  V30 1184 C 111.364 -2.78974 -1.12223 0
M  V30 1185 C 112.912 -2.87868 -1.22885 0
M  V30 1186 C 113.387 -4.30003 -1.57676 0
M  V30 1187 N 114.878 -4.3294 -1.64673 0
M  V30 1188 C 115.613 -5.3991 -1.93091 0
M  V30 1189 N 115.109 -6.57092 -2.1955 0
M  V30 1190 N 116.902 -5.27351 -1.94569 0
M  V30 1191 H 109.053 -2.10394 0.291212 0
M  V30 1192 H 111.316 -0.945575 0.0677609 0
M  V30 1193 H 111.022 -3.50031 -0.342229 0
M  V30 1194 H 110.896 -3.16038 -2.05913 0
M  V30 1195 H 113.283 -2.17032 -1.99953 0
M  V30 1196 H 113.364 -2.54352 -0.271814 0
M  V30 1197 H 113.008 -5.01375 -0.81149 0
M  V30 1198 H 112.938 -4.61004 -2.54525 0
M  V30 1199 H 115.429 -3.48441 -1.46277 0
M  V30 1200 H 115.742 -7.34425 -2.405 0
M  V30 1201 H 114.087 -6.60272 -2.16948 0
M  V30 1202 H 117.278 -4.34801 -1.73394 0
M  V30 1203 H 117.451 -6.10805 -2.16381 0
M  V30 1204 N 110.857 0.726932 -1.39834 0
M  V30 1205 C 111.787 1.85405 -1.41941 0
M  V30 1206 C 112.768 1.67751 -0.281728 0
M  V30 1207 O 113.953 1.8795 -0.488717 0
M  V30 1208 C 111.083 3.23243 -1.2701 0
M  V30 1209 C 110.037 3.55549 -2.38262 0
M  V30 1210 C 109.363 4.9241 -2.08415 0
M  V30 1211 C 110.663 3.577 -3.80589 0
M  V30 1212 H 112.357 1.83899 -2.36266 0
M  V30 1213 H 109.903 0.883349 -1.13723 0
M  V30 1214 H 111.856 4.01775 -1.27103 0
M  V30 1215 H 110.58 3.25296 -0.291564 0
M  V30 1216 H 109.239 2.79351 -2.37399 0
M  V30 1217 H 108.887 4.91052 -1.0898 0
M  V30 1218 H 108.587 5.14992 -2.82943 0
M  V30 1219 H 110.111 5.73289 -2.10171 0
M  V30 1220 H 111.525 4.26293 -3.83337 0
M  V30 1221 H 109.922 3.91804 -4.54543 0
M  V30 1222 H 110.992 2.57328 -4.10987 0
M  V30 1223 N 112.336 1.25143 0.95797 0
M  V30 1224 C 113.584 1.09476 1.69881 0
M  V30 1225 C 113.905 -0.365502 1.91544 0
M  V30 1226 O 113.175 -1.25985 1.50015 0
M  V30 1227 H 111.755 0.402128 0.629525 0
M  V30 1228 H 114.417 1.57214 1.15194 0
M  V30 1229 H 113.513 1.60046 2.6794 0
M  V30 1230 N 113.814 -1.1601 1.06675 0
M  V30 1231 C 115.23 -1.38622 0.790948 0
M  V30 1232 C 115.43 -1.92109 -0.607965 0
M  V30 1233 O 114.486 -2.12239 -1.36787 0
M  V30 1234 C 115.799 -2.36347 1.85905 0
M  V30 1235 C 117.347 -2.50023 1.88301 0
M  V30 1236 C 117.822 -3.51033 2.94176 0
M  V30 1237 N 119.313 -3.58563 2.93235 0
M  V30 1238 C 120.048 -4.36521 3.71803 0
M  V30 1239 N 119.544 -5.17869 4.602 0
M  V30 1240 N 121.337 -4.31541 3.60178 0
M  V30 1241 H 113.488 -0.796294 1.96908 0
M  V30 1242 H 115.751 -0.412597 0.853503 0
M  V30 1243 H 115.457 -2.04147 2.86386 0
M  V30 1244 H 115.331 -3.36042 1.71334 0
M  V30 1245 H 117.718 -2.81524 0.884769 0
M  V30 1246 H 117.799 -1.5035 2.06951 0
M  V30 1247 H 117.443 -3.20268 3.94196 0
M  V30 1248 H 117.373 -4.50445 2.72776 0
M  V30 1249 H 119.864 -3.00496 2.29152 0
M  V30 1250 H 120.177 -5.74578 5.16797 0
M  V30 1251 H 118.522 -5.17199 4.64253 0
M  V30 1252 H 121.713 -3.67051 2.90502 0
M  V30 1253 H 121.886 -4.9205 4.21653 0
M  V30 1254 N 115.292 -0.849877 -1.32721 0
M  V30 1255 C 116.222 -0.306308 -2.31482 0
M  V30 1256 C 117.203 0.591952 -1.59468 0
M  V30 1257 O 118.388 0.513199 -1.87296 0
M  V30 1258 C 115.518 0.510204 -3.43532 0
M  V30 1259 C 114.472 -0.293209 -4.26994 0
M  V30 1260 C 113.798 0.647743 -5.30762 0
M  V30 1261 C 115.098 -1.51634 -4.99804 0
M  V30 1262 H 116.792 -1.13153 -2.77195 0
M  V30 1263 H 114.338 -0.545553 -1.33266 0
M  V30 1264 H 116.291 0.900856 -4.11658 0
M  V30 1265 H 115.015 1.36874 -2.96535 0
M  V30 1266 H 113.674 -0.665555 -3.60508 0
M  V30 1267 H 113.322 1.50299 -4.8002 0
M  V30 1268 H 113.022 0.11422 -5.87489 0
M  V30 1269 H 114.546 1.03567 -6.01753 0
M  V30 1270 H 115.96 -1.19824 -5.60638 0
M  V30 1271 H 114.357 -1.98745 -5.66234 0
M  V30 1272 H 115.427 -2.28018 -4.27943 0
M  V30 1273 N 116.77 1.45427 -0.607355 0
M  V30 1274 C 117.702 2.2871 0.149752 0
M  V30 1275 C 118.715 1.39937 0.831958 0
M  V30 1276 O 119.904 1.64313 0.697385 0
M  V30 1277 C 117.004 3.15673 1.23304 0
M  V30 1278 C 116.177 4.32722 0.637996 0
M  V30 1279 C 115.236 5.00895 1.61215 0
M  V30 1280 O 114.262 5.57697 1.13854 0
M  V30 1281 N 115.464 5.00159 2.94655 0
M  V30 1282 H 118.229 2.94328 -0.564882 0
M  V30 1283 H 115.79 1.55612 -0.446823 0
M  V30 1284 H 117.782 3.58144 1.88454 0
M  V30 1285 H 116.352 2.51965 1.8502 0
M  V30 1286 H 115.572 3.93734 -0.191572 0
M  V30 1287 H 116.86 5.08321 0.220665 0
M  V30 1288 H 116.258 4.553 3.35735 0
M  V30 1289 H 114.815 5.46495 3.55228 0
M  V30 1290 N 118.248 0.346503 1.53744 0
M  V30 1291 C 119.211 -0.496439 2.23759 0
M  V30 1292 C 120.211 -1.0252 1.2388 0
M  V30 1293 O 121.401 -0.913974 1.48297 0
M  V30 1294 C 118.533 -1.69187 2.95954 0
M  V30 1295 H 119.726 0.115952 2.99676 0
M  V30 1296 H 117.279 0.0978939 1.55993 0
M  V30 1297 H 118.014 -2.34288 2.24231 0
M  V30 1298 H 117.799 -1.31989 3.69217 0
M  V30 1299 H 119.289 -2.28969 3.49232 0
M  V30 1300 N 119.726 -1.57421 0.075193 0
M  V30 1301 C 120.689 -2.11791 -0.876203 0
M  V30 1302 C 121.689 -1.04268 -1.22412 0
M  V30 1303 O 122.879 -1.30242 -1.15684 0
M  V30 1304 C 120.011 -2.62207 -2.17854 0
M  V30 1305 H 121.204 -2.9716 -0.40444 0
M  V30 1306 H 118.757 -1.55333 -0.173557 0
M  V30 1307 H 119.492 -1.803 -2.6956 0
M  V30 1308 H 119.277 -3.40802 -1.93897 0
M  V30 1309 H 120.767 -3.04335 -2.85955 0
M  V30 1310 N 121.204 0.198386 -1.56346 0
M  V30 1311 C 122.167 1.22952 -1.93431 0
M  V30 1312 C 123.167 1.38611 -0.815092 0
M  V30 1313 O 124.357 1.36479 -1.08255 0
M  V30 1314 C 121.489 2.59946 -2.20546 0
M  V30 1315 H 122.682 0.912626 -2.85677 0
M  V30 1316 H 120.235 0.43977 -1.49986 0
M  V30 1317 H 120.97 2.96696 -1.30927 0
M  V30 1318 H 120.755 2.49953 -3.02102 0
M  V30 1319 H 122.245 3.3431 -2.50253 0
M  V30 1320 N 122.682 1.50554 0.465978 0
M  V30 1321 C 123.907 1.65838 1.24549 0
M  V30 1322 C 124.332 0.343486 1.84937 0
M  V30 1323 O 123.69 -0.69324 1.67523 0
M  V30 1324 C 123.738 2.75533 2.32624 0
M  V30 1325 O 122.842 2.37142 3.37398 0
M  V30 1326 H 122.183 0.553893 0.366194 0
M  V30 1327 H 124.713 1.96959 0.553927 0
M  V30 1328 H 124.723 2.98763 2.77857 0
M  V30 1329 H 123.398 3.70962 1.88043 0
M  V30 1330 H 121.975 2.24377 2.97841 0
M  V30 1331 N 124.16 -0.719506 1.40217 0
M  V30 1332 C 125.07 -1.86378 1.42479 0
M  V30 1333 C 126.086 -1.71073 0.317834 0
M  V30 1334 O 127.262 -1.93406 0.561794 0
M  V30 1335 C 124.327 -3.22136 1.28178 0
M  V30 1336 C 123.388 -3.49723 2.48982 0
M  V30 1337 C 122.621 -4.79004 2.35353 0
M  V30 1338 O 122.844 -5.53821 1.36524 0
M  V30 1339 O 121.778 -5.06839 3.2465 0
M  V30 1340 H 125.604 -1.87425 2.38968 0
M  V30 1341 H 123.189 -0.869405 1.21498 0
M  V30 1342 H 125.071 -4.03234 1.22395 0
M  V30 1343 H 123.746 -3.21825 0.347934 0
M  V30 1344 H 122.653 -2.6865 2.60342 0
M  V30 1345 H 123.986 -3.54828 3.41113 0
M  V30 1346 N 125.638 -1.25649 -0.95132 0
M  V30 1347 C 126.548 -1.08073 -2.08224 0
M  V30 1348 C 127.564 -0.0169666 -1.73992 0
M  V30 1349 O 128.74 -0.218593 -2.0021 0
M  V30 1350 C 125.805 -0.704922 -3.39458 0
M  V30 1351 C 124.866 -1.84699 -3.87537 0
M  V30 1352 C 124.099 -1.48902 -5.12508 0
M  V30 1353 O 124.322 -0.386156 -5.69091 0
M  V30 1354 O 123.256 -2.32033 -5.55378 0
M  V30 1355 H 127.082 -2.02924 -2.25954 0
M  V30 1356 H 124.667 -1.04618 -1.06656 0
M  V30 1357 H 126.549 -0.507609 -4.18332 0
M  V30 1358 H 125.224 0.214291 -3.2299 0
M  V30 1359 H 124.131 -2.09919 -3.09653 0
M  V30 1360 H 125.464 -2.74557 -4.08509 0
M  V30 1361 N 127.117 1.15442 -1.07289 0
M  V30 1362 C 128.049 2.19773 -0.650585 0
M  V30 1363 C 129.062 1.60076 0.296572 0
M  V30 1364 O 130.251 1.78293 0.0859905 0
M  V30 1365 C 127.351 3.38838 0.0650398 0
M  V30 1366 C 126.524 4.2808 -0.898141 0
M  V30 1367 C 125.583 5.2574 -0.219926 0
M  V30 1368 O 124.609 5.62654 -0.860773 0
M  V30 1369 N 125.811 5.71205 1.03466 0
M  V30 1370 H 128.576 2.56622 -1.54808 0
M  V30 1371 H 126.137 1.30551 -0.957494 0
M  V30 1372 H 128.129 4.01222 0.529415 0
M  V30 1373 H 126.699 3.00409 0.864466 0
M  V30 1374 H 125.919 3.62804 -1.54165 0
M  V30 1375 H 127.207 4.84577 -1.5512 0
M  V30 1376 H 126.605 5.43325 1.57526 0
M  V30 1377 H 125.162 6.35633 1.44272 0
M  V30 1378 N 128.595 0.856903 1.32268 0
M  V30 1379 C 129.558 0.308171 2.27119 0
M  V30 1380 C 130.558 -0.533421 1.51695 0
M  V30 1381 O 131.748 -0.344607 1.70757 0
M  V30 1382 C 128.88 -0.563757 3.36206 0
M  V30 1383 H 130.073 1.14535 2.77167 0
M  V30 1384 H 127.626 0.631421 1.42978 0
M  V30 1385 H 128.361 -1.42266 2.91429 0
M  V30 1386 H 128.146 0.0386749 3.92081 0
M  V30 1387 H 129.636 -0.940386 4.06874 0
M  V30 1388 N 130.073 -1.45103 0.615059 0
M  V30 1389 C 131.489 -1.57137 0.279322 0
M  V30 1390 C 131.689 -1.60523 -1.21797 0
M  V30 1391 O 130.745 -1.53956 -2.00134 0
M  V30 1392 C 132.058 -2.85062 0.957083 0
M  V30 1393 C 133.606 -2.98749 0.933706 0
M  V30 1394 C 134.081 -4.29455 1.59162 0
M  V30 1395 N 135.572 -4.36231 1.55746 0
M  V30 1396 C 136.307 -5.36051 2.0356 0
M  V30 1397 N 135.803 -6.42367 2.59494 0
M  V30 1398 N 137.596 -5.27456 1.94284 0
M  V30 1399 H 129.747 -1.41148 1.58717 0
M  V30 1400 H 132.01 -0.675331 0.665306 0
M  V30 1401 H 131.716 -2.88488 2.01166 0
M  V30 1402 H 131.59 -3.7407 0.48494 0
M  V30 1403 H 133.977 -2.94886 -0.112347 0
M  V30 1404 H 134.058 -2.11132 1.44419 0
M  V30 1405 H 133.702 -4.34077 2.63704 0
M  V30 1406 H 133.632 -5.15901 1.0561 0
M  V30 1407 H 136.123 -3.60011 1.14893 0
M  V30 1408 H 136.436 -7.14793 2.93752 0
M  V30 1409 H 134.781 -6.43097 2.63537 0
M  V30 1410 H 137.972 -4.43308 1.5032 0
M  V30 1411 H 138.145 -6.05099 2.3186 0
M  V30 1412 N 131.551 -0.354651 -1.53558 0
M  V30 1413 C 132.967 -0.00315426 -1.596 0
M  V30 1414 C 133.167 1.47741 -1.37021 0
M  V30 1415 O 132.223 2.23759 -1.16996 0
M  V30 1416 C 133.536 -0.44929 -2.97325 0
M  V30 1417 C 135.084 -0.402578 -3.104 0
M  V30 1418 C 135.559 -0.824355 -4.5052 0
M  V30 1419 N 137.05 -0.778979 -4.56603 0
M  V30 1420 C 137.785 -1.07715 -5.63192 0
M  V30 1421 N 137.281 -1.44405 -6.77583 0
M  V30 1422 N 139.074 -1.00066 -5.53121 0
M  V30 1423 H 131.225 -1.31893 -1.66487 0
M  V30 1424 H 133.488 -0.538388 -0.780284 0
M  V30 1425 H 133.194 -1.48202 -3.1895 0
M  V30 1426 H 133.068 0.169772 -3.76818 0
M  V30 1427 H 135.455 0.621004 -2.88492 0
M  V30 1428 H 135.536 -1.05699 -2.32941 0
M  V30 1429 H 135.18 -1.846 -4.73165 0
M  V30 1430 H 135.11 -0.147304 -5.26394 0
M  V30 1431 H 137.601 -0.508528 -3.74463 0
M  V30 1432 H 137.914 -1.65612 -7.54846 0
M  V30 1433 H 136.259 -1.4826 -6.79002 0
M  V30 1434 H 139.45 -0.713293 -4.62633 0
M  V30 1435 H 139.623 -1.23638 -6.36096 0
M  V30 1436 N 133.029 1.57378 -0.0835403 0
M  V30 1437 C 133.959 2.1641 0.87686 0
M  V30 1438 C 134.94 1.09429 1.30228 0
M  V30 1439 O 136.125 1.37516 1.37124 0
M  V30 1440 C 133.255 2.73517 2.14022 0
M  V30 1441 C 132.209 3.85769 1.85381 0
M  V30 1442 C 131.535 4.29529 3.18448 0
M  V30 1443 C 132.835 5.09486 1.14984 0
M  V30 1444 H 134.529 2.96914 0.385059 0
M  V30 1445 H 132.075 1.42823 0.18377 0
M  V30 1446 H 134.028 3.13463 2.81636 0
M  V30 1447 H 132.752 1.90252 2.65465 0
M  V30 1448 H 131.411 3.46345 1.20169 0
M  V30 1449 H 131.059 3.43169 3.67755 0
M  V30 1450 H 130.759 5.05204 3.00071 0
M  V30 1451 H 132.283 4.72099 3.8724 0
M  V30 1452 H 133.697 5.46674 1.72687 0
M  V30 1453 H 132.094 5.90515 1.06826 0
M  V30 1454 H 133.164 4.84724 0.130749 0
M  V30 1455 N 134.507 -0.190092 1.56449 0
M  V30 1456 C 135.747 -0.916414 1.82705 0
M  V30 1457 C 136.111 -1.80235 0.661763 0
M  V30 1458 O 137.312 -2.56484 0.80433 0
M  V30 1459 C 135.583 -1.70691 3.14005 0
M  V30 1460 S 137.142 -2.48457 3.61683 0
M  V30 1461 H 133.96 -0.307281 0.64117 0
M  V30 1462 H 136.562 -0.179433 1.94675 0
M  V30 1463 H 135.266 -1.04677 3.96826 0
M  V30 1464 H 134.797 -2.48562 3.04927 0
M  V30 1465 H 136.812 -3.72756 3.27517 0
M  V30 1466 N 135.985 -1.50799 -0.457987 0
M  V30 1467 C 137.262 -1.52968 -1.21902 0
M  V30 1468 C 137.642 -0.281906 -2.09209 0
M  V30 1469 O 136.99 0.734076 -2.16388 0
M  V30 1470 C 137.2 -2.8326 -2.03875 0
M  V30 1471 C 138.548 -3.34425 -2.6162 0
M  V30 1472 O 139.572 -2.8467 -2.14106 0
M  V30 1473 O 138.431 -4.21188 -3.48228 0
M  V30 1474 H 135.525 -0.614129 -0.553873 0
M  V30 1475 H 138.071 -1.63098 -0.468739 0
M  V30 1476 H 136.843 -3.65543 -1.39621 0
M  V30 1477 H 136.466 -2.76195 -2.8601 0
M  V30 1478 N 137.463 0.71206 -1.40597 0
M  V30 1479 C 138.74 1.46536 -1.29563 0
M  V30 1480 C 139.12 2.10931 0.0844217 0
M  V30 1481 O 138.468 2.00418 1.0975 0
M  V30 1482 C 138.678 2.49821 -2.43701 0
M  V30 1483 C 140.026 3.15551 -2.841 0
M  V30 1484 O 141.05 2.60142 -2.4332 0
M  V30 1485 O 139.909 4.15867 -3.54566 0
M  V30 1486 H 137.003 0.651801 -0.509004 0
M  V30 1487 H 139.549 0.743935 -1.52524 0
M  V30 1488 H 138.321 2.00778 -3.35863 0
M  V30 1489 H 137.944 3.29495 -2.22528 0
M  V30 1490 N 138.941 1.26152 0.944643 0
M  V30 1491 C 140.171 1.14094 1.72239 0
M  V30 1492 C 140.579 -0.306931 1.86694 0
M  V30 1493 O 139.922 -1.22222 1.3714 0
M  V30 1494 C 139.984 1.73316 3.14963 0
M  V30 1495 C 139.648 3.2239 3.23904 0
M  V30 1496 C 140.645 4.19252 3.07447 0
M  V30 1497 C 138.33 3.62788 3.47405 0
M  V30 1498 C 140.324 5.54491 3.14353 0
M  V30 1499 C 138.011 4.98162 3.53947 0
M  V30 1500 C 139.009 5.93823 3.37436 0
M  V30 1501 O 138.697 7.26732 3.43679 0
M  V30 1502 H 138.429 0.398292 0.546205 0
M  V30 1503 H 140.983 1.67201 1.19301 0
M  V30 1504 H 139.213 1.14667 3.69308 0
M  V30 1505 H 140.902 1.56214 3.74636 0
M  V30 1506 H 141.668 3.8938 2.8915 0
M  V30 1507 H 137.547 2.88816 3.59313 0
M  V30 1508 H 141.091 6.29137 3.01384 0
M  V30 1509 H 136.988 5.27695 3.71763 0
M  V30 1510 H 137.756 7.3496 3.60245 0
M  V30 1511 N 140.419 -1.14872 1.07899 0
M  V30 1512 C 141.696 -1.81928 0.71845 0
M  V30 1513 C 142.076 -1.95417 -0.798455 0
M  V30 1514 O 141.424 -1.50997 -1.715 0
M  V30 1515 C 141.634 -3.17937 1.43935 0
M  V30 1516 C 142.982 -3.93501 1.59506 0
M  V30 1517 O 144.006 -3.27509 1.40058 0
M  V30 1518 O 142.865 -5.1183 1.91551 0
M  V30 1519 H 139.959 -0.78628 0.256305 0
M  V30 1520 H 142.505 -1.21934 1.18026 0
M  V30 1521 H 141.277 -3.0325 2.47295 0
M  V30 1522 H 140.9 -3.85619 0.968687 0
M  V30 1523 N 141.898 -0.863906 -1.31812 0
M  V30 1524 C 142.808 -0.318461 -2.32428 0
M  V30 1525 C 143.824 0.568496 -1.64451 0
M  V30 1526 O 145 0.46666 -1.95919 0
M  V30 1527 C 142.065 0.476355 -3.43412 0
M  V30 1528 C 141.126 -0.43784 -4.27061 0
M  V30 1529 C 140.359 0.319138 -5.32745 0
M  V30 1530 O 140.582 1.54799 -5.48993 0
M  V30 1531 O 139.516 -0.319861 -6.01049 0
M  V30 1532 H 143.342 -1.15229 -2.80991 0
M  V30 1533 H 140.927 -0.627103 -1.35602 0
M  V30 1534 H 142.809 0.927156 -4.11074 0
M  V30 1535 H 141.484 1.28683 -2.97022 0
M  V30 1536 H 140.391 -0.937013 -3.62175 0
M  V30 1537 H 141.724 -1.21375 -4.77 0
M  V30 1538 N 143.376 1.44774 -0.622745 0
M  V30 1539 C 144.339 2.29069 0.0774015 0
M  V30 1540 C 145.339 1.4059 0.780461 0
M  V30 1541 O 146.529 1.62551 0.626322 0
M  V30 1542 C 143.661 3.21974 1.12006 0
M  V30 1543 H 144.854 2.92459 -0.663901 0
M  V30 1544 H 142.407 1.51548 -0.382486 0
M  V30 1545 H 143.142 2.63417 1.89162 0
M  V30 1546 H 142.927 3.87168 0.619951 0
M  V30 1547 H 144.417 3.85318 1.60995 0
M  V30 1548 N 144.854 0.36279 1.53368 0
M  V30 1549 C 145.817 -0.472679 2.24273 0
M  V30 1550 C 146.817 -1.012 1.24961 0
M  V30 1551 O 148.007 -0.898194 1.49259 0
M  V30 1552 C 145.139 -1.66039 2.97731 0
M  V30 1553 H 146.332 0.14773 2.99536 0
M  V30 1554 H 143.885 0.114434 1.55881 0
M  V30 1555 H 144.62 -2.31896 2.26704 0
M  V30 1556 H 144.405 -1.28066 3.70596 0
M  V30 1557 H 145.895 -2.25252 3.51641 0
M  V30 1558 N 146.332 -1.57332 0.0918853 0
M  V30 1559 C 147.748 -1.57389 -0.264766 0
M  V30 1560 C 147.948 -1.10281 -1.68643 0
M  V30 1561 O 147.004 -0.777801 -2.40222 0
M  V30 1562 C 148.317 -3.00648 -0.0561195 0
M  V30 1563 C 149.865 -3.12754 -0.124116 0
M  V30 1564 C 150.34 -4.57965 0.0564972 0
M  V30 1565 N 151.831 -4.632 0.00155611 0
M  V30 1566 C 152.566 -5.73281 0.116598 0
M  V30 1567 N 152.062 -6.92208 0.286294 0
M  V30 1568 N 153.855 -5.6207 0.0580973 0
M  V30 1569 H 146.006 -1.86262 1.02079 0
M  V30 1570 H 148.269 -0.859579 0.399786 0
M  V30 1571 H 147.975 -3.393 0.925669 0
M  V30 1572 H 147.849 -3.68623 -0.799823 0
M  V30 1573 H 150.236 -2.73976 -1.09641 0
M  V30 1574 H 150.317 -2.47377 0.651024 0
M  V30 1575 H 149.961 -4.97436 1.02564 0
M  V30 1576 H 149.891 -5.21399 -0.738297 0
M  V30 1577 H 152.382 -3.77686 -0.127192 0
M  V30 1578 H 152.695 -7.71934 0.365676 0
M  V30 1579 H 151.04 -6.94254 0.32192 0
M  V30 1580 H 154.231 -4.68043 -0.0733204 0
M  V30 1581 H 154.404 -6.47824 0.151203 0
M  V30 1582 N 147.81 0.181792 -1.56548 0
M  V30 1583 C 148.72 1.24538 -1.98815 0
M  V30 1584 C 149.736 1.49045 -0.897861 0
M  V30 1585 O 150.912 1.61399 -1.20467 0
M  V30 1586 C 147.977 2.56683 -2.33055 0
M  V30 1587 C 147.038 2.40131 -3.55859 0
M  V30 1588 C 146.271 3.65975 -3.88456 0
M  V30 1589 O 146.494 4.70711 -3.22161 0
M  V30 1590 O 145.428 3.6071 -4.81842 0
M  V30 1591 H 149.254 0.916647 -2.89536 0
M  V30 1592 H 146.839 0.387842 -1.44278 0
M  V30 1593 H 148.721 3.34655 -2.56094 0
M  V30 1594 H 147.396 2.89157 -1.45498 0
M  V30 1595 H 146.303 1.60226 -3.38051 0
M  V30 1596 H 147.636 2.12585 -4.43924 0
M  V30 1597 N 149.288 1.51039 0.449983 0
M  V30 1598 C 150.535 1.63081 1.20045 0
M  V30 1599 C 150.863 0.341024 1.91487 0
M  V30 1600 O 150.118 -0.674276 1.83717 0
M  V30 1601 C 150.417 2.77556 2.25161 0
M  V30 1602 C 150.083 4.17289 1.70823 0
M  V30 1603 C 148.745 4.55305 1.55725 0
M  V30 1604 C 151.097 5.04536 1.3074 0
M  V30 1605 C 148.425 5.78287 0.989999 0
M  V30 1606 C 150.777 6.28085 0.754482 0
M  V30 1607 C 149.441 6.64885 0.590308 0
M  V30 1608 H 148.711 0.596755 0.439277 0
M  V30 1609 H 151.358 1.85037 0.49333 0
M  V30 1610 H 149.663 2.49771 3.01863 0
M  V30 1611 H 151.36 2.84073 2.83026 0
M  V30 1612 H 147.95 3.8731 1.83546 0
M  V30 1613 H 152.134 4.75782 1.41229 0
M  V30 1614 H 147.39 6.05456 0.850451 0
M  V30 1615 H 151.564 6.95038 0.435324 0
M  V30 1616 H 149.191 7.60055 0.14862 0
M  V30 1617 N 150.766 -0.704594 1.40972 0
M  V30 1618 C 151.996 -1.49138 1.42974 0
M  V30 1619 C 152.404 -1.89175 0.0308406 0
M  V30 1620 O 151.747 -1.56734 -0.958138 0
M  V30 1621 C 151.809 -2.79016 2.26694 0
M  V30 1622 C 151.473 -2.61236 3.74973 0
M  V30 1623 C 152.47 -2.27773 4.67349 0
M  V30 1624 C 150.155 -2.77158 4.18914 0
M  V30 1625 C 152.149 -2.10457 6.01653 0
M  V30 1626 C 149.836 -2.59459 5.53285 0
M  V30 1627 C 150.834 -2.26158 6.4447 0
M  V30 1628 O 150.522 -2.08605 7.76363 0
M  V30 1629 H 150.254 -0.466443 0.489292 0
M  V30 1630 H 152.808 -0.8758 1.85793 0
M  V30 1631 H 151.038 -3.42947 1.78673 0
M  V30 1632 H 152.727 -3.40782 2.20504 0
M  V30 1633 H 153.493 -2.15095 4.34694 0
M  V30 1634 H 149.372 -3.02064 3.48251 0
M  V30 1635 H 152.916 -1.84387 6.72791 0
M  V30 1636 H 148.813 -2.71725 5.85522 0
M  V30 1637 H 149.581 -2.23439 7.87412 0
M  V30 1638 N 152.244 -1.26651 -0.937939 0
M  V30 1639 C 153.491 -1.12387 -1.6845 0
M  V30 1640 C 153.819 0.332208 -1.91642 0
M  V30 1641 O 153.074 1.2602 -1.49725 0
M  V30 1642 C 153.373 -1.84168 -3.06295 0
M  V30 1643 C 153.039 -3.34056 -3.02849 0
M  V30 1644 C 151.701 -3.74942 -3.01616 0
M  V30 1645 C 154.053 -4.29741 -2.9491 0
M  V30 1646 C 151.381 -5.09894 -2.90215 0
M  V30 1647 C 153.733 -5.64738 -2.8505 0
M  V30 1648 C 152.397 -6.0493 -2.82162 0
M  V30 1649 H 151.667 -0.411252 -0.616403 0
M  V30 1650 H 154.314 -1.57134 -1.09459 0
M  V30 1651 H 152.619 -1.319 -3.6893 0
M  V30 1652 H 154.316 -1.70569 -3.62915 0
M  V30 1653 H 150.906 -3.01534 -3.0459 0
M  V30 1654 H 155.09 -3.99133 -2.94969 0
M  V30 1655 H 150.346 -5.40194 -2.86358 0
M  V30 1656 H 154.52 -6.38561 -2.77872 0
M  V30 1657 H 152.147 -7.09457 -2.73084 0
M  V30 1658 N 153.722 1.14298 -1.08507 0
M  V30 1659 C 154.999 1.81544 -0.728088 0
M  V30 1660 C 155.379 1.95838 0.78808 0
M  V30 1661 O 154.727 1.51904 1.70697 0
M  V30 1662 C 154.937 3.17169 -1.45619 0
M  V30 1663 C 156.285 3.9265 -1.61591 0
M  V30 1664 O 157.309 3.26762 -1.41793 0
M  V30 1665 O 156.168 5.10807 -1.94263 0
M  V30 1666 H 153.262 0.78491 -0.260471 0
M  V30 1667 H 155.808 1.21307 -1.18671 0
M  V30 1668 H 154.58 3.01934 -2.489 0
M  V30 1669 H 154.203 3.851 -0.989124 0
M  V30 1670 N 155.201 0.870884 1.31352 0
M  V30 1671 C 156.617 0.562932 1.49343 0
M  V30 1672 C 156.817 -0.902725 1.80148 0
M  V30 1673 O 155.873 -1.68484 1.88067 0
M  V30 1674 C 157.186 1.46393 2.62659 0
M  V30 1675 C 158.734 1.46607 2.76542 0
M  V30 1676 C 159.209 2.35266 3.92955 0
M  V30 1677 N 160.7 2.33151 4.00243 0
M  V30 1678 C 161.435 2.98471 4.89594 0
M  V30 1679 N 160.931 3.72964 5.8384 0
M  V30 1680 N 162.724 2.87775 4.82848 0
M  V30 1681 H 154.875 1.81923 1.09626 0
M  V30 1682 H 157.138 0.777934 0.541777 0
M  V30 1683 H 156.844 2.50689 2.46674 0
M  V30 1684 H 156.718 1.16314 3.58819 0
M  V30 1685 H 159.105 0.43069 2.9194 0
M  V30 1686 H 159.186 1.8071 1.81046 0
M  V30 1687 H 158.83 3.38881 3.78315 0
M  V30 1688 H 158.76 1.98487 4.87761 0
M  V30 1689 H 161.251 1.79006 3.32814 0
M  V30 1690 H 161.564 4.19932 6.4875 0
M  V30 1691 H 159.909 3.77073 5.83816 0
M  V30 1692 H 163.1 2.29116 4.08195 0
M  V30 1693 H 163.273 3.38961 5.52277 0
M  V30 1694 N 156.679 -1.44442 0.630414 0
M  V30 1695 C 157.629 -2.27794 -0.0968103 0
M  V30 1696 C 158.613 -1.38624 -0.816834 0
M  V30 1697 O 159.805 -1.62438 -0.70306 0
M  V30 1698 C 156.934 -3.25929 -1.07819 0
M  V30 1699 C 156.02 -4.22588 -0.357826 0
M  V30 1700 N 156.411 -5.0207 0.613169 0
M  V30 1701 C 154.709 -4.41914 -0.602365 0
M  V30 1702 C 155.41 -5.72351 1.03871 0
M  V30 1703 N 154.386 -5.42287 0.377642 0
M  V30 1704 H 158.188 -2.86653 0.648621 0
M  V30 1705 H 155.702 -1.55871 0.455862 0
M  V30 1706 H 157.699 -3.84399 -1.61378 0
M  V30 1707 H 156.359 -2.68631 -1.82393 0
M  V30 1708 H 157.37 -5.08331 0.990947 0
M  V30 1709 H 154.047 -3.95714 -1.33103 0
M  V30 1710 H 155.437 -6.4619 1.84086 0
M  V30 1711 N 158.157 -0.370918 -1.53173 0
M  V30 1712 C 159.568 0.107139 -1.86392 0
M  V30 1713 C 159.919 1.47714 -1.29132 0
M  V30 1714 O 159.044 2.07464 -0.615439 0
M  V30 1715 C 159.639 0.201187 -3.38202 0
M  V30 1716 C 158.198 0.623507 -3.712 0
M  V30 1717 C 157.345 -0.225978 -2.76378 0
M  V30 1718 H 160.296 -0.58951 -1.47345 0
M  V30 1719 H 160.317 1.02377 -3.66468 0
M  V30 1720 H 159.829 -0.796058 -3.79848 0
M  V30 1721 H 157.93 1.62879 -3.35114 0
M  V30 1722 H 158.043 0.394414 -4.77474 0
M  V30 1723 H 156.407 0.305962 -2.52856 0
M  V30 1724 H 157.19 -1.22086 -3.20858 0
M  V30 1725 N 159.635 1.57281 -0.100228 0
M  V30 1726 C 160.883 1.94153 0.561157 0
M  V30 1727 C 161.204 0.983157 1.68401 0
M  V30 1728 O 160.474 0.0361132 1.95867 0
M  V30 1729 H 159.054 0.716791 0.210283 0
M  V30 1730 H 161.716 1.94202 -0.164765 0
M  V30 1731 H 160.812 2.96709 0.968008 0
M  V30 1732 N 161.113 -0.173488 1.56642 0
M  V30 1733 C 162.36 -0.890465 1.81871 0
M  V30 1734 C 162.688 -1.82339 0.67696 0
M  V30 1735 O 161.943 -1.92795 -0.335926 0
M  V30 1736 C 162.242 -1.72069 3.13252 0
M  V30 1737 C 161.908 -0.936878 4.41059 0
M  V30 1738 C 160.57 -0.720545 4.75775 0
M  V30 1739 C 162.922 -0.386919 5.19762 0
M  V30 1740 C 160.25 0.0568829 5.86672 0
M  V30 1741 C 162.602 0.37741 6.31473 0
M  V30 1742 C 161.266 0.604563 6.64757 0
M  V30 1743 H 160.536 -0.325844 0.665512 0
M  V30 1744 H 163.183 -0.155527 1.90867 0
M  V30 1745 H 161.488 -2.52496 2.99588 0
M  V30 1746 H 163.185 -2.27844 3.29982 0
M  V30 1747 H 159.775 -1.11553 4.13828 0
M  V30 1748 H 163.959 -0.541398 4.93338 0
M  V30 1749 H 159.215 0.242635 6.10918 0
M  V30 1750 H 163.389 0.810825 6.91664 0
M  V30 1751 H 161.016 1.20885 7.50527 0
M  V30 1752 N 162.591 -1.51276 -0.441967 0
M  V30 1753 C 163.838 -1.63715 -1.19179 0
M  V30 1754 C 164.166 -0.351175 -1.91303 0
M  V30 1755 O 163.421 0.664524 -1.84072 0
M  V30 1756 C 163.72 -2.78746 -2.23686 0
M  V30 1757 C 163.386 -4.18189 -1.68607 0
M  V30 1758 C 162.048 -4.56125 -1.53308 0
M  V30 1759 C 164.4 -5.05222 -1.28062 0
M  V30 1760 C 161.728 -5.78804 -0.959317 0
M  V30 1761 C 164.08 -6.28476 -0.721162 0
M  V30 1762 C 162.744 -6.65188 -0.55504 0
M  V30 1763 H 162.014 -0.599076 -0.436106 0
M  V30 1764 H 164.661 -1.85296 -0.48351 0
M  V30 1765 H 162.966 -2.51369 -3.00535 0
M  V30 1766 H 164.663 -2.8557 -2.81515 0
M  V30 1767 H 161.253 -3.88277 -1.8149 0
M  V30 1768 H 165.437 -4.76524 -1.38704 0
M  V30 1769 H 160.693 -6.05899 -0.81833 0
M  V30 1770 H 164.867 -6.95259 -0.398458 0
M  V30 1771 H 162.494 -7.60123 -0.108311 0
M  V30 1772 N 164.069 0.697108 -1.41344 0
M  V30 1773 C 164.999 1.82353 -1.45841 0
M  V30 1774 C 165.98 1.67115 -0.317247 0
M  V30 1775 O 167.165 1.86871 -0.528474 0
M  V30 1776 C 164.295 3.20476 -1.33838 0
M  V30 1777 C 163.249 3.50415 -2.4575 0
M  V30 1778 C 162.575 4.87878 -2.18813 0
M  V30 1779 C 163.875 3.49546 -3.88091 0
M  V30 1780 H 165.569 1.78846 -2.40113 0
M  V30 1781 H 163.115 0.859028 -1.15571 0
M  V30 1782 H 165.068 3.98988 -1.35596 0
M  V30 1783 H 163.792 3.24604 -0.360498 0
M  V30 1784 H 162.451 2.74253 -2.43271 0
M  V30 1785 H 162.099 4.8863 -1.19371 0
M  V30 1786 H 161.799 5.08875 -2.93803 0
M  V30 1787 H 163.323 5.68702 -2.22284 0
M  V30 1788 H 164.737 4.18066 -3.92293 0
M  V30 1789 H 163.134 3.82075 -4.62751 0
M  V30 1790 H 164.204 2.48552 -4.16353 0
M  V30 1791 N 165.547 1.27147 0.931209 0
M  V30 1792 C 166.772 1.16191 1.71797 0
M  V30 1793 C 167.197 -0.278004 1.86034 0
M  V30 1794 O 166.555 -1.20137 1.35782 0
M  V30 1795 C 166.603 1.84673 3.09723 0
M  V30 1796 O 165.707 1.14231 3.96264 0
M  V30 1797 H 165.048 0.404303 0.526721 0
M  V30 1798 H 167.578 1.68152 1.1656 0
M  V30 1799 H 167.588 1.91893 3.60057 0
M  V30 1800 H 166.263 2.89421 2.98677 0
M  V30 1801 H 164.84 1.15056 3.54706 0
M  V30 1802 N 167.025 -1.13721 1.09112 0
M  V30 1803 C 167.955 -2.21148 0.749385 0
M  V30 1804 C 168.936 -1.6792 -0.271475 0
M  V30 1805 O 170.121 -1.93693 -0.140251 0
M  V30 1806 C 167.251 -3.46905 0.165659 0
M  V30 1807 C 166.205 -4.13203 1.11567 0
M  V30 1808 C 165.531 -5.33248 0.393809 0
M  V30 1809 C 166.831 -4.60912 2.45678 0
M  V30 1810 H 168.525 -2.4999 1.64758 0
M  V30 1811 H 166.071 -1.20156 0.793626 0
M  V30 1812 H 168.024 -4.21313 -0.085466 0
M  V30 1813 H 166.748 -3.17449 -0.767714 0
M  V30 1814 H 165.407 -3.40758 1.35202 0
M  V30 1815 H 165.055 -5.00054 -0.543599 0
M  V30 1816 H 164.755 -5.78552 1.02721 0
M  V30 1817 H 166.279 -6.10413 0.150908 0
M  V30 1818 H 167.693 -5.26759 2.26269 0
M  V30 1819 H 166.09 -5.16944 3.04776 0
M  V30 1820 H 167.16 -3.75603 3.06677 0
M  V30 1821 N 168.503 -0.877838 -1.30888 0
M  V30 1822 C 169.433 -0.35534 -2.3078 0
M  V30 1823 C 170.414 0.557994 -1.60687 0
M  V30 1824 O 171.599 0.473355 -1.88343 0
M  V30 1825 C 168.729 0.437221 -3.44537 0
M  V30 1826 C 167.683 -0.383715 -4.26276 0
M  V30 1827 C 167.009 0.535014 -5.32017 0
M  V30 1828 C 168.309 -1.62201 -4.96476 0
M  V30 1829 H 170.003 -1.19007 -2.74732 0
M  V30 1830 H 167.549 -0.573698 -1.32078 0
M  V30 1831 H 169.502 0.813334 -4.13477 0
M  V30 1832 H 168.226 1.30553 -2.99372 0
M  V30 1833 H 166.885 -0.741874 -3.59015 0
M  V30 1834 H 166.533 1.40083 -4.831 0
M  V30 1835 H 166.233 -0.0104211 -5.87599 0
M  V30 1836 H 167.757 0.907799 -6.03814 0
M  V30 1837 H 169.171 -1.31689 -5.5797 0
M  V30 1838 H 167.568 -2.10711 -5.61891 0
M  V30 1839 H 168.638 -2.37044 -4.23011 0
M  V30 1840 N 169.982 1.44106 -0.638065 0
M  V30 1841 C 170.932 2.27843 0.0847285 0
M  V30 1842 C 171.916 1.39055 0.809471 0
M  V30 1843 O 173.108 1.62808 0.694435 0
M  V30 1844 C 170.237 3.26497 1.06089 0
M  V30 1845 C 169.323 4.22772 0.33541 0
M  V30 1846 N 169.714 5.01737 -0.639787 0
M  V30 1847 C 168.012 4.42227 0.578921 0
M  V30 1848 C 168.713 5.71792 -1.06904 0
M  V30 1849 N 167.689 5.42079 -0.406395 0
M  V30 1850 H 171.491 2.86305 -0.663814 0
M  V30 1851 H 169.005 1.55627 -0.464122 0
M  V30 1852 H 171.002 3.8525 1.59337 0
M  V30 1853 H 169.662 2.69595 1.80966 0
M  V30 1854 H 170.673 5.07799 -1.01789 0
M  V30 1855 H 167.35 3.96415 1.31003 0
M  V30 1856 H 168.74 6.45205 -1.8751 0
M  V30 1857 N 171.46 0.379036 1.52974 0
M  V30 1858 C 172.707 -0.206421 2.01445 0
M  V30 1859 C 173.035 -1.47668 1.26587 0
M  V30 1860 O 172.29 -1.92514 0.351675 0
M  V30 1861 C 172.589 -0.53096 3.53434 0
M  V30 1862 C 172.255 0.646546 4.46241 0
M  V30 1863 C 170.917 0.969604 4.7133 0
M  V30 1864 C 173.269 1.43479 5.01062 0
M  V30 1865 C 170.597 2.08263 5.48492 0
M  V30 1866 C 172.949 2.53834 5.7944 0
M  V30 1867 C 171.613 2.86659 6.02812 0
M  V30 1868 H 170.883 -0.0755349 0.73714 0
M  V30 1869 H 173.53 0.514271 1.84465 0
M  V30 1870 H 171.835 -1.33285 3.68432 0
M  V30 1871 H 173.532 -0.996417 3.88423 0
M  V30 1872 H 170.122 0.384734 4.2687 0
M  V30 1873 H 174.306 1.19844 4.81613 0
M  V30 1874 H 169.562 2.34078 5.64816 0
M  V30 1875 H 173.736 3.15319 6.20924 0
M  V30 1876 H 171.363 3.73026 6.62387 0
M  V30 1877 N 172.938 -1.57226 0.108567 0
M  V30 1878 C 174.168 -1.9889 -0.559142 0
M  V30 1879 C 174.576 -0.986889 -1.61422 0
M  V30 1880 O 173.919 0.0298705 -1.83676 0
M  V30 1881 C 173.981 -3.36952 -1.25315 0
M  V30 1882 C 173.645 -4.55679 -0.347248 0
M  V30 1883 C 174.642 -5.18281 0.409996 0
M  V30 1884 C 172.327 -5.0162 -0.261367 0
M  V30 1885 C 174.321 -6.25203 1.24096 0
M  V30 1886 C 172.008 -6.08405 0.573238 0
M  V30 1887 C 173.006 -6.70063 1.32304 0
M  V30 1888 O 172.694 -7.74788 2.14381 0
M  V30 1889 H 172.426 -0.658343 -0.153492 0
M  V30 1890 H 174.98 -2.04532 0.188584 0
M  V30 1891 H 173.21 -3.28032 -2.04773 0
M  V30 1892 H 174.899 -3.62974 -1.81673 0
M  V30 1893 H 175.665 -4.8371 0.353457 0
M  V30 1894 H 171.544 -4.53381 -0.834656 0
M  V30 1895 H 175.088 -6.73259 1.82669 0
M  V30 1896 H 170.985 -6.42406 0.631208 0
M  V30 1897 H 171.753 -7.91837 2.07209 0
M  V30 1898 N 174.416 0.165178 -1.56732 0
M  V30 1899 C 175.832 0.517174 -1.50988 0
M  V30 1900 C 176.032 1.84331 -0.813894 0
M  V30 1901 O 175.088 2.49672 -0.37682 0
M  V30 1902 C 176.401 0.544261 -2.95733 0
M  V30 1903 C 177.949 0.631039 -3.06573 0
M  V30 1904 C 178.424 0.68896 -4.52788 0
M  V30 1905 N 179.915 0.751683 -4.5706 0
M  V30 1906 C 180.65 0.817177 -5.67547 0
M  V30 1907 N 180.146 0.843129 -6.8765 0
M  V30 1908 N 181.939 0.856668 -5.55534 0
M  V30 1909 H 174.09 -0.704318 -2.00382 0
M  V30 1910 H 176.353 -0.254687 -0.913148 0
M  V30 1911 H 176.059 -0.361607 -3.49836 0
M  V30 1912 H 175.933 1.3886 -3.5071 0
M  V30 1913 H 178.32 1.52733 -2.52501 0
M  V30 1914 H 178.401 -0.240095 -2.54671 0
M  V30 1915 H 178.045 -0.2031 -5.07494 0
M  V30 1916 H 177.975 1.57633 -5.02454 0
M  V30 1917 H 180.466 0.739661 -3.70591 0
M  V30 1918 H 180.779 0.894448 -7.67606 0
M  V30 1919 H 179.124 0.811304 -6.90248 0
M  V30 1920 H 182.315 0.833437 -4.60621 0
M  V30 1921 H 182.488 0.904247 -6.4166 0
M  V30 1922 N 175.894 1.51508 0.433938 0
M  V30 1923 C 177.122 1.68157 1.20543 0
M  V30 1924 C 177.537 0.380362 1.84929 0
M  V30 1925 O 176.894 -0.641446 1.70856 0
M  V30 1926 C 176.945 2.79965 2.28696 0
M  V30 1927 O 176.666 4.05045 1.66943 0
M  V30 1928 C 178.167 3.07912 3.18912 0
M  V30 1929 H 175.387 0.56421 0.363191 0
M  V30 1930 H 177.931 1.97941 0.513754 0
M  V30 1931 H 176.086 2.5277 2.93574 0
M  V30 1932 H 176.5 4.67165 2.38448 0
M  V30 1933 H 177.974 3.89719 3.90926 0
M  V30 1934 H 178.451 2.20456 3.79863 0
M  V30 1935 H 179.057 3.36779 2.59731 0
M  V30 1936 N 177.372 -0.689602 1.41712 0
M  V30 1937 C 178.62 -1.4468 1.4111 0
M  V30 1938 C 178.941 -1.94986 0.0232196 0
M  V30 1939 O 178.211 -1.72097 -0.935913 0
M  V30 1940 H 176.791 -0.536847 0.519427 0
M  V30 1941 H 179.453 -0.815825 1.77004 0
M  V30 1942 H 178.549 -2.30706 2.10193 0
M  V30 1943 N 178.85 -1.27639 -0.924453 0
M  V30 1944 C 179.8 -1.07295 -2.01176 0
M  V30 1945 C 180.784 5.77352e-05 -1.609 0
M  V30 1946 O 181.976 -0.218855 -1.75642 0
M  V30 1947 C 179.105 -0.725592 -3.35544 0
M  V30 1948 C 178.191 -1.83691 -3.82254 0
M  V30 1949 N 178.582 -3.07697 -4.01443 0
M  V30 1950 C 176.88 -1.72433 -4.11319 0
M  V30 1951 C 177.581 -3.80037 -4.40394 0
M  V30 1952 N 176.557 -3.0782 -4.48049 0
M  V30 1953 H 180.359 -2.01399 -2.14046 0
M  V30 1954 H 177.873 -1.18401 -1.11153 0
M  V30 1955 H 179.87 -0.560959 -4.13109 0
M  V30 1956 H 178.53 0.207782 -3.24034 0
M  V30 1957 H 179.541 -3.43424 -3.8766 0
M  V30 1958 H 176.218 -0.862005 -4.08504 0
M  V30 1959 H 177.608 -4.86632 -4.63291 0
M  V30 1960 N 180.328 1.1314 -1.09713 0
M  V30 1961 C 181.258 2.20748 -0.761102 0
M  V30 1962 C 182.239 1.68061 0.262566 0
M  V30 1963 O 183.424 1.93765 0.129977 0
M  V30 1964 C 180.554 3.46812 -0.184054 0
M  V30 1965 C 179.508 4.12606 -1.13757 0
M  V30 1966 C 178.834 5.33031 -0.422083 0
M  V30 1967 C 180.134 4.59603 -2.48118 0
M  V30 1968 H 181.828 2.49113 -1.66082 0
M  V30 1969 H 179.374 1.19734 -0.799987 0
M  V30 1970 H 181.327 4.21353 0.0631215 0
M  V30 1971 H 180.051 3.17851 0.750868 0
M  V30 1972 H 178.71 3.40036 -1.37007 0
M  V30 1973 H 178.358 5.00335 0.517072 0
M  V30 1974 H 178.058 5.77999 -1.05788 0
M  V30 1975 H 179.582 6.10325 -0.183277 0
M  V30 1976 H 180.996 5.25552 -2.29059 0
M  V30 1977 H 179.393 5.15321 -3.07514 0
M  V30 1978 H 180.463 3.73971 -3.08665 0
M  V30 1979 N 181.806 0.884767 1.30421 0
M  V30 1980 C 182.756 0.322846 2.25703 0
M  V30 1981 C 183.74 -0.548582 1.51259 0
M  V30 1982 O 184.932 -0.39304 1.72581 0
M  V30 1983 C 182.061 -0.461787 3.4018 0
M  V30 1984 C 181.147 0.423717 4.21978 0
M  V30 1985 N 181.538 1.52408 4.82292 0
M  V30 1986 C 179.836 0.218795 4.45463 0
M  V30 1987 C 180.537 2.07136 5.43571 0
M  V30 1988 N 179.513 1.36635 5.26148 0
M  V30 1989 H 183.315 1.16363 2.69883 0
M  V30 1990 H 180.829 0.73415 1.44859 0
M  V30 1991 H 182.826 -0.880985 4.07485 0
M  V30 1992 H 181.486 -1.30001 2.9754 0
M  V30 1993 H 182.497 1.90693 4.81515 0
M  V30 1994 H 179.174 -0.582275 4.1342 0
M  V30 1995 H 180.564 2.99538 6.01437 0
M  V30 1996 N 183.284 -1.43765 0.645699 0
M  V30 1997 C 184.53 -2.02197 0.156271 0
M  V30 1998 C 184.863 -1.50776 -1.22393 0
M  V30 1999 O 184.138 -0.697771 -1.81553 0
M  V30 2000 C 184.421 -3.59749 0.158872 0
M  V30 2001 C 184.274 -4.21419 1.57245 0
M  V30 2002 C 185.593 -4.37149 -0.50879 0
M  V30 2003 H 182.712 -0.734694 0.0582602 0
M  V30 2004 H 185.354 -1.71157 0.824951 0
M  V30 2005 H 183.504 -3.86325 -0.410525 0
M  V30 2006 H 185.176 -4.059 2.19186 0
M  V30 2007 H 183.419 -3.78356 2.122 0
M  V30 2008 H 184.09 -5.30482 1.52619 0
M  V30 2009 H 186.566 -4.16093 -0.024412 0
M  V30 2010 H 185.442 -5.4683 -0.476213 0
M  V30 2011 H 185.703 -4.12839 -1.58165 0
M  V30 2012 N 184.763 -0.387143 -1.52771 0
M  V30 2013 C 185.693 0.440551 -2.29306 0
M  V30 2014 C 186.674 1.06535 -1.32606 0
M  V30 2015 O 187.859 1.07853 -1.61497 0
M  V30 2016 C 184.989 1.56919 -3.09829 0
M  V30 2017 C 183.943 1.07054 -4.14395 0
M  V30 2018 C 183.269 2.29109 -4.83129 0
M  V30 2019 C 184.569 0.140015 -5.22112 0
M  V30 2020 H 186.263 -0.198026 -2.98744 0
M  V30 2021 H 183.809 -0.09668 -1.43675 0
M  V30 2022 H 185.762 2.15503 -3.62128 0
M  V30 2023 H 184.486 2.23532 -2.3812 0
M  V30 2024 H 183.145 0.507247 -3.63074 0
M  V30 2025 H 182.793 2.94227 -4.0797 0
M  V30 2026 H 182.493 1.96406 -5.53804 0
M  V30 2027 H 184.017 2.88339 -5.38231 0
M  V30 2028 H 185.431 0.633978 -5.69784 0
M  V30 2029 H 183.828 -0.0971485 -6.00021 0
M  V30 2030 H 184.898 -0.811711 -4.78058 0
M  V30 2031 N 186.241 1.57166 -0.116904 0
M  V30 2032 C 187.518 1.86645 0.585049 0
M  V30 2033 C 187.898 1.0177 1.84949 0
M  V30 2034 O 187.246 0.0960379 2.28298 0
M  V30 2035 C 187.456 3.37736 0.879507 0
M  V30 2036 C 188.804 4.06289 1.23348 0
M  V30 2037 O 189.828 3.42743 0.969836 0
M  V30 2038 O 188.687 5.18455 1.7282 0
M  V30 2039 H 185.781 0.772593 0.295007 0
M  V30 2040 H 188.327 1.69025 -0.151249 0
M  V30 2041 H 187.099 3.91296 -0.0166136 0
M  V30 2042 H 186.722 3.6078 1.67103 0
M  V30 2043 N 187.719 -0.156864 1.56817 0
M  V30 2044 C 188.629 -1.2136 2.00771 0
M  V30 2045 C 189.645 -1.47598 0.921459 0
M  V30 2046 O 190.821 -1.59462 1.2302 0
M  V30 2047 C 187.886 -2.52943 2.37109 0
M  V30 2048 C 186.947 -2.34439 3.59634 0
M  V30 2049 C 186.18 -3.59748 3.94229 0
M  V30 2050 O 186.403 -4.65526 3.29609 0
M  V30 2051 O 185.337 -3.52998 4.8752 0
M  V30 2052 H 189.163 -0.870468 2.90958 0
M  V30 2053 H 186.748 -0.36484 1.44877 0
M  V30 2054 H 188.63 -3.30538 2.61386 0
M  V30 2055 H 187.305 -2.86806 1.5008 0
M  V30 2056 H 186.212 -1.54828 3.40557 0
M  V30 2057 H 187.545 -2.05496 4.4725 0
M  V30 2058 N 189.197 -1.51736 -0.425897 0
M  V30 2059 C 190.127 -1.76827 -1.52494 0
M  V30 2060 C 191.108 -0.618524 -1.58456 0
M  V30 2061 O 192.293 -0.862416 -1.74 0
M  V30 2062 C 189.423 -1.90374 -2.90474 0
M  V30 2063 C 188.377 -3.0588 -2.99369 0
M  V30 2064 C 187.703 -3.04625 -4.3944 0
M  V30 2065 C 189.003 -4.45644 -2.72394 0
M  V30 2066 H 190.697 -2.68855 -1.31748 0
M  V30 2067 H 188.243 -1.29372 -0.632362 0
M  V30 2068 H 190.196 -2.0651 -3.6733 0
M  V30 2069 H 188.92 -0.95004 -3.12477 0
M  V30 2070 H 187.579 -2.89467 -2.24954 0
M  V30 2071 H 187.227 -2.0701 -4.58428 0
M  V30 2072 H 186.927 -3.82195 -4.46319 0
M  V30 2073 H 188.451 -3.22869 -5.18255 0
M  V30 2074 H 189.865 -4.62348 -3.38979 0
M  V30 2075 H 188.262 -5.25006 -2.9067 0
M  V30 2076 H 189.332 -4.54893 -1.67929 0
M  V30 2077 N 190.675 0.682077 -1.42076 0
M  V30 2078 C 191.915 1.45424 -1.43636 0
M  V30 2079 C 192.279 1.91939 -0.0484001 0
M  V30 2080 O 193.48 2.6873 0.0612514 0
M  V30 2081 C 191.751 2.62427 -2.42625 0
M  V30 2082 S 193.31 3.51379 -2.62827 0
M  V30 2083 H 190.128 0.496779 -0.508657 0
M  V30 2084 H 192.73 0.794645 -1.78621 0
M  V30 2085 H 191.434 2.26481 -3.42249 0
M  V30 2086 H 190.965 3.33266 -2.09039 0
M  V30 2087 H 192.98 4.58141 -1.9058 0
M  V30 2088 N 192.153 1.28127 0.917671 0
M  V30 2089 C 193.399 1.15223 1.66888 0
M  V30 2090 C 193.732 -0.299293 1.9188 0
M  V30 2091 O 193.007 -1.21805 1.51637 0
M  V30 2092 C 193.29 1.94706 3.02922 0
M  V30 2093 C 193.143 3.47898 2.85109 0
M  V30 2094 C 194.462 1.75939 4.03402 0
M  V30 2095 H 191.581 0.419946 0.605652 0
M  V30 2096 H 194.223 1.57398 1.06423 0
M  V30 2097 H 192.373 1.58864 3.54534 0
M  V30 2098 H 194.045 3.93624 2.40537 0
M  V30 2099 H 192.288 3.7373 2.20246 0
M  V30 2100 H 192.959 3.98765 3.81694 0
M  V30 2101 H 195.435 2.07209 3.60837 0
M  V30 2102 H 194.311 2.33931 4.96556 0
M  V30 2103 H 194.572 0.709877 4.36364 0
M  V30 2104 N 193.631 -1.12557 1.10312 0
M  V30 2105 C 194.878 -1.84038 0.844759 0
M  V30 2106 C 195.206 -1.84026 -0.629668 0
M  V30 2107 O 194.461 -1.28026 -1.48013 0
M  V30 2108 C 194.76 -3.31462 1.33669 0
M  V30 2109 C 194.426 -3.51647 2.82232 0
M  V30 2110 C 193.088 -3.56864 3.22802 0
M  V30 2111 C 195.44 -3.58867 3.77974 0
M  V30 2112 C 192.768 -3.66844 4.57867 0
M  V30 2113 C 195.12 -3.70375 5.1284 0
M  V30 2114 C 193.784 -3.73848 5.52986 0
M  V30 2115 H 193.054 -0.673444 0.309119 0
M  V30 2116 H 195.701 -1.32824 1.37949 0
M  V30 2117 H 194.006 -3.85091 0.721949 0
M  V30 2118 H 195.703 -3.85236 1.11329 0
M  V30 2119 H 192.293 -3.48249 2.49842 0
M  V30 2120 H 196.477 -3.54107 3.47738 0
M  V30 2121 H 191.733 -3.67804 4.88396 0
M  V30 2122 H 195.907 -3.74904 5.86873 0
M  V30 2123 H 193.534 -3.81333 6.57639 0
M  V30 2124 N 195.109 -0.891671 -1.2995 0
M  V30 2125 C 196.072 -0.36828 -2.26222 0
M  V30 2126 C 197.072 0.493014 -1.53056 0
M  V30 2127 O 198.262 0.299213 -1.71611 0
M  V30 2128 C 195.394 0.47442 -3.37583 0
M  V30 2129 H 196.587 -1.21844 -2.74033 0
M  V30 2130 H 194.14 -0.669107 -1.41254 0
M  V30 2131 H 194.875 1.34489 -2.95099 0
M  V30 2132 H 194.66 -0.142615 -3.91841 0
M  V30 2133 H 196.15 0.83218 -4.09224 0
M  V30 2134 N 196.587 1.43421 -0.653314 0
M  V30 2135 C 197.834 2.01812 -0.166745 0
M  V30 2136 C 198.162 1.51535 1.21931 0
M  V30 2137 O 197.417 0.698975 1.82792 0
M  V30 2138 C 197.716 3.57176 -0.126623 0
M  V30 2139 C 197.382 4.26798 -1.45444 0
M  V30 2140 C 196.044 4.45534 -1.81805 0
M  V30 2141 C 198.396 4.66225 -2.32989 0
M  V30 2142 C 195.724 5.00961 -3.05377 0
M  V30 2143 C 198.076 5.23021 -3.55853 0
M  V30 2144 C 196.74 5.39973 -3.9241 0
M  V30 2145 H 196.01 0.738484 -0.0610162 0
M  V30 2146 H 198.657 1.71896 -0.84404 0
M  V30 2147 H 196.962 3.86634 0.634123 0
M  V30 2148 H 198.659 4.00112 0.266723 0
M  V30 2149 H 195.249 4.12561 -1.16153 0
M  V30 2150 H 199.433 4.51443 -2.06187 0
M  V30 2151 H 194.689 5.12271 -3.3375 0
M  V30 2152 H 198.863 5.52518 -4.23907 0
M  V30 2153 H 196.49 5.82687 -4.88242 0
M  V30 2154 N 198.065 0.39524 1.52563 0
M  V30 2155 C 199.313 -0.184678 2.01254 0
M  V30 2156 C 199.634 -1.46822 1.28329 0
M  V30 2157 O 198.904 -1.91666 0.405094 0
M  V30 2158 H 197.484 -0.0712355 0.743596 0
M  V30 2159 H 200.146 0.528293 1.87603 0
M  V30 2160 H 199.242 -0.390681 3.09645 0
M  V30 2161 N 199.544 -1.57102 0.125237 0
M  V30 2162 C 200.476 -2.12726 -0.853237 0
M  V30 2163 C 201.489 -1.07145 -1.22571 0
M  V30 2164 O 202.678 -1.34497 -1.17358 0
M  V30 2165 C 199.778 -2.61709 -2.15317 0
M  V30 2166 C 198.951 -3.91456 -1.95143 0
M  V30 2167 C 198.01 -4.25973 -3.08923 0
M  V30 2168 O 197.036 -4.94682 -2.81564 0
M  V30 2169 N 198.238 -3.83795 -4.35524 0
M  V30 2170 H 201.003 -2.97307 -0.377964 0
M  V30 2171 H 198.564 -1.61792 -0.0590011 0
M  V30 2172 H 200.556 -2.81826 -2.90441 0
M  V30 2173 H 199.126 -1.81974 -2.54174 0
M  V30 2174 H 198.346 -3.80185 -1.04177 0
M  V30 2175 H 199.634 -4.76283 -1.78976 0
M  V30 2176 H 199.032 -3.2839 -4.60626 0
M  V30 2177 H 197.589 -4.09008 -5.07499 0
M  V30 2178 N 201.022 0.148545 -1.56898 0
M  V30 2179 C 201.932 1.20293 -2.01412 0
M  V30 2180 C 202.948 1.47107 -0.929273 0
M  V30 2181 O 204.124 1.58807 -1.23863 0
M  V30 2182 C 201.189 2.51682 -2.38447 0
M  V30 2183 C 200.25 2.32529 -3.60872 0
M  V30 2184 C 199.483 3.57653 -3.96132 0
M  V30 2185 O 199.706 4.63771 -3.32073 0
M  V30 2186 O 198.64 3.50408 -4.89385 0
M  V30 2187 H 202.466 0.855025 -2.91416 0
M  V30 2188 H 200.051 0.357151 -1.45068 0
M  V30 2189 H 201.933 3.29147 -2.63135 0
M  V30 2190 H 200.608 2.86006 -1.51599 0
M  V30 2191 H 199.515 1.53019 -3.41373 0
M  V30 2192 H 200.848 2.03121 -4.48333 0
M  V30 2193 N 202.5 1.5196 0.417844 0
M  V30 2194 C 203.463 1.74065 1.49111 0
M  V30 2195 C 204.463 0.610537 1.48758 0
M  V30 2196 O 205.653 0.87832 1.50437 0
M  V30 2197 C 202.785 1.81502 2.88565 0
M  V30 2198 H 203.978 2.69869 1.30807 0
M  V30 2199 H 201.531 1.42244 0.647785 0
M  V30 2200 H 202.266 0.875813 3.1225 0
M  V30 2201 H 202.051 2.63651 2.90225 0
M  V30 2202 H 203.541 2.00376 3.66387 0
M  V30 2203 N 203.978 -0.674533 1.42435 0
M  V30 2204 C 205.255 -1.4305 1.33402 0
M  V30 2205 C 205.635 -2.11081 -0.0284674 0
M  V30 2206 O 204.983 -2.03257 -1.04397 0
M  V30 2207 C 205.193 -2.43272 2.50239 0
M  V30 2208 C 206.541 -3.07907 2.92367 0
M  V30 2209 O 207.565 -2.53599 2.50132 0
M  V30 2210 O 206.424 -4.0632 3.65467 0
M  V30 2211 H 203.518 -0.638076 0.526106 0
M  V30 2212 H 206.064 -0.703235 1.54443 0
M  V30 2213 H 204.836 -1.91803 3.41068 0
M  V30 2214 H 204.459 -3.23479 2.31186 0
M  V30 2215 N 205.456 -1.28612 -0.910864 0
M  V30 2216 C 206.686 -1.1862 -1.69153 0
M  V30 2217 C 207.094 0.257324 -1.87442 0
M  V30 2218 O 206.437 1.18543 -1.40332 0
M  V30 2219 C 206.499 -1.81606 -3.10257 0
M  V30 2220 C 206.163 -3.30864 -3.15243 0
M  V30 2221 C 207.16 -4.27256 -2.96223 0
M  V30 2222 C 204.845 -3.71871 -3.37664 0
M  V30 2223 C 206.839 -5.62631 -2.99541 0
M  V30 2224 C 204.526 -5.07371 -3.40614 0
M  V30 2225 C 205.524 -6.02561 -3.21573 0
M  V30 2226 O 205.212 -7.35589 -3.2429 0
M  V30 2227 H 204.944 -0.412633 -0.535453 0
M  V30 2228 H 207.498 -1.70306 -1.14827 0
M  V30 2229 H 205.728 -1.24418 -3.66138 0
M  V30 2230 H 207.417 -1.66092 -3.70362 0
M  V30 2231 H 208.183 -3.9691 -2.78725 0
M  V30 2232 H 204.062 -2.98241 -3.5153 0
M  V30 2233 H 207.606 -6.36907 -2.84597 0
M  V30 2234 H 203.503 -5.37366 -3.57642 0
M  V30 2235 H 204.271 -7.44252 -3.40633 0
M  V30 2236 N 206.934 1.1197 -1.10907 0
M  V30 2237 C 208.18 1.84059 -0.865674 0
M  V30 2238 C 208.535 1.82731 0.602254 0
M  V30 2239 O 207.828 1.26543 1.43866 0
M  V30 2240 C 208.022 3.30749 -1.35425 0
M  V30 2241 C 207.851 3.46363 -2.86815 0
M  V30 2242 C 206.621 3.59712 -3.54874 0
M  V30 2243 C 208.819 3.41116 -3.84895 0
M  V30 2244 N 206.801 3.63741 -4.94536 0
M  V30 2245 C 208.172 3.51698 -5.10596 0
M  V30 2246 C 210.227 3.24612 -3.77533 0
M  V30 2247 C 208.93 3.4748 -6.29802 0
M  V30 2248 C 210.956 3.21708 -4.96244 0
M  V30 2249 C 210.318 3.32856 -6.20795 0
M  V30 2250 H 206.417 0.689015 -0.369841 0
M  V30 2251 H 209.001 1.34016 -1.41237 0
M  V30 2252 H 207.172 3.79322 -0.834814 0
M  V30 2253 H 208.904 3.90718 -1.05458 0
M  V30 2254 H 205.659 3.62038 -3.05329 0
M  V30 2255 H 206.083 3.69408 -5.67333 0
M  V30 2256 H 210.725 3.14883 -2.8215 0
M  V30 2257 H 208.443 3.55978 -7.25469 0
M  V30 2258 H 212.029 3.10113 -4.92261 0
M  V30 2259 H 210.909 3.3059 -7.11112 0
M  V30 2260 N 208.412 0.89855 1.29475 0
M  V30 2261 C 209.66 0.522847 1.9522 0
M  V30 2262 C 209.981 -0.93371 1.71192 0
M  V30 2263 O 209.251 -1.65823 1.04305 0
M  V30 2264 H 207.831 0.190366 0.722336 0
M  V30 2265 H 210.493 1.14459 1.5775 0
M  V30 2266 H 209.589 0.704476 3.04045 0
M  V30 2267 N 209.89 -1.43072 0.660911 0
M  V30 2268 C 210.82 -2.33497 -0.0122829 0
M  V30 2269 C 211.801 -1.49903 -0.803925 0
M  V30 2270 O 212.986 -1.78546 -0.763864 0
M  V30 2271 C 210.116 -3.33363 -0.973994 0
M  V30 2272 C 209.07 -4.27003 -0.291928 0
M  V30 2273 C 208.396 -5.16967 -1.36562 0
M  V30 2274 C 209.696 -5.15816 0.820462 0
M  V30 2275 H 211.39 -2.90038 0.742873 0
M  V30 2276 H 208.936 -1.39461 0.358688 0
M  V30 2277 H 210.889 -3.95524 -1.45392 0
M  V30 2278 H 209.613 -2.75095 -1.7604 0
M  V30 2279 H 208.272 -3.66217 0.167623 0
M  V30 2280 H 207.92 -4.55034 -2.14366 0
M  V30 2281 H 207.62 -5.80441 -0.914454 0
M  V30 2282 H 209.144 -5.82003 -1.84675 0
M  V30 2283 H 210.558 -5.71742 0.422366 0
M  V30 2284 H 208.955 -5.8805 1.19656 0
M  V30 2285 H 210.025 -4.55045 1.67518 0
M  V30 2286 N 211.368 -0.403325 -1.52352 0
M  V30 2287 C 212.616 0.174003 -2.0135 0
M  V30 2288 C 212.937 1.46139 -1.29106 0
M  V30 2289 O 212.207 1.91448 -0.415253 0
M  V30 2290 H 210.787 0.0672911 -0.743963 0
M  V30 2291 H 213.449 -0.538235 -1.87321 0
M  V30 2292 H 212.545 0.374254 -3.09848 0
M  V30 2293 N 212.846 1.57033 -0.133567 0
M  V30 2294 C 213.756 2.19632 0.824564 0
M  V30 2295 C 214.772 1.17666 1.28182 0
M  V30 2296 O 215.948 1.50193 1.3418 0
M  V30 2297 C 213.013 2.79499 2.05137 0
M  V30 2298 C 212.074 3.96548 1.64464 0
M  V30 2299 C 211.307 4.5355 2.81297 0
M  V30 2300 O 211.53 4.09438 3.97136 0
M  V30 2301 O 210.464 5.44018 2.57542 0
M  V30 2302 H 214.29 3.01991 0.321766 0
M  V30 2303 H 211.875 1.49112 0.0927889 0
M  V30 2304 H 213.757 3.17602 2.7696 0
M  V30 2305 H 212.432 2.00162 2.54395 0
M  V30 2306 H 211.339 3.63186 0.897048 0
M  V30 2307 H 212.672 4.77364 1.19934 0
M  V30 2308 N 214.325 -0.140222 1.56975 0
M  V30 2309 C 215.273 -1.19207 1.99731 0
M  V30 2310 C 216.267 -1.44089 0.890777 0
M  V30 2311 O 217.473 -1.44301 1.07597 0
M  V30 2312 H 213.848 -0.40142 0.635898 0
M  V30 2313 H 215.819 -0.804813 2.87342 0
M  V30 2314 C 214.568 -2.51617 2.39967 0
M  V30 2315 H 213.891 -2.33303 3.24669 0
M  V30 2316 H 215.331 -3.23827 2.73701 0
M  V30 2317 C 213.79 -3.12654 1.25496 0
M  V30 2318 O 214.32 -3.97786 0.559371 0
M  V30 2319 N 212.526 -2.72206 1.01746 0
M  V30 2320 H 212.073 -2.03074 1.58489 0
M  V30 2321 H 212.031 -3.13377 0.253461 0
M  V30 2322 N 215.803 -1.52179 -0.40978 0
M  V30 2323 C 216.766 -1.74853 -1.48186 0
M  V30 2324 C 217.766 -0.618417 -1.48433 0
M  V30 2325 O 218.956 -0.886286 -1.49969 0
M  V30 2326 C 216.088 -1.8303 -2.87598 0
M  V30 2327 H 217.281 -2.70559 -1.29374 0
M  V30 2328 H 214.834 -1.42586 -0.640233 0
M  V30 2329 H 215.569 -0.89236 -3.11781 0
M  V30 2330 H 215.354 -2.65187 -2.88822 0
M  V30 2331 H 216.844 -2.02316 -3.65319 0
M  V30 2332 N 217.281 0.66697 -1.42791 0
M  V30 2333 C 218.211 1.79218 -1.49677 0
M  V30 2334 C 219.192 1.66405 -0.352623 0
M  V30 2335 O 220.377 1.85708 -0.567993 0
M  V30 2336 C 217.507 3.17565 -1.40605 0
M  V30 2337 C 216.461 3.45124 -2.53127 0
M  V30 2338 C 215.787 4.83127 -2.29112 0
M  V30 2339 C 217.087 3.41236 -3.95418 0
M  V30 2340 H 218.781 1.73713 -2.43853 0
M  V30 2341 H 216.327 0.83432 -1.17367 0
M  V30 2342 H 218.28 3.96022 -1.44029 0
M  V30 2343 H 217.004 3.23767 -0.429271 0
M  V30 2344 H 215.663 2.69031 -2.49034 0
M  V30 2345 H 215.311 4.85988 -1.29709 0
M  V30 2346 H 215.011 5.02528 -3.04531 0
M  V30 2347 H 216.535 5.63859 -2.34297 0
M  V30 2348 H 217.949 4.09651 -4.01073 0
M  V30 2349 H 216.346 3.72173 -4.70752 0
M  V30 2350 H 217.416 2.39665 -4.21532 0
M  V30 2351 N 218.759 1.29093 0.90403 0
M  V30 2352 C 219.722 1.1386 1.98919 0
M  V30 2353 C 220.722 0.0753457 1.60623 0
M  V30 2354 O 221.912 0.321931 1.71199 0
M  V30 2355 C 219.044 0.740198 3.32767 0
M  V30 2356 H 220.237 2.10246 2.13861 0
M  V30 2357 H 217.79 1.12218 1.08797 0
M  V30 2358 H 218.525 -0.223997 3.23525 0
M  V30 2359 H 218.31 1.50838 3.61926 0
M  V30 2360 H 219.8 0.656546 4.12407 0
M  V30 2361 N 220.237 -1.11381 1.11499 0
M  V30 2362 C 221.2 -2.15622 0.777153 0
M  V30 2363 C 222.2 -1.59504 -0.203779 0
M  V30 2364 O 223.39 -1.74188 0.020782 0
M  V30 2365 C 220.522 -3.40556 0.153116 0
M  V30 2366 H 221.715 -2.47021 1.70061 0
M  V30 2367 H 219.268 -1.26577 0.916952 0
M  V30 2368 H 220.003 -3.14767 -0.780536 0
M  V30 2369 H 219.788 -3.8257 0.859238 0
M  V30 2370 H 221.278 -4.17546 -0.0671044 0
M  V30 2371 N 221.715 -0.905404 -1.28997 0
M  V30 2372 C 222.955 -0.541232 -1.97104 0
M  V30 2373 C 223.319 0.896841 -1.69767 0
M  V30 2374 O 224.52 1.36817 -2.31375 0
M  V30 2375 C 222.791 -0.832134 -3.47578 0
M  V30 2376 S 224.35 -0.573127 -4.35041 0
M  V30 2377 H 221.168 -0.200576 -0.682122 0
M  V30 2378 H 223.77 -1.16906 -1.56694 0
M  V30 2379 H 222.474 -1.87687 -3.64968 0
M  V30 2380 H 222.005 -0.192636 -3.92928 0
M  V30 2381 H 224.02 0.579297 -4.92807 0
M  V30 2382 N 223.193 1.4272 -0.668489 0
M  V30 2383 C 224.433 2.03497 -0.19194 0
M  V30 2384 C 224.797 1.51684 1.17712 0
M  V30 2385 O 225.998 2.04205 1.74796 0
M  V30 2386 C 224.269 3.56734 -0.218032 0
M  V30 2387 S 225.828 4.38395 0.188438 0
M  V30 2388 H 222.646 0.706542 -0.0794959 0
M  V30 2389 H 225.248 1.74563 -0.880235 0
M  V30 2390 H 223.952 3.91943 -1.2169 0
M  V30 2391 H 223.483 3.90333 0.490303 0
M  V30 2392 H 225.498 4.75345 1.42345 0
M  V30 2393 N 224.671 0.411399 1.52136 0
M  V30 2394 C 226.087 0.0623865 1.59478 0
M  V30 2395 C 226.287 -1.42554 1.4241 0
M  V30 2396 O 225.343 -2.19263 1.2522 0
M  V30 2397 C 226.656 0.559331 2.95452 0
M  V30 2398 C 228.204 0.517503 3.08692 0
M  V30 2399 C 228.679 0.990994 4.4715 0
M  V30 2400 N 230.17 0.947908 4.53397 0
M  V30 2401 C 230.905 1.28544 5.58806 0
M  V30 2402 N 230.401 1.69454 6.71757 0
M  V30 2403 N 232.194 1.20526 5.49026 0
M  V30 2404 H 224.345 1.37982 1.61477 0
M  V30 2405 H 226.608 0.566977 0.759764 0
M  V30 2406 H 226.314 1.59938 3.1323 0
M  V30 2407 H 226.188 -0.0298014 3.77188 0
M  V30 2408 H 228.575 -0.513505 2.90598 0
M  V30 2409 H 228.656 1.14272 2.28857 0
M  V30 2410 H 228.3 2.02034 4.65988 0
M  V30 2411 H 228.23 0.34257 5.25485 0
M  V30 2412 H 230.721 0.647157 3.72317 0
M  V30 2413 H 231.034 1.93513 7.48179 0
M  V30 2414 H 229.379 1.73359 6.73032 0
M  V30 2415 H 232.57 0.884505 4.59667 0
M  V30 2416 H 232.743 1.47161 6.31069 0
M  V30 2417 N 226.149 -1.5696 0.141893 0
M  V30 2418 C 227.112 -2.15316 -0.785587 0
M  V30 2419 C 228.112 -1.09366 -1.1788 0
M  V30 2420 O 229.302 -1.35031 -1.10056 0
M  V30 2421 C 226.434 -2.71211 -2.06537 0
M  V30 2422 H 227.627 -2.98608 -0.278041 0
M  V30 2423 H 225.18 -1.5593 -0.107519 0
M  V30 2424 H 225.915 -1.91571 -2.6167 0
M  V30 2425 H 225.7 -3.4872 -1.79268 0
M  V30 2426 H 227.19 -3.16189 -2.72789 0
M  V30 2427 N 227.627 0.131896 -1.57047 0
M  V30 2428 C 229.043 0.485031 -1.52051 0
M  V30 2429 C 229.243 1.82563 -0.85281 0
M  V30 2430 O 228.299 2.48817 -0.429694 0
M  V30 2431 C 229.612 0.481409 -2.96821 0
M  V30 2432 C 231.16 0.565868 -3.07842 0
M  V30 2433 C 231.635 0.592762 -4.54148 0
M  V30 2434 N 233.126 0.654564 -4.58552 0
M  V30 2435 C 233.861 0.696608 -5.69153 0
M  V30 2436 N 233.357 0.697078 -6.89284 0
M  V30 2437 N 235.15 0.738639 -5.57226 0
M  V30 2438 H 227.301 -0.746664 -1.98843 0
M  V30 2439 H 229.564 -0.273999 -0.90754 0
M  V30 2440 H 229.27 -0.435731 -3.4899 0
M  V30 2441 H 229.144 1.3139 -3.53577 0
M  V30 2442 H 231.531 1.47343 -2.55684 0
M  V30 2443 H 231.612 -0.29406 -2.54104 0
M  V30 2444 H 231.256 -0.310701 -5.06949 0
M  V30 2445 H 231.186 1.46939 -5.05684 0
M  V30 2446 H 233.677 0.660887 -3.72076 0
M  V30 2447 H 233.99 0.731426 -7.69331 0
M  V30 2448 H 232.335 0.66471 -6.91814 0
M  V30 2449 H 235.526 0.735545 -4.62285 0
M  V30 2450 H 235.699 0.767938 -6.43434 0
M  V30 2451 N 229.106 1.52395 0.401703 0
M  V30 2452 C 230.336 1.70429 1.1678 0
M  V30 2453 C 230.744 0.416702 1.84554 0
M  V30 2454 O 230.087 -0.617697 1.73003 0
M  V30 2455 C 230.149 2.78919 2.26814 0
M  V30 2456 C 229.813 4.20437 1.79113 0
M  V30 2457 C 230.81 5.04028 1.27482 0
M  V30 2458 C 228.495 4.66704 1.85722 0
M  V30 2459 C 230.489 6.31961 0.830913 0
M  V30 2460 C 228.176 5.94625 1.40942 0
M  V30 2461 C 229.174 6.77082 0.897128 0
M  V30 2462 O 228.862 8.02607 0.455822 0
M  V30 2463 H 228.594 0.574272 0.356634 0
M  V30 2464 H 231.148 1.99767 0.477724 0
M  V30 2465 H 229.378 2.44973 2.99207 0
M  V30 2466 H 231.067 2.8548 2.88541 0
M  V30 2467 H 231.833 4.69471 1.21744 0
M  V30 2468 H 227.712 4.0262 2.24539 0
M  V30 2469 H 231.256 6.96271 0.430368 0
M  V30 2470 H 227.153 6.28688 1.46362 0
M  V30 2471 H 227.921 8.16453 0.578457 0
M  V30 2472 N 230.584 -0.659388 1.43143 0
M  V30 2473 C 231.514 -1.78422 1.50625 0
M  V30 2474 C 232.495 -1.66216 0.361443 0
M  V30 2475 O 233.68 -1.85404 0.577834 0
M  V30 2476 C 230.81 -3.16815 1.42287 0
M  V30 2477 C 229.764 -3.43777 2.54954 0
M  V30 2478 C 229.09 -4.81905 2.31671 0
M  V30 2479 C 230.39 -3.39134 3.97222 0
M  V30 2480 H 232.084 -1.72417 2.44771 0
M  V30 2481 H 229.63 -0.828084 1.17808 0
M  V30 2482 H 231.583 -3.95253 1.46127 0
M  V30 2483 H 230.307 -3.23534 0.446435 0
M  V30 2484 H 228.966 -2.67707 2.50457 0
M  V30 2485 H 228.614 -4.85294 1.32284 0
M  V30 2486 H 228.314 -5.00906 3.07192 0
M  V30 2487 H 229.838 -5.62609 2.37284 0
M  V30 2488 H 231.252 -4.07518 4.03239 0
M  V30 2489 H 229.649 -3.69671 4.72719 0
M  V30 2490 H 230.719 -2.37426 4.22797 0
M  V30 2491 N 232.062 -1.29571 -0.897171 0
M  V30 2492 C 232.972 -1.16808 -2.03453 0
M  V30 2493 C 233.988 -0.0907471 -1.73763 0
M  V30 2494 O 235.164 -0.303312 -1.99103 0
M  V30 2495 C 232.229 -0.848264 -3.36163 0
M  V30 2496 C 231.29 -2.0097 -3.79354 0
M  V30 2497 C 230.523 -1.70505 -5.05731 0
M  V30 2498 O 230.746 -0.62718 -5.66941 0
M  V30 2499 O 229.68 -2.5538 -5.45036 0
M  V30 2500 H 233.506 -2.12325 -2.17144 0
M  V30 2501 H 231.091 -1.09047 -1.02123 0
M  V30 2502 H 232.973 -0.684581 -4.15802 0
M  V30 2503 H 231.648 0.0771071 -3.23608 0
M  V30 2504 H 230.555 -2.22863 -3.00471 0
M  V30 2505 H 231.888 -2.91636 -3.96496 0
M  V30 2506 N 233.54 1.10788 -1.12088 0
M  V30 2507 C 234.956 1.34691 -0.856186 0
M  V30 2508 C 235.156 1.94791 0.515615 0
M  V30 2509 O 234.212 2.18524 1.26505 0
M  V30 2510 C 235.525 2.27208 -1.9697 0
M  V30 2511 C 237.073 2.40755 -2.00016 0
M  V30 2512 C 237.548 3.36598 -3.1059 0
M  V30 2513 N 239.039 3.44164 -3.10008 0
M  V30 2514 C 239.774 4.18284 -3.92206 0
M  V30 2515 N 239.27 4.95322 -4.84384 0
M  V30 2516 N 241.063 4.13865 -3.80357 0
M  V30 2517 H 233.214 0.70144 -2.00483 0
M  V30 2518 H 235.477 0.371405 -0.872217 0
M  V30 2519 H 235.183 1.90251 -2.958 0
M  V30 2520 H 235.057 3.27485 -1.87172 0
M  V30 2521 H 237.444 2.76982 -1.01808 0
M  V30 2522 H 237.525 1.40305 -2.13888 0
M  V30 2523 H 237.169 3.01096 -4.09028 0
M  V30 2524 H 237.099 4.36918 -2.93956 0
M  V30 2525 H 239.59 2.8922 -2.43228 0
M  V30 2526 H 239.903 5.49267 -5.43623 0
M  V30 2527 H 238.248 4.94459 -4.884 0
M  V30 2528 H 241.439 3.52773 -3.07683 0
M  V30 2529 H 241.612 4.71372 -4.44649 0
M  V30 2530 N 235.018 0.912232 1.28515 0
M  V30 2531 C 236.434 0.610159 1.47476 0
M  V30 2532 C 236.634 -0.844955 1.82928 0
M  V30 2533 O 235.69 -1.62416 1.93332 0
M  V30 2534 C 237.003 1.54675 2.57868 0
M  V30 2535 C 238.551 1.55331 2.71738 0
M  V30 2536 C 239.026 2.47649 3.85272 0
M  V30 2537 N 240.517 2.45767 3.92623 0
M  V30 2538 C 241.252 3.13896 4.79851 0
M  V30 2539 N 240.748 3.9135 5.71679 0
M  V30 2540 N 242.541 3.02991 4.73448 0
M  V30 2541 H 234.692 1.85318 1.03783 0
M  V30 2542 H 236.955 0.794777 0.516753 0
M  V30 2543 H 236.661 2.5841 2.38574 0
M  V30 2544 H 236.535 1.27671 3.54937 0
M  V30 2545 H 238.922 0.52335 2.90422 0
M  V30 2546 H 239.003 1.86378 1.75205 0
M  V30 2547 H 238.647 3.50745 3.67342 0
M  V30 2548 H 238.577 2.13904 4.81199 0
M  V30 2549 H 241.068 1.89503 3.26951 0
M  V30 2550 H 241.381 4.40359 6.35062 0
M  V30 2551 H 239.726 3.95455 5.71524 0
M  V30 2552 H 242.917 2.41987 4.007 0
M  V30 2553 H 243.09 3.5636 5.41213 0
M  V30 2554 N 236.496 -1.42363 0.676048 0
M  V30 2555 C 237.426 -2.33497 0.0124832 0
M  V30 2556 C 238.407 -1.50748 -0.787981 0
M  V30 2557 O 239.592 -1.79346 -0.744884 0
M  V30 2558 C 236.722 -3.34377 -0.938582 0
M  V30 2559 C 235.676 -4.27289 -0.246622 0
M  V30 2560 C 235.002 -5.18386 -1.31071 0
M  V30 2561 C 236.302 -5.14916 0.875125 0
M  V30 2562 H 237.996 -2.89233 0.773593 0
M  V30 2563 H 235.542 -1.39073 0.37346 0
M  V30 2564 H 237.495 -3.97044 -1.41188 0
M  V30 2565 H 236.219 -2.76947 -1.73113 0
M  V30 2566 H 234.878 -3.66018 0.206456 0
M  V30 2567 H 234.526 -4.57282 -2.09528 0
M  V30 2568 H 234.226 -5.81378 -0.852839 0
M  V30 2569 H 235.75 -5.83929 -1.78492 0
M  V30 2570 H 237.164 -5.71262 0.482983 0
M  V30 2571 H 235.561 -5.86747 1.25887 0
M  V30 2572 H 236.631 -4.53242 1.72335 0
M  V30 2573 N 237.974 -0.419461 -1.51915 0
M  V30 2574 C 239.202 0.152136 -2.0634 0
M  V30 2575 C 239.617 1.37988 -1.28859 0
M  V30 2576 O 238.974 1.79243 -0.343232 0
M  V30 2577 C 239.025 0.492266 -3.58133 0
M  V30 2578 O 238.746 -0.686736 -4.32684 0
M  V30 2579 C 240.247 1.11648 -4.2901 0
M  V30 2580 H 237.467 0.0158325 -0.670813 0
M  V30 2581 H 240.011 -0.593394 -1.95702 0
M  V30 2582 H 238.166 1.18769 -3.68745 0
M  V30 2583 H 238.58 -0.400341 -5.2297 0
M  V30 2584 H 240.054 1.3046 -5.36362 0
M  V30 2585 H 240.531 2.09251 -3.86148 0
M  V30 2586 H 241.137 0.460958 -4.22795 0
M  V30 2587 N 239.452 1.56882 -0.150215 0
M  V30 2588 C 240.384 2.14057 0.819286 0
M  V30 2589 C 241.397 1.09082 1.20851 0
M  V30 2590 O 242.586 1.36347 1.15203 0
M  V30 2591 C 239.686 2.65102 2.11127 0
M  V30 2592 C 238.859 3.94511 1.88891 0
M  V30 2593 C 237.918 4.30834 3.02107 0
M  V30 2594 O 236.944 4.99099 2.73659 0
M  V30 2595 N 238.146 3.90676 4.29363 0
M  V30 2596 H 240.911 2.97871 0.330618 0
M  V30 2597 H 238.472 1.61866 0.0332538 0
M  V30 2598 H 240.464 2.86411 2.85921 0
M  V30 2599 H 239.034 1.85994 2.51247 0
M  V30 2600 H 238.254 3.81795 0.981152 0
M  V30 2601 H 239.542 4.7907 1.71376 0
M  V30 2602 H 238.94 3.35677 4.55343 0
M  V30 2603 H 237.497 4.1703 5.00928 0
M  V30 2604 N 240.93 -0.123565 1.57115 0
M  V30 2605 C 242.341 -0.681198 1.73829 0
M  V30 2606 C 242.692 -1.80535 0.768214 0
M  V30 2607 O 241.817 -2.16317 -0.0599103 0
M  V30 2608 C 242.412 -1.24246 3.15196 0
M  V30 2609 C 240.971 -1.74643 3.33432 0
M  V30 2610 C 240.118 -0.644284 2.69711 0
M  V30 2611 H 243.069 0.102315 1.5837 0
M  V30 2612 H 243.09 -2.11216 3.16493 0
M  V30 2613 H 242.602 -0.424062 3.85776 0
M  V30 2614 H 240.703 -2.58974 2.67886 0
M  V30 2615 H 240.816 -1.85902 4.41562 0
M  V30 2616 H 239.18 -1.07676 2.3082 0
M  V30 2617 H 239.963 0.163058 3.42913 0
M  V30 2618 N 242.408 -1.52605 -0.393616 0
M  V30 2619 C 243.358 -1.73436 -1.48 0
M  V30 2620 C 244.342 -0.588386 -1.49756 0
M  V30 2621 O 245.534 -0.846047 -1.5547 0
M  V30 2622 C 242.663 -1.90247 -2.85764 0
M  V30 2623 C 241.749 -3.10763 -2.88595 0
M  V30 2624 N 242.14 -4.33196 -2.61103 0
M  V30 2625 C 240.438 -3.10914 -3.19763 0
M  V30 2626 C 241.139 -5.1477 -2.70899 0
M  V30 2627 N 240.115 -4.50356 -3.04435 0
M  V30 2628 H 243.917 -2.65727 -1.25563 0
M  V30 2629 H 241.431 -1.5085 -0.601513 0
M  V30 2630 H 243.428 -2.03291 -3.63976 0
M  V30 2631 H 242.088 -0.991663 -3.09186 0
M  V30 2632 H 243.099 -4.61408 -2.35209 0
M  V30 2633 H 239.776 -2.29626 -3.4868 0
M  V30 2634 H 241.166 -6.22355 -2.53227 0
M  V30 2635 N 243.887 0.651787 -1.4349 0
M  V30 2636 C 244.85 1.74647 -1.48429 0
M  V30 2637 C 245.85 1.56513 -0.368817 0
M  V30 2638 O 247.04 1.62385 -0.630623 0
M  V30 2639 C 244.172 3.13533 -1.33827 0
M  V30 2640 H 245.365 1.71649 -2.4592 0
M  V30 2641 H 242.918 0.863573 -1.30277 0
M  V30 2642 H 243.653 3.22142 -0.37349 0
M  V30 2643 H 243.438 3.28101 -2.14691 0
M  V30 2644 H 244.928 3.93356 -1.40218 0
M  V30 2645 N 245.365 1.30045 0.890287 0
M  V30 2646 C 246.611 1.19747 1.64415 0
M  V30 2647 C 246.966 -0.246591 1.90813 0
M  V30 2648 O 246.259 -1.174 1.51419 0
M  V30 2649 C 246.453 1.95409 2.99249 0
M  V30 2650 C 246.282 3.47025 2.86013 0
M  V30 2651 C 245.052 4.1638 2.86279 0
M  V30 2652 C 247.25 4.42353 2.62351 0
M  V30 2653 N 245.232 5.54293 2.63879 0
M  V30 2654 C 246.603 5.67792 2.49022 0
M  V30 2655 C 248.658 4.32009 2.47533 0
M  V30 2656 C 247.361 6.8406 2.22383 0
M  V30 2657 C 249.387 5.48038 2.22279 0
M  V30 2658 C 248.749 6.72455 2.09722 0
M  V30 2659 H 244.848 0.493223 0.60684 0
M  V30 2660 H 247.432 1.6399 1.04954 0
M  V30 2661 H 245.603 1.53565 3.56752 0
M  V30 2662 H 247.335 1.77298 3.63796 0
M  V30 2663 H 244.09 3.68164 2.97913 0
M  V30 2664 H 244.514 6.26852 2.55706 0
M  V30 2665 H 249.156 3.36503 2.55979 0
M  V30 2666 H 246.874 7.79612 2.12675 0
M  V30 2667 H 250.46 5.41939 2.11643 0
M  V30 2668 H 249.34 7.60722 1.90453 0
M  V30 2669 N 246.843 -1.10192 1.12674 0
M  V30 2670 C 248.12 -1.78717 0.794965 0
M  V30 2671 C 248.5 -1.98628 -0.714853 0
M  V30 2672 O 247.848 -1.58135 -1.64941 0
M  V30 2673 C 248.058 -3.11546 1.5729 0
M  V30 2674 C 249.406 -3.86382 1.76052 0
M  V30 2675 O 250.43 -3.21274 1.53823 0
M  V30 2676 O 249.289 -5.03246 2.13087 0
M  V30 2677 H 246.383 -0.774702 0.289423 0
M  V30 2678 H 248.929 -1.16819 1.23091 0
M  V30 2679 H 247.701 -2.92489 2.59935 0
M  V30 2680 H 247.324 -3.81164 1.13137 0
M  V30 2681 N 248.321 -0.919034 -1.28029 0
M  V30 2682 C 249.231 -0.416756 -2.30869 0
M  V30 2683 C 250.247 0.498235 -1.66714 0
M  V30 2684 O 251.423 0.383144 -1.97722 0
M  V30 2685 C 248.488 0.330274 -3.45123 0
M  V30 2686 C 247.549 -0.618578 -4.2482 0
M  V30 2687 C 246.782 0.0928959 -5.33619 0
M  V30 2688 O 247.005 1.31375 -5.55065 0
M  V30 2689 O 245.939 -0.574499 -5.99152 0
M  V30 2690 H 249.765 -1.27043 -2.75851 0
M  V30 2691 H 247.35 -0.684052 -1.3282 0
M  V30 2692 H 249.232 0.751972 -4.14636 0
M  V30 2693 H 247.907 1.1597 -3.02213 0
M  V30 2694 H 246.814 -1.08978 -3.57875 0
M  V30 2695 H 248.147 -1.41497 -4.71423 0
M  V30 2696 N 249.799 1.42003 -0.683588 0
M  V30 2697 C 251.076 1.95112 -0.138075 0
M  V30 2698 C 251.456 1.62359 1.34918 0
M  V30 2699 O 250.804 0.924311 2.08971 0
M  V30 2700 C 251.014 3.46505 -0.416581 0
M  V30 2701 C 252.362 4.23254 -0.337834 0
M  V30 2702 O 253.386 3.54468 -0.35082 0
M  V30 2703 O 252.245 5.45743 -0.287596 0
M  V30 2704 H 249.339 0.826961 -0.00797996 0
M  V30 2705 H 251.885 1.51784 -0.758924 0
M  V30 2706 H 250.657 3.63582 -1.4465 0
M  V30 2707 H 250.28 3.969 0.235839 0
M  V30 2708 N 251.277 0.427512 1.51691 0
M  V30 2709 C 252.502 -0.143601 2.06902 0
M  V30 2710 C 252.927 -1.36536 1.29382 0
M  V30 2711 O 252.285 -1.78289 0.329043 0
M  V30 2712 C 252.333 -0.454207 3.57728 0
M  V30 2713 O 251.437 -1.54228 3.82475 0
M  V30 2714 H 250.778 -0.00617128 0.663971 0
M  V30 2715 H 253.308 0.606014 1.95419 0
M  V30 2716 H 253.318 -0.707525 4.01818 0
M  V30 2717 H 251.993 0.438812 4.13579 0
M  V30 2718 H 250.57 -1.2797 3.50254 0
M  V30 2719 N 252.755 -1.56801 0.158532 0
M  V30 2720 C 254.032 -1.88131 -0.535357 0
M  V30 2721 C 254.412 -1.06638 -1.82186 0
M  V30 2722 O 253.76 -0.156533 -2.27963 0
M  V30 2723 C 253.97 -3.39949 -0.789653 0
M  V30 2724 C 255.318 -4.09416 -1.12533 0
M  V30 2725 O 256.342 -3.45194 -0.878622 0
M  V30 2726 O 255.201 -5.22855 -1.59014 0
M  V30 2727 H 252.295 -0.780143 -0.27442 0
M  V30 2728 H 254.841 -1.68564 0.19601 0
M  V30 2729 H 253.613 -3.91115 0.120353 0
M  V30 2730 H 253.236 -3.65084 -1.57479 0
M  V30 2731 N 254.233 0.115231 -1.57178 0
M  V30 2732 C 255.461 0.836437 -1.89239 0
M  V30 2733 C 255.876 1.73256 -0.750175 0
M  V30 2734 O 255.233 1.80357 0.278832 0
M  V30 2735 C 255.284 1.66671 -3.20785 0
M  V30 2736 O 255.005 0.806652 -4.3061 0
M  V30 2737 C 256.506 2.49274 -3.66575 0
M  V30 2738 H 253.726 0.240253 -0.626514 0
M  V30 2739 H 256.27 0.0984932 -2.04263 0
M  V30 2740 H 254.425 2.35737 -3.0742 0
M  V30 2741 H 254.839 1.37969 -5.06028 0
M  V30 2742 H 256.313 3.03055 -4.6137 0
M  V30 2743 H 256.79 3.26807 -2.93417 0
M  V30 2744 H 257.396 1.85443 -3.82741 0
M  V30 2745 N 255.711 1.52812 0.385517 0
M  V30 2746 C 257.122 1.5993 0.963293 0
M  V30 2747 C 257.473 0.454302 1.90868 0
M  V30 2748 O 256.598 -0.422132 2.12243 0
M  V30 2749 C 257.193 2.89871 1.75387 0
M  V30 2750 C 255.752 2.99389 2.28129 0
M  V30 2751 C 254.899 2.55071 1.08783 0
M  V30 2752 H 257.85 1.5784 0.164948 0
M  V30 2753 H 257.871 2.76553 2.61341 0
M  V30 2754 H 257.383 3.73186 1.06554 0
M  V30 2755 H 255.484 2.20619 3.00263 0
M  V30 2756 H 255.597 4.04096 2.57377 0
M  V30 2757 H 253.961 2.09473 1.4489 0
M  V30 2758 H 254.744 3.40785 0.414807 0
M  V30 2759 N 257.189 -0.644168 1.43834 0
M  V30 2760 C 258.414 -1.43642 1.49605 0
M  V30 2761 C 258.839 -1.8773 0.117913 0
M  V30 2762 O 258.197 -1.57938 -0.890239 0
M  V30 2763 C 258.245 -2.6416 2.45463 0
M  V30 2764 O 257.349 -3.63538 1.94714 0
M  V30 2765 H 256.69 -0.430329 0.50568 0
M  V30 2766 H 259.22 -0.787448 1.8884 0
M  V30 2767 H 259.23 -3.11864 2.63068 0
M  V30 2768 H 257.905 -2.31414 3.45572 0
M  V30 2769 H 256.482 -3.2273 1.86814 0
M  V30 2770 N 258.668 -1.30515 -0.883378 0
M  V30 2771 C 259.893 -1.22487 -1.67367 0
M  V30 2772 C 260.318 0.208767 -1.86938 0
M  V30 2773 O 259.676 1.15015 -1.40148 0
M  V30 2774 C 259.724 -1.96041 -3.02655 0
M  V30 2775 O 258.828 -1.28859 -3.91751 0
M  V30 2776 H 258.169 -0.423573 -0.511353 0
M  V30 2777 H 260.699 -1.72362 -1.10239 0
M  V30 2778 H 260.709 -2.05124 -3.52687 0
M  V30 2779 H 259.384 -3.00307 -2.8773 0
M  V30 2780 H 257.961 -1.28141 -3.50192 0
M  V30 2781 N 260.146 1.09593 -1.13257 0
M  V30 2782 C 261.392 1.82003 -0.89458 0
M  V30 2783 C 261.725 1.85402 0.577906 0
M  V30 2784 O 261 1.32099 1.42759 0
M  V30 2785 C 261.283 3.28237 -1.48096 0
M  V30 2786 C 261.136 3.3312 -3.02244 0
M  V30 2787 C 262.455 4.24871 -1.14774 0
M  V30 2788 H 259.574 0.66077 -0.326424 0
M  V30 2789 H 262.216 1.28389 -1.40058 0
M  V30 2790 H 260.366 3.74024 -1.05062 0
M  V30 2791 H 262.038 2.95748 -3.54021 0
M  V30 2792 H 260.281 2.72756 -3.37323 0
M  V30 2793 H 260.952 4.3613 -3.38371 0
M  V30 2794 H 263.428 3.87361 -1.51957 0
M  V30 2795 H 262.304 5.25532 -1.58452 0
M  V30 2796 H 262.565 4.42058 -0.0611849 0
M  V30 2797 N 261.624 0.925811 1.2754 0
M  V30 2798 C 262.901 0.483726 1.89524 0
M  V30 2799 C 263.281 -1.03809 1.83812 0
M  V30 2800 O 262.629 -1.89143 1.28207 0
M  V30 2801 C 262.839 1.02769 3.33526 0
M  V30 2802 C 264.187 1.08703 4.10449 0
M  V30 2803 O 265.211 0.977175 3.42534 0
M  V30 2804 O 264.07 1.25599 5.31871 0
M  V30 2805 H 261.164 0.15529 0.812289 0
M  V30 2806 H 263.71 1.01738 1.35822 0
M  V30 2807 H 262.482 2.07155 3.31967 0
M  V30 2808 H 262.105 0.475567 3.94746 0
M  V30 2809 N 263.102 -1.41638 0.69111 0
M  V30 2810 C 264.513 -1.84346 0.295517 0
M  V30 2811 C 264.864 -1.57833 -1.16547 0
M  V30 2812 O 263.989 -1.04648 -1.89414 0
M  V30 2813 C 264.584 -3.34636 0.529575 0
M  V30 2814 C 263.143 -3.7593 0.187944 0
M  V30 2815 C 262.29 -2.65082 0.814052 0
M  V30 2816 H 265.241 -1.31253 0.892092 0
M  V30 2817 H 265.262 -3.79903 -0.213148 0
M  V30 2818 H 264.774 -3.53901 1.59297 0
M  V30 2819 H 262.875 -3.62268 -0.871367 0
M  V30 2820 H 262.988 -4.74808 0.63985 0
M  V30 2821 H 261.352 -2.53528 0.244017 0
M  V30 2822 H 262.135 -2.87167 1.88123 0
M  V30 2823 N 264.58 -0.43555 -1.51462 0
M  V30 2824 C 265.82 0.130708 -2.03982 0
M  V30 2825 C 266.184 1.40117 -1.31268 0
M  V30 2826 O 267.385 2.04755 -1.74152 0
M  V30 2827 C 265.656 0.346102 -3.5572 0
M  V30 2828 S 267.215 0.876022 -4.29967 0
M  V30 2829 H 264.033 0.0326881 -0.710248 0
M  V30 2830 H 266.635 -0.594544 -1.8624 0
M  V30 2831 H 265.339 -0.584911 -4.0621 0
M  V30 2832 H 264.87 1.09849 -3.77752 0
M  V30 2833 H 266.885 2.15379 -4.47019 0
M  V30 2834 N 266.058 1.56714 -0.166846 0
M  V30 2835 C 267.469 1.83378 0.350646 0
M  V30 2836 C 267.82 1.08646 1.63372 0
M  V30 2837 O 266.945 0.338058 2.13743 0
M  V30 2838 C 267.54 3.32643 0.642963 0
M  V30 2839 C 266.099 3.59818 1.10491 0
M  V30 2840 C 265.246 2.76954 0.138411 0
M  V30 2841 H 268.197 1.53803 -0.391193 0
M  V30 2842 H 268.218 3.49878 1.49551 0
M  V30 2843 H 267.73 3.87007 -0.291055 0
M  V30 2844 H 265.831 3.1086 2.05418 0
M  V30 2845 H 265.944 4.68178 1.01716 0
M  V30 2846 H 264.308 2.4666 0.634911 0
M  V30 2847 H 265.091 3.34097 -0.789549 0
M  V30 2848 N 267.536 -0.106894 1.57237 0
M  V30 2849 C 268.813 -0.843526 1.76477 0
M  V30 2850 C 269.193 -1.97499 0.745464 0
M  V30 2851 O 268.541 -2.27357 -0.228306 0
M  V30 2852 C 268.751 -1.34903 3.21873 0
M  V30 2853 C 270.099 -1.79654 3.8472 0
M  V30 2854 O 271.123 -1.44554 3.2555 0
M  V30 2855 O 269.982 -2.44515 4.88748 0
M  V30 2856 H 267.076 -0.401468 0.723016 0
M  V30 2857 H 269.622 -0.0896927 1.69463 0
M  V30 2858 H 268.394 -0.53781 3.87586 0
M  V30 2859 H 268.017 -2.16522 3.33473 0
M  V30 2860 N 269.014 -1.53014 -0.377408 0
M  V30 2861 C 269.924 -1.81557 -1.48574 0
M  V30 2862 C 270.94 -0.703102 -1.59162 0
M  V30 2863 O 272.116 -0.99192 -1.75279 0
M  V30 2864 C 269.181 -1.9889 -2.83978 0
M  V30 2865 C 268.242 -3.22801 -2.83016 0
M  V30 2866 C 267.475 -3.39298 -4.11962 0
M  V30 2867 O 267.698 -2.60345 -5.0752 0
M  V30 2868 O 266.632 -4.32604 -4.18494 0
M  V30 2869 H 270.458 -2.75695 -1.27382 0
M  V30 2870 H 268.043 -1.38248 -0.566373 0
M  V30 2871 H 269.925 -2.11931 -3.6423 0
M  V30 2872 H 268.6 -1.07942 -3.05172 0
M  V30 2873 H 267.507 -3.15193 -2.01505 0
M  V30 2874 H 268.84 -4.13632 -2.66775 0
M  V30 2875 N 270.492 0.636531 -1.44174 0
M  V30 2876 C 271.741 1.39213 -1.45954 0
M  V30 2877 C 272.054 1.95374 -0.0939119 0
M  V30 2878 O 273.26 2.71498 0.0107767 0
M  V30 2879 C 271.716 2.52025 -2.56927 0
M  V30 2880 C 271.324 2.024 -3.99673 0
M  V30 2881 C 273.068 3.29269 -2.67922 0
M  V30 2882 C 270.975 3.12521 -5.0208 0
M  V30 2883 H 269.905 0.523132 -0.542999 0
M  V30 2884 H 272.556 0.685349 -1.70221 0
M  V30 2885 H 270.938 3.25253 -2.25891 0
M  V30 2886 H 272.112 1.36073 -4.40251 0
M  V30 2887 H 270.427 1.37987 -3.92872 0
M  V30 2888 H 273.024 4.11352 -3.41605 0
M  V30 2889 H 273.367 3.78397 -1.73555 0
M  V30 2890 H 273.9 2.63129 -2.98342 0
M  V30 2891 H 270.639 2.68343 -5.98057 0
M  V30 2892 H 270.159 3.77507 -4.66099 0
M  V30 2893 H 271.838 3.77385 -5.25538 0
M  V30 2894 N 271.97 1.30982 0.876444 0
M  V30 2895 C 273.195 1.23373 1.66715 0
M  V30 2896 C 273.62 -0.19885 1.87046 0
M  V30 2897 O 272.978 -1.1427 1.40756 0
M  V30 2898 C 273.026 1.97644 3.01611 0
M  V30 2899 O 272.13 1.30935 3.91062 0
M  V30 2900 H 271.471 0.426279 0.509099 0
M  V30 2901 H 274.001 1.72944 1.09323 0
M  V30 2902 H 274.011 2.06992 3.51594 0
M  V30 2903 H 272.686 3.01829 2.86133 0
M  V30 2904 H 271.263 1.29996 3.49507 0
M  V30 2905 N 273.449 -1.08991 1.13837 0
M  V30 2906 C 274.726 -1.77863 0.813876 0
M  V30 2907 C 275.106 -1.99375 -0.693746 0
M  V30 2908 O 274.454 -1.59875 -1.63255 0
M  V30 2909 C 274.664 -3.0986 1.60586 0
M  V30 2910 C 276.012 -3.84493 1.8014 0
M  V30 2911 O 277.036 -3.19624 1.57222 0
M  V30 2912 O 275.895 -5.00957 2.18413 0
M  V30 2913 H 272.989 -0.771589 0.297624 0
M  V30 2914 H 275.535 -1.15507 1.24323 0
M  V30 2915 H 274.307 -2.89715 2.63022 0
M  V30 2916 H 273.93 -3.79942 1.17173 0
M  V30 2917 N 274.927 -0.932562 -1.27047 0
M  V30 2918 C 276.173 -0.576412 -1.94436 0
M  V30 2919 C 276.506 0.880891 -1.73072 0
M  V30 2920 O 275.781 1.62905 -1.06264 0
M  V30 2921 C 276.064 -0.909031 -3.48437 0
M  V30 2922 C 275.917 -2.42044 -3.79123 0
M  V30 2923 C 277.236 -0.418341 -4.38107 0
M  V30 2924 H 274.355 -0.210888 -0.706184 0
M  V30 2925 H 276.997 -1.16522 -1.50075 0
M  V30 2926 H 275.147 -0.407947 -3.86352 0
M  V30 2927 H 276.819 -2.99359 -3.50973 0
M  V30 2928 H 275.062 -2.86758 -3.25503 0
M  V30 2929 H 275.733 -2.6037 -4.86736 0
M  V30 2930 H 278.209 -0.847856 -4.0737 0
M  V30 2931 H 277.085 -0.679981 -5.44672 0
M  V30 2932 H 277.346 0.681642 -4.36814 0
M  V30 2933 N 276.405 1.4127 -0.698611 0
M  V30 2934 C 277.337 2.292 0.00399731 0
M  V30 2935 C 278.35 1.44944 0.741279 0
M  V30 2936 O 279.539 1.68416 0.591477 0
M  V30 2937 C 276.639 3.22875 1.02979 0
M  V30 2938 C 275.812 4.35904 0.36151 0
M  V30 2939 C 274.871 5.10134 1.29033 0
M  V30 2940 O 273.897 5.63809 0.781562 0
M  V30 2941 N 275.099 5.17885 2.6225 0
M  V30 2942 H 277.864 2.9014 -0.750921 0
M  V30 2943 H 275.425 1.52455 -0.544882 0
M  V30 2944 H 277.417 3.69404 1.65296 0
M  V30 2945 H 275.987 2.63221 1.68622 0
M  V30 2946 H 275.207 3.91719 -0.441584 0
M  V30 2947 H 276.495 5.08696 -0.103055 0
M  V30 2948 H 275.893 4.7573 3.061 0
M  V30 2949 H 274.45 5.6798 3.19754 0
M  V30 2950 N 277.883 0.443576 1.51229 0
M  V30 2951 C 279.299 0.0962001 1.5931 0
M  V30 2952 C 279.499 -1.39501 1.45402 0
M  V30 2953 O 278.555 -2.16557 1.29843 0
M  V30 2954 C 279.868 0.621875 2.94199 0
M  V30 2955 C 281.416 0.582865 3.07525 0
M  V30 2956 C 281.891 1.08562 4.44948 0
M  V30 2957 N 283.382 1.04387 4.51284 0
M  V30 2958 C 284.117 1.40368 5.55954 0
M  V30 2959 N 283.613 1.83664 6.68011 0
M  V30 2960 N 285.406 1.32145 5.46346 0
M  V30 2961 H 277.557 1.41376 1.58514 0
M  V30 2962 H 279.82 0.582965 0.747567 0
M  V30 2963 H 279.526 1.66546 3.09767 0
M  V30 2964 H 279.4 0.0502125 3.77167 0
M  V30 2965 H 281.787 -0.451749 2.91622 0
M  V30 2966 H 281.868 1.191 2.26382 0
M  V30 2967 H 281.512 2.11873 4.61598 0
M  V30 2968 H 281.442 0.453956 5.2464 0
M  V30 2969 H 283.933 0.725986 3.70861 0
M  V30 2970 H 284.246 2.0934 7.43906 0
M  V30 2971 H 282.591 1.87596 6.69203 0
M  V30 2972 H 285.782 0.981808 4.57688 0
M  V30 2973 H 285.955 1.60514 6.27805 0
M  V30 2974 N 279.361 -1.56624 0.175154 0
M  V30 2975 C 280.271 -2.21741 -0.766042 0
M  V30 2976 C 281.287 -1.21023 -1.25018 0
M  V30 2977 O 282.463 -1.53697 -1.3015 0
M  V30 2978 C 279.528 -2.84839 -1.97655 0
M  V30 2979 C 278.589 -4.00769 -1.53892 0
M  V30 2980 C 277.822 -4.60849 -2.69173 0
M  V30 2981 O 278.045 -4.19823 -3.86141 0
M  V30 2982 O 276.979 -5.50655 -2.43028 0
M  V30 2983 H 280.805 -3.02738 -0.241585 0
M  V30 2984 H 278.39 -1.49305 -0.053222 0
M  V30 2985 H 280.272 -3.24834 -2.68442 0
M  V30 2986 H 278.947 -2.06836 -2.48999 0
M  V30 2987 H 277.854 -3.65436 -0.80044 0
M  V30 2988 H 279.187 -4.80376 -1.07236 0
M  V30 2989 N 280.839 0.0985539 -1.57292 0
M  V30 2990 C 281.769 1.12064 -2.04851 0
M  V30 2991 C 282.75 1.41981 -0.936767 0
M  V30 2992 O 283.935 1.52071 -1.20781 0
M  V30 2993 C 281.065 2.44144 -2.47004 0
M  V30 2994 C 280.019 2.28643 -3.6181 0
M  V30 2995 C 279.345 3.65869 -3.89929 0
M  V30 2996 C 280.645 1.72986 -4.92822 0
M  V30 2997 H 282.339 0.724979 -2.9049 0
M  V30 2998 H 279.885 0.34729 -1.39749 0
M  V30 2999 H 281.838 3.15914 -2.78884 0
M  V30 3000 H 280.562 2.85639 -1.5836 0
M  V30 3001 H 279.221 1.59318 -3.30172 0
M  V30 3002 H 278.869 4.04885 -2.98458 0
M  V30 3003 H 278.569 3.56344 -4.67218 0
M  V30 3004 H 280.093 4.39112 -4.2428 0
M  V30 3005 H 281.507 2.34593 -5.23105 0
M  V30 3006 H 279.904 1.74229 -5.74251 0
M  V30 3007 H 280.974 0.689007 -4.7998 0
M  V30 3008 N 282.317 1.53212 0.369288 0
M  V30 3009 C 283.28 1.7872 1.43498 0
M  V30 3010 C 284.28 0.657554 1.46741 0
M  V30 3011 O 285.47 0.925736 1.47566 0
M  V30 3012 C 282.602 1.90591 2.82645 0
M  V30 3013 H 283.795 2.73894 1.22156 0
M  V30 3014 H 281.348 1.44233 0.602203 0
M  V30 3015 H 282.083 0.974709 3.09306 0
M  V30 3016 H 281.868 2.72751 2.8169 0
M  V30 3017 H 283.358 2.11931 3.59826 0
M  V30 3018 N 283.795 -0.628877 1.44509 0
M  V30 3019 C 285.211 -0.947305 1.28446 0
M  V30 3020 C 285.411 -2.00275 0.221872 0
M  V30 3021 O 284.467 -2.49447 -0.391471 0
M  V30 3022 C 285.78 -1.40843 2.65676 0
M  V30 3023 C 287.328 -1.52379 2.73404 0
M  V30 3024 C 287.803 -2.01875 4.11109 0
M  V30 3025 N 289.294 -2.09142 4.13296 0
M  V30 3026 C 290.029 -2.48615 5.16699 0
M  V30 3027 N 289.525 -2.87209 6.30462 0
M  V30 3028 N 291.318 -2.48768 5.04054 0
M  V30 3029 H 283.469 0.0690977 2.12288 0
M  V30 3030 H 285.732 -0.0317164 0.947469 0
M  V30 3031 H 285.438 -0.707206 3.44516 0
M  V30 3032 H 285.312 -2.37902 2.92716 0
M  V30 3033 H 287.699 -2.21598 1.9488 0
M  V30 3034 H 287.78 -0.536898 2.50102 0
M  V30 3035 H 287.424 -1.3325 4.90109 0
M  V30 3036 H 287.354 -3.0144 4.31789 0
M  V30 3037 H 289.845 -1.81991 3.31191 0
M  V30 3038 H 290.158 -3.16149 7.05174 0
M  V30 3039 H 288.503 -2.84955 6.33897 0
M  V30 3040 H 291.694 -2.18009 4.14234 0
M  V30 3041 H 291.867 -2.79207 5.84763 0
M  V30 3042 N 285.273 -1.31445 -0.869486 0
M  V30 3043 C 286.503 -1.23942 -1.65294 0
M  V30 3044 C 286.911 0.197561 -1.88166 0
M  V30 3045 O 286.254 1.14019 -1.44033 0
M  V30 3046 C 286.316 -1.91385 -3.04322 0
M  V30 3047 C 285.98 -3.40726 -3.04557 0
M  V30 3048 C 286.977 -4.36464 -2.82481 0
M  V30 3049 C 284.662 -3.82425 -3.25663 0
M  V30 3050 C 286.656 -5.71876 -2.8149 0
M  V30 3051 C 284.343 -5.1795 -3.243 0
M  V30 3052 C 285.341 -6.12486 -3.02241 0
M  V30 3053 O 285.029 -7.45534 -3.00724 0
M  V30 3054 H 284.761 -0.429459 -0.522054 0
M  V30 3055 H 287.315 -1.73873 -1.0935 0
M  V30 3056 H 285.545 -1.36004 -3.61994 0
M  V30 3057 H 287.234 -1.77791 -3.64891 0
M  V30 3058 H 288 -4.05576 -2.65956 0
M  V30 3059 H 283.879 -3.09274 -3.41863 0
M  V30 3060 H 287.423 -6.45638 -2.64191 0
M  V30 3061 H 283.32 -5.48473 -3.40365 0
M  V30 3062 H 284.088 -7.54713 -3.16782 0
M  V30 3063 N 286.751 1.08385 -1.14413 0
M  V30 3064 C 287.999 1.80419 -0.910679 0
M  V30 3065 C 288.32 1.86658 0.564243 0
M  V30 3066 O 287.59 1.35985 1.41014 0
M  V30 3067 H 286.17 0.668204 -0.333934 0
M  V30 3068 H 288.832 1.31037 -1.44275 0
M  V30 3069 H 287.928 2.83238 -1.31082 0
M  V30 3070 N 288.23 0.939286 1.26551 0
M  V30 3071 C 289.193 0.451987 2.24699 0
M  V30 3072 C 290.193 -0.435869 1.5478 0
M  V30 3073 O 291.383 -0.235314 1.72603 0
M  V30 3074 C 288.515 -0.348801 3.39111 0
M  V30 3075 H 289.708 1.3193 2.69322 0
M  V30 3076 H 287.261 0.721072 1.38673 0
M  V30 3077 H 287.996 -1.23444 2.99887 0
M  V30 3078 H 287.781 0.287945 3.91041 0
M  V30 3079 H 289.271 -0.679726 4.12031 0
M  V30 3080 N 289.708 -1.40897 0.706093 0
M  V30 3081 C 290.671 -2.29131 0.0562841 0
M  V30 3082 C 291.671 -1.44901 -0.697166 0
M  V30 3083 O 292.861 -1.65926 -0.530484 0
M  V30 3084 C 289.993 -3.27957 -0.93043 0
M  V30 3085 H 291.186 -2.88091 0.833284 0
M  V30 3086 H 288.739 -1.4906 0.470192 0
M  V30 3087 H 289.474 -2.73997 -1.73482 0
M  V30 3088 H 289.259 -3.90124 -0.393166 0
M  V30 3089 H 290.749 -3.94049 -1.38256 0
M  V30 3090 N 291.186 -0.45159 -1.50991 0
M  V30 3091 C 292.602 -0.104647 -1.59257 0
M  V30 3092 C 292.802 1.38728 -1.4614 0
M  V30 3093 O 291.858 2.15866 -1.30989 0
M  V30 3094 C 293.171 -0.637468 -2.93865 0
M  V30 3095 C 294.719 -0.599166 -3.07212 0
M  V30 3096 C 295.194 -1.1092 -4.44366 0
M  V30 3097 N 296.685 -1.06778 -4.50725 0
M  V30 3098 C 297.42 -1.43314 -5.55201 0
M  V30 3099 N 296.916 -1.87204 -6.67028 0
M  V30 3100 N 298.709 -1.3504 -5.45638 0
M  V30 3101 H 290.86 -1.42214 -1.57762 0
M  V30 3102 H 293.123 -0.586921 -0.744465 0
M  V30 3103 H 292.829 -1.68187 -3.08879 0
M  V30 3104 H 292.703 -0.0702139 -3.77135 0
M  V30 3105 H 295.09 0.436277 -2.91857 0
M  V30 3106 H 295.171 -1.20299 -2.25747 0
M  V30 3107 H 294.815 -2.14318 -4.60467 0
M  V30 3108 H 294.745 -0.481773 -5.24392 0
M  V30 3109 H 297.236 -0.745643 -3.70471 0
M  V30 3110 H 297.549 -2.13282 -7.42786 0
M  V30 3111 H 295.894 -1.91142 -6.68199 0
M  V30 3112 H 299.085 -1.00607 -4.57161 0
M  V30 3113 H 299.258 -1.63841 -6.26945 0
M  V30 3114 N 292.664 1.56529 -0.183458 0
M  V30 3115 C 293.904 1.99141 0.460667 0
M  V30 3116 C 294.268 1.06736 1.59597 0
M  V30 3117 O 295.469 1.38538 2.30349 0
M  V30 3118 C 293.74 3.45358 0.919939 0
M  V30 3119 S 295.299 4.09999 1.56354 0
M  V30 3120 H 292.117 0.695479 0.147748 0
M  V30 3121 H 294.719 1.93429 -0.283782 0
M  V30 3122 H 293.423 4.10315 0.0834208 0
M  V30 3123 H 292.954 3.54862 1.69814 0
M  V30 3124 H 294.969 4.06046 2.85203 0
M  V30 3125 N 294.142 -0.090211 1.57342 0
M  V30 3126 C 295.39 -0.791241 1.85967 0
M  V30 3127 C 295.711 -1.7903 0.772859 0
M  V30 3128 O 294.981 -1.94872 -0.200398 0
M  V30 3129 H 293.561 -0.295205 0.686195 0
M  V30 3130 H 296.223 -0.0706782 1.94772 0
M  V30 3131 H 295.319 -1.31882 2.82867 0
M  V30 3132 N 295.62 -1.53406 -0.361157 0
M  V30 3133 C 297.036 -1.43277 -0.703124 0
M  V30 3134 C 297.236 -0.575384 -1.9311 0
M  V30 3135 O 296.292 -0.0595362 -2.5243 0
M  V30 3136 C 297.605 -2.8653 -0.9122 0
M  V30 3137 C 299.153 -2.96191 -1.01193 0
M  V30 3138 C 299.628 -4.40514 -1.25345 0
M  V30 3139 N 301.119 -4.43962 -1.32105 0
M  V30 3140 C 301.854 -5.52746 -1.5251 0
M  V30 3141 N 301.35 -6.71567 -1.70203 0
M  V30 3142 N 303.143 -5.40331 -1.54916 0
M  V30 3143 H 295.294 -2.07654 0.446475 0
M  V30 3144 H 297.557 -0.937944 0.137715 0
M  V30 3145 H 297.263 -3.51605 -0.0816414 0
M  V30 3146 H 297.137 -3.30441 -1.81903 0
M  V30 3147 H 299.524 -2.31266 -1.83303 0
M  V30 3148 H 299.605 -2.55667 -0.0823929 0
M  V30 3149 H 299.249 -5.06014 -0.437346 0
M  V30 3150 H 299.179 -4.78614 -2.19627 0
M  V30 3151 H 301.67 -3.58332 -1.20028 0
M  V30 3152 H 301.983 -7.50241 -1.85359 0
M  V30 3153 H 300.328 -6.74545 -1.67373 0
M  V30 3154 H 303.519 -4.46465 -1.40663 0
M  V30 3155 H 303.692 -6.25173 -1.70477 0
M  V30 3156 N 297.098 0.621204 -1.44841 0
M  V30 3157 C 298.028 1.74366 -1.55303 0
M  V30 3158 C 299.009 1.65199 -0.405385 0
M  V30 3159 O 300.194 1.83807 -0.626787 0
M  V30 3160 C 297.324 3.12931 -1.50637 0
M  V30 3161 C 296.278 3.36896 -2.63979 0
M  V30 3162 C 295.604 4.75594 -2.44366 0
M  V30 3163 C 296.904 3.28483 -4.06074 0
M  V30 3164 H 298.598 1.65867 -2.49256 0
M  V30 3165 H 296.144 0.796558 -1.19962 0
M  V30 3166 H 298.097 3.9124 -1.56555 0
M  V30 3167 H 296.821 3.22237 -0.532057 0
M  V30 3168 H 295.48 2.60972 -2.57467 0
M  V30 3169 H 295.128 4.81616 -1.45105 0
M  V30 3170 H 294.828 4.92586 -3.20364 0
M  V30 3171 H 296.352 5.5612 -2.52117 0
M  V30 3172 H 297.766 3.96684 -4.13902 0
M  V30 3173 H 296.163 3.57008 -4.82354 0
M  V30 3174 H 297.233 2.26133 -4.28943 0
M  V30 3175 N 298.576 1.31904 0.862503 0
M  V30 3176 C 299.992 1.10724 1.14945 0
M  V30 3177 C 300.192 -0.117421 2.01158 0
M  V30 3178 O 299.248 -0.804595 2.39338 0
M  V30 3179 C 300.561 2.38267 1.83437 0
M  V30 3180 C 302.109 2.43949 1.96106 0
M  V30 3181 C 302.584 3.71394 2.68013 0
M  V30 3182 N 304.075 3.72331 2.75543 0
M  V30 3183 C 304.81 4.67641 3.31812 0
M  V30 3184 N 304.306 5.73313 3.88953 0
M  V30 3185 N 306.099 4.5515 3.29841 0
M  V30 3186 H 298.25 2.10436 0.288191 0
M  V30 3187 H 300.513 0.928705 0.190292 0
M  V30 3188 H 300.219 3.27759 1.27542 0
M  V30 3189 H 300.093 2.48633 2.83657 0
M  V30 3190 H 302.48 1.54922 2.51164 0
M  V30 3191 H 302.561 2.37543 0.949059 0
M  V30 3192 H 302.205 4.60791 2.13621 0
M  V30 3193 H 302.135 3.75069 3.69636 0
M  V30 3194 H 304.626 2.95947 2.34997 0
M  V30 3195 H 304.939 6.42107 4.30022 0
M  V30 3196 H 303.284 5.77077 3.87308 0
M  V30 3197 H 306.475 3.71766 2.84443 0
M  V30 3198 H 306.648 5.29604 3.73394 0
M  V30 3199 N 300.054 -1.07777 1.14986 0
M  V30 3200 C 301.47 -1.32373 0.891596 0
M  V30 3201 C 301.67 -1.9609 -0.463788 0
M  V30 3202 O 300.726 -2.21801 -1.20667 0
M  V30 3203 C 302.039 -2.21905 2.02925 0
M  V30 3204 C 303.587 -2.35367 2.06329 0
M  V30 3205 C 304.062 -3.28245 3.19405 0
M  V30 3206 N 305.553 -3.35824 3.19024 0
M  V30 3207 C 306.288 -4.07739 4.03158 0
M  V30 3208 N 305.784 -4.82306 4.97346 0
M  V30 3209 N 307.577 -4.03635 3.91197 0
M  V30 3210 H 299.728 -0.648039 2.02273 0
M  V30 3211 H 301.991 -0.348149 0.881757 0
M  V30 3212 H 301.697 -1.82342 3.0074 0
M  V30 3213 H 301.571 -3.22407 1.95789 0
M  V30 3214 H 303.958 -2.74186 1.09116 0
M  V30 3215 H 304.039 -1.34585 2.17533 0
M  V30 3216 H 303.683 -2.90146 4.16867 0
M  V30 3217 H 303.613 -4.28971 3.05437 0
M  V30 3218 H 306.104 -2.8267 2.50811 0
M  V30 3219 H 306.417 -5.34661 5.57994 0
M  V30 3220 H 304.762 -4.81337 5.01338 0
M  V30 3221 H 307.953 -3.44491 3.16928 0
M  V30 3222 H 308.126 -4.59417 4.5699 0
M  V30 3223 N 301.532 -0.945985 -1.26051 0
M  V30 3224 C 302.948 -0.649045 -1.45807 0
M  V30 3225 C 303.148 0.796158 -1.85104 0
M  V30 3226 O 302.204 1.57233 -1.97571 0
M  V30 3227 C 303.517 -1.61458 -2.53677 0
M  V30 3228 C 305.065 -1.62481 -2.67524 0
M  V30 3229 C 305.54 -2.57776 -3.7857 0
M  V30 3230 N 307.031 -2.5609 -3.85969 0
M  V30 3231 C 307.766 -3.26508 -4.7136 0
M  V30 3232 N 307.262 -4.0637 -5.61102 0
M  V30 3233 N 309.055 -3.15437 -4.65248 0
M  V30 3234 H 301.206 -1.88005 -0.988328 0
M  V30 3235 H 303.469 -0.808198 -0.4955 0
M  V30 3236 H 303.175 -2.64644 -2.31638 0
M  V30 3237 H 303.049 -1.37036 -3.51427 0
M  V30 3238 H 305.436 -0.600167 -2.88933 0
M  V30 3239 H 305.517 -1.90958 -1.70202 0
M  V30 3240 H 305.161 -3.60361 -3.57913 0
M  V30 3241 H 305.091 -2.26587 -4.75359 0
M  V30 3242 H 307.582 -1.98105 -3.21812 0
M  V30 3243 H 307.895 -4.57042 -6.23164 0
M  V30 3244 H 306.24 -4.10469 -5.60839 0
M  V30 3245 H 309.431 -2.52525 -3.94143 0
M  V30 3246 H 309.604 -3.70584 -5.31575 0
M  V30 3247 N 303.011 1.40521 -0.713556 0
M  V30 3248 C 303.941 2.33381 -0.0743864 0
M  V30 3249 C 304.922 1.52784 0.747735 0
M  V30 3250 O 306.107 1.81258 0.697071 0
M  V30 3251 C 303.237 3.36748 0.849598 0
M  V30 3252 C 302.191 4.27793 0.133247 0
M  V30 3253 C 301.517 5.21679 1.17281 0
M  V30 3254 C 302.817 5.12415 -1.01134 0
M  V30 3255 H 304.511 2.87081 -0.850007 0
M  V30 3256 H 302.057 1.38034 -0.410201 0
M  V30 3257 H 304.01 4.00648 1.30612 0
M  V30 3258 H 302.734 2.81439 1.65709 0
M  V30 3259 H 301.393 3.65342 -0.303426 0
M  V30 3260 H 301.041 4.62677 1.9733 0
M  V30 3261 H 300.741 5.83435 0.698397 0
M  V30 3262 H 302.265 5.88456 1.62947 0
M  V30 3263 H 303.679 5.69781 -0.634274 0
M  V30 3264 H 302.076 5.83203 -1.41399 0
M  V30 3265 H 303.146 4.48514 -1.84292 0
M  V30 3266 N 304.489 0.459591 1.5075 0
M  V30 3267 C 305.735 -0.091664 2.03193 0
M  V30 3268 C 306.09 -1.38432 1.3362 0
M  V30 3269 O 305.383 -1.86257 0.449322 0
M  V30 3270 C 305.577 -0.342866 3.55752 0
M  V30 3271 C 305.406 0.923888 4.40107 0
M  V30 3272 C 304.176 1.46388 4.83631 0
M  V30 3273 C 306.374 1.81617 4.81165 0
M  V30 3274 N 304.356 2.68086 5.52271 0
M  V30 3275 C 305.727 2.87907 5.49099 0
M  V30 3276 C 307.782 1.82793 4.63132 0
M  V30 3277 C 306.485 3.95347 6.0091 0
M  V30 3278 C 308.511 2.89182 5.15876 0
M  V30 3279 C 307.873 3.94191 5.83774 0
M  V30 3280 H 303.972 0.00619247 0.781975 0
M  V30 3281 H 306.556 0.625233 1.84388 0
M  V30 3282 H 304.727 -1.0288 3.74527 0
M  V30 3283 H 306.459 -0.887445 3.9485 0
M  V30 3284 H 303.214 1.01466 4.62603 0
M  V30 3285 H 303.638 3.29857 5.91205 0
M  V30 3286 H 308.28 1.0293 4.1008 0
M  V30 3287 H 305.998 4.76035 6.53006 0
M  V30 3288 H 309.584 2.91061 5.0376 0
M  V30 3289 H 308.464 4.75161 6.23853 0
M  V30 3290 N 305.967 -1.56429 0.191757 0
M  V30 3291 C 306.897 -2.21937 -0.725696 0
M  V30 3292 C 307.878 -1.1814 -1.2238 0
M  V30 3293 O 309.063 -1.46636 -1.27325 0
M  V30 3294 C 306.193 -2.87611 -1.94672 0
M  V30 3295 C 305.147 -3.97623 -1.58366 0
M  V30 3296 C 304.473 -4.50446 -2.88102 0
M  V30 3297 C 305.773 -5.16197 -0.796133 0
M  V30 3298 H 307.467 -2.98861 -0.179606 0
M  V30 3299 H 305.013 -1.43749 -0.0849464 0
M  V30 3300 H 306.966 -3.3212 -2.59373 0
M  V30 3301 H 305.69 -2.08087 -2.51728 0
M  V30 3302 H 304.349 -3.53801 -0.960247 0
M  V30 3303 H 303.997 -3.67688 -3.43241 0
M  V30 3304 H 303.697 -5.24675 -2.64556 0
M  V30 3305 H 305.221 -4.97654 -3.53798 0
M  V30 3306 H 306.635 -5.57271 -1.34618 0
M  V30 3307 H 305.032 -5.96471 -0.658928 0
M  V30 3308 H 306.102 -4.84473 0.203478 0
M  V30 3309 N 307.445 0.0818655 -1.57387 0
M  V30 3310 C 308.673 0.796108 -1.9097 0
M  V30 3311 C 309.088 1.71626 -0.786757 0
M  V30 3312 O 308.445 1.80908 0.240513 0
M  V30 3313 C 308.496 1.59829 -3.24248 0
M  V30 3314 O 308.217 0.715131 -4.32224 0
M  V30 3315 C 309.718 2.41442 -3.7178 0
M  V30 3316 H 306.938 0.22691 -0.631469 0
M  V30 3317 H 309.482 0.0551439 -2.04426 0
M  V30 3318 H 307.637 2.29163 -3.12351 0
M  V30 3319 H 308.051 1.27205 -5.08841 0
M  V30 3320 H 309.525 2.932 -4.67694 0
M  V30 3321 H 310.002 3.2051 -3.00283 0
M  V30 3322 H 310.608 1.77283 -3.86589 0
M  V30 3323 N 308.923 1.53595 0.353017 0
M  V30 3324 C 309.856 1.7572 1.45594 0
M  V30 3325 C 310.834 0.605961 1.50887 0
M  V30 3326 O 312.018 0.840023 1.68748 0
M  V30 3327 C 309.145 1.84732 2.83887 0
M  V30 3328 C 308.191 3.06808 2.96262 0
M  V30 3329 S 309.024 4.66065 2.63711 0
M  V30 3330 C 310.18 4.77943 4.04131 0
M  V30 3331 H 310.413 2.68994 1.26608 0
M  V30 3332 H 307.946 1.44343 0.548117 0
M  V30 3333 H 309.904 1.9061 3.63563 0
M  V30 3334 H 308.565 0.92488 3.00175 0
M  V30 3335 H 307.758 3.09761 3.97573 0
M  V30 3336 H 307.36 2.99108 2.24523 0
M  V30 3337 H 309.652 4.5877 4.98534 0
M  V30 3338 H 310.595 5.80022 4.06177 0
M  V30 3339 H 311.003 4.06472 3.91715 0
M  V30 3340 N 310.401 -0.613514 1.45168 0
M  V30 3341 C 311.311 -1.75296 1.55912 0
M  V30 3342 C 312.327 -1.68244 0.443856 0
M  V30 3343 O 313.503 -1.88706 0.70371 0
M  V30 3344 C 310.568 -3.1174 1.5172 0
M  V30 3345 C 309.629 -3.30291 2.74238 0
M  V30 3346 C 308.862 -4.60226 2.70236 0
M  V30 3347 O 309.085 -5.42168 1.77229 0
M  V30 3348 O 308.019 -4.81361 3.61352 0
M  V30 3349 H 311.845 -1.69183 2.52212 0
M  V30 3350 H 309.43 -0.776886 1.27612 0
M  V30 3351 H 311.312 -3.93044 1.51968 0
M  V30 3352 H 309.987 -3.18357 0.585697 0
M  V30 3353 H 308.894 -2.48598 2.79553 0
M  V30 3354 H 310.227 -3.28547 3.66494 0
M  V30 3355 N 311.879 -1.3236 -0.855495 0
M  V30 3356 C 312.827 -1.2118 -1.9854 0
M  V30 3357 C 313.821 -0.116788 -1.68997 0
M  V30 3358 O 315.027 -0.279657 -1.77814 0
M  V30 3359 H 311.402 -0.375608 -0.651477 0
M  V30 3360 H 313.373 -2.16743 -2.05098 0
M  V30 3361 C 312.122 -0.950849 -3.34446 0
M  V30 3362 H 311.445 -1.78563 -3.57708 0
M  V30 3363 H 312.885 -0.912863 -4.14057 0
M  V30 3364 C 311.344 0.346404 -3.35114 0
M  V30 3365 O 311.874 1.35855 -3.7803 0
M  V30 3366 N 310.08 0.36808 -2.88259 0
M  V30 3367 H 309.627 -0.456102 -2.5353 0
M  V30 3368 H 309.585 1.23591 -2.89089 0
M  V30 3369 N 313.357 1.07166 -1.15556 0
M  V30 3370 C 314.768 1.6127 -0.940693 0
M  V30 3371 C 315.119 1.89251 0.517551 0
M  V30 3372 O 314.244 1.65937 1.38903 0
M  V30 3373 C 314.839 2.92993 -1.7012 0
M  V30 3374 C 313.398 3.43832 -1.53156 0
M  V30 3375 C 312.545 2.1786 -1.71558 0
M  V30 3376 H 315.496 0.90229 -1.30554 0
M  V30 3377 H 315.517 3.62007 -1.17181 0
M  V30 3378 H 315.029 2.72596 -2.76248 0
M  V30 3379 H 313.13 3.69307 -0.494294 0
M  V30 3380 H 313.243 4.19747 -2.30975 0
M  V30 3381 H 311.607 2.2765 -1.14225 0
M  V30 3382 H 312.39 1.99956 -2.79056 0
M  V30 3383 N 314.835 0.952656 1.25548 0
M  V30 3384 C 316.083 0.605176 1.92826 0
M  V30 3385 C 316.404 -0.860261 1.74999 0
M  V30 3386 O 315.674 -1.6125 1.11244 0
M  V30 3387 H 314.254 0.220832 0.713612 0
M  V30 3388 H 316.916 1.21047 1.52754 0
M  V30 3389 H 316.012 0.832798 3.00784 0
M  V30 3390 N 316.313 -1.40141 0.720998 0
M  V30 3391 C 317.543 -2.04798 0.27226 0
M  V30 3392 C 317.951 -1.54442 -1.09289 0
M  V30 3393 O 317.294 -0.698342 -1.69908 0
M  V30 3394 C 317.356 -3.59048 0.18027 0
M  V30 3395 C 317.02 -4.32317 1.48159 0
M  V30 3396 C 318.017 -4.59902 2.42458 0
M  V30 3397 C 315.702 -4.71125 1.74202 0
M  V30 3398 C 317.696 -5.25288 3.61042 0
M  V30 3399 C 315.383 -5.36242 2.93066 0
M  V30 3400 C 316.381 -5.63254 3.86308 0
M  V30 3401 O 316.069 -6.27024 5.03086 0
M  V30 3402 H 315.801 -0.665419 0.119139 0
M  V30 3403 H 318.355 -1.80436 0.981432 0
M  V30 3404 H 316.585 -3.82251 -0.58489 0
M  V30 3405 H 318.274 -4.05221 -0.234618 0
M  V30 3406 H 319.04 -4.30379 2.23604 0
M  V30 3407 H 314.919 -4.49466 1.02477 0
M  V30 3408 H 318.463 -5.46289 4.33837 0
M  V30 3409 H 314.36 -5.65185 3.11826 0
M  V30 3410 H 315.128 -6.4552 5.03235 0
M  V30 3411 N 317.792 -0.46758 -1.50504 0
M  V30 3412 C 319.017 0.0886943 -2.0721 0
M  V30 3413 C 319.442 1.33057 -1.32956 0
M  V30 3414 O 318.8 1.77354 -0.376197 0
M  V30 3415 C 318.848 0.359202 -3.58806 0
M  V30 3416 O 317.952 1.44034 -3.8643 0
M  V30 3417 H 317.293 -0.0114349 -0.663902 0
M  V30 3418 H 319.823 -0.657613 -1.93744 0
M  V30 3419 H 319.833 0.600742 -4.03553 0
M  V30 3420 H 318.508 -0.548311 -4.1227 0
M  V30 3421 H 317.085 1.18638 -3.53524 0
M  V30 3422 N 319.27 1.56325 -0.20005 0
M  V30 3423 C 320.2 2.22318 0.713916 0
M  V30 3424 C 321.181 1.18788 1.21752 0
M  V30 3425 O 322.366 1.47309 1.26545 0
M  V30 3426 C 319.496 2.88639 1.93144 0
M  V30 3427 C 318.45 3.98457 1.56255 0
M  V30 3428 C 317.776 4.51967 2.85709 0
M  V30 3429 C 319.076 5.16612 0.768747 0
M  V30 3430 H 320.77 2.98952 0.163755 0
M  V30 3431 H 318.316 1.43792 0.0773219 0
M  V30 3432 H 320.269 3.33491 2.57608 0
M  V30 3433 H 318.993 2.09419 2.50621 0
M  V30 3434 H 317.652 3.54305 0.941471 0
M  V30 3435 H 317.3 3.69503 3.41287 0
M  V30 3436 H 317 5.26071 2.6177 0
M  V30 3437 H 318.524 4.99523 3.51154 0
M  V30 3438 H 319.938 5.57977 1.3166 0
M  V30 3439 H 318.335 5.96812 0.627286 0
M  V30 3440 H 319.405 4.84358 -0.229168 0
M  V30 3441 N 320.748 -0.0735177 1.57428 0
M  V30 3442 C 322.159 -0.625551 1.75908 0
M  V30 3443 C 322.51 -1.78 0.825261 0
M  V30 3444 O 321.635 -2.16398 0.00893964 0
M  V30 3445 C 322.23 -1.14155 3.18989 0
M  V30 3446 C 320.789 -1.63946 3.38819 0
M  V30 3447 C 319.936 -0.558151 2.71625 0
M  V30 3448 H 322.887 0.152647 1.57964 0
M  V30 3449 H 322.908 -2.0104 3.23053 0
M  V30 3450 H 322.42 -0.301116 3.8693 0
M  V30 3451 H 320.521 -2.50321 2.7599 0
M  V30 3452 H 320.634 -1.71759 4.47253 0
M  V30 3453 H 318.998 -1.00278 2.34129 0
M  V30 3454 H 319.781 0.272071 3.4222 0
M  V30 3455 N 322.226 -1.5378 -0.344866 0
M  V30 3456 C 323.451 -1.75211 -1.10977 0
M  V30 3457 C 323.876 -0.48936 -1.81623 0
M  V30 3458 O 323.234 0.557925 -1.72502 0
M  V30 3459 C 323.282 -2.93147 -2.09993 0
M  V30 3460 O 322.386 -2.63203 -3.17487 0
M  V30 3461 H 321.727 -0.581241 -0.321021 0
M  V30 3462 H 324.257 -2.00738 -0.395661 0
M  V30 3463 H 324.267 -3.19898 -2.53237 0
M  V30 3464 H 322.942 -3.84731 -1.5797 0
M  V30 3465 H 321.519 -2.47336 -2.79069 0
M  V30 3466 N 323.704 0.605807 -1.45491 0
M  V30 3467 C 324.651 1.7164 -1.54299 0
M  V30 3468 C 325.621 1.61486 -0.388761 0
M  V30 3469 O 326.806 1.81039 -0.602445 0
M  V30 3470 C 323.946 3.09953 -1.51734 0
M  V30 3471 C 323.059 3.309 -2.77721 0
M  V30 3472 C 322.194 4.59329 -2.66816 0
M  V30 3473 C 321.233 4.7354 -3.87848 0
M  V30 3474 N 320.37 5.9327 -3.75467 0
M  V30 3475 H 325.21 1.63449 -2.49176 0
M  V30 3476 H 322.747 0.796957 -1.23641 0
M  V30 3477 H 324.705 3.89977 -1.48235 0
M  V30 3478 H 323.335 3.17098 -0.604068 0
M  V30 3479 H 322.387 2.44639 -2.913 0
M  V30 3480 H 323.699 3.37274 -3.67488 0
M  V30 3481 H 322.853 5.4755 -2.61292 0
M  V30 3482 H 321.592 4.55355 -1.74651 0
M  V30 3483 H 320.597 3.83741 -3.93729 0
M  V30 3484 H 321.822 4.79309 -4.81082 0
M  V30 3485 H 319.768 5.90338 -2.86072 0
M  V30 3486 H 319.685 6.00811 -4.5887 0
M  V30 3487 H 320.953 6.83984 -3.73879 0
M  V30 3488 N 325.182 1.32811 0.848464 0
M  V30 3489 C 326.112 1.24882 1.97299 0
M  V30 3490 C 327.093 0.131357 1.69592 0
M  V30 3491 O 328.278 0.319553 1.91553 0
M  V30 3492 C 325.408 0.97746 3.33261 0
M  V30 3493 C 324.362 2.05682 3.75338 0
M  V30 3494 C 323.688 1.63777 5.09 0
M  V30 3495 C 324.988 3.47254 3.90144 0
M  V30 3496 H 326.682 2.18966 2.04191 0
M  V30 3497 H 324.228 1.05413 0.981029 0
M  V30 3498 H 326.181 0.908513 4.1149 0
M  V30 3499 H 324.905 0.000980011 3.266 0
M  V30 3500 H 323.564 2.11603 2.99366 0
M  V30 3501 H 323.212 0.648569 4.98801 0
M  V30 3502 H 322.912 2.36 5.38124 0
M  V30 3503 H 324.436 1.5833 5.89715 0
M  V30 3504 H 325.85 3.43888 4.58709 0
M  V30 3505 H 324.247 4.1788 4.30693 0
M  V30 3506 H 325.317 3.86462 2.92874 0
M  V30 3507 N 326.66 -1.06551 1.16123 0
M  V30 3508 C 327.907 -1.79302 0.941126 0
M  V30 3509 C 328.235 -1.87105 -0.531235 0
M  V30 3510 O 327.49 -1.35692 -1.41018 0
M  V30 3511 C 327.789 -3.23911 1.51052 0
M  V30 3512 C 327.455 -3.36193 3.00475 0
M  V30 3513 C 326.117 -3.39252 3.41265 0
M  V30 3514 C 328.469 -3.38326 3.96465 0
M  V30 3515 C 325.797 -3.42057 4.76669 0
M  V30 3516 C 328.149 -3.4267 5.31752 0
M  V30 3517 C 326.813 -3.4401 5.72026 0
M  V30 3518 H 326.083 -0.656111 0.344382 0
M  V30 3519 H 328.73 -1.25325 1.44796 0
M  V30 3520 H 327.035 -3.80723 0.925063 0
M  V30 3521 H 328.732 -3.78793 1.31593 0
M  V30 3522 H 325.322 -3.34516 2.6795 0
M  V30 3523 H 329.506 -3.35176 3.6602 0
M  V30 3524 H 324.762 -3.41398 5.07206 0
M  V30 3525 H 328.936 -3.43268 6.05921 0
M  V30 3526 H 326.563 -3.45937 6.76928 0
M  V30 3527 N 328.138 -0.959301 -1.25041 0
M  V30 3528 C 329.363 -0.633507 -1.97488 0
M  V30 3529 C 329.788 0.788555 -1.70773 0
M  V30 3530 O 329.146 1.53394 -0.966431 0
M  V30 3531 C 329.194 -0.904057 -3.49083 0
M  V30 3532 O 328.298 0.0147939 -4.12397 0
M  V30 3533 H 327.639 -0.240368 -0.618966 0
M  V30 3534 H 330.169 -1.28717 -1.59038 0
M  V30 3535 H 330.179 -0.832203 -3.99423 0
M  V30 3536 H 328.854 -1.94048 -3.67856 0
M  V30 3537 H 327.431 -0.109664 -3.72739 0
M  V30 3538 N 329.616 1.39756 -0.72842 0
M  V30 3539 C 330.856 2.025 -0.278078 0
M  V30 3540 C 331.22 1.5654 1.11173 0
M  V30 3541 O 332.421 2.11435 1.65978 0
M  V30 3542 C 330.692 3.55489 -0.369139 0
M  V30 3543 S 332.251 4.388 0.00232983 0
M  V30 3544 H 329.069 0.702534 -0.109391 0
M  V30 3545 H 331.671 1.70672 -0.95348 0
M  V30 3546 H 330.375 3.86429 -1.38204 0
M  V30 3547 H 329.906 3.92061 0.324308 0
M  V30 3548 H 331.921 4.80954 1.22055 0
M  V30 3549 N 331.094 0.475555 1.50254 0
M  V30 3550 C 332.34 -0.0780073 2.0265 0
M  V30 3551 C 332.673 -1.38968 1.35652 0
M  V30 3552 O 331.948 -1.8839 0.483691 0
M  V30 3553 C 332.231 -0.257161 3.59181 0
M  V30 3554 C 332.084 1.07585 4.36744 0
M  V30 3555 C 333.403 -1.00965 4.28362 0
M  V30 3556 H 330.522 -0.0268758 0.73651 0
M  V30 3557 H 333.164 0.622015 1.7953 0
M  V30 3558 H 331.314 -0.853412 3.79011 0
M  V30 3559 H 332.986 1.70902 4.28474 0
M  V30 3560 H 331.229 1.6714 4.00308 0
M  V30 3561 H 331.9 0.904088 5.44546 0
M  V30 3562 H 334.376 -0.504214 4.13034 0
M  V30 3563 H 333.252 -1.10381 5.37687 0
M  V30 3564 H 333.513 -2.04731 3.91839 0
M  V30 3565 N 332.573 -1.56217 0.208337 0
M  V30 3566 C 333.798 -2.02782 -0.435222 0
M  V30 3567 C 334.223 -1.08738 -1.53485 0
M  V30 3568 O 333.581 -0.0731855 -1.81152 0
M  V30 3569 C 333.629 -3.47687 -0.956335 0
M  V30 3570 O 332.733 -3.56773 -2.06849 0
M  V30 3571 H 332.074 -0.656403 -0.100158 0
M  V30 3572 H 334.604 -2.02033 0.3231 0
M  V30 3573 H 334.614 -3.87745 -1.26955 0
M  V30 3574 H 333.289 -4.15624 -0.15143 0
M  V30 3575 H 331.866 -3.28597 -1.76292 0
M  V30 3576 N 334.051 0.0651679 -1.57465 0
M  V30 3577 C 335.3 0.761916 -1.86756 0
M  V30 3578 C 335.613 1.78406 -0.801925 0
M  V30 3579 O 336.819 2.53084 -0.982885 0
M  V30 3580 C 335.275 1.40603 -3.31299 0
M  V30 3581 C 334.883 0.422115 -4.46007 0
M  V30 3582 C 336.627 2.08476 -3.69781 0
M  V30 3583 C 334.534 1.07252 -5.81593 0
M  V30 3584 H 333.464 0.288308 -0.696702 0
M  V30 3585 H 336.115 0.015344 -1.83494 0
M  V30 3586 H 334.497 2.20109 -3.29193 0
M  V30 3587 H 335.671 -0.343613 -4.59517 0
M  V30 3588 H 333.986 -0.152527 -4.16121 0
M  V30 3589 H 336.583 2.57925 -4.68379 0
M  V30 3590 H 336.926 2.88712 -2.99919 0
M  V30 3591 H 337.459 1.35792 -3.73905 0
M  V30 3592 H 334.198 0.310342 -6.54765 0
M  V30 3593 H 333.718 1.80895 -5.71872 0
M  V30 3594 H 335.397 1.59043 -6.27148 0
M  V30 3595 N 335.529 1.53961 0.336706 0
M  V30 3596 C 336.754 1.75797 1.10046 0
M  V30 3597 C 337.179 0.498985 1.81361 0
M  V30 3598 O 336.537 -0.548769 1.72795 0
M  V30 3599 C 336.585 2.94257 2.08436 0
M  V30 3600 O 335.689 2.64883 3.16087 0
M  V30 3601 H 335.03 0.582936 0.317934 0
M  V30 3602 H 337.56 2.00945 0.38501 0
M  V30 3603 H 337.57 3.21237 2.51537 0
M  V30 3604 H 336.245 3.85564 1.55927 0
M  V30 3605 H 334.822 2.48812 2.77753 0
M  V30 3606 N 337.007 -0.598083 1.45811 0
M  V30 3607 C 338.253 -1.35882 1.50545 0
M  V30 3608 C 338.586 -1.93616 0.150445 0
M  V30 3609 O 337.861 -1.75604 -0.83628 0
M  V30 3610 C 338.144 -2.49966 2.59208 0
M  V30 3611 C 337.997 -1.97367 4.04186 0
M  V30 3612 C 339.316 -3.52068 2.64076 0
M  V30 3613 H 336.435 -0.492717 0.548087 0
M  V30 3614 H 339.077 -0.673319 1.77669 0
M  V30 3615 H 337.227 -3.08443 2.3621 0
M  V30 3616 H 338.899 -1.43466 4.38423 0
M  V30 3617 H 337.142 -1.283 4.14393 0
M  V30 3618 H 337.813 -2.79649 4.75921 0
M  V30 3619 H 340.289 -3.03448 2.84708 0
M  V30 3620 H 339.165 -4.2937 3.41954 0
M  V30 3621 H 339.426 -4.08304 1.69531 0
M  V30 3622 N 338.485 -1.33259 -0.841409 0
M  V30 3623 C 339.731 -1.24757 -1.59886 0
M  V30 3624 C 340.064 0.186913 -1.93298 0
M  V30 3625 O 339.339 1.12757 -1.5848 0
M  V30 3626 C 339.622 -2.12036 -2.91055 0
M  V30 3627 C 339.475 -3.63929 -2.6434 0
M  V30 3628 C 340.794 -1.9916 -3.92458 0
M  V30 3629 H 337.913 -0.454542 -0.580138 0
M  V30 3630 H 340.555 -1.63335 -0.970647 0
M  V30 3631 H 338.705 -1.79265 -3.44669 0
M  V30 3632 H 340.377 -4.06978 -2.17178 0
M  V30 3633 H 338.62 -3.85935 -1.98082 0
M  V30 3634 H 339.291 -4.20341 -3.57796 0
M  V30 3635 H 341.767 -2.27895 -3.48143 0
M  V30 3636 H 340.643 -2.62484 -4.82072 0
M  V30 3637 H 340.904 -0.963082 -4.31482 0
M  V30 3638 N 339.963 1.05934 -1.16686 0
M  V30 3639 C 340.893 2.1546 -0.899949 0
M  V30 3640 C 341.874 1.69391 0.155154 0
M  V30 3641 O 343.059 1.94199 0.00648693 0
M  V30 3642 C 340.189 3.44939 -0.404241 0
M  V30 3643 C 339.143 4.04536 -1.39767 0
M  V30 3644 C 338.469 5.29268 -0.760216 0
M  V30 3645 C 339.769 4.42893 -2.76845 0
M  V30 3646 H 341.463 2.38046 -1.81588 0
M  V30 3647 H 339.009 1.14404 -0.874514 0
M  V30 3648 H 340.962 4.20901 -0.204971 0
M  V30 3649 H 339.686 3.21983 0.547206 0
M  V30 3650 H 338.345 3.30635 -1.58355 0
M  V30 3651 H 337.993 5.02611 0.197831 0
M  V30 3652 H 337.693 5.70101 -1.42332 0
M  V30 3653 H 339.217 6.07924 -0.57105 0
M  V30 3654 H 340.631 5.09921 -2.62019 0
M  V30 3655 H 339.028 4.94721 -3.39663 0
M  V30 3656 H 340.098 3.53584 -3.31823 0
M  V30 3657 N 341.441 0.965919 1.2453 0
M  V30 3658 C 342.404 0.499547 2.2369 0
M  V30 3659 C 343.404 -0.40294 1.5567 0
M  V30 3660 O 344.594 -0.19865 1.73064 0
M  V30 3661 C 341.726 -0.276792 3.39774 0
M  V30 3662 H 342.919 1.37613 2.66463 0
M  V30 3663 H 340.472 0.750324 1.37112 0
M  V30 3664 H 341.207 -1.17055 3.02438 0
M  V30 3665 H 340.992 0.370826 3.90343 0
M  V30 3666 H 342.482 -0.592175 4.1338 0
M  V30 3667 N 342.919 -1.39368 0.735821 0
M  V30 3668 C 344.144 -2.05319 0.293052 0
M  V30 3669 C 344.569 -1.55115 -1.064 0
M  V30 3670 O 343.927 -0.695261 -1.67439 0
M  V30 3671 C 343.975 -3.59305 0.305323 0
M  V30 3672 O 343.079 -4.06299 -0.706761 0
M  V30 3673 H 342.42 -0.650529 0.13307 0
M  V30 3674 H 344.95 -1.78386 1.00197 0
M  V30 3675 H 344.96 -4.07724 0.149997 0
M  V30 3676 H 343.635 -3.95207 1.29553 0
M  V30 3677 H 342.212 -3.69292 -0.517504 0
M  V30 3678 N 344.397 -0.483516 -1.5 0
M  V30 3679 C 345.646 0.0689102 -2.01582 0
M  V30 3680 C 345.959 1.39655 -1.36952 0
M  V30 3681 O 347.165 2.03465 -1.79762 0
M  V30 3682 C 345.621 0.173302 -3.59483 0
M  V30 3683 C 345.229 -1.14665 -4.33077 0
M  V30 3684 C 346.973 0.677024 -4.19066 0
M  V30 3685 C 344.88 -1.00537 -5.82792 0
M  V30 3686 H 343.81 0.0295277 -0.753422 0
M  V30 3687 H 346.461 -0.620295 -1.72698 0
M  V30 3688 H 344.843 0.926569 -3.85007 0
M  V30 3689 H 346.017 -1.91184 -4.19268 0
M  V30 3690 H 344.332 -1.58244 -3.85159 0
M  V30 3691 H 346.929 0.799952 -5.28682 0
M  V30 3692 H 347.272 1.67151 -3.81269 0
M  V30 3693 H 347.805 -0.0192083 -3.97795 0
M  V30 3694 H 344.544 -1.9736 -6.25083 0
M  V30 3695 H 344.064 -0.280776 -5.99142 0
M  V30 3696 H 345.743 -0.677 -6.43448 0
M  V30 3697 N 345.875 1.56104 -0.216619 0
M  V30 3698 C 346.838 2.18819 0.681962 0
M  V30 3699 C 347.838 1.14866 1.12528 0
M  V30 3700 O 349.028 1.40128 1.03488 0
M  V30 3701 C 346.16 2.80756 1.93362 0
M  V30 3702 H 347.353 2.99595 0.135254 0
M  V30 3703 H 344.906 1.56265 0.0330003 0
M  V30 3704 H 345.641 2.03837 2.52232 0
M  V30 3705 H 345.426 3.56876 1.62426 0
M  V30 3706 H 346.916 3.28844 2.57393 0
M  V30 3707 N 347.353 -0.0568162 1.57498 0
M  V30 3708 C 348.316 -1.05038 2.03715 0
M  V30 3709 C 349.316 -1.30709 0.936577 0
M  V30 3710 O 350.506 -1.26178 1.20103 0
M  V30 3711 C 347.638 -2.39034 2.43055 0
M  V30 3712 H 348.831 -0.651715 2.92733 0
M  V30 3713 H 346.384 -0.302947 1.53336 0
M  V30 3714 H 347.119 -2.83703 1.57108 0
M  V30 3715 H 346.904 -2.21739 3.2338 0
M  V30 3716 H 348.394 -3.10421 2.79336 0
M  V30 3717 N 348.832 -1.54138 -0.328536 0
M  V30 3718 C 349.765 -1.78014 -1.4278 0
M  V30 3719 C 350.743 -0.629889 -1.49904 0
M  V30 3720 O 351.927 -0.866763 -1.6739 0
M  V30 3721 C 349.054 -1.89225 -2.80912 0
M  V30 3722 C 348.1 -3.11483 -2.91343 0
M  V30 3723 S 348.933 -4.70201 -2.56263 0
M  V30 3724 C 350.089 -4.84312 -3.96476 0
M  V30 3725 H 350.322 -2.70974 -1.22313 0
M  V30 3726 H 347.855 -1.45197 -0.525084 0
M  V30 3727 H 349.813 -1.9637 -3.60485 0
M  V30 3728 H 348.474 -0.972518 -2.98665 0
M  V30 3729 H 347.667 -3.16046 -3.92595 0
M  V30 3730 H 347.269 -3.02642 -2.19736 0
M  V30 3731 H 349.561 -4.66643 -4.91173 0
M  V30 3732 H 350.504 -5.86411 -3.96898 0
M  V30 3733 H 350.912 -4.12652 -3.85199 0
M  V30 3734 N 350.31 0.590341 -1.46126 0
M  V30 3735 C 351.55 1.35995 -1.52593 0
M  V30 3736 C 351.914 1.91243 -0.170368 0
M  V30 3737 O 353.115 2.68576 -0.109775 0
M  V30 3738 C 351.386 2.46465 -2.58823 0
M  V30 3739 S 352.945 3.33953 -2.84641 0
M  V30 3740 H 349.763 0.463425 -0.53922 0
M  V30 3741 H 352.365 0.67944 -1.83314 0
M  V30 3742 H 351.069 2.04256 -3.5596 0
M  V30 3743 H 350.6 3.19297 -2.2981 0
M  V30 3744 H 352.615 4.45094 -2.19331 0
M  V30 3745 N 351.788 1.33704 0.83433 0
M  V30 3746 C 353.037 1.24763 1.58484 0
M  V30 3747 C 353.35 -0.183775 1.94735 0
M  V30 3748 O 354.556 -0.395234 2.68608 0
M  V30 3749 C 353.012 2.18638 2.85876 0
M  V30 3750 C 352.62 3.66974 2.56971 0
M  V30 3751 C 354.364 2.18581 3.63899 0
M  V30 3752 C 352.271 4.5275 3.80488 0
M  V30 3753 H 351.201 0.463425 0.594772 0
M  V30 3754 H 353.852 1.58797 0.919551 0
M  V30 3755 H 352.234 1.77542 3.5397 0
M  V30 3756 H 353.408 4.16538 1.9706 0
M  V30 3757 H 351.723 3.69366 1.92244 0
M  V30 3758 H 354.32 2.79894 4.55591 0
M  V30 3759 H 354.663 1.18207 3.99165 0
M  V30 3760 H 355.196 2.58062 3.02735 0
M  V30 3761 H 351.935 5.54017 3.5035 0
M  V30 3762 H 351.455 4.07927 4.39722 0
M  V30 3763 H 353.134 4.66784 4.4802 0
M  V30 3764 N 353.266 -1.05314 1.17247 0
M  V30 3765 C 354.216 -2.11313 0.856196 0
M  V30 3766 C 355.2 -1.60013 -0.168694 0
M  V30 3767 O 356.392 -1.76968 0.0335624 0
M  V30 3768 C 353.521 -3.41301 0.369917 0
M  V30 3769 C 352.607 -3.99401 1.42616 0
M  V30 3770 N 352.998 -4.31481 2.63928 0
M  V30 3771 C 351.296 -4.27126 1.28373 0
M  V30 3772 C 351.997 -4.77799 3.31787 0
M  V30 3773 N 350.973 -4.77843 2.59166 0
M  V30 3774 H 354.775 -2.33976 1.77856 0
M  V30 3775 H 352.289 -1.2295 1.06099 0
M  V30 3776 H 354.286 -4.16713 0.124897 0
M  V30 3777 H 352.946 -3.20072 -0.546253 0
M  V30 3778 H 353.957 -4.21519 3.00902 0
M  V30 3779 H 350.634 -4.15289 0.429111 0
M  V30 3780 H 352.024 -5.11743 4.35395 0
M  V30 3781 N 354.744 -0.972509 -1.24016 0
M  V30 3782 C 355.969 -0.654417 -1.96805 0
M  V30 3783 C 356.394 0.770398 -1.716 0
M  V30 3784 O 355.752 1.52361 -0.982647 0
M  V30 3785 C 355.8 -0.941031 -3.48105 0
M  V30 3786 O 354.904 -0.0289472 -4.1239 0
M  V30 3787 H 354.245 -0.24692 -0.616382 0
M  V30 3788 H 356.775 -1.30396 -1.57664 0
M  V30 3789 H 356.785 -0.87452 -3.98517 0
M  V30 3790 H 355.46 -1.97939 -3.65777 0
M  V30 3791 H 354.037 -0.149192 -3.72601 0
M  V30 3792 N 356.222 1.38976 -0.743202 0
M  V30 3793 C 357.152 2.33171 -0.123873 0
M  V30 3794 C 358.133 1.54336 0.71516 0
M  V30 3795 O 359.318 1.82696 0.658467 0
M  V30 3796 C 356.448 3.38474 0.777978 0
M  V30 3797 C 355.402 4.27979 0.0424758 0
M  V30 3798 C 354.728 5.2405 1.06189 0
M  V30 3799 C 356.028 5.10155 -1.1198 0
M  V30 3800 H 357.722 2.85213 -0.910709 0
M  V30 3801 H 355.268 1.37133 -0.439388 0
M  V30 3802 H 357.221 4.03328 1.22084 0
M  V30 3803 H 355.945 2.84891 1.59702 0
M  V30 3804 H 354.604 3.64616 -0.380853 0
M  V30 3805 H 354.252 4.66758 1.87472 0
M  V30 3806 H 353.952 5.84785 0.574485 0
M  V30 3807 H 355.476 5.9178 1.50428 0
M  V30 3808 H 356.89 5.68307 -0.75499 0
M  V30 3809 H 355.287 5.80073 -1.53738 0
M  V30 3810 H 356.357 4.44504 -1.93764 0
M  V30 3811 N 357.7 0.491464 1.49741 0
M  V30 3812 C 359.111 0.0413169 1.86654 0
M  V30 3813 C 359.462 -1.36985 1.40462 0
M  V30 3814 O 358.587 -2.01917 0.778354 0
M  V30 3815 C 359.182 0.0682023 3.38731 0
M  V30 3816 C 357.741 -0.32656 3.74981 0
M  V30 3817 C 356.888 0.444888 2.73708 0
M  V30 3818 H 359.839 0.704733 1.42194 0
M  V30 3819 H 359.86 -0.729322 3.73445 0
M  V30 3820 H 359.372 1.09539 3.72321 0
M  V30 3821 H 357.473 -1.35734 3.46997 0
M  V30 3822 H 357.586 -0.013741 4.79098 0
M  V30 3823 H 355.95 -0.104062 2.54487 0
M  V30 3824 H 356.733 1.47197 3.10142 0
M  V30 3825 N 359.178 -1.55987 0.224894 0
M  V30 3826 C 360.088 -2.24066 -0.69511 0
M  V30 3827 C 361.104 -1.24939 -1.21104 0
M  V30 3828 O 362.28 -1.5776 -1.25195 0
M  V30 3829 C 359.345 -2.90983 -1.88493 0
M  V30 3830 C 358.406 -4.05462 -1.41064 0
M  V30 3831 C 357.639 -4.69179 -2.54375 0
M  V30 3832 O 357.862 -4.31895 -3.72589 0
M  V30 3833 O 356.796 -5.58108 -2.25386 0
M  V30 3834 H 360.622 -3.03353 -0.145149 0
M  V30 3835 H 358.207 -1.49399 -0.00569476 0
M  V30 3836 H 360.089 -3.33209 -2.57972 0
M  V30 3837 H 358.764 -2.14653 -2.42293 0
M  V30 3838 H 357.671 -3.67798 -0.683774 0
M  V30 3839 H 359.004 -4.83545 -0.918985 0
M  V30 3840 N 360.656 0.0484629 -1.57525 0
M  V30 3841 C 361.886 0.754326 -1.92337 0
M  V30 3842 C 362.294 1.70443 -0.82132 0
M  V30 3843 O 361.637 1.82466 0.21254 0
M  V30 3844 C 361.699 1.58231 -3.22805 0
M  V30 3845 C 361.363 0.799074 -4.4996 0
M  V30 3846 C 362.36 0.1079 -5.19788 0
M  V30 3847 C 360.045 0.759345 -4.96527 0
M  V30 3848 C 362.039 -0.612516 -6.3445 0
M  V30 3849 C 359.726 0.0351713 -6.1109 0
M  V30 3850 C 360.724 -0.649537 -6.79904 0
M  V30 3851 O 360.412 -1.36199 -7.92278 0
M  V30 3852 H 360.144 0.218257 -0.639797 0
M  V30 3853 H 362.698 0.0159295 -2.05394 0
M  V30 3854 H 360.928 2.36406 -3.06021 0
M  V30 3855 H 362.617 2.16898 -3.43089 0
M  V30 3856 H 363.383 0.129748 -4.84826 0
M  V30 3857 H 359.262 1.28177 -4.42822 0
M  V30 3858 H 362.806 -1.14751 -6.88097 0
M  V30 3859 H 358.703 0.0113314 -6.45499 0
M  V30 3860 H 359.471 -1.27366 -8.0853 0
M  V30 3861 N 362.134 1.5431 0.320358 0
M  V30 3862 C 363.066 1.80262 1.41556 0
M  V30 3863 C 364.079 0.684723 1.477 0
M  V30 3864 O 365.268 0.961886 1.50366 0
M  V30 3865 C 362.368 1.90825 2.8007 0
M  V30 3866 C 361.541 3.21023 2.97091 0
M  V30 3867 C 360.6 3.22247 4.15985 0
M  V30 3868 O 359.626 3.95871 4.08992 0
M  V30 3869 N 360.828 2.46258 5.25678 0
M  V30 3870 H 363.593 2.74778 1.19655 0
M  V30 3871 H 361.154 1.53646 0.510358 0
M  V30 3872 H 363.146 1.89067 3.57821 0
M  V30 3873 H 361.716 1.03392 2.95006 0
M  V30 3874 H 360.936 3.35715 2.06614 0
M  V30 3875 H 362.224 4.0698 3.05361 0
M  V30 3876 H 361.622 1.86037 5.34235 0
M  V30 3877 H 360.179 2.50275 6.01835 0
M  V30 3878 N 363.613 -0.582584 1.46437 0
M  V30 3879 C 364.576 -1.67366 1.56592 0
M  V30 3880 C 365.576 -1.54575 0.443072 0
M  V30 3881 O 366.766 -1.59191 0.707381 0
M  V30 3882 C 363.898 -3.06791 1.48634 0
M  V30 3883 H 365.091 -1.5972 2.5383 0
M  V30 3884 H 362.644 -0.800432 1.34249 0
M  V30 3885 H 363.379 -3.19993 0.526763 0
M  V30 3886 H 363.164 -3.17484 2.30101 0
M  V30 3887 H 364.654 -3.86218 1.58826 0
M  V30 3888 N 365.091 -1.34144 -0.827227 0
M  V30 3889 C 366.507 -1.13732 -1.11969 0
M  V30 3890 C 366.707 0.0640463 -2.01398 0
M  V30 3891 O 365.763 0.740856 -2.41387 0
M  V30 3892 C 367.076 -2.43047 -1.77055 0
M  V30 3893 C 368.624 -2.49063 -1.89569 0
M  V30 3894 C 369.099 -3.78369 -2.58072 0
M  V30 3895 N 370.59 -3.79505 -2.65575 0
M  V30 3896 C 371.325 -4.76274 -3.19297 0
M  V30 3897 N 370.821 -5.83424 -3.73616 0
M  V30 3898 N 372.614 -4.63735 -3.17658 0
M  V30 3899 H 364.765 -2.11126 -0.232296 0
M  V30 3900 H 367.028 -0.933424 -0.165602 0
M  V30 3901 H 366.734 -3.31025 -1.18807 0
M  V30 3902 H 366.608 -2.56066 -2.76966 0
M  V30 3903 H 368.995 -1.61527 -2.46968 0
M  V30 3904 H 369.076 -2.39975 -0.885745 0
M  V30 3905 H 368.72 -4.66293 -2.01329 0
M  V30 3906 H 368.65 -3.84737 -3.59562 0
M  V30 3907 H 371.141 -3.02074 -2.27068 0
M  V30 3908 H 371.454 -6.53282 -4.12846 0
M  V30 3909 H 369.799 -5.87143 -3.71871 0
M  V30 3910 H 372.99 -3.79177 -2.74486 0
M  V30 3911 H 373.163 -5.39318 -3.59221 0
M  V30 3912 N 366.569 1.04691 -1.17803 0
M  V30 3913 C 367.479 2.16057 -0.914151 0
M  V30 3914 C 368.495 1.73589 0.119503 0
M  V30 3915 O 369.671 2.01308 -0.0609468 0
M  V30 3916 C 366.736 3.4394 -0.436603 0
M  V30 3917 C 365.797 4.00825 -1.53746 0
M  V30 3918 C 365.03 5.22604 -1.0826 0
M  V30 3919 O 365.253 5.70367 0.0612244 0
M  V30 3920 O 364.187 5.7186 -1.87775 0
M  V30 3921 H 368.013 2.41169 -1.84584 0
M  V30 3922 H 365.598 1.1453 -0.959334 0
M  V30 3923 H 367.48 4.21024 -0.178057 0
M  V30 3924 H 366.155 3.20316 0.466869 0
M  V30 3925 H 365.062 3.25158 -1.84995 0
M  V30 3926 H 366.395 4.28778 -2.41683 0
M  V30 3927 N 368.047 0.979072 1.23499 0
M  V30 3928 C 369.01 0.523244 2.23147 0
M  V30 3929 C 370.01 -0.386406 1.56088 0
M  V30 3930 O 371.2 -0.180283 1.73265 0
M  V30 3931 C 368.332 -0.240739 3.40049 0
M  V30 3932 H 369.525 1.40432 2.64989 0
M  V30 3933 H 367.078 0.764824 1.36309 0
M  V30 3934 H 367.813 -1.13841 3.03662 0
M  V30 3935 H 367.598 0.412207 3.89927 0
M  V30 3936 H 369.088 -0.548297 4.13985 0
M  V30 3937 N 369.525 -1.3858 0.750561 0
M  V30 3938 C 370.488 -2.28836 0.129152 0
M  V30 3939 C 371.488 -1.47045 -0.650714 0
M  V30 3940 O 372.678 -1.6753 -0.477428 0
M  V30 3941 C 369.81 -3.30751 -0.825622 0
M  V30 3942 H 371.003 -2.85294 0.924516 0
M  V30 3943 H 368.556 -1.47489 0.517376 0
M  V30 3944 H 369.291 -2.79378 -1.64677 0
M  V30 3945 H 369.076 -3.91177 -0.268852 0
M  V30 3946 H 370.566 -3.98249 -1.2565 0
M  V30 3947 N 371.003 -0.499398 -1.49478 0
M  V30 3948 C 371.966 0.268838 -2.27618 0
M  V30 3949 C 372.966 0.895383 -1.33565 0
M  V30 3950 O 374.156 0.760164 -1.56739 0
M  V30 3951 C 371.288 1.38559 -3.11471 0
M  V30 3952 H 372.481 -0.416812 -2.96989 0
M  V30 3953 H 370.034 -0.254313 -1.54217 0
M  V30 3954 H 370.769 2.10544 -2.46661 0
M  V30 3955 H 370.554 0.941797 -3.80621 0
M  V30 3956 H 372.044 1.92678 -3.70493 0
M  V30 3957 N 372.481 1.55866 -0.233164 0
M  V30 3958 C 373.444 2.1953 0.658715 0
M  V30 3959 C 374.444 1.16053 1.11303 0
M  V30 3960 O 375.634 1.41218 1.01996 0
M  V30 3961 C 372.766 2.82791 1.90373 0
M  V30 3962 H 373.959 2.99721 0.10347 0
M  V30 3963 H 371.512 1.56291 0.0164245 0
M  V30 3964 H 372.247 2.06501 2.50056 0
M  V30 3965 H 372.032 3.58578 1.58632 0
M  V30 3966 H 373.522 3.31556 2.53891 0
M  V30 3967 N 373.959 -0.0401083 1.57549 0
M  V30 3968 C 375.205 -0.734211 1.89043 0
M  V30 3969 C 375.538 -1.75591 0.829535 0
M  V30 3970 O 374.813 -1.93868 -0.156706 0
M  V30 3971 C 375.096 -1.41374 3.31188 0
M  V30 3972 C 374.949 -0.406299 4.47961 0
M  V30 3973 C 376.268 -2.35061 3.72068 0
M  V30 3974 H 373.387 -0.265447 0.687537 0
M  V30 3975 H 376.029 0.00294087 1.9 0
M  V30 3976 H 374.179 -2.04206 3.30503 0
M  V30 3977 H 375.851 0.219255 4.60779 0
M  V30 3978 H 374.094 0.275485 4.32924 0
M  V30 3979 H 374.765 -0.920022 5.44279 0
M  V30 3980 H 377.241 -1.82282 3.74049 0
M  V30 3981 H 376.117 -2.79593 4.72355 0
M  V30 3982 H 376.378 -3.21258 3.0372 0
M  V30 3983 N 375.437 -1.54477 -0.31217 0
M  V30 3984 C 376.4 -1.83923 -1.36766 0
M  V30 3985 C 377.4 -0.711563 -1.44199 0
M  V30 3986 O 378.59 -0.979866 -1.44029 0
M  V30 3987 C 375.722 -2.0095 -2.75376 0
M  V30 3988 H 376.915 -2.78239 -1.11906 0
M  V30 3989 H 374.468 -1.46369 -0.548257 0
M  V30 3990 H 375.203 -1.08883 -3.05475 0
M  V30 3991 H 374.988 -2.83018 -2.71373 0
M  V30 3992 H 376.478 -2.2514 -3.51713 0
M  V30 3993 N 376.915 0.57481 -1.46744 0
M  V30 3994 C 377.878 1.66533 -1.57478 0
M  V30 3995 C 378.878 1.54338 -0.451263 0
M  V30 3996 O 380.068 1.58814 -0.715813 0
M  V30 3997 C 377.2 3.05999 -1.50259 0
M  V30 3998 H 378.393 1.58372 -2.54673 0
M  V30 3999 H 375.946 0.793301 -1.34672 0
M  V30 4000 H 376.681 3.19709 -0.543725 0
M  V30 4001 H 376.466 3.16259 -2.31781 0
M  V30 4002 H 377.956 3.8537 -1.60872 0
M  V30 4003 N 378.394 1.34581 0.820102 0
M  V30 4004 C 379.64 1.27285 1.57881 0
M  V30 4005 C 379.973 -0.156137 1.93571 0
M  V30 4006 O 379.248 -1.10222 1.60254 0
M  V30 4007 C 379.531 2.16639 2.87645 0
M  V30 4008 C 379.384 3.68088 2.58517 0
M  V30 4009 C 380.703 2.05378 3.8924 0
M  V30 4010 H 377.822 0.463714 0.572833 0
M  V30 4011 H 380.464 1.64859 0.944539 0
M  V30 4012 H 378.614 1.84725 3.41773 0
M  V30 4013 H 380.286 4.10382 2.10676 0
M  V30 4014 H 378.529 3.89038 1.91917 0
M  V30 4015 H 379.2 4.2598 3.51063 0
M  V30 4016 H 381.676 2.33404 3.44473 0
M  V30 4017 H 380.552 2.7012 4.77835 0
M  V30 4018 H 380.813 1.0316 4.29896 0
M  V30 4019 N 379.872 -1.04064 1.18357 0
M  V30 4020 C 380.835 -2.10243 0.912707 0
M  V30 4021 C 381.835 -1.60477 -0.101928 0
M  V30 4022 O 383.025 -1.73703 0.131517 0
M  V30 4023 C 380.157 -3.38893 0.369387 0
M  V30 4024 H 381.35 -2.35706 1.85426 0
M  V30 4025 H 378.903 -1.20489 0.995594 0
M  V30 4026 H 379.638 -3.19094 -0.578776 0
M  V30 4027 H 379.423 -3.76331 1.1008 0
M  V30 4028 H 380.913 -4.17128 0.198575 0
M  V30 4029 N 381.35 -0.985608 -1.22978 0
M  V30 4030 C 382.313 -0.535071 -2.22867 0
M  V30 4031 C 383.313 0.378123 -1.56291 0
M  V30 4032 O 384.503 0.171092 -1.73358 0
M  V30 4033 C 381.635 0.222702 -3.40172 0
M  V30 4034 H 382.828 -1.41835 -2.6424 0
M  V30 4035 H 380.381 -0.772042 -1.35901 0
M  V30 4036 H 381.116 1.12229 -3.04262 0
M  V30 4037 H 380.901 -0.43288 -3.89703 0
M  V30 4038 H 382.391 0.526335 -4.1427 0
M  V30 4039 N 382.828 1.3818 -0.7579 0
M  V30 4040 C 384.076 1.99624 -0.315361 0
M  V30 4041 C 384.397 1.60464 1.10799 0
M  V30 4042 O 383.667 0.863507 1.75842 0
M  V30 4043 H 382.247 0.73831 -0.113611 0
M  V30 4044 H 384.909 1.68878 -0.972952 0
M  V30 4045 H 384.005 3.09754 -0.381931 0
M  V30 4046 N 384.306 0.507319 1.49211 0
M  V30 4047 C 385.722 0.163682 1.58758 0
M  V30 4048 C 385.922 -1.33208 1.51188 0
M  V30 4049 O 384.978 -2.10855 1.38911 0
M  V30 4050 C 386.291 0.746095 2.91297 0
M  V30 4051 C 387.839 0.712773 3.04776 0
M  V30 4052 C 388.314 1.27336 4.39943 0
M  V30 4053 N 389.805 1.23433 4.46451 0
M  V30 4054 C 390.54 1.63821 5.495 0
M  V30 4055 N 390.036 2.11832 6.5962 0
M  V30 4056 N 391.829 1.55198 5.4025 0
M  V30 4057 H 383.98 1.47972 1.52375 0
M  V30 4058 H 386.243 0.614147 0.722168 0
M  V30 4059 H 385.949 1.79534 3.02424 0
M  V30 4060 H 385.823 0.210137 3.76614 0
M  V30 4061 H 388.21 -0.327656 2.93275 0
M  V30 4062 H 388.291 1.28595 2.21127 0
M  V30 4063 H 387.935 2.3126 4.52196 0
M  V30 4064 H 387.865 0.676066 5.22242 0
M  V30 4065 H 390.356 0.882627 3.67448 0
M  V30 4066 H 390.669 2.40703 7.34358 0
M  V30 4067 H 389.014 2.1581 6.60644 0
M  V30 4068 H 392.205 1.17505 4.53112 0
M  V30 4069 H 392.378 1.86997 6.20432 0
M  V30 4070 N 385.784 -1.5574 0.241426 0
M  V30 4071 C 387.009 -2.0366 -0.392111 0
M  V30 4072 C 387.434 -1.11969 -1.51144 0
M  V30 4073 O 386.792 -0.111594 -1.80956 0
M  V30 4074 C 386.84 -3.49638 -0.882371 0
M  V30 4075 O 385.944 -3.6108 -1.99235 0
M  V30 4076 H 385.285 -0.658379 -0.0862122 0
M  V30 4077 H 387.815 -2.01302 0.365881 0
M  V30 4078 H 387.825 -3.90351 -1.18702 0
M  V30 4079 H 386.5 -4.15852 -0.0632361 0
M  V30 4080 H 385.077 -3.32262 -1.69282 0
M  V30 4081 N 387.262 0.0317525 -1.57568 0
M  V30 4082 C 388.673 0.578692 -1.77505 0
M  V30 4083 C 389.024 1.75749 -0.872164 0
M  V30 4084 O 388.149 2.16298 -0.0663106 0
M  V30 4085 C 388.744 1.05658 -3.21904 0
M  V30 4086 C 387.303 1.54906 -3.43047 0
M  V30 4087 C 386.45 0.485939 -2.73009 0
M  V30 4088 H 389.401 -0.194475 -1.57504 0
M  V30 4089 H 389.422 1.92404 -3.28269 0
M  V30 4090 H 388.934 0.198422 -3.87592 0
M  V30 4091 H 387.035 2.42915 -2.82529 0
M  V30 4092 H 387.148 1.59841 -4.5165 0
M  V30 4093 H 385.512 0.940354 -2.36705 0
M  V30 4094 H 386.295 -0.362709 -3.41379 0
M  V30 4095 N 388.74 1.54641 0.303973 0
M  V30 4096 C 389.65 1.88439 1.39743 0
M  V30 4097 C 390.666 0.778239 1.55626 0
M  V30 4098 O 391.842 1.07442 1.70347 0
M  V30 4099 C 388.907 2.12212 2.74166 0
M  V30 4100 C 387.968 3.35936 2.67293 0
M  V30 4101 C 387.201 3.58566 3.95305 0
M  V30 4102 O 387.424 2.84263 4.9452 0
M  V30 4103 O 386.358 4.52078 3.97378 0
M  V30 4104 H 390.184 2.81458 1.14083 0
M  V30 4105 H 387.769 1.40793 0.499768 0
M  V30 4106 H 389.651 2.29067 3.53704 0
M  V30 4107 H 388.326 1.22379 2.99675 0
M  V30 4108 H 387.233 3.24448 1.86237 0
M  V30 4109 H 388.566 4.2589 2.46736 0
M  V30 4110 N 390.218 -0.567019 1.47046 0
M  V30 4111 C 391.466 -1.322 1.52864 0
M  V30 4112 C 391.787 -1.94088 0.188388 0
M  V30 4113 O 391.057 -1.7941 -0.786693 0
M  V30 4114 H 389.637 -0.490894 0.563056 0
M  V30 4115 H 392.299 -0.662879 1.83281 0
M  V30 4116 H 391.395 -2.12062 2.2899 0
M  V30 4117 N 391.696 -1.35014 -0.812953 0
M  V30 4118 C 392.942 -1.2812 -1.57204 0
M  V30 4119 C 393.275 0.145869 -1.93651 0
M  V30 4120 O 392.55 1.0937 -1.60836 0
M  V30 4121 C 392.833 -2.18162 -2.86492 0
M  V30 4122 C 392.686 -3.69454 -2.56561 0
M  V30 4123 C 394.005 -2.07439 -3.88145 0
M  V30 4124 H 391.124 -0.466746 -0.570366 0
M  V30 4125 H 393.766 -1.65357 -0.935783 0
M  V30 4126 H 391.916 -1.86535 -3.40789 0
M  V30 4127 H 393.588 -4.11493 -2.08497 0
M  V30 4128 H 391.831 -3.9005 -1.89851 0
M  V30 4129 H 392.502 -4.27835 -3.48799 0
M  V30 4130 H 394.978 -2.35228 -3.4323 0
M  V30 4131 H 393.854 -2.7265 -4.76396 0
M  V30 4132 H 394.115 -1.05439 -4.29343 0
M  V30 4133 N 393.175 1.03435 -1.18907 0
M  V30 4134 C 394.591 1.28973 -0.940111 0
M  V30 4135 C 394.791 1.97676 0.390691 0
M  V30 4136 O 393.847 2.26127 1.12352 0
M  V30 4137 C 395.16 2.14221 -2.11021 0
M  V30 4138 C 396.708 2.27547 -2.14922 0
M  V30 4139 C 397.183 3.16164 -3.31367 0
M  V30 4140 N 398.674 3.23752 -3.31269 0
M  V30 4141 C 399.409 3.92495 -4.18014 0
M  V30 4142 N 398.905 4.63515 -5.14904 0
M  V30 4143 N 400.698 3.88838 -4.05908 0
M  V30 4144 H 392.849 0.57252 -2.04538 0
M  V30 4145 H 395.112 0.315184 -0.894071 0
M  V30 4146 H 394.818 1.71054 -3.073 0
M  V30 4147 H 394.692 3.14919 -2.0762 0
M  V30 4148 H 397.079 2.69947 -1.19217 0
M  V30 4149 H 397.16 1.26418 -2.22378 0
M  V30 4150 H 396.804 2.74474 -4.27348 0
M  V30 4151 H 396.734 4.17339 -3.21148 0
M  V30 4152 H 399.225 2.73167 -2.61129 0
M  V30 4153 H 399.538 5.13583 -5.77453 0
M  V30 4154 H 397.883 4.62398 -5.18857 0
M  V30 4155 H 401.074 3.32491 -3.29495 0
M  V30 4156 H 401.247 4.4214 -4.73726 0
M  V30 4157 N 394.653 0.992116 1.22453 0
M  V30 4158 C 395.93 0.583508 1.86694 0
M  V30 4159 C 396.31 -0.9392 1.89056 0
M  V30 4160 O 395.658 -1.82081 1.38053 0
M  V30 4161 C 395.868 1.20304 3.2761 0
M  V30 4162 C 397.216 1.30308 4.0411 0
M  V30 4163 O 398.24 1.15737 3.36873 0
M  V30 4164 O 397.099 1.53615 5.24466 0
M  V30 4165 H 394.193 0.198129 0.802916 0
M  V30 4166 H 396.739 1.08794 1.30238 0
M  V30 4167 H 395.511 2.24461 3.2052 0
M  V30 4168 H 395.134 0.684144 3.9167 0
M  V30 4169 N 396.131 -1.37776 0.765217 0
M  V30 4170 C 397.408 -1.93975 0.251596 0
M  V30 4171 C 397.788 -1.69949 -1.25222 0
M  V30 4172 O 397.136 -1.04457 -2.03226 0
M  V30 4173 C 397.346 -3.43487 0.617895 0
M  V30 4174 C 398.694 -4.20564 0.584029 0
M  V30 4175 O 399.718 -3.5182 0.556888 0
M  V30 4176 O 398.577 -5.43138 0.605291 0
M  V30 4177 H 395.671 -0.82509 0.0561806 0
M  V30 4178 H 398.217 -1.47101 0.846128 0
M  V30 4179 H 396.989 -3.5453 1.65602 0
M  V30 4180 H 396.612 -3.976 -0.00403411 0
M  V30 4181 N 397.609 -0.515225 -1.4894 0
M  V30 4182 C 399.02 -0.0710067 -1.86565 0
M  V30 4183 C 399.371 1.34733 -1.42623 0
M  V30 4184 O 398.496 2.00653 -0.810379 0
M  V30 4185 C 399.091 -0.122083 -3.3858 0
M  V30 4186 C 397.65 0.266863 -3.75453 0
M  V30 4187 C 396.797 -0.488376 -2.72966 0
M  V30 4188 H 399.748 -0.727266 -1.41055 0
M  V30 4189 H 399.769 0.669818 -3.74558 0
M  V30 4190 H 399.281 -1.15448 -3.70531 0
M  V30 4191 H 397.382 1.30196 -3.49113 0
M  V30 4192 H 397.495 -0.0624811 -4.79059 0
M  V30 4193 H 395.859 0.0635622 -2.54621 0
M  V30 4194 H 396.642 -1.52113 -3.07761 0
M  V30 4195 N 399.087 1.5561 -0.249682 0
M  V30 4196 C 400.333 1.99306 0.374841 0
M  V30 4197 C 400.666 1.13767 1.57387 0
M  V30 4198 O 399.941 0.201711 1.93451 0
M  V30 4199 C 400.224 3.51507 0.781986 0
M  V30 4200 C 400.077 4.4781 -0.422629 0
M  V30 4201 C 401.396 4.08884 1.62793 0
M  V30 4202 H 398.515 0.724572 0.134773 0
M  V30 4203 H 401.157 1.86719 -0.351549 0
M  V30 4204 H 399.307 3.62363 1.4009 0
M  V30 4205 H 400.979 4.48931 -1.06108 0
M  V30 4206 H 399.222 4.20518 -1.06524 0
M  V30 4207 H 399.893 5.51919 -0.0943766 0
M  V30 4208 H 402.369 4.01147 1.10547 0
M  V30 4209 H 401.245 5.1564 1.88166 0
M  V30 4210 H 401.506 3.57515 2.60068 0
M  V30 4211 N 400.565 -0.0233959 1.57583 0
M  V30 4212 C 401.495 -1.02162 2.09965 0
M  V30 4213 C 402.476 -1.3735 1.00344 0
M  V30 4214 O 403.661 -1.46135 1.27899 0
M  V30 4215 C 400.791 -2.32081 2.58371 0
M  V30 4216 C 399.745 -2.1112 3.72307 0
M  V30 4217 C 399.071 -3.46848 4.06941 0
M  V30 4218 C 400.371 -1.49276 5.00514 0
M  V30 4219 H 402.065 -0.585557 2.93618 0
M  V30 4220 H 399.611 -0.280218 1.41247 0
M  V30 4221 H 401.564 -3.02249 2.93639 0
M  V30 4222 H 400.288 -2.77758 1.71808 0
M  V30 4223 H 398.947 -1.43384 3.37397 0
M  V30 4224 H 398.595 -3.90184 3.17436 0
M  V30 4225 H 398.295 -3.33646 4.83688 0
M  V30 4226 H 399.819 -4.18369 4.44747 0
M  V30 4227 H 401.233 -2.09368 5.33702 0
M  V30 4228 H 399.63 -1.46632 5.8191 0
M  V30 4229 H 400.7 -0.459217 4.82721 0
M  V30 4230 N 402.043 -1.548 -0.295768 0
M  V30 4231 C 403.459 -1.4613 -0.641722 0
M  V30 4232 C 403.659 -0.656771 -1.90496 0
M  V30 4233 O 402.715 -0.166547 -2.5195 0
M  V30 4234 C 404.028 -2.90141 -0.789852 0
M  V30 4235 C 405.576 -3.00216 -0.885396 0
M  V30 4236 C 406.051 -4.45434 -1.06548 0
M  V30 4237 N 407.542 -4.49166 -1.13156 0
M  V30 4238 C 408.277 -5.58717 -1.28929 0
M  V30 4239 N 407.773 -6.78182 -1.41567 0
M  V30 4240 N 409.566 -5.46415 -1.31859 0
M  V30 4241 H 401.717 -2.05574 0.534147 0
M  V30 4242 H 403.98 -0.931259 0.177372 0
M  V30 4243 H 403.686 -3.51635 0.0675598 0
M  V30 4244 H 403.56 -3.37859 -1.67724 0
M  V30 4245 H 405.947 -2.38833 -1.73329 0
M  V30 4246 H 406.028 -2.55787 0.0261185 0
M  V30 4247 H 405.672 -5.07413 -0.222335 0
M  V30 4248 H 405.602 -4.87499 -1.9913 0
M  V30 4249 H 408.093 -3.631 -1.04721 0
M  V30 4250 H 408.406 -7.57428 -1.53372 0
M  V30 4251 H 406.751 -6.81037 -1.38613 0
M  V30 4252 H 409.942 -4.5203 -1.21601 0
M  V30 4253 H 410.115 -6.31841 -1.43808 0
M  V30 4254 N 403.521 0.559213 -1.47345 0
M  V30 4255 C 404.937 0.884943 -1.32819 0
M  V30 4256 C 405.137 1.98988 -0.317173 0
M  V30 4257 O 404.193 2.51031 0.272011 0
M  V30 4258 C 405.506 1.28007 -2.72093 0
M  V30 4259 C 407.054 1.39161 -2.80363 0
M  V30 4260 C 407.529 1.82031 -4.20272 0
M  V30 4261 N 409.02 1.89185 -4.22804 0
M  V30 4262 C 409.755 2.2368 -5.27973 0
M  V30 4263 N 409.251 2.56802 -6.43447 0
M  V30 4264 N 411.044 2.24436 -5.15349 0
M  V30 4265 H 403.195 -0.170304 -2.11716 0
M  V30 4266 H 405.458 -0.0135247 -0.947904 0
M  V30 4267 H 405.164 0.542027 -3.47498 0
M  V30 4268 H 405.038 2.23665 -3.03733 0
M  V30 4269 H 407.425 2.12048 -2.05231 0
M  V30 4270 H 407.506 0.41696 -2.52379 0
M  V30 4271 H 407.15 1.09715 -4.95908 0
M  V30 4272 H 407.08 2.80495 -4.45679 0
M  V30 4273 H 409.571 1.65982 -3.39497 0
M  V30 4274 H 409.884 2.82144 -7.19454 0
M  V30 4275 H 408.229 2.54387 -6.46771 0
M  V30 4276 H 411.42 1.97998 -4.24163 0
M  V30 4277 H 411.593 2.50989 -5.97418 0
M  V30 4278 N 404.999 1.35443 0.805782 0
M  V30 4279 C 405.929 1.31095 1.93226 0
M  V30 4280 C 406.91 0.185244 1.69088 0
M  V30 4281 O 408.095 0.380332 1.90439 0
M  V30 4282 C 405.225 1.08299 3.29983 0
M  V30 4283 C 404.179 2.17519 3.68605 0
M  V30 4284 C 403.505 1.79887 5.03532 0
M  V30 4285 C 404.805 3.5949 3.78898 0
M  V30 4286 H 406.499 2.25352 1.97122 0
M  V30 4287 H 404.045 1.0848 0.946996 0
M  V30 4288 H 405.998 1.03897 4.08391 0
M  V30 4289 H 404.722 0.104885 3.26432 0
M  V30 4290 H 403.381 2.2102 2.92482 0
M  V30 4291 H 403.029 0.80693 4.96485 0
M  V30 4292 H 402.729 2.53001 5.30344 0
M  V30 4293 H 404.253 1.77011 5.84379 0
M  V30 4294 H 405.667 3.58307 4.47536 0
M  V30 4295 H 404.064 4.31371 4.1718 0
M  V30 4296 H 405.134 3.95584 2.80431 0
M  V30 4297 N 406.477 -1.02803 1.19454 0
M  V30 4298 C 407.387 -2.14575 0.948408 0
M  V30 4299 C 408.403 -1.73757 -0.091871 0
M  V30 4300 O 409.579 -2.01185 0.0929654 0
M  V30 4301 C 406.644 -3.43202 0.491265 0
M  V30 4302 C 405.705 -3.98328 1.60103 0
M  V30 4303 C 404.938 -5.20816 1.16561 0
M  V30 4304 O 405.161 -5.70392 0.0295238 0
M  V30 4305 O 404.095 -5.68801 1.96849 0
M  V30 4306 H 407.921 -2.38202 1.88397 0
M  V30 4307 H 405.506 -1.12989 0.977433 0
M  V30 4308 H 407.388 -4.20687 0.245015 0
M  V30 4309 H 406.063 -3.21018 -0.415851 0
M  V30 4310 H 404.97 -3.22174 1.90144 0
M  V30 4311 H 406.303 -4.24879 2.48473 0
M  V30 4312 N 407.956 -0.998596 -1.21925 0
M  V30 4313 C 409.186 -0.695276 -1.94549 0
M  V30 4314 C 409.594 0.745079 -1.73911 0
M  V30 4315 O 408.937 1.51507 -1.03881 0
M  V30 4316 C 408.999 -0.928485 -3.47303 0
M  V30 4317 C 408.663 -2.35443 -3.91683 0
M  V30 4318 C 409.66 -3.33428 -3.98901 0
M  V30 4319 C 407.345 -2.69038 -4.24174 0
M  V30 4320 C 409.339 -4.63079 -4.37992 0
M  V30 4321 C 407.026 -3.98906 -4.62944 0
M  V30 4322 C 408.024 -4.95738 -4.69822 0
M  V30 4323 O 407.712 -6.23285 -5.07711 0
M  V30 4324 H 407.444 -0.255902 -0.625692 0
M  V30 4325 H 409.998 -1.33767 -1.5587 0
M  V30 4326 H 408.228 -0.228917 -3.86022 0
M  V30 4327 H 409.917 -0.619539 -4.01144 0
M  V30 4328 H 410.683 -3.08807 -3.73983 0
M  V30 4329 H 406.562 -1.94367 -4.18022 0
M  V30 4330 H 410.106 -5.38658 -4.43275 0
M  V30 4331 H 406.003 -4.23314 -4.87314 0
M  V30 4332 H 406.771 -6.27306 -5.25766 0
M  V30 4333 N 409.434 1.37368 -0.772513 0
M  V30 4334 C 410.681 1.99673 -0.337182 0
M  V30 4335 C 411.009 1.61324 1.0865 0
M  V30 4336 O 410.264 0.851377 1.7621 0
M  V30 4337 C 410.563 3.54817 -0.428876 0
M  V30 4338 C 410.229 4.12936 -1.81092 0
M  V30 4339 C 408.891 4.28523 -2.1891 0
M  V30 4340 C 411.243 4.44801 -2.71664 0
M  V30 4341 C 408.571 4.73277 -3.46735 0
M  V30 4342 C 410.923 4.90981 -3.98899 0
M  V30 4343 C 409.587 5.04773 -4.36761 0
M  V30 4344 H 408.857 0.730656 -0.123384 0
M  V30 4345 H 411.504 1.64124 -0.986686 0
M  V30 4346 H 409.809 3.90618 0.304167 0
M  V30 4347 H 411.506 4.00933 -0.0733334 0
M  V30 4348 H 408.096 4.01233 -1.50699 0
M  V30 4349 H 412.28 4.32344 -2.43706 0
M  V30 4350 H 407.536 4.82142 -3.75964 0
M  V30 4351 H 411.71 5.14603 -4.69208 0
M  V30 4352 H 409.337 5.39211 -5.35868 0
M  V30 4353 N 410.912 0.523116 1.48665 0
M  V30 4354 C 412.152 -0.0115588 2.04397 0
M  V30 4355 C 412.516 -1.32225 1.39214 0
M  V30 4356 O 413.717 -1.94253 1.85793 0
M  V30 4357 C 411.988 -0.138119 3.57133 0
M  V30 4358 S 413.547 -0.623849 4.34343 0
M  V30 4359 H 410.365 0.00877706 0.710946 0
M  V30 4360 H 412.967 0.702116 1.82457 0
M  V30 4361 H 411.671 0.820748 4.02109 0
M  V30 4362 H 411.202 -0.876377 3.83514 0
M  V30 4363 H 413.217 -1.8895 4.58816 0
M  V30 4364 N 412.39 -1.55475 0.257931 0
M  V30 4365 C 413.639 -1.98383 -0.364275 0
M  V30 4366 C 413.952 -1.14952 -1.58258 0
M  V30 4367 O 415.158 -1.47924 -2.27664 0
M  V30 4368 C 413.614 -3.53037 -0.699479 0
M  V30 4369 C 413.222 -4.45223 0.498046 0
M  V30 4370 C 414.966 -4.04575 -1.28526 0
M  V30 4371 C 412.873 -5.91238 0.138383 0
M  V30 4372 H 411.803 -0.740911 -0.13988 0
M  V30 4373 H 414.454 -1.79936 0.359883 0
M  V30 4374 H 412.836 -3.6722 -1.48207 0
M  V30 4375 H 414.01 -4.42803 1.27522 0
M  V30 4376 H 412.325 -4.04226 0.999503 0
M  V30 4377 H 414.922 -5.11196 -1.56788 0
M  V30 4378 H 415.265 -3.5258 -2.21344 0
M  V30 4379 H 415.798 -3.93762 -0.565337 0
M  V30 4380 H 412.537 -6.47294 1.03398 0
M  V30 4381 H 412.057 -5.96768 -0.602374 0
M  V30 4382 H 413.736 -6.46413 -0.27553 0
M  V30 4383 N 413.868 0.0150385 -1.57593 0
M  V30 4384 C 414.831 0.995996 -2.06428 0
M  V30 4385 C 415.831 1.2818 -0.970903 0
M  V30 4386 O 417.021 1.22949 -1.23406 0
M  V30 4387 C 414.153 2.32506 -2.49307 0
M  V30 4388 H 415.346 0.573873 -2.94358 0
M  V30 4389 H 412.899 0.262186 -1.54085 0
M  V30 4390 H 413.634 2.79438 -1.64575 0
M  V30 4391 H 413.419 2.13087 -3.29145 0
M  V30 4392 H 414.909 3.02906 -2.87468 0
M  V30 4393 N 415.346 1.54954 0.287554 0
M  V30 4394 C 416.592 1.76059 1.01856 0
M  V30 4395 C 416.947 0.547056 1.84459 0
M  V30 4396 O 416.24 -0.460442 1.85985 0
M  V30 4397 C 416.434 2.99833 1.94512 0
M  V30 4398 C 416.263 4.33108 1.21026 0
M  V30 4399 C 415.033 4.96632 0.931896 0
M  V30 4400 C 417.231 5.10694 0.607949 0
M  V30 4401 N 415.213 6.13668 0.168716 0
M  V30 4402 C 416.584 6.19996 -0.0217865 0
M  V30 4403 C 418.639 4.95236 0.514338 0
M  V30 4404 C 417.342 7.15524 -0.736092 0
M  V30 4405 C 419.368 5.91106 -0.186343 0
M  V30 4406 C 418.73 6.99786 -0.804875 0
M  V30 4407 H 414.829 0.696679 0.355193 0
M  V30 4408 H 417.413 1.92441 0.295741 0
M  V30 4409 H 415.584 2.84853 2.64033 0
M  V30 4410 H 417.316 3.09405 2.60865 0
M  V30 4411 H 414.071 4.57255 1.23348 0
M  V30 4412 H 414.495 6.76705 -0.199781 0
M  V30 4413 H 419.137 4.11328 0.978234 0
M  V30 4414 H 416.855 7.98964 -1.21172 0
M  V30 4415 H 420.441 5.81224 -0.258897 0
M  V30 4416 H 419.321 7.72694 -1.33843 0
M  V30 4417 N 416.824 -0.551391 1.4764 0
M  V30 4418 C 418.071 -1.3083 1.54563 0
M  V30 4419 C 418.399 -1.93359 0.210361 0
M  V30 4420 O 417.654 -1.78721 -0.797332 0
M  V30 4421 C 417.953 -2.43469 2.61644 0
M  V30 4422 C 417.619 -1.98732 4.04742 0
M  V30 4423 C 416.281 -1.86248 4.43695 0
M  V30 4424 C 418.633 -1.64659 4.94507 0
M  V30 4425 C 415.961 -1.37995 5.70241 0
M  V30 4426 C 418.313 -1.17875 6.21521 0
M  V30 4427 C 416.977 -1.03992 6.5935 0
M  V30 4428 H 416.247 -0.478741 0.565587 0
M  V30 4429 H 418.894 -0.617697 1.81264 0
M  V30 4430 H 417.199 -3.18109 2.28722 0
M  V30 4431 H 418.896 -3.01642 2.64222 0
M  V30 4432 H 415.486 -2.09393 3.73968 0
M  V30 4433 H 419.67 -1.73174 4.65107 0
M  V30 4434 H 414.926 -1.25915 5.98294 0
M  V30 4435 H 419.1 -0.905739 6.90485 0
M  V30 4436 H 416.727 -0.663794 7.57296 0
M  V30 4437 N 418.302 -1.35869 -0.798587 0
M  V30 4438 C 419.527 -1.32883 -1.59238 0
M  V30 4439 C 419.952 0.0894587 -1.87887 0
M  V30 4440 O 419.31 1.05869 -1.47178 0
M  V30 4441 C 419.358 -2.14892 -2.89575 0
M  V30 4442 O 418.462 -1.53512 -3.82763 0
M  V30 4443 H 417.803 -0.455236 -0.48338 0
M  V30 4444 H 420.333 -1.79024 -0.990539 0
M  V30 4445 H 420.343 -2.27139 -3.38928 0
M  V30 4446 H 419.018 -3.17998 -2.68049 0
M  V30 4447 H 417.595 -1.50153 -3.41334 0
M  V30 4448 N 419.78 1.02168 -1.19998 0
M  V30 4449 C 421.027 1.75685 -1.00702 0
M  V30 4450 C 421.355 1.88947 0.461426 0
M  V30 4451 O 420.61 1.40832 1.35885 0
M  V30 4452 C 420.909 3.18081 -1.62969 0
M  V30 4453 C 420.575 3.24809 -3.12746 0
M  V30 4454 C 419.237 3.26352 -3.53621 0
M  V30 4455 C 421.589 3.23379 -4.08749 0
M  V30 4456 C 418.917 3.2413 -4.89036 0
M  V30 4457 C 421.269 3.22698 -5.44104 0
M  V30 4458 C 419.933 3.22542 -5.84399 0
M  V30 4459 H 419.203 0.642877 -0.368496 0
M  V30 4460 H 421.85 1.19865 -1.49348 0
M  V30 4461 H 420.155 3.77027 -1.06573 0
M  V30 4462 H 421.852 3.73648 -1.45561 0
M  V30 4463 H 418.442 3.2434 -2.80181 0
M  V30 4464 H 422.626 3.21361 -3.78207 0
M  V30 4465 H 417.882 3.22338 -5.19527 0
M  V30 4466 H 422.056 3.20543 -6.18244 0
M  V30 4467 H 419.683 3.20575 -6.89301 0
M  V30 4468 N 421.258 1.00505 1.21394 0
M  V30 4469 C 422.168 0.574806 2.27449 0
M  V30 4470 C 423.184 -0.382206 1.6975 0
M  V30 4471 O 424.36 -0.246027 1.99892 0
M  V30 4472 C 421.425 -0.0917414 3.46579 0
M  V30 4473 C 420.486 0.909758 4.1955 0
M  V30 4474 C 419.719 0.274924 5.32991 0
M  V30 4475 O 419.942 -0.928254 5.62796 0
M  V30 4476 O 418.876 0.985877 5.93771 0
M  V30 4477 H 422.702 1.45744 2.66444 0
M  V30 4478 H 420.287 0.773923 1.27792 0
M  V30 4479 H 422.169 -0.464551 4.18832 0
M  V30 4480 H 420.844 -0.948755 3.09484 0
M  V30 4481 H 419.751 1.33372 3.49518 0
M  V30 4482 H 421.084 1.73636 4.60555 0
M  V30 4483 N 422.737 -1.36956 0.779787 0
M  V30 4484 C 423.983 -1.99787 0.348281 0
M  V30 4485 C 424.316 -1.61756 -1.07465 0
M  V30 4486 O 423.591 -0.867639 -1.74075 0
M  V30 4487 C 423.874 -3.56597 0.50104 0
M  V30 4488 C 423.727 -4.04513 1.96697 0
M  V30 4489 C 425.046 -4.40008 -0.0898097 0
M  V30 4490 H 422.165 -0.725796 0.128022 0
M  V30 4491 H 424.807 -1.62514 0.984331 0
M  V30 4492 H 422.957 -3.88479 -0.0404347 0
M  V30 4493 H 424.629 -3.83161 2.56876 0
M  V30 4494 H 422.872 -3.56408 2.47297 0
M  V30 4495 H 423.543 -5.1352 2.02486 0
M  V30 4496 H 426.019 -4.14431 0.372293 0
M  V30 4497 H 424.895 -5.4888 0.0471605 0
M  V30 4498 H 425.156 -4.26035 -1.18096 0
M  V30 4499 N 424.215 -0.530993 -1.48385 0
M  V30 4500 C 425.44 0.000729535 -2.074 0
M  V30 4501 C 425.865 1.27298 -1.3848 0
M  V30 4502 O 425.223 1.75599 -0.451081 0
M  V30 4503 C 425.271 0.206697 -3.60007 0
M  V30 4504 O 424.375 1.27514 -3.92191 0
M  V30 4505 H 423.716 -0.039583 -0.662819 0
M  V30 4506 H 426.246 -0.739194 -1.9078 0
M  V30 4507 H 426.256 0.42904 -4.05738 0
M  V30 4508 H 424.931 -0.722675 -4.09573 0
M  V30 4509 H 423.508 1.03537 -3.58238 0
M  V30 4510 N 425.693 1.55336 -0.266172 0
M  V30 4511 C 426.918 2.04258 0.359661 0
M  V30 4512 C 427.343 1.14359 1.49344 0
M  V30 4513 O 426.701 0.140369 1.80756 0
M  V30 4514 C 426.749 3.50997 0.826635 0
M  V30 4515 O 425.853 3.64204 1.93466 0
M  V30 4516 H 425.194 0.659668 0.075727 0
M  V30 4517 H 427.724 2.00694 -0.39786 0
M  V30 4518 H 427.734 3.9219 1.12477 0
M  V30 4519 H 426.409 4.159 -0.00293032 0
M  V30 4520 H 424.986 3.34913 1.63974 0
M  V30 4521 N 427.171 -0.0066808 1.57599 0
M  V30 4522 C 428.587 -0.36267 1.55425 0
M  V30 4523 C 428.787 -1.75209 0.995187 0
M  V30 4524 O 427.843 -2.44616 0.626058 0
M  V30 4525 C 429.156 -0.244017 2.99708 0
M  V30 4526 C 430.704 -0.319451 3.11366 0
M  V30 4527 C 431.179 -0.229998 4.57422 0
M  V30 4528 N 432.67 -0.288105 4.62303 0
M  V30 4529 C 433.405 -0.242127 5.72889 0
M  V30 4530 N 432.901 -0.147133 6.92644 0
M  V30 4531 N 434.694 -0.293502 5.61333 0
M  V30 4532 H 426.845 0.902314 1.92281 0
M  V30 4533 H 429.108 0.34525 0.882896 0
M  V30 4534 H 428.814 0.711678 3.44424 0
M  V30 4535 H 428.688 -1.02877 3.629 0
M  V30 4536 H 431.075 -1.26559 2.66584 0
M  V30 4537 H 431.156 0.495055 2.50964 0
M  V30 4538 H 430.8 0.712566 5.02877 0
M  V30 4539 H 430.73 -1.0629 5.15761 0
M  V30 4540 H 433.221 -0.363126 3.76151 0
M  V30 4541 H 433.534 -0.117763 7.7271 0
M  V30 4542 H 431.879 -0.112857 6.94908 0
M  V30 4543 H 435.07 -0.365864 4.66668 0
M  V30 4544 H 435.243 -0.254204 6.47501 0
M  V30 4545 N 428.649 -1.55105 -0.279332 0
M  V30 4546 C 429.579 -1.90557 -1.34945 0
M  V30 4547 C 430.56 -0.766738 -1.51839 0
M  V30 4548 O 431.745 -1.02434 -1.64988 0
M  V30 4549 C 428.875 -2.17193 -2.71006 0
M  V30 4550 C 427.829 -3.33021 -2.68851 0
M  V30 4551 C 427.155 -3.45123 -4.08405 0
M  V30 4552 C 428.455 -4.69578 -2.28678 0
M  V30 4553 H 430.149 -2.80188 -1.05522 0
M  V30 4554 H 427.695 -1.34811 -0.506173 0
M  V30 4555 H 429.648 -2.40581 -3.45975 0
M  V30 4556 H 428.372 -1.24355 -3.01999 0
M  V30 4557 H 427.031 -3.0959 -1.9634 0
M  V30 4558 H 426.679 -2.49762 -4.3661 0
M  V30 4559 H 426.379 -4.22995 -4.07859 0
M  V30 4560 H 427.903 -3.70796 -4.85121 0
M  V30 4561 H 429.317 -4.92553 -2.93368 0
M  V30 4562 H 427.714 -5.5032 -2.39306 0
M  V30 4563 H 428.784 -4.68828 -1.23807 0
M  V30 4564 N 430.127 0.543554 -1.4793 0
M  V30 4565 C 431.057 1.65888 -1.64327 0
M  V30 4566 C 432.038 1.62818 -0.492383 0
M  V30 4567 O 433.223 1.80226 -0.723338 0
M  V30 4568 C 430.353 3.04506 -1.67013 0
M  V30 4569 C 429.307 3.2243 -2.81466 0
M  V30 4570 C 428.633 4.61972 -2.69233 0
M  V30 4571 C 429.933 3.06496 -4.22915 0
M  V30 4572 H 431.627 1.52421 -2.57698 0
M  V30 4573 H 429.173 0.731849 -1.24016 0
M  V30 4574 H 431.126 3.82391 -1.77074 0
M  V30 4575 H 429.85 3.18964 -0.70212 0
M  V30 4576 H 428.509 2.46957 -2.70938 0
M  V30 4577 H 428.157 4.73247 -1.7043 0
M  V30 4578 H 427.857 4.74911 -3.46025 0
M  V30 4579 H 429.381 5.41974 -2.81242 0
M  V30 4580 H 430.795 3.74186 -4.34348 0
M  V30 4581 H 429.192 3.30938 -5.006 0
M  V30 4582 H 430.262 2.03077 -4.40327 0
M  V30 4583 N 431.605 1.3629 0.791371 0
M  V30 4584 C 432.535 1.33137 1.91825 0
M  V30 4585 C 433.516 0.203168 1.68882 0
M  V30 4586 O 434.701 0.400509 1.90025 0
M  V30 4587 C 431.831 1.11793 3.28816 0
M  V30 4588 C 430.785 2.21417 3.66277 0
M  V30 4589 C 430.111 1.85218 5.01596 0
M  V30 4590 C 431.411 3.63489 3.75064 0
M  V30 4591 H 433.105 2.2743 1.9472 0
M  V30 4592 H 430.651 1.09479 0.935437 0
M  V30 4593 H 432.604 1.08222 4.07266 0
M  V30 4594 H 431.328 0.139501 3.26302 0
M  V30 4595 H 429.987 2.2411 2.90121 0
M  V30 4596 H 429.635 0.859544 4.95602 0
M  V30 4597 H 429.335 2.58611 5.27631 0
M  V30 4598 H 430.859 1.832 5.82469 0
M  V30 4599 H 432.273 3.63034 4.43711 0
M  V30 4600 H 430.67 4.35771 4.12582 0
M  V30 4601 H 431.74 3.98536 2.76219 0
M  V30 4602 N 433.083 -1.0153 1.20538 0
M  V30 4603 C 434.046 -2.0826 0.957098 0
M  V30 4604 C 435.046 -1.60657 -0.0678655 0
M  V30 4605 O 436.236 -1.73385 0.168332 0
M  V30 4606 C 433.368 -3.38033 0.441188 0
M  V30 4607 H 434.561 -2.31719 1.90384 0
M  V30 4608 H 432.114 -1.1835 1.02093 0
M  V30 4609 H 432.849 -3.20249 -0.510961 0
M  V30 4610 H 432.634 -3.73911 1.18038 0
M  V30 4611 H 434.124 -4.16613 0.287009 0
M  V30 4612 N 434.561 -1.01147 -1.20859 0
M  V30 4613 C 435.972 -0.730205 -1.71828 0
M  V30 4614 C 436.323 0.751662 -1.8123 0
M  V30 4615 O 435.448 1.58686 -1.47132 0
M  V30 4616 C 436.043 -1.31885 -3.12077 0
M  V30 4617 C 434.602 -1.08656 -3.60376 0
M  V30 4618 C 433.749 -1.42769 -2.37723 0
M  V30 4619 H 436.7 -1.18158 -1.05945 0
M  V30 4620 H 436.721 -0.706793 -3.73878 0
M  V30 4621 H 436.233 -2.39737 -3.05201 0
M  V30 4622 H 434.334 -0.0254814 -3.72591 0
M  V30 4623 H 434.447 -1.76301 -4.45483 0
M  V30 4624 H 432.811 -0.846603 -2.40218 0
M  V30 4625 H 433.594 -2.51666 -2.33493 0
M  V30 4626 N 436.039 1.36541 -0.78704 0
M  V30 4627 C 437.264 2.0409 -0.369053 0
M  V30 4628 C 437.689 1.58957 1.00569 0
M  V30 4629 O 437.047 0.756926 1.64743 0
M  V30 4630 C 437.095 3.57924 -0.438466 0
M  V30 4631 O 436.199 4.08642 0.555479 0
M  V30 4632 H 435.54 0.645142 -0.157122 0
M  V30 4633 H 438.07 1.74545 -1.06749 0
M  V30 4634 H 438.08 4.06887 -0.301218 0
M  V30 4635 H 436.755 3.90127 -1.44132 0
M  V30 4636 H 435.332 3.70958 0.380088 0
M  V30 4637 N 437.518 0.538854 1.48102 0
M  V30 4638 C 438.746 0.0123136 2.06896 0
M  V30 4639 C 439.161 -1.27312 1.39417 0
M  V30 4640 O 438.518 -1.75949 0.484582 0
M  V30 4641 C 438.569 -0.206118 3.60912 0
M  V30 4642 O 438.29 1.0284 4.25859 0
M  V30 4643 C 439.791 -0.772033 4.36526 0
M  V30 4644 H 437.011 0.0375239 0.66995 0
M  V30 4645 H 439.555 0.747032 1.90367 0
M  V30 4646 H 437.71 -0.89091 3.77017 0
M  V30 4647 H 438.124 0.814654 5.18135 0
M  V30 4648 H 439.598 -0.874251 5.45033 0
M  V30 4649 H 440.075 -1.77904 4.01555 0
M  V30 4650 H 440.681 -0.123526 4.25121 0
M  V30 4651 N 438.996 -1.55193 0.274407 0
M  V30 4652 C 440.412 -1.59401 -0.0797543 0
M  V30 4653 C 440.612 -1.29162 -1.54659 0
M  V30 4654 O 439.668 -1.05215 -2.29534 0
M  V30 4655 C 440.981 -2.99257 0.294238 0
M  V30 4656 C 442.529 -3.12072 0.240796 0
M  V30 4657 C 443.004 -4.54194 0.589218 0
M  V30 4658 N 444.495 -4.60033 0.540744 0
M  V30 4659 C 445.23 -5.68027 0.783147 0
M  V30 4660 N 444.726 -6.8417 1.09013 0
M  V30 4661 N 446.519 -5.57572 0.711993 0
M  V30 4662 H 438.67 -1.73113 1.23067 0
M  V30 4663 H 440.933 -0.807197 0.497129 0
M  V30 4664 H 440.639 -3.26217 1.31435 0
M  V30 4665 H 440.513 -3.75427 -0.365281 0
M  V30 4666 H 442.9 -2.84877 -0.770024 0
M  V30 4667 H 442.981 -2.38117 0.934563 0
M  V30 4668 H 442.625 -4.82115 1.59772 0
M  V30 4669 H 442.555 -5.26448 -0.126331 0
M  V30 4670 H 445.046 -3.76599 0.313327 0
M  V30 4671 H 445.359 -7.6243 1.26178 0
M  V30 4672 H 443.704 -6.85787 1.12789 0
M  V30 4673 H 446.895 -4.65714 0.472014 0
M  V30 4674 H 447.068 -6.41659 0.90429 0
M  V30 4675 N 440.474 -0.00167713 -1.576 0
M  V30 4676 C 441.422 1.0074 -2.09652 0
M  V30 4677 C 442.416 1.35483 -1.01689 0
M  V30 4678 O 443.622 1.34028 -1.20152 0
M  V30 4679 H 439.997 0.342537 -0.669457 0
M  V30 4680 H 441.968 0.542841 -2.93421 0
M  V30 4681 C 440.717 2.2899 -2.61647 0
M  V30 4682 H 440.04 2.03124 -3.44355 0
M  V30 4683 H 441.48 2.9787 -3.01744 0
M  V30 4684 C 439.939 3.00085 -1.53136 0
M  V30 4685 O 440.469 3.91135 -0.91524 0
M  V30 4686 N 438.675 2.6194 -1.25841 0
M  V30 4687 H 438.222 1.8798 -1.76129 0
M  V30 4688 H 438.18 3.09822 -0.534576 0
M  V30 4689 N 441.952 1.55251 0.271103 0
M  V30 4690 C 443.199 1.75946 1.00245 0
M  V30 4691 C 443.527 0.561611 1.86215 0
M  V30 4692 O 442.782 -0.455832 1.90317 0
M  V30 4693 C 443.081 3.01879 1.91321 0
M  V30 4694 C 442.747 4.34337 1.21086 0
M  V30 4695 C 441.409 4.70338 1.01666 0
M  V30 4696 C 443.761 5.16325 0.71119 0
M  V30 4697 C 441.089 5.8588 0.310099 0
M  V30 4698 C 443.441 6.32597 0.0182157 0
M  V30 4699 C 442.105 6.67236 -0.18768 0
M  V30 4700 H 441.375 0.643833 0.366824 0
M  V30 4701 H 444.022 1.89521 0.27458 0
M  V30 4702 H 442.327 2.83212 2.70736 0
M  V30 4703 H 444.024 3.15088 2.48033 0
M  V30 4704 H 440.614 4.06043 1.37213 0
M  V30 4705 H 444.798 4.88987 0.848844 0
M  V30 4706 H 440.054 6.1124 0.139873 0
M  V30 4707 H 444.228 6.9538 -0.376711 0
M  V30 4708 H 441.855 7.56618 -0.73715 0
M  V30 4709 N 443.43 -0.535701 1.48216 0
M  V30 4710 C 444.677 -1.29183 1.55942 0
M  V30 4711 C 445.005 -1.93125 0.230857 0
M  V30 4712 O 444.26 -1.79556 -0.778331 0
M  V30 4713 C 444.559 -2.4068 2.64212 0
M  V30 4714 C 444.225 -1.94428 4.06827 0
M  V30 4715 C 442.887 -1.81532 4.45645 0
M  V30 4716 C 445.239 -1.59405 4.96225 0
M  V30 4717 C 442.567 -1.31939 5.71672 0
M  V30 4718 C 444.919 -1.11276 6.22736 0
M  V30 4719 C 443.583 -0.969924 6.60416 0
M  V30 4720 H 442.853 -0.472715 0.570632 0
M  V30 4721 H 445.5 -0.598437 1.81909 0
M  V30 4722 H 443.805 -3.15666 2.32083 0
M  V30 4723 H 445.502 -2.98822 2.67407 0
M  V30 4724 H 442.092 -2.05415 3.76168 0
M  V30 4725 H 446.276 -1.68231 4.66917 0
M  V30 4726 H 441.532 -1.19562 5.99596 0
M  V30 4727 H 445.706 -0.832453 6.91407 0
M  V30 4728 H 443.333 -0.583436 7.57958 0
M  V30 4729 N 444.908 -1.36708 -0.784132 0
M  V30 4730 C 446.148 -1.32618 -1.55537 0
M  V30 4731 C 446.512 0.0920681 -1.91779 0
M  V30 4732 O 447.713 0.257573 -2.67563 0
M  V30 4733 C 445.984 -2.22788 -2.79464 0
M  V30 4734 S 447.543 -2.36432 -3.69656 0
M  V30 4735 H 444.361 -0.470973 -0.53264 0
M  V30 4736 H 446.963 -1.72333 -0.92312 0
M  V30 4737 H 445.667 -3.24774 -2.50899 0
M  V30 4738 H 445.198 -1.84112 -3.47658 0
M  V30 4739 H 447.213 -1.56573 -4.7085 0
M  V30 4740 N 446.386 1.0089 -1.21074 0
M  V30 4741 C 447.336 2.0799 -0.934034 0
M  V30 4742 C 448.32 1.60529 0.10919 0
M  V30 4743 O 449.512 1.76722 -0.0992198 0
M  V30 4744 C 446.641 3.39693 -0.496334 0
M  V30 4745 C 445.727 3.93833 -1.57341 0
M  V30 4746 N 446.118 4.21388 -2.7976 0
M  V30 4747 C 444.416 4.22067 -1.44137 0
M  V30 4748 C 445.117 4.65156 -3.49292 0
M  V30 4749 N 444.093 4.67895 -2.76722 0
M  V30 4750 H 447.895 2.27213 -1.86417 0
M  V30 4751 H 445.409 1.18927 -1.10589 0
M  V30 4752 H 447.406 4.15962 -0.279471 0
M  V30 4753 H 446.066 3.21879 0.427084 0
M  V30 4754 H 447.077 4.10061 -3.1634 0
M  V30 4755 H 443.754 4.1341 -0.582947 0
M  V30 4756 H 445.144 4.95231 -4.54088 0
M  V30 4757 N 447.864 1.01787 1.20321 0
M  V30 4758 C 449.275 0.739307 1.71438 0
M  V30 4759 C 449.626 -0.742041 1.81627 0
M  V30 4760 O 448.751 -1.57903 1.47971 0
M  V30 4761 C 449.346 1.33538 3.11373 0
M  V30 4762 C 447.905 1.10566 3.59795 0
M  V30 4763 C 447.052 1.44028 2.36962 0
M  V30 4764 H 450.003 1.18718 1.05317 0
M  V30 4765 H 450.024 0.726611 3.73498 0
M  V30 4766 H 449.536 2.41352 3.03926 0
M  V30 4767 H 447.637 0.0452405 3.72573 0
M  V30 4768 H 447.75 1.78661 4.44542 0
M  V30 4769 H 446.114 0.85933 2.39766 0
M  V30 4770 H 446.897 2.52901 2.32155 0
M  V30 4771 N 449.342 -1.36122 0.79427 0
M  V30 4772 C 450.272 -2.32551 0.210328 0
M  V30 4773 C 451.253 -1.56884 -0.657386 0
M  V30 4774 O 452.438 -1.85014 -0.590207 0
M  V30 4775 C 449.568 -3.41128 -0.651819 0
M  V30 4776 C 448.522 -4.27842 0.116395 0
M  V30 4777 C 447.848 -5.2763 -0.86666 0
M  V30 4778 C 449.148 -5.05647 1.30837 0
M  V30 4779 H 450.842 -2.81636 1.01594 0
M  V30 4780 H 448.388 -1.35407 0.489981 0
M  V30 4781 H 450.341 -4.07581 -1.07031 0
M  V30 4782 H 449.065 -2.90622 -1.49019 0
M  V30 4783 H 447.724 -3.62952 0.515915 0
M  V30 4784 H 447.372 -4.73395 -1.70019 0
M  V30 4785 H 447.072 -5.86514 -0.35705 0
M  V30 4786 H 448.596 -5.96955 -1.28361 0
M  V30 4787 H 450.01 -5.65113 0.965393 0
M  V30 4788 H 448.407 -5.73967 1.75161 0
M  V30 4789 H 449.477 -4.37006 2.10128 0
M  V30 4790 N 450.82 -0.546701 -1.47814 0
M  V30 4791 C 451.768 0.220048 -2.31557 0
M  V30 4792 C 452.762 0.919472 -1.42275 0
M  V30 4793 O 453.968 0.841953 -1.59095 0
M  V30 4794 H 450.343 0.0898334 -0.746615 0
M  V30 4795 H 452.314 -0.505589 -2.94086 0
M  V30 4796 C 451.063 1.24353 -3.24702 0
M  V30 4797 H 450.386 0.714758 -3.93359 0
M  V30 4798 H 451.826 1.75112 -3.8615 0
M  V30 4799 C 450.285 2.28593 -2.47481 0
M  V30 4800 O 450.815 3.35334 -2.21165 0
M  V30 4801 N 449.021 2.02244 -2.08676 0
M  V30 4802 H 448.568 1.15455 -2.30278 0
M  V30 4803 H 448.526 2.72207 -1.57323 0
M  V30 4804 N 452.299 1.55045 -0.282633 0
M  V30 4805 C 453.229 2.2579 0.595066 0
M  V30 4806 C 454.21 1.25074 1.15284 0
M  V30 4807 O 455.395 1.5381 1.18559 0
M  V30 4808 C 452.525 2.98472 1.77572 0
M  V30 4809 C 451.479 4.0618 1.34914 0
M  V30 4810 C 450.805 4.66477 2.6135 0
M  V30 4811 C 452.105 5.1996 0.493821 0
M  V30 4812 H 453.799 2.994 0.00505653 0
M  V30 4813 H 451.345 1.44 0.000992001 0
M  V30 4814 H 453.298 3.46677 2.39568 0
M  V30 4815 H 452.022 2.2241 2.39168 0
M  V30 4816 H 450.681 3.58797 0.752338 0
M  V30 4817 H 450.329 3.87074 3.2122 0
M  V30 4818 H 450.029 5.39207 2.33516 0
M  V30 4819 H 451.553 5.17435 3.24181 0
M  V30 4820 H 452.967 5.64172 1.01898 0
M  V30 4821 H 451.364 5.99299 0.310047 0
M  V30 4822 H 452.434 4.82462 -0.485593 0
M  V30 4823 N 453.777 0.010035 1.57597 0
M  V30 4824 C 455.026 -0.671945 1.90178 0
M  V30 4825 C 455.339 -1.74376 0.886131 0
M  V30 4826 O 456.545 -2.48107 1.10252 0
M  V30 4827 C 455.001 -1.24636 3.3763 0
M  V30 4828 C 454.609 -0.208838 4.47513 0
M  V30 4829 C 456.353 -1.90595 3.79307 0
M  V30 4830 C 454.26 -0.793814 5.86048 0
M  V30 4831 H 453.19 -0.25474 0.709665 0
M  V30 4832 H 455.841 0.0722206 1.83358 0
M  V30 4833 H 454.223 -2.04152 3.3932 0
M  V30 4834 H 455.397 0.562463 4.57354 0
M  V30 4835 H 453.712 0.350889 4.14919 0
M  V30 4836 H 456.309 -2.35284 4.80151 0
M  V30 4837 H 456.652 -2.74074 3.13352 0
M  V30 4838 H 457.185 -1.17798 3.79958 0
M  V30 4839 H 453.924 0.00240855 6.555 0
M  V30 4840 H 453.444 -1.53404 5.79851 0
M  V30 4841 H 455.123 -1.2894 6.34022 0
M  V30 4842 N 455.255 -1.55392 -0.262866 0
M  V30 4843 C 456.532 -1.67204 -1.01499 0
M  V30 4844 C 456.912 -0.545186 -2.03939 0
M  V30 4845 O 456.26 0.453467 -2.23955 0
M  V30 4846 C 456.47 -3.06847 -1.6627 0
M  V30 4847 C 457.818 -3.64928 -2.17054 0
M  V30 4848 O 458.842 -3.09545 -1.76239 0
M  V30 4849 O 457.701 -4.61984 -2.91947 0
M  V30 4850 H 454.795 -0.679467 -0.471438 0
M  V30 4851 H 457.341 -1.67729 -0.257918 0
M  V30 4852 H 456.113 -3.80309 -0.920915 0
M  V30 4853 H 455.736 -3.10266 -2.48638 0
M  V30 4854 N 456.733 0.527833 -1.48498 0
M  V30 4855 C 457.982 1.28003 -1.55878 0
M  V30 4856 C 458.295 1.9414 -0.238577 0
M  V30 4857 O 459.501 2.7083 -0.190643 0
M  V30 4858 C 457.957 2.32272 -2.74914 0
M  V30 4859 C 457.565 1.72196 -4.13585 0
M  V30 4860 C 459.309 3.08488 -2.91608 0
M  V30 4861 C 457.216 2.74417 -5.23879 0
M  V30 4862 H 456.146 0.481413 -0.580308 0
M  V30 4863 H 458.797 0.557195 -1.74836 0
M  V30 4864 H 457.179 3.07601 -2.49395 0
M  V30 4865 H 458.353 1.03041 -4.49132 0
M  V30 4866 H 456.668 1.08464 -4.02025 0
M  V30 4867 H 459.265 3.84879 -3.71177 0
M  V30 4868 H 459.608 3.64481 -2.01145 0
M  V30 4869 H 460.141 2.40274 -3.17038 0
M  V30 4870 H 456.88 2.23242 -6.16314 0
M  V30 4871 H 456.4 3.41893 -4.92818 0
M  V30 4872 H 458.079 3.37362 -5.52083 0
M  V30 4873 N 458.211 1.37122 0.776871 0
M  V30 4874 C 459.457 1.32243 1.53752 0
M  V30 4875 C 459.79 -0.0944745 1.9397 0
M  V30 4876 O 459.065 -1.05068 1.6368 0
M  V30 4877 C 459.348 2.25681 2.80607 0
M  V30 4878 C 459.201 3.76127 2.46676 0
M  V30 4879 C 460.52 2.17657 3.82509 0
M  V30 4880 H 457.639 0.481704 0.557791 0
M  V30 4881 H 460.281 1.6778 0.891612 0
M  V30 4882 H 458.431 1.95505 3.35723 0
M  V30 4883 H 460.103 4.16877 1.97513 0
M  V30 4884 H 458.346 3.94946 1.79443 0
M  V30 4885 H 459.017 4.36933 3.37333 0
M  V30 4886 H 461.493 2.44245 3.36873 0
M  V30 4887 H 460.369 2.85185 4.69 0
M  V30 4888 H 460.63 1.16785 4.26396 0
M  V30 4889 N 459.689 -1.00246 1.21608 0
M  V30 4890 C 460.914 -1.78167 1.06167 0
M  V30 4891 C 461.339 -1.84138 -0.384035 0
M  V30 4892 O 460.697 -1.28683 -1.27712 0
M  V30 4893 C 460.745 -3.19786 1.66642 0
M  V30 4894 O 459.849 -4.02153 0.913613 0
M  V30 4895 H 459.19 -0.549 0.37349 0
M  V30 4896 H 461.72 -1.25994 1.61204 0
M  V30 4897 H 461.73 -3.70451 1.70969 0
M  V30 4898 H 460.405 -3.14754 2.7185 0
M  V30 4899 H 458.982 -3.60711 0.945635 0
M  V30 4900 N 461.167 -1.02423 -1.1978 0
M  V30 4901 C 462.413 -0.719051 -1.89625 0
M  V30 4902 C 462.746 0.750083 -1.7913 0
M  V30 4903 O 462.021 1.54574 -1.18056 0
M  V30 4904 C 462.304 -1.16499 -3.40735 0
M  V30 4905 C 462.157 -2.695 -3.60125 0
M  V30 4906 C 463.476 -0.742166 -4.33797 0
M  V30 4907 H 460.595 -0.26269 -0.688595 0
M  V30 4908 H 463.237 -1.27333 -1.41018 0
M  V30 4909 H 461.387 -0.69341 -3.82262 0
M  V30 4910 H 463.059 -3.24569 -3.278 0
M  V30 4911 H 461.302 -3.10113 -3.03336 0
M  V30 4912 H 461.973 -2.95757 -4.66081 0
M  V30 4913 H 464.449 -1.1477 -3.99959 0
M  V30 4914 H 463.325 -1.08213 -5.38127 0
M  V30 4915 H 463.586 0.355747 -4.40666 0
M  V30 4916 N 462.645 1.35699 -0.801477 0
M  V30 4917 C 463.575 2.32436 -0.222658 0
M  V30 4918 C 464.556 1.5723 0.649057 0
M  V30 4919 O 465.741 1.85324 0.580387 0
M  V30 4920 C 462.871 3.41469 0.633719 0
M  V30 4921 C 461.825 4.27774 -0.139083 0
M  V30 4922 C 461.151 5.28082 0.838666 0
M  V30 4923 C 462.451 5.04946 -1.33517 0
M  V30 4924 H 464.145 2.81094 -1.03086 0
M  V30 4925 H 461.691 1.35146 -0.497155 0
M  V30 4926 H 463.644 4.08143 1.04868 0
M  V30 4927 H 462.368 2.91408 1.47475 0
M  V30 4928 H 461.027 3.62673 -0.535156 0
M  V30 4929 H 460.675 4.7429 1.67506 0
M  V30 4930 H 460.375 5.86695 0.32594 0
M  V30 4931 H 461.899 5.97628 1.25194 0
M  V30 4932 H 463.313 5.64593 -0.995349 0
M  V30 4933 H 461.71 5.7303 -1.78202 0
M  V30 4934 H 462.78 4.35886 -2.12442 0
M  V30 4935 N 464.123 0.554532 1.47522 0
M  V30 4936 C 465.534 0.120446 1.86311 0
M  V30 4937 C 465.885 -1.30904 1.46145 0
M  V30 4938 O 465.01 -1.98434 0.863294 0
M  V30 4939 C 465.605 0.211808 3.38137 0
M  V30 4940 C 464.164 -0.167224 3.76028 0
M  V30 4941 C 463.311 0.560576 2.71575 0
M  V30 4942 H 466.262 0.764408 1.39077 0
M  V30 4943 H 466.283 -0.570275 3.76202 0
M  V30 4944 H 465.795 1.25232 3.6734 0
M  V30 4945 H 463.896 -1.20894 3.52442 0
M  V30 4946 H 464.009 0.189473 4.78725 0
M  V30 4947 H 462.373 0.00396836 2.547 0
M  V30 4948 H 463.156 1.60219 3.0362 0
M  V30 4949 N 465.601 -1.54893 0.290851 0
M  V30 4950 C 466.848 -1.99933 -0.321391 0
M  V30 4951 C 467.176 -1.17927 -1.54672 0
M  V30 4952 O 466.431 -0.240902 -1.94212 0
M  V30 4953 C 466.73 -3.49815 -0.732397 0
M  V30 4954 C 466.396 -4.4921 0.390056 0
M  V30 4955 C 465.058 -4.76107 0.698223 0
M  V30 4956 C 467.41 -5.08453 1.14562 0
M  V30 4957 C 464.738 -5.59514 1.76526 0
M  V30 4958 C 467.09 -5.9302 2.2025 0
M  V30 4959 C 465.754 -6.18232 2.51684 0
M  V30 4960 H 465.024 -0.731608 -0.117605 0
M  V30 4961 H 467.671 -1.87107 0.407839 0
M  V30 4962 H 465.976 -3.60199 -1.54155 0
M  V30 4963 H 467.673 -3.82083 -1.21712 0
M  V30 4964 H 464.263 -4.28372 0.13976 0
M  V30 4965 H 468.447 -4.87683 0.920801 0
M  V30 4966 H 463.703 -5.77289 2.01364 0
M  V30 4967 H 467.877 -6.37955 2.7926 0
M  V30 4968 H 465.504 -6.82653 3.34499 0
M  V30 4969 N 467.08 -0.0183926 -1.57589 0
M  V30 4970 C 468.31 0.67207 -1.95363 0
M  V30 4971 C 468.718 1.66807 -0.892872 0
M  V30 4972 O 468.061 1.83204 0.134958 0
M  V30 4973 C 468.123 1.44397 -3.29226 0
M  V30 4974 C 467.787 0.607511 -4.52944 0
M  V30 4975 C 468.784 -0.112657 -5.19778 0
M  V30 4976 C 466.469 0.548068 -4.99301 0
M  V30 4977 C 468.463 -0.881057 -6.31281 0
M  V30 4978 C 466.15 -0.224044 -6.10689 0
M  V30 4979 C 467.148 -0.937323 -6.76538 0
M  V30 4980 O 466.836 -1.6968 -7.85789 0
M  V30 4981 H 466.568 0.190925 -0.648478 0
M  V30 4982 H 469.122 -0.0711994 -2.05277 0
M  V30 4983 H 467.352 2.23214 -3.15773 0
M  V30 4984 H 469.041 2.02152 -3.51979 0
M  V30 4985 H 469.807 -0.0759998 -4.8494 0
M  V30 4986 H 465.686 1.09281 -4.4786 0
M  V30 4987 H 469.23 -1.43832 -6.82611 0
M  V30 4988 H 465.127 -0.262457 -6.44966 0
M  V30 4989 H 465.895 -1.61544 -8.024 0
M  V30 4990 N 468.558 1.5553 0.254621 0
M  V30 4991 C 469.488 1.9268 1.31897 0
M  V30 4992 C 470.469 0.790797 1.506 0
M  V30 4993 O 471.654 1.05045 1.63337 0
M  V30 4994 C 468.784 2.21477 2.67517 0
M  V30 4995 C 467.738 3.37256 2.63519 0
M  V30 4996 C 467.064 3.51576 4.02862 0
M  V30 4997 C 468.364 4.73157 2.21179 0
M  V30 4998 H 470.058 2.81832 1.01051 0
M  V30 4999 H 467.604 1.35599 0.484662 0
M  V30 5000 H 469.557 2.46055 3.42104 0
M  V30 5001 H 468.281 1.29144 2.99982 0
M  V30 5002 H 466.94 3.12675 1.9139 0
M  V30 5003 H 466.588 2.56676 4.32581 0
M  V30 5004 H 466.288 4.2943 4.01078 0
M  V30 5005 H 467.812 3.78467 4.79161 0
M  V30 5006 H 469.226 4.97158 2.85494 0
M  V30 5007 H 467.623 5.54058 2.30521 0
M  V30 5008 H 468.693 4.70739 1.16332 0
M  V30 5009 N 470.036 -0.519951 1.48776 0
M  V30 5010 C 471.264 -1.29971 1.60982 0
M  V30 5011 C 471.679 -1.86803 0.273885 0
M  V30 5012 O 471.036 -1.66904 -0.738193 0
M  V30 5013 C 471.087 -2.44346 2.66415 0
M  V30 5014 O 470.808 -1.89855 3.94825 0
M  V30 5015 C 472.309 -3.36014 2.89153 0
M  V30 5016 H 469.529 -0.394891 0.542496 0
M  V30 5017 H 472.073 -0.626214 1.94676 0
M  V30 5018 H 470.228 -3.07562 2.35552 0
M  V30 5019 H 470.642 -2.64798 4.5275 0
M  V30 5020 H 472.116 -4.12593 3.66703 0
M  V30 5021 H 472.593 -3.91859 1.98351 0
M  V30 5022 H 473.199 -2.78582 3.21359 0
M  V30 5023 N 471.514 -1.37532 -0.769588 0
M  V30 5024 C 472.444 -1.36172 -1.89682 0
M  V30 5025 C 473.425 -0.23001 -1.68538 0
M  V30 5026 O 474.61 -0.43069 -1.89364 0
M  V30 5027 C 471.74 -1.1701 -3.26995 0
M  V30 5028 C 470.694 -2.27216 -3.62708 0
M  V30 5029 C 470.02 -1.93174 -4.98586 0
M  V30 5030 C 471.32 -3.6941 -3.69234 0
M  V30 5031 H 473.014 -2.30499 -1.91078 0
M  V30 5032 H 470.56 -1.10953 -0.917902 0
M  V30 5033 H 472.513 -1.14688 -4.05493 0
M  V30 5034 H 471.237 -0.191395 -3.26039 0
M  V30 5035 H 469.896 -2.28697 -2.86519 0
M  V30 5036 H 469.544 -0.938281 -4.94171 0
M  V30 5037 H 469.244 -2.66973 -5.23449 0
M  V30 5038 H 470.768 -1.92443 -5.79481 0
M  V30 5039 H 472.182 -3.70047 -4.37879 0
M  V30 5040 H 470.579 -4.4228 -4.05597 0
M  V30 5041 H 471.649 -4.0288 -2.69844 0
M  V30 5042 N 472.992 0.995999 -1.22138 0
M  V30 5043 C 473.922 2.10387 -1.01289 0
M  V30 5044 C 474.903 1.69975 0.0651454 0
M  V30 5045 O 476.088 1.9396 -0.0964628 0
M  V30 5046 C 473.218 3.42312 -0.586517 0
M  V30 5047 C 472.172 3.96558 -1.61014 0
M  V30 5048 C 471.498 5.24494 -1.0397 0
M  V30 5049 C 472.798 4.27595 -2.99933 0
M  V30 5050 H 474.492 2.28086 -1.93951 0
M  V30 5051 H 472.038 1.09607 -0.933928 0
M  V30 5052 H 473.991 4.19223 -0.427793 0
M  V30 5053 H 472.715 3.24431 0.375761 0
M  V30 5054 H 471.374 3.21776 -1.75658 0
M  V30 5055 H 471.022 5.02953 -0.0688703 0
M  V30 5056 H 470.722 5.61755 -1.72352 0
M  V30 5057 H 472.246 6.04042 -0.892494 0
M  V30 5058 H 473.66 4.95315 -2.8868 0
M  V30 5059 H 472.057 4.76021 -3.6541 0
M  V30 5060 H 473.127 3.35498 -3.50099 0
M  V30 5061 N 474.47 1.03057 1.19235 0
M  V30 5062 C 475.433 0.617418 2.20727 0
M  V30 5063 C 476.433 -0.319856 1.57587 0
M  V30 5064 O 477.623 -0.106633 1.73873 0
M  V30 5065 C 474.755 -0.096296 3.40764 0
M  V30 5066 H 475.948 1.51544 2.58794 0
M  V30 5067 H 473.501 0.821949 1.32942 0
M  V30 5068 H 474.236 -1.00859 3.08217 0
M  V30 5069 H 474.021 0.577217 3.87828 0
M  V30 5070 H 475.511 -0.372219 4.15938 0
M  V30 5071 N 475.948 -1.35272 0.808662 0
M  V30 5072 C 477.196 -1.98316 0.389233 0
M  V30 5073 C 477.517 -1.64465 -1.04767 0
M  V30 5074 O 476.787 -0.928175 -1.72516 0
M  V30 5075 H 475.367 -0.733585 0.140935 0
M  V30 5076 H 478.029 -1.6515 1.03496 0
M  V30 5077 H 477.125 -3.08123 0.496631 0
M  V30 5078 N 477.426 -0.562348 -1.47226 0
M  V30 5079 C 478.672 -0.0402761 -2.0276 0
M  V30 5080 C 479.005 1.30823 -1.43523 0
M  V30 5081 O 478.28 1.85249 -0.592705 0
M  V30 5082 C 478.563 0.047311 -3.60069 0
M  V30 5083 C 478.416 -1.32865 -4.29729 0
M  V30 5084 C 479.735 0.758182 -4.3352 0
M  V30 5085 H 476.854 -0.0161105 -0.736824 0
M  V30 5086 H 479.496 -0.725628 -1.75598 0
M  V30 5087 H 477.646 0.630986 -3.83342 0
M  V30 5088 H 479.318 -1.95593 -4.17781 0
M  V30 5089 H 477.561 -1.90195 -3.89882 0
M  V30 5090 H 478.232 -1.22004 -5.38349 0
M  V30 5091 H 480.708 0.262546 -4.15271 0
M  V30 5092 H 479.584 0.78844 -5.43208 0
M  V30 5093 H 479.845 1.81537 -4.03109 0
M  V30 5094 N 478.904 1.54736 -0.299062 0
M  V30 5095 C 479.867 2.22127 0.565012 0
M  V30 5096 C 480.867 1.20669 1.06281 0
M  V30 5097 O 482.057 1.45417 0.959145 0
M  V30 5098 C 479.189 2.90611 1.78208 0
M  V30 5099 H 480.382 2.99891 -0.0237448 0
M  V30 5100 H 477.935 1.5622 -0.0498788 0
M  V30 5101 H 478.67 2.16921 2.41072 0
M  V30 5102 H 478.455 3.64984 1.43281 0
M  V30 5103 H 479.945 3.42026 2.396 0
M  V30 5104 N 480.382 0.0267497 1.57577 0
M  V30 5105 C 481.312 -0.954308 2.13108 0
M  V30 5106 C 482.293 -1.34088 1.04663 0
M  V30 5107 O 483.478 -1.41992 1.32484 0
M  V30 5108 C 480.608 -2.23744 2.65624 0
M  V30 5109 C 479.562 -1.99168 3.78835 0
M  V30 5110 C 478.888 -3.33726 4.17769 0
M  V30 5111 C 480.188 -1.33277 5.0501 0
M  V30 5112 H 481.882 -0.491848 2.95332 0
M  V30 5113 H 479.428 -0.23514 1.42067 0
M  V30 5114 H 481.381 -2.92754 3.03106 0
M  V30 5115 H 480.105 -2.72151 1.80558 0
M  V30 5116 H 478.764 -1.32577 3.41788 0
M  V30 5117 H 478.412 -3.79888 3.29688 0
M  V30 5118 H 478.112 -3.18089 4.94058 0
M  V30 5119 H 479.636 -4.04008 4.57832 0
M  V30 5120 H 481.05 -1.92283 5.40093 0
M  V30 5121 H 479.447 -1.28045 5.8628 0
M  V30 5122 H 480.517 -0.305411 4.83937 0
M  V30 5123 N 481.861 -1.55662 -0.24637 0
M  V30 5124 C 483.109 -1.77168 -0.972411 0
M  V30 5125 C 483.43 -0.590827 -1.85834 0
M  V30 5126 O 482.7 0.393365 -1.9191 0
M  V30 5127 H 481.28 -0.653405 -0.362038 0
M  V30 5128 H 483.942 -1.93101 -0.264189 0
M  V30 5129 H 483.038 -2.68335 -1.59382 0
M  V30 5130 N 483.339 0.512053 -1.4905 0
M  V30 5131 C 484.616 1.27337 -1.48474 0
M  V30 5132 C 484.996 2.1009 -0.206301 0
M  V30 5133 O 484.344 2.136 0.811609 0
M  V30 5134 C 484.554 2.13954 -2.75726 0
M  V30 5135 C 485.902 2.73507 -3.24776 0
M  V30 5136 O 486.926 2.24229 -2.76767 0
M  V30 5137 O 485.785 3.63186 -4.08361 0
M  V30 5138 H 482.879 0.575652 -0.593762 0
M  V30 5139 H 485.425 0.527232 -1.61302 0
M  V30 5140 H 484.197 1.52709 -3.60272 0
M  V30 5141 H 483.82 2.95782 -2.65705 0
M  V30 5142 N 484.817 1.37938 0.762283 0
M  V30 5143 C 485.749 1.30349 1.88525 0
M  V30 5144 C 486.762 0.217402 1.61342 0
M  V30 5145 O 487.951 0.474291 1.72084 0
M  V30 5146 C 485.051 0.994844 3.23969 0
M  V30 5147 C 484.224 2.18829 3.78725 0
M  V30 5148 C 483.283 1.84844 4.92665 0
M  V30 5149 O 482.309 2.57244 5.07754 0
M  V30 5150 N 483.511 0.798201 5.74986 0
M  V30 5151 H 486.276 2.27114 1.95549 0
M  V30 5152 H 483.837 1.31686 0.941825 0
M  V30 5153 H 485.829 0.748168 3.97724 0
M  V30 5154 H 484.399 0.115446 3.12387 0
M  V30 5155 H 483.619 2.59615 2.96637 0
M  V30 5156 H 484.907 2.98497 4.1204 0
M  V30 5157 H 484.305 0.197611 5.65355 0
M  V30 5158 H 482.862 0.611396 6.48926 0
M  V30 5159 N 486.295 -0.989507 1.22664 0
M  V30 5160 C 487.543 -1.72612 1.05117 0
M  V30 5161 C 487.864 -1.90552 -0.414131 0
M  V30 5162 O 487.134 -1.4676 -1.29762 0
M  V30 5163 H 485.714 -0.639555 0.385977 0
M  V30 5164 H 488.376 -1.19158 1.54232 0
M  V30 5165 H 487.472 -2.71926 1.53175 0
M  V30 5166 N 487.773 -1.03688 -1.18687 0
M  V30 5167 C 489.021 -0.736572 -1.88199 0
M  V30 5168 C 489.342 0.737665 -1.80509 0
M  V30 5169 O 488.612 1.53204 -1.22088 0
M  V30 5170 H 487.192 -0.269466 -0.696704 0
M  V30 5171 H 489.854 -1.31282 -1.44052 0
M  V30 5172 H 488.95 -1.03802 -2.94332 0
M  V30 5173 N 489.251 1.34841 -0.815825 0
M  V30 5174 C 490.198 2.29644 -0.230664 0
M  V30 5175 C 491.168 1.53253 0.640533 0
M  V30 5176 O 492.353 1.81653 0.583672 0
M  V30 5177 C 489.493 3.39715 0.607275 0
M  V30 5178 C 488.606 4.31056 -0.28538 0
M  V30 5179 C 487.741 5.28225 0.561446 0
M  V30 5180 C 486.78 6.11204 -0.331035 0
M  V30 5181 N 485.917 7.00483 0.476302 0
M  V30 5182 H 490.757 2.79095 -1.0445 0
M  V30 5183 H 488.294 1.37351 -0.526595 0
M  V30 5184 H 490.252 4.02208 1.10835 0
M  V30 5185 H 488.882 2.91517 1.38629 0
M  V30 5186 H 487.934 3.69487 -0.904621 0
M  V30 5187 H 489.246 4.89239 -0.97193 0
M  V30 5188 H 488.4 5.96135 1.12728 0
M  V30 5189 H 487.139 4.70562 1.28153 0
M  V30 5190 H 486.144 5.42232 -0.909069 0
M  V30 5191 H 487.369 6.70947 -1.04912 0
M  V30 5192 H 485.315 6.45296 1.18019 0
M  V30 5193 H 485.232 7.55847 -0.152008 0
M  V30 5194 H 486.5 7.7273 1.02512 0
M  V30 5195 N 490.729 0.570148 1.46925 0
M  V30 5196 C 491.639 -0.173061 2.33961 0
M  V30 5197 C 492.655 -0.898825 1.48987 0
M  V30 5198 O 493.831 -0.864825 1.81887 0
M  V30 5199 C 490.896 -1.18177 3.25937 0
M  V30 5200 C 489.957 -0.462041 4.26806 0
M  V30 5201 C 489.19 -1.4227 5.14388 0
M  V30 5202 O 489.413 -2.65842 5.04662 0
M  V30 5203 O 488.347 -0.940127 5.94513 0
M  V30 5204 H 492.173 0.541216 2.98839 0
M  V30 5205 H 489.758 0.330647 1.45695 0
M  V30 5206 H 491.64 -1.76372 3.82715 0
M  V30 5207 H 490.315 -1.87774 2.63671 0
M  V30 5208 H 489.222 0.161429 3.73752 0
M  V30 5209 H 490.555 0.192719 4.91823 0
M  V30 5210 N 492.207 -1.54576 0.307264 0
M  V30 5211 C 493.454 -2.00263 -0.300167 0
M  V30 5212 C 493.782 -1.19561 -1.53413 0
M  V30 5213 O 493.037 -0.261487 -1.93945 0
M  V30 5214 C 493.336 -3.50572 -0.695253 0
M  V30 5215 C 493.002 -4.48771 0.437679 0
M  V30 5216 C 491.664 -4.7534 0.748681 0
M  V30 5217 C 494.016 -5.0721 1.19949 0
M  V30 5218 C 491.344 -5.5761 1.8245 0
M  V30 5219 C 493.696 -5.90651 2.26527 0
M  V30 5220 C 492.36 -6.15528 2.58227 0
M  V30 5221 H 491.63 -0.732814 -0.109839 0
M  V30 5222 H 494.277 -1.86664 0.427661 0
M  V30 5223 H 492.582 -3.61814 -1.50326 0
M  V30 5224 H 494.279 -3.83352 -1.17653 0
M  V30 5225 H 490.869 -4.282 0.185187 0
M  V30 5226 H 495.053 -4.86679 0.972474 0
M  V30 5227 H 490.309 -5.75121 2.07476 0
M  V30 5228 H 494.483 -6.34957 2.86011 0
M  V30 5229 H 492.11 -6.79066 3.4172 0
M  V30 5230 N 493.685 -0.035106 -1.57561 0
M  V30 5231 C 494.933 0.64096 -1.91667 0
M  V30 5232 C 495.254 1.72323 -0.912681 0
M  V30 5233 O 494.524 1.95849 0.0449089 0
M  V30 5234 H 493.104 0.239743 -0.707483 0
M  V30 5235 H 495.766 -0.084321 -1.94718 0
M  V30 5236 H 494.862 1.08987 -2.92452 0
M  V30 5237 N 495.163 1.55791 0.238111 0
M  V30 5238 C 496.113 1.87444 1.29803 0
M  V30 5239 C 497.097 0.736043 1.43078 0
M  V30 5240 O 498.289 0.998146 1.46171 0
M  V30 5241 C 495.418 2.18028 2.65177 0
M  V30 5242 C 494.504 3.38217 2.55871 0
M  V30 5243 N 494.895 4.57264 2.16202 0
M  V30 5244 C 493.193 3.41502 2.86866 0
M  V30 5245 C 493.894 5.3941 2.17744 0
M  V30 5246 N 492.87 4.78695 2.57589 0
M  V30 5247 H 496.672 2.7701 0.981965 0
M  V30 5248 H 494.186 1.56135 0.44672 0
M  V30 5249 H 496.183 2.38873 3.4168 0
M  V30 5250 H 494.843 1.29765 2.97643 0
M  V30 5251 H 495.854 4.82727 1.87602 0
M  V30 5252 H 492.531 2.63536 3.23813 0
M  V30 5253 H 493.921 6.44671 1.89339 0
M  V30 5254 N 496.642 -0.504142 1.49319 0
M  V30 5255 C 497.572 -1.61473 1.68667 0
M  V30 5256 C 498.553 -1.61455 0.535378 0
M  V30 5257 O 499.738 -1.78245 0.770868 0
M  V30 5258 C 496.868 -2.99971 1.75028 0
M  V30 5259 C 495.822 -3.14854 2.89916 0
M  V30 5260 C 495.148 -4.54671 2.81387 0
M  V30 5261 C 496.448 -2.95176 4.30893 0
M  V30 5262 H 498.142 -1.45535 2.61648 0
M  V30 5263 H 495.688 -0.698711 1.25913 0
M  V30 5264 H 497.641 -3.77562 1.8715 0
M  V30 5265 H 496.365 -3.1699 0.786441 0
M  V30 5266 H 495.024 -2.39687 2.77391 0
M  V30 5267 H 494.672 -4.68562 1.82917 0
M  V30 5268 H 494.372 -4.6557 3.58494 0
M  V30 5269 H 495.896 -5.34327 2.95512 0
M  V30 5270 H 497.31 -3.62538 4.44116 0
M  V30 5271 H 495.707 -3.17549 5.09198 0
M  V30 5272 H 496.777 -1.91332 4.45556 0
M  V30 5273 N 498.12 -1.38341 -0.754957 0
M  V30 5274 C 499.368 -1.34208 -1.51105 0
M  V30 5275 C 499.689 0.0677634 -1.94882 0
M  V30 5276 O 498.959 1.01517 -1.67544 0
M  V30 5277 H 497.539 -0.493819 -0.560493 0
M  V30 5278 H 500.201 -1.73005 -0.897507 0
M  V30 5279 H 499.297 -1.99203 -2.4026 0
M  V30 5280 N 499.598 0.982988 -1.23187 0
M  V30 5281 C 500.545 2.07491 -1.01075 0
M  V30 5282 C 501.515 1.65949 0.070905 0
M  V30 5283 O 502.7 1.90629 -0.0806822 0
M  V30 5284 C 499.84 3.39751 -0.605261 0
M  V30 5285 C 498.953 3.94578 -1.75876 0
M  V30 5286 C 498.088 5.15039 -1.3003 0
M  V30 5287 C 497.127 5.62027 -2.42472 0
M  V30 5288 N 496.264 6.73719 -1.97602 0
M  V30 5289 H 501.104 2.25739 -1.9454 0
M  V30 5290 H 498.641 1.10659 -0.969179 0
M  V30 5291 H 500.599 4.15719 -0.351279 0
M  V30 5292 H 499.229 3.21473 0.292382 0
M  V30 5293 H 498.281 3.1539 -2.12681 0
M  V30 5294 H 499.593 4.25422 -2.60418 0
M  V30 5295 H 498.747 5.9833 -1.00429 0
M  V30 5296 H 497.486 4.85843 -0.425216 0
M  V30 5297 H 496.491 4.77318 -2.7285 0
M  V30 5298 H 497.716 5.93244 -3.30512 0
M  V30 5299 H 495.662 6.46287 -1.1247 0
M  V30 5300 H 495.579 7.03934 -2.75705 0
M  V30 5301 H 496.847 7.6049 -1.71098 0
M  V30 5302 N 501.076 1.04316 1.18135 0
M  V30 5303 C 502.322 0.749128 1.88457 0
M  V30 5304 C 502.655 -0.72149 1.803 0
M  V30 5305 O 501.93 -1.52676 1.205 0
M  V30 5306 C 502.213 1.21905 3.38838 0
M  V30 5307 C 502.066 2.75195 3.55792 0
M  V30 5308 C 503.385 0.811085 4.32561 0
M  V30 5309 H 500.504 0.273611 0.684329 0
M  V30 5310 H 503.146 1.29561 1.38975 0
M  V30 5311 H 501.296 0.754137 3.8111 0
M  V30 5312 H 502.968 3.29743 3.22595 0
M  V30 5313 H 501.211 3.14899 2.98364 0
M  V30 5314 H 501.882 3.03135 4.61317 0
M  V30 5315 H 504.358 1.21118 3.98082 0
M  V30 5316 H 503.234 1.16761 5.36338 0
M  V30 5317 H 503.495 -0.285596 4.41177 0
M  V30 5318 N 502.554 -1.34406 0.822964 0
M  V30 5319 C 503.8 -1.98578 0.411666 0
M  V30 5320 C 504.133 -1.65093 -1.02264 0
M  V30 5321 O 503.408 -0.92258 -1.71227 0
M  V30 5322 C 503.691 -3.54823 0.614235 0
M  V30 5323 C 503.544 -3.9805 2.09466 0
M  V30 5324 C 504.863 -4.40071 0.050221 0
M  V30 5325 H 501.982 -0.721355 0.151047 0
M  V30 5326 H 504.624 -1.59301 1.03554 0
M  V30 5327 H 502.774 -3.88411 0.0831774 0
M  V30 5328 H 504.446 -3.74795 2.68936 0
M  V30 5329 H 502.689 -3.4836 2.5851 0
M  V30 5330 H 503.36 -5.06819 2.18721 0
M  V30 5331 H 505.836 -4.13037 0.503953 0
M  V30 5332 H 504.712 -5.48452 0.221759 0
M  V30 5333 H 504.973 -4.29576 -1.04482 0
M  V30 5334 N 504.032 -0.577932 -1.46621 0
M  V30 5335 C 504.964 0.195801 -2.28362 0
M  V30 5336 C 505.977 0.859983 -1.38232 0
M  V30 5337 O 507.166 0.730349 -1.62875 0
M  V30 5338 C 504.266 1.29639 -3.13124 0
M  V30 5339 C 503.439 0.725049 -4.31349 0
M  V30 5340 C 502.498 1.71274 -4.97546 0
M  V30 5341 O 501.524 1.25067 -5.5529 0
M  V30 5342 N 502.726 3.04672 -4.94121 0
M  V30 5343 H 505.491 -0.505468 -2.95407 0
M  V30 5344 H 503.052 -0.415381 -1.56481 0
M  V30 5345 H 505.044 1.95631 -3.54275 0
M  V30 5346 H 503.614 1.90059 -2.48186 0
M  V30 5347 H 502.834 -0.112205 -3.9404 0
M  V30 5348 H 504.122 0.323034 -5.07774 0
M  V30 5349 H 503.52 3.4484 -4.48444 0
M  V30 5350 H 502.077 3.66166 -5.39227 0
M  V30 5351 N 505.51 1.54411 -0.315457 0
M  V30 5352 C 506.756 2.00716 0.289972 0
M  V30 5353 C 507.089 1.2034 1.5242 0
M  V30 5354 O 506.364 0.283579 1.92422 0
M  V30 5355 C 506.647 3.54507 0.632196 0
M  V30 5356 C 506.5 4.45615 -0.61218 0
M  V30 5357 C 507.819 4.15421 1.45305 0
M  V30 5358 H 504.938 0.729637 0.10392 0
M  V30 5359 H 507.58 1.8506 -0.430427 0
M  V30 5360 H 505.73 3.67979 1.24595 0
M  V30 5361 H 507.402 4.44026 -1.25053 0
M  V30 5362 H 505.645 4.15621 -1.24264 0
M  V30 5363 H 506.316 5.51022 -0.328379 0
M  V30 5364 H 508.792 4.05474 0.934331 0
M  V30 5365 H 507.668 5.23157 1.66127 0
M  V30 5366 H 507.929 3.68223 2.44671 0
M  V30 5367 N 506.988 0.0434614 1.5754 0
M  V30 5368 C 508.235 -0.632035 1.92384 0
M  V30 5369 C 508.563 -1.71304 0.921157 0
M  V30 5370 O 507.818 -1.95583 -0.067744 0
M  V30 5371 C 508.117 -1.2738 3.3393 0
M  V30 5372 C 507.783 -0.321757 4.49751 0
M  V30 5373 C 506.445 -0.0597611 4.81163 0
M  V30 5374 C 508.797 0.331158 5.20147 0
M  V30 5375 C 506.125 0.862715 5.80322 0
M  V30 5376 C 508.477 1.24178 6.20292 0
M  V30 5377 C 507.141 1.51252 6.50138 0
M  V30 5378 H 506.411 -0.231278 0.703983 0
M  V30 5379 H 509.058 0.108294 1.91194 0
M  V30 5380 H 507.363 -2.08921 3.3145 0
M  V30 5381 H 509.06 -1.80326 3.58167 0
M  V30 5382 H 505.65 -0.53614 4.25233 0
M  V30 5383 H 509.834 0.141826 4.96097 0
M  V30 5384 H 505.09 1.08003 6.01785 0
M  V30 5385 H 509.264 1.75381 6.73954 0
M  V30 5386 H 506.891 2.22897 7.26788 0
M  V30 5387 N 508.466 -1.55915 -0.229846 0
M  V30 5388 C 509.882 -1.48721 -0.579166 0
M  V30 5389 C 510.082 -0.736976 -1.87539 0
M  V30 5390 O 509.138 -0.273258 -2.51017 0
M  V30 5391 C 510.451 -2.9323 -0.666082 0
M  V30 5392 C 511.999 -3.03701 -0.757267 0
M  V30 5393 C 512.474 -4.49552 -0.8756 0
M  V30 5394 N 513.965 -4.53561 -0.940035 0
M  V30 5395 C 514.7 -5.63683 -1.05116 0
M  V30 5396 N 514.196 -6.83576 -1.12675 0
M  V30 5397 N 515.989 -5.51516 -1.08565 0
M  V30 5398 H 508.14 -2.03123 0.620857 0
M  V30 5399 H 510.403 -0.922898 0.21671 0
M  V30 5400 H 510.109 -3.51032 0.21664 0
M  V30 5401 H 509.983 -3.44668 -1.53243 0
M  V30 5402 H 512.37 -2.45969 -1.63043 0
M  V30 5403 H 512.451 -2.55446 0.134583 0
M  V30 5404 H 512.095 -5.079 -0.00692351 0
M  V30 5405 H 512.025 -4.95506 -1.78274 0
M  V30 5406 H 514.516 -3.67215 -0.892269 0
M  V30 5407 H 514.829 -7.63251 -1.21109 0
M  V30 5408 H 513.174 -6.86303 -1.09603 0
M  V30 5409 H 516.365 -4.5678 -1.02319 0
M  V30 5410 H 516.538 -6.37372 -1.1688 0
M  V30 5411 N 509.944 0.496216 -1.49584 0
M  V30 5412 C 510.874 1.60576 -1.69521 0
M  V30 5413 C 511.855 1.61169 -0.543933 0
M  V30 5414 O 513.04 1.77834 -0.78031 0
M  V30 5415 C 510.17 2.99038 -1.76616 0
M  V30 5416 C 509.124 3.13312 -2.91581 0
M  V30 5417 C 508.45 4.53172 -2.83794 0
M  V30 5418 C 509.75 2.92886 -4.32452 0
M  V30 5419 H 511.444 1.44146 -2.62416 0
M  V30 5420 H 508.99 0.692024 -1.26282 0
M  V30 5421 H 510.943 3.76564 -1.8915 0
M  V30 5422 H 509.667 3.16568 -0.80324 0
M  V30 5423 H 508.326 2.38213 -2.78658 0
M  V30 5424 H 507.974 4.67585 -1.854 0
M  V30 5425 H 507.674 4.63662 -3.60958 0
M  V30 5426 H 509.198 5.32752 -2.98342 0
M  V30 5427 H 510.612 3.60178 -4.46032 0
M  V30 5428 H 509.009 3.14844 -5.10875 0
M  V30 5429 H 510.079 1.88966 -4.46565 0
M  V30 5430 N 511.423 1.38739 0.74761 0
M  V30 5431 C 512.356 1.3083 1.86972 0
M  V30 5432 C 513.334 0.184229 1.61553 0
M  V30 5433 O 514.518 0.36256 1.8498 0
M  V30 5434 C 511.645 1.02854 3.22705 0
M  V30 5435 C 510.691 2.17281 3.67003 0
M  V30 5436 S 511.524 3.79468 3.77842 0
M  V30 5437 C 512.68 3.53692 5.16385 0
M  V30 5438 H 512.913 2.258 1.93395 0
M  V30 5439 H 510.446 1.24646 0.911199 0
M  V30 5440 H 512.404 0.87397 4.01089 0
M  V30 5441 H 511.065 0.0959295 3.13953 0
M  V30 5442 H 510.258 1.93267 4.65472 0
M  V30 5443 H 509.86 2.28876 2.9579 0
M  V30 5444 H 512.152 3.10176 6.02327 0
M  V30 5445 H 513.095 4.51576 5.45422 0
M  V30 5446 H 513.503 2.8807 4.85464 0
M  V30 5447 N 512.901 -0.976442 1.23707 0
M  V30 5448 C 514.317 -1.24341 1.00058 0
M  V30 5449 C 514.517 -1.99315 -0.295932 0
M  V30 5450 O 513.573 -2.3123 -1.01435 0
M  V30 5451 C 514.886 -2.03909 2.21001 0
M  V30 5452 C 516.434 -2.17034 2.25534 0
M  V30 5453 C 516.909 -2.99994 3.46075 0
M  V30 5454 N 518.4 -3.07578 3.46338 0
M  V30 5455 C 519.135 -3.72104 4.36264 0
M  V30 5456 N 518.631 -4.3842 5.36432 0
M  V30 5457 N 520.424 -3.69029 4.23998 0
M  V30 5458 H 512.575 -0.47428 2.07037 0
M  V30 5459 H 514.838 -0.272167 0.908091 0
M  V30 5460 H 514.544 -1.56198 3.15111 0
M  V30 5461 H 514.418 -3.04654 2.22409 0
M  V30 5462 H 516.805 -2.63951 1.31961 0
M  V30 5463 H 516.886 -1.15664 2.28156 0
M  V30 5464 H 516.53 -2.53772 4.39957 0
M  V30 5465 H 516.46 -4.01541 3.40694 0
M  V30 5466 H 518.951 -2.60397 2.73865 0
M  V30 5467 H 519.264 -4.85447 6.013 0
M  V30 5468 H 517.609 -4.37116 5.40328 0
M  V30 5469 H 520.8 -3.16392 3.44984 0
M  V30 5470 H 520.973 -4.19034 4.94282 0
M  V30 5471 N 514.379 -1.04941 -1.1758 0
M  V30 5472 C 515.628 -0.753124 -1.87112 0
M  V30 5473 C 515.941 0.722507 -1.81767 0
M  V30 5474 O 517.147 1.13265 -2.46746 0
M  V30 5475 C 515.603 -1.29695 -3.35719 0
M  V30 5476 C 515.211 -2.80184 -3.49572 0
M  V30 5477 C 516.955 -1.07759 -4.10595 0
M  V30 5478 C 514.862 -3.2788 -4.92187 0
M  V30 5479 H 513.792 -0.278034 -0.700866 0
M  V30 5480 H 516.443 -1.26637 -1.32798 0
M  V30 5481 H 514.825 -0.711522 -3.89555 0
M  V30 5482 H 515.999 -3.44561 -3.05965 0
M  V30 5483 H 514.314 -3.00632 -2.88113 0
M  V30 5484 H 516.911 -1.40899 -5.15802 0
M  V30 5485 H 517.254 -0.0152302 -4.16297 0
M  V30 5486 H 517.787 -1.62809 -3.62957 0
M  V30 5487 H 514.526 -4.33535 -4.91658 0
M  V30 5488 H 514.046 -2.68245 -5.36475 0
M  V30 5489 H 515.725 -3.22412 -5.60945 0
M  V30 5490 N 515.857 1.33968 -0.830081 0
M  V30 5491 C 517.104 1.98063 -0.421566 0
M  V30 5492 C 517.432 1.65787 1.0171 0
M  V30 5493 O 516.687 0.925348 1.72441 0
M  V30 5494 C 516.986 3.52679 -0.57898 0
M  V30 5495 C 516.652 4.04884 -1.98443 0
M  V30 5496 C 515.314 4.18852 -2.36888 0
M  V30 5497 C 517.666 4.32879 -2.90285 0
M  V30 5498 C 514.994 4.58145 -3.66497 0
M  V30 5499 C 517.346 4.7362 -4.19364 0
M  V30 5500 C 516.01 4.85794 -4.57778 0
M  V30 5501 H 515.28 0.724765 -0.154262 0
M  V30 5502 H 517.927 1.59792 -1.05541 0
M  V30 5503 H 516.232 3.91556 0.138219 0
M  V30 5504 H 517.929 4.00261 -0.243317 0
M  V30 5505 H 514.519 3.9448 -1.67581 0
M  V30 5506 H 518.703 4.21619 -2.61823 0
M  V30 5507 H 513.959 4.65762 -3.96075 0
M  V30 5508 H 518.133 4.9424 -4.90612 0
M  V30 5509 H 515.76 5.15998 -5.58256 0
M  V30 5510 N 517.335 0.585699 1.46312 0
M  V30 5511 C 518.751 0.247607 1.57668 0
M  V30 5512 C 518.951 -1.25007 1.58037 0
M  V30 5513 O 518.007 -2.03196 1.49893 0
M  V30 5514 C 519.32 0.899456 2.86933 0
M  V30 5515 C 520.868 0.873326 3.00569 0
M  V30 5516 C 521.343 1.50477 4.32574 0
M  V30 5517 N 522.834 1.46925 4.3928 0
M  V30 5518 C 523.569 1.92719 5.40044 0
M  V30 5519 N 523.065 2.46499 6.47464 0
M  V30 5520 N 524.858 1.83617 5.31264 0
M  V30 5521 H 517.009 1.55841 1.44317 0
M  V30 5522 H 519.272 0.651564 0.688599 0
M  V30 5523 H 518.978 1.95313 2.92482 0
M  V30 5524 H 518.852 0.409476 3.74971 0
M  V30 5525 H 521.239 -0.171736 2.946 0
M  V30 5526 H 521.32 1.40136 2.13999 0
M  V30 5527 H 520.964 2.54905 4.39302 0
M  V30 5528 H 520.894 0.951944 5.17924 0
M  V30 5529 H 523.385 1.07616 3.62253 0
M  V30 5530 H 523.698 2.79291 7.20567 0
M  V30 5531 H 522.043 2.50526 6.48276 0
M  V30 5532 H 525.234 1.41358 4.46246 0
M  V30 5533 H 525.407 2.19622 6.09648 0
M  V30 5534 N 518.813 -1.54241 0.323641 0
M  V30 5535 C 520.059 -2.00867 -0.279323 0
M  V30 5536 C 520.392 -1.21146 -1.5178 0
M  V30 5537 O 519.667 -0.29378 -1.92269 0
M  V30 5538 C 519.95 -3.54837 -0.613387 0
M  V30 5539 C 519.803 -4.45284 0.635803 0
M  V30 5540 C 521.122 -4.16186 -1.43099 0
M  V30 5541 H 518.241 -0.730177 -0.100049 0
M  V30 5542 H 520.883 -1.84829 0.440235 0
M  V30 5543 H 519.033 -3.68634 -1.22641 0
M  V30 5544 H 520.705 -4.43357 1.27406 0
M  V30 5545 H 518.948 -4.14956 1.26466 0
M  V30 5546 H 519.619 -5.5084 0.357597 0
M  V30 5547 H 522.095 -4.05964 -0.912814 0
M  V30 5548 H 520.971 -5.24031 -1.6335 0
M  V30 5549 H 521.232 -3.69516 -2.42715 0
M  V30 5550 N 520.291 -0.0518155 -1.57515 0
M  V30 5551 C 521.221 0.920283 -2.146 0
M  V30 5552 C 522.202 1.32406 -1.06783 0
M  V30 5553 O 523.387 1.39866 -1.34726 0
M  V30 5554 C 520.517 2.1949 -2.6915 0
M  V30 5555 C 519.471 1.93116 -3.81956 0
M  V30 5556 C 518.797 3.27037 -4.23026 0
M  V30 5557 C 520.097 1.25225 -5.07066 0
M  V30 5558 H 521.791 0.444801 -2.96077 0
M  V30 5559 H 519.337 0.212508 -1.42423 0
M  V30 5560 H 521.29 2.87894 -3.07725 0
M  V30 5561 H 520.014 2.69244 -1.84865 0
M  V30 5562 H 518.673 1.27123 -3.43854 0
M  V30 5563 H 518.321 3.74595 -3.3569 0
M  V30 5564 H 518.021 3.10189 -4.99056 0
M  V30 5565 H 519.545 3.96673 -4.64202 0
M  V30 5566 H 520.959 1.83666 -5.43083 0
M  V30 5567 H 519.356 1.18702 -5.88243 0
M  V30 5568 H 520.426 0.228382 -4.84362 0
M  V30 5569 N 521.769 1.56035 0.221574 0
M  V30 5570 C 522.716 1.92413 1.27459 0
M  V30 5571 C 523.686 0.781323 1.46576 0
M  V30 5572 O 524.871 1.03721 1.60145 0
M  V30 5573 C 522.011 2.24617 2.61995 0
M  V30 5574 C 521.124 3.51831 2.50677 0
M  V30 5575 C 520.259 3.73482 3.77736 0
M  V30 5576 C 519.298 4.94211 3.6114 0
M  V30 5577 N 518.435 5.12252 4.80148 0
M  V30 5578 H 523.275 2.82203 0.957355 0
M  V30 5579 H 520.812 1.39676 0.461415 0
M  V30 5580 H 522.77 2.41298 3.40339 0
M  V30 5581 H 521.4 1.38 2.91815 0
M  V30 5582 H 520.452 3.43343 1.63767 0
M  V30 5583 H 521.764 4.40328 2.34334 0
M  V30 5584 H 520.918 3.9026 4.64523 0
M  V30 5585 H 519.657 2.83266 3.97003 0
M  V30 5586 H 518.662 4.77384 2.72736 0
M  V30 5587 H 519.887 5.85912 3.43343 0
M  V30 5588 H 517.833 4.24978 4.99729 0
M  V30 5589 H 517.75 5.94881 4.66532 0
M  V30 5590 H 519.018 5.33465 5.68362 0
M  V30 5591 N 523.247 -0.488276 1.49845 0
M  V30 5592 C 524.177 -1.59675 1.70371 0
M  V30 5593 C 525.158 -1.60878 0.552473 0
M  V30 5594 O 526.343 -1.77417 0.78973 0
M  V30 5595 C 523.473 -2.98098 1.782 0
M  V30 5596 C 522.427 -3.11761 2.93239 0
M  V30 5597 C 521.753 -4.51661 2.86193 0
M  V30 5598 C 523.053 -2.90589 4.33999 0
M  V30 5599 H 524.747 -1.42752 2.63177 0
M  V30 5600 H 522.293 -0.685317 1.26647 0
M  V30 5601 H 524.246 -3.75555 1.91144 0
M  V30 5602 H 522.97 -3.16138 0.820018 0
M  V30 5603 H 521.629 -2.36732 2.79917 0
M  V30 5604 H 521.277 -4.66595 1.87877 0
M  V30 5605 H 520.977 -4.61742 3.63412 0
M  V30 5606 H 522.501 -5.31162 3.01163 0
M  V30 5607 H 523.915 -3.57807 4.47936 0
M  V30 5608 H 522.312 -3.1213 5.12538 0
M  V30 5609 H 523.382 -1.86595 4.4756 0
M  V30 5610 N 524.725 -1.39134 -0.740242 0
M  V30 5611 C 525.688 -1.37217 -1.83587 0
M  V30 5612 C 526.688 -0.270221 -1.58513 0
M  V30 5613 O 527.878 -0.527843 -1.6601 0
M  V30 5614 C 525.01 -1.13959 -3.21288 0
M  V30 5615 H 526.203 -2.34705 -1.86691 0
M  V30 5616 H 523.756 -1.24622 -0.94335 0
M  V30 5617 H 524.491 -0.17131 -3.23847 0
M  V30 5618 H 524.276 -1.93754 -3.40884 0
M  V30 5619 H 525.766 -1.15346 -4.01354 0
M  V30 5620 N 526.204 0.969867 -1.24223 0
M  V30 5621 C 527.62 1.23809 -1.00716 0
M  V30 5622 C 527.82 1.99469 0.285358 0
M  V30 5623 O 526.876 2.31764 1.00207 0
M  V30 5624 C 528.189 2.02734 -2.2208 0
M  V30 5625 C 529.737 2.15834 -2.26681 0
M  V30 5626 C 530.212 2.98154 -3.47661 0
M  V30 5627 N 531.703 3.05737 -3.47964 0
M  V30 5628 C 532.438 3.69785 -4.38231 0
M  V30 5629 N 531.934 4.35569 -5.3875 0
M  V30 5630 N 533.727 3.66775 -4.25949 0
M  V30 5631 H 525.878 0.463294 -2.07286 0
M  V30 5632 H 528.141 0.267348 -0.909521 0
M  V30 5633 H 527.847 1.54524 -3.15935 0
M  V30 5634 H 527.721 3.0347 -2.24021 0
M  V30 5635 H 530.108 2.63248 -1.33359 0
M  V30 5636 H 530.189 1.14453 -2.28767 0
M  V30 5637 H 529.833 2.51435 -4.41297 0
M  V30 5638 H 529.763 3.99729 -3.42818 0
M  V30 5639 H 532.254 2.58941 -2.75242 0
M  V30 5640 H 532.567 4.82251 -6.03866 0
M  V30 5641 H 530.912 4.34244 -5.42639 0
M  V30 5642 H 534.103 3.14558 -3.46657 0
M  V30 5643 H 534.276 4.16407 -4.96497 0
M  V30 5644 N 527.682 1.05563 1.17022 0
M  V30 5645 C 528.632 0.630007 2.19123 0
M  V30 5646 C 529.616 -0.335472 1.57364 0
M  V30 5647 O 530.808 -0.1521 1.76345 0
M  V30 5648 C 527.937 0.0101676 3.43298 0
M  V30 5649 C 527.023 0.999698 4.12149 0
M  V30 5650 N 527.414 2.17251 4.56766 0
M  V30 5651 C 525.712 0.829 4.38228 0
M  V30 5652 C 526.413 2.79883 5.09942 0
M  V30 5653 N 525.389 2.07656 5.02374 0
M  V30 5654 H 529.191 1.52353 2.51328 0
M  V30 5655 H 526.705 0.926288 1.33393 0
M  V30 5656 H 528.702 -0.312541 4.15727 0
M  V30 5657 H 527.362 -0.878707 3.12584 0
M  V30 5658 H 528.373 2.55067 4.50734 0
M  V30 5659 H 525.05 -0.00850974 4.17499 0
M  V30 5660 H 526.44 3.79362 5.54558 0
M  V30 5661 N 529.16 -1.33526 0.837174 0
M  V30 5662 C 530.385 -2.0258 0.444545 0
M  V30 5663 C 530.81 -1.6258 -0.946006 0
M  V30 5664 O 530.168 -0.817548 -1.6182 0
M  V30 5665 C 530.216 -3.5605 0.571006 0
M  V30 5666 O 529.32 -4.10422 -0.403431 0
M  V30 5667 H 528.661 -0.638866 0.180958 0
M  V30 5668 H 531.191 -1.70462 1.13154 0
M  V30 5669 H 531.201 -4.05488 0.452024 0
M  V30 5670 H 529.876 -3.84509 1.58512 0
M  V30 5671 H 528.453 -3.72113 -0.242147 0
M  V30 5672 N 530.638 -0.59345 -1.46 0
M  V30 5673 C 531.866 -0.0890934 -2.06708 0
M  V30 5674 C 532.281 1.2205 -1.44046 0
M  V30 5675 O 531.638 1.74029 -0.549551 0
M  V30 5676 C 531.689 0.0720263 -3.61428 0
M  V30 5677 O 531.41 -1.18574 -4.21748 0
M  V30 5678 C 532.911 0.609487 -4.3909 0
M  V30 5679 H 530.131 -0.0623628 -0.668096 0
M  V30 5680 H 532.675 -0.817171 -1.87464 0
M  V30 5681 H 530.83 0.750369 -3.80063 0
M  V30 5682 H 531.244 -1.0064 -5.14754 0
M  V30 5683 H 532.718 0.671363 -5.47902 0
M  V30 5684 H 533.195 1.62878 -4.07882 0
M  V30 5685 H 533.801 -0.03434 -4.25286 0
M  V30 5686 N 532.116 1.54067 -0.331816 0
M  V30 5687 C 533.364 2.00319 0.267739 0
M  V30 5688 C 533.685 1.22148 1.52003 0
M  V30 5689 O 532.955 0.325494 1.93177 0
M  V30 5690 H 531.535 0.740014 0.101922 0
M  V30 5691 H 534.197 1.89628 -0.450267 0
M  V30 5692 H 533.293 3.07765 0.518385 0
M  V30 5693 N 533.594 0.0601682 1.57485 0
M  V30 5694 C 534.524 -0.90889 2.15085 0
M  V30 5695 C 535.505 -1.31838 1.07484 0
M  V30 5696 O 536.69 -1.3915 1.35466 0
M  V30 5697 C 533.82 -2.18059 2.7031 0
M  V30 5698 C 532.774 -1.91088 3.82974 0
M  V30 5699 C 532.1 -3.24789 4.24754 0
M  V30 5700 C 533.4 -1.22535 5.07723 0
M  V30 5701 H 535.094 -0.429093 2.96309 0
M  V30 5702 H 532.64 -0.204952 1.42534 0
M  V30 5703 H 534.593 -2.86258 3.09248 0
M  V30 5704 H 533.317 -2.6826 1.8629 0
M  V30 5705 H 531.976 -1.25297 3.44523 0
M  V30 5706 H 531.624 -3.72809 3.37672 0
M  V30 5707 H 531.324 -3.07538 5.00694 0
M  V30 5708 H 532.848 -3.94205 4.66299 0
M  V30 5709 H 534.262 -1.80783 5.4405 0
M  V30 5710 H 532.659 -1.1558 5.88864 0
M  V30 5711 H 533.729 -0.202692 4.84476 0
M  V30 5712 N 535.072 -1.5615 -0.213296 0
M  V30 5713 C 536.488 -1.49327 -0.56336 0
M  V30 5714 C 536.688 -0.756826 -1.86747 0
M  V30 5715 O 535.744 -0.299866 -2.50713 0
M  V30 5716 C 537.057 -2.9392 -0.634944 0
M  V30 5717 C 538.605 -3.04487 -0.725013 0
M  V30 5718 C 539.08 -4.50456 -0.82787 0
M  V30 5719 N 540.571 -4.54533 -0.891876 0
M  V30 5720 C 541.306 -5.64766 -0.991315 0
M  V30 5721 N 540.802 -6.84733 -1.05419 0
M  V30 5722 N 542.595 -5.52637 -1.02709 0
M  V30 5723 H 534.746 -2.02453 0.642366 0
M  V30 5724 H 537.009 -0.920548 0.226487 0
M  V30 5725 H 536.715 -3.50783 0.253859 0
M  V30 5726 H 536.589 -3.46274 -1.49579 0
M  V30 5727 H 538.976 -2.47685 -1.60425 0
M  V30 5728 H 539.057 -2.55289 0.161669 0
M  V30 5729 H 538.701 -5.07878 0.0469464 0
M  V30 5730 H 538.631 -4.97369 -1.73009 0
M  V30 5731 H 541.122 -3.68141 -0.85327 0
M  V30 5732 H 541.435 -7.64493 -1.13007 0
M  V30 5733 H 539.78 -6.87427 -1.02318 0
M  V30 5734 H 542.971 -4.5784 -0.974687 0
M  V30 5735 H 543.144 -6.38576 -1.10113 0
M  V30 5736 N 536.55 0.480323 -1.50102 0
M  V30 5737 C 537.775 1.26126 -1.64642 0
M  V30 5738 C 538.2 1.85257 -0.325823 0
M  V30 5739 O 537.558 1.66854 0.709194 0
M  V30 5740 C 537.606 2.35243 -2.73301 0
M  V30 5741 O 536.71 3.39646 -2.33911 0
M  V30 5742 H 536.051 0.371463 -0.550374 0
M  V30 5743 H 538.581 0.572696 -1.96421 0
M  V30 5744 H 538.591 2.80695 -2.96098 0
M  V30 5745 H 537.266 1.91574 -3.6915 0
M  V30 5746 H 535.843 2.99969 -2.21525 0
M  V30 5747 N 538.028 1.39524 0.732853 0
M  V30 5748 C 538.958 1.41153 1.86005 0
M  V30 5749 C 539.939 0.274614 1.67869 0
M  V30 5750 O 541.124 0.480745 1.88155 0
M  V30 5751 C 538.254 1.25638 3.23778 0
M  V30 5752 C 537.208 2.36752 3.56556 0
M  V30 5753 C 536.534 2.06326 4.93289 0
M  V30 5754 C 537.834 3.79069 3.5931 0
M  V30 5755 H 539.528 2.35484 1.84899 0
M  V30 5756 H 537.074 1.13348 0.888162 0
M  V30 5757 H 539.027 1.25398 4.0231 0
M  V30 5758 H 537.751 0.277772 3.25417 0
M  V30 5759 H 536.41 2.36213 2.80355 0
M  V30 5760 H 536.058 1.06897 4.9151 0
M  V30 5761 H 535.758 2.80757 5.16187 0
M  V30 5762 H 537.282 2.07739 5.74175 0
M  V30 5763 H 538.696 3.81526 4.27914 0
M  V30 5764 H 537.093 4.52878 3.93728 0
M  V30 5765 H 538.163 4.09893 2.59068 0
M  V30 5766 N 539.506 -0.963266 1.24736 0
M  V30 5767 C 540.754 -1.70343 1.08755 0
M  V30 5768 C 541.075 -1.91387 -0.373619 0
M  V30 5769 O 540.345 -1.4948 -1.2662 0
M  V30 5770 H 538.925 -0.631224 0.399456 0
M  V30 5771 H 541.587 -1.15859 1.56725 0
M  V30 5772 H 540.683 -2.68616 1.58909 0
M  V30 5773 N 540.985 -1.06182 -1.16461 0
M  V30 5774 C 541.948 -0.675723 -2.19013 0
M  V30 5775 C 542.948 0.277963 -1.58379 0
M  V30 5776 O 544.138 0.0604962 -1.74095 0
M  V30 5777 C 541.27 0.00591459 -3.40899 0
M  V30 5778 H 542.463 -1.58353 -2.54685 0
M  V30 5779 H 540.016 -0.856908 -1.30716 0
M  V30 5780 H 540.751 0.92652 -3.10783 0
M  V30 5781 H 540.536 -0.67984 -3.86161 0
M  V30 5782 H 542.026 0.26181 -4.16778 0
M  V30 5783 N 542.463 1.3308 -0.844243 0
M  V30 5784 C 543.691 2.01808 -0.456203 0
M  V30 5785 C 544.106 1.63498 0.944131 0
M  V30 5786 O 543.463 0.85102 1.61443 0
M  V30 5787 C 543.514 3.56922 -0.573513 0
M  V30 5788 O 543.235 3.93851 -1.91868 0
M  V30 5789 C 544.736 4.42922 -0.183125 0
M  V30 5790 H 541.956 0.646273 -0.180477 0
M  V30 5791 H 544.5 1.69891 -1.1383 0
M  V30 5792 H 542.655 3.87352 0.0607367 0
M  V30 5793 H 543.069 4.88564 -1.90802 0
M  V30 5794 H 544.543 5.51093 -0.316241 0
M  V30 5795 H 545.02 4.30386 0.875477 0
M  V30 5796 H 545.626 4.1786 -0.792027 0
M  V30 5797 N 543.941 0.601185 1.45683 0
M  V30 5798 C 544.871 -0.108824 2.33246 0
M  V30 5799 C 545.852 -0.865223 1.46451 0
M  V30 5800 O 547.037 -0.83704 1.75235 0
M  V30 5801 C 544.167 -1.11101 3.2905 0
M  V30 5802 C 543.121 -0.468244 4.25431 0
M  V30 5803 C 542.447 -1.57822 5.10878 0
M  V30 5804 C 543.747 0.606469 5.18767 0
M  V30 5805 H 545.441 0.622306 2.92861 0
M  V30 5806 H 542.987 0.300714 1.40825 0
M  V30 5807 H 544.94 -1.61622 3.89174 0
M  V30 5808 H 543.664 -1.87265 2.67581 0
M  V30 5809 H 542.323 0.0160484 3.66596 0
M  V30 5810 H 541.971 -2.32998 4.45781 0
M  V30 5811 H 541.671 -1.15369 5.76163 0
M  V30 5812 H 543.195 -2.08583 5.73869 0
M  V30 5813 H 544.609 0.185589 5.73 0
M  V30 5814 H 543.006 0.952381 5.92494 0
M  V30 5815 H 544.076 1.48559 4.61582 0
M  V30 5816 N 545.419 -1.53889 0.339982 0
M  V30 5817 C 546.366 -2.24902 -0.518452 0
M  V30 5818 C 547.336 -1.24593 -1.09844 0
M  V30 5819 O 548.521 -1.53317 -1.13572 0
M  V30 5820 C 545.661 -3.02262 -1.66529 0
M  V30 5821 C 544.774 -4.17418 -1.11295 0
M  V30 5822 C 543.909 -4.82273 -2.2268 0
M  V30 5823 C 542.948 -5.89503 -1.6478 0
M  V30 5824 N 542.085 -6.48153 -2.69893 0
M  V30 5825 H 546.925 -2.97853 0.0936579 0
M  V30 5826 H 544.462 -1.46986 0.0579924 0
M  V30 5827 H 546.42 -3.45371 -2.3404 0
M  V30 5828 H 545.05 -2.31614 -2.24844 0
M  V30 5829 H 544.102 -3.78976 -0.328886 0
M  V30 5830 H 545.414 -4.94554 -0.649414 0
M  V30 5831 H 544.568 -5.28435 -2.98063 0
M  V30 5832 H 543.307 -4.04552 -2.72376 0
M  V30 5833 H 542.312 -5.42728 -0.879004 0
M  V30 5834 H 543.537 -6.6913 -1.1594 0
M  V30 5835 H 541.483 -5.73298 -3.1885 0
M  V30 5836 H 541.4 -7.20752 -2.28151 0
M  V30 5837 H 542.668 -6.98968 -3.45056 0
M  V30 5838 N 546.897 -0.0685191 -1.57451 0
M  V30 5839 C 547.847 0.909895 -2.09057 0
M  V30 5840 C 548.831 1.26088 -0.999528 0
M  V30 5841 O 550.023 1.24041 -1.26265 0
M  V30 5842 C 547.152 2.17863 -2.65312 0
M  V30 5843 C 546.238 1.85427 -3.81415 0
M  V30 5844 N 546.629 1.23426 -4.9051 0
M  V30 5845 C 544.927 2.15196 -3.90649 0
M  V30 5846 C 545.628 1.09008 -5.71395 0
M  V30 5847 N 544.604 1.59871 -5.1956 0
M  V30 5848 H 548.406 0.426145 -2.90794 0
M  V30 5849 H 545.92 0.135462 -1.61834 0
M  V30 5850 H 547.917 2.88872 -3.00597 0
M  V30 5851 H 546.577 2.66829 -1.85021 0
M  V30 5852 H 547.588 0.904305 -5.09944 0
M  V30 5853 H 544.265 2.66562 -3.21327 0
M  V30 5854 H 545.655 0.607305 -6.6915 0
M  V30 5855 N 548.375 1.56261 0.205012 0
M  V30 5856 C 549.6 1.84491 0.947512 0
M  V30 5857 C 550.025 0.650894 1.76479 0
M  V30 5858 O 549.383 -0.40035 1.76824 0
M  V30 5859 C 549.431 3.10863 1.82747 0
M  V30 5860 O 548.535 2.90719 2.925 0
M  V30 5861 H 547.876 0.607783 0.267386 0
M  V30 5862 H 550.406 2.03485 0.213323 0
M  V30 5863 H 550.416 3.41399 2.23407 0
M  V30 5864 H 549.091 3.97392 1.2269 0
M  V30 5865 H 547.668 2.71457 2.55667 0
M  V30 5866 N 549.853 -0.472356 1.50355 0
M  V30 5867 C 551.083 -1.24603 1.64796 0
M  V30 5868 C 551.491 -1.86297 0.330156 0
M  V30 5869 O 550.834 -1.69934 -0.697728 0
M  V30 5870 C 550.896 -2.39578 2.68035 0
M  V30 5871 C 550.56 -1.98531 4.11624 0
M  V30 5872 C 551.557 -1.50856 4.97532 0
M  V30 5873 C 549.242 -2.0729 4.57532 0
M  V30 5874 C 551.236 -1.12481 6.27397 0
M  V30 5875 C 548.923 -1.68527 5.87403 0
M  V30 5876 C 549.921 -1.212 6.7216 0
M  V30 5877 O 549.609 -0.829728 7.99607 0
M  V30 5878 H 549.341 -0.383035 0.55701 0
M  V30 5879 H 551.895 -0.570392 1.97321 0
M  V30 5880 H 550.125 -3.10309 2.30749 0
M  V30 5881 H 551.814 -3.01544 2.71709 0
M  V30 5882 H 552.58 -1.43511 4.63281 0
M  V30 5883 H 548.459 -2.43076 3.91708 0
M  V30 5884 H 552.003 -0.754698 6.93506 0
M  V30 5885 H 547.9 -1.7553 6.21176 0
M  V30 5886 H 548.668 -0.958689 8.12866 0
M  V30 5887 N 551.331 -1.39911 -0.725443 0
M  V30 5888 C 552.747 -1.21725 -1.03224 0
M  V30 5889 C 552.947 -0.0855224 -2.01318 0
M  V30 5890 O 552.003 0.55976 -2.46217 0
M  V30 5891 C 553.316 -2.55511 -1.58539 0
M  V30 5892 C 554.864 -2.62439 -1.70572 0
M  V30 5893 C 555.339 -3.9647 -2.29294 0
M  V30 5894 N 556.83 -3.98159 -2.36692 0
M  V30 5895 C 557.565 -4.98647 -2.83088 0
M  V30 5896 N 557.061 -6.0953 -3.2931 0
M  V30 5897 N 558.854 -4.8602 -2.82384 0
M  V30 5898 H 551.005 -2.12267 -0.075048 0
M  V30 5899 H 553.268 -0.943136 -0.0959066 0
M  V30 5900 H 552.974 -3.38926 -0.939249 0
M  V30 5901 H 552.848 -2.75905 -2.57208 0
M  V30 5902 H 555.235 -1.79401 -2.34306 0
M  V30 5903 H 555.316 -2.45885 -0.705297 0
M  V30 5904 H 554.96 -4.79942 -1.66186 0
M  V30 5905 H 554.89 -4.10349 -3.30032 0
M  V30 5906 H 557.381 -3.18085 -2.04035 0
M  V30 5907 H 557.694 -6.82106 -3.6325 0
M  V30 5908 H 556.039 -6.1311 -3.27294 0
M  V30 5909 H 559.23 -3.98493 -2.45603 0
M  V30 5910 H 559.403 -5.64478 -3.18226 0
M  V30 5911 N 552.809 0.956637 -1.25245 0
M  V30 5912 C 553.719 2.0868 -1.0719 0
M  V30 5913 C 554.735 1.73997 -0.00959074 0
M  V30 5914 O 555.911 2.00301 -0.210104 0
M  V30 5915 C 552.976 3.39754 -0.690526 0
M  V30 5916 C 552.037 3.88316 -1.83055 0
M  V30 5917 C 551.27 5.13134 -1.46728 0
M  V30 5918 O 551.493 5.6925 -0.362029 0
M  V30 5919 O 550.427 5.56356 -2.29677 0
M  V30 5920 H 554.253 2.26813 -2.01965 0
M  V30 5921 H 551.838 1.07098 -1.04165 0
M  V30 5922 H 553.72 4.18543 -0.489871 0
M  V30 5923 H 552.395 3.22896 0.227981 0
M  V30 5924 H 551.302 3.1054 -2.08604 0
M  V30 5925 H 552.635 4.09669 -2.72822 0
M  V30 5926 N 554.287 1.06798 1.15896 0
M  V30 5927 C 555.533 0.788934 1.86825 0
M  V30 5928 C 555.866 -0.683084 1.8179 0
M  V30 5929 O 555.141 -1.50086 1.23711 0
M  V30 5930 C 555.424 1.29065 3.36176 0
M  V30 5931 C 555.277 2.8268 3.49874 0
M  V30 5932 C 556.596 0.902655 4.30744 0
M  V30 5933 H 553.715 0.288066 0.678371 0
M  V30 5934 H 556.357 1.32479 1.36195 0
M  V30 5935 H 554.507 0.834806 3.79425 0
M  V30 5936 H 556.179 3.36511 3.15528 0
M  V30 5937 H 554.422 3.21157 2.91617 0
M  V30 5938 H 555.093 3.12852 4.54783 0
M  V30 5939 H 557.569 1.29535 3.95424 0
M  V30 5940 H 556.445 1.28111 5.3374 0
M  V30 5941 H 556.706 -0.191951 4.41683 0
M  V30 5942 N 555.766 -1.3263 0.851289 0
M  V30 5943 C 557.014 -1.96978 0.452128 0
M  V30 5944 C 557.335 -1.67715 -0.99482 0
M  V30 5945 O 556.605 -0.98259 -1.69476 0
M  V30 5946 H 555.185 -0.72873 0.164202 0
M  V30 5947 H 557.847 -1.61774 1.08698 0
M  V30 5948 H 556.943 -3.06387 0.594407 0
M  V30 5949 N 557.244 -0.608902 -1.45362 0
M  V30 5950 C 558.493 -0.10218 -2.01441 0
M  V30 5951 C 558.806 1.27546 -1.48295 0
M  V30 5952 O 560.012 1.87498 -1.96359 0
M  V30 5953 C 558.468 -0.131985 -3.59658 0
M  V30 5954 C 558.076 -1.50956 -4.21801 0
M  V30 5955 C 559.82 0.319427 -4.23296 0
M  V30 5956 C 557.727 -1.49568 -5.72174 0
M  V30 5957 H 556.657 -0.0344314 -0.753213 0
M  V30 5958 H 559.308 -0.764426 -1.6682 0
M  V30 5959 H 557.69 0.596939 -3.91475 0
M  V30 5960 H 558.864 -2.26029 -4.01556 0
M  V30 5961 H 557.179 -1.90318 -3.70362 0
M  V30 5962 H 559.776 0.349013 -5.3356 0
M  V30 5963 H 560.119 1.34237 -3.94064 0
M  V30 5964 H 560.652 -0.356273 -3.96201 0
M  V30 5965 H 557.391 -2.49626 -6.06108 0
M  V30 5966 H 556.911 -0.787542 -5.94607 0
M  V30 5967 H 558.59 -1.21989 -6.35396 0
M  V30 5968 N 558.722 1.53707 -0.348139 0
M  V30 5969 C 559.652 2.28111 0.498766 0
M  V30 5970 C 560.633 1.29851 1.09876 0
M  V30 5971 O 561.818 1.587 1.11928 0
M  V30 5972 C 558.948 3.05735 1.64753 0
M  V30 5973 C 557.902 4.11537 1.17565 0
M  V30 5974 C 557.228 4.77142 2.4133 0
M  V30 5975 C 558.528 5.21587 0.272844 0
M  V30 5976 H 560.222 2.99152 -0.121934 0
M  V30 5977 H 557.768 1.43875 -0.0600842 0
M  V30 5978 H 559.721 3.56526 2.24649 0
M  V30 5979 H 558.445 2.32354 2.2952 0
M  V30 5980 H 557.104 3.61665 0.599483 0
M  V30 5981 H 556.752 4.0035 3.04514 0
M  V30 5982 H 556.452 5.48626 2.10436 0
M  V30 5983 H 557.976 5.30719 3.01943 0
M  V30 5984 H 559.39 5.67986 0.778779 0
M  V30 5985 H 557.787 6.00074 0.0555849 0
M  V30 5986 H 558.857 4.79969 -0.689785 0
M  V30 5987 N 560.2 0.0768682 1.57412 0
M  V30 5988 C 561.13 -0.886026 2.16037 0
M  V30 5989 C 562.111 -1.30691 1.08876 0
M  V30 5990 O 563.296 -1.37705 1.36934 0
M  V30 5991 C 560.426 -2.1518 2.72608 0
M  V30 5992 C 559.38 -1.87015 3.8498 0
M  V30 5993 C 558.706 -3.20266 4.28175 0
M  V30 5994 C 560.006 -1.17143 5.08994 0
M  V30 5995 H 561.7 -0.397642 2.96748 0
M  V30 5996 H 559.246 -0.189823 1.42743 0
M  V30 5997 H 561.199 -2.82962 3.12266 0
M  V30 5998 H 559.923 -2.66269 1.89125 0
M  V30 5999 H 558.582 -1.21636 3.45833 0
M  V30 6000 H 558.23 -3.69207 3.41607 0
M  V30 6001 H 557.93 -3.0221 5.03927 0
M  V30 6002 H 559.454 -3.89237 4.70454 0
M  V30 6003 H 560.868 -1.75003 5.45937 0
M  V30 6004 H 559.265 -1.09328 5.90057 0
M  V30 6005 H 560.335 -0.151295 4.84664 0
M  V30 6006 N 561.678 -1.56367 -0.196722 0
M  V30 6007 C 562.608 -1.97442 -1.24655 0
M  V30 6008 C 563.589 -0.846147 -1.47561 0
M  V30 6009 O 564.774 -1.11035 -1.59326 0
M  V30 6010 C 561.904 -2.31253 -2.59112 0
M  V30 6011 C 560.858 -3.46804 -2.50821 0
M  V30 6012 C 560.184 -3.66286 -3.89536 0
M  V30 6013 C 561.484 -4.8104 -2.03465 0
M  V30 6014 H 563.178 -2.85388 -0.905216 0
M  V30 6015 H 560.724 -1.37304 -0.434002 0
M  V30 6016 H 562.677 -2.58583 -3.32736 0
M  V30 6017 H 561.401 -1.40188 -2.94983 0
M  V30 6018 H 560.06 -3.19563 -1.79653 0
M  V30 6019 H 559.708 -2.72555 -4.22756 0
M  V30 6020 H 559.408 -4.4402 -3.84864 0
M  V30 6021 H 560.932 -3.9599 -4.64784 0
M  V30 6022 H 562.346 -5.07411 -2.66846 0
M  V30 6023 H 560.743 -5.62232 -2.09798 0
M  V30 6024 H 561.813 -4.74732 -0.98781 0
M  V30 6025 N 563.156 0.464375 -1.50603 0
M  V30 6026 C 564.386 1.23727 -1.65454 0
M  V30 6027 C 564.794 1.86119 -0.340032 0
M  V30 6028 O 564.137 1.70301 0.688706 0
M  V30 6029 C 564.199 2.38153 -2.69301 0
M  V30 6030 C 563.863 1.96345 -4.12671 0
M  V30 6031 C 564.86 1.48215 -4.98326 0
M  V30 6032 C 562.545 2.04861 -4.58625 0
M  V30 6033 C 564.539 1.09152 -6.27985 0
M  V30 6034 C 562.226 1.65409 -5.88288 0
M  V30 6035 C 563.224 1.17634 -6.72794 0
M  V30 6036 O 562.912 0.787312 -8.00035 0
M  V30 6037 H 562.644 0.380075 -0.559034 0
M  V30 6038 H 565.198 0.559919 -1.97621 0
M  V30 6039 H 563.428 3.09081 -2.32392 0
M  V30 6040 H 565.117 3.00099 -2.73304 0
M  V30 6041 H 565.883 1.41052 -4.64036 0
M  V30 6042 H 561.762 2.40996 -3.92991 0
M  V30 6043 H 565.306 0.717909 -6.93896 0
M  V30 6044 H 561.203 1.72233 -6.22098 0
M  V30 6045 H 561.971 0.915567 -8.13363 0
M  V30 6046 N 564.634 1.40294 0.718013 0
M  V30 6047 C 565.564 1.43118 1.84498 0
M  V30 6048 C 566.545 0.292403 1.67568 0
M  V30 6049 O 567.73 0.500675 1.87635 0
M  V30 6050 C 564.86 1.29065 3.22427 0
M  V30 6051 C 563.814 2.40521 3.54025 0
M  V30 6052 C 563.14 2.11546 4.91073 0
M  V30 6053 C 564.44 3.82859 3.55269 0
M  V30 6054 H 566.134 2.37432 1.82391 0
M  V30 6055 H 563.68 1.14283 0.87609 0
M  V30 6056 H 565.633 1.29658 4.00957 0
M  V30 6057 H 564.357 0.312271 3.25104 0
M  V30 6058 H 563.016 2.39173 2.77834 0
M  V30 6059 H 562.664 1.12104 4.90348 0
M  V30 6060 H 562.364 2.86216 5.1318 0
M  V30 6061 H 563.888 2.13817 5.71939 0
M  V30 6062 H 565.302 3.86044 4.23843 0
M  V30 6063 H 563.699 4.57029 3.88902 0
M  V30 6064 H 564.769 4.12617 2.54706 0
M  V30 6065 N 566.112 -0.949982 1.2575 0
M  V30 6066 C 567.075 -2.02894 1.06615 0
M  V30 6067 C 568.075 -1.60791 0.0173905 0
M  V30 6068 O 569.265 -1.72249 0.260003 0
M  V30 6069 C 566.397 -3.35219 0.619751 0
M  V30 6070 H 567.59 -2.21302 2.02399 0
M  V30 6071 H 565.143 -1.12772 1.08223 0
M  V30 6072 H 565.878 -3.22508 -0.340486 0
M  V30 6073 H 565.663 -3.67129 1.37692 0
M  V30 6074 H 567.153 -4.14505 0.507443 0
M  V30 6075 N 567.59 -1.07411 -1.15328 0
M  V30 6076 C 568.836 -0.798831 -1.86404 0
M  V30 6077 C 569.169 0.673433 -1.8215 0
M  V30 6078 O 568.444 1.49428 -1.24505 0
M  V30 6079 C 568.727 -1.30846 -3.35487 0
M  V30 6080 C 568.58 -2.84532 -3.4837 0
M  V30 6081 C 569.899 -0.925486 -4.30259 0
M  V30 6082 H 567.018 -0.291659 -0.676834 0
M  V30 6083 H 569.66 -1.332 -1.35491 0
M  V30 6084 H 567.81 -0.854916 -3.78977 0
M  V30 6085 H 569.482 -3.3818 -3.13739 0
M  V30 6086 H 567.725 -3.22699 -2.8991 0
M  V30 6087 H 568.396 -3.15259 -4.53118 0
M  V30 6088 H 570.872 -1.3163 -3.94731 0
M  V30 6089 H 569.748 -1.3094 -5.33053 0
M  V30 6090 H 570.009 0.168525 -4.41779 0
M  V30 6091 N 569.068 1.32177 -0.85831 0
M  V30 6092 C 570.316 1.96735 -0.462568 0
M  V30 6093 C 570.637 1.6824 0.985911 0
M  V30 6094 O 569.907 0.991564 1.68952 0
M  V30 6095 H 568.487 0.727849 -0.168064 0
M  V30 6096 H 571.149 1.61195 -1.09554 0
M  V30 6097 H 570.245 3.06068 -0.610647 0
M  V30 6098 N 570.547 0.616602 1.45037 0
M  V30 6099 C 571.793 0.115501 2.02471 0
M  V30 6100 C 572.126 -1.25406 1.4828 0
M  V30 6101 O 571.401 -1.82922 0.661051 0
M  V30 6102 C 571.684 0.0863588 3.59996 0
M  V30 6103 C 571.537 1.48723 4.24501 0
M  V30 6104 C 572.856 -0.596762 4.36035 0
M  V30 6105 H 569.975 0.0434461 0.735718 0
M  V30 6106 H 572.617 0.7903 1.72784 0
M  V30 6107 H 570.767 -0.488277 3.85419 0
M  V30 6108 H 572.439 2.10964 4.10234 0
M  V30 6109 H 570.682 2.04534 3.82555 0
M  V30 6110 H 571.353 1.419 5.3345 0
M  V30 6111 H 573.829 -0.10824 4.15959 0
M  V30 6112 H 572.705 -0.586289 5.4576 0
M  V30 6113 H 572.966 -1.66451 4.09569 0
M  V30 6114 N 572.025 -1.5352 0.356285 0
M  V30 6115 C 573.25 -2.06007 -0.239961 0
M  V30 6116 C 573.675 -1.22872 -1.42422 0
M  V30 6117 O 573.033 -0.245516 -1.7963 0
M  V30 6118 C 573.081 -3.5522 -0.620587 0
M  V30 6119 O 572.185 -3.74864 -1.71902 0
M  V30 6120 H 571.526 -0.662961 -0.0371377 0
M  V30 6121 H 574.056 -1.98033 0.514194 0
M  V30 6122 H 574.066 -3.98081 -0.894197 0
M  V30 6123 H 572.741 -4.15175 0.245407 0
M  V30 6124 H 571.318 -3.43904 -1.44169 0
M  V30 6125 N 573.503 -0.0852151 -1.57369 0
M  V30 6126 C 574.749 0.581666 -1.94279 0
M  V30 6127 C 575.082 1.68444 -0.966446 0
M  V30 6128 O 574.357 1.945 0.00215277 0
M  V30 6129 C 574.64 1.14609 -3.41375 0
M  V30 6130 C 574.493 0.0490414 -4.49773 0
M  V30 6131 C 575.812 2.04751 -3.8957 0
M  V30 6132 H 572.931 0.209972 -0.706456 0
M  V30 6133 H 575.573 -0.153915 -1.89376 0
M  V30 6134 H 573.723 1.77297 -3.45685 0
M  V30 6135 H 575.395 -0.584721 -4.57579 0
M  V30 6136 H 573.638 -0.618638 -4.29366 0
M  V30 6137 H 574.309 0.484601 -5.49869 0
M  V30 6138 H 576.785 1.51981 -3.87351 0
M  V30 6139 H 575.661 2.41173 -4.93079 0
M  V30 6140 H 575.922 2.96107 -3.28288 0
M  V30 6141 N 574.981 1.5647 0.188427 0
M  V30 6142 C 576.228 1.81013 0.907779 0
M  V30 6143 C 576.556 0.65953 1.82977 0
M  V30 6144 O 575.811 -0.354308 1.92466 0
M  V30 6145 C 576.11 3.11596 1.7505 0
M  V30 6146 C 575.776 4.40145 0.978922 0
M  V30 6147 C 574.438 4.75066 0.765912 0
M  V30 6148 C 576.79 5.19369 0.436498 0
M  V30 6149 C 574.118 5.867 -0.00089868 0
M  V30 6150 C 576.47 6.31805 -0.317136 0
M  V30 6151 C 575.134 6.65303 -0.541103 0
M  V30 6152 H 574.404 0.662373 0.33218 0
M  V30 6153 H 577.051 1.9071 0.173732 0
M  V30 6154 H 575.356 2.97165 2.55343 0
M  V30 6155 H 577.053 3.27793 2.30983 0
M  V30 6156 H 573.643 4.12745 1.15497 0
M  V30 6157 H 577.827 4.92799 0.588449 0
M  V30 6158 H 573.083 6.11122 -0.184329 0
M  V30 6159 H 577.257 6.92406 -0.744788 0
M  V30 6160 H 574.884 7.51646 -1.13718 0
M  V30 6161 N 576.459 -0.456382 1.50847 0
M  V30 6162 C 577.684 -1.2349 1.66628 0
M  V30 6163 C 578.109 -1.84715 0.355254 0
M  V30 6164 O 577.467 -1.67961 -0.682559 0
M  V30 6165 C 577.515 -2.30865 2.77009 0
M  V30 6166 O 576.619 -3.35882 2.39285 0
M  V30 6167 H 575.96 -0.36266 0.556214 0
M  V30 6168 H 578.49 -0.541374 1.97308 0
M  V30 6169 H 578.5 -2.75949 3.00526 0
M  V30 6170 H 577.175 -1.85677 3.72152 0
M  V30 6171 H 575.752 -2.96406 2.26269 0
M  V30 6172 N 577.937 -1.40673 -0.710563 0
M  V30 6173 C 579.185 -1.38947 -1.46759 0
M  V30 6174 C 579.506 0.00572879 -1.94999 0
M  V30 6175 O 578.776 0.961358 -1.70689 0
M  V30 6176 H 577.356 -0.5114 -0.544499 0
M  V30 6177 H 580.018 -1.75773 -0.842012 0
M  V30 6178 H 579.114 -2.06745 -2.33801 0
M  V30 6179 N 579.415 0.9433 -1.26252 0
M  V30 6180 C 580.661 1.69175 -1.11837 0
M  V30 6181 C 580.994 1.91238 0.337891 0
M  V30 6182 O 580.269 1.49152 1.24836 0
M  V30 6183 C 580.552 3.06783 -1.88563 0
M  V30 6184 C 580.405 2.9206 -3.42083 0
M  V30 6185 C 581.724 4.06865 -1.67776 0
M  V30 6186 H 578.843 0.61399 -0.407658 0
M  V30 6187 H 581.485 1.09572 -1.55222 0
M  V30 6188 H 579.635 3.57663 -1.51689 0
M  V30 6189 H 581.307 2.48419 -3.88698 0
M  V30 6190 H 579.55 2.27731 -3.69217 0
M  V30 6191 H 580.221 3.89651 -3.90994 0
M  V30 6192 H 582.697 3.64939 -1.99897 0
M  V30 6193 H 581.573 5.01168 -2.23879 0
M  V30 6194 H 581.834 4.37705 -0.621816 0
M  V30 6195 N 580.893 1.08022 1.14757 0
M  V30 6196 C 581.856 0.71048 2.1791 0
M  V30 6197 C 582.856 -0.252731 1.58801 0
M  V30 6198 O 584.046 -0.0327915 1.74169 0
M  V30 6199 C 581.178 0.0483203 3.40866 0
M  V30 6200 H 582.371 1.62384 2.52134 0
M  V30 6201 H 579.924 0.877595 1.29337 0
M  V30 6202 H 580.659 -0.876959 3.12218 0
M  V30 6203 H 580.444 0.741189 3.85031 0
M  V30 6204 H 581.934 -0.195471 4.17142 0
M  V30 6205 N 582.371 -1.3172 0.865308 0
M  V30 6206 C 583.601 -2.00765 0.487543 0
M  V30 6207 C 584.009 -1.65145 -0.92325 0
M  V30 6208 O 583.352 -0.874294 -1.61561 0
M  V30 6209 C 583.414 -3.55122 0.559369 0
M  V30 6210 C 583.078 -4.14202 1.93095 0
M  V30 6211 C 584.075 -4.3165 2.89784 0
M  V30 6212 C 581.76 -4.50036 2.23099 0
M  V30 6213 C 583.754 -4.84114 4.14623 0
M  V30 6214 C 581.441 -5.02203 3.48189 0
M  V30 6215 C 582.439 -5.19192 4.43767 0
M  V30 6216 O 582.127 -5.70241 5.6664 0
M  V30 6217 H 581.859 -0.649066 0.188915 0
M  V30 6218 H 584.413 -1.69032 1.16694 0
M  V30 6219 H 582.643 -3.86295 -0.176926 0
M  V30 6220 H 584.332 -4.05428 0.195694 0
M  V30 6221 H 585.098 -4.04288 2.6791 0
M  V30 6222 H 580.977 -4.36091 1.49485 0
M  V30 6223 H 584.521 -4.9729 4.89233 0
M  V30 6224 H 580.418 -5.28997 3.69908 0
M  V30 6225 H 581.186 -5.88617 5.68746 0
M  V30 6226 N 583.85 -0.624285 -1.44708 0
M  V30 6227 C 585.077 -0.132919 -2.06473 0
M  V30 6228 C 585.493 1.18967 -1.46602 0
M  V30 6229 O 584.85 1.72824 -0.586341 0
M  V30 6230 C 584.901 -0.00465418 -3.615 0
M  V30 6231 O 584.622 -1.27494 -4.19138 0
M  V30 6232 C 586.123 0.516213 -4.40284 0
M  V30 6233 H 583.343 -0.0765201 -0.666623 0
M  V30 6234 H 585.887 -0.856751 -1.85688 0
M  V30 6235 H 584.042 0.669583 -3.8157 0
M  V30 6236 H 584.456 -1.11536 -5.12504 0
M  V30 6237 H 585.93 0.554994 -5.49203 0
M  V30 6238 H 586.407 1.5419 -4.11245 0
M  V30 6239 H 587.013 -0.124542 -4.25118 0
M  V30 6240 N 585.328 1.53329 -0.364422 0
M  V30 6241 C 586.291 2.24323 0.470292 0
M  V30 6242 C 587.291 1.25068 1.01067 0
M  V30 6243 O 588.481 1.49354 0.896605 0
M  V30 6244 C 585.613 2.97908 1.65722 0
M  V30 6245 H 586.806 2.9952 -0.150917 0
M  V30 6246 H 584.359 1.55868 -0.116092 0
M  V30 6247 H 585.094 2.2695 2.31655 0
M  V30 6248 H 584.879 3.70732 1.27671 0
M  V30 6249 H 586.369 3.5188 2.24878 0
M  V30 6250 N 586.806 0.0935595 1.57322 0
M  V30 6251 C 587.716 -0.880192 2.17462 0
M  V30 6252 C 588.732 -1.31135 1.14366 0
M  V30 6253 O 589.908 -1.37958 1.46729 0
M  V30 6254 C 586.973 -2.12184 2.74188 0
M  V30 6255 C 586.034 -1.74503 3.92234 0
M  V30 6256 C 585.267 -2.92748 4.46245 0
M  V30 6257 O 585.49 -4.07427 3.99198 0
M  V30 6258 O 584.424 -2.71303 5.37288 0
M  V30 6259 H 588.25 -0.398516 3.01074 0
M  V30 6260 H 585.835 -0.130707 1.48827 0
M  V30 6261 H 587.717 -2.84953 3.10451 0
M  V30 6262 H 586.392 -2.59407 1.93623 0
M  V30 6263 H 585.299 -0.989186 3.60785 0
M  V30 6264 H 586.632 -1.32044 4.74157 0
M  V30 6265 N 588.284 -1.56567 -0.180126 0
M  V30 6266 C 589.231 -1.95725 -1.22313 0
M  V30 6267 C 590.201 -0.819911 -1.44453 0
M  V30 6268 O 591.386 -1.07931 -1.57339 0
M  V30 6269 C 588.526 -2.31484 -2.55947 0
M  V30 6270 C 587.639 -3.58354 -2.4126 0
M  V30 6271 C 586.774 -3.83366 -3.67701 0
M  V30 6272 C 585.813 -5.03612 -3.47909 0
M  V30 6273 N 584.95 -5.24802 -4.66398 0
M  V30 6274 H 589.79 -2.84642 -0.882198 0
M  V30 6275 H 587.327 -1.4085 -0.42422 0
M  V30 6276 H 589.285 -2.50237 -3.33822 0
M  V30 6277 H 587.915 -1.45689 -2.88053 0
M  V30 6278 H 586.967 -3.47565 -1.54606 0
M  V30 6279 H 588.279 -4.46386 -2.22577 0
M  V30 6280 H 587.433 -4.02439 -4.54013 0
M  V30 6281 H 586.172 -2.93692 -3.89353 0
M  V30 6282 H 585.177 -4.84447 -2.59983 0
M  V30 6283 H 586.402 -5.94809 -3.27688 0
M  V30 6284 H 584.348 -4.38079 -4.88286 0
M  V30 6285 H 584.265 -6.07041 -4.50596 0
M  V30 6286 H 585.533 -5.48346 -5.54019 0
M  V30 6287 N 589.762 0.448376 -1.51087 0
M  V30 6288 C 590.672 1.56882 -1.74428 0
M  V30 6289 C 591.688 1.62268 -0.62809 0
M  V30 6290 O 592.864 1.79716 -0.909075 0
M  V30 6291 C 589.929 2.92947 -1.85426 0
M  V30 6292 C 588.99 2.97766 -3.09247 0
M  V30 6293 C 588.223 4.27341 -3.19711 0
M  V30 6294 O 588.446 5.19112 -2.36387 0
M  V30 6295 O 587.38 4.38219 -4.12611 0
M  V30 6296 H 591.206 1.40104 -2.69452 0
M  V30 6297 H 588.791 0.630247 -1.35456 0
M  V30 6298 H 590.673 3.73719 -1.94709 0
M  V30 6299 H 589.348 3.09876 -0.935887 0
M  V30 6300 H 588.255 2.15989 -3.0545 0
M  V30 6301 H 589.588 2.8578 -4.00738 0
M  V30 6302 N 591.24 1.41047 0.703093 0
M  V30 6303 C 592.15 1.44645 1.84703 0
M  V30 6304 C 593.166 0.337778 1.7069 0
M  V30 6305 O 594.342 0.584327 1.92737 0
M  V30 6306 C 591.407 1.31928 3.20618 0
M  V30 6307 C 590.468 2.53047 3.46794 0
M  V30 6308 C 589.701 2.40927 4.76224 0
M  V30 6309 O 589.924 1.42978 5.5219 0
M  V30 6310 O 588.858 3.30543 5.03016 0
M  V30 6311 H 592.684 2.41139 1.84624 0
M  V30 6312 H 590.269 1.22504 0.855167 0
M  V30 6313 H 592.151 1.27092 4.01778 0
M  V30 6314 H 590.826 0.385469 3.21397 0
M  V30 6315 H 589.733 2.6346 2.65593 0
M  V30 6316 H 591.066 3.45231 3.50822 0
M  V30 6317 N 592.718 -0.936591 1.26751 0
M  V30 6318 C 593.995 -1.66094 1.03306 0
M  V30 6319 C 594.375 -2.06568 -0.435058 0
M  V30 6320 O 593.723 -1.79305 -1.41641 0
M  V30 6321 C 593.933 -2.86969 1.98619 0
M  V30 6322 C 595.281 -3.58516 2.27489 0
M  V30 6323 O 596.305 -2.97082 1.96522 0
M  V30 6324 O 595.164 -4.69181 2.80235 0
M  V30 6325 H 592.258 -0.727568 0.393158 0
M  V30 6326 H 594.804 -0.987914 1.3798 0
M  V30 6327 H 593.576 -2.53985 2.9767 0
M  V30 6328 H 593.199 -3.61996 1.64454 0
M  V30 6329 N 594.196 -1.08629 -1.14182 0
M  V30 6330 C 595.442 -0.818556 -1.85546 0
M  V30 6331 C 595.775 0.654076 -1.82854 0
M  V30 6332 O 595.05 1.48099 -1.26083 0
M  V30 6333 C 595.333 -1.34397 -3.3408 0
M  V30 6334 C 595.186 -2.8821 -3.45333 0
M  V30 6335 C 596.505 -0.971069 -4.29253 0
M  V30 6336 H 593.624 -0.298821 -0.673702 0
M  V30 6337 H 596.266 -1.34629 -1.34071 0
M  V30 6338 H 594.416 -0.895064 -3.78049 0
M  V30 6339 H 596.088 -3.41488 -3.10134 0
M  V30 6340 H 594.331 -3.25756 -2.86471 0
M  V30 6341 H 595.002 -3.20047 -4.49749 0
M  V30 6342 H 597.478 -1.35809 -3.93313 0
M  V30 6343 H 596.354 -1.36586 -5.31635 0
M  V30 6344 H 596.615 0.121659 -4.41933 0
M  V30 6345 N 595.674 1.31259 -0.872281 0
M  V30 6346 C 596.922 1.96233 -0.483409 0
M  V30 6347 C 597.243 1.69276 0.968012 0
M  V30 6348 O 596.513 1.00943 1.67891 0
M  V30 6349 H 595.093 0.726025 -0.175774 0
M  V30 6350 H 597.755 1.60024 -1.11258 0
M  V30 6351 H 596.851 3.05403 -0.643075 0
M  V30 6352 N 597.152 0.631951 1.44375 0
M  V30 6353 C 598.399 0.136767 2.02038 0
M  V30 6354 C 598.727 -1.24168 1.49709 0
M  V30 6355 O 597.982 -1.83809 0.671763 0
M  V30 6356 C 598.281 0.0735861 3.57324 0
M  V30 6357 C 597.947 1.39092 4.28911 0
M  V30 6358 C 596.609 1.75171 4.48184 0
M  V30 6359 C 598.961 2.26042 4.69632 0
M  V30 6360 C 596.289 2.97907 5.05439 0
M  V30 6361 C 598.641 3.4805 5.28246 0
M  V30 6362 C 597.305 3.84351 5.45738 0
M  V30 6363 H 596.575 0.0500466 0.739308 0
M  V30 6364 H 599.222 0.818429 1.7313 0
M  V30 6365 H 597.527 -0.691449 3.8565 0
M  V30 6366 H 599.224 -0.326091 3.99672 0
M  V30 6367 H 595.814 1.10015 4.1424 0
M  V30 6368 H 599.998 1.99463 4.54454 0
M  V30 6369 H 595.254 3.26108 5.17169 0
M  V30 6370 H 599.428 4.15658 5.5875 0
M  V30 6371 H 597.055 4.79538 5.8987 0
M  V30 6372 N 598.631 -1.53133 0.372548 0
M  V30 6373 C 599.579 -2.27473 -0.485681 0
M  V30 6374 C 600.573 -1.30719 -1.07745 0
M  V30 6375 O 601.779 -1.48321 -1.01985 0
M  V30 6376 H 598.154 -0.731269 -0.175356 0
M  V30 6377 H 600.125 -2.97955 0.162986 0
M  V30 6378 C 598.874 -3.08191 -1.60978 0
M  V30 6379 H 598.197 -3.82488 -1.16373 0
M  V30 6380 H 599.637 -3.63373 -2.18485 0
M  V30 6381 C 598.096 -2.19461 -2.55614 0
M  V30 6382 O 598.626 -1.81008 -3.58607 0
M  V30 6383 N 596.832 -1.83955 -2.24965 0
M  V30 6384 H 596.379 -2.15423 -1.41247 0
M  V30 6385 H 596.337 -1.24874 -2.88538 0
M  V30 6386 N 600.109 -0.101901 -1.5727 0
M  V30 6387 C 601.337 0.568392 -1.98939 0
M  V30 6388 C 601.752 1.61301 -0.981194 0
M  V30 6389 O 601.109 1.82478 0.0282869 0
M  V30 6390 C 601.16 1.20997 -3.40649 0
M  V30 6391 O 600.881 0.207129 -4.3761 0
M  V30 6392 C 602.382 1.96523 -3.97358 0
M  V30 6393 H 599.602 0.15186 -0.65359 0
M  V30 6394 H 602.146 -0.183198 -2.03678 0
M  V30 6395 H 600.301 1.91245 -3.36904 0
M  V30 6396 H 600.715 0.671071 -5.20189 0
M  V30 6397 H 602.189 2.36764 -4.98645 0
M  V30 6398 H 602.666 2.83376 -3.35552 0
M  V30 6399 H 603.272 1.31076 -4.04598 0
M  V30 6400 N 601.587 1.56661 0.17182 0
M  V30 6401 C 602.836 1.81158 0.886831 0
M  V30 6402 C 603.149 0.679072 1.83434 0
M  V30 6403 O 604.355 0.808964 2.59168 0
M  V30 6404 C 602.811 3.20999 1.6275 0
M  V30 6405 C 602.419 4.42117 0.723652 0
M  V30 6406 C 604.163 3.5479 2.33076 0
M  V30 6407 C 602.07 5.7298 1.46452 0
M  V30 6408 H 601 0.675543 0.334899 0
M  V30 6409 H 603.651 1.82967 0.139765 0
M  V30 6410 H 602.033 3.13506 2.4193 0
M  V30 6411 H 603.207 4.60789 -0.0311485 0
M  V30 6412 H 601.522 4.16197 0.130063 0
M  V30 6413 H 604.119 4.49806 2.89099 0
M  V30 6414 H 604.462 2.79646 3.08389 0
M  V30 6415 H 604.995 3.63834 1.6084 0
M  V30 6416 H 601.734 6.51152 0.753729 0
M  V30 6417 H 601.254 5.58285 2.19266 0
M  V30 6418 H 602.933 6.14916 2.01214 0
M  V30 6419 N 603.065 -0.440357 1.51323 0
M  V30 6420 C 604.476 -1.02032 1.56353 0
M  V30 6421 C 604.827 -1.92382 0.385197 0
M  V30 6422 O 603.952 -2.10583 -0.498373 0
M  V30 6423 C 604.547 -1.85723 2.83359 0
M  V30 6424 C 603.106 -2.38774 2.90971 0
M  V30 6425 C 602.253 -1.17908 2.50984 0
M  V30 6426 H 605.204 -0.221744 1.57143 0
M  V30 6427 H 605.225 -2.71141 2.66951 0
M  V30 6428 H 604.737 -1.19939 3.69102 0
M  V30 6429 H 602.838 -3.08021 2.09651 0
M  V30 6430 H 602.951 -2.71778 3.94555 0
M  V30 6431 H 601.315 -1.52347 2.04114 0
M  V30 6432 H 602.098 -0.537393 3.39068 0
M  V30 6433 N 604.543 -1.41418 -0.695603 0
M  V30 6434 C 605.506 -1.42988 -1.79129 0
M  V30 6435 C 606.506 -0.320514 -1.57573 0
M  V30 6436 O 607.696 -0.58039 -1.64247 0
M  V30 6437 C 604.828 -1.24122 -3.175 0
M  V30 6438 H 606.021 -2.40526 -1.7913 0
M  V30 6439 H 603.574 -1.2756 -0.903225 0
M  V30 6440 H 604.309 -0.274253 -3.23138 0
M  V30 6441 H 604.094 -2.045 -3.34547 0
M  V30 6442 H 605.584 -1.28056 -3.97481 0
M  V30 6443 N 606.021 0.929856 -1.27246 0
M  V30 6444 C 607.261 1.6919 -1.14691 0
M  V30 6445 C 607.625 1.896 0.302621 0
M  V30 6446 O 608.826 2.63102 0.550543 0
M  V30 6447 C 607.097 3.02291 -1.9067 0
M  V30 6448 S 608.656 3.93436 -1.94303 0
M  V30 6449 H 605.474 0.581248 -0.409477 0
M  V30 6450 H 608.076 1.10722 -1.61124 0
M  V30 6451 H 606.78 2.85125 -2.95181 0
M  V30 6452 H 606.311 3.65813 -1.44723 0
M  V30 6453 H 608.326 4.85224 -1.0379 0
M  V30 6454 N 607.499 1.09233 1.13605 0
M  V30 6455 C 608.745 0.838255 1.85324 0
M  V30 6456 C 609.1 -0.629314 1.81817 0
M  V30 6457 O 608.393 -1.45729 1.24393 0
M  V30 6458 C 608.587 1.305 3.32723 0
M  V30 6459 C 608.416 2.81641 3.50583 0
M  V30 6460 C 607.186 3.49494 3.64941 0
M  V30 6461 C 609.384 3.79789 3.46792 0
M  V30 6462 N 607.366 4.89082 3.71042 0
M  V30 6463 C 608.737 5.05319 3.59239 0
M  V30 6464 C 610.792 3.72673 3.30181 0
M  V30 6465 C 609.495 6.24574 3.56791 0
M  V30 6466 C 611.521 4.91413 3.29039 0
M  V30 6467 C 610.883 6.15785 3.42035 0
M  V30 6468 H 606.982 0.359572 0.69443 0
M  V30 6469 H 609.566 1.39232 1.36098 0
M  V30 6470 H 607.737 0.778411 3.8052 0
M  V30 6471 H 609.469 0.996465 3.92241 0
M  V30 6472 H 606.224 2.9992 3.66531 0
M  V30 6473 H 606.648 5.61787 3.77789 0
M  V30 6474 H 611.29 2.77444 3.19037 0
M  V30 6475 H 609.008 7.20105 3.66708 0
M  V30 6476 H 612.594 4.87604 3.17386 0
M  V30 6477 H 611.474 7.06126 3.41111 0
M  V30 6478 N 608.977 -1.30795 0.87923 0
M  V30 6479 C 610.223 -1.97035 0.50487 0
M  V30 6480 C 610.578 -1.68182 -0.934484 0
M  V30 6481 O 609.871 -0.972953 -1.65058 0
M  V30 6482 C 610.065 -3.50287 0.709476 0
M  V30 6483 C 609.894 -3.94035 2.16717 0
M  V30 6484 C 608.664 -4.1992 2.81061 0
M  V30 6485 C 610.862 -4.07288 3.1404 0
M  V30 6486 N 608.844 -4.50088 4.17486 0
M  V30 6487 C 610.215 -4.41273 4.35521 0
M  V30 6488 C 612.27 -3.89696 3.09906 0
M  V30 6489 C 610.973 -4.59501 5.534 0
M  V30 6490 C 612.999 -4.09122 4.27052 0
M  V30 6491 C 612.361 -4.43447 5.47297 0
M  V30 6492 H 608.46 -0.746181 0.233962 0
M  V30 6493 H 611.044 -1.5814 1.13577 0
M  V30 6494 H 609.215 -3.8825 0.108108 0
M  V30 6495 H 610.947 -4.03567 0.302585 0
M  V30 6496 H 607.702 -4.12906 2.3196 0
M  V30 6497 H 608.126 -4.69316 4.87926 0
M  V30 6498 H 612.768 -3.62239 2.18043 0
M  V30 6499 H 610.486 -4.85802 6.45773 0
M  V30 6500 H 614.072 -3.96985 4.25316 0
M  V30 6501 H 612.952 -4.58171 6.36435 0
M  V30 6502 N 610.455 -0.639598 -1.44038 0
M  V30 6503 C 611.701 -0.156248 -2.02799 0
M  V30 6504 C 612.056 1.21145 -1.49471 0
M  V30 6505 O 611.349 1.79406 -0.672608 0
M  V30 6506 C 611.543 -0.0925348 -3.5728 0
M  V30 6507 C 611.372 -1.45252 -4.25596 0
M  V30 6508 C 610.142 -2.04145 -4.62226 0
M  V30 6509 C 612.34 -2.38812 -4.55492 0
M  V30 6510 N 610.322 -3.3329 -5.15549 0
M  V30 6511 C 611.693 -3.52578 -5.09989 0
M  V30 6512 C 613.748 -2.37785 -4.3745 0
M  V30 6513 C 612.451 -4.65525 -5.48342 0
M  V30 6514 C 614.477 -3.49802 -4.76857 0
M  V30 6515 C 613.839 -4.62292 -5.31475 0
M  V30 6516 H 609.938 -0.101292 -0.775412 0
M  V30 6517 H 612.522 -0.844938 -1.75411 0
M  V30 6518 H 610.693 0.565459 -3.84262 0
M  V30 6519 H 612.425 0.400426 -4.02714 0
M  V30 6520 H 609.18 -1.56999 -4.4682 0
M  V30 6521 H 609.604 -3.9934 -5.46678 0
M  V30 6522 H 614.246 -1.52061 -3.94509 0
M  V30 6523 H 611.964 -5.51951 -5.90233 0
M  V30 6524 H 615.55 -3.50193 -4.64603 0
M  V30 6525 H 614.43 -5.47536 -5.61403 0
M  V30 6526 N 611.933 1.52934 -0.380664 0
M  V30 6527 C 613.181 2.01069 0.203874 0
M  V30 6528 C 613.502 1.26922 1.4804 0
M  V30 6529 O 612.772 0.386787 1.92044 0
M  V30 6530 H 611.352 0.742882 0.0783279 0
M  V30 6531 H 614.014 1.88099 -0.510368 0
M  V30 6532 H 613.11 3.09258 0.42021 0
M  V30 6533 N 613.412 0.11024 1.57214 0
M  V30 6534 C 614.64 -0.557834 1.99238 0
M  V30 6535 C 615.055 -1.60778 0.989734 0
M  V30 6536 O 614.412 -1.82491 -0.0186092 0
M  V30 6537 C 614.463 -1.19189 3.41286 0
M  V30 6538 O 614.184 -0.183919 4.37714 0
M  V30 6539 C 615.685 -1.94413 3.98395 0
M  V30 6540 H 612.905 -0.148392 0.654386 0
M  V30 6541 H 615.449 0.193996 2.03578 0
M  V30 6542 H 613.604 -1.89456 3.37913 0
M  V30 6543 H 614.018 -0.643475 5.20538 0
M  V30 6544 H 615.492 -2.34116 4.99894 0
M  V30 6545 H 615.969 -2.81592 3.3705 0
M  V30 6546 H 616.575 -1.28928 4.05287 0
M  V30 6547 N 614.89 -1.56749 -0.16351 0
M  V30 6548 C 616.136 -1.82704 -0.880168 0
M  V30 6549 C 616.469 -0.689311 -1.81555 0
M  V30 6550 O 615.744 0.308224 -1.92042 0
M  V30 6551 C 616.027 -3.19084 -1.66905 0
M  V30 6552 C 615.88 -4.43397 -0.756269 0
M  V30 6553 C 617.199 -3.52493 -2.63509 0
M  V30 6554 H 614.318 -0.664608 -0.318535 0
M  V30 6555 H 616.96 -1.89438 -0.146036 0
M  V30 6556 H 615.11 -3.13475 -2.2949 0
M  V30 6557 H 616.782 -4.61079 -0.14269 0
M  V30 6558 H 615.025 -4.33752 -0.0647944 0
M  V30 6559 H 615.696 -5.3539 -1.34393 0
M  V30 6560 H 618.172 -3.58606 -2.11047 0
M  V30 6561 H 617.048 -4.48979 -3.15767 0
M  V30 6562 H 617.309 -2.77597 -3.44082 0
M  V30 6563 N 616.368 0.432326 -1.51554 0
M  V30 6564 C 617.593 1.20824 -1.68571 0
M  V30 6565 C 618.018 1.84126 -0.384596 0
M  V30 6566 O 617.376 1.69025 0.655751 0
M  V30 6567 C 617.424 2.26429 -2.80646 0
M  V30 6568 O 616.528 3.32032 -2.44598 0
M  V30 6569 H 615.869 0.353765 -0.561913 0
M  V30 6570 H 618.399 0.509916 -1.98144 0
M  V30 6571 H 618.409 2.71133 -3.04878 0
M  V30 6572 H 617.084 1.79733 -3.75058 0
M  V30 6573 H 615.661 2.92769 -2.30956 0
M  V30 6574 N 617.846 1.41785 0.688094 0
M  V30 6575 C 618.779 1.38643 1.81255 0
M  V30 6576 C 619.757 0.252583 1.60626 0
M  V30 6577 O 620.941 0.440691 1.83276 0
M  V30 6578 C 618.068 1.16449 3.18053 0
M  V30 6579 C 617.114 2.32651 3.57457 0
M  V30 6580 S 617.947 3.95152 3.61407 0
M  V30 6581 C 619.103 3.75275 5.00919 0
M  V30 6582 H 619.336 2.33799 1.83644 0
M  V30 6583 H 616.869 1.28398 0.857513 0
M  V30 6584 H 618.827 1.0433 3.97021 0
M  V30 6585 H 617.488 0.229002 3.13264 0
M  V30 6586 H 616.681 2.12835 4.56856 0
M  V30 6587 H 616.283 2.41215 2.85817 0
M  V30 6588 H 618.575 3.35443 5.88629 0
M  V30 6589 H 619.518 4.74302 5.25778 0
M  V30 6590 H 619.926 3.08401 4.7281 0
M  V30 6591 N 619.324 -0.923095 1.27737 0
M  V30 6592 C 620.552 -1.70525 1.17171 0
M  V30 6593 C 620.967 -1.86847 -0.270881 0
M  V30 6594 O 620.324 -1.38879 -1.18401 0
M  V30 6595 C 620.375 -3.10242 1.85559 0
M  V30 6596 O 620.096 -2.94683 3.24182 0
M  V30 6597 C 621.597 -4.04586 1.81176 0
M  V30 6598 H 618.817 -0.533347 0.407163 0
M  V30 6599 H 621.361 -1.15599 1.68692 0
M  V30 6600 H 619.516 -3.62014 1.3793 0
M  V30 6601 H 619.93 -3.83045 3.58297 0
M  V30 6602 H 621.404 -5.00119 2.33633 0
M  V30 6603 H 621.881 -4.3218 0.782099 0
M  V30 6604 H 622.487 -3.58741 2.2844 0
M  V30 6605 N 620.802 -1.09834 -1.13024 0
M  V30 6606 C 622.03 -0.858902 -1.8823 0
M  V30 6607 C 622.445 0.590164 -1.79339 0
M  V30 6608 O 621.802 1.4065 -1.16292 0
M  V30 6609 C 621.853 -1.29066 -3.37675 0
M  V30 6610 O 621.574 -2.6829 -3.46341 0
M  V30 6611 C 623.075 -1.08421 -4.29837 0
M  V30 6612 H 620.295 -0.308713 -0.595766 0
M  V30 6613 H 622.839 -1.4614 -1.4305 0
M  V30 6614 H 620.994 -0.731961 -3.80422 0
M  V30 6615 H 621.408 -2.86598 -4.39274 0
M  V30 6616 H 622.882 -1.43553 -5.33007 0
M  V30 6617 H 623.359 -0.0223315 -4.39194 0
M  V30 6618 H 623.965 -1.62907 -3.92863 0
M  V30 6619 N 622.28 1.30327 -0.886154 0
M  V30 6620 C 623.526 1.96388 -0.505941 0
M  V30 6621 C 623.859 1.69784 0.942712 0
M  V30 6622 O 623.134 1.00322 1.6663 0
M  V30 6623 C 623.417 3.51488 -0.782826 0
M  V30 6624 C 623.27 3.87603 -2.28219 0
M  V30 6625 C 624.589 4.39331 -0.260128 0
M  V30 6626 H 621.708 0.713327 -0.185292 0
M  V30 6627 H 624.35 1.54178 -1.11036 0
M  V30 6628 H 622.5 3.87572 -0.268399 0
M  V30 6629 H 624.172 3.61537 -2.86512 0
M  V30 6630 H 622.415 3.3563 -2.74837 0
M  V30 6631 H 623.086 4.95806 -2.42653 0
M  V30 6632 H 625.562 4.10162 -0.700444 0
M  V30 6633 H 624.438 5.46769 -0.483179 0
M  V30 6634 H 624.699 4.34072 0.838674 0
M  V30 6635 N 623.758 0.647228 1.43697 0
M  V30 6636 C 625.006 0.157876 2.01482 0
M  V30 6637 C 625.327 -1.23039 1.51282 0
M  V30 6638 O 624.597 -1.82071 0.722982 0
M  V30 6639 H 623.177 0.0553745 0.744945 0
M  V30 6640 H 625.839 0.83755 1.75986 0
M  V30 6641 H 624.935 0.137895 3.11795 0
M  V30 6642 N 625.236 -1.5273 0.388769 0
M  V30 6643 C 626.466 -2.05693 -0.193397 0
M  V30 6644 C 626.874 -1.26038 -1.41107 0
M  V30 6645 O 626.217 -0.30001 -1.81234 0
M  V30 6646 C 626.279 -3.53962 -0.628561 0
M  V30 6647 C 625.943 -4.54519 0.475576 0
M  V30 6648 C 626.94 -5.02526 1.33281 0
M  V30 6649 C 624.625 -4.98174 0.642453 0
M  V30 6650 C 626.619 -5.92812 2.34205 0
M  V30 6651 C 624.306 -5.88262 1.65503 0
M  V30 6652 C 625.304 -6.35473 2.50325 0
M  V30 6653 O 624.992 -7.23781 3.49852 0
M  V30 6654 H 624.724 -0.675197 -0.0329395 0
M  V30 6655 H 627.278 -1.97835 0.552326 0
M  V30 6656 H 625.508 -3.59437 -1.42625 0
M  V30 6657 H 627.197 -3.89669 -1.13633 0
M  V30 6658 H 627.963 -4.6953 1.21519 0
M  V30 6659 H 623.842 -4.60999 -0.00805093 0
M  V30 6660 H 627.386 -6.29585 3.00447 0
M  V30 6661 H 623.283 -6.20672 1.77304 0
M  V30 6662 H 624.051 -7.4184 3.45855 0
M  V30 6663 N 626.714 -0.118576 -1.57153 0
M  V30 6664 C 627.962 0.538461 -1.94795 0
M  V30 6665 C 628.283 1.67243 -1.00274 0
M  V30 6666 O 627.553 1.95811 -0.0589692 0
M  V30 6667 H 626.133 0.201904 -0.719197 0
M  V30 6668 H 628.795 -0.187418 -1.93997 0
M  V30 6669 H 627.891 0.933315 -2.97818 0
M  V30 6670 N 628.193 1.56834 0.155195 0
M  V30 6671 C 629.47 1.73799 0.897395 0
M  V30 6672 C 629.85 0.684379 1.99698 0
M  V30 6673 O 629.198 -0.298111 2.26547 0
M  V30 6674 C 629.408 3.17572 1.44737 0
M  V30 6675 C 630.756 3.79014 1.91399 0
M  V30 6676 O 631.78 3.20951 1.54496 0
M  V30 6677 O 630.639 4.80998 2.59429 0
M  V30 6678 H 627.733 0.710329 0.423511 0
M  V30 6679 H 630.279 1.69107 0.141761 0
M  V30 6680 H 629.051 3.85749 0.656741 0
M  V30 6681 H 628.674 3.26657 2.26674 0
M  V30 6682 N 629.671 -0.424282 1.51781 0
M  V30 6683 C 630.917 -1.17434 1.6534 0
M  V30 6684 C 631.25 -1.90549 0.374806 0
M  V30 6685 O 630.525 -1.84145 -0.626179 0
M  V30 6686 C 630.808 -2.18093 2.86544 0
M  V30 6687 C 630.661 -1.48975 4.24413 0
M  V30 6688 C 631.98 -3.18934 3.03264 0
M  V30 6689 H 629.099 -0.425566 0.601716 0
M  V30 6690 H 631.741 -0.461921 1.84299 0
M  V30 6691 H 629.891 -2.78849 2.7051 0
M  V30 6692 H 631.563 -0.914551 4.52143 0
M  V30 6693 H 629.806 -0.791893 4.26511 0
M  V30 6694 H 630.477 -2.22347 5.05238 0
M  V30 6695 H 632.953 -2.68243 3.18096 0
M  V30 6696 H 631.829 -3.86645 3.89611 0
M  V30 6697 H 632.09 -3.85793 2.15908 0
M  V30 6698 N 631.149 -1.42148 -0.680565 0
M  V30 6699 C 632.395 -1.42521 -1.44277 0
M  V30 6700 C 632.728 -0.0393718 -1.9416 0
M  V30 6701 O 632.003 0.935425 -1.70529 0
M  V30 6702 C 632.286 -2.44475 -2.64394 0
M  V30 6703 C 632.139 -3.92226 -2.20179 0
M  V30 6704 C 633.458 -2.43491 -3.66606 0
M  V30 6705 H 630.577 -0.518985 -0.523282 0
M  V30 6706 H 633.219 -1.73524 -0.773914 0
M  V30 6707 H 631.369 -2.18168 -3.21458 0
M  V30 6708 H 633.041 -4.29493 -1.68327 0
M  V30 6709 H 631.284 -4.0637 -1.5181 0
M  V30 6710 H 631.955 -4.59133 -3.06433 0
M  V30 6711 H 634.431 -2.66872 -3.19247 0
M  V30 6712 H 633.307 -3.16816 -4.4824 0
M  V30 6713 H 633.568 -1.45881 -4.17338 0
M  V30 6714 N 632.627 0.916307 -1.28225 0
M  V30 6715 C 634.038 1.48024 -1.13779 0
M  V30 6716 C 634.389 1.94289 0.273139 0
M  V30 6717 O 633.514 1.82226 1.16716 0
M  V30 6718 C 634.109 2.69029 -2.05935 0
M  V30 6719 C 632.668 3.2161 -1.95561 0
M  V30 6720 C 631.815 1.94321 -1.97825 0
M  V30 6721 H 634.766 0.729272 -1.40951 0
M  V30 6722 H 634.787 3.44204 -1.62184 0
M  V30 6723 H 634.299 2.35325 -3.08616 0
M  V30 6724 H 632.4 3.60045 -0.959076 0
M  V30 6725 H 632.513 3.87032 -2.82388 0
M  V30 6726 H 630.877 2.1131 -1.42198 0
M  V30 6727 H 631.66 1.62917 -3.0218 0
M  V30 6728 N 634.105 1.10431 1.1244 0
M  V30 6729 C 635.351 0.847972 1.84221 0
M  V30 6730 C 635.684 -0.624903 1.83871 0
M  V30 6731 O 634.959 -1.46074 1.28423 0
M  V30 6732 C 635.242 1.39695 3.319 0
M  V30 6733 C 635.095 2.93668 3.40704 0
M  V30 6734 C 636.414 1.03924 4.27654 0
M  V30 6735 H 633.533 0.309502 0.668863 0
M  V30 6736 H 636.175 1.36745 1.31912 0
M  V30 6737 H 634.325 0.955095 3.76577 0
M  V30 6738 H 635.997 3.46379 3.04662 0
M  V30 6739 H 634.24 3.30272 2.81252 0
M  V30 6740 H 634.911 3.27162 4.446 0
M  V30 6741 H 637.387 1.42049 3.91102 0
M  V30 6742 H 636.263 1.45027 5.29394 0
M  V30 6743 H 636.524 -0.051336 4.4207 0
M  V30 6744 N 635.583 -1.29855 0.893053 0
M  V30 6745 C 636.811 -1.99976 0.530788 0
M  V30 6746 C 637.226 -1.66889 -0.882799 0
M  V30 6747 O 636.583 -0.910352 -1.58173 0
M  V30 6748 C 636.634 -3.54547 0.705587 0
M  V30 6749 O 636.355 -3.86458 2.06353 0
M  V30 6750 C 637.856 -4.41937 0.347387 0
M  V30 6751 H 635.076 -0.639129 0.204339 0
M  V30 6752 H 637.62 -1.65549 1.20057 0
M  V30 6753 H 635.775 -3.87311 0.0830685 0
M  V30 6754 H 636.189 -4.81146 2.08803 0
M  V30 6755 H 637.663 -5.4954 0.520557 0
M  V30 6756 H 638.14 -4.33339 -0.715139 0
M  V30 6757 H 638.746 -4.14633 0.946567 0
M  V30 6758 N 637.061 -0.65484 -1.43351 0
M  V30 6759 C 638.307 -0.169142 -2.02093 0
M  V30 6760 C 638.64 1.21431 -1.51553 0
M  V30 6761 O 637.915 1.81105 -0.709317 0
M  V30 6762 C 638.198 -0.181775 -3.59641 0
M  V30 6763 C 638.051 -1.59926 -4.20409 0
M  V30 6764 C 639.37 0.480945 -4.37464 0
M  V30 6765 H 636.489 -0.0629371 -0.734308 0
M  V30 6766 H 639.131 -0.835833 -1.70628 0
M  V30 6767 H 637.281 0.385918 -3.86578 0
M  V30 6768 H 638.953 -2.21766 -4.04497 0
M  V30 6769 H 637.196 -2.14605 -3.76998 0
M  V30 6770 H 637.867 -1.55994 -5.295 0
M  V30 6771 H 640.343 -0.00208273 -4.161 0
M  V30 6772 H 639.219 0.441384 -5.47122 0
M  V30 6773 H 639.48 1.55533 -4.13838 0
M  V30 6774 N 638.539 1.52521 -0.396863 0
M  V30 6775 C 639.502 2.2527 0.422604 0
M  V30 6776 C 640.502 1.27184 0.983913 0
M  V30 6777 O 641.692 1.51222 0.864723 0
M  V30 6778 C 638.824 3.01356 1.59365 0
M  V30 6779 H 640.017 2.99133 -0.214416 0
M  V30 6780 H 637.57 1.55587 -0.149128 0
M  V30 6781 H 638.305 2.31813 2.26789 0
M  V30 6782 H 638.09 3.73357 1.19779 0
M  V30 6783 H 639.58 3.56571 2.17363 0
M  V30 6784 N 640.017 0.126909 1.57088 0
M  V30 6785 C 641.265 -0.528123 1.95078 0
M  V30 6786 C 641.586 -1.66708 1.0116 0
M  V30 6787 O 640.856 -1.95777 0.0693527 0
M  V30 6788 H 639.436 -0.198087 0.720257 0
M  V30 6789 H 642.098 0.197703 1.93895 0
M  V30 6790 H 641.194 -0.917507 2.98309 0
M  V30 6791 N 641.495 -1.56914 -0.146875 0
M  V30 6792 C 642.442 -1.98275 -1.18134 0
M  V30 6793 C 643.412 -0.850367 -1.42681 0
M  V30 6794 O 644.597 -1.11244 -1.55014 0
M  V30 6795 C 641.737 -2.36861 -2.5098 0
M  V30 6796 C 640.85 -3.63391 -2.33605 0
M  V30 6797 C 639.985 -3.91079 -3.59486 0
M  V30 6798 C 639.024 -5.10879 -3.37149 0
M  V30 6799 N 638.161 -5.34577 -4.55161 0
M  V30 6800 H 643.001 -2.8645 -0.821622 0
M  V30 6801 H 640.538 -1.41718 -0.394248 0
M  V30 6802 H 642.496 -2.57262 -3.28439 0
M  V30 6803 H 641.126 -1.51766 -2.84898 0
M  V30 6804 H 640.178 -3.50766 -1.47199 0
M  V30 6805 H 641.49 -4.51007 -2.13059 0
M  V30 6806 H 640.644 -4.11979 -4.45374 0
M  V30 6807 H 639.383 -3.01885 -3.83036 0
M  V30 6808 H 638.388 -4.89853 -2.49649 0
M  V30 6809 H 639.613 -6.01626 -3.14997 0
M  V30 6810 H 637.559 -4.48337 -4.78884 0
M  V30 6811 H 637.476 -6.16463 -4.37618 0
M  V30 6812 H 638.744 -5.59975 -5.42263 0
M  V30 6813 N 642.974 0.416227 -1.52004 0
M  V30 6814 C 643.904 1.51365 -1.77795 0
M  V30 6815 C 644.885 1.58059 -0.628601 0
M  V30 6816 O 646.07 1.73447 -0.873478 0
M  V30 6817 C 643.2 2.89256 -1.92219 0
M  V30 6818 C 642.154 2.97415 -3.0778 0
M  V30 6819 C 641.48 4.37492 -3.07417 0
M  V30 6820 C 642.78 2.69551 -4.47369 0
M  V30 6821 H 644.474 1.30033 -2.69688 0
M  V30 6822 H 642.02 0.624112 -1.29772 0
M  V30 6823 H 643.973 3.66008 -2.08845 0
M  V30 6824 H 642.697 3.11866 -0.969917 0
M  V30 6825 H 641.356 2.23107 -2.90893 0
M  V30 6826 H 641.004 4.571 -2.09925 0
M  V30 6827 H 640.704 4.43877 -3.85029 0
M  V30 6828 H 642.228 5.16188 -3.26162 0
M  V30 6829 H 643.642 3.36028 -4.64497 0
M  V30 6830 H 642.039 2.87321 -5.26846 0
M  V30 6831 H 643.109 1.65029 -4.55953 0
M  V30 6832 N 644.452 1.42507 0.673017 0
M  V30 6833 C 645.415 1.4582 1.76831 0
M  V30 6834 C 646.415 0.345542 1.57043 0
M  V30 6835 O 647.605 0.606447 1.63303 0
M  V30 6836 C 644.737 1.29158 3.15485 0
M  V30 6837 H 645.93 2.43345 1.7528 0
M  V30 6838 H 643.483 1.28981 0.882817 0
M  V30 6839 H 644.218 0.325626 3.22661 0
M  V30 6840 H 644.003 2.09797 3.31252 0
M  V30 6841 H 645.493 1.34363 3.95394 0
M  V30 6842 N 645.93 -0.909495 1.28709 0
M  V30 6843 C 646.893 -1.99399 1.13016 0
M  V30 6844 C 647.893 -1.60654 0.068536 0
M  V30 6845 O 649.083 -1.71334 0.314671 0
M  V30 6846 C 646.215 -3.33078 0.726085 0
M  V30 6847 H 647.408 -2.14751 2.09338 0
M  V30 6848 H 644.961 -1.09272 1.11756 0
M  V30 6849 H 645.696 -3.23428 -0.23771 0
M  V30 6850 H 645.481 -3.62562 1.49302 0
M  V30 6851 H 646.971 -4.12681 0.639058 0
M  V30 6852 N 647.408 -1.11026 -1.11852 0
M  V30 6853 C 648.633 -0.879064 -1.87849 0
M  V30 6854 C 649.058 0.565406 -1.79401 0
M  V30 6855 O 648.416 1.39886 -1.15333 0
M  V30 6856 C 648.464 -1.33985 -3.34784 0
M  V30 6857 O 647.568 -0.508803 -4.09249 0
M  V30 6858 H 646.909 -0.316992 -0.583448 0
M  V30 6859 H 649.439 -1.47863 -1.41413 0
M  V30 6860 H 649.449 -1.33248 -3.85628 0
M  V30 6861 H 648.124 -2.39172 -3.40249 0
M  V30 6862 H 646.701 -0.581913 -3.68332 0
M  V30 6863 N 648.886 1.2938 -0.899927 0
M  V30 6864 C 650.134 1.95164 -0.524924 0
M  V30 6865 C 650.455 1.71292 0.931888 0
M  V30 6866 O 649.725 1.04481 1.65712 0
M  V30 6867 H 648.305 0.722133 -0.191135 0
M  V30 6868 H 650.967 1.57628 -1.14627 0
M  V30 6869 H 650.063 3.0397 -0.707711 0
M  V30 6870 N 650.364 0.662433 1.43002 0
M  V30 6871 C 651.604 0.183312 2.03576 0
M  V30 6872 C 651.968 -1.18354 1.51183 0
M  V30 6873 O 653.169 -1.7566 2.03462 0
M  V30 6874 C 651.44 0.202908 3.56824 0
M  V30 6875 S 652.999 -0.20702 4.38311 0
M  V30 6876 H 649.817 0.0765001 0.706872 0
M  V30 6877 H 652.419 0.872827 1.74934 0
M  V30 6878 H 651.123 1.20028 3.92456 0
M  V30 6879 H 650.654 -0.506845 3.90121 0
M  V30 6880 H 652.669 -1.44358 4.74737 0
M  V30 6881 N 651.842 -1.52309 0.404946 0
M  V30 6882 C 653.091 -2.00952 -0.173529 0
M  V30 6883 C 653.404 -1.29512 -1.46581 0
M  V30 6884 O 654.61 -1.6895 -2.12528 0
M  V30 6885 C 653.066 -3.58097 -0.359801 0
M  V30 6886 C 652.674 -4.38449 0.920138 0
M  V30 6887 C 654.418 -4.14984 -0.893794 0
M  V30 6888 C 652.325 -5.87227 0.701285 0
M  V30 6889 H 651.255 -0.750871 -0.0686244 0
M  V30 6890 H 653.906 -1.75687 0.529749 0
M  V30 6891 H 652.288 -3.79675 -1.12531 0
M  V30 6892 H 653.462 -4.28633 1.69147 0
M  V30 6893 H 651.777 -3.92859 1.38024 0
M  V30 6894 H 654.374 -5.23813 -1.0735 0
M  V30 6895 H 654.717 -3.72072 -1.8673 0
M  V30 6896 H 655.25 -3.97358 -0.187453 0
M  V30 6897 H 651.989 -6.34491 1.64624 0
M  V30 6898 H 651.509 -5.99792 -0.0308288 0
M  V30 6899 H 653.188 -6.46096 0.341846 0
M  V30 6900 N 653.32 -0.135238 -1.57019 0
M  V30 6901 C 654.25 0.805235 -2.19176 0
M  V30 6902 C 655.231 1.2656 -1.13651 0
M  V30 6903 O 656.416 1.32528 -1.4195 0
M  V30 6904 C 653.546 2.04914 -2.80406 0
M  V30 6905 C 652.5 1.72598 -3.91655 0
M  V30 6906 C 651.826 3.04154 -4.39766 0
M  V30 6907 C 653.126 0.981709 -5.12991 0
M  V30 6908 H 654.82 0.287232 -2.98019 0
M  V30 6909 H 652.366 0.136714 -1.4335 0
M  V30 6910 H 654.319 2.71178 -3.22553 0
M  V30 6911 H 653.043 2.59067 -1.98877 0
M  V30 6912 H 651.702 1.08717 -3.50109 0
M  V30 6913 H 651.35 3.56274 -3.55075 0
M  V30 6914 H 651.05 2.83299 -5.14796 0
M  V30 6915 H 652.574 3.71509 -4.84576 0
M  V30 6916 H 653.988 1.5462 -5.52056 0
M  V30 6917 H 652.385 0.873533 -5.93708 0
M  V30 6918 H 653.455 -0.0286887 -4.84892 0
M  V30 6919 N 654.798 1.5699 0.138552 0
M  V30 6920 C 656.046 1.83446 0.848053 0
M  V30 6921 C 656.367 0.71744 1.81322 0
M  V30 6922 O 655.637 -0.260228 1.94164 0
M  V30 6923 H 654.217 0.676792 0.316166 0
M  V30 6924 H 656.879 1.94462 0.130538 0
M  V30 6925 H 655.975 2.78677 1.40518 0
M  V30 6926 N 656.276 -0.40816 1.52223 0
M  V30 6927 C 657.524 -1.15274 1.66001 0
M  V30 6928 C 657.845 -1.91003 0.392803 0
M  V30 6929 O 657.115 -1.8673 -0.592336 0
M  V30 6930 H 655.695 -0.428526 0.611861 0
M  V30 6931 H 658.357 -0.46512 1.89269 0
M  V30 6932 H 657.453 -1.86628 2.50153 0
M  V30 6933 N 657.755 -1.42862 -0.66545 0
M  V30 6934 C 659.004 -1.43119 -1.42126 0
M  V30 6935 C 659.317 -0.0545297 -1.95524 0
M  V30 6936 O 660.523 0.0654747 -2.71421 0
M  V30 6937 C 658.979 -2.51797 -2.5715 0
M  V30 6938 C 658.587 -3.95514 -2.10411 0
M  V30 6939 C 660.331 -2.61233 -3.346 0
M  V30 6940 C 658.238 -4.95682 -3.22573 0
M  V30 6941 H 657.168 -0.532349 -0.533966 0
M  V30 6942 H 659.819 -1.68806 -0.719506 0
M  V30 6943 H 658.201 -2.19292 -3.29738 0
M  V30 6944 H 659.375 -4.3742 -1.44915 0
M  V30 6945 H 657.69 -3.90012 -1.45874 0
M  V30 6946 H 660.287 -3.33248 -4.18151 0
M  V30 6947 H 660.63 -1.65896 -3.81817 0
M  V30 6948 H 661.163 -2.9298 -2.69087 0
M  V30 6949 H 657.902 -5.92529 -2.80338 0
M  V30 6950 H 657.422 -4.58399 -3.86821 0
M  V30 6951 H 659.101 -5.17828 -3.87896 0
M  V30 6952 N 659.233 0.902656 -1.29189 0
M  V30 6953 C 660.163 2.02294 -1.16616 0
M  V30 6954 C 661.144 1.6999 -0.0611175 0
M  V30 6955 O 662.329 1.9271 -0.240072 0
M  V30 6956 C 659.459 3.37018 -0.83882 0
M  V30 6957 C 658.413 3.83522 -1.89986 0
M  V30 6958 C 657.739 5.15337 -1.42589 0
M  V30 6959 C 659.039 4.04169 -3.30824 0
M  V30 6960 H 660.733 2.13071 -2.10336 0
M  V30 6961 H 658.279 1.02378 -1.01266 0
M  V30 6962 H 660.232 4.14895 -0.737584 0
M  V30 6963 H 658.956 3.26325 0.134071 0
M  V30 6964 H 657.615 3.07859 -1.99043 0
M  V30 6965 H 657.263 5.01056 -0.441759 0
M  V30 6966 H 656.963 5.47423 -2.13547 0
M  V30 6967 H 658.487 5.95758 -1.3381 0
M  V30 6968 H 659.901 4.72537 -3.24626 0
M  V30 6969 H 658.298 4.47604 -3.99713 0
M  V30 6970 H 659.368 3.08604 -3.74021 0
M  V30 6971 N 660.711 1.11618 1.11262 0
M  V30 6972 C 661.957 0.867463 1.83311 0
M  V30 6973 C 662.29 -0.605366 1.84524 0
M  V30 6974 O 661.565 -1.44704 1.29965 0
M  V30 6975 C 661.848 1.43207 3.30399 0
M  V30 6976 C 661.701 2.97265 3.3757 0
M  V30 6977 C 663.02 1.08454 4.26528 0
M  V30 6978 H 660.139 0.316578 0.665543 0
M  V30 6979 H 662.781 1.38137 1.30454 0
M  V30 6980 H 660.931 0.994982 3.75543 0
M  V30 6981 H 662.603 3.49591 3.00971 0
M  V30 6982 H 660.846 3.33237 2.77733 0
M  V30 6983 H 661.517 3.31859 4.41105 0
M  V30 6984 H 663.993 1.4619 3.89574 0
M  V30 6985 H 662.869 1.50633 5.27826 0
M  V30 6986 H 663.13 -0.00444568 4.421 0
M  V30 6987 N 662.189 -1.289 0.906776 0
M  V30 6988 C 663.435 -1.95558 0.53712 0
M  V30 6989 C 663.768 -1.71262 -0.915582 0
M  V30 6990 O 663.043 -1.02961 -1.65013 0
M  V30 6991 C 663.326 -3.50198 0.838645 0
M  V30 6992 C 663.179 -3.83923 2.34357 0
M  V30 6993 C 664.498 -4.38861 0.329988 0
M  V30 6994 H 661.617 -0.710289 0.196617 0
M  V30 6995 H 664.259 -1.52392 1.13475 0
M  V30 6996 H 662.409 -3.87096 0.330024 0
M  V30 6997 H 664.081 -3.56933 2.92227 0
M  V30 6998 H 662.324 -3.31215 2.80141 0
M  V30 6999 H 662.995 -4.91883 2.5051 0
M  V30 7000 H 665.471 -4.08996 0.765609 0
M  V30 7001 H 664.347 -5.45931 0.570105 0
M  V30 7002 H 664.608 -4.35352 -0.769511 0
M  V30 7003 N 663.667 -0.670007 -1.42649 0
M  V30 7004 C 664.63 0.00204659 -2.292 0
M  V30 7005 C 665.63 0.733817 -1.4308 0
M  V30 7006 O 666.82 0.57254 -1.64522 0
M  V30 7007 C 663.952 1.01359 -3.25483 0
M  V30 7008 H 665.145 -0.759696 -2.90118 0
M  V30 7009 H 662.698 -0.432105 -1.50208 0
M  V30 7010 H 663.433 1.80399 -2.69493 0
M  V30 7011 H 663.218 0.492323 -3.88997 0
M  V30 7012 H 664.708 1.4824 -3.90403 0
M  V30 7013 N 665.145 1.52092 -0.413018 0
M  V30 7014 C 666.075 2.30021 0.401567 0
M  V30 7015 C 667.056 1.34395 1.04269 0
M  V30 7016 O 668.241 1.63304 1.05097 0
M  V30 7017 C 665.371 3.12447 1.51638 0
M  V30 7018 C 664.325 4.16153 1.00005 0
M  V30 7019 C 663.651 4.86948 2.20875 0
M  V30 7020 C 664.951 5.22275 0.0513757 0
M  V30 7021 H 666.645 2.98365 -0.248704 0
M  V30 7022 H 664.191 1.4349 -0.121052 0
M  V30 7023 H 666.144 3.65733 2.09326 0
M  V30 7024 H 664.868 2.41879 2.19458 0
M  V30 7025 H 663.527 3.63882 0.445549 0
M  V30 7026 H 663.175 4.12905 2.8726 0
M  V30 7027 H 662.875 5.57057 1.86978 0
M  V30 7028 H 664.399 5.43048 2.79162 0
M  V30 7029 H 665.813 5.70778 0.537176 0
M  V30 7030 H 664.21 5.9977 -0.198977 0
M  V30 7031 H 665.28 4.76611 -0.892736 0
M  V30 7032 N 666.623 0.143563 1.56945 0
M  V30 7033 C 668.034 -0.37783 1.82837 0
M  V30 7034 C 668.385 -1.64967 1.06209 0
M  V30 7035 O 667.51 -2.14221 0.306291 0
M  V30 7036 C 668.105 -0.692274 3.31652 0
M  V30 7037 C 666.664 -1.1582 3.58138 0
M  V30 7038 C 665.811 -0.17951 2.76718 0
M  V30 7039 H 668.762 0.368317 1.54367 0
M  V30 7040 H 668.783 -1.54729 3.47619 0
M  V30 7041 H 668.295 0.233572 3.87397 0
M  V30 7042 H 666.396 -2.10011 3.07776 0
M  V30 7043 H 666.509 -1.08655 4.66616 0
M  V30 7044 H 664.873 -0.671458 2.4569 0
M  V30 7045 H 665.656 0.739865 3.35233 0
M  V30 7046 N 668.101 -1.57061 -0.130224 0
M  V30 7047 C 669.35 -1.83446 -0.838488 0
M  V30 7048 C 669.663 -0.727468 -1.81569 0
M  V30 7049 O 670.869 -0.877394 -2.56932 0
M  V30 7050 C 669.325 -3.25201 -1.54182 0
M  V30 7051 C 668.933 -4.4388 -0.606178 0
M  V30 7052 C 670.677 -3.60844 -2.23588 0
M  V30 7053 C 668.584 -5.76661 -1.31209 0
M  V30 7054 H 667.514 -0.684185 -0.316871 0
M  V30 7055 H 670.165 -1.83273 -0.0912059 0
M  V30 7056 H 668.547 -3.1981 -2.33533 0
M  V30 7057 H 669.721 -4.60545 0.153308 0
M  V30 7058 H 668.036 -4.16395 -0.0196705 0
M  V30 7059 H 670.633 -4.57313 -2.77072 0
M  V30 7060 H 670.976 -2.87724 -3.00867 0
M  V30 7061 H 671.509 -3.67971 -1.51137 0
M  V30 7062 H 668.248 -6.52922 -0.580823 0
M  V30 7063 H 667.768 -5.63902 -2.04387 0
M  V30 7064 H 669.447 -6.20035 -1.8484 0
M  V30 7065 N 669.579 0.400081 -1.52437 0
M  V30 7066 C 670.807 1.16768 -1.70801 0
M  V30 7067 C 671.222 1.84036 -0.421462 0
M  V30 7068 O 670.579 1.72242 0.603228 0
M  V30 7069 C 670.63 2.22403 -2.8499 0
M  V30 7070 O 670.351 1.57879 -4.08663 0
M  V30 7071 C 671.852 3.11974 -3.1494 0
M  V30 7072 H 669.072 0.350533 -0.57216 0
M  V30 7073 H 671.616 0.469534 -1.99037 0
M  V30 7074 H 669.771 2.87871 -2.59247 0
M  V30 7075 H 670.185 2.27982 -4.7236 0
M  V30 7076 H 671.659 3.82148 -3.9833 0
M  V30 7077 H 672.136 3.74858 -2.28863 0
M  V30 7078 H 672.742 2.52165 -3.42481 0
M  V30 7079 N 671.057 1.43213 0.657864 0
M  V30 7080 C 672.306 1.43871 1.41365 0
M  V30 7081 C 672.619 0.064898 1.95492 0
M  V30 7082 O 673.825 -0.0510796 2.71452 0
M  V30 7083 C 672.281 2.53158 2.55811 0
M  V30 7084 C 671.889 3.96624 2.08311 0
M  V30 7085 C 673.633 2.63004 3.3321 0
M  V30 7086 C 671.54 4.97385 3.1994 0
M  V30 7087 H 670.47 0.535174 0.531136 0
M  V30 7088 H 673.121 1.69185 0.710543 0
M  V30 7089 H 671.503 2.21037 3.2857 0
M  V30 7090 H 672.677 4.38182 1.42593 0
M  V30 7091 H 670.992 3.90781 1.43804 0
M  V30 7092 H 673.589 3.3546 4.16378 0
M  V30 7093 H 673.932 1.67918 3.80932 0
M  V30 7094 H 674.465 2.94403 2.67529 0
M  V30 7095 H 671.204 5.94007 2.77192 0
M  V30 7096 H 670.724 4.60444 3.84385 0
M  V30 7097 H 672.403 5.19877 3.85145 0
M  V30 7098 N 672.536 -0.895792 1.29666 0
M  V30 7099 C 673.785 -1.64131 1.17234 0
M  V30 7100 C 674.098 -1.93665 -0.274416 0
M  V30 7101 O 675.304 -2.66472 -0.520105 0
M  V30 7102 C 673.76 -2.95764 2.05065 0
M  V30 7103 C 673.368 -2.7381 3.54587 0
M  V30 7104 C 675.112 -3.737 2.01367 0
M  V30 7105 C 673.019 -4.01194 4.34508 0
M  V30 7106 H 671.949 -0.615742 0.435175 0
M  V30 7107 H 674.6 -0.992626 1.54335 0
M  V30 7108 H 672.982 -3.61867 1.60837 0
M  V30 7109 H 674.156 -2.16277 4.06892 0
M  V30 7110 H 672.471 -2.09265 3.59996 0
M  V30 7111 H 675.068 -4.68152 2.58337 0
M  V30 7112 H 675.411 -4.04245 0.994575 0
M  V30 7113 H 675.944 -3.14444 2.43659 0
M  V30 7114 H 672.683 -3.75813 5.37071 0
M  V30 7115 H 672.203 -4.58272 3.86971 0
M  V30 7116 H 673.882 -4.69307 4.45376 0
M  V30 7117 N 674.014 -1.12206 -1.10668 0
M  V30 7118 C 675.261 -0.875875 -1.82578 0
M  V30 7119 C 675.589 0.598342 -1.85068 0
M  V30 7120 O 674.844 1.45818 -1.3052 0
M  V30 7121 C 675.143 -1.39276 -3.29146 0
M  V30 7122 C 674.809 -2.8816 -3.46806 0
M  V30 7123 C 673.471 -3.28813 -3.51334 0
M  V30 7124 C 675.823 -3.8401 -3.52399 0
M  V30 7125 C 673.151 -4.64028 -3.59019 0
M  V30 7126 C 675.503 -5.19053 -3.61617 0
M  V30 7127 C 674.167 -5.59252 -3.64408 0
M  V30 7128 H 673.437 -0.320505 -0.6681 0
M  V30 7129 H 676.084 -1.40184 -1.30464 0
M  V30 7130 H 674.389 -0.787207 -3.8381 0
M  V30 7131 H 676.086 -1.17851 -3.83291 0
M  V30 7132 H 672.676 -2.55716 -3.43958 0
M  V30 7133 H 676.86 -3.53698 -3.48154 0
M  V30 7134 H 672.116 -4.94568 -3.59461 0
M  V30 7135 H 676.29 -5.93152 -3.64889 0
M  V30 7136 H 673.917 -6.64017 -3.70116 0
M  V30 7137 N 675.492 1.28418 -0.913599 0
M  V30 7138 C 676.44 2.29272 -0.392037 0
M  V30 7139 C 677.434 1.61344 0.516198 0
M  V30 7140 O 678.64 1.75557 0.39746 0
M  V30 7141 H 675.015 0.744178 -0.108178 0
M  V30 7142 H 676.986 2.70691 -1.25574 0
M  V30 7143 C 675.735 3.45905 0.352815 0
M  V30 7144 H 675.058 3.98378 -0.336848 0
M  V30 7145 H 676.498 4.18473 0.682398 0
M  V30 7146 C 674.957 2.98572 1.56065 0
M  V30 7147 O 675.487 3.01033 2.65974 0
M  V30 7148 N 673.693 2.54235 1.40759 0
M  V30 7149 H 673.24 2.52432 0.513403 0
M  V30 7150 H 673.198 2.22925 2.21702 0
M  V30 7151 N 676.97 0.677563 1.42291 0
M  V30 7152 C 677.917 0.000947061 2.308 0
M  V30 7153 C 678.887 -0.789889 1.46116 0
M  V30 7154 O 680.072 -0.761578 1.74942 0
M  V30 7155 C 677.212 -0.942387 3.31984 0
M  V30 7156 C 676.325 -0.14508 4.31756 0
M  V30 7157 C 675.46 -1.08442 5.20013 0
M  V30 7158 C 674.499 -0.278958 6.11464 0
M  V30 7159 N 673.636 -1.17115 6.92263 0
M  V30 7160 H 678.476 0.761521 2.88106 0
M  V30 7161 H 676.013 0.38727 1.41911 0
M  V30 7162 H 677.971 -1.50317 3.89179 0
M  V30 7163 H 676.601 -1.66956 2.76271 0
M  V30 7164 H 675.653 0.532368 3.76656 0
M  V30 7165 H 676.965 0.48015 4.96484 0
M  V30 7166 H 676.119 -1.71504 5.81955 0
M  V30 7167 H 674.858 -1.74353 4.55469 0
M  V30 7168 H 673.863 0.364856 5.48588 0
M  V30 7169 H 675.088 0.376099 6.78058 0
M  V30 7170 H 673.034 -1.81661 6.30345 0
M  V30 7171 H 672.951 -0.601063 7.53607 0
M  V30 7172 H 674.219 -1.78915 7.58689 0
M  V30 7173 N 678.448 -1.51871 0.421078 0
M  V30 7174 C 679.695 -2.01938 -0.15079 0
M  V30 7175 C 680.023 -1.30611 -1.44121 0
M  V30 7176 O 679.278 -0.404631 -1.91471 0
M  V30 7177 C 679.577 -3.54764 -0.433292 0
M  V30 7178 C 679.243 -4.44288 0.76936 0
M  V30 7179 C 677.905 -4.68477 1.09921 0
M  V30 7180 C 680.257 -4.96915 1.57242 0
M  V30 7181 C 677.585 -5.4254 2.2331 0
M  V30 7182 C 679.937 -5.7222 2.69716 0
M  V30 7183 C 678.601 -5.94678 3.03174 0
M  V30 7184 H 677.871 -0.738943 -0.0551781 0
M  V30 7185 H 680.518 -1.82977 0.564945 0
M  V30 7186 H 678.823 -3.71968 -1.23074 0
M  V30 7187 H 680.52 -3.91023 -0.888922 0
M  V30 7188 H 677.11 -4.25646 0.502305 0
M  V30 7189 H 681.294 -4.78125 1.3308 0
M  V30 7190 H 676.55 -5.58146 2.49565 0
M  V30 7191 H 680.724 -6.11992 3.32323 0
M  V30 7192 H 678.351 -6.51848 3.9115 0
M  V30 7193 N 679.926 -0.151884 -1.56866 0
M  V30 7194 C 681.151 0.508044 -2.01081 0
M  V30 7195 C 681.576 1.57306 -1.03134 0
M  V30 7196 O 680.934 1.81298 -0.0078309 0
M  V30 7197 C 680.982 1.08106 -3.44014 0
M  V30 7198 O 680.086 2.19577 -3.49084 0
M  V30 7199 H 679.427 0.123757 -0.652365 0
M  V30 7200 H 681.957 -0.250055 -2.03066 0
M  V30 7201 H 681.967 1.40851 -3.82916 0
M  V30 7202 H 680.642 0.301168 -4.14808 0
M  V30 7203 H 679.219 1.88023 -3.22027 0
M  V30 7204 N 681.404 1.57128 0.121893 0
M  V30 7205 C 682.354 1.96556 1.15541 0
M  V30 7206 C 683.338 0.840147 1.37224 0
M  V30 7207 O 684.53 1.10382 1.38365 0
M  V30 7208 C 681.659 2.37097 2.48274 0
M  V30 7209 C 680.745 3.56265 2.30078 0
M  V30 7210 N 681.136 4.72041 1.81688 0
M  V30 7211 C 679.434 3.61841 2.60744 0
M  V30 7212 C 680.135 5.54075 1.77132 0
M  V30 7213 N 679.111 4.96483 2.21371 0
M  V30 7214 H 682.913 2.83531 0.77378 0
M  V30 7215 H 680.427 1.59019 0.329672 0
M  V30 7216 H 682.424 2.6356 3.2302 0
M  V30 7217 H 681.084 1.51486 2.87197 0
M  V30 7218 H 682.095 4.95313 1.51278 0
M  V30 7219 H 678.772 2.8683 3.03373 0
M  V30 7220 H 680.162 6.56939 1.40998 0
M  V30 7221 N 682.882 -0.391992 1.52647 0
M  V30 7222 C 684.129 -1.13732 1.67545 0
M  V30 7223 C 684.457 -1.90045 0.413881 0
M  V30 7224 O 683.712 -1.86157 -0.603646 0
M  V30 7225 C 684.011 -2.14401 2.85949 0
M  V30 7226 C 683.677 -1.54767 4.23507 0
M  V30 7227 C 682.339 -1.38229 4.60919 0
M  V30 7228 C 684.691 -1.11382 5.0916 0
M  V30 7229 C 682.019 -0.7685 5.81645 0
M  V30 7230 C 684.371 -0.514143 6.30507 0
M  V30 7231 C 683.035 -0.33604 6.66654 0
M  V30 7232 H 682.305 -0.416174 0.613091 0
M  V30 7233 H 684.952 -0.422327 1.86785 0
M  V30 7234 H 683.257 -2.92108 2.61114 0
M  V30 7235 H 684.954 -2.71974 2.94671 0
M  V30 7236 H 681.544 -1.68626 3.94035 0
M  V30 7237 H 685.728 -1.22962 4.80826 0
M  V30 7238 H 680.984 -0.618681 6.08262 0
M  V30 7239 H 685.158 -0.169657 6.96193 0
M  V30 7240 H 682.785 0.14166 7.60068 0
M  V30 7241 N 684.36 -1.4356 -0.65026 0
M  V30 7242 C 685.59 -1.48563 -1.4357 0
M  V30 7243 C 685.998 -0.103041 -1.88919 0
M  V30 7244 O 685.341 0.897602 -1.60277 0
M  V30 7245 C 685.403 -2.37181 -2.70158 0
M  V30 7246 C 685.067 -3.84673 -2.4673 0
M  V30 7247 C 686.064 -4.75704 -2.09765 0
M  V30 7248 C 683.749 -4.29189 -2.60963 0
M  V30 7249 C 685.743 -6.09249 -1.87334 0
M  V30 7250 C 683.43 -5.62787 -2.38147 0
M  V30 7251 C 684.428 -6.52634 -2.01389 0
M  V30 7252 O 684.116 -7.83761 -1.78813 0
M  V30 7253 H 683.848 -0.506743 -0.447423 0
M  V30 7254 H 686.402 -1.89001 -0.80423 0
M  V30 7255 H 684.632 -1.91636 -3.35876 0
M  V30 7256 H 686.321 -2.33354 -3.32116 0
M  V30 7257 H 687.087 -4.42589 -1.98343 0
M  V30 7258 H 682.966 -3.59529 -2.88548 0
M  V30 7259 H 686.51 -6.7934 -1.58567 0
M  V30 7260 H 682.407 -5.95469 -2.49173 0
M  V30 7261 H 683.175 -7.95368 -1.93214 0
M  V30 7262 N 685.838 0.888903 -1.30139 0
M  V30 7263 C 687.254 1.17153 -1.08385 0
M  V30 7264 C 687.454 2.0088 0.157925 0
M  V30 7265 O 686.51 2.37668 0.852652 0
M  V30 7266 C 687.823 1.882 -2.34523 0
M  V30 7267 C 689.371 2.00981 -2.39949 0
M  V30 7268 C 689.846 2.75441 -3.65918 0
M  V30 7269 N 691.337 2.82989 -3.66704 0
M  V30 7270 C 692.072 3.41167 -4.60861 0
M  V30 7271 N 691.568 4.00425 -5.6536 0
M  V30 7272 N 693.361 3.38944 -4.48412 0
M  V30 7273 H 685.512 0.33053 -2.09812 0
M  V30 7274 H 687.775 0.208964 -0.924683 0
M  V30 7275 H 687.481 1.34119 -3.25123 0
M  V30 7276 H 687.355 2.88609 -2.42868 0
M  V30 7277 H 689.742 2.54234 -1.4983 0
M  V30 7278 H 689.823 0.996725 -2.35582 0
M  V30 7279 H 689.467 2.22861 -4.56394 0
M  V30 7280 H 689.397 3.77118 -3.67546 0
M  V30 7281 H 691.888 2.40912 -2.91153 0
M  V30 7282 H 692.201 4.42871 -6.33313 0
M  V30 7283 H 690.546 3.98856 -5.69157 0
M  V30 7284 H 693.737 2.91875 -3.6596 0
M  V30 7285 H 693.91 3.83989 -5.21974 0
M  V30 7286 N 687.317 1.12792 1.10072 0
M  V30 7287 C 688.733 0.864745 1.34143 0
M  V30 7288 C 688.933 -0.503201 1.95116 0
M  V30 7289 O 687.989 -1.25111 2.19325 0
M  V30 7290 C 689.302 1.98413 2.25949 0
M  V30 7291 C 690.85 2.01545 2.39476 0
M  V30 7292 C 691.325 3.12727 3.34613 0
M  V30 7293 N 692.816 3.12194 3.42183 0
M  V30 7294 C 693.551 3.94862 4.15779 0
M  V30 7295 N 693.047 4.87528 4.92228 0
M  V30 7296 N 694.84 3.82985 4.11435 0
M  V30 7297 H 686.991 2.00926 0.68866 0
M  V30 7298 H 689.254 0.874564 0.365844 0
M  V30 7299 H 688.96 2.97005 1.88364 0
M  V30 7300 H 688.834 1.89254 3.26287 0
M  V30 7301 H 691.221 1.0357 2.76328 0
M  V30 7302 H 691.302 2.14777 1.3894 0
M  V30 7303 H 690.946 4.10936 2.98486 0
M  V30 7304 H 690.876 2.96732 4.35037 0
M  V30 7305 H 693.367 2.45065 2.87666 0
M  V30 7306 H 693.68 5.47109 5.45794 0
M  V30 7307 H 692.025 4.91539 4.9134 0
M  V30 7308 H 695.216 3.09923 3.50807 0
M  V30 7309 H 695.389 4.47641 4.68531 0
M  V30 7310 N 688.795 -1.27931 0.920396 0
M  V30 7311 C 689.727 -2.26175 0.371169 0
M  V30 7312 C 690.74 -1.55122 -0.494065 0
M  V30 7313 O 691.929 -1.75825 -0.30787 0
M  V30 7314 C 689.029 -3.35376 -0.487481 0
M  V30 7315 C 688.202 -4.35943 0.356772 0
M  V30 7316 C 687.261 -5.24374 -0.438042 0
M  V30 7317 O 686.287 -5.68998 0.151715 0
M  V30 7318 N 687.489 -5.53823 -1.73956 0
M  V30 7319 H 690.254 -2.73938 1.21564 0
M  V30 7320 H 687.815 -1.41482 0.787047 0
M  V30 7321 H 689.807 -3.91476 -1.02609 0
M  V30 7322 H 688.377 -2.87269 -1.23269 0
M  V30 7323 H 687.597 -3.7921 1.07672 0
M  V30 7324 H 688.885 -5.0015 0.934206 0
M  V30 7325 H 688.283 -5.19413 -2.24114 0
M  V30 7326 H 686.84 -6.12653 -2.22486 0
M  V30 7327 N 690.273 -0.685099 -1.4193 0
M  V30 7328 C 691.22 -0.0131869 -2.30796 0
M  V30 7329 C 692.19 0.782129 -1.46533 0
M  V30 7330 O 693.375 0.75229 -1.75343 0
M  V30 7331 C 690.515 0.924768 -3.32479 0
M  V30 7332 C 689.628 0.122181 -4.31827 0
M  V30 7333 C 688.763 1.05682 -5.20581 0
M  V30 7334 C 687.802 0.246526 -6.11603 0
M  V30 7335 N 686.939 1.13442 -6.92875 0
M  V30 7336 H 691.779 -0.776789 -2.87698 0
M  V30 7337 H 689.316 -0.394791 -1.41703 0
M  V30 7338 H 691.274 1.48251 -3.89971 0
M  V30 7339 H 689.904 1.65488 -2.77152 0
M  V30 7340 H 688.956 -0.552335 -3.76369 0
M  V30 7341 H 690.268 -0.506473 -4.96222 0
M  V30 7342 H 689.422 1.68415 -5.82856 0
M  V30 7343 H 688.161 1.71935 -4.56388 0
M  V30 7344 H 687.166 -0.393944 -5.48387 0
M  V30 7345 H 688.391 -0.412053 -6.77849 0
M  V30 7346 H 686.337 1.78316 -6.313 0
M  V30 7347 H 686.254 0.561089 -7.53915 0
M  V30 7348 H 687.522 1.74889 -7.59628 0
M  V30 7349 N 691.751 1.51645 -0.429126 0
M  V30 7350 C 692.714 2.26116 0.374726 0
M  V30 7351 C 693.714 1.29242 0.956714 0
M  V30 7352 O 694.904 1.53022 0.832452 0
M  V30 7353 C 692.036 3.04669 1.52937 0
M  V30 7354 H 693.229 2.9861 -0.277818 0
M  V30 7355 H 690.782 1.55236 -0.182097 0
M  V30 7356 H 691.517 2.36571 2.21821 0
M  V30 7357 H 691.302 3.75814 1.11833 0
M  V30 7358 H 692.792 3.61102 2.09751 0
M  V30 7359 N 693.229 0.160201 1.56784 0
M  V30 7360 C 694.159 -0.770264 2.2043 0
M  V30 7361 C 695.14 -1.24736 1.15651 0
M  V30 7362 O 696.325 -1.30253 1.44041 0
M  V30 7363 C 693.455 -2.00427 2.83631 0
M  V30 7364 C 692.409 -1.66345 3.94352 0
M  V30 7365 C 691.735 -2.97119 4.4455 0
M  V30 7366 C 693.035 -0.899972 5.14488 0
M  V30 7367 H 694.729 -0.239783 2.98438 0
M  V30 7368 H 692.275 -0.113891 1.43549 0
M  V30 7369 H 694.228 -2.66012 3.26827 0
M  V30 7370 H 692.952 -2.5587 2.02973 0
M  V30 7371 H 691.611 -1.03133 3.51794 0
M  V30 7372 H 691.259 -3.5058 3.60698 0
M  V30 7373 H 690.959 -2.75073 5.19238 0
M  V30 7374 H 692.483 -3.63753 4.90425 0
M  V30 7375 H 693.897 -1.45818 5.54446 0
M  V30 7376 H 692.294 -0.778968 5.95023 0
M  V30 7377 H 693.364 0.105827 4.84785 0
M  V30 7378 N 694.707 -1.5719 -0.113559 0
M  V30 7379 C 695.617 -2.04041 -1.15777 0
M  V30 7380 C 696.633 -0.961812 -1.45001 0
M  V30 7381 O 697.809 -1.2737 -1.56009 0
M  V30 7382 C 694.874 -2.43994 -2.46308 0
M  V30 7383 C 693.935 -3.65962 -2.24433 0
M  V30 7384 C 693.168 -4.04 -3.4874 0
M  V30 7385 O 693.391 -3.42321 -4.56259 0
M  V30 7386 O 692.325 -4.97069 -3.3942 0
M  V30 7387 H 696.151 -2.93248 -0.789899 0
M  V30 7388 H 693.736 -1.45828 -0.324748 0
M  V30 7389 H 695.618 -2.70401 -3.23204 0
M  V30 7390 H 694.293 -1.57932 -2.82558 0
M  V30 7391 H 693.2 -3.44697 -1.45377 0
M  V30 7392 H 694.533 -4.52746 -1.93084 0
M  V30 7393 N 696.185 0.383891 -1.52853 0
M  V30 7394 C 697.148 1.45197 -1.77343 0
M  V30 7395 C 698.148 1.47362 -0.643522 0
M  V30 7396 O 699.338 1.48443 -0.911613 0
M  V30 7397 C 696.47 2.8445 -1.87885 0
M  V30 7398 H 697.663 1.24764 -2.72716 0
M  V30 7399 H 695.216 0.615939 -1.43652 0
M  V30 7400 H 695.951 3.10222 -0.94515 0
M  V30 7401 H 695.736 2.8428 -2.70051 0
M  V30 7402 H 697.226 3.61832 -2.08488 0
M  V30 7403 N 697.663 1.43903 0.642637 0
M  V30 7404 C 698.626 1.49538 1.73698 0
M  V30 7405 C 699.626 0.378776 1.56275 0
M  V30 7406 O 700.816 0.64095 1.6198 0
M  V30 7407 C 697.948 1.35821 3.12675 0
M  V30 7408 H 699.141 2.47008 1.70079 0
M  V30 7409 H 696.694 1.30824 0.85526 0
M  V30 7410 H 697.429 0.393994 3.21898 0
M  V30 7411 H 697.214 2.16776 3.26727 0
M  V30 7412 H 698.704 1.4272 3.92455 0
M  V30 7413 N 699.141 -0.881989 1.30609 0
M  V30 7414 C 700.387 -1.63647 1.19781 0
M  V30 7415 C 700.72 -1.92632 -0.246265 0
M  V30 7416 O 699.995 -1.54938 -1.17577 0
M  V30 7417 C 700.278 -2.97437 2.02985 0
M  V30 7418 C 700.131 -2.75406 3.55628 0
M  V30 7419 C 701.45 -3.98397 1.86997 0
M  V30 7420 H 698.569 -0.593841 0.436488 0
M  V30 7421 H 701.211 -1.02041 1.60273 0
M  V30 7422 H 699.361 -3.50018 1.68581 0
M  V30 7423 H 701.033 -2.2959 4.00107 0
M  V30 7424 H 699.276 -2.09856 3.79662 0
M  V30 7425 H 699.947 -3.70552 4.09139 0
M  V30 7426 H 702.423 -3.54986 2.17081 0
M  V30 7427 H 701.299 -4.89916 2.47536 0
M  V30 7428 H 701.56 -4.3424 0.829943 0
M  V30 7429 N 700.619 -1.13374 -1.09472 0
M  V30 7430 C 702.035 -0.871846 -1.33682 0
M  V30 7431 C 702.235 0.492847 -1.9538 0
M  V30 7432 O 701.291 1.23946 -2.19985 0
M  V30 7433 C 702.604 -1.99608 -2.24893 0
M  V30 7434 C 704.152 -2.02812 -2.38404 0
M  V30 7435 C 704.627 -3.14497 -3.3295 0
M  V30 7436 N 706.118 -3.14004 -3.40523 0
M  V30 7437 C 706.853 -3.97061 -4.13679 0
M  V30 7438 N 706.349 -4.90131 -4.89636 0
M  V30 7439 N 708.142 -3.85162 -4.09398 0
M  V30 7440 H 700.293 -2.01288 -0.677995 0
M  V30 7441 H 702.556 -0.876492 -0.361201 0
M  V30 7442 H 702.262 -2.98 -1.86786 0
M  V30 7443 H 702.136 -1.90981 -3.25278 0
M  V30 7444 H 704.523 -1.05034 -2.75775 0
M  V30 7445 H 704.604 -2.15511 -1.37799 0
M  V30 7446 H 704.248 -4.12514 -2.96302 0
M  V30 7447 H 704.178 -2.99035 -4.33458 0
M  V30 7448 H 706.669 -2.46587 -2.86362 0
M  V30 7449 H 706.982 -5.49996 -5.42885 0
M  V30 7450 H 705.327 -4.94138 -4.88726 0
M  V30 7451 H 708.518 -3.11779 -3.49158 0
M  V30 7452 H 708.691 -4.5012 -4.6615 0
M  V30 7453 N 702.098 1.27442 -0.927168 0
M  V30 7454 C 703.046 2.28844 -0.416333 0
M  V30 7455 C 704.04 1.61882 0.499057 0
M  V30 7456 O 705.246 1.75969 0.378817 0
M  V30 7457 H 701.621 0.742989 -0.116065 0
M  V30 7458 H 703.592 2.69344 -1.28438 0
M  V30 7459 C 702.341 3.4626 0.316107 0
M  V30 7460 H 701.664 3.97999 -0.379082 0
M  V30 7461 H 703.104 4.19173 0.637975 0
M  V30 7462 C 701.563 3.00211 1.5289 0
M  V30 7463 O 702.093 3.03837 2.62766 0
M  V30 7464 N 700.299 2.55713 1.38054 0
M  V30 7465 H 699.846 2.52962 0.4866 0
M  V30 7466 H 699.804 2.25264 2.19325 0
M  V30 7467 N 703.576 0.692616 1.41565 0
M  V30 7468 C 704.801 0.229776 2.06123 0
M  V30 7469 C 705.226 -1.11119 1.5177 0
M  V30 7470 O 704.584 -1.69498 0.643444 0
M  V30 7471 C 704.632 0.19469 3.60074 0
M  V30 7472 O 703.736 -0.831366 4.03933 0
M  V30 7473 H 703.077 0.113002 0.654314 0
M  V30 7474 H 705.607 0.946645 1.81383 0
M  V30 7475 H 705.617 0.0245487 4.07993 0
M  V30 7476 H 704.292 1.17339 3.99004 0
M  V30 7477 H 702.869 -0.630819 3.67526 0
M  V30 7478 N 705.054 -1.51416 0.437162 0
M  V30 7479 C 706.002 -2.29328 -0.388765 0
M  V30 7480 C 706.996 -1.35171 -1.02104 0
M  V30 7481 O 708.202 -1.52513 -0.956024 0
M  V30 7482 H 704.577 -0.738048 -0.144183 0
M  V30 7483 H 706.548 -2.96995 0.289212 0
M  V30 7484 C 705.297 -3.14741 -1.47761 0
M  V30 7485 H 704.62 -3.8708 -1.00045 0
M  V30 7486 H 706.06 -3.72313 -2.02877 0
M  V30 7487 C 704.519 -2.30105 -2.46076 0
M  V30 7488 O 705.049 -1.96055 -3.50607 0
M  V30 7489 N 703.255 -1.93331 -2.1696 0
M  V30 7490 H 702.802 -2.2122 -1.31983 0
M  V30 7491 H 702.76 -1.36999 -2.82982 0
M  V30 7492 N 706.532 -0.168513 -1.56696 0
M  V30 7493 C 707.482 0.7751 -2.14421 0
M  V30 7494 C 708.466 1.19476 -1.07769 0
M  V30 7495 O 709.658 1.15759 -1.33898 0
M  V30 7496 C 706.787 2.00549 -2.7863 0
M  V30 7497 C 705.873 1.60795 -3.92436 0
M  V30 7498 N 706.264 0.919812 -4.97366 0
M  V30 7499 C 704.562 1.89917 -4.03544 0
M  V30 7500 C 705.263 0.724485 -5.77171 0
M  V30 7501 N 704.239 1.26505 -5.28675 0
M  V30 7502 H 708.041 0.240349 -2.92916 0
M  V30 7503 H 705.555 0.0322675 -1.62368 0
M  V30 7504 H 707.552 2.6917 -3.1836 0
M  V30 7505 H 706.212 2.54522 -2.01615 0
M  V30 7506 H 707.223 0.578169 -5.14663 0
M  V30 7507 H 703.9 2.45587 -3.37629 0
M  V30 7508 H 705.29 0.180521 -6.71657 0
M  V30 7509 N 708.01 1.57248 0.105221 0
M  V30 7510 C 708.942 1.98008 1.15436 0
M  V30 7511 C 709.955 0.881236 1.36887 0
M  V30 7512 O 711.144 1.15943 1.35718 0
M  V30 7513 C 708.244 2.27509 2.51183 0
M  V30 7514 C 707.417 3.58811 2.50147 0
M  V30 7515 C 706.476 3.76365 3.67745 0
M  V30 7516 O 705.502 4.48329 3.50699 0
M  V30 7517 N 706.704 3.16174 4.86841 0
M  V30 7518 H 709.469 2.88616 0.807519 0
M  V30 7519 H 707.03 1.59202 0.29433 0
M  V30 7520 H 709.022 2.36455 3.28438 0
M  V30 7521 H 707.592 1.42959 2.77995 0
M  V30 7522 H 706.812 3.60927 1.5851 0
M  V30 7523 H 708.1 4.45088 2.46524 0
M  V30 7524 H 707.498 2.57701 5.03594 0
M  V30 7525 H 706.055 3.30621 5.61723 0
M  V30 7526 N 709.488 -0.375779 1.53054 0
M  V30 7527 C 710.398 -1.48381 1.81715 0
M  V30 7528 C 711.414 -1.59087 0.704795 0
M  V30 7529 O 712.59 -1.75174 0.993785 0
M  V30 7530 C 709.655 -2.83767 1.99192 0
M  V30 7531 C 708.716 -2.82673 3.23102 0
M  V30 7532 C 707.949 -4.11601 3.39736 0
M  V30 7533 O 708.172 -5.07243 2.60885 0
M  V30 7534 O 707.106 -4.18034 4.33049 0
M  V30 7535 H 710.932 -1.27089 2.7583 0
M  V30 7536 H 708.517 -0.564902 1.38308 0
M  V30 7537 H 710.399 -3.64004 2.12318 0
M  V30 7538 H 709.074 -3.05057 1.08267 0
M  V30 7539 H 707.981 -2.0117 3.15407 0
M  V30 7540 H 709.314 -2.66335 4.13916 0
M  V30 7541 N 710.966 -1.44241 -0.634997 0
M  V30 7542 C 712.213 -1.46821 -1.39463 0
M  V30 7543 C 712.541 -0.0993362 -1.94246 0
M  V30 7544 O 711.796 0.898325 -1.73864 0
M  V30 7545 C 712.095 -2.47279 -2.58046 0
M  V30 7546 C 711.761 -3.92703 -2.21574 0
M  V30 7547 C 710.423 -4.32306 -2.1134 0
M  V30 7548 C 712.775 -4.84271 -1.92695 0
M  V30 7549 C 710.103 -5.61407 -1.70409 0
M  V30 7550 C 712.455 -6.13755 -1.53258 0
M  V30 7551 C 711.119 -6.52316 -1.41562 0
M  V30 7552 H 710.389 -0.537256 -0.51033 0
M  V30 7553 H 713.036 -1.77431 -0.720441 0
M  V30 7554 H 711.341 -2.10138 -3.3068 0
M  V30 7555 H 713.038 -2.46523 -3.16271 0
M  V30 7556 H 709.628 -3.61369 -2.30456 0
M  V30 7557 H 713.812 -4.54432 -1.99513 0
M  V30 7558 H 709.068 -5.90105 -1.59955 0
M  V30 7559 H 713.242 -6.84168 -1.29949 0
M  V30 7560 H 710.869 -7.52255 -1.09619 0
M  V30 7561 N 712.444 0.87505 -1.31075 0
M  V30 7562 C 713.354 2.01441 -1.20244 0
M  V30 7563 C 714.37 1.73584 -0.120227 0
M  V30 7564 O 715.546 1.98559 -0.337063 0
M  V30 7565 C 712.611 3.34675 -0.905199 0
M  V30 7566 C 711.672 3.75889 -2.0738 0
M  V30 7567 C 710.905 5.02764 -1.79064 0
M  V30 7568 O 711.128 5.65795 -0.723318 0
M  V30 7569 O 710.062 5.40623 -2.64594 0
M  V30 7570 H 713.888 2.13509 -2.1598 0
M  V30 7571 H 711.473 1.00257 -1.10765 0
M  V30 7572 H 713.355 4.1458 -0.755057 0
M  V30 7573 H 712.03 3.23692 0.0221695 0
M  V30 7574 H 710.937 2.96645 -2.27931 0
M  V30 7575 H 712.27 3.91489 -2.98324 0
M  V30 7576 N 713.922 1.13953 1.08869 0
M  V30 7577 C 715.199 0.815768 1.77777 0
M  V30 7578 C 715.579 -0.691624 1.99449 0
M  V30 7579 O 714.927 -1.63085 1.60049 0
M  V30 7580 C 715.137 1.60916 3.09689 0
M  V30 7581 C 716.485 1.80549 3.84301 0
M  V30 7582 O 717.509 1.57562 3.19457 0
M  V30 7583 O 716.368 2.18946 5.00724 0
M  V30 7584 H 713.462 0.298445 0.771271 0
M  V30 7585 H 716.008 1.24446 1.15374 0
M  V30 7586 H 714.78 2.6333 2.89435 0
M  V30 7587 H 714.403 1.17578 3.79817 0
M  V30 7588 N 715.4 -1.26948 0.933913 0
M  V30 7589 C 716.33 -2.29017 0.45534 0
M  V30 7590 C 717.311 -1.62961 -0.487605 0
M  V30 7591 O 718.496 -1.90223 -0.391022 0
M  V30 7592 C 715.626 -3.46112 -0.287015 0
M  V30 7593 C 714.58 -4.24205 0.568682 0
M  V30 7594 C 713.906 -5.3384 -0.303206 0
M  V30 7595 C 715.206 -4.88954 1.83633 0
M  V30 7596 H 716.9 -2.69298 1.30839 0
M  V30 7597 H 714.446 -1.29459 0.630579 0
M  V30 7598 H 716.399 -4.16622 -0.6328 0
M  V30 7599 H 715.123 -3.04765 -1.17414 0
M  V30 7600 H 713.782 -3.5545 0.897261 0
M  V30 7601 H 713.43 -4.88734 -1.18947 0
M  V30 7602 H 713.13 -5.86998 0.265879 0
M  V30 7603 H 714.654 -6.0719 -0.644423 0
M  V30 7604 H 716.068 -5.51717 1.55823 0
M  V30 7605 H 714.465 -5.52198 2.34941 0
M  V30 7606 H 715.535 -4.12305 2.55211 0
M  V30 7607 N 716.879 -0.700114 -1.41195 0
M  V30 7608 C 717.809 -0.0521132 -2.33442 0
M  V30 7609 C 718.79 0.76228 -1.52063 0
M  V30 7610 O 719.975 0.714336 -1.80585 0
M  V30 7611 C 717.105 0.881693 -3.35922 0
M  V30 7612 C 716.059 0.174062 -4.27646 0
M  V30 7613 C 715.385 1.22254 -5.20536 0
M  V30 7614 C 716.685 -0.962396 -5.13357 0
M  V30 7615 H 718.379 -0.822574 -2.87879 0
M  V30 7616 H 715.925 -0.397011 -1.38419 0
M  V30 7617 H 717.878 1.34429 -3.99383 0
M  V30 7618 H 716.602 1.68387 -2.79845 0
M  V30 7619 H 715.261 -0.268551 -3.65615 0
M  V30 7620 H 714.909 2.01736 -4.60773 0
M  V30 7621 H 714.609 0.754038 -5.82742 0
M  V30 7622 H 716.133 1.68555 -5.86874 0
M  V30 7623 H 717.547 -0.579875 -5.7036 0
M  V30 7624 H 715.944 -1.35828 -5.84526 0
M  V30 7625 H 717.014 -1.80003 -4.50252 0
M  V30 7626 N 718.357 1.51182 -0.445186 0
M  V30 7627 C 719.582 2.07056 0.119445 0
M  V30 7628 C 720.007 1.30966 1.35016 0
M  V30 7629 O 719.365 0.349827 1.77893 0
M  V30 7630 C 719.413 3.58234 0.412428 0
M  V30 7631 O 718.517 3.84249 1.49754 0
M  V30 7632 H 717.858 0.663998 -0.00157797 0
M  V30 7633 H 720.388 1.94699 -0.628779 0
M  V30 7634 H 720.398 4.02617 0.660583 0
M  V30 7635 H 719.073 4.13038 -0.487049 0
M  V30 7636 H 717.65 3.51724 1.23873 0
M  V30 7637 N 719.835 0.176821 1.56605 0
M  V30 7638 C 721.06 -0.47599 2.01864 0
M  V30 7639 C 721.485 -1.55645 1.05623 0
M  V30 7640 O 720.843 -1.81263 0.0366729 0
M  V30 7641 C 720.891 -1.02619 3.4569 0
M  V30 7642 O 719.995 -2.13996 3.52533 0
M  V30 7643 H 719.336 -0.113363 0.654251 0
M  V30 7644 H 721.866 0.28233 2.02643 0
M  V30 7645 H 721.876 -1.34742 3.85109 0
M  V30 7646 H 720.551 -0.235138 4.15235 0
M  V30 7647 H 719.128 -1.82876 3.24978 0
M  V30 7648 N 721.313 -1.57302 -0.09688 0
M  V30 7649 C 722.562 -1.85183 -0.799388 0
M  V30 7650 C 722.875 -0.765818 -1.79985 0
M  V30 7651 O 724.081 -0.931696 -2.55013 0
M  V30 7652 C 722.537 -3.28399 -1.47249 0
M  V30 7653 C 722.145 -4.45066 -0.511888 0
M  V30 7654 C 723.889 -3.65506 -2.15883 0
M  V30 7655 C 721.796 -5.79315 -1.18948 0
M  V30 7656 H 720.726 -0.690752 -0.302287 0
M  V30 7657 H 723.377 -1.83425 -0.0523104 0
M  V30 7658 H 721.759 -3.24692 -2.26697 0
M  V30 7659 H 722.933 -4.60116 0.250962 0
M  V30 7660 H 721.248 -4.16343 0.0686576 0
M  V30 7661 H 723.845 -4.63087 -2.67309 0
M  V30 7662 H 724.188 -2.94041 -2.94696 0
M  V30 7663 H 724.721 -3.71094 -1.43298 0
M  V30 7664 H 721.46 -6.54007 -0.442198 0
M  V30 7665 H 720.98 -5.68111 -1.9238 0
M  V30 7666 H 722.659 -6.23816 -1.71646 0
M  V30 7667 N 722.791 0.367657 -1.53252 0
M  V30 7668 C 724.068 1.12606 -1.59935 0
M  V30 7669 C 724.448 2.07167 -0.405606 0
M  V30 7670 O 723.796 2.20364 0.604323 0
M  V30 7671 C 724.006 1.86699 -2.94863 0
M  V30 7672 C 725.354 2.41306 -3.49366 0
M  V30 7673 O 726.378 1.96828 -2.96879 0
M  V30 7674 O 725.237 3.2261 -4.41118 0
M  V30 7675 H 722.331 0.516438 -0.645926 0
M  V30 7676 H 724.877 0.371088 -1.65593 0
M  V30 7677 H 723.649 1.17674 -3.73187 0
M  V30 7678 H 723.272 2.6911 -2.92687 0
M  V30 7679 N 724.269 1.44576 0.627338 0
M  V30 7680 C 725.517 1.47267 1.38408 0
M  V30 7681 C 725.838 0.107971 1.94701 0
M  V30 7682 O 725.108 -0.860206 1.76004 0
M  V30 7683 H 723.688 0.542276 0.513756 0
M  V30 7684 H 726.35 1.80383 0.738099 0
M  V30 7685 H 725.446 2.20025 2.21349 0
M  V30 7686 N 725.747 -0.868086 1.31537 0
M  V30 7687 C 726.993 -1.62367 1.2151 0
M  V30 7688 C 727.326 -1.92883 -0.225819 0
M  V30 7689 O 726.601 -1.56176 -1.15927 0
M  V30 7690 C 726.884 -2.95268 2.06129 0
M  V30 7691 C 726.737 -2.71619 3.58529 0
M  V30 7692 C 728.056 -3.96391 1.91212 0
M  V30 7693 H 725.175 -0.589178 0.442762 0
M  V30 7694 H 727.817 -1.00336 1.61347 0
M  V30 7695 H 725.967 -3.4821 1.72284 0
M  V30 7696 H 727.639 -2.25334 4.0252 0
M  V30 7697 H 725.882 -2.05817 3.81866 0
M  V30 7698 H 726.553 -3.66192 4.13047 0
M  V30 7699 H 729.029 -3.52663 2.20834 0
M  V30 7700 H 727.905 -4.87263 2.52718 0
M  V30 7701 H 728.166 -4.33335 0.875953 0
M  V30 7702 N 727.225 -1.14528 -1.08264 0
M  V30 7703 C 728.45 -0.938381 -1.84957 0
M  V30 7704 C 728.875 0.508044 -1.81109 0
M  V30 7705 O 728.233 1.36146 -1.19724 0
M  V30 7706 C 728.281 -1.44568 -3.30352 0
M  V30 7707 O 727.385 -0.638745 -4.07423 0
M  V30 7708 H 726.726 -0.335394 -0.573068 0
M  V30 7709 H 729.256 -1.52287 -1.36637 0
M  V30 7710 H 729.266 -1.45449 -3.81194 0
M  V30 7711 H 727.941 -2.49876 -3.32468 0
M  V30 7712 H 726.518 -0.698801 -3.66294 0
M  V30 7713 N 728.703 1.26451 -0.940633 0
M  V30 7714 C 729.613 2.30128 -0.455881 0
M  V30 7715 C 730.629 1.67536 0.469867 0
M  V30 7716 O 731.805 1.98344 0.349529 0
M  V30 7717 C 728.87 3.45634 0.271648 0
M  V30 7718 C 727.931 4.23709 -0.690594 0
M  V30 7719 C 727.164 5.337 0.00231047 0
M  V30 7720 O 727.387 5.57215 1.21935 0
M  V30 7721 O 726.321 5.98091 -0.676111 0
M  V30 7722 H 730.147 2.73655 -1.31707 0
M  V30 7723 H 727.732 1.3164 -0.706497 0
M  V30 7724 H 729.614 4.15853 0.681486 0
M  V30 7725 H 728.289 3.04138 1.10824 0
M  V30 7726 H 727.196 3.55974 -1.15037 0
M  V30 7727 H 728.529 4.68953 -1.49478 0
M  V30 7728 N 730.181 0.707592 1.40822 0
M  V30 7729 C 731.144 0.0587224 2.29125 0
M  V30 7730 C 732.144 -0.695624 1.44975 0
M  V30 7731 O 733.334 -0.528718 1.65983 0
M  V30 7732 C 730.466 -0.926939 3.28056 0
M  V30 7733 H 731.659 0.836349 2.88002 0
M  V30 7734 H 729.212 0.471778 1.4901 0
M  V30 7735 H 729.947 -1.7319 2.74182 0
M  V30 7736 H 729.732 -0.389015 3.90165 0
M  V30 7737 H 731.222 -1.37837 3.94196 0
M  V30 7738 N 731.66 -1.50943 0.453197 0
M  V30 7739 C 732.885 -2.07116 -0.108463 0
M  V30 7740 C 733.31 -1.31681 -1.3432 0
M  V30 7741 O 732.668 -0.359256 -1.77705 0
M  V30 7742 C 732.716 -3.58447 -0.393424 0
M  V30 7743 O 731.82 -3.85038 -1.47714 0
M  V30 7744 H 731.161 -0.66398 0.0050993 0
M  V30 7745 H 733.691 -1.94362 0.639095 0
M  V30 7746 H 733.701 -4.02961 -0.639222 0
M  V30 7747 H 732.376 -4.12774 0.508946 0
M  V30 7748 H 730.953 -3.52376 -1.22006 0
M  V30 7749 N 733.138 -0.185124 -1.56509 0
M  V30 7750 C 734.068 0.735098 -2.21627 0
M  V30 7751 C 735.049 1.2288 -1.1762 0
M  V30 7752 O 736.234 1.27945 -1.46095 0
M  V30 7753 C 733.364 1.95889 -2.86783 0
M  V30 7754 C 732.318 1.6005 -3.96948 0
M  V30 7755 C 731.644 2.90009 -4.4922 0
M  V30 7756 C 732.944 0.818008 -5.15855 0
M  V30 7757 H 734.638 0.192274 -2.98782 0
M  V30 7758 H 732.184 0.0910393 -1.43712 0
M  V30 7759 H 734.137 2.60779 -3.31017 0
M  V30 7760 H 732.861 2.52608 -2.07018 0
M  V30 7761 H 731.52 0.975237 -3.5339 0
M  V30 7762 H 731.168 3.44797 -3.6623 0
M  V30 7763 H 730.868 2.66778 -5.23549 0
M  V30 7764 H 732.392 3.55904 -4.9615 0
M  V30 7765 H 733.806 1.36979 -5.56695 0
M  V30 7766 H 732.203 0.684207 -5.96187 0
M  V30 7767 H 733.273 -0.182939 -4.84555 0
M  V30 7768 N 734.616 1.57351 0.0885366 0
M  V30 7769 C 735.526 2.05858 1.12516 0
M  V30 7770 C 736.542 0.984758 1.43452 0
M  V30 7771 O 737.718 1.29836 1.53963 0
M  V30 7772 C 734.783 2.47882 2.42395 0
M  V30 7773 C 733.844 3.69487 2.18582 0
M  V30 7774 C 733.077 4.09497 3.42268 0
M  V30 7775 O 733.3 3.49536 4.50755 0
M  V30 7776 O 732.234 5.02406 3.31469 0
M  V30 7777 H 736.06 2.94467 0.743146 0
M  V30 7778 H 733.645 1.46326 0.301507 0
M  V30 7779 H 735.527 2.75509 3.18862 0
M  V30 7780 H 734.202 1.62408 2.8001 0
M  V30 7781 H 733.109 3.46967 1.39875 0
M  V30 7782 H 734.442 4.55761 1.85857 0
M  V30 7783 N 736.094 -0.359525 1.53444 0
M  V30 7784 C 737.322 -1.12198 1.73837 0
M  V30 7785 C 737.737 -1.82854 0.470107 0
M  V30 7786 O 737.094 -1.73781 -0.557349 0
M  V30 7787 C 737.145 -2.14769 2.90786 0
M  V30 7788 O 736.866 -1.46989 4.12706 0
M  V30 7789 C 738.367 -3.03514 3.231 0
M  V30 7790 H 735.587 -0.33524 0.581253 0
M  V30 7791 H 738.131 -0.416598 2.00212 0
M  V30 7792 H 736.286 -2.80896 2.66788 0
M  V30 7793 H 736.7 -2.15378 4.78239 0
M  V30 7794 H 738.174 -3.71453 4.08322 0
M  V30 7795 H 738.651 -3.68658 2.38721 0
M  V30 7796 H 739.257 -2.42996 3.49046 0
M  V30 7797 N 737.572 -1.44907 -0.619662 0
M  V30 7798 C 738.797 -1.52021 -1.41083 0
M  V30 7799 C 739.222 -0.14976 -1.87503 0
M  V30 7800 O 738.58 0.863303 -1.59426 0
M  V30 7801 C 738.628 -2.49911 -2.59955 0
M  V30 7802 O 737.732 -2.00857 -3.60181 0
M  V30 7803 H 737.073 -0.512912 -0.421684 0
M  V30 7804 H 739.603 -1.90149 -0.755282 0
M  V30 7805 H 739.613 -2.68323 -3.07354 0
M  V30 7806 H 738.288 -3.4945 -2.25516 0
M  V30 7807 H 736.865 -1.92265 -3.19513 0
M  V30 7808 N 739.05 0.861098 -1.31996 0
M  V30 7809 C 740.466 1.14827 -1.10846 0
M  V30 7810 C 740.666 2.0117 0.11528 0
M  V30 7811 O 739.722 2.39423 0.802048 0
M  V30 7812 C 741.035 1.83183 -2.38462 0
M  V30 7813 C 742.583 1.95847 -2.44158 0
M  V30 7814 C 743.058 2.67617 -3.71679 0
M  V30 7815 N 744.549 2.75147 -3.72624 0
M  V30 7816 C 745.284 3.31314 -4.67994 0
M  V30 7817 N 744.78 3.88343 -5.73726 0
M  V30 7818 N 746.573 3.29356 -4.55501 0
M  V30 7819 H 738.724 0.285951 -2.10466 0
M  V30 7820 H 740.987 0.189303 -0.928907 0
M  V30 7821 H 740.693 1.27193 -3.27895 0
M  V30 7822 H 740.567 2.83393 -2.48935 0
M  V30 7823 H 742.954 2.50999 -1.55189 0
M  V30 7824 H 743.035 0.94653 -2.37644 0
M  V30 7825 H 742.679 2.13131 -4.61018 0
M  V30 7826 H 742.609 3.69237 -3.75462 0
M  V30 7827 H 745.1 2.34682 -2.96197 0
M  V30 7828 H 745.413 4.29338 -6.42564 0
M  V30 7829 H 743.758 3.86693 -5.77489 0
M  V30 7830 H 746.949 2.84047 -3.72069 0
M  V30 7831 H 747.122 3.7283 -5.30001 0
M  V30 7832 N 740.528 1.15101 1.07655 0
M  V30 7833 C 741.438 0.858869 2.18313 0
M  V30 7834 C 742.454 -0.163641 1.73229 0
M  V30 7835 O 743.63 0.00969541 2.01398 0
M  V30 7836 C 740.695 0.34893 3.4494 0
M  V30 7837 C 739.756 1.43495 4.04608 0
M  V30 7838 C 738.989 0.949253 5.2519 0
M  V30 7839 O 739.212 -0.20636 5.70027 0
M  V30 7840 O 738.146 1.73161 5.76454 0
M  V30 7841 H 741.972 1.78386 2.45788 0
M  V30 7842 H 739.557 0.929876 1.16934 0
M  V30 7843 H 741.439 0.070851 4.2134 0
M  V30 7844 H 740.114 -0.548237 3.19024 0
M  V30 7845 H 739.021 1.7666 3.29761 0
M  V30 7846 H 740.354 2.30692 4.3479 0
M  V30 7847 N 742.006 -1.2595 0.947325 0
M  V30 7848 C 743.234 -1.97544 0.615127 0
M  V30 7849 C 743.649 -1.70484 -0.811221 0
M  V30 7850 O 743.006 -0.97662 -1.5417 0
M  V30 7851 C 743.057 -3.51236 0.855328 0
M  V30 7852 O 742.778 -3.77359 2.22558 0
M  V30 7853 C 744.279 -4.40066 0.534515 0
M  V30 7854 H 741.499 -0.629888 0.231263 0
M  V30 7855 H 744.043 -1.60308 1.26971 0
M  V30 7856 H 742.198 -3.8661 0.247266 0
M  V30 7857 H 742.612 -4.71857 2.29022 0
M  V30 7858 H 744.086 -5.46838 0.753168 0
M  V30 7859 H 744.563 -4.35982 -0.530701 0
M  V30 7860 H 745.169 -4.10245 1.12158 0
M  V30 7861 N 743.484 -0.715051 -1.40445 0
M  V30 7862 C 744.709 -0.26254 -2.05732 0
M  V30 7863 C 745.134 1.08691 -1.53519 0
M  V30 7864 O 744.492 1.68453 -0.670328 0
M  V30 7865 C 744.54 -0.25195 -3.59719 0
M  V30 7866 O 743.644 0.766998 -4.05205 0
M  V30 7867 H 742.985 -0.123398 -0.652433 0
M  V30 7868 H 745.515 -0.975382 -1.79854 0
M  V30 7869 H 745.525 -0.0894537 -4.07902 0
M  V30 7870 H 744.2 -1.23672 -3.97087 0
M  V30 7871 H 742.777 0.572269 -3.68483 0
M  V30 7872 N 744.962 1.50701 -0.461195 0
M  V30 7873 C 745.894 2.26124 0.374244 0
M  V30 7874 C 746.907 1.31064 0.965715 0
M  V30 7875 O 748.096 1.56647 0.855801 0
M  V30 7876 C 745.196 3.01996 1.5379 0
M  V30 7877 C 744.369 4.24336 1.06101 0
M  V30 7878 C 743.428 4.82585 2.09756 0
M  V30 7879 O 742.454 5.43775 1.68219 0
M  V30 7880 N 743.656 4.68712 3.42475 0
M  V30 7881 H 746.421 2.9846 -0.2723 0
M  V30 7882 H 743.982 1.59256 -0.291415 0
M  V30 7883 H 745.974 3.37846 2.22806 0
M  V30 7884 H 744.544 2.32521 2.08933 0
M  V30 7885 H 743.764 3.93707 0.197085 0
M  V30 7886 H 745.052 5.03678 0.720156 0
M  V30 7887 H 744.45 4.20026 3.78938 0
M  V30 7888 H 743.007 5.08858 4.07317 0
M  V30 7889 N 746.441 0.193421 1.56409 0
M  V30 7890 C 747.351 -0.740112 2.2262 0
M  V30 7891 C 748.367 -1.23597 1.22474 0
M  V30 7892 O 749.543 -1.28348 1.55206 0
M  V30 7893 C 746.608 -1.94317 2.87127 0
M  V30 7894 C 745.669 -1.49205 4.02538 0
M  V30 7895 C 744.902 -2.63776 4.63959 0
M  V30 7896 O 745.125 -3.81215 4.24301 0
M  V30 7897 O 744.059 -2.36585 5.53454 0
M  V30 7898 H 747.885 -0.206238 3.02999 0
M  V30 7899 H 745.47 -0.0357938 1.49357 0
M  V30 7900 H 747.352 -2.64633 3.27944 0
M  V30 7901 H 746.027 -2.46568 2.09728 0
M  V30 7902 H 744.934 -0.757738 3.66346 0
M  V30 7903 H 746.267 -1.01622 4.81595 0
M  V30 7904 N 747.919 -1.57396 -0.0801906 0
M  V30 7905 C 749.167 -1.86467 -0.779384 0
M  V30 7906 C 749.488 -0.784243 -1.78535 0
M  V30 7907 O 748.758 0.187986 -1.94996 0
M  V30 7908 H 747.338 -0.68806 -0.29083 0
M  V30 7909 H 750 -1.94813 -0.0582749 0
M  V30 7910 H 749.096 -2.83701 -1.30078 0
M  V30 7911 N 749.397 0.351382 -1.53633 0
M  V30 7912 C 750.329 1.45159 -1.77374 0
M  V30 7913 C 751.342 1.4905 -0.654826 0
M  V30 7914 O 752.531 1.52274 -0.931396 0
M  V30 7915 C 749.631 2.83858 -1.85143 0
M  V30 7916 C 748.804 3.03498 -3.14972 0
M  V30 7917 C 747.863 4.22393 -3.138 0
M  V30 7918 O 746.889 4.16885 -3.87551 0
M  V30 7919 N 748.091 5.30533 -2.35617 0
M  V30 7920 H 750.856 1.25167 -2.72311 0
M  V30 7921 H 748.417 0.54121 -1.52586 0
M  V30 7922 H 750.409 3.61557 -1.8182 0
M  V30 7923 H 748.979 2.9703 -0.974275 0
M  V30 7924 H 748.199 2.13336 -3.31484 0
M  V30 7925 H 749.487 3.13498 -4.00745 0
M  V30 7926 H 748.885 5.37875 -1.75235 0
M  V30 7927 H 747.442 6.06756 -2.38098 0
M  V30 7928 N 750.875 1.45233 0.611969 0
M  V30 7929 C 752.1 1.52767 1.40274 0
M  V30 7930 C 752.525 0.159701 1.87421 0
M  V30 7931 O 751.883 -0.854837 1.59882 0
M  V30 7932 C 751.931 2.51286 2.58626 0
M  V30 7933 O 751.035 2.02764 3.59111 0
M  V30 7934 H 750.376 0.515141 0.418958 0
M  V30 7935 H 752.906 1.90547 0.745188 0
M  V30 7936 H 752.916 2.69949 3.05927 0
M  V30 7937 H 751.591 3.50641 2.23659 0
M  V30 7938 H 750.168 1.93957 3.18489 0
M  V30 7939 N 752.353 -0.854086 1.3245 0
M  V30 7940 C 753.316 -1.94427 1.21371 0
M  V30 7941 C 754.316 -1.60219 0.136613 0
M  V30 7942 O 755.506 -1.69846 0.387057 0
M  V30 7943 C 752.638 -3.29698 0.866701 0
M  V30 7944 H 753.831 -2.05679 2.18257 0
M  V30 7945 H 751.384 -1.04434 1.1629 0
M  V30 7946 H 752.119 -3.24145 -0.100319 0
M  V30 7947 H 751.904 -3.55903 1.64545 0
M  V30 7948 H 753.394 -4.09599 0.813515 0
M  V30 7949 N 753.831 -1.1567 -1.07043 0
M  V30 7950 C 755.108 -0.843948 -1.76456 0
M  V30 7951 C 755.488 0.659806 -2.00524 0
M  V30 7952 O 754.836 1.60518 -1.62623 0
M  V30 7953 C 755.046 -1.65822 -3.0709 0
M  V30 7954 C 756.394 -1.8664 -3.8138 0
M  V30 7955 O 757.418 -1.62624 -3.1691 0
M  V30 7956 O 756.277 -2.26884 -4.97178 0
M  V30 7957 H 753.371 -0.310677 -0.766426 0
M  V30 7958 H 755.917 -1.26266 -1.1338 0
M  V30 7959 H 754.689 -2.67902 -2.85209 0
M  V30 7960 H 754.312 -1.23605 -3.77899 0
M  V30 7961 N 755.309 1.25446 -0.953992 0
M  V30 7962 C 756.239 2.28264 -0.491717 0
M  V30 7963 C 757.22 1.63717 0.461617 0
M  V30 7964 O 758.405 1.90821 0.36071 0
M  V30 7965 C 755.535 3.46525 0.231915 0
M  V30 7966 C 754.489 4.23247 -0.636098 0
M  V30 7967 C 753.815 5.34254 0.218238 0
M  V30 7968 C 755.115 4.85971 -1.91389 0
M  V30 7969 H 756.809 2.67183 -1.35106 0
M  V30 7970 H 754.355 1.2844 -0.651095 0
M  V30 7971 H 756.308 4.17576 0.566439 0
M  V30 7972 H 755.032 3.06594 1.12551 0
M  V30 7973 H 753.691 3.53978 -0.953696 0
M  V30 7974 H 753.339 4.90564 1.11156 0
M  V30 7975 H 753.039 5.86501 -0.359232 0
M  V30 7976 H 754.563 6.08138 0.547743 0
M  V30 7977 H 755.977 5.49168 -1.64581 0
M  V30 7978 H 754.374 5.48391 -2.43696 0
M  V30 7979 H 755.444 4.08192 -2.61738 0
M  V30 7980 N 756.787 0.722489 1.40064 0
M  V30 7981 C 757.697 0.0755984 2.34478 0
M  V30 7982 C 758.713 -0.736046 1.57665 0
M  V30 7983 O 759.889 -0.667407 1.9002 0
M  V30 7984 C 756.954 -0.830075 3.36616 0
M  V30 7985 C 756.015 -0.00759884 4.29299 0
M  V30 7986 C 755.248 -0.870139 5.26559 0
M  V30 7987 O 755.471 -2.10921 5.2997 0
M  V30 7988 O 754.405 -0.305454 6.01124 0
M  V30 7989 H 758.231 0.854545 2.9143 0
M  V30 7990 H 755.816 0.483032 1.41376 0
M  V30 7991 H 757.698 -1.34864 3.99236 0
M  V30 7992 H 756.373 -1.58805 2.82069 0
M  V30 7993 H 755.28 0.556199 3.69942 0
M  V30 7994 H 756.613 0.712312 4.87018 0
M  V30 7995 N 758.265 -1.50454 0.469181 0
M  V30 7996 C 759.49 -2.0722 -0.0864892 0
M  V30 7997 C 759.915 -1.33098 -1.32916 0
M  V30 7998 O 759.273 -0.378084 -1.77314 0
M  V30 7999 C 759.321 -3.58845 -0.355384 0
M  V30 8000 O 758.425 -3.86583 -1.43622 0
M  V30 8001 H 757.766 -0.663889 0.0121414 0
M  V30 8002 H 760.296 -1.93674 0.659674 0
M  V30 8003 H 760.306 -4.03617 -0.596447 0
M  V30 8004 H 758.981 -4.12211 0.552698 0
M  V30 8005 H 757.558 -3.5365 -1.18262 0
M  V30 8006 N 759.743 -0.201713 -1.56304 0
M  V30 8007 C 760.675 0.748466 -2.16635 0
M  V30 8008 C 761.688 1.172 -1.12996 0
M  V30 8009 O 762.877 1.10658 -1.40061 0
M  V30 8010 C 759.977 2.02296 -2.719 0
M  V30 8011 C 759.15 1.75818 -4.00508 0
M  V30 8012 C 758.209 2.87779 -4.40533 0
M  V30 8013 O 757.235 2.57101 -5.07826 0
M  V30 8014 N 758.437 4.16287 -4.04581 0
M  V30 8015 H 761.202 0.232505 -2.98797 0
M  V30 8016 H 758.763 -0.0199822 -1.61888 0
M  V30 8017 H 760.755 2.7635 -2.95657 0
M  V30 8018 H 759.325 2.44996 -1.94154 0
M  V30 8019 H 758.545 0.855095 -3.84814 0
M  V30 8020 H 759.833 1.55532 -4.84445 0
M  V30 8021 H 759.231 4.44061 -3.50466 0
M  V30 8022 H 757.788 4.86946 -4.33274 0
M  V30 8023 N 761.222 1.57436 0.0718424 0
M  V30 8024 C 762.185 2.02703 1.06977 0
M  V30 8025 C 763.185 0.924062 1.31597 0
M  V30 8026 O 764.375 1.18894 1.27318 0
M  V30 8027 C 761.507 2.40763 2.41342 0
M  V30 8028 H 762.7 2.92098 0.679619 0
M  V30 8029 H 760.253 1.5304 0.317565 0
M  V30 8030 H 760.988 1.54394 2.8519 0
M  V30 8031 H 760.773 3.21249 2.24814 0
M  V30 8032 H 762.263 2.76361 3.13073 0
M  V30 8033 N 762.7 -0.34323 1.53817 0
M  V30 8034 C 764.111 -0.918823 1.62525 0
M  V30 8035 C 764.462 -1.89542 0.506765 0
M  V30 8036 O 763.587 -2.13326 -0.363441 0
M  V30 8037 C 764.182 -1.67326 2.94597 0
M  V30 8038 C 762.741 -2.19786 3.05567 0
M  V30 8039 C 761.888 -1.01708 2.57974 0
M  V30 8040 H 764.839 -0.121358 1.58235 0
M  V30 8041 H 764.86 -2.53615 2.83654 0
M  V30 8042 H 764.372 -0.962223 3.75983 0
M  V30 8043 H 762.473 -2.94065 2.28816 0
M  V30 8044 H 762.586 -2.46135 4.1104 0
M  V30 8045 H 760.95 -1.39058 2.13389 0
M  V30 8046 H 761.733 -0.320671 3.41799 0
M  V30 8047 N 764.178 -1.45556 -0.604258 0
M  V30 8048 C 765.403 -1.53509 -1.39462 0
M  V30 8049 C 765.828 -0.169638 -1.87333 0
M  V30 8050 O 765.186 0.846346 -1.60333 0
M  V30 8051 C 765.234 -2.52654 -2.5729 0
M  V30 8052 O 764.338 -2.04666 -3.5803 0
M  V30 8053 H 763.679 -0.517355 -0.416221 0
M  V30 8054 H 766.209 -1.90939 -0.735072 0
M  V30 8055 H 766.219 -2.71568 -3.04491 0
M  V30 8056 H 764.894 -3.51823 -2.21797 0
M  V30 8057 H 763.471 -1.95643 -3.17456 0
M  V30 8058 N 765.656 0.84705 -1.32902 0
M  V30 8059 C 766.566 1.98845 -1.2449 0
M  V30 8060 C 767.582 1.7329 -0.15702 0
M  V30 8061 O 768.758 1.978 -0.379104 0
M  V30 8062 C 765.823 3.32679 -0.975985 0
M  V30 8063 C 764.884 3.71405 -2.15306 0
M  V30 8064 C 764.117 4.98853 -1.89688 0
M  V30 8065 O 764.34 5.64134 -0.843168 0
M  V30 8066 O 763.274 5.34889 -2.76002 0
M  V30 8067 H 767.1 2.0888 -2.2046 0
M  V30 8068 H 764.685 0.978852 -1.12867 0
M  V30 8069 H 766.567 4.12885 -0.842826 0
M  V30 8070 H 765.242 3.23667 -0.0464954 0
M  V30 8071 H 764.149 2.91743 -2.34172 0
M  V30 8072 H 765.482 3.85073 -3.06561 0
M  V30 8073 N 767.134 1.16236 1.06428 0
M  V30 8074 C 768.545 0.950942 1.60667 0
M  V30 8075 C 768.896 -0.505491 1.89576 0
M  V30 8076 O 768.021 -1.37843 1.66818 0
M  V30 8077 C 768.616 1.71982 2.91904 0
M  V30 8078 C 767.175 1.55342 3.4285 0
M  V30 8079 C 766.322 1.72942 2.16763 0
M  V30 8080 H 769.273 1.31126 0.893959 0
M  V30 8081 H 769.294 1.19483 3.61253 0
M  V30 8082 H 768.806 2.77978 2.70831 0
M  V30 8083 H 766.907 0.5178 3.68985 0
M  V30 8084 H 767.02 2.33643 4.18267 0
M  V30 8085 H 765.384 1.15673 2.26918 0
M  V30 8086 H 766.167 2.80324 1.98175 0
M  V30 8087 N 768.612 -1.24939 0.960631 0
M  V30 8088 C 770.023 -1.74701 0.658529 0
M  V30 8089 C 770.374 -1.77967 -0.825959 0
M  V30 8090 O 769.499 -1.40444 -1.64634 0
M  V30 8091 C 770.094 -3.17263 1.18867 0
M  V30 8092 C 768.653 -3.64561 0.936614 0
M  V30 8093 C 767.8 -2.43423 1.32817 0
M  V30 8094 H 770.751 -1.10741 1.13676 0
M  V30 8095 H 770.772 -3.76481 0.551589 0
M  V30 8096 H 770.284 -3.14854 2.26912 0
M  V30 8097 H 768.385 -3.72378 -0.128608 0
M  V30 8098 H 768.498 -4.52392 1.57729 0
M  V30 8099 H 766.862 -2.43513 0.746548 0
M  V30 8100 H 767.645 -2.437 2.41796 0
M  V30 8101 N 770.09 -0.729906 -1.39679 0
M  V30 8102 C 771.04 -0.0627678 -2.27914 0
M  V30 8103 C 772.024 0.717867 -1.43998 0
M  V30 8104 O 773.216 0.587713 -1.66958 0
M  V30 8105 C 770.345 0.847564 -3.32673 0
M  V30 8106 C 769.431 0.0613515 -4.24056 0
M  V30 8107 N 769.822 -0.962863 -4.96551 0
M  V30 8108 C 768.12 0.291773 -4.45045 0
M  V30 8109 C 768.821 -1.43652 -5.63683 0
M  V30 8110 N 767.797 -0.756044 -5.38317 0
M  V30 8111 H 771.599 -0.847545 -2.81414 0
M  V30 8112 H 769.113 -0.563776 -1.523 0
M  V30 8113 H 771.11 1.34094 -3.94746 0
M  V30 8114 H 769.77 1.63156 -2.80732 0
M  V30 8115 H 770.781 -1.34409 -5.00154 0
M  V30 8116 H 767.458 1.05097 -4.04056 0
M  V30 8117 H 768.848 -2.28835 -6.31731 0
M  V30 8118 N 771.568 1.50203 -0.477153 0
M  V30 8119 C 772.979 1.86685 -0.0235041 0
M  V30 8120 C 773.33 1.39148 1.38319 0
M  V30 8121 O 772.455 0.759051 2.02651 0
M  V30 8122 C 773.05 3.38781 -0.0358767 0
M  V30 8123 C 771.609 3.74652 0.362327 0
M  V30 8124 C 770.756 2.7412 -0.41875 0
M  V30 8125 H 773.707 1.4286 -0.691133 0
M  V30 8126 H 773.728 3.72732 0.764924 0
M  V30 8127 H 773.24 3.73349 -1.05981 0
M  V30 8128 H 771.341 3.45686 1.39039 0
M  V30 8129 H 771.454 4.79063 0.059457 0
M  V30 8130 H 769.818 2.54376 0.128341 0
M  V30 8131 H 770.601 3.11532 -1.44231 0
M  V30 8132 N 773.046 0.209999 1.56195 0
M  V30 8133 C 773.978 -0.736967 2.17029 0
M  V30 8134 C 774.991 -1.16599 1.13616 0
M  V30 8135 O 776.18 -1.09914 1.40646 0
M  V30 8136 C 773.28 -2.00852 2.72969 0
M  V30 8137 C 772.453 -1.73691 4.01435 0
M  V30 8138 C 771.512 -2.85439 4.42053 0
M  V30 8139 O 770.538 -2.54405 5.09183 0
M  V30 8140 N 771.74 -4.14135 4.06783 0
M  V30 8141 H 774.505 -0.216656 2.98916 0
M  V30 8142 H 772.066 0.0285672 1.61875 0
M  V30 8143 H 774.058 -2.74778 2.97118 0
M  V30 8144 H 772.628 -2.43963 1.95451 0
M  V30 8145 H 771.848 -0.834676 3.85262 0
M  V30 8146 H 773.136 -1.52961 4.85263 0
M  V30 8147 H 772.534 -4.42196 3.52816 0
M  V30 8148 H 771.091 -4.84642 4.35851 0
M  V30 8149 N 774.524 -1.57472 -0.0634922 0
M  V30 8150 C 775.457 -1.99571 -1.10664 0
M  V30 8151 C 776.435 -0.874015 -1.37112 0
M  V30 8152 O 777.619 -1.13702 -1.50347 0
M  V30 8153 C 774.746 -2.3395 -2.44918 0
M  V30 8154 C 773.792 -3.56213 -2.34551 0
M  V30 8155 S 774.625 -5.06727 -1.73169 0
M  V30 8156 C 775.781 -5.44316 -3.08984 0
M  V30 8157 H 776.014 -2.87739 -0.747905 0
M  V30 8158 H 773.547 -1.5198 -0.272316 0
M  V30 8159 H 775.505 -2.54431 -3.22141 0
M  V30 8160 H 774.166 -1.46297 -2.7795 0
M  V30 8161 H 773.359 -3.77812 -3.33578 0
M  V30 8162 H 772.961 -3.35406 -1.65466 0
M  V30 8163 H 775.253 -5.42894 -4.05305 0
M  V30 8164 H 776.196 -6.4502 -2.92156 0
M  V30 8165 H 776.604 -4.71781 -3.09972 0
M  V30 8166 N 776.003 0.335068 -1.53997 0
M  V30 8167 C 777.233 1.0926 -1.75345 0
M  V30 8168 C 777.641 1.82568 -0.496545 0
M  V30 8169 O 776.984 1.75525 0.541897 0
M  V30 8170 C 777.046 2.14473 -2.88516 0
M  V30 8171 C 776.71 1.60665 -4.27827 0
M  V30 8172 C 777.707 1.05448 -5.09094 0
M  V30 8173 C 775.392 1.65255 -4.74337 0
M  V30 8174 C 777.386 0.555372 -6.34976 0
M  V30 8175 C 775.073 1.14956 -6.0019 0
M  V30 8176 C 776.071 0.601907 -6.80343 0
M  V30 8177 O 775.759 0.106445 -8.0383 0
M  V30 8178 H 775.491 0.331329 -0.589234 0
M  V30 8179 H 778.045 0.39042 -2.01655 0
M  V30 8180 H 776.275 2.88274 -2.5775 0
M  V30 8181 H 777.964 2.75857 -2.97755 0
M  V30 8182 H 778.73 1.01218 -4.74321 0
M  V30 8183 H 774.609 2.06822 -4.12002 0
M  V30 8184 H 778.153 0.127245 -6.97484 0
M  V30 8185 H 774.05 1.18891 -6.34457 0
M  V30 8186 H 774.818 0.222944 -8.18196 0
M  V30 8187 O 777.52 1.5417 0.481036 0
M  V30 8188 H 778.211 1.5692 1.1356 0
M  V30 END ATOM
M  V30 BEGIN BOND
M  V30 END BOND
M  V30 END CTAB
M  END
$$$$
