drugbank_target|P00691 Alpha-amylase (DB01841; DB02120; DB02379)
 OpenBabel12092119533D

  0  0  0     0  0            999 V3000
M  V30 BEGIN CTAB
M  V30 COUNTS 9973 10098 0 0 0
M  V30 BEGIN ATOM
M  V30 1 H -0.908 1.98254 -0.117106 0
M  V30 2 N 0 1.576 0 0
M  V30 3 C 0.933 2.03868 1.02534 0
M  V30 4 C 1.911 0.928543 1.3348 0
M  V30 5 O 3.095 1.19667 1.45644 0
M  V30 6 C 0.222 2.43627 2.35294 0
M  V30 7 C -0.732 3.65373 2.2001 0
M  V30 8 S 0.101 5.13292 1.52614 0
M  V30 9 C 1.257 5.56322 2.86805 0
M  V30 10 H 1.49 2.90518 0.631377 0
M  V30 11 H -0.977 1.52953 0.210867 0
M  V30 12 H 0.981 2.67203 3.11629 0
M  V30 13 H -0.358 1.57376 2.7183 0
M  V30 14 H -1.165 3.90944 3.18086 0
M  V30 15 H -1.563 3.418 1.51819 0
M  V30 16 H 0.729 5.58782 3.83104 0
M  V30 17 H 1.672 6.56266 2.65933 0
M  V30 18 H 2.08 4.83886 2.90714 0
M  V30 19 N 1.4781 -0.272755 1.55222 0
M  V30 20 C 2.7251 -1.00433 1.7584 0
M  V30 21 C 3.0531 -1.86275 0.559629 0
M  V30 22 O 2.3081 -1.90269 -0.457857 0
M  V30 23 C 2.6071 -1.91642 3.01675 0
M  V30 24 C 2.2731 -1.21548 4.34208 0
M  V30 25 C 0.9351 -1.02166 4.70229 0
M  V30 26 C 3.2871 -0.716684 5.16249 0
M  V30 27 C 0.6151 -0.316334 5.85847 0
M  V30 28 C 2.9671 -0.0249476 6.32595 0
M  V30 29 C 1.6311 0.180579 6.67256 0
M  V30 30 H 0.9011 -0.367509 0.643443 0
M  V30 31 H 3.5481 -0.276596 1.89492 0
M  V30 32 H 1.8531 -2.71037 2.82924 0
M  V30 33 H 3.5501 -2.48369 3.14824 0
M  V30 34 H 0.1401 -1.37645 4.05896 0
M  V30 35 H 4.3241 -0.854047 4.88896 0
M  V30 36 H -0.4199 -0.146378 6.11225 0
M  V30 37 H 3.7541 0.369311 6.9542 0
M  V30 38 H 1.3811 0.729098 7.56696 0
M  V30 39 N 2.9562 -1.48159 -0.537278 0
M  V30 40 C 3.9192 -1.61665 -1.62472 0
M  V30 41 C 4.9192 -0.490395 -1.5314 0
M  V30 42 O 6.1092 -0.755998 -1.5694 0
M  V30 43 C 3.2412 -1.57997 -3.02076 0
M  V30 44 H 4.4342 -2.58621 -1.51839 0
M  V30 45 H 1.9872 -1.36647 -0.758771 0
M  V30 46 H 2.7222 -0.624913 -3.18222 0
M  V30 47 H 2.5072 -2.39755 -3.10258 0
M  V30 48 H 3.9972 -1.70627 -3.81151 0
M  V30 49 N 4.4343 0.785586 -1.36625 0
M  V30 50 C 5.3813 1.89838 -1.31264 0
M  V30 51 C 6.3513 1.65115 -0.180633 0
M  V30 52 O 7.5363 1.87222 -0.36777 0
M  V30 53 C 4.6763 3.26706 -1.11163 0
M  V30 54 C 3.7893 3.63476 -2.33472 0
M  V30 55 C 2.9243 4.89481 -2.06353 0
M  V30 56 C 1.9633 5.18941 -3.24602 0
M  V30 57 N 1.1003 6.36131 -2.97123 0
M  V30 58 H 5.9403 1.93756 -2.26413 0
M  V30 59 H 3.4773 0.947454 -1.12524 0
M  V30 60 H 5.4353 4.05639 -0.975337 0
M  V30 61 H 4.0653 3.222 -0.196674 0
M  V30 62 H 3.1173 2.79636 -2.57891 0
M  V30 63 H 4.4293 3.81193 -3.21704 0
M  V30 64 H 3.5833 5.76288 -1.89675 0
M  V30 65 H 2.3223 4.73841 -1.15437 0
M  V30 66 H 1.3273 4.30615 -3.41834 0
M  V30 67 H 2.5523 5.36498 -4.16349 0
M  V30 68 H 0.4983 6.21875 -2.08823 0
M  V30 69 H 0.4153 6.54198 -3.78894 0
M  V30 70 H 1.6833 7.2591 -2.84033 0
M  V30 71 N 5.9124 1.20967 1.01018 0
M  V30 72 C 7.3284 0.965905 1.27053 0
M  V30 73 C 7.5284 -0.350785 1.98423 0
M  V30 74 O 6.5844 -1.07773 2.28344 0
M  V30 75 C 7.8974 2.15294 2.09926 0
M  V30 76 C 9.4454 2.19463 2.23171 0
M  V30 77 C 9.9204 3.3767 3.09424 0
M  V30 78 N 11.4114 3.37724 3.17012 0
M  V30 79 C 12.1464 4.25837 3.83993 0
M  V30 80 N 11.6424 5.24138 4.53047 0
M  V30 81 N 13.4354 4.1366 3.80581 0
M  V30 82 H 5.5864 2.0565 0.531194 0
M  V30 83 H 7.8494 0.90024 0.297106 0
M  V30 84 H 7.5554 3.10684 1.64828 0
M  V30 85 H 7.4294 2.13923 3.10672 0
M  V30 86 H 9.8164 1.24632 2.6749 0
M  V30 87 H 9.8974 2.2488 1.21912 0
M  V30 88 H 9.5414 4.32791 2.65808 0
M  V30 89 H 9.4714 3.29491 4.10784 0
M  V30 90 H 11.9624 2.6658 2.6785 0
M  V30 91 H 12.2754 5.87684 5.01844 0
M  V30 92 H 10.6204 5.28068 4.5185 0
M  V30 93 H 13.8114 3.36127 3.25785 0
M  V30 94 H 13.9844 4.82538 4.32505 0
M  V30 95 N 7.3905 -1.2043 1.01659 0
M  V30 96 C 8.6375 -1.89797 0.705917 0
M  V30 97 C 8.9655 -1.78848 -0.764439 0
M  V30 98 O 8.2205 -1.16694 -1.57102 0
M  V30 99 C 8.5195 -3.40464 1.08714 0
M  V30 100 C 8.1855 -3.71614 2.5537 0
M  V30 101 C 6.8475 -3.79826 2.95441 0
M  V30 102 C 9.1995 -3.85915 3.50313 0
M  V30 103 C 6.5275 -3.99797 4.29394 0
M  V30 104 C 8.8795 -4.07396 4.83954 0
M  V30 105 C 7.5435 -4.13837 5.23732 0
M  V30 106 H 6.8135 -0.694518 0.258313 0
M  V30 107 H 9.4605 -1.42691 1.27717 0
M  V30 108 H 7.7655 -3.89385 0.434309 0
M  V30 109 H 9.4625 -3.92433 0.824461 0
M  V30 110 H 6.0525 -3.65822 2.23321 0
M  V30 111 H 10.2365 -3.78926 3.20513 0
M  V30 112 H 5.4925 -4.03018 4.59768 0
M  V30 113 H 9.6665 -4.17404 5.57447 0
M  V30 114 H 7.2935 -4.29064 6.27541 0
M  V30 115 N 8.8686 -0.792821 -1.36206 0
M  V30 116 C 9.8156 -0.191653 -2.30003 0
M  V30 117 C 10.7856 0.666453 -1.52143 0
M  V30 118 O 11.9706 0.61442 -1.80636 0
M  V30 119 C 9.1106 0.664848 -3.38635 0
M  V30 120 C 8.2236 -0.212175 -4.31479 0
M  V30 121 C 7.3586 0.651022 -5.27196 0
M  V30 122 C 6.3976 -0.227247 -6.11678 0
M  V30 123 N 5.5346 0.595127 -6.99573 0
M  V30 124 H 10.3746 -0.996978 -2.80828 0
M  V30 125 H 7.9116 -0.503206 -1.38225 0
M  V30 126 H 9.8696 1.17645 -4.00269 0
M  V30 127 H 8.4996 1.43557 -2.89122 0
M  V30 128 H 7.5516 -0.841777 -3.70969 0
M  V30 129 H 8.8636 -0.888751 -4.90818 0
M  V30 130 H 8.0176 1.2283 -5.94136 0
M  V30 131 H 6.7566 1.36121 -4.68319 0
M  V30 132 H 5.7616 -0.816904 -5.43697 0
M  V30 133 H 6.9866 -0.93509 -6.72631 0
M  V30 134 H 4.9326 1.28955 -6.432 0
M  V30 135 H 4.8496 -0.0236952 -7.55996 0
M  V30 136 H 6.1176 1.15613 -7.70879 0
M  V30 137 N 10.3467 1.47872 -0.545128 0
M  V30 138 C 11.5747 2.06889 -0.021084 0
M  V30 139 C 11.9897 1.39955 1.2672 0
M  V30 140 O 11.3467 0.492036 1.75742 0
M  V30 141 C 11.3977 3.60996 0.190817 0
M  V30 142 O 11.1187 4.25419 -1.04644 0
M  V30 143 C 12.6197 4.36849 0.753521 0
M  V30 144 H 9.8397 0.669785 -0.0403635 0
M  V30 145 H 12.3837 1.90049 -0.755095 0
M  V30 146 H 10.5387 3.77391 0.87492 0
M  V30 147 H 10.9527 5.17785 -0.836611 0
M  V30 148 H 12.4267 5.45399 0.851139 0
M  V30 149 H 12.9037 4.02306 1.762 0
M  V30 150 H 13.5097 4.25169 0.105503 0
M  V30 151 N 11.8248 0.280983 1.55075 0
M  V30 152 C 13.0498 -0.340154 2.04592 0
M  V30 153 C 13.4748 -1.48246 1.15779 0
M  V30 154 O 12.8328 -1.80614 0.15761 0
M  V30 155 C 12.8808 -0.793104 3.5177 0
M  V30 156 O 11.9848 -1.89981 3.66034 0
M  V30 157 H 11.3258 -0.0694289 0.66036 0
M  V30 158 H 13.8558 0.416993 2.00306 0
M  V30 159 H 13.8658 -1.08729 3.93245 0
M  V30 160 H 12.5408 0.0426163 4.15878 0
M  V30 161 H 11.1178 -1.60771 3.36463 0
M  V30 162 N 13.3029 -1.57598 0.00835791 0
M  V30 163 C 14.2329 -2.1198 -0.979113 0
M  V30 164 C 15.2139 -1.03091 -1.35301 0
M  V30 165 O 16.3989 -1.30818 -1.43528 0
M  V30 166 C 13.5289 -2.62995 -2.26828 0
M  V30 167 C 12.4829 -3.76485 -2.03576 0
M  V30 168 C 11.8089 -4.13846 -3.38579 0
M  V30 169 C 13.1089 -5.0342 -1.39161 0
M  V30 170 H 14.8029 -2.94738 -0.526281 0
M  V30 171 H 12.3489 -1.41783 -0.251704 0
M  V30 172 H 14.3019 -2.99669 -2.96271 0
M  V30 173 H 13.0259 -1.7737 -2.7424 0
M  V30 174 H 11.6849 -3.40217 -1.36557 0
M  V30 175 H 11.3329 -3.25232 -3.83709 0
M  V30 176 H 11.0329 -4.90312 -3.23834 0
M  V30 177 H 12.5569 -4.53086 -4.09323 0
M  V30 178 H 13.9709 -5.37812 -1.98573 0
M  V30 179 H 12.3679 -5.84746 -1.34878 0
M  V30 180 H 13.4379 -4.83548 -0.361868 0
M  V30 181 N 14.781 0.264519 -1.55364 0
M  V30 182 C 15.711 1.33121 -1.91836 0
M  V30 183 C 16.692 1.51101 -0.781192 0
M  V30 184 O 17.877 1.64003 -1.04003 0
M  V30 185 C 15.007 2.68921 -2.19769 0
M  V30 186 C 13.961 2.65661 -3.35571 0
M  V30 187 C 13.287 4.05093 -3.49004 0
M  V30 188 C 14.587 2.24187 -4.71739 0
M  V30 189 H 16.281 1.02844 -2.81182 0
M  V30 190 H 13.827 0.493286 -1.35287 0
M  V30 191 H 15.78 3.43663 -2.43872 0
M  V30 192 H 14.504 3.00799 -1.27231 0
M  V30 193 H 13.163 1.93377 -3.1145 0
M  V30 194 H 12.811 4.34206 -2.53917 0
M  V30 195 H 12.511 4.03804 -4.26868 0
M  V30 196 H 14.035 4.81561 -3.75408 0
M  V30 197 H 15.449 2.88654 -4.9533 0
M  V30 198 H 13.846 2.34044 -5.52579 0
M  V30 199 H 14.916 1.19327 -4.69988 0
M  V30 200 N 16.2591 1.48442 0.529413 0
M  V30 201 C 17.6701 1.5002 1.11134 0
M  V30 202 C 18.0211 0.27031 1.94329 0
M  V30 203 O 17.1461 -0.622507 2.07253 0
M  V30 204 C 17.7411 2.71834 2.02217 0
M  V30 205 C 16.3001 2.76283 2.55627 0
M  V30 206 C 15.4471 2.43542 1.326 0
M  V30 207 H 18.3981 1.5555 0.314641 0
M  V30 208 H 18.4191 2.50384 2.8651 0
M  V30 209 H 17.9311 3.61331 1.41639 0
M  V30 210 H 16.0321 1.90995 3.19924 0
M  V30 211 H 16.1451 3.77725 2.94721 0
M  V30 212 H 14.5091 1.94709 1.64196 0
M  V30 213 H 15.2921 3.3528 0.737734 0
M  V30 214 N 17.7372 -0.778329 1.37039 0
M  V30 215 C 18.6672 -1.90546 1.34962 0
M  V30 216 C 19.6482 -1.68681 0.219274 0
M  V30 217 O 20.8332 -1.89634 0.418624 0
M  V30 218 C 17.9632 -3.27734 1.14925 0
M  V30 219 C 16.9172 -3.64147 2.24902 0
M  V30 220 C 16.2432 -4.99806 1.89996 0
M  V30 221 C 17.5432 -3.71579 3.67051 0
M  V30 222 H 19.2372 -1.92541 2.29277 0
M  V30 223 H 16.7832 -0.924948 1.10366 0
M  V30 224 H 18.7362 -4.06215 1.12104 0
M  V30 225 H 17.4602 -3.26154 0.170631 0
M  V30 226 H 16.1192 -2.8797 2.26868 0
M  V30 227 H 15.7672 -4.94759 0.906796 0
M  V30 228 H 15.4672 -5.25139 2.63634 0
M  V30 229 H 16.9912 -5.80694 1.88749 0
M  V30 230 H 18.4052 -4.40227 3.67251 0
M  V30 231 H 16.8022 -4.08405 4.39688 0
M  V30 232 H 17.8722 -2.72404 4.01154 0
M  V30 233 N 19.2153 -1.21501 -1.00376 0
M  V30 234 C 20.4623 -1.03299 -1.74171 0
M  V30 235 C 20.7903 0.433326 -1.89612 0
M  V30 236 O 20.0453 1.33779 -1.42834 0
M  V30 237 C 20.3443 -1.67673 -3.15627 0
M  V30 238 C 20.0103 -3.17533 -3.2013 0
M  V30 239 C 18.6723 -3.58427 -3.21067 0
M  V30 240 C 21.0243 -4.13504 -3.17275 0
M  V30 241 C 18.3523 -4.93794 -3.16835 0
M  V30 242 C 20.7043 -5.48834 -3.14585 0
M  V30 243 C 19.3683 -5.89123 -3.13831 0
M  V30 244 H 18.6383 -0.377999 -0.637336 0
M  V30 245 H 21.2853 -1.51111 -1.17634 0
M  V30 246 H 19.5903 -1.12158 -3.75404 0
M  V30 247 H 21.2873 -1.51091 -3.71446 0
M  V30 248 H 17.8773 -2.84965 -3.20145 0
M  V30 249 H 22.0613 -3.82936 -3.15711 0
M  V30 250 H 17.3173 -5.24255 -3.1459 0
M  V30 251 H 21.4913 -6.22934 -3.1133 0
M  V30 252 H 19.1183 -6.93984 -3.10307 0
M  V30 253 N 20.6934 1.19889 -1.02296 0
M  V30 254 C 21.6564 2.21116 -0.603351 0
M  V30 255 C 22.6564 1.5738 0.329884 0
M  V30 256 O 23.8464 1.73802 0.117702 0
M  V30 257 C 20.9784 3.40696 0.117992 0
M  V30 258 H 22.1714 2.59754 -1.49893 0
M  V30 259 H 19.7244 1.33463 -0.813468 0
M  V30 260 H 20.4594 3.07569 1.0282 0
M  V30 261 H 20.2444 3.88188 -0.552511 0
M  V30 262 H 21.7344 4.15692 0.398696 0
M  V30 263 N 22.1715 0.800033 1.35784 0
M  V30 264 C 23.4195 0.376597 1.9856 0
M  V30 265 C 23.7405 -1.05812 1.63795 0
M  V30 266 O 23.0105 -1.73103 0.917171 0
M  V30 267 H 21.5905 0.136261 0.734467 0
M  V30 268 H 24.2525 1.02442 1.65806 0
M  V30 269 H 23.3485 0.477002 3.08433 0
M  V30 270 N 23.6496 -1.47581 0.552962 0
M  V30 271 C 24.8966 -2.02482 0.0273243 0
M  V30 272 C 25.2246 -1.42776 -1.32081 0
M  V30 273 O 24.4796 -0.571393 -1.87173 0
M  V30 274 C 24.7786 -3.57199 -0.119728 0
M  V30 275 C 24.4446 -4.35804 1.15697 0
M  V30 276 C 23.1066 -4.57 1.50681 0
M  V30 277 C 25.4586 -4.81167 2.00319 0
M  V30 278 C 22.7866 -5.20807 2.70142 0
M  V30 279 C 25.1386 -5.46293 3.18978 0
M  V30 280 C 23.8026 -5.65722 3.54281 0
M  V30 281 H 23.0726 -0.740933 0.00999866 0
M  V30 282 H 25.7196 -1.77302 0.72362 0
M  V30 283 H 24.0246 -3.81348 -0.89896 0
M  V30 284 H 25.7216 -3.97324 -0.541718 0
M  V30 285 H 22.3116 -4.19582 0.874561 0
M  V30 286 H 26.4956 -4.64574 1.74599 0
M  V30 287 H 21.7516 -5.34045 2.97668 0
M  V30 288 H 25.9256 -5.80407 3.84838 0
M  V30 289 H 23.5526 -6.14936 4.46942 0
M  V30 290 N 25.1277 -0.289203 -1.54924 0
M  V30 291 C 26.0577 0.58549 -2.2604 0
M  V30 292 C 27.0387 1.14753 -1.25562 0
M  V30 293 O 28.2237 1.17906 -1.54311 0
M  V30 294 C 25.3537 1.76305 -2.99222 0
M  V30 295 C 24.3077 1.33191 -4.06748 0
M  V30 296 C 23.6337 2.5937 -4.6758 0
M  V30 297 C 24.9337 0.471775 -5.20165 0
M  V30 298 H 26.6277 -0.00763532 -2.99399 0
M  V30 299 H 24.1737 -0.00511229 -1.43999 0
M  V30 300 H 26.1267 2.38097 -3.47689 0
M  V30 301 H 24.8507 2.38223 -2.23422 0
M  V30 302 H 23.5097 0.737121 -3.59113 0
M  V30 303 H 23.1577 3.19576 -3.88433 0
M  V30 304 H 22.8577 2.31228 -5.40192 0
M  V30 305 H 24.3817 3.21985 -5.18804 0
M  V30 306 H 25.7957 0.995056 -5.64599 0
M  V30 307 H 24.1927 0.284639 -5.99425 0
M  V30 308 H 25.2627 -0.506041 -4.82252 0
M  V30 309 N 26.6058 1.57591 -0.0167156 0
M  V30 310 C 27.5358 2.12496 0.967858 0
M  V30 311 C 28.5168 1.03807 1.34752 0
M  V30 312 O 29.7018 1.31577 1.42833 0
M  V30 313 C 26.8318 2.64194 2.25431 0
M  V30 314 C 25.7858 3.77559 2.01576 0
M  V30 315 C 25.1118 4.15636 3.36379 0
M  V30 316 C 26.4118 5.04151 1.36489 0
M  V30 317 H 28.1058 2.95013 0.510643 0
M  V30 318 H 25.6518 1.41915 0.244181 0
M  V30 319 H 27.6048 3.01236 2.94678 0
M  V30 320 H 26.3288 1.78821 2.73296 0
M  V30 321 H 24.9878 3.40937 1.34751 0
M  V30 322 H 24.6358 3.27263 3.81979 0
M  V30 323 H 24.3358 4.92022 3.21229 0
M  V30 324 H 25.8598 4.5525 4.06915 0
M  V30 325 H 27.2738 5.38857 1.95718 0
M  V30 326 H 25.6708 5.85453 1.31776 0
M  V30 327 H 26.7408 4.83733 0.336219 0
M  V30 328 N 28.0839 -0.256276 1.55502 0
M  V30 329 C 29.0139 -1.32102 1.92539 0
M  V30 330 C 29.9949 -1.50684 0.789194 0
M  V30 331 O 31.1799 -1.63449 1.04872 0
M  V30 332 C 28.3099 -2.67752 2.21192 0
M  V30 333 C 27.2639 -2.63878 3.36975 0
M  V30 334 C 26.5899 -4.03236 3.51147 0
M  V30 335 C 27.8899 -2.21682 4.72921 0
M  V30 336 H 29.5839 -1.01351 2.81724 0
M  V30 337 H 27.1299 -0.486105 1.35547 0
M  V30 338 H 29.0829 -3.42365 2.45691 0
M  V30 339 H 27.8069 -3.0012 1.28824 0
M  V30 340 H 26.4659 -1.91722 3.12471 0
M  V30 341 H 26.1139 -4.32854 2.56216 0
M  V30 342 H 25.8139 -4.01535 4.29003 0
M  V30 343 H 27.3379 -4.79563 3.77957 0
M  V30 344 H 28.7519 -2.86023 4.96854 0
M  V30 345 H 27.1489 -2.3111 5.53812 0
M  V30 346 H 28.2189 -1.16833 4.70615 0
M  V30 347 N 29.562 -1.4872 -0.521534 0
M  V30 348 C 30.809 -1.57168 -1.27689 0
M  V30 349 C 31.137 -0.249275 -1.92896 0
M  V30 350 O 30.392 0.761162 -1.80291 0
M  V30 351 C 30.691 -2.66497 -2.38148 0
M  V30 352 C 30.357 -4.08664 -1.90538 0
M  V30 353 C 29.019 -4.47357 -1.77271 0
M  V30 354 C 31.371 -4.97724 -1.54663 0
M  V30 355 C 28.699 -5.72905 -1.26478 0
M  V30 356 C 31.051 -6.2377 -1.05329 0
M  V30 357 C 29.715 -6.61311 -0.906861 0
M  V30 358 H 28.985 -0.575117 -0.467249 0
M  V30 359 H 31.632 -1.82472 -0.581051 0
M  V30 360 H 29.937 -2.35085 -3.13437 0
M  V30 361 H 31.634 -2.70246 -2.96257 0
M  V30 362 H 28.224 -3.78111 -2.01816 0
M  V30 363 H 32.408 -4.68501 -1.63768 0
M  V30 364 H 27.664 -6.00709 -1.13835 0
M  V30 365 H 31.838 -6.9217 -0.76644 0
M  V30 366 H 29.465 -7.5848 -0.511083 0
M  V30 367 N 31.0401 0.771051 -1.3745 0
M  V30 368 C 31.9901 1.87456 -1.29785 0
M  V30 369 C 32.9741 1.59827 -0.185541 0
M  V30 370 O 34.1661 1.71945 -0.419997 0
M  V30 371 C 31.2951 3.24935 -1.1078 0
M  V30 372 C 30.3811 3.58514 -2.26558 0
M  V30 373 N 30.7721 3.6327 -3.5195 0
M  V30 374 C 29.0701 3.88683 -2.18727 0
M  V30 375 C 29.7711 3.93616 -4.283 0
M  V30 376 N 28.7471 4.09551 -3.57448 0
M  V30 377 H 32.5491 1.89386 -2.24745 0
M  V30 378 H 30.0631 0.967531 -1.30432 0
M  V30 379 H 32.0601 4.03881 -1.03374 0
M  V30 380 H 30.7201 3.24268 -0.16738 0
M  V30 381 H 31.7311 3.45458 -3.85848 0
M  V30 382 H 28.4081 3.95834 -1.32746 0
M  V30 383 H 29.7981 4.04066 -5.36824 0
M  V30 384 N 32.5182 1.22032 0.997298 0
M  V30 385 C 33.4482 1.01065 2.10495 0
M  V30 386 C 34.4292 -0.0669542 1.69968 0
M  V30 387 O 35.6142 0.0943987 1.9397 0
M  V30 388 C 32.7442 0.582874 3.42374 0
M  V30 389 C 31.6982 1.60592 3.96729 0
M  V30 390 C 31.0242 1.03412 5.24605 0
M  V30 391 C 32.3242 2.99478 4.27914 0
M  V30 392 H 34.0182 1.93708 2.28292 0
M  V30 393 H 31.5642 0.932761 1.09707 0
M  V30 394 H 33.5172 0.423332 4.19268 0
M  V30 395 H 32.2412 -0.379213 3.24391 0
M  V30 396 H 30.9002 1.75316 3.21963 0
M  V30 397 H 30.5482 0.063518 5.0296 0
M  V30 398 H 30.2482 1.71754 5.61938 0
M  V30 399 H 31.7722 0.886066 6.04137 0
M  V30 400 H 33.1862 2.88153 4.95622 0
M  V30 401 H 31.5832 3.64903 4.76409 0
M  V30 402 H 32.6532 3.49742 3.3587 0
M  V30 403 N 33.9963 -1.19345 1.0293 0
M  V30 404 C 35.2423 -1.89318 0.727083 0
M  V30 405 C 35.5753 -1.79446 -0.742483 0
M  V30 406 O 34.8503 -1.1871 -1.54072 0
M  V30 407 C 35.1333 -3.40238 1.17942 0
M  V30 408 C 34.9863 -3.58979 2.71024 0
M  V30 409 C 36.3053 -4.33479 0.760548 0
M  V30 410 H 33.4243 -0.687475 0.265606 0
M  V30 411 H 36.0663 -1.40477 1.2793 0
M  V30 412 H 34.2163 -3.81964 0.709608 0
M  V30 413 H 35.8883 -3.26421 3.25955 0
M  V30 414 H 34.1313 -3.02018 3.11396 0
M  V30 415 H 34.8023 -4.64823 2.9773 0
M  V30 416 H 37.2783 -3.99469 1.16464 0
M  V30 417 H 36.1543 -5.37664 1.10493 0
M  V30 418 H 36.4153 -4.40813 -0.337063 0
M  V30 419 N 35.4744 -0.807222 -1.35358 0
M  V30 420 C 36.4044 -0.232509 -2.3234 0
M  V30 421 C 37.3854 0.642386 -1.57504 0
M  V30 422 O 38.5704 0.572526 -1.85569 0
M  V30 423 C 35.7004 0.619238 -3.41735 0
M  V30 424 C 34.6544 -0.157215 -4.27711 0
M  V30 425 C 33.9804 0.816273 -5.28433 0
M  V30 426 C 35.2804 -1.35656 -5.04376 0
M  V30 427 H 36.9744 -1.04276 -2.80654 0
M  V30 428 H 34.5204 -0.50288 -1.34934 0
M  V30 429 H 36.4734 1.03137 -4.08584 0
M  V30 430 H 35.1974 1.46239 -2.92031 0
M  V30 431 H 33.8564 -0.550525 -3.62443 0
M  V30 432 H 33.5044 1.65494 -4.74996 0
M  V30 433 H 33.2044 0.301067 -5.86828 0
M  V30 434 H 34.7284 1.22659 -5.98153 0
M  V30 435 H 36.1424 -1.01927 -5.64166 0
M  V30 436 H 34.5394 -1.8063 -5.7227 0
M  V30 437 H 35.6094 -2.14288 -4.34981 0
M  V30 438 N 36.9525 1.47285 -0.560781 0
M  V30 439 C 37.9155 2.28535 0.174488 0
M  V30 440 C 38.9155 1.37153 0.839388 0
M  V30 441 O 40.1055 1.59748 0.694702 0
M  V30 442 C 37.2375 3.16934 1.25561 0
M  V30 443 H 38.4305 2.95012 -0.539262 0
M  V30 444 H 35.9835 1.53034 -0.317865 0
M  V30 445 H 36.7185 2.55157 2.00164 0
M  V30 446 H 36.5035 3.8419 0.783604 0
M  V30 447 H 37.9935 3.78143 1.77193 0
M  V30 448 N 38.4306 0.297415 1.54768 0
M  V30 449 C 39.6786 -0.312295 1.99673 0
M  V30 450 C 39.9996 -1.54686 1.18732 0
M  V30 451 O 39.2696 -1.93854 0.282382 0
M  V30 452 H 37.8496 -0.118381 0.73756 0
M  V30 453 H 40.5116 0.407915 1.90583 0
M  V30 454 H 39.6076 -0.586813 3.06534 0
M  V30 455 N 39.9087 -1.5758 0.0250728 0
M  V30 456 C 41.3197 -1.79476 -0.514323 0
M  V30 457 C 41.6707 -0.934956 -1.72491 0
M  V30 458 O 40.7957 -0.144245 -2.15919 0
M  V30 459 C 41.3907 -3.25503 -0.939842 0
M  V30 460 C 39.9497 -3.48408 -1.42438 0
M  V30 461 C 39.0967 -2.74583 -0.387201 0
M  V30 462 H 42.0477 -1.567 0.25113 0
M  V30 463 H 42.0687 -3.34992 -1.80445 0
M  V30 464 H 41.5807 -3.88056 -0.0585628 0
M  V30 465 H 39.6817 -2.91103 -2.32572 0
M  V30 466 H 39.7947 -4.57119 -1.43455 0
M  V30 467 H 38.1587 -2.39942 -0.854409 0
M  V30 468 H 38.9417 -3.39849 0.485543 0
M  V30 469 N 41.3868 0.248026 -1.55636 0
M  V30 470 C 42.3498 1.29044 -1.89421 0
M  V30 471 C 43.3498 1.41134 -0.770581 0
M  V30 472 O 44.5398 1.39854 -1.03858 0
M  V30 473 C 41.6718 2.66831 -2.12165 0
M  V30 474 H 42.8648 1.00305 -2.82629 0
M  V30 475 H 40.4178 0.487265 -1.48511 0
M  V30 476 H 41.1528 3.00711 -1.21422 0
M  V30 477 H 40.9378 2.59438 -2.93997 0
M  V30 478 H 42.4278 3.42103 -2.3949 0
M  V30 479 N 42.8649 1.48995 0.513639 0
M  V30 480 C 43.8279 1.64229 1.59879 0
M  V30 481 C 44.8279 0.514696 1.5234 0
M  V30 482 O 46.0179 0.78087 1.55718 0
M  V30 483 C 43.1499 1.62783 2.99524 0
M  V30 484 H 44.3429 2.61004 1.47705 0
M  V30 485 H 41.8959 1.37837 0.736936 0
M  V30 486 H 42.6309 0.675461 3.17188 0
M  V30 487 H 42.4159 2.4466 3.06404 0
M  V30 488 H 43.9059 1.76669 3.78388 0
M  V30 489 N 44.343 -0.763751 1.37857 0
M  V30 490 C 45.306 -1.85889 1.34081 0
M  V30 491 C 46.306 -1.58949 0.243277 0
M  V30 492 O 47.496 -1.66882 0.499589 0
M  V30 493 C 44.628 -3.23176 1.08489 0
M  V30 494 H 45.821 -1.90648 2.31502 0
M  V30 495 H 43.374 -0.964367 1.23003 0
M  V30 496 H 44.109 -3.24091 0.116318 0
M  V30 497 H 43.894 -3.44124 1.8794 0
M  V30 498 H 45.384 -4.03254 1.08517 0
M  V30 499 N 45.8211 -1.22559 -0.990812 0
M  V30 500 C 47.0461 -1.07862 -1.77145 0
M  V30 501 C 47.4711 0.366447 -1.84496 0
M  V30 502 O 46.8291 1.26478 -1.29896 0
M  V30 503 C 46.8771 -1.69686 -3.18181 0
M  V30 504 O 45.9811 -0.951946 -4.01263 0
M  V30 505 H 45.3221 -0.378712 -0.545411 0
M  V30 506 H 47.8521 -1.62399 -1.2445 0
M  V30 507 H 47.8621 -1.74496 -3.68802 0
M  V30 508 H 46.5371 -2.74841 -3.12146 0
M  V30 509 H 45.1141 -0.980011 -3.59792 0
M  V30 510 N 47.2992 1.18797 -1.03562 0
M  V30 511 C 48.2622 2.20464 -0.626769 0
M  V30 512 C 49.2622 1.57721 0.313173 0
M  V30 513 O 50.4522 1.73917 0.0992615 0
M  V30 514 C 47.5842 3.40802 0.0818498 0
M  V30 515 H 48.7772 2.58149 -1.5264 0
M  V30 516 H 46.3302 1.32593 -0.827578 0
M  V30 517 H 47.0652 3.08642 0.995518 0
M  V30 518 H 46.8502 3.8758 -0.593652 0
M  V30 519 H 48.3402 4.16092 0.354584 0
M  V30 520 N 48.7773 0.814389 1.34928 0
M  V30 521 C 49.6873 0.231978 2.3345 0
M  V30 522 C 50.7033 -0.629139 1.62228 0
M  V30 523 O 51.8793 -0.539052 1.94052 0
M  V30 524 C 48.9443 -0.603482 3.41407 0
M  V30 525 C 48.0053 0.279037 4.28392 0
M  V30 526 C 47.2383 -0.516643 5.31193 0
M  V30 527 O 47.4613 -1.75068 5.4287 0
M  V30 528 O 46.3953 0.0965652 6.01823 0
M  V30 529 H 50.2213 1.04721 2.85074 0
M  V30 530 H 47.8063 0.576343 1.37836 0
M  V30 531 H 49.6883 -1.07908 4.0735 0
M  V30 532 H 48.3633 -1.39618 2.92042 0
M  V30 533 H 47.2703 0.801948 3.65403 0
M  V30 534 H 48.6033 1.03588 4.81176 0
M  V30 535 N 50.2554 -1.46986 0.568584 0
M  V30 536 C 51.4834 -2.0683 0.0539956 0
M  V30 537 C 51.8984 -1.41953 -1.24478 0
M  V30 538 O 51.2554 -0.519933 -1.74937 0
M  V30 539 C 51.3064 -3.61254 -0.133362 0
M  V30 540 O 51.0274 -4.237 1.11399 0
M  V30 541 C 52.5284 -4.37992 -0.683927 0
M  V30 542 H 49.7484 -0.669058 0.0510141 0
M  V30 543 H 52.2924 -1.88824 0.785234 0
M  V30 544 H 50.4474 -3.78735 -0.81477 0
M  V30 545 H 50.8614 -5.16388 0.91888 0
M  V30 546 H 52.3354 -5.46684 -0.764263 0
M  V30 547 H 52.8124 -4.05058 -1.69778 0
M  V30 548 H 53.4184 -4.25283 -0.0378494 0
M  V30 549 N 51.7335 -0.305618 -1.54608 0
M  V30 550 C 52.6965 0.555591 -2.22364 0
M  V30 551 C 53.6965 1.05768 -1.21119 0
M  V30 552 O 54.8865 0.952972 -1.45822 0
M  V30 553 C 52.0185 1.76974 -2.91364 0
M  V30 554 H 53.2115 -0.0364572 -2.99878 0
M  V30 555 H 50.7645 -0.0565007 -1.56198 0
M  V30 556 H 51.4995 2.40151 -2.17941 0
M  V30 557 H 51.2845 1.41732 -3.65588 0
M  V30 558 H 52.7745 2.38148 -3.43038 0
M  V30 559 N 53.2116 1.57565 -0.0334293 0
M  V30 560 C 54.1596 2.1164 0.96496 0
M  V30 561 C 55.1536 1.04398 1.33407 0
M  V30 562 O 56.3596 1.22828 1.3158 0
M  V30 563 H 52.7346 0.676222 0.32898 0
M  V30 564 H 54.7056 2.94455 0.483614 0
M  V30 565 C 53.4546 2.66207 2.23672 0
M  V30 566 H 52.7776 3.48378 1.96145 0
M  V30 567 H 54.2176 3.07685 2.9173 0
M  V30 568 C 52.6766 1.59151 2.96939 0
M  V30 569 O 53.2066 0.993858 3.89211 0
M  V30 570 N 51.4126 1.31093 2.59351 0
M  V30 571 H 50.9596 1.7988 1.84393 0
M  V30 572 H 50.9176 0.596889 3.08682 0
M  V30 573 N 54.6897 -0.239769 1.55765 0
M  V30 574 C 55.6367 -1.29696 1.90913 0
M  V30 575 C 56.6067 -1.47478 0.764164 0
M  V30 576 O 57.7917 -1.61345 1.01845 0
M  V30 577 C 54.9317 -2.64598 2.21544 0
M  V30 578 C 54.0447 -2.54765 3.48882 0
M  V30 579 C 53.1797 -3.82069 3.69049 0
M  V30 580 C 52.2187 -3.66883 4.89963 0
M  V30 581 N 51.3557 -4.86094 5.06614 0
M  V30 582 H 56.1957 -0.990224 2.81067 0
M  V30 583 H 53.7327 -0.477684 1.39128 0
M  V30 584 H 55.6907 -3.43132 2.3731 0
M  V30 585 H 54.3207 -2.93405 1.34585 0
M  V30 586 H 53.3727 -1.67763 3.41409 0
M  V30 587 H 54.6847 -2.39457 4.37563 0
M  V30 588 H 53.8387 -4.69046 3.84812 0
M  V30 589 H 52.5777 -4.00282 2.78614 0
M  V30 590 H 51.5827 -2.78289 4.74168 0
M  V30 591 H 52.8077 -3.50157 5.81865 0
M  V30 592 H 50.7537 -5.04655 4.19117 0
M  V30 593 H 50.6707 -4.73443 5.89396 0
M  V30 594 H 51.9387 -5.74549 5.26795 0
M  V30 595 N 56.1678 -1.49265 -0.50573 0
M  V30 596 C 57.3928 -1.62478 -1.28902 0
M  V30 597 C 57.8178 -0.294332 -1.85783 0
M  V30 598 O 57.1758 0.737412 -1.65626 0
M  V30 599 C 57.2238 -2.69268 -2.39848 0
M  V30 600 O 56.3278 -2.28113 -3.43567 0
M  V30 601 H 55.6688 -0.54399 -0.380751 0
M  V30 602 H 58.1988 -1.95421 -0.605952 0
M  V30 603 H 58.2088 -2.91291 -2.85681 0
M  V30 604 H 56.8838 -3.65846 -1.97812 0
M  V30 605 H 55.4608 -2.16401 -3.03685 0
M  V30 606 N 57.6459 0.756429 -1.3826 0
M  V30 607 C 58.5939 1.89149 -1.35372 0
M  V30 608 C 59.5879 1.67691 -0.24004 0
M  V30 609 O 60.7939 1.75294 -0.408919 0
M  V30 610 H 57.1689 0.622271 -0.422236 0
M  V30 611 H 59.1399 1.88701 -2.31159 0
M  V30 612 C 57.8889 3.26599 -1.19284 0
M  V30 613 H 57.2119 3.43695 -2.0424 0
M  V30 614 H 58.6519 4.06274 -1.21316 0
M  V30 615 C 57.1109 3.3675 0.100454 0
M  V30 616 O 57.6409 3.86951 1.07851 0
M  V30 617 N 55.8469 2.90179 0.15633 0
M  V30 618 H 55.3939 2.49517 -0.640253 0
M  V30 619 H 55.3519 2.97352 1.02123 0
M  V30 620 N 59.124 1.23083 0.984299 0
M  V30 621 C 60.034 1.02515 2.11016 0
M  V30 622 C 61.05 -0.0291702 1.73976 0
M  V30 623 O 62.226 0.165434 2.00719 0
M  V30 624 C 59.291 0.614673 3.41208 0
M  V30 625 C 58.352 1.74359 3.92297 0
M  V30 626 C 57.585 1.35261 5.16275 0
M  V30 627 O 57.808 0.235136 5.69915 0
M  V30 628 O 56.742 2.17227 5.61334 0
M  V30 629 H 60.568 1.96862 2.31255 0
M  V30 630 H 58.153 1.01753 1.09392 0
M  V30 631 H 60.035 0.396518 4.1953 0
M  V30 632 H 58.71 -0.299851 3.22308 0
M  V30 633 H 57.617 2.01635 3.1511 0
M  V30 634 H 58.95 2.63629 4.15645 0
M  V30 635 N 60.6021 -1.18246 1.0419 0
M  V30 636 C 61.5321 -2.24127 0.654914 0
M  V30 637 C 62.5131 -1.66617 -0.342451 0
M  V30 638 O 63.6981 -1.92924 -0.222277 0
M  V30 639 C 60.8281 -3.47295 0.0183757 0
M  V30 640 C 59.7821 -4.17563 0.939414 0
M  V30 641 C 59.1081 -5.34438 0.167286 0
M  V30 642 C 60.4081 -4.70917 2.25908 0
M  V30 643 H 62.1021 -2.56753 1.54007 0
M  V30 644 H 59.6481 -1.23414 0.74195 0
M  V30 645 H 61.6011 -4.20572 -0.264082 0
M  V30 646 H 60.3251 -3.13907 -0.901664 0
M  V30 647 H 58.9841 -3.46186 1.20628 0
M  V30 648 H 58.6321 -4.97298 -0.7552 0
M  V30 649 H 58.3321 -5.82388 0.780901 0
M  V30 650 H 59.8561 -6.10504 -0.108125 0
M  V30 651 H 61.2701 -5.35882 2.03724 0
M  V30 652 H 59.6671 -5.29406 2.82577 0
M  V30 653 H 60.7371 -3.88272 2.9047 0
M  V30 654 N 62.0802 -0.821533 -1.34494 0
M  V30 655 C 63.3082 -0.421884 -2.02553 0
M  V30 656 C 63.7232 0.971745 -1.61872 0
M  V30 657 O 63.0802 1.62864 -0.823496 0
M  V30 658 C 63.1312 -0.51285 -3.57844 0
M  V30 659 O 62.8522 -1.85155 -3.97051 0
M  V30 660 C 64.3532 -0.107921 -4.43169 0
M  V30 661 H 61.5732 -0.169482 -0.649243 0
M  V30 662 H 64.1172 -1.1093 -1.71798 0
M  V30 663 H 62.2722 0.126474 -3.87193 0
M  V30 664 H 62.6862 -1.82482 -4.91732 0
M  V30 665 H 64.1602 -0.222657 -5.51551 0
M  V30 666 H 64.6372 0.948401 -4.28838 0
M  V30 667 H 65.2432 -0.720989 -4.19144 0
M  V30 668 N 63.5583 1.46682 -0.576371 0
M  V30 669 C 64.5213 2.28707 0.150239 0
M  V30 670 C 65.5213 1.38035 0.824794 0
M  V30 671 O 66.7113 1.60476 0.677719 0
M  V30 672 C 63.8433 3.18248 1.22192 0
M  V30 673 H 65.0363 2.94423 -0.570521 0
M  V30 674 H 62.5893 1.52688 -0.334078 0
M  V30 675 H 63.3243 2.57265 1.97447 0
M  V30 676 H 63.1093 3.85 0.742812 0
M  V30 677 H 64.5993 3.80001 1.73172 0
M  V30 678 N 65.0364 0.313813 1.54444 0
M  V30 679 C 66.4474 -0.176243 1.85866 0
M  V30 680 C 66.7984 -1.52405 1.23561 0
M  V30 681 O 65.9234 -2.09605 0.538016 0
M  V30 682 C 66.5184 -0.32657 3.37222 0
M  V30 683 C 65.0774 -0.760846 3.6863 0
M  V30 684 C 64.2244 0.123247 2.77026 0
M  V30 685 H 67.1754 0.534418 1.49431 0
M  V30 686 H 67.1964 -1.15908 3.62416 0
M  V30 687 H 66.7084 0.654531 3.82541 0
M  V30 688 H 64.8094 -1.75204 3.28838 0
M  V30 689 H 64.9224 -0.571353 4.75681 0
M  V30 690 H 63.2864 -0.399597 2.51546 0
M  V30 691 H 64.0694 1.10094 3.25168 0
M  V30 692 N 66.5145 -1.57545 0.0417849 0
M  V30 693 C 67.7395 -1.97035 -0.647455 0
M  V30 694 C 68.1645 -0.918775 -1.64135 0
M  V30 695 O 67.5225 0.119006 -1.80909 0
M  V30 696 C 67.5705 -3.35609 -1.31905 0
M  V30 697 O 66.6745 -3.3287 -2.43457 0
M  V30 698 H 66.0155 -0.64211 -0.169086 0
M  V30 699 H 68.5455 -2.04318 0.107399 0
M  V30 700 H 68.5555 -3.72126 -1.67291 0
M  V30 701 H 67.2305 -4.11685 -0.590586 0
M  V30 702 H 65.8075 -3.08087 -2.10088 0
M  V30 703 N 67.9926 0.231505 -1.5589 0
M  V30 704 C 69.2416 0.955346 -1.7764 0
M  V30 705 C 69.5546 1.85893 -0.608546 0
M  V30 706 O 70.7606 2.62067 -0.70943 0
M  V30 707 C 69.2166 1.74886 -3.14552 0
M  V30 708 C 68.8246 0.891915 -4.39032 0
M  V30 709 C 70.5686 2.46452 -3.45633 0
M  V30 710 C 68.4756 1.68221 -5.66971 0
M  V30 711 H 67.4056 0.360446 -0.662265 0
M  V30 712 H 70.0566 0.209516 -1.823 0
M  V30 713 H 68.4386 2.53723 -3.04041 0
M  V30 714 H 69.6126 0.144793 -4.60572 0
M  V30 715 H 67.9276 0.288863 -4.15397 0
M  V30 716 H 70.5246 3.06061 -4.38441 0
M  V30 717 H 70.8676 3.18841 -2.67668 0
M  V30 718 H 71.4006 1.74613 -3.57428 0
M  V30 719 H 68.1396 1.00178 -6.478 0
M  V30 720 H 67.6596 2.4042 -5.49507 0
M  V30 721 H 69.3386 2.24544 -6.06786 0
M  V30 722 N 69.4707 1.49531 0.497807 0
M  V30 723 C 70.4177 1.66436 1.59899 0
M  V30 724 C 71.3877 0.505793 1.58212 0
M  V30 725 O 72.5727 0.733202 1.7615 0
M  V30 726 C 69.7127 1.7399 2.98029 0
M  V30 727 C 68.8257 3.01172 3.09708 0
M  V30 728 C 67.9607 2.99686 4.38591 0
M  V30 729 C 66.9997 4.21434 4.43914 0
M  V30 730 N 66.1367 4.1784 5.64229 0
M  V30 731 H 70.9767 2.60459 1.44793 0
M  V30 732 H 68.5137 1.29137 0.704423 0
M  V30 733 H 70.4717 1.76352 3.78095 0
M  V30 734 H 69.1017 0.834301 3.11832 0
M  V30 735 H 68.1537 3.08408 2.22685 0
M  V30 736 H 69.4657 3.91165 3.09502 0
M  V30 737 H 68.6197 3.00628 5.2698 0
M  V30 738 H 67.3587 2.07477 4.41367 0
M  V30 739 H 66.3637 4.20733 3.53926 0
M  V30 740 H 67.5887 5.14839 4.42851 0
M  V30 741 H 65.5347 3.28469 5.67841 0
M  V30 742 H 65.4517 5.01571 5.65652 0
M  V30 743 H 66.7197 4.22889 6.54817 0
M  V30 744 N 70.9488 -0.749086 1.3866 0
M  V30 745 C 72.1738 -1.54344 1.38538 0
M  V30 746 C 72.5988 -1.88088 -0.0216655 0
M  V30 747 O 71.9568 -1.50899 -1.00494 0
M  V30 748 C 72.0048 -2.8164 2.25192 0
M  V30 749 O 71.1088 -3.7698 1.67212 0
M  V30 750 H 70.4498 -0.466654 0.472367 0
M  V30 751 H 72.9798 -0.925355 1.82478 0
M  V30 752 H 72.9898 -3.30519 2.3921 0
M  V30 753 H 71.6648 -2.56411 3.27454 0
M  V30 754 H 70.2418 -3.35699 1.6236 0
M  V30 755 N 72.4269 -1.23603 -0.977757 0
M  V30 756 C 73.6749 -1.06759 -1.71601 0
M  V30 757 C 73.9959 0.395929 -1.90938 0
M  V30 758 O 73.2659 1.28356 -1.47992 0
M  V30 759 H 71.8459 -0.392062 -0.635843 0
M  V30 760 H 74.5079 -1.55362 -1.1768 0
M  V30 761 H 73.6039 -1.55763 -2.70452 0
M  V30 762 N 73.905 1.17692 -1.04816 0
M  V30 763 C 75.133 1.91786 -0.776254 0
M  V30 764 C 75.548 1.76604 0.667577 0
M  V30 765 O 74.905 1.10067 1.45573 0
M  V30 766 C 74.956 3.42967 -1.14263 0
M  V30 767 O 74.677 3.57678 -2.52978 0
M  V30 768 C 76.178 4.34144 -0.896311 0
M  V30 769 H 73.398 0.608624 -0.282519 0
M  V30 770 H 75.942 1.49268 -1.39783 0
M  V30 771 H 74.097 3.83245 -0.565874 0
M  V30 772 H 74.511 4.51319 -2.67229 0
M  V30 773 H 75.985 5.38744 -1.20244 0
M  V30 774 H 76.462 4.38876 0.168636 0
M  V30 775 H 77.068 3.99574 -1.45672 0
M  V30 776 N 75.3831 0.828654 1.34056 0
M  V30 777 C 76.6321 0.415828 1.97367 0
M  V30 778 C 76.9451 -1.02796 1.6641 0
M  V30 779 O 78.1511 -1.54497 2.23255 0
M  V30 780 C 76.6071 0.692601 3.53173 0
M  V30 781 C 76.2151 2.15038 3.93017 0
M  V30 782 C 77.9591 0.346222 4.23086 0
M  V30 783 C 75.8661 2.37174 5.41758 0
M  V30 784 H 74.7961 0.151755 0.738571 0
M  V30 785 H 77.4471 1.01581 1.52819 0
M  V30 786 H 75.8291 0.0223764 3.95994 0
M  V30 787 H 77.0031 2.86024 3.61285 0
M  V30 788 H 75.3181 2.45875 3.36057 0
M  V30 789 H 77.9151 0.48937 5.32456 0
M  V30 790 H 78.2581 -0.709842 4.10204 0
M  V30 791 H 78.7911 0.971258 3.85761 0
M  V30 792 H 75.5301 3.41308 5.59633 0
M  V30 793 H 75.0501 1.70738 5.74986 0
M  V30 794 H 76.7291 2.19818 6.08514 0
M  V30 795 N 76.8612 -1.46375 0.584142 0
M  V30 796 C 77.7912 -2.33103 -0.136037 0
M  V30 797 C 78.7722 -1.45431 -0.882255 0
M  V30 798 O 79.9572 -1.74246 -0.857434 0
M  V30 799 C 77.0872 -3.27731 -1.14933 0
M  V30 800 C 76.0412 -4.24855 -0.517862 0
M  V30 801 C 75.3672 -5.09001 -1.63773 0
M  V30 802 C 76.6672 -5.19439 0.545886 0
M  V30 803 H 78.3612 -2.93568 0.588086 0
M  V30 804 H 75.9072 -1.41166 0.284259 0
M  V30 805 H 77.8602 -3.87261 -1.66153 0
M  V30 806 H 76.5842 -2.65377 -1.90375 0
M  V30 807 H 75.2432 -3.6659 -0.0267361 0
M  V30 808 H 74.8912 -4.43031 -2.38185 0
M  V30 809 H 74.5912 -5.74777 -1.22085 0
M  V30 810 H 76.1152 -5.71396 -2.15266 0
M  V30 811 H 77.5292 -5.73177 0.118704 0
M  V30 812 H 75.9262 -5.93566 0.88317 0
M  V30 813 H 76.9962 -4.63285 1.43162 0
M  V30 814 N 78.3393 -0.321999 -1.54275 0
M  V30 815 C 79.2893 0.560185 -2.21011 0
M  V30 816 C 80.2733 1.08283 -1.19011 0
M  V30 817 O 81.4653 1.02011 -1.44647 0
M  V30 818 C 78.5943 1.72137 -2.97025 0
M  V30 819 C 77.6803 1.21369 -4.06363 0
M  V30 820 N 78.0713 0.425566 -5.04007 0
M  V30 821 C 76.3693 1.49255 -4.20284 0
M  V30 822 C 77.0703 0.152601 -5.815 0
M  V30 823 N 76.0463 0.738294 -5.38563 0
M  V30 824 H 79.8483 -0.049265 -2.93859 0
M  V30 825 H 77.3623 -0.127779 -1.61897 0
M  V30 826 H 79.3593 2.36512 -3.43319 0
M  V30 827 H 78.0193 2.33431 -2.25699 0
M  V30 828 H 79.0303 0.068551 -5.17855 0
M  V30 829 H 75.7073 2.11145 -3.60172 0
M  V30 830 H 77.0973 -0.481764 -6.70171 0
M  V30 831 N 79.8174 1.5752 -0.0501392 0
M  V30 832 C 80.7804 2.1037 0.909786 0
M  V30 833 C 81.7804 1.02308 1.24056 0
M  V30 834 O 82.9704 1.28385 1.17741 0
M  V30 835 C 80.1024 2.58708 2.21998 0
M  V30 836 H 81.2954 2.96479 0.451665 0
M  V30 837 H 78.8484 1.55038 0.198248 0
M  V30 838 H 79.5834 1.75989 2.72394 0
M  V30 839 H 79.3684 3.37675 1.99295 0
M  V30 840 H 80.8584 2.99747 2.9076 0
M  V30 841 N 81.2955 -0.223234 1.56011 0
M  V30 842 C 82.5415 -0.944891 1.8012 0
M  V30 843 C 82.8965 -1.82039 0.622862 0
M  V30 844 O 82.1895 -1.8773 -0.383143 0
M  V30 845 C 82.3835 -1.81948 3.0762 0
M  V30 846 C 82.2125 -1.03014 4.37742 0
M  V30 847 C 80.9825 -0.72574 5.00061 0
M  V30 848 C 83.1805 -0.396256 5.12771 0
M  V30 849 N 81.1625 0.0851816 6.13841 0
M  V30 850 C 82.5335 0.278137 6.19376 0
M  V30 851 C 84.5885 -0.309117 4.9694 0
M  V30 852 C 83.2915 1.03133 7.11868 0
M  V30 853 C 85.3175 0.430607 5.8983 0
M  V30 854 C 84.6795 1.09355 6.9586 0
M  V30 855 H 80.7785 -0.326081 0.710771 0
M  V30 856 H 83.3625 -0.215914 1.93499 0
M  V30 857 H 81.5335 -2.52029 2.95527 0
M  V30 858 H 83.2655 -2.47848 3.19927 0
M  V30 859 H 80.0205 -1.04335 4.61964 0
M  V30 860 H 80.4445 0.479428 6.753 0
M  V30 861 H 85.0865 -0.807313 4.15021 0
M  V30 862 H 82.8045 1.54105 7.9327 0
M  V30 863 H 86.3905 0.499012 5.79656 0
M  V30 864 H 85.2705 1.65679 7.66499 0
M  V30 865 N 82.7736 -1.49793 -0.48987 0
M  V30 866 C 83.7216 -1.67783 -1.61095 0
M  V30 867 C 84.7156 -0.543683 -1.60438 0
M  V30 868 O 85.9216 -0.723647 -1.64813 0
M  V30 869 H 82.2966 -0.529255 -0.534222 0
M  V30 870 H 84.2676 -2.61861 -1.43078 0
M  V30 871 C 83.0166 -1.77191 -2.99164 0
M  V30 872 H 82.3396 -2.63841 -3.0038 0
M  V30 873 H 83.7796 -1.93809 -3.77113 0
M  V30 874 C 82.2386 -0.519203 -3.32875 0
M  V30 875 O 82.7686 0.350124 -4.00171 0
M  V30 876 N 80.9746 -0.378816 -2.8812 0
M  V30 877 H 80.5216 -1.08725 -2.33531 0
M  V30 878 H 80.4796 0.458239 -3.11043 0
M  V30 879 N 84.2517 0.741722 -1.39055 0
M  V30 880 C 85.4977 1.50234 -1.37118 0
M  V30 881 C 85.8527 1.92368 0.0350439 0
M  V30 882 O 85.1457 1.63422 1.00019 0
M  V30 883 C 85.3397 2.7592 -2.27163 0
M  V30 884 C 85.1687 2.46074 -3.76401 0
M  V30 885 C 83.9387 2.38704 -4.45364 0
M  V30 886 C 86.1367 2.12062 -4.68545 0
M  V30 887 N 84.1187 2.01258 -5.79973 0
M  V30 888 C 85.4897 1.85005 -5.91754 0
M  V30 889 C 87.5447 1.98473 -4.56632 0
M  V30 890 C 86.2477 1.4573 -7.04383 0
M  V30 891 C 88.2737 1.60599 -5.69176 0
M  V30 892 C 87.6357 1.34423 -6.91455 0
M  V30 893 H 83.7347 0.548858 -0.557027 0
M  V30 894 H 86.3187 0.862642 -1.74547 0
M  V30 895 H 84.4897 3.3768 -1.91904 0
M  V30 896 H 86.2217 3.42068 -2.16267 0
M  V30 897 H 82.9767 2.55574 -3.98721 0
M  V30 898 H 83.4007 1.85147 -6.51191 0
M  V30 899 H 88.0427 2.17381 -3.62637 0
M  V30 900 H 85.7607 1.25562 -7.98286 0
M  V30 901 H 89.3467 1.507 -5.61944 0
M  V30 902 H 88.2267 1.05555 -7.77064 0
M  V30 903 N 85.7298 1.2412 0.971189 0
M  V30 904 C 86.9548 1.10667 1.75407 0
M  V30 905 C 87.3798 -0.337048 1.85056 0
M  V30 906 O 86.7378 -1.24396 1.31892 0
M  V30 907 C 86.7858 1.74726 3.15441 0
M  V30 908 O 85.8898 1.01566 3.99697 0
M  V30 909 H 85.2308 0.387341 0.539317 0
M  V30 910 H 87.7608 1.64358 1.2185 0
M  V30 911 H 87.7708 1.80341 3.6598 0
M  V30 912 H 86.4458 2.79773 3.07734 0
M  V30 913 H 85.0228 1.03713 3.58187 0
M  V30 914 N 87.2079 -1.17134 1.05439 0
M  V30 915 C 88.4549 -1.87456 0.765942 0
M  V30 916 C 88.7829 -1.81189 -0.707153 0
M  V30 917 O 88.0379 -1.21633 -1.5331 0
M  V30 918 C 88.3369 -3.36833 1.19491 0
M  V30 919 C 88.0029 -3.63301 2.67063 0
M  V30 920 C 86.6649 -3.70234 3.07376 0
M  V30 921 C 89.0169 -3.74575 3.62413 0
M  V30 922 C 86.3449 -3.85933 4.41896 0
M  V30 923 C 88.6969 -3.91793 4.9667 0
M  V30 924 C 87.3609 -3.96966 5.36633 0
M  V30 925 H 86.6309 -0.685948 0.280278 0
M  V30 926 H 89.2779 -1.38556 1.32192 0
M  V30 927 H 87.5829 -3.87807 0.557969 0
M  V30 928 H 89.2799 -3.89611 0.948893 0
M  V30 929 H 85.8699 -3.58532 2.34846 0
M  V30 930 H 90.0539 -3.68537 3.32406 0
M  V30 931 H 85.3099 -3.88187 4.72357 0
M  V30 932 H 89.4839 -3.99458 5.70444 0
M  V30 933 H 87.1109 -4.08883 6.40874 0
M  V30 934 N 88.686 -0.835752 -1.33615 0
M  V30 935 C 89.634 -0.255238 -2.31195 0
M  V30 936 C 90.628 0.61107 -1.57995 0
M  V30 937 O 91.834 0.500979 -1.72888 0
M  V30 938 H 88.209 -0.0638085 -0.749288 0
M  V30 939 H 90.18 -1.09283 -2.77669 0
M  V30 940 C 88.929 0.55754 -3.43201 0
M  V30 941 H 88.252 -0.0997553 -3.99676 0
M  V30 942 H 89.692 0.929622 -4.13683 0
M  V30 943 C 88.151 1.73515 -2.88781 0
M  V30 944 O 88.681 2.83376 -2.84712 0
M  V30 945 N 86.887 1.55603 -2.4543 0
M  V30 946 H 86.434 0.662354 -2.48939 0
M  V30 947 H 86.392 2.34545 -2.09371 0
M  V30 948 N 90.1641 1.46063 -0.591896 0
M  V30 949 C 91.3921 2.06717 -0.0868936 0
M  V30 950 C 91.8071 1.43916 1.22203 0
M  V30 951 O 91.1641 0.547698 1.74088 0
M  V30 952 C 91.2151 3.6142 0.0758725 0
M  V30 953 O 90.9361 4.21874 -1.18126 0
M  V30 954 C 92.4371 4.39025 0.61416 0
M  V30 955 H 89.6571 0.668162 -0.0616518 0
M  V30 956 H 92.2011 1.8755 -0.815175 0
M  V30 957 H 90.3561 3.79983 0.754413 0
M  V30 958 H 90.7701 5.14861 -1.00092 0
M  V30 959 H 92.2441 5.4783 0.677193 0
M  V30 960 H 92.7211 4.07708 1.63312 0
M  V30 961 H 93.3271 4.2529 -0.0298142 0
M  V30 962 N 91.6422 0.330177 1.54103 0
M  V30 963 C 92.5722 -0.525353 2.27513 0
M  V30 964 C 93.5532 -1.11383 1.2856 0
M  V30 965 O 94.7382 -1.13773 1.57383 0
M  V30 966 C 91.8682 -1.6831 3.03791 0
M  V30 967 C 90.8222 -1.2236 4.10137 0
M  V30 968 C 90.1482 -2.46882 4.74293 0
M  V30 969 C 91.4482 -0.333697 5.21233 0
M  V30 970 H 93.1422 0.087013 2.99274 0
M  V30 971 H 90.6882 0.0432893 1.43935 0
M  V30 972 H 92.6412 -2.28795 3.5388 0
M  V30 973 H 91.3652 -2.32216 2.29659 0
M  V30 974 H 90.0242 -0.64165 3.60941 0
M  V30 975 H 89.6722 -3.09165 3.96769 0
M  V30 976 H 89.3722 -2.16825 5.46133 0
M  V30 977 H 90.8962 -3.08117 5.27159 0
M  V30 978 H 92.3102 -0.845013 5.67038 0
M  V30 979 H 90.7072 -0.125612 5.99969 0
M  V30 980 H 91.7772 0.633724 4.80741 0
M  V30 981 N 93.1203 -1.57491 0.0584922 0
M  V30 982 C 94.0673 -2.11958 -0.913376 0
M  V30 983 C 95.0373 -1.02875 -1.30407 0
M  V30 984 O 96.2223 -1.30464 -1.39226 0
M  V30 985 C 93.3623 -2.67497 -2.18035 0
M  V30 986 C 92.4753 -3.90691 -1.84349 0
M  V30 987 C 91.6103 -4.3452 -3.05559 0
M  V30 988 C 90.6493 -5.50395 -2.67827 0
M  V30 989 N 89.7863 -5.89244 -3.81754 0
M  V30 990 H 94.6263 -2.94704 -0.442017 0
M  V30 991 H 92.1633 -1.45643 -0.206545 0
M  V30 992 H 94.1213 -2.978 -2.92183 0
M  V30 993 H 92.7513 -1.87537 -2.62735 0
M  V30 994 H 91.8033 -3.66934 -1.00319 0
M  V30 995 H 93.1153 -4.7489 -1.5258 0
M  V30 996 H 92.2693 -4.66414 -3.87998 0
M  V30 997 H 91.0083 -3.49147 -3.40511 0
M  V30 998 H 90.0133 -5.18165 -1.83806 0
M  V30 999 H 91.2383 -6.3749 -2.34059 0
M  V30 1000 H 89.1843 -5.06823 -4.16493 0
M  V30 1001 H 89.1013 -6.68151 -3.53708 0
M  V30 1002 H 90.3693 -6.25756 -4.64811 0
M  V30 1003 N 94.5984 0.214957 -1.56127 0
M  V30 1004 C 95.5484 1.27006 -1.8935 0
M  V30 1005 C 96.5324 1.41969 -0.757202 0
M  V30 1006 O 97.7244 1.44673 -1.01973 0
M  V30 1007 C 94.8534 2.61911 -2.2194 0
M  V30 1008 C 93.9394 2.50822 -3.41978 0
M  V30 1009 N 94.3304 2.09391 -4.60423 0
M  V30 1010 C 92.6284 2.81765 -3.45723 0
M  V30 1011 C 93.3294 2.09712 -5.42582 0
M  V30 1012 N 92.3054 2.50454 -4.82466 0
M  V30 1013 H 96.1074 0.940734 -2.78437 0
M  V30 1014 H 93.6214 0.423492 -1.56781 0
M  V30 1015 H 95.6184 3.38096 -2.43919 0
M  V30 1016 H 94.2784 2.95684 -1.34169 0
M  V30 1017 H 95.2894 1.80416 -4.85459 0
M  V30 1018 H 91.9664 3.19865 -2.68314 0
M  V30 1019 H 93.3564 1.79748 -6.4741 0
M  V30 1020 N 96.0765 1.50051 0.48192 0
M  V30 1021 C 97.0245 1.68635 1.60203 0
M  V30 1022 C 98.0185 0.552184 1.60148 0
M  V30 1023 O 99.2245 0.732377 1.64427 0
M  V30 1024 H 95.5995 0.532081 0.531407 0
M  V30 1025 H 97.5705 2.62616 1.41688 0
M  V30 1026 C 96.3195 1.78775 2.9822 0
M  V30 1027 H 95.6425 2.6543 2.98976 0
M  V30 1028 H 97.0825 1.95806 3.7608 0
M  V30 1029 C 95.5415 0.536849 3.32595 0
M  V30 1030 O 96.0715 -0.328897 4.00351 0
M  V30 1031 N 94.2775 0.394091 2.87915 0
M  V30 1032 H 93.8245 1.09962 2.32951 0
M  V30 1033 H 93.7825 -0.441737 3.11281 0
M  V30 1034 N 97.5546 -0.734337 1.39446 0
M  V30 1035 C 98.4876 -1.85715 1.32609 0
M  V30 1036 C 99.4656 -1.6137 0.199636 0
M  V30 1037 O 100.65 -1.84626 0.380195 0
M  V30 1038 C 97.7766 -3.21709 1.05929 0
M  V30 1039 C 96.8226 -3.64913 2.20773 0
M  V30 1040 S 97.6556 -3.74203 3.83056 0
M  V30 1041 C 98.8116 -5.12986 3.58603 0
M  V30 1042 H 99.0446 -1.91232 2.27635 0
M  V30 1043 H 96.5776 -0.899263 1.25509 0
M  V30 1044 H 98.5356 -4.00236 0.912203 0
M  V30 1045 H 97.1966 -3.13848 0.125883 0
M  V30 1046 H 96.3896 -4.63606 1.97699 0
M  V30 1047 H 95.9916 -2.93593 2.31688 0
M  V30 1048 H 98.2836 -5.99339 3.15909 0
M  V30 1049 H 99.2266 -5.41088 4.5676 0
M  V30 1050 H 99.6346 -4.82694 2.9269 0
M  V30 1051 N 99.0327 -1.24633 -0.964593 0
M  V30 1052 C 99.9797 -1.04144 -2.05968 0
M  V30 1053 C 100.95 0.046262 -1.66036 0
M  V30 1054 O 102.135 -0.108972 -1.90489 0
M  V30 1055 C 99.2747 -0.65563 -3.38815 0
M  V30 1056 C 98.3877 -1.81714 -3.91923 0
M  V30 1057 C 97.5227 -1.37662 -5.13052 0
M  V30 1058 C 96.5617 -2.50788 -5.58365 0
M  V30 1059 N 95.6987 -2.07582 -6.70712 0
M  V30 1060 H 100.539 -1.9787 -2.22827 0
M  V30 1061 H 98.0757 -0.9855 -1.09208 0
M  V30 1062 H 100.034 -0.412954 -4.15151 0
M  V30 1063 H 98.6637 0.244627 -3.21872 0
M  V30 1064 H 97.7157 -2.1734 -3.12198 0
M  V30 1065 H 99.0277 -2.66705 -4.21509 0
M  V30 1066 H 98.1817 -1.093 -5.96773 0
M  V30 1067 H 96.9207 -0.497293 -4.85158 0
M  V30 1068 H 95.9257 -2.79906 -4.73215 0
M  V30 1069 H 97.1507 -3.39283 -5.88272 0
M  V30 1070 H 95.0967 -1.22051 -6.44546 0
M  V30 1071 H 95.0137 -2.86125 -6.99763 0
M  V30 1072 H 96.2817 -1.82369 -7.57867 0
M  V30 1073 N 100.511 1.16574 -1.06058 0
M  V30 1074 C 101.788 1.83048 -0.689416 0
M  V30 1075 C 102.168 1.94122 0.829443 0
M  V30 1076 O 101.516 1.48249 1.7388 0
M  V30 1077 C 101.726 3.20186 -1.38859 0
M  V30 1078 C 103.074 3.95989 -1.53226 0
M  V30 1079 O 104.098 3.29696 -1.3483 0
M  V30 1080 O 102.957 5.14813 -1.83384 0
M  V30 1081 H 100.051 0.790258 -0.243764 0
M  V30 1082 H 102.597 1.23797 -1.16071 0
M  V30 1083 H 101.369 3.07146 -2.4244 0
M  V30 1084 H 100.992 3.87112 -0.907216 0
M  V30 1085 N 101.989 0.842826 1.3317 0
M  V30 1086 C 103.238 0.436738 1.96915 0
M  V30 1087 C 103.551 -1.01025 1.67491 0
M  V30 1088 O 104.757 -1.5212 2.24881 0
M  V30 1089 C 103.213 0.730021 3.52418 0
M  V30 1090 C 102.821 2.19195 3.90714 0
M  V30 1091 C 104.565 0.391076 4.22695 0
M  V30 1092 C 102.472 2.42907 5.39212 0
M  V30 1093 H 101.402 0.15958 0.736919 0
M  V30 1094 H 104.053 1.03196 1.51733 0
M  V30 1095 H 102.435 0.0643755 3.95948 0
M  V30 1096 H 103.609 2.8984 3.58231 0
M  V30 1097 H 101.924 2.49425 3.33431 0
M  V30 1098 H 104.521 0.545817 5.31907 0
M  V30 1099 H 104.864 -0.666294 4.10933 0
M  V30 1100 H 105.397 1.01212 3.84709 0
M  V30 1101 H 102.136 3.47224 5.55982 0
M  V30 1102 H 101.656 1.76827 5.73142 0
M  V30 1103 H 103.335 2.2626 6.06148 0
M  V30 1104 N 103.467 -1.45747 0.599634 0
M  V30 1105 C 104.417 -2.27538 -0.145107 0
M  V30 1106 C 105.401 -1.3686 -0.846055 0
M  V30 1107 O 106.593 -1.6091 -0.737357 0
M  V30 1108 C 103.722 -3.23569 -1.14708 0
M  V30 1109 C 102.808 -4.21734 -0.447383 0
M  V30 1110 N 103.199 -5.03257 0.506535 0
M  V30 1111 C 101.497 -4.40536 -0.695966 0
M  V30 1112 C 102.198 -5.74426 0.917068 0
M  V30 1113 N 101.174 -5.42966 0.26253 0
M  V30 1114 H 104.976 -2.87965 0.587672 0
M  V30 1115 H 102.49 -1.56803 0.422697 0
M  V30 1116 H 104.487 -3.8089 -1.69495 0
M  V30 1117 H 103.147 -2.64702 -1.8805 0
M  V30 1118 H 104.158 -5.10319 0.882899 0
M  V30 1119 H 100.835 -3.92802 -1.41467 0
M  V30 1120 H 102.225 -6.4995 1.70338 0
M  V30 1121 N 104.945 -0.338344 -1.53925 0
M  V30 1122 C 106.222 0.314774 -1.93051 0
M  V30 1123 C 106.602 1.68669 -1.26941 0
M  V30 1124 O 105.95 2.24636 -0.418445 0
M  V30 1125 C 106.16 0.392249 -3.46789 0
M  V30 1126 C 107.508 0.645554 -4.19664 0
M  V30 1127 O 108.532 0.474575 -3.53024 0
M  V30 1128 O 107.391 0.976408 -5.37707 0
M  V30 1129 H 104.485 0.182598 -0.80659 0
M  V30 1130 H 107.031 -0.389141 -1.65178 0
M  V30 1131 H 105.803 -0.570702 -3.87116 0
M  V30 1132 H 105.426 1.14316 -3.80812 0
M  V30 1133 N 106.423 1.57458 -0.0668435 0
M  V30 1134 C 107.386 2.11323 0.887422 0
M  V30 1135 C 108.386 1.03618 1.22964 0
M  V30 1136 O 109.576 1.29626 1.16373 0
M  V30 1137 C 106.708 2.61048 2.19242 0
M  V30 1138 H 107.901 2.96942 0.420194 0
M  V30 1139 H 105.454 1.55239 0.181793 0
M  V30 1140 H 106.189 1.78868 2.70512 0
M  V30 1141 H 105.974 3.39769 1.95702 0
M  V30 1142 H 107.464 3.02814 2.87565 0
M  V30 1143 N 107.901 -0.206675 1.56239 0
M  V30 1144 C 109.149 -0.927007 1.79586 0
M  V30 1145 C 109.47 -1.8427 0.637929 0
M  V30 1146 O 108.74 -1.92849 -0.344398 0
M  V30 1147 H 107.32 -0.345292 0.662407 0
M  V30 1148 H 109.982 -0.21496 1.93711 0
M  V30 1149 H 109.078 -1.52501 2.72305 0
M  V30 1150 N 109.379 -1.50304 -0.473955 0
M  V30 1151 C 110.609 -1.64663 -1.24778 0
M  V30 1152 C 111.017 -0.328174 -1.86332 0
M  V30 1153 O 110.36 0.699536 -1.69859 0
M  V30 1154 C 110.422 -2.6778 -2.39863 0
M  V30 1155 C 110.086 -4.11413 -1.98969 0
M  V30 1156 C 111.083 -4.97372 -1.51385 0
M  V30 1157 C 108.768 -4.57312 -2.07777 0
M  V30 1158 C 110.762 -6.27277 -1.13148 0
M  V30 1159 C 108.449 -5.87223 -1.69152 0
M  V30 1160 C 109.447 -6.72031 -1.21915 0
M  V30 1161 O 109.135 -7.99518 -0.838237 0
M  V30 1162 H 108.867 -0.556602 -0.383627 0
M  V30 1163 H 111.421 -1.9726 -0.572491 0
M  V30 1164 H 109.651 -2.30419 -3.10554 0
M  V30 1165 H 111.34 -2.71388 -3.01833 0
M  V30 1166 H 112.106 -4.63128 -1.44004 0
M  V30 1167 H 107.985 -3.91449 -2.43493 0
M  V30 1168 H 111.529 -6.93425 -0.762077 0
M  V30 1169 H 107.426 -6.20989 -1.76191 0
M  V30 1170 H 108.194 -8.12764 -0.967339 0
M  V30 1171 N 110.857 0.726932 -1.39834 0
M  V30 1172 C 112.085 1.51613 -1.40787 0
M  V30 1173 C 112.5 1.88799 -0.00451505 0
M  V30 1174 O 111.857 1.54662 0.968809 0
M  V30 1175 C 111.908 2.79863 -2.28821 0
M  V30 1176 O 111.629 2.44253 -3.63692 0
M  V30 1177 C 113.13 3.73837 -2.38245 0
M  V30 1178 H 110.35 0.468264 -0.480593 0
M  V30 1179 H 112.894 0.897607 -1.83748 0
M  V30 1180 H 111.049 3.38027 -1.89252 0
M  V30 1181 H 111.463 3.26695 -4.1033 0
M  V30 1182 H 112.937 4.60699 -3.04073 0
M  V30 1183 H 113.414 4.16153 -1.40403 0
M  V30 1184 H 114.02 3.21589 -2.78317 0
M  V30 1185 N 112.336 1.25143 0.95797 0
M  V30 1186 C 113.299 1.05321 2.03569 0
M  V30 1187 C 114.299 0.007152 1.60798 0
M  V30 1188 O 115.489 0.24903 1.72411 0
M  V30 1189 C 112.621 0.598394 3.35607 0
M  V30 1190 H 113.814 2.00986 2.22586 0
M  V30 1191 H 111.367 1.07502 1.13459 0
M  V30 1192 H 112.102 -0.361014 3.22284 0
M  V30 1193 H 111.887 1.35351 3.67998 0
M  V30 1194 H 113.377 0.48104 4.1482 0
M  V30 1195 N 113.814 -1.1601 1.06675 0
M  V30 1196 C 115.063 -1.85973 0.780818 0
M  V30 1197 C 115.376 -1.82819 -0.695444 0
M  V30 1198 O 116.582 -2.484 -1.09589 0
M  V30 1199 C 115.038 -3.33757 1.34665 0
M  V30 1200 C 114.646 -3.45374 2.85343 0
M  V30 1201 C 116.39 -4.0895 1.13843 0
M  V30 1202 C 114.297 -4.87266 3.35151 0
M  V30 1203 H 113.227 -0.696661 0.288407 0
M  V30 1204 H 115.878 -1.30903 1.28595 0
M  V30 1205 H 114.26 -3.88456 0.769274 0
M  V30 1206 H 115.434 -3.00816 3.49065 0
M  V30 1207 H 113.749 -2.83619 3.04876 0
M  V30 1208 H 116.346 -5.13654 1.4854 0
M  V30 1209 H 116.689 -4.16229 0.0770282 0
M  V30 1210 H 117.222 -3.605 1.68179 0
M  V30 1211 H 113.961 -4.85168 4.40786 0
M  V30 1212 H 113.481 -5.32433 2.76179 0
M  V30 1213 H 115.16 -5.56097 3.30704 0
M  V30 1214 N 115.292 -0.849877 -1.32721 0
M  V30 1215 C 116.224 -0.248332 -2.27851 0
M  V30 1216 C 117.237 0.577218 -1.52224 0
M  V30 1217 O 118.426 0.402489 -1.73903 0
M  V30 1218 C 115.526 0.668107 -3.32249 0
M  V30 1219 C 114.699 -0.120534 -4.37234 0
M  V30 1220 C 113.758 0.720932 -5.21238 0
M  V30 1221 O 112.784 0.156166 -5.68986 0
M  V30 1222 N 113.986 2.03647 -5.43607 0
M  V30 1223 H 116.751 -1.06575 -2.80111 0
M  V30 1224 H 114.312 -0.709395 -1.45531 0
M  V30 1225 H 116.304 1.23627 -3.85355 0
M  V30 1226 H 114.874 1.38621 -2.80184 0
M  V30 1227 H 114.094 -0.870108 -3.84477 0
M  V30 1228 H 115.382 -0.662406 -5.0447 0
M  V30 1229 H 114.78 2.51871 -5.06535 0
M  V30 1230 H 113.337 2.55287 -5.99727 0
M  V30 1231 N 116.77 1.45427 -0.607355 0
M  V30 1232 C 117.998 2.06614 -0.108814 0
M  V30 1233 C 118.413 1.45204 1.2067 0
M  V30 1234 O 117.77 0.566132 1.73497 0
M  V30 1235 C 117.821 3.61481 0.0375347 0
M  V30 1236 O 117.542 4.20598 -1.22593 0
M  V30 1237 C 119.043 4.39652 0.567561 0
M  V30 1238 H 116.263 0.66747 -0.0687351 0
M  V30 1239 H 118.807 1.86675 -0.835022 0
M  V30 1240 H 116.962 3.80762 0.714068 0
M  V30 1241 H 117.376 5.1377 -1.05547 0
M  V30 1242 H 118.85 5.48518 0.61905 0
M  V30 1243 H 119.327 4.09417 1.58978 0
M  V30 1244 H 119.933 4.25234 -0.0749202 0
M  V30 1245 N 118.248 0.346503 1.53744 0
M  V30 1246 C 119.473 -0.253074 2.0585 0
M  V30 1247 C 119.898 -1.43202 1.21962 0
M  V30 1248 O 119.256 -1.79783 0.234073 0
M  V30 1249 C 119.304 -0.643193 3.54817 0
M  V30 1250 O 118.408 -1.74286 3.73762 0
M  V30 1251 H 117.749 -0.0413583 0.662711 0
M  V30 1252 H 120.279 0.501574 1.98357 0
M  V30 1253 H 120.289 -0.919526 3.97503 0
M  V30 1254 H 118.964 0.218966 4.15323 0
M  V30 1255 H 117.541 -1.46356 3.42979 0
M  V30 1256 N 119.726 -1.57421 0.075193 0
M  V30 1257 C 121.137 -1.81021 -0.456964 0
M  V30 1258 C 121.488 -0.98936 -1.69429 0
M  V30 1259 O 120.613 -0.212865 -2.15351 0
M  V30 1260 C 121.208 -3.28329 -0.83581 0
M  V30 1261 C 119.767 -3.52764 -1.31281 0
M  V30 1262 C 118.914 -2.75676 -0.299648 0
M  V30 1263 H 121.865 -1.55822 0.300856 0
M  V30 1264 H 121.886 -3.40564 -1.69696 0
M  V30 1265 H 121.398 -3.88046 0.0649238 0
M  V30 1266 H 119.499 -2.98355 -2.23193 0
M  V30 1267 H 119.612 -4.61451 -1.28839 0
M  V30 1268 H 117.976 -2.42538 -0.777641 0
M  V30 1269 H 118.759 -3.38132 0.593417 0
M  V30 1270 N 121.204 0.198386 -1.56346 0
M  V30 1271 C 122.453 0.917451 -1.79627 0
M  V30 1272 C 122.766 1.8456 -0.64784 0
M  V30 1273 O 123.972 2.60504 -0.764859 0
M  V30 1274 C 122.428 1.68175 -3.18191 0
M  V30 1275 C 122.036 0.798589 -4.40825 0
M  V30 1276 C 123.78 2.39065 -3.50782 0
M  V30 1277 C 121.687 1.56157 -5.70411 0
M  V30 1278 H 120.617 0.346317 -0.669762 0
M  V30 1279 H 123.268 0.170801 -1.82703 0
M  V30 1280 H 121.65 2.47216 -3.09354 0
M  V30 1281 H 122.824 0.0470665 -4.60776 0
M  V30 1282 H 121.139 0.200686 -4.15916 0
M  V30 1283 H 123.736 2.96692 -4.44835 0
M  V30 1284 H 124.079 3.13091 -2.74371 0
M  V30 1285 H 124.612 1.66993 -3.61052 0
M  V30 1286 H 121.351 0.864142 -6.49779 0
M  V30 1287 H 120.871 2.2871 -5.54483 0
M  V30 1288 H 122.55 2.11622 -6.11412 0
M  V30 1289 N 122.682 1.50554 0.465978 0
M  V30 1290 C 123.63 1.70324 1.58406 0
M  V30 1291 C 124.624 0.569139 1.59553 0
M  V30 1292 O 125.83 0.749776 1.63641 0
M  V30 1293 H 122.205 0.537688 0.525734 0
M  V30 1294 H 124.176 2.64104 1.38894 0
M  V30 1295 C 122.925 1.81928 2.96307 0
M  V30 1296 H 122.248 2.68586 2.96144 0
M  V30 1297 H 123.688 1.99784 3.73982 0
M  V30 1298 C 122.147 0.572095 3.32007 0
M  V30 1299 O 122.677 -0.286416 4.00678 0
M  V30 1300 N 120.883 0.424606 2.87481 0
M  V30 1301 H 120.43 1.12427 2.31771 0
M  V30 1302 H 120.388 -0.408697 3.11732 0
M  V30 1303 N 124.16 -0.719506 1.40217 0
M  V30 1304 C 125.092 -1.84428 1.36084 0
M  V30 1305 C 126.105 -1.60597 0.266913 0
M  V30 1306 O 127.294 -1.70544 0.526983 0
M  V30 1307 C 124.394 -3.20757 1.094 0
M  V30 1308 C 123.567 -3.71817 2.30372 0
M  V30 1309 C 122.626 -4.86748 1.99907 0
M  V30 1310 O 121.652 -4.99603 2.72737 0
M  V30 1311 N 122.854 -5.7226 0.974635 0
M  V30 1312 H 125.619 -1.88473 2.33019 0
M  V30 1313 H 123.18 -0.900885 1.3452 0
M  V30 1314 H 125.172 -3.95235 0.870116 0
M  V30 1315 H 123.742 -3.11884 0.211452 0
M  V30 1316 H 122.962 -2.88514 2.68614 0
M  V30 1317 H 124.25 -4.02666 3.11026 0
M  V30 1318 H 123.648 -5.6448 0.371368 0
M  V30 1319 H 122.205 -6.46739 0.810656 0
M  V30 1320 N 125.638 -1.25649 -0.95132 0
M  V30 1321 C 126.884 -1.10757 -1.69884 0
M  V30 1322 C 127.217 0.350061 -1.91019 0
M  V30 1323 O 126.492 1.25783 -1.48354 0
M  V30 1324 C 126.775 -1.86606 -3.07978 0
M  V30 1325 C 126.628 -3.40217 -2.94232 0
M  V30 1326 C 127.947 -1.65182 -4.07925 0
M  V30 1327 H 125.066 -0.40374 -0.616574 0
M  V30 1328 H 127.708 -1.54521 -1.10558 0
M  V30 1329 H 125.858 -1.49409 -3.58621 0
M  V30 1330 H 127.53 -3.87108 -2.50889 0
M  V30 1331 H 125.773 -3.67759 -2.30078 0
M  V30 1332 H 126.444 -3.88505 -3.92133 0
M  V30 1333 H 128.92 -1.9757 -3.66204 0
M  V30 1334 H 127.796 -2.20683 -5.02583 0
M  V30 1335 H 128.057 -0.593933 -4.38092 0
M  V30 1336 N 127.117 1.15442 -1.07289 0
M  V30 1337 C 128.064 2.20161 -0.692653 0
M  V30 1338 C 129.034 1.63073 0.31564 0
M  V30 1339 O 130.219 1.89725 0.202235 0
M  V30 1340 C 127.359 3.44967 -0.0959509 0
M  V30 1341 C 126.472 4.16256 -1.15564 0
M  V30 1342 C 125.607 5.28609 -0.524011 0
M  V30 1343 C 124.646 5.91715 -1.56653 0
M  V30 1344 N 123.783 6.9554 -0.957531 0
M  V30 1345 H 128.623 2.52037 -1.59002 0
M  V30 1346 H 126.16 1.2378 -0.794798 0
M  V30 1347 H 128.118 4.16341 0.267628 0
M  V30 1348 H 126.748 3.1361 0.764772 0
M  V30 1349 H 125.8 3.43385 -1.6368 0
M  V30 1350 H 127.112 4.59268 -1.94613 0
M  V30 1351 H 126.266 6.06604 -0.108032 0
M  V30 1352 H 125.005 4.86787 0.29825 0
M  V30 1353 H 124.01 5.12433 -1.9923 0
M  V30 1354 H 125.235 6.35614 -2.39107 0
M  V30 1355 H 123.181 6.55814 -0.156162 0
M  V30 1356 H 123.098 7.36977 -1.68526 0
M  V30 1357 H 124.366 7.77435 -0.567032 0
M  V30 1358 N 128.595 0.856903 1.32268 0
M  V30 1359 C 129.505 0.306131 2.32594 0
M  V30 1360 C 130.521 -0.577209 1.64147 0
M  V30 1361 O 131.697 -0.477043 1.95669 0
M  V30 1362 C 128.762 -0.494561 3.43154 0
M  V30 1363 C 127.823 0.415186 4.27288 0
M  V30 1364 C 127.056 -0.347387 5.32568 0
M  V30 1365 O 127.279 -1.57708 5.48165 0
M  V30 1366 O 126.213 0.287982 6.01211 0
M  V30 1367 H 130.039 1.13737 2.81598 0
M  V30 1368 H 127.624 0.619902 1.35932 0
M  V30 1369 H 129.506 -0.948944 4.10576 0
M  V30 1370 H 128.181 -1.30257 2.96336 0
M  V30 1371 H 127.088 0.917793 3.62667 0
M  V30 1372 H 128.421 1.18844 4.77637 0
M  V30 1373 N 130.073 -1.45103 0.615059 0
M  V30 1374 C 131.321 -2.01784 0.112955 0
M  V30 1375 C 131.642 -1.48504 -1.26378 0
M  V30 1376 O 130.912 -0.682245 -1.83636 0
M  V30 1377 H 129.492 -0.745993 0.0387668 0
M  V30 1378 H 132.154 -1.77808 0.798141 0
M  V30 1379 H 131.25 -3.12025 0.0684069 0
M  V30 1380 N 131.551 -0.354651 -1.53558 0
M  V30 1381 C 132.499 0.512195 -2.26891 0
M  V30 1382 C 133.493 1.09263 -1.29452 0
M  V30 1383 O 134.699 1.03709 -1.47121 0
M  V30 1384 H 131.074 0.183878 -0.729173 0
M  V30 1385 H 133.045 -0.128202 -2.98124 0
M  V30 1386 C 131.794 1.64563 -3.06291 0
M  V30 1387 H 131.117 1.20829 -3.81104 0
M  V30 1388 H 132.557 2.22711 -3.60799 0
M  V30 1389 C 131.016 2.58158 -2.16462 0
M  V30 1390 O 131.546 3.60695 -1.76811 0
M  V30 1391 N 129.752 2.27096 -1.81317 0
M  V30 1392 H 129.299 1.43751 -2.1376 0
M  V30 1393 H 129.257 2.89975 -1.21498 0
M  V30 1394 N 133.029 1.57378 -0.0835403 0
M  V30 1395 C 133.961 2.10389 0.909338 0
M  V30 1396 C 134.974 1.03858 1.25369 0
M  V30 1397 O 136.163 1.31338 1.20882 0
M  V30 1398 C 133.263 2.55908 2.2218 0
M  V30 1399 C 132.436 3.86145 2.05453 0
M  V30 1400 C 131.495 4.17633 3.20108 0
M  V30 1401 O 130.521 4.87043 2.94581 0
M  V30 1402 N 131.723 3.72113 4.45547 0
M  V30 1403 H 134.488 2.962 0.456657 0
M  V30 1404 H 132.049 1.61579 0.101877 0
M  V30 1405 H 134.041 2.74027 2.97811 0
M  V30 1406 H 132.611 1.75171 2.58909 0
M  V30 1407 H 131.831 3.7729 1.1422 0
M  V30 1408 H 133.119 4.7137 1.91541 0
M  V30 1409 H 132.517 3.16062 4.69171 0
M  V30 1410 H 131.074 3.95409 5.18165 0
M  V30 1411 N 134.507 -0.190092 1.56449 0
M  V30 1412 C 135.755 -0.907908 1.80559 0
M  V30 1413 C 136.076 -1.83583 0.657438 0
M  V30 1414 O 135.346 -1.93203 -0.323924 0
M  V30 1415 H 133.926 -0.338247 0.666032 0
M  V30 1416 H 136.588 -0.194403 1.93928 0
M  V30 1417 H 135.684 -1.49604 2.73907 0
M  V30 1418 N 135.985 -1.50799 -0.457987 0
M  V30 1419 C 137.262 -1.52968 -1.21902 0
M  V30 1420 C 137.642 -0.281906 -2.09209 0
M  V30 1421 O 136.99 0.734076 -2.16388 0
M  V30 1422 C 137.2 -2.8326 -2.03875 0
M  V30 1423 C 138.548 -3.34425 -2.6162 0
M  V30 1424 O 139.572 -2.8467 -2.14106 0
M  V30 1425 O 138.431 -4.21188 -3.48228 0
M  V30 1426 H 135.525 -0.614129 -0.553873 0
M  V30 1427 H 138.071 -1.63098 -0.468739 0
M  V30 1428 H 136.843 -3.65543 -1.39621 0
M  V30 1429 H 136.466 -2.76195 -2.8601 0
M  V30 1430 N 137.463 0.71206 -1.40597 0
M  V30 1431 C 138.41 1.82613 -1.41142 0
M  V30 1432 C 139.38 1.63925 -0.267903 0
M  V30 1433 O 140.565 1.85009 -0.466495 0
M  V30 1434 C 137.705 3.20354 -1.28324 0
M  V30 1435 C 136.818 3.50589 -2.52411 0
M  V30 1436 C 135.953 4.77855 -2.32009 0
M  V30 1437 C 134.992 5.01005 -3.51654 0
M  V30 1438 N 134.129 6.19487 -3.30425 0
M  V30 1439 H 138.969 1.81482 -2.36365 0
M  V30 1440 H 136.506 0.886475 -1.17388 0
M  V30 1441 H 138.464 3.99899 -1.18899 0
M  V30 1442 H 137.094 3.20705 -0.367189 0
M  V30 1443 H 136.146 2.65573 -2.72351 0
M  V30 1444 H 137.458 3.63604 -3.41458 0
M  V30 1445 H 136.612 5.65424 -2.19956 0
M  V30 1446 H 135.351 4.67056 -1.40392 0
M  V30 1447 H 134.356 4.1189 -3.64179 0
M  V30 1448 H 135.581 5.13674 -4.44202 0
M  V30 1449 H 133.527 6.09932 -2.41494 0
M  V30 1450 H 133.444 6.33194 -4.13039 0
M  V30 1451 H 134.712 7.09834 -3.22113 0
M  V30 1452 N 138.941 1.26152 0.944643 0
M  V30 1453 C 140.166 1.14363 1.7302 0
M  V30 1454 C 140.591 -0.29772 1.85729 0
M  V30 1455 O 139.949 -1.2157 1.34501 0
M  V30 1456 C 139.997 1.81378 3.11664 0
M  V30 1457 O 139.101 1.10022 3.97453 0
M  V30 1458 H 138.442 0.398694 0.53098 0
M  V30 1459 H 140.972 1.66906 1.18337 0
M  V30 1460 H 140.982 1.88064 3.62072 0
M  V30 1461 H 139.657 2.86237 3.0173 0
M  V30 1462 H 138.234 1.11287 3.55907 0
M  V30 1463 N 140.419 -1.14872 1.07899 0
M  V30 1464 C 141.352 -2.18794 0.64841 0
M  V30 1465 C 142.33 -1.59065 -0.337189 0
M  V30 1466 O 143.514 -1.86936 -0.242284 0
M  V30 1467 C 140.641 -3.38667 -0.0470417 0
M  V30 1468 C 139.687 -4.16942 0.897884 0
M  V30 1469 S 140.52 -4.78615 2.40183 0
M  V30 1470 C 141.676 -6.0185 1.71834 0
M  V30 1471 H 141.909 -2.5498 1.52881 0
M  V30 1472 H 139.442 -1.25922 0.893484 0
M  V30 1473 H 141.4 -4.08113 -0.442027 0
M  V30 1474 H 140.061 -3.00814 -0.903861 0
M  V30 1475 H 139.254 -5.02726 0.358096 0
M  V30 1476 H 138.856 -3.53073 1.23352 0
M  V30 1477 H 141.148 -6.69574 1.03328 0
M  V30 1478 H 142.091 -6.60408 2.55473 0
M  V30 1479 H 142.499 -5.5173 1.19392 0
M  V30 1480 N 141.898 -0.863906 -1.31812 0
M  V30 1481 C 143.123 -0.48527 -2.01643 0
M  V30 1482 C 143.548 0.913058 -1.64453 0
M  V30 1483 O 142.906 1.6014 -0.849985 0
M  V30 1484 C 142.954 -0.642625 -3.54828 0
M  V30 1485 O 142.058 0.320659 -4.11151 0
M  V30 1486 H 141.399 -0.193793 -0.635091 0
M  V30 1487 H 143.929 -1.16565 -1.68148 0
M  V30 1488 H 143.939 -0.533628 -4.04495 0
M  V30 1489 H 142.614 -1.66227 -3.81237 0
M  V30 1490 H 141.191 0.167126 -3.72525 0
M  V30 1491 N 143.376 1.44774 -0.622745 0
M  V30 1492 C 144.324 2.32387 0.0994683 0
M  V30 1493 C 145.318 1.46859 0.844326 0
M  V30 1494 O 146.524 1.63254 0.758174 0
M  V30 1495 H 142.899 0.750273 0.0509291 0
M  V30 1496 H 144.87 2.91062 -0.65767 0
M  V30 1497 C 143.619 3.30723 1.07319 0
M  V30 1498 H 142.942 3.96541 0.509462 0
M  V30 1499 H 144.382 3.94725 1.54817 0
M  V30 1500 C 142.841 2.59021 2.15429 0
M  V30 1501 O 143.371 2.38286 3.23393 0
M  V30 1502 N 141.577 2.189 1.91131 0
M  V30 1503 H 141.124 2.35964 1.03337 0
M  V30 1504 H 141.082 1.71251 2.63668 0
M  V30 1505 N 144.854 0.36279 1.53368 0
M  V30 1506 C 146.1 -0.220702 2.02199 0
M  V30 1507 C 146.455 -1.46649 1.24546 0
M  V30 1508 O 145.748 -1.88737 0.32996 0
M  V30 1509 C 145.942 -0.568417 3.52851 0
M  V30 1510 C 145.771 0.642126 4.45092 0
M  V30 1511 C 144.541 1.15335 4.91961 0
M  V30 1512 C 146.739 1.50649 4.91741 0
M  V30 1513 N 144.721 2.3242 5.68202 0
M  V30 1514 C 146.092 2.52404 5.66297 0
M  V30 1515 C 148.147 1.52969 4.73819 0
M  V30 1516 C 146.85 3.56331 6.24836 0
M  V30 1517 C 148.876 2.55789 5.33222 0
M  V30 1518 C 148.238 3.56268 6.07662 0
M  V30 1519 H 144.337 -0.0435508 0.780786 0
M  V30 1520 H 146.921 0.506704 1.87991 0
M  V30 1521 H 145.092 -1.2649 3.67226 0
M  V30 1522 H 146.824 -1.13676 3.88407 0
M  V30 1523 H 143.579 0.718412 4.68119 0
M  V30 1524 H 144.003 2.91591 6.10986 0
M  V30 1525 H 148.645 0.766418 4.15795 0
M  V30 1526 H 146.363 4.33543 6.81958 0
M  V30 1527 H 149.949 2.58435 5.21251 0
M  V30 1528 H 148.829 4.34524 6.52808 0
M  V30 1529 N 146.332 -1.57332 0.0918853 0
M  V30 1530 C 147.562 -1.98286 -0.580205 0
M  V30 1531 C 147.97 -0.969713 -1.6246 0
M  V30 1532 O 147.313 0.0493501 -1.83634 0
M  V30 1533 C 147.375 -3.35603 -1.28882 0
M  V30 1534 C 147.039 -4.55285 -0.395559 0
M  V30 1535 C 148.036 -5.18687 0.355002 0
M  V30 1536 C 145.721 -5.01314 -0.314556 0
M  V30 1537 C 147.715 -6.26484 1.17458 0
M  V30 1538 C 145.402 -6.08979 0.508677 0
M  V30 1539 C 146.4 -6.71429 1.2519 0
M  V30 1540 O 146.088 -7.77018 2.06151 0
M  V30 1541 H 145.82 -0.656678 -0.160466 0
M  V30 1542 H 148.374 -2.04721 0.16688 0
M  V30 1543 H 146.604 -3.25842 -2.08241 0
M  V30 1544 H 148.293 -3.61026 -1.85512 0
M  V30 1545 H 149.059 -4.84058 0.302134 0
M  V30 1546 H 144.938 -4.5247 -0.882697 0
M  V30 1547 H 148.482 -6.75159 1.75518 0
M  V30 1548 H 144.379 -6.4304 0.563037 0
M  V30 1549 H 145.147 -7.93991 1.98799 0
M  V30 1550 N 147.81 0.181792 -1.56548 0
M  V30 1551 C 149.056 0.896803 -1.82562 0
M  V30 1552 C 149.411 1.80324 -0.670908 0
M  V30 1553 O 148.704 1.8868 0.333235 0
M  V30 1554 C 148.898 1.73728 -3.12335 0
M  V30 1555 C 148.727 0.913714 -4.4032 0
M  V30 1556 C 147.497 0.592903 -5.01809 0
M  V30 1557 C 149.695 0.260164 -5.13642 0
M  V30 1558 N 147.677 -0.247901 -6.13399 0
M  V30 1559 C 149.048 -0.442256 -6.18421 0
M  V30 1560 C 151.103 0.177253 -4.97584 0
M  V30 1561 C 149.806 -1.21971 -7.08883 0
M  V30 1562 C 151.832 -0.586839 -5.88481 0
M  V30 1563 C 151.194 -1.27766 -6.92716 0
M  V30 1564 H 147.293 0.307122 -0.719166 0
M  V30 1565 H 149.877 0.164535 -1.94004 0
M  V30 1566 H 148.048 2.44105 -3.02105 0
M  V30 1567 H 149.78 2.39279 -3.26386 0
M  V30 1568 H 146.535 0.920502 -4.64568 0
M  V30 1569 H 146.959 -0.658304 -6.73792 0
M  V30 1570 H 151.601 0.696993 -4.17015 0
M  V30 1571 H 149.319 -1.75083 -7.88905 0
M  V30 1572 H 152.905 -0.652522 -5.78129 0
M  V30 1573 H 151.785 -1.85943 -7.61836 0
M  V30 1574 N 149.288 1.51039 0.449983 0
M  V30 1575 C 150.218 1.74379 1.55288 0
M  V30 1576 C 151.199 0.593236 1.5942 0
M  V30 1577 O 152.384 0.834625 1.7535 0
M  V30 1578 C 149.514 1.85728 2.93466 0
M  V30 1579 C 148.468 3.01078 3.04197 0
M  V30 1580 C 147.794 2.97595 4.44231 0
M  V30 1581 C 149.094 4.41254 2.7945 0
M  V30 1582 H 150.788 2.66725 1.36008 0
M  V30 1583 H 148.334 1.2835 0.652864 0
M  V30 1584 H 150.287 2.0064 3.70569 0
M  V30 1585 H 149.011 0.900207 3.13949 0
M  V30 1586 H 147.67 2.85851 2.29531 0
M  V30 1587 H 147.318 1.99691 4.61663 0
M  V30 1588 H 147.018 3.75046 4.52343 0
M  V30 1589 H 148.542 3.14583 5.23326 0
M  V30 1590 H 149.956 4.56897 3.46292 0
M  V30 1591 H 148.353 5.20315 2.98985 0
M  V30 1592 H 149.423 4.52164 1.75144 0
M  V30 1593 N 150.766 -0.704594 1.40972 0
M  V30 1594 C 151.996 -1.49138 1.42974 0
M  V30 1595 C 152.404 -1.89175 0.0308406 0
M  V30 1596 O 151.747 -1.56734 -0.958138 0
M  V30 1597 C 151.809 -2.79016 2.26694 0
M  V30 1598 C 151.473 -2.61236 3.74973 0
M  V30 1599 C 152.47 -2.27773 4.67349 0
M  V30 1600 C 150.155 -2.77158 4.18914 0
M  V30 1601 C 152.149 -2.10457 6.01653 0
M  V30 1602 C 149.836 -2.59459 5.53285 0
M  V30 1603 C 150.834 -2.26158 6.4447 0
M  V30 1604 O 150.522 -2.08605 7.76363 0
M  V30 1605 H 150.254 -0.466443 0.489292 0
M  V30 1606 H 152.808 -0.8758 1.85793 0
M  V30 1607 H 151.038 -3.42947 1.78673 0
M  V30 1608 H 152.727 -3.40782 2.20504 0
M  V30 1609 H 153.493 -2.15095 4.34694 0
M  V30 1610 H 149.372 -3.02064 3.48251 0
M  V30 1611 H 152.916 -1.84387 6.72791 0
M  V30 1612 H 148.813 -2.71725 5.85522 0
M  V30 1613 H 149.581 -2.23439 7.87412 0
M  V30 1614 N 152.244 -1.26651 -0.937939 0
M  V30 1615 C 153.176 -1.04283 -2.04102 0
M  V30 1616 C 154.189 -0.00221014 -1.628 0
M  V30 1617 O 155.378 -0.242645 -1.76843 0
M  V30 1618 C 152.478 -0.557846 -3.34277 0
M  V30 1619 C 151.651 -1.66843 -4.04329 0
M  V30 1620 C 150.71 -1.18095 -5.12777 0
M  V30 1621 O 149.736 -1.87865 -5.37304 0
M  V30 1622 N 150.938 -0.0311006 -5.80492 0
M  V30 1623 H 153.703 -1.9927 -2.23856 0
M  V30 1624 H 151.264 -1.1808 -1.10764 0
M  V30 1625 H 153.256 -0.215836 -4.04124 0
M  V30 1626 H 151.826 0.298523 -3.11171 0
M  V30 1627 H 151.046 -2.18123 -3.28353 0
M  V30 1628 H 152.334 -2.41408 -4.47883 0
M  V30 1629 H 151.732 0.551486 -5.63005 0
M  V30 1630 H 150.289 0.251809 -6.51313 0
M  V30 1631 N 153.722 1.14298 -1.08507 0
M  V30 1632 C 155.133 1.66926 -0.836227 0
M  V30 1633 C 155.484 1.85576 0.63686 0
M  V30 1634 O 154.609 1.56767 1.49175 0
M  V30 1635 C 155.204 3.03219 -1.51142 0
M  V30 1636 C 153.763 3.52876 -1.30979 0
M  V30 1637 C 152.91 2.2833 -1.57356 0
M  V30 1638 H 155.861 0.983491 -1.24552 0
M  V30 1639 H 155.882 3.68726 -0.939211 0
M  V30 1640 H 155.394 2.89612 -2.58353 0
M  V30 1641 H 153.495 3.71703 -0.258429 0
M  V30 1642 H 153.608 4.33586 -2.03814 0
M  V30 1643 H 151.972 2.34454 -0.995164 0
M  V30 1644 H 152.755 2.17298 -2.65775 0
M  V30 1645 N 155.201 0.870884 1.31352 0
M  V30 1646 C 156.429 0.49677 2.00848 0
M  V30 1647 C 156.844 -0.910998 1.65367 0
M  V30 1648 O 156.201 -1.59696 0.883374 0
M  V30 1649 C 156.252 0.645308 3.55694 0
M  V30 1650 O 155.973 1.99764 3.89905 0
M  V30 1651 C 157.474 0.272326 4.42463 0
M  V30 1652 H 154.694 0.193462 0.642506 0
M  V30 1653 H 157.238 1.1723 1.67563 0
M  V30 1654 H 155.393 0.0173176 3.87396 0
M  V30 1655 H 155.807 2.00607 4.84621 0
M  V30 1656 H 157.281 0.427208 5.50344 0
M  V30 1657 H 157.758 -0.788587 4.32062 0
M  V30 1658 H 158.364 0.876054 4.1618 0
M  V30 1659 N 156.679 -1.44442 0.630414 0
M  V30 1660 C 157.904 -2.06927 0.139944 0
M  V30 1661 C 158.329 -1.46795 -1.17613 0
M  V30 1662 O 157.687 -0.569144 -1.72135 0
M  V30 1663 C 157.735 -3.6058 0.0379581 0
M  V30 1664 O 156.839 -3.99937 -1.0062 0
M  V30 1665 H 156.18 -0.658608 0.0844483 0
M  V30 1666 H 158.71 -1.85327 0.866891 0
M  V30 1667 H 158.72 -4.07714 -0.152856 0
M  V30 1668 H 157.395 -4.03728 0.998809 0
M  V30 1669 H 155.972 -3.64436 -0.79001 0
M  V30 1670 N 158.157 -0.370918 -1.53173 0
M  V30 1671 C 159.387 0.217389 -2.05453 0
M  V30 1672 C 159.795 1.42568 -1.24382 0
M  V30 1673 O 159.138 1.81571 -0.278839 0
M  V30 1674 C 159.2 0.669827 -3.53205 0
M  V30 1675 C 158.864 -0.4225 -4.55043 0
M  V30 1676 C 159.861 -1.27407 -5.04047 0
M  V30 1677 C 157.546 -0.58427 -4.9889 0
M  V30 1678 C 159.54 -2.27271 -5.95505 0
M  V30 1679 C 157.227 -1.58627 -5.90153 0
M  V30 1680 C 158.225 -2.42892 -6.38351 0
M  V30 1681 O 157.913 -3.41382 -7.27814 0
M  V30 1682 H 157.645 0.0408171 -0.674767 0
M  V30 1683 H 160.199 -0.5292 -1.98466 0
M  V30 1684 H 158.429 1.4681 -3.57748 0
M  V30 1685 H 160.118 1.18173 -3.88317 0
M  V30 1686 H 160.884 -1.16031 -4.70916 0
M  V30 1687 H 156.763 0.061851 -4.60959 0
M  V30 1688 H 160.307 -2.93079 -6.33049 0
M  V30 1689 H 156.204 -1.70048 -6.22699 0
M  V30 1690 H 156.972 -3.37173 -7.45826 0
M  V30 1691 N 159.635 1.57281 -0.100228 0
M  V30 1692 C 160.567 2.11342 0.886972 0
M  V30 1693 C 161.58 1.05182 1.24261 0
M  V30 1694 O 162.769 1.32613 1.19483 0
M  V30 1695 C 159.869 2.5825 2.19454 0
M  V30 1696 C 159.042 3.88302 2.01346 0
M  V30 1697 C 158.101 4.21004 3.15661 0
M  V30 1698 O 157.127 4.9014 2.89398 0
M  V30 1699 N 158.329 3.76818 4.41575 0
M  V30 1700 H 161.094 2.96668 0.425216 0
M  V30 1701 H 158.655 1.61678 0.0847334 0
M  V30 1702 H 160.647 2.7717 2.94888 0
M  V30 1703 H 159.217 1.77907 2.57037 0
M  V30 1704 H 158.437 3.7848 1.10212 0
M  V30 1705 H 159.725 4.73375 1.8653 0
M  V30 1706 H 159.123 3.2102 4.65792 0
M  V30 1707 H 157.68 4.00882 5.13942 0
M  V30 1708 N 161.113 -0.173488 1.56642 0
M  V30 1709 C 162.362 -0.888758 1.81063 0
M  V30 1710 C 162.675 -1.83506 0.67712 0
M  V30 1711 O 163.881 -2.59254 0.806206 0
M  V30 1712 C 162.337 -1.63091 3.20826 0
M  V30 1713 C 161.945 -0.728357 4.4204 0
M  V30 1714 C 163.689 -2.33454 3.54541 0
M  V30 1715 C 161.596 -1.47062 5.72823 0
M  V30 1716 H 160.526 -0.335618 0.675186 0
M  V30 1717 H 163.177 -0.141712 1.82952 0
M  V30 1718 H 161.559 -2.42263 3.13248 0
M  V30 1719 H 162.733 0.0262449 4.60793 0
M  V30 1720 H 161.048 -0.134492 4.16183 0
M  V30 1721 H 163.645 -2.89578 4.49498 0
M  V30 1722 H 163.988 -3.08687 2.79317 0
M  V30 1723 H 164.521 -1.61227 3.63663 0
M  V30 1724 H 161.26 -0.760658 6.51072 0
M  V30 1725 H 160.78 -2.1986 5.58052 0
M  V30 1726 H 162.459 -2.01868 6.14702 0
M  V30 1727 N 162.591 -1.51276 -0.441967 0
M  V30 1728 C 163.839 -1.63392 -1.18943 0
M  V30 1729 C 164.16 -0.350159 -1.9183 0
M  V30 1730 O 163.43 0.633784 -1.85364 0
M  V30 1731 H 162.01 -0.602164 -0.442049 0
M  V30 1732 H 164.672 -1.88186 -0.507165 0
M  V30 1733 H 163.768 -2.45934 -1.92154 0
M  V30 1734 N 164.069 0.697108 -1.41344 0
M  V30 1735 C 165.017 1.83237 -1.43272 0
M  V30 1736 C 166.011 1.66522 -0.310947 0
M  V30 1737 O 167.217 1.73402 -0.482899 0
M  V30 1738 H 163.592 0.603802 -0.448249 0
M  V30 1739 H 165.563 1.78727 -2.38954 0
M  V30 1740 C 164.312 3.21245 -1.33029 0
M  V30 1741 H 163.635 3.34723 -2.18633 0
M  V30 1742 H 165.075 4.00763 -1.38439 0
M  V30 1743 C 163.534 3.36873 -0.0424635 0
M  V30 1744 O 164.064 3.91177 0.913421 0
M  V30 1745 N 162.27 2.90581 0.0331145 0
M  V30 1746 H 161.817 2.46577 -0.745506 0
M  V30 1747 H 161.775 3.01416 0.894199 0
M  V30 1748 N 165.547 1.27147 0.931209 0
M  V30 1749 C 166.963 1.04475 1.20653 0
M  V30 1750 C 167.163 -0.223885 2.00252 0
M  V30 1751 O 166.219 -0.930332 2.34736 0
M  V30 1752 C 167.532 2.28209 1.95809 0
M  V30 1753 C 169.08 2.33211 2.08762 0
M  V30 1754 C 169.555 3.56665 2.87323 0
M  V30 1755 N 171.046 3.57201 2.94892 0
M  V30 1756 C 171.781 4.49395 3.56134 0
M  V30 1757 N 171.277 5.51889 4.18796 0
M  V30 1758 N 173.07 4.37026 3.53504 0
M  V30 1759 H 165.221 2.08612 0.399333 0
M  V30 1760 H 167.484 0.917312 0.239253 0
M  V30 1761 H 167.19 3.20538 1.44736 0
M  V30 1762 H 167.064 2.33247 2.96438 0
M  V30 1763 H 169.451 1.41391 2.59023 0
M  V30 1764 H 169.532 2.32178 1.07364 0
M  V30 1765 H 169.176 4.4882 2.37746 0
M  V30 1766 H 169.106 3.54948 3.88998 0
M  V30 1767 H 171.597 2.83074 2.50354 0
M  V30 1768 H 171.91 6.18409 4.63454 0
M  V30 1769 H 170.255 5.55735 4.17353 0
M  V30 1770 H 173.446 3.56166 3.03749 0
M  V30 1771 H 173.619 5.09067 4.00942 0
M  V30 1772 N 167.025 -1.13721 1.09112 0
M  V30 1773 C 168.255 -1.88499 0.845671 0
M  V30 1774 C 168.663 -1.79218 -0.606432 0
M  V30 1775 O 168.006 -1.1544 -1.42896 0
M  V30 1776 C 168.068 -3.38954 1.19793 0
M  V30 1777 C 167.732 -3.72018 2.65428 0
M  V30 1778 C 168.729 -3.7153 3.63677 0
M  V30 1779 C 166.414 -4.01775 3.01467 0
M  V30 1780 C 168.408 -4.00336 4.95994 0
M  V30 1781 C 166.095 -4.30243 4.33975 0
M  V30 1782 C 167.093 -4.29508 5.31048 0
M  V30 1783 O 166.781 -4.5728 6.61173 0
M  V30 1784 H 166.513 -0.603702 0.304171 0
M  V30 1785 H 169.067 -1.44903 1.45576 0
M  V30 1786 H 167.297 -3.83039 0.530871 0
M  V30 1787 H 168.986 -3.95052 0.932146 0
M  V30 1788 H 169.752 -3.4862 3.37179 0
M  V30 1789 H 165.631 -4.01496 2.26544 0
M  V30 1790 H 169.175 -3.99678 5.71755 0
M  V30 1791 H 165.072 -4.52625 4.60219 0
M  V30 1792 H 165.84 -4.74964 6.66597 0
M  V30 1793 N 168.503 -0.877838 -1.30888 0
M  V30 1794 C 169.433 -0.35534 -2.3078 0
M  V30 1795 C 170.414 0.557994 -1.60687 0
M  V30 1796 O 171.599 0.473355 -1.88343 0
M  V30 1797 C 168.729 0.437221 -3.44537 0
M  V30 1798 C 167.683 -0.383715 -4.26276 0
M  V30 1799 C 167.009 0.535014 -5.32017 0
M  V30 1800 C 168.309 -1.62201 -4.96476 0
M  V30 1801 H 170.003 -1.19007 -2.74732 0
M  V30 1802 H 167.549 -0.573698 -1.32078 0
M  V30 1803 H 169.502 0.813334 -4.13477 0
M  V30 1804 H 168.226 1.30553 -2.99372 0
M  V30 1805 H 166.885 -0.741874 -3.59015 0
M  V30 1806 H 166.533 1.40083 -4.831 0
M  V30 1807 H 166.233 -0.0104211 -5.87599 0
M  V30 1808 H 167.757 0.907799 -6.03814 0
M  V30 1809 H 169.171 -1.31689 -5.5797 0
M  V30 1810 H 167.568 -2.10711 -5.61891 0
M  V30 1811 H 168.638 -2.37044 -4.23011 0
M  V30 1812 N 169.982 1.44106 -0.638065 0
M  V30 1813 C 171.23 2.01579 -0.145043 0
M  V30 1814 C 171.551 1.50496 1.24 0
M  V30 1815 O 170.821 0.711374 1.82527 0
M  V30 1816 H 169.401 0.745282 -0.05063 0
M  V30 1817 H 172.063 1.76516 -0.826327 0
M  V30 1818 H 171.159 3.11877 -0.118039 0
M  V30 1819 N 171.46 0.379036 1.52974 0
M  V30 1820 C 172.688 -0.20679 2.05864 0
M  V30 1821 C 173.103 -1.41356 1.25155 0
M  V30 1822 O 172.46 -1.8009 0.295588 0
M  V30 1823 C 172.511 -0.587045 3.56702 0
M  V30 1824 O 172.232 0.571776 4.34353 0
M  V30 1825 C 173.733 -1.22983 4.25899 0
M  V30 1826 H 170.953 -0.0336123 0.670158 0
M  V30 1827 H 173.497 0.541298 1.97206 0
M  V30 1828 H 171.652 -1.28504 3.65466 0
M  V30 1829 H 172.066 0.261544 5.23847 0
M  V30 1830 H 173.54 -1.44635 5.32715 0
M  V30 1831 H 174.017 -2.19416 3.80465 0
M  V30 1832 H 174.623 -0.572892 4.21424 0
M  V30 1833 N 172.938 -1.57226 0.108567 0
M  V30 1834 C 173.848 -2.18292 -0.859401 0
M  V30 1835 C 174.864 -1.15612 -1.30038 0
M  V30 1836 O 176.04 -1.48039 -1.36552 0
M  V30 1837 C 173.105 -2.762 -2.09558 0
M  V30 1838 C 172.166 -3.93881 -1.70752 0
M  V30 1839 C 171.399 -4.49018 -2.88477 0
M  V30 1840 O 171.622 -4.03068 -4.036 0
M  V30 1841 O 170.556 -5.39852 -2.66164 0
M  V30 1842 H 174.382 -3.01441 -0.369769 0
M  V30 1843 H 171.967 -1.48945 -0.1165 0
M  V30 1844 H 173.849 -3.13156 -2.81978 0
M  V30 1845 H 172.524 -1.96089 -2.57548 0
M  V30 1846 H 171.431 -3.61713 -0.954714 0
M  V30 1847 H 172.764 -4.75396 -1.27513 0
M  V30 1848 N 174.416 0.165178 -1.56732 0
M  V30 1849 C 175.348 1.22911 -1.93457 0
M  V30 1850 C 176.361 1.40152 -0.828333 0
M  V30 1851 O 177.55 1.40046 -1.10677 0
M  V30 1852 C 174.65 2.59686 -2.17753 0
M  V30 1853 C 173.823 2.63663 -3.48999 0
M  V30 1854 C 172.882 3.81845 -3.62051 0
M  V30 1855 O 171.908 3.67559 -4.34613 0
M  V30 1856 N 173.11 4.98557 -2.97357 0
M  V30 1857 H 175.875 0.917118 -2.85323 0
M  V30 1858 H 173.436 0.354895 -1.57962 0
M  V30 1859 H 175.428 3.37225 -2.23743 0
M  V30 1860 H 173.998 2.83251 -1.32242 0
M  V30 1861 H 173.218 1.72173 -3.54612 0
M  V30 1862 H 174.506 2.63336 -4.35352 0
M  V30 1863 H 173.904 5.13065 -2.38287 0
M  V30 1864 H 172.461 5.73936 -3.08934 0
M  V30 1865 N 175.894 1.51508 0.433938 0
M  V30 1866 C 176.804 1.75917 1.5521 0
M  V30 1867 C 177.82 0.643545 1.61662 0
M  V30 1868 O 178.996 0.926183 1.7884 0
M  V30 1869 C 176.061 1.88213 2.91164 0
M  V30 1870 C 175.122 3.12074 2.94802 0
M  V30 1871 C 174.355 3.23774 4.24271 0
M  V30 1872 O 174.578 2.4133 5.16833 0
M  V30 1873 O 173.512 4.16774 4.34262 0
M  V30 1874 H 177.338 2.70777 1.37527 0
M  V30 1875 H 174.923 1.36051 0.617293 0
M  V30 1876 H 176.805 1.98267 3.71845 0
M  V30 1877 H 175.48 0.965413 3.08968 0
M  V30 1878 H 174.387 3.07497 2.13065 0
M  V30 1879 H 175.72 4.03446 2.81943 0
M  V30 1880 N 177.372 -0.689602 1.41712 0
M  V30 1881 C 178.619 -1.44966 1.4139 0
M  V30 1882 C 178.947 -1.94484 0.025105 0
M  V30 1883 O 178.202 -1.70307 -0.964048 0
M  V30 1884 C 178.501 -2.67298 2.37247 0
M  V30 1885 C 178.167 -2.36405 3.83958 0
M  V30 1886 C 176.829 -2.27691 4.23923 0
M  V30 1887 C 179.181 -2.11043 4.76561 0
M  V30 1888 C 176.509 -1.91719 5.54492 0
M  V30 1889 C 178.861 -1.76578 6.07456 0
M  V30 1890 C 177.525 -1.66363 6.46436 0
M  V30 1891 H 176.795 -0.53047 0.517381 0
M  V30 1892 H 179.442 -0.787655 1.74552 0
M  V30 1893 H 177.747 -3.38461 1.9736 0
M  V30 1894 H 179.444 -3.25452 2.34269 0
M  V30 1895 H 176.034 -2.44085 3.52308 0
M  V30 1896 H 180.218 -2.16717 4.46483 0
M  V30 1897 H 175.474 -1.82367 5.83568 0
M  V30 1898 H 179.648 -1.55974 6.78708 0
M  V30 1899 H 177.275 -1.38258 7.47522 0
M  V30 1900 N 178.85 -1.27639 -0.924453 0
M  V30 1901 C 179.797 -1.10644 -2.0255 0
M  V30 1902 C 180.767 -0.00658438 -1.66099 0
M  V30 1903 O 181.952 -0.16952 -1.90045 0
M  V30 1904 C 179.092 -0.76309 -3.36557 0
M  V30 1905 C 178.205 -1.94091 -3.85944 0
M  V30 1906 C 177.34 -1.53914 -5.08413 0
M  V30 1907 C 176.379 -2.68425 -5.50104 0
M  V30 1908 N 175.516 -2.28815 -6.63768 0
M  V30 1909 H 180.356 -2.04858 -2.16419 0
M  V30 1910 H 177.893 -1.01974 -1.06017 0
M  V30 1911 H 179.851 -0.544822 -4.13627 0
M  V30 1912 H 178.481 0.142102 -3.22487 0
M  V30 1913 H 177.533 -2.27162 -3.05125 0
M  V30 1914 H 178.845 -2.7998 -4.12811 0
M  V30 1915 H 177.999 -1.28231 -5.92994 0
M  V30 1916 H 176.738 -0.651391 -4.8333 0
M  V30 1917 H 175.743 -2.94819 -4.64071 0
M  V30 1918 H 176.968 -3.57826 -5.7718 0
M  V30 1919 H 174.914 -1.42495 -6.40337 0
M  V30 1920 H 174.831 -3.08242 -6.90306 0
M  V30 1921 H 176.099 -2.06387 -7.51681 0
M  V30 1922 N 180.328 1.1314 -1.09713 0
M  V30 1923 C 181.238 2.22242 -0.751367 0
M  V30 1924 C 182.254 1.72224 0.247938 0
M  V30 1925 O 183.43 2.01205 0.0885463 0
M  V30 1926 C 180.495 3.46231 -0.180274 0
M  V30 1927 C 179.556 4.11125 -1.2359 0
M  V30 1928 C 178.789 5.29195 -0.691966 0
M  V30 1929 O 179.012 5.68342 0.48414 0
M  V30 1930 O 177.946 5.84214 -1.44838 0
M  V30 1931 H 181.772 2.54197 -1.66186 0
M  V30 1932 H 179.357 1.21331 -0.871735 0
M  V30 1933 H 181.239 4.21185 0.134739 0
M  V30 1934 H 179.914 3.1597 0.703185 0
M  V30 1935 H 178.821 3.37985 -1.60366 0
M  V30 1936 H 180.154 4.45524 -2.09211 0
M  V30 1937 N 181.806 0.884767 1.30421 0
M  V30 1938 C 182.739 0.295999 2.26272 0
M  V30 1939 C 183.717 -0.58332 1.51777 0
M  V30 1940 O 184.901 -0.53346 1.80794 0
M  V30 1941 C 182.028 -0.57944 3.33707 0
M  V30 1942 C 181.074 0.230525 4.25877 0
M  V30 1943 S 181.907 1.61867 5.1045 0
M  V30 1944 C 183.063 0.749756 6.21393 0
M  V30 1945 H 183.296 1.10848 2.75862 0
M  V30 1946 H 180.829 0.684178 1.38414 0
M  V30 1947 H 182.787 -1.07879 3.96071 0
M  V30 1948 H 181.448 -1.36601 2.82841 0
M  V30 1949 H 180.641 -0.437542 5.02097 0
M  V30 1950 H 180.243 0.662493 3.68086 0
M  V30 1951 H 182.535 -0.0333547 6.77492 0
M  V30 1952 H 183.478 1.48356 6.92384 0
M  V30 1953 H 183.886 0.310751 5.63644 0
M  V30 1954 N 183.284 -1.43765 0.645699 0
M  V30 1955 C 184.524 -2.03776 0.159542 0
M  V30 1956 C 184.888 -1.49792 -1.2011 0
M  V30 1957 O 186.089 -2.01398 -1.78023 0
M  V30 1958 C 184.36 -3.57036 0.161251 0
M  V30 1959 S 185.919 -4.3804 -0.258159 0
M  V30 1960 H 182.737 -0.707717 0.0682454 0
M  V30 1961 H 185.339 -1.75941 0.852352 0
M  V30 1962 H 184.043 -3.9383 1.15439 0
M  V30 1963 H 183.574 -3.89503 -0.552339 0
M  V30 1964 H 185.589 -4.7302 -1.49889 0
M  V30 1965 N 184.763 -0.387143 -1.52771 0
M  V30 1966 C 185.726 0.436939 -2.24997 0
M  V30 1967 C 186.726 0.991991 -1.26555 0
M  V30 1968 O 187.916 0.874335 -1.50669 0
M  V30 1969 C 185.048 1.61281 -3.00335 0
M  V30 1970 H 186.241 -0.195365 -2.99263 0
M  V30 1971 H 183.794 -0.139218 -1.55679 0
M  V30 1972 H 184.529 2.2826 -2.30364 0
M  V30 1973 H 184.314 1.22154 -3.72587 0
M  V30 1974 H 185.804 2.19629 -3.5518 0
M  V30 1975 N 186.241 1.57166 -0.116904 0
M  V30 1976 C 187.204 2.14039 0.819742 0
M  V30 1977 C 188.204 1.07477 1.19605 0
M  V30 1978 O 189.394 1.33263 1.1219 0
M  V30 1979 C 186.526 2.67891 2.10826 0
M  V30 1980 H 187.719 2.98128 0.325511 0
M  V30 1981 H 185.272 1.55739 0.132312 0
M  V30 1982 H 186.007 1.87384 2.64685 0
M  V30 1983 H 185.792 3.45823 1.84793 0
M  V30 1984 H 187.282 3.11809 2.77785 0
M  V30 1985 N 187.719 -0.156864 1.56817 0
M  V30 1986 C 188.682 -1.17781 1.96622 0
M  V30 1987 C 189.682 -1.36401 0.851555 0
M  V30 1988 O 190.872 -1.33561 1.11836 0
M  V30 1989 C 188.004 -2.54008 2.27361 0
M  V30 1990 H 189.197 -0.836564 2.87996 0
M  V30 1991 H 186.75 -0.39985 1.51099 0
M  V30 1992 H 187.485 -2.9312 1.38748 0
M  V30 1993 H 187.27 -2.41856 3.08623 0
M  V30 1994 H 188.76 -3.27558 2.59029 0
M  V30 1995 N 189.197 -1.51736 -0.425897 0
M  V30 1996 C 190.107 -1.76738 -1.54275 0
M  V30 1997 C 191.123 -0.65211 -1.61318 0
M  V30 1998 O 192.299 -0.935654 -1.78346 0
M  V30 1999 C 189.364 -1.89755 -2.90162 0
M  V30 2000 C 188.425 -3.13633 -2.93143 0
M  V30 2001 C 187.658 -3.2602 -4.22548 0
M  V30 2002 O 187.881 -2.44067 -5.15546 0
M  V30 2003 O 186.815 -4.19071 -4.32046 0
M  V30 2004 H 190.641 -2.71502 -1.36089 0
M  V30 2005 H 188.226 -1.36376 -0.610069 0
M  V30 2006 H 190.108 -2.00236 -3.70788 0
M  V30 2007 H 188.783 -0.981785 -3.08452 0
M  V30 2008 H 187.69 -3.08622 -2.11431 0
M  V30 2009 H 189.023 -4.04936 -2.798 0
M  V30 2010 N 190.675 0.682077 -1.42076 0
M  V30 2011 C 191.585 1.82535 -1.47371 0
M  V30 2012 C 192.601 1.7017 -0.363079 0
M  V30 2013 O 193.777 1.91848 -0.612875 0
M  V30 2014 C 190.842 3.18624 -1.36674 0
M  V30 2015 C 189.903 3.42999 -2.58167 0
M  V30 2016 C 189.136 4.72595 -2.4797 0
M  V30 2017 O 189.359 5.50006 -1.5116 0
M  V30 2018 O 188.293 4.98054 -3.37974 0
M  V30 2019 H 192.119 1.81023 -2.43853 0
M  V30 2020 H 189.704 0.836887 -1.2376 0
M  V30 2021 H 191.586 3.99847 -1.33043 0
M  V30 2022 H 190.261 3.20789 -0.433138 0
M  V30 2023 H 189.168 2.61653 -2.67373 0
M  V30 2024 H 190.501 3.45659 -3.50401 0
M  V30 2025 N 192.153 1.28127 0.917671 0
M  V30 2026 C 193.383 1.17722 1.6978 0
M  V30 2027 C 193.791 -0.267261 1.87303 0
M  V30 2028 O 193.134 -1.19286 1.39702 0
M  V30 2029 C 193.196 1.79958 3.11216 0
M  V30 2030 C 192.86 3.29187 3.16993 0
M  V30 2031 C 193.857 4.25679 2.98485 0
M  V30 2032 C 191.542 3.70075 3.39632 0
M  V30 2033 C 193.536 5.61035 3.02521 0
M  V30 2034 C 191.223 5.05557 3.433 0
M  V30 2035 C 192.221 6.00847 3.24764 0
M  V30 2036 O 191.909 7.33859 3.28187 0
M  V30 2037 H 191.641 0.409788 0.537634 0
M  V30 2038 H 194.195 1.69694 1.15728 0
M  V30 2039 H 192.425 1.22475 3.66793 0
M  V30 2040 H 194.114 1.64125 3.71238 0
M  V30 2041 H 194.88 3.95426 2.80826 0
M  V30 2042 H 190.759 2.96373 3.53106 0
M  V30 2043 H 194.303 6.35388 2.87971 0
M  V30 2044 H 190.2 5.35462 3.60486 0
M  V30 2045 H 190.968 7.42436 3.44575 0
M  V30 2046 N 193.631 -1.12557 1.10312 0
M  V30 2047 C 194.879 -1.83675 0.843091 0
M  V30 2048 C 195.2 -1.84435 -0.633131 0
M  V30 2049 O 194.47 -1.30657 -1.45964 0
M  V30 2050 H 193.05 -0.680138 0.308904 0
M  V30 2051 H 195.712 -1.36301 1.39313 0
M  V30 2052 H 194.808 -2.87908 1.2048 0
M  V30 2053 N 195.109 -0.891671 -1.2995 0
M  V30 2054 C 196.358 -0.509521 -1.95158 0
M  V30 2055 C 196.671 0.947388 -1.71125 0
M  V30 2056 O 197.877 1.43669 -2.30372 0
M  V30 2057 C 196.333 -0.860315 -3.49466 0
M  V30 2058 C 195.941 -2.33545 -3.8231 0
M  V30 2059 C 197.685 -0.547687 -4.20952 0
M  V30 2060 C 195.592 -2.62752 -5.29826 0
M  V30 2061 H 194.522 -0.18682 -0.730489 0
M  V30 2062 H 197.173 -1.08756 -1.47798 0
M  V30 2063 H 195.555 -0.211285 -3.95436 0
M  V30 2064 H 196.729 -3.02936 -3.47227 0
M  V30 2065 H 195.044 -2.61629 -3.23944 0
M  V30 2066 H 197.641 -0.742854 -5.29515 0
M  V30 2067 H 197.984 0.51332 -4.13123 0
M  V30 2068 H 198.517 -1.1542 -3.80688 0
M  V30 2069 H 195.256 -3.6762 -5.42712 0
M  V30 2070 H 194.776 -1.97977 -5.66185 0
M  V30 2071 H 196.455 -2.48601 -5.97333 0
M  V30 2072 N 196.587 1.43421 -0.653314 0
M  V30 2073 C 197.534 2.30768 0.0382271 0
M  V30 2074 C 198.504 1.44755 0.814576 0
M  V30 2075 O 199.689 1.73624 0.791162 0
M  V30 2076 C 196.829 3.30336 0.998599 0
M  V30 2077 C 195.942 4.31448 0.218342 0
M  V30 2078 C 195.077 5.18098 1.17252 0
M  V30 2079 C 194.116 6.10902 0.382702 0
M  V30 2080 N 193.253 6.90176 1.28848 0
M  V30 2081 H 198.093 2.89357 -0.712511 0
M  V30 2082 H 195.63 1.42548 -0.363128 0
M  V30 2083 H 197.588 3.86572 1.56901 0
M  V30 2084 H 196.218 2.73397 1.71621 0
M  V30 2085 H 195.27 3.77506 -0.46836 0
M  V30 2086 H 196.582 4.97227 -0.395812 0
M  V30 2087 H 195.736 5.7896 1.81356 0
M  V30 2088 H 194.475 4.52444 1.82058 0
M  V30 2089 H 193.48 5.49128 -0.27169 0
M  V30 2090 H 194.705 6.78598 -0.260957 0
M  V30 2091 H 192.651 6.27171 1.92334 0
M  V30 2092 H 192.568 7.52478 0.728887 0
M  V30 2093 H 193.836 7.55543 1.91766 0
M  V30 2094 N 198.065 0.39524 1.52563 0
M  V30 2095 C 199.311 -0.185318 2.01952 0
M  V30 2096 C 199.644 -1.45964 1.28095 0
M  V30 2097 O 198.919 -1.90689 0.38315 0
M  V30 2098 C 199.202 -0.447193 3.57312 0
M  V30 2099 C 199.055 0.842828 4.41833 0
M  V30 2100 C 200.374 -1.23529 4.22408 0
M  V30 2101 H 197.493 -0.0658788 0.73405 0
M  V30 2102 H 200.135 0.525975 1.82575 0
M  V30 2103 H 198.285 -1.05312 3.73954 0
M  V30 2104 H 199.957 1.4795 4.36931 0
M  V30 2105 H 198.2 1.45686 4.08605 0
M  V30 2106 H 198.871 0.614165 5.48573 0
M  V30 2107 H 201.347 -0.722445 4.0978 0
M  V30 2108 H 200.223 -1.38727 5.3108 0
M  V30 2109 H 200.484 -2.25213 3.80436 0
M  V30 2110 N 199.544 -1.57102 0.125237 0
M  V30 2111 C 200.793 -1.94582 -0.531095 0
M  V30 2112 C 201.106 -1.01126 -1.6743 0
M  V30 2113 O 202.312 -1.28097 -2.39381 0
M  V30 2114 C 200.768 -3.45839 -0.996164 0
M  V30 2115 C 200.376 -4.47842 0.118926 0
M  V30 2116 C 202.12 -3.92227 -1.62352 0
M  V30 2117 C 200.027 -5.90284 -0.363192 0
M  V30 2118 H 198.957 -0.726391 -0.20217 0
M  V30 2119 H 201.608 -1.82339 0.206092 0
M  V30 2120 H 199.99 -3.53338 -1.78796 0
M  V30 2121 H 201.164 -4.52018 0.895358 0
M  V30 2122 H 199.479 -4.11243 0.653324 0
M  V30 2123 H 202.076 -4.96069 -1.99548 0
M  V30 2124 H 202.419 -3.32552 -2.50429 0
M  V30 2125 H 202.952 -3.87554 -0.897019 0
M  V30 2126 H 199.691 -6.53728 0.481679 0
M  V30 2127 H 199.211 -5.89515 -1.10597 0
M  V30 2128 H 200.89 -6.41752 -0.822377 0
M  V30 2129 N 201.022 0.148545 -1.56898 0
M  V30 2130 C 202.268 0.862694 -1.83536 0
M  V30 2131 C 202.601 1.80889 -0.706604 0
M  V30 2132 O 201.876 1.92328 0.289885 0
M  V30 2133 C 202.159 1.63853 -3.20662 0
M  V30 2134 C 202.012 0.713925 -4.44098 0
M  V30 2135 C 203.331 2.60133 -3.54991 0
M  V30 2136 H 200.45 0.312179 -0.667618 0
M  V30 2137 H 203.092 0.127953 -1.89569 0
M  V30 2138 H 201.242 2.26489 -3.1565 0
M  V30 2139 H 202.914 0.098686 -4.61194 0
M  V30 2140 H 201.157 0.0234019 -4.33794 0
M  V30 2141 H 201.828 1.29278 -5.36648 0
M  V30 2142 H 204.304 2.07616 -3.60603 0
M  V30 2143 H 203.18 3.11468 -4.51972 0
M  V30 2144 H 203.441 3.41417 -2.80868 0
M  V30 2145 N 202.5 1.5196 0.417844 0
M  V30 2146 C 203.777 1.56146 1.17803 0
M  V30 2147 C 204.157 0.337275 2.08388 0
M  V30 2148 O 203.505 -0.676447 2.18258 0
M  V30 2149 C 203.715 2.88566 1.96293 0
M  V30 2150 C 205.063 3.41244 2.52662 0
M  V30 2151 O 206.087 2.90247 2.06483 0
M  V30 2152 O 204.946 4.30273 3.36938 0
M  V30 2153 H 202.04 0.628598 0.537395 0
M  V30 2154 H 204.586 1.64283 0.425331 0
M  V30 2155 H 203.358 3.69116 1.2988 0
M  V30 2156 H 202.981 2.83681 2.78587 0
M  V30 2157 N 203.978 -0.674533 1.42435 0
M  V30 2158 C 204.941 -1.76986 1.45632 0
M  V30 2159 C 205.941 -1.5708 0.343871 0
M  V30 2160 O 207.131 -1.63367 0.604709 0
M  V30 2161 C 204.263 -3.15623 1.28822 0
M  V30 2162 H 205.456 -1.75539 2.43158 0
M  V30 2163 H 203.009 -0.884189 1.28887 0
M  V30 2164 H 203.744 -3.22696 0.322193 0
M  V30 2165 H 203.529 -3.31475 2.09444 0
M  V30 2166 H 205.019 -3.95537 1.33942 0
M  V30 2167 N 205.456 -1.28612 -0.910864 0
M  V30 2168 C 206.702 -1.16106 -1.66274 0
M  V30 2169 C 207.035 0.289113 -1.92036 0
M  V30 2170 O 206.31 1.21 -1.52281 0
M  V30 2171 C 206.593 -1.96309 -3.01885 0
M  V30 2172 C 206.446 -3.49405 -2.8326 0
M  V30 2173 C 207.765 -1.78076 -4.02463 0
M  V30 2174 H 204.884 -0.423152 -0.603417 0
M  V30 2175 H 207.526 -1.57961 -1.05586 0
M  V30 2176 H 205.676 -1.60742 -3.53687 0
M  V30 2177 H 207.348 -3.94894 -2.38446 0
M  V30 2178 H 205.591 -3.74893 -2.18261 0
M  V30 2179 H 206.262 -4.00784 -3.79574 0
M  V30 2180 H 208.738 -2.0912 -3.59733 0
M  V30 2181 H 207.614 -2.36561 -4.95308 0
M  V30 2182 H 207.875 -0.733008 -4.35981 0
M  V30 2183 N 206.934 1.1197 -1.10907 0
M  V30 2184 C 208.183 1.82947 -0.849302 0
M  V30 2185 C 208.496 1.85275 0.627112 0
M  V30 2186 O 209.702 2.52296 1.00295 0
M  V30 2187 C 208.158 3.28529 -1.46959 0
M  V30 2188 C 207.766 3.34546 -2.97965 0
M  V30 2189 C 209.51 4.04443 -1.28942 0
M  V30 2190 C 207.417 4.74491 -3.53004 0
M  V30 2191 H 206.347 0.685477 -0.314065 0
M  V30 2192 H 208.998 1.2604 -1.33365 0
M  V30 2193 H 207.38 3.85333 -0.912917 0
M  V30 2194 H 208.554 2.87654 -3.59989 0
M  V30 2195 H 206.869 2.72108 -3.15192 0
M  V30 2196 H 209.466 5.07787 -1.67502 0
M  V30 2197 H 209.809 4.15656 -0.231456 0
M  V30 2198 H 210.342 3.5401 -1.81443 0
M  V30 2199 H 207.081 4.68474 -4.58489 0
M  V30 2200 H 206.601 5.21816 -2.9575 0
M  V30 2201 H 208.28 5.4344 -3.51115 0
M  V30 2202 N 208.412 0.89855 1.29475 0
M  V30 2203 C 209.36 0.365253 2.29714 0
M  V30 2204 C 210.354 -0.534993 1.6073 0
M  V30 2205 O 211.56 -0.417921 1.75081 0
M  V30 2206 H 207.935 0.0994853 0.74539 0
M  V30 2207 H 209.906 1.22406 2.72138 0
M  V30 2208 C 208.655 -0.393159 3.4547 0
M  V30 2209 H 207.978 0.290332 3.98744 0
M  V30 2210 H 209.418 -0.731189 4.17648 0
M  V30 2211 C 207.877 -1.59539 2.9673 0
M  V30 2212 O 208.407 -2.69469 2.97908 0
M  V30 2213 N 206.613 -1.43716 2.52575 0
M  V30 2214 H 206.16 -0.542828 2.51816 0
M  V30 2215 H 206.118 -2.24288 2.20323 0
M  V30 2216 N 209.89 -1.43072 0.660911 0
M  V30 2217 C 210.84 -2.27948 -0.04847 0
M  V30 2218 C 211.824 -1.40325 -0.787246 0
M  V30 2219 O 213.016 -1.63893 -0.668446 0
M  V30 2220 C 210.145 -3.28143 -1.00881 0
M  V30 2221 C 209.231 -4.23252 -0.268108 0
M  V30 2222 N 209.622 -5.00656 0.719528 0
M  V30 2223 C 207.92 -4.43092 -0.508493 0
M  V30 2224 C 208.621 -5.70019 1.15988 0
M  V30 2225 N 207.597 -5.41364 0.492584 0
M  V30 2226 H 211.399 -2.85213 0.709279 0
M  V30 2227 H 208.913 -1.54869 0.488822 0
M  V30 2228 H 210.91 -3.87736 -1.53188 0
M  V30 2229 H 209.57 -2.7244 -1.76654 0
M  V30 2230 H 210.581 -5.06115 1.09855 0
M  V30 2231 H 207.258 -3.98449 -1.24679 0
M  V30 2232 H 208.648 -6.4214 1.97751 0
M  V30 2233 N 211.368 -0.403325 -1.52352 0
M  V30 2234 C 212.596 0.174012 -2.06167 0
M  V30 2235 C 213.011 1.39347 -1.27388 0
M  V30 2236 O 212.368 1.79597 -0.324201 0
M  V30 2237 C 212.419 0.530223 -3.5759 0
M  V30 2238 O 212.14 -0.640806 -4.33388 0
M  V30 2239 C 213.641 1.16192 -4.27802 0
M  V30 2240 H 210.861 0.0229464 -0.670608 0
M  V30 2241 H 213.405 -0.572604 -1.9632 0
M  V30 2242 H 211.56 1.22673 -3.67464 0
M  V30 2243 H 211.974 -0.344851 -5.23365 0
M  V30 2244 H 213.448 1.36141 -5.34948 0
M  V30 2245 H 213.925 2.13335 -3.83907 0
M  V30 2246 H 214.531 0.505775 -4.22282 0
M  V30 2247 N 212.846 1.57033 -0.133567 0
M  V30 2248 C 214.074 2.00044 0.528195 0
M  V30 2249 C 214.489 1.01349 1.59291 0
M  V30 2250 O 213.846 0.00848369 1.82498 0
M  V30 2251 C 213.897 3.43018 1.1411 0
M  V30 2252 O 213.618 4.37939 0.11892 0
M  V30 2253 C 215.119 4.01237 1.88477 0
M  V30 2254 H 212.339 0.656517 0.138661 0
M  V30 2255 H 214.883 2.03267 -0.224196 0
M  V30 2256 H 213.038 3.40688 1.84418 0
M  V30 2257 H 213.452 5.21436 0.56613 0
M  V30 2258 H 214.926 5.03314 2.26669 0
M  V30 2259 H 215.403 3.41193 2.76558 0
M  V30 2260 H 216.009 4.07156 1.22898 0
M  V30 2261 N 214.325 -0.140222 1.56975 0
M  V30 2262 C 215.55 -0.870414 1.88251 0
M  V30 2263 C 215.975 -1.73637 0.723312 0
M  V30 2264 O 215.333 -1.78329 -0.32689 0
M  V30 2265 C 215.381 -1.69737 3.18154 0
M  V30 2266 O 214.485 -2.80229 3.02565 0
M  V30 2267 H 213.826 -0.242025 0.61832 0
M  V30 2268 H 216.356 -0.128999 2.04193 0
M  V30 2269 H 216.366 -2.09099 3.50345 0
M  V30 2270 H 215.041 -1.06152 4.02125 0
M  V30 2271 H 213.618 -2.44224 2.81796 0
M  V30 2272 N 215.803 -1.52179 -0.40978 0
M  V30 2273 C 217.08 -1.56769 -1.16974 0
M  V30 2274 C 217.46 -0.348322 -2.08206 0
M  V30 2275 O 216.808 0.664862 -2.18613 0
M  V30 2276 C 217.018 -2.89603 -1.9476 0
M  V30 2277 C 218.366 -3.42579 -2.50849 0
M  V30 2278 O 219.39 -2.91338 -2.04941 0
M  V30 2279 O 218.249 -4.32054 -3.34652 0
M  V30 2280 H 215.343 -0.631439 -0.534054 0
M  V30 2281 H 217.889 -1.64507 -0.416613 0
M  V30 2282 H 216.661 -3.698 -1.27921 0
M  V30 2283 H 216.284 -2.85155 -2.77079 0
M  V30 2284 N 217.281 0.66697 -1.42791 0
M  V30 2285 C 218.511 1.45294 -1.46878 0
M  V30 2286 C 218.919 1.89027 -0.0809861 0
M  V30 2287 O 218.262 1.59219 0.916246 0
M  V30 2288 C 218.324 2.72908 -2.34012 0
M  V30 2289 C 217.988 2.51203 -3.81767 0
M  V30 2290 C 218.985 2.15302 -4.73224 0
M  V30 2291 C 216.67 2.65954 -4.26115 0
M  V30 2292 C 218.664 1.94431 -6.07022 0
M  V30 2293 C 216.351 2.44699 -5.59969 0
M  V30 2294 C 217.349 2.08992 -6.5024 0
M  V30 2295 O 217.037 1.87948 -7.81621 0
M  V30 2296 H 216.769 0.453306 -0.501487 0
M  V30 2297 H 219.323 0.826232 -1.88049 0
M  V30 2298 H 217.553 3.38089 -1.87703 0
M  V30 2299 H 219.242 3.34816 -2.29462 0
M  V30 2300 H 220.008 2.03495 -4.40244 0
M  V30 2301 H 215.887 2.92724 -3.56137 0
M  V30 2302 H 219.431 1.66484 -6.77443 0
M  V30 2303 H 215.328 2.56105 -5.9252 0
M  V30 2304 H 216.096 2.02483 -7.93059 0
M  V30 2305 N 218.759 1.29093 0.90403 0
M  V30 2306 C 219.722 1.1386 1.98919 0
M  V30 2307 C 220.722 0.0753457 1.60623 0
M  V30 2308 O 221.912 0.321931 1.71199 0
M  V30 2309 C 219.044 0.740198 3.32767 0
M  V30 2310 H 220.237 2.10246 2.13861 0
M  V30 2311 H 217.79 1.12218 1.08797 0
M  V30 2312 H 218.525 -0.223997 3.23525 0
M  V30 2313 H 218.31 1.50838 3.61926 0
M  V30 2314 H 219.8 0.656546 4.12407 0
M  V30 2315 N 220.237 -1.11381 1.11499 0
M  V30 2316 C 221.2 -2.15622 0.777153 0
M  V30 2317 C 222.2 -1.59504 -0.203779 0
M  V30 2318 O 223.39 -1.74188 0.020782 0
M  V30 2319 C 220.522 -3.40556 0.153116 0
M  V30 2320 H 221.715 -2.47021 1.70061 0
M  V30 2321 H 219.268 -1.26577 0.916952 0
M  V30 2322 H 220.003 -3.14767 -0.780536 0
M  V30 2323 H 219.788 -3.8257 0.859238 0
M  V30 2324 H 221.278 -4.17546 -0.0671044 0
M  V30 2325 N 221.715 -0.905404 -1.28997 0
M  V30 2326 C 222.964 -0.530191 -1.94607 0
M  V30 2327 C 223.277 0.929185 -1.72121 0
M  V30 2328 O 224.483 1.41218 -2.31883 0
M  V30 2329 C 222.939 -0.897333 -3.48534 0
M  V30 2330 C 222.547 -2.37587 -3.79811 0
M  V30 2331 C 224.291 -0.592304 -4.20347 0
M  V30 2332 C 222.198 -2.68357 -5.27009 0
M  V30 2333 H 221.128 -0.194558 -0.728466 0
M  V30 2334 H 223.779 -1.10318 -1.46636 0
M  V30 2335 H 222.161 -0.253214 -3.9519 0
M  V30 2336 H 223.335 -3.06602 -3.43994 0
M  V30 2337 H 221.65 -2.6505 -3.2115 0
M  V30 2338 H 224.247 -0.798975 -5.28697 0
M  V30 2339 H 224.59 0.469474 -4.13644 0
M  V30 2340 H 225.123 -1.19452 -3.79442 0
M  V30 2341 H 221.862 -3.73355 -5.38782 0
M  V30 2342 H 221.382 -2.03971 -5.64053 0
M  V30 2343 H 223.061 -2.54922 -5.94663 0
M  V30 2344 N 223.193 1.4272 -0.668489 0
M  V30 2345 C 224.418 2.06484 -0.194758 0
M  V30 2346 C 224.843 1.49862 1.13679 0
M  V30 2347 O 224.201 0.614582 1.70565 0
M  V30 2348 C 224.249 3.60353 -0.133546 0
M  V30 2349 O 223.353 4.02464 0.899806 0
M  V30 2350 H 222.694 0.656137 -0.10188 0
M  V30 2351 H 225.224 1.82964 -0.915722 0
M  V30 2352 H 225.234 4.07976 0.0447041 0
M  V30 2353 H 223.909 4.00938 -1.1055 0
M  V30 2354 H 222.486 3.66402 0.693109 0
M  V30 2355 N 224.671 0.411399 1.52136 0
M  V30 2356 C 225.619 -0.427633 2.28635 0
M  V30 2357 C 226.613 -1.04383 1.33419 0
M  V30 2358 O 227.819 -0.981772 1.50868 0
M  V30 2359 H 224.194 -0.156689 0.735495 0
M  V30 2360 H 226.165 0.238761 2.97443 0
M  V30 2361 C 224.914 -1.53082 3.12188 0
M  V30 2362 H 224.237 -1.06601 3.85326 0
M  V30 2363 H 225.677 -2.09167 3.68816 0
M  V30 2364 C 224.136 -2.49946 2.25895 0
M  V30 2365 O 224.666 -3.53884 1.90076 0
M  V30 2366 N 222.872 -2.2021 1.8962 0
M  V30 2367 H 222.419 -1.35719 2.18948 0
M  V30 2368 H 222.377 -2.85266 1.32176 0
M  V30 2369 N 226.149 -1.5696 0.141893 0
M  V30 2370 C 227.059 -2.20066 -0.812905 0
M  V30 2371 C 228.075 -1.18344 -1.27557 0
M  V30 2372 O 229.251 -1.50902 -1.33381 0
M  V30 2373 C 226.316 -2.80583 -2.03652 0
M  V30 2374 C 225.377 -3.97414 -1.62359 0
M  V30 2375 C 224.61 -4.55036 -2.78887 0
M  V30 2376 O 224.833 -4.11538 -3.94959 0
M  V30 2377 O 223.767 -5.45376 -2.54653 0
M  V30 2378 H 227.593 -3.02157 -0.305746 0
M  V30 2379 H 225.178 -1.49159 -0.0848799 0
M  V30 2380 H 227.06 -3.19067 -2.75272 0
M  V30 2381 H 225.735 -2.01508 -2.5333 0
M  V30 2382 H 224.642 -3.63656 -0.877775 0
M  V30 2383 H 225.975 -4.77994 -1.17401 0
M  V30 2384 N 227.627 0.131896 -1.57047 0
M  V30 2385 C 228.873 0.843179 -1.84441 0
M  V30 2386 C 229.206 1.80129 -0.725749 0
M  V30 2387 O 228.481 1.92624 0.269469 0
M  V30 2388 C 228.764 1.60442 -3.22382 0
M  V30 2389 C 228.617 0.666782 -4.4483 0
M  V30 2390 C 229.936 2.56354 -3.5773 0
M  V30 2391 H 227.055 0.305081 -0.670891 0
M  V30 2392 H 229.697 0.107839 -1.89694 0
M  V30 2393 H 227.847 2.23128 -3.18035 0
M  V30 2394 H 229.519 0.0497646 -4.61273 0
M  V30 2395 H 227.762 -0.022609 -4.33794 0
M  V30 2396 H 228.433 1.23579 -5.37989 0
M  V30 2397 H 230.909 2.0378 -3.62785 0
M  V30 2398 H 229.785 3.06657 -4.5525 0
M  V30 2399 H 230.046 3.38419 -2.84473 0
M  V30 2400 N 229.106 1.52395 0.401703 0
M  V30 2401 C 230.053 1.76268 1.48991 0
M  V30 2402 C 231.023 0.605386 1.54675 0
M  V30 2403 O 232.208 0.843742 1.7113 0
M  V30 2404 C 229.348 1.92592 2.86361 0
M  V30 2405 C 228.461 3.20259 2.89928 0
M  V30 2406 C 227.596 3.26972 4.18644 0
M  V30 2407 C 226.635 4.48812 4.16214 0
M  V30 2408 N 225.772 4.52877 5.36514 0
M  V30 2409 H 230.612 2.6914 1.27935 0
M  V30 2410 H 228.149 1.33355 0.620871 0
M  V30 2411 H 230.107 2.0004 3.66115 0
M  V30 2412 H 228.737 1.03093 3.05895 0
M  V30 2413 H 227.789 3.21945 2.02621 0
M  V30 2414 H 229.101 4.10056 2.83999 0
M  V30 2415 H 228.255 3.33533 5.06794 0
M  V30 2416 H 226.994 2.35126 4.27278 0
M  V30 2417 H 225.999 4.4239 3.26453 0
M  V30 2418 H 227.224 5.41961 4.09213 0
M  V30 2419 H 225.17 3.63917 5.45802 0
M  V30 2420 H 225.087 5.36529 5.32609 0
M  V30 2421 H 226.355 4.63676 6.26597 0
M  V30 2422 N 230.584 -0.659388 1.43143 0
M  V30 2423 C 231.809 -1.45221 1.48073 0
M  V30 2424 C 232.234 -1.87845 0.097995 0
M  V30 2425 O 231.592 -1.56985 -0.90694 0
M  V30 2426 C 231.64 -2.66748 2.42647 0
M  V30 2427 O 230.744 -3.65583 1.90848 0
M  V30 2428 H 230.085 -0.435669 0.501088 0
M  V30 2429 H 232.615 -0.807432 1.87994 0
M  V30 2430 H 232.625 -3.14637 2.59745 0
M  V30 2431 H 231.3 -2.35067 3.43098 0
M  V30 2432 H 229.877 -3.24693 1.83381 0
M  V30 2433 N 232.062 -1.29571 -0.897171 0
M  V30 2434 C 233.311 -1.1706 -1.64256 0
M  V30 2435 C 233.624 0.276476 -1.93636 0
M  V30 2436 O 234.83 0.52294 -2.66416 0
M  V30 2437 C 233.286 -2.0475 -2.95982 0
M  V30 2438 C 232.894 -3.54295 -2.74187 0
M  V30 2439 C 234.638 -2.0097 -3.73914 0
M  V30 2440 C 232.545 -4.34081 -4.01656 0
M  V30 2441 H 231.475 -0.43452 -0.616205 0
M  V30 2442 H 234.126 -1.54229 -0.994268 0
M  V30 2443 H 232.508 -1.60452 -3.62038 0
M  V30 2444 H 233.682 -4.06662 -2.1671 0
M  V30 2445 H 231.997 -3.59773 -2.09648 0
M  V30 2446 H 234.594 -2.57838 -4.68427 0
M  V30 2447 H 234.937 -0.990273 -4.0435 0
M  V30 2448 H 235.47 -2.43325 -3.14703 0
M  V30 2449 H 232.209 -5.36671 -3.76384 0
M  V30 2450 H 231.729 -3.86483 -4.58684 0
M  V30 2451 H 233.408 -4.44877 -4.69781 0
M  V30 2452 N 233.54 1.10788 -1.12088 0
M  V30 2453 C 234.951 1.64181 -0.88891 0
M  V30 2454 C 235.302 1.87508 0.577498 0
M  V30 2455 O 234.427 1.61434 1.44112 0
M  V30 2456 C 235.022 2.98257 -1.60712 0
M  V30 2457 C 233.581 3.4853 -1.42139 0
M  V30 2458 C 232.728 2.23208 -1.6454 0
M  V30 2459 H 235.679 0.943368 -1.27618 0
M  V30 2460 H 235.7 3.65552 -1.05604 0
M  V30 2461 H 235.212 2.81246 -2.67436 0
M  V30 2462 H 233.313 3.70692 -0.376552 0
M  V30 2463 H 233.426 4.26882 -2.17505 0
M  V30 2464 H 231.79 2.31169 -1.06925 0
M  V30 2465 H 232.573 2.08733 -2.72554 0
M  V30 2466 N 235.018 0.912232 1.28515 0
M  V30 2467 C 235.966 0.389597 2.29314 0
M  V30 2468 C 236.96 -0.517915 1.61289 0
M  V30 2469 O 238.166 -0.399328 1.75515 0
M  V30 2470 H 234.541 0.107386 0.744293 0
M  V30 2471 H 236.512 1.25286 2.70825 0
M  V30 2472 C 235.261 -0.356496 3.45868 0
M  V30 2473 H 234.584 0.332608 3.98414 0
M  V30 2474 H 236.024 -0.686851 4.184 0
M  V30 2475 C 234.483 -1.56383 2.98406 0
M  V30 2476 O 235.013 -2.66294 3.00749 0
M  V30 2477 N 233.219 -1.41029 2.54085 0
M  V30 2478 H 232.766 -0.516089 2.52377 0
M  V30 2479 H 232.724 -2.21939 2.22689 0
M  V30 2480 N 236.496 -1.42363 0.676048 0
M  V30 2481 C 237.742 -2.02336 0.207809 0
M  V30 2482 C 238.097 -1.52506 -1.17302 0
M  V30 2483 O 237.39 -0.718048 -1.77636 0
M  V30 2484 C 237.584 -3.56929 0.183431 0
M  V30 2485 C 237.413 -4.21762 1.56036 0
M  V30 2486 C 236.183 -4.56881 2.15842 0
M  V30 2487 C 238.381 -4.49267 2.50327 0
M  V30 2488 N 236.363 -5.069 3.46303 0
M  V30 2489 C 237.734 -5.00851 3.65443 0
M  V30 2490 C 239.789 -4.31257 2.48841 0
M  V30 2491 C 238.492 -5.36317 4.79329 0
M  V30 2492 C 240.518 -4.678 3.61824 0
M  V30 2493 C 239.88 -5.19537 4.75668 0
M  V30 2494 H 235.979 -0.772583 0.120993 0
M  V30 2495 H 238.563 -1.73203 0.889306 0
M  V30 2496 H 236.734 -3.85576 -0.467483 0
M  V30 2497 H 238.466 -4.03603 -0.297808 0
M  V30 2498 H 235.221 -4.4268 1.68319 0
M  V30 2499 H 235.645 -5.36338 4.13123 0
M  V30 2500 H 240.287 -3.90511 1.62051 0
M  V30 2501 H 238.005 -5.75995 5.66794 0
M  V30 2502 H 241.591 -4.55541 3.61903 0
M  V30 2503 H 240.471 -5.47287 5.61646 0
M  V30 2504 N 237.974 -0.419461 -1.51915 0
M  V30 2505 C 239.202 0.152136 -2.0634 0
M  V30 2506 C 239.617 1.37988 -1.28859 0
M  V30 2507 O 238.974 1.79243 -0.343232 0
M  V30 2508 C 239.025 0.492266 -3.58133 0
M  V30 2509 O 238.746 -0.686736 -4.32684 0
M  V30 2510 C 240.247 1.11648 -4.2901 0
M  V30 2511 H 237.467 0.0158325 -0.670813 0
M  V30 2512 H 240.011 -0.593394 -1.95702 0
M  V30 2513 H 238.166 1.18769 -3.68745 0
M  V30 2514 H 238.58 -0.400341 -5.2297 0
M  V30 2515 H 240.054 1.3046 -5.36362 0
M  V30 2516 H 240.531 2.09251 -3.86148 0
M  V30 2517 H 241.137 0.460958 -4.22795 0
M  V30 2518 N 239.452 1.56882 -0.150215 0
M  V30 2519 C 240.402 2.13501 0.800071 0
M  V30 2520 C 241.386 1.06368 1.20726 0
M  V30 2521 O 242.578 1.32538 1.17314 0
M  V30 2522 C 239.707 2.76271 2.03787 0
M  V30 2523 C 238.793 3.90533 1.65364 0
M  V30 2524 N 239.184 4.96259 0.977794 0
M  V30 2525 C 237.482 4.013 1.94613 0
M  V30 2526 C 238.183 5.76286 0.791794 0
M  V30 2527 N 237.159 5.27163 1.32666 0
M  V30 2528 H 240.961 2.92615 0.274517 0
M  V30 2529 H 238.475 1.62319 0.0512144 0
M  V30 2530 H 240.472 3.15197 2.72867 0
M  V30 2531 H 239.132 1.98631 2.56857 0
M  V30 2532 H 240.143 5.13953 0.638193 0
M  V30 2533 H 236.82 3.3474 2.4951 0
M  V30 2534 H 238.21 6.71401 0.258894 0
M  V30 2535 N 240.93 -0.123565 1.57115 0
M  V30 2536 C 242.178 -0.83051 1.84247 0
M  V30 2537 C 242.499 -1.80629 0.73471 0
M  V30 2538 O 241.769 -1.94403 -0.241688 0
M  V30 2539 H 240.349 -0.309694 0.679778 0
M  V30 2540 H 243.011 -0.111976 1.94578 0
M  V30 2541 H 242.107 -1.37852 2.80006 0
M  V30 2542 N 242.408 -1.52605 -0.393616 0
M  V30 2543 C 243.356 -1.77688 -1.50099 0
M  V30 2544 C 244.35 -0.644615 -1.56656 0
M  V30 2545 O 245.556 -0.826997 -1.59877 0
M  V30 2546 H 241.931 -0.562159 -0.499481 0
M  V30 2547 H 243.902 -2.7043 -1.26135 0
M  V30 2548 C 242.651 -1.95858 -2.87289 0
M  V30 2549 H 241.974 -2.8241 -2.82992 0
M  V30 2550 H 243.414 -2.174 -3.64024 0
M  V30 2551 C 241.873 -0.729848 -3.28899 0
M  V30 2552 O 242.403 0.0949217 -4.01588 0
M  V30 2553 N 240.609 -0.561283 -2.85128 0
M  V30 2554 H 240.156 -1.23357 -2.26143 0
M  V30 2555 H 240.114 0.2595 -3.13327 0
M  V30 2556 N 243.887 0.651787 -1.4349 0
M  V30 2557 C 245.115 1.43937 -1.48626 0
M  V30 2558 C 245.53 1.8851 -0.104587 0
M  V30 2559 O 244.887 1.5958 0.885464 0
M  V30 2560 C 244.938 2.6734 -2.43334 0
M  V30 2561 O 244.659 2.24631 -3.76128 0
M  V30 2562 C 246.16 3.60683 -2.57726 0
M  V30 2563 H 243.38 0.44213 -0.504739 0
M  V30 2564 H 245.924 0.798944 -1.88248 0
M  V30 2565 H 244.079 3.2752 -2.06904 0
M  V30 2566 H 244.493 3.04485 -4.2707 0
M  V30 2567 H 245.967 4.43933 -3.28067 0
M  V30 2568 H 246.444 4.08126 -1.62265 0
M  V30 2569 H 247.05 3.06384 -2.94973 0
M  V30 2570 N 245.365 1.30045 0.890287 0
M  V30 2571 C 246.297 1.11786 2.00091 0
M  V30 2572 C 247.31 0.0626307 1.62679 0
M  V30 2573 O 248.499 0.308112 1.75821 0
M  V30 2574 C 245.599 0.681527 3.31977 0
M  V30 2575 C 244.772 1.81735 3.97858 0
M  V30 2576 C 243.831 1.37045 5.08041 0
M  V30 2577 O 242.857 2.07677 5.29961 0
M  V30 2578 N 244.059 0.246525 5.79976 0
M  V30 2579 H 246.824 2.07441 2.16306 0
M  V30 2580 H 244.385 1.2211 1.06305 0
M  V30 2581 H 246.377 0.365675 4.03045 0
M  V30 2582 H 244.947 -0.182828 3.12065 0
M  V30 2583 H 244.167 2.30159 3.20032 0
M  V30 2584 H 245.455 2.57865 4.38615 0
M  V30 2585 H 244.853 -0.34215 5.64664 0
M  V30 2586 H 243.41 -0.00990438 6.51799 0
M  V30 2587 N 246.843 -1.10192 1.12674 0
M  V30 2588 C 248.092 -1.81573 0.8783 0
M  V30 2589 C 248.405 -1.86249 -0.597557 0
M  V30 2590 O 249.611 -2.5386 -0.962681 0
M  V30 2591 C 248.067 -3.26149 1.52167 0
M  V30 2592 C 247.675 -3.29763 3.03249 0
M  V30 2593 C 249.419 -4.0234 1.3536 0
M  V30 2594 C 247.326 -4.68815 3.60508 0
M  V30 2595 H 246.256 -0.680394 0.324931 0
M  V30 2596 H 248.907 -1.23902 1.35353 0
M  V30 2597 H 247.289 -3.83832 0.974104 0
M  V30 2598 H 248.463 -2.8189 3.6452 0
M  V30 2599 H 246.778 -2.67059 3.19481 0
M  V30 2600 H 249.375 -5.05058 1.75559 0
M  V30 2601 H 249.718 -4.15235 0.297554 0
M  V30 2602 H 250.251 -3.51079 1.87052 0
M  V30 2603 H 246.99 -4.61121 4.65884 0
M  V30 2604 H 246.51 -5.17045 3.04014 0
M  V30 2605 H 248.189 -5.37785 3.59717 0
M  V30 2606 N 248.321 -0.919034 -1.28029 0
M  V30 2607 C 249.268 -0.410005 -2.27129 0
M  V30 2608 C 250.238 0.518405 -1.57803 0
M  V30 2609 O 251.423 0.439451 -1.8567 0
M  V30 2610 C 248.563 0.339054 -3.4343 0
M  V30 2611 C 247.676 -0.622468 -4.27492 0
M  V30 2612 C 246.811 0.145567 -5.31001 0
M  V30 2613 C 245.85 -0.809226 -6.06727 0
M  V30 2614 N 244.987 -0.0743728 -7.02061 0
M  V30 2615 H 249.827 -1.26011 -2.70047 0
M  V30 2616 H 247.364 -0.632663 -1.328 0
M  V30 2617 H 249.322 0.789586 -4.0966 0
M  V30 2618 H 247.952 1.15346 -3.01488 0
M  V30 2619 H 247.004 -1.19153 -3.61257 0
M  V30 2620 H 248.316 -1.35252 -4.80113 0
M  V30 2621 H 247.47 0.656417 -6.03139 0
M  V30 2622 H 246.209 0.908643 -4.79161 0
M  V30 2623 H 245.214 -1.3314 -5.33436 0
M  V30 2624 H 246.439 -1.57194 -6.60656 0
M  V30 2625 H 244.385 0.670616 -6.52563 0
M  V30 2626 H 244.302 -0.744157 -7.52329 0
M  V30 2627 H 245.57 0.416109 -7.78389 0
M  V30 2628 N 249.799 1.42003 -0.683588 0
M  V30 2629 C 250.747 2.326 0.000815408 0
M  V30 2630 C 251.741 1.50308 0.781278 0
M  V30 2631 O 252.947 1.66322 0.688251 0
M  V30 2632 H 249.322 0.751758 0.0190616 0
M  V30 2633 H 251.293 2.88011 -0.780528 0
M  V30 2634 C 250.042 3.34978 0.93195 0
M  V30 2635 H 249.365 3.98345 0.340817 0
M  V30 2636 H 250.805 4.00936 1.37936 0
M  V30 2637 C 249.264 2.67925 2.04249 0
M  V30 2638 O 249.794 2.51788 3.12995 0
M  V30 2639 N 248 2.2681 1.81675 0
M  V30 2640 H 247.547 2.40135 0.932363 0
M  V30 2641 H 247.505 1.8228 2.56167 0
M  V30 2642 N 251.277 0.427512 1.51691 0
M  V30 2643 C 252.523 -0.134744 2.02953 0
M  V30 2644 C 252.878 -1.41235 1.30654 0
M  V30 2645 O 252.171 -1.87168 0.409713 0
M  V30 2646 C 252.365 -0.418249 3.54944 0
M  V30 2647 C 252.194 0.830327 4.41968 0
M  V30 2648 C 250.964 1.36097 4.86627 0
M  V30 2649 C 253.162 1.7137 4.84909 0
M  V30 2650 N 251.144 2.56311 5.57833 0
M  V30 2651 C 252.515 2.76195 5.55082 0
M  V30 2652 C 254.57 1.72928 4.66905 0
M  V30 2653 C 253.273 3.82512 6.09161 0
M  V30 2654 C 255.299 2.78175 5.21894 0
M  V30 2655 C 254.661 3.8172 5.92004 0
M  V30 2656 H 250.76 -0.0103958 0.781931 0
M  V30 2657 H 253.344 0.585981 1.85673 0
M  V30 2658 H 251.515 -1.10801 3.7226 0
M  V30 2659 H 253.247 -0.970999 3.92879 0
M  V30 2660 H 250.002 0.916311 4.64651 0
M  V30 2661 H 250.426 3.17242 5.98069 0
M  V30 2662 H 255.068 0.942081 4.12171 0
M  V30 2663 H 252.786 4.62077 6.62956 0
M  V30 2664 H 256.372 2.8031 5.09821 0
M  V30 2665 H 255.252 4.61821 6.33791 0
M  V30 2666 N 252.755 -1.56801 0.158532 0
M  V30 2667 C 253.98 -2.01295 -0.499516 0
M  V30 2668 C 254.405 -1.03799 -1.56867 0
M  V30 2669 O 253.763 -0.0155162 -1.81293 0
M  V30 2670 C 253.811 -3.44469 -1.06647 0
M  V30 2671 O 252.915 -3.50012 -2.18095 0
M  V30 2672 H 252.256 -0.652884 -0.12099 0
M  V30 2673 H 254.786 -2.02958 0.258661 0
M  V30 2674 H 254.796 -3.8351 -1.39227 0
M  V30 2675 H 253.471 -4.14932 -0.283581 0
M  V30 2676 H 252.048 -3.22822 -1.86656 0
M  V30 2677 N 254.233 0.115231 -1.57178 0
M  V30 2678 C 255.51 0.852873 -1.76027 0
M  V30 2679 C 255.89 1.97892 -0.73498 0
M  V30 2680 O 255.238 2.27232 0.24036 0
M  V30 2681 C 255.448 1.36608 -3.21153 0
M  V30 2682 C 256.796 1.81692 -3.83762 0
M  V30 2683 O 257.82 1.46278 -3.24779 0
M  V30 2684 O 256.679 2.47104 -4.87444 0
M  V30 2685 H 253.773 0.405296 -0.720877 0
M  V30 2686 H 256.319 0.0986785 -1.69413 0
M  V30 2687 H 255.091 0.558357 -3.87296 0
M  V30 2688 H 254.714 2.18287 -3.3232 0
M  V30 2689 N 255.711 1.52812 0.385517 0
M  V30 2690 C 257.127 1.4214 0.725829 0
M  V30 2691 C 257.327 0.544589 1.94001 0
M  V30 2692 O 256.383 0.0193693 2.52493 0
M  V30 2693 C 257.696 2.85042 0.957668 0
M  V30 2694 C 259.244 2.94543 1.05892 0
M  V30 2695 C 259.719 4.38464 1.32337 0
M  V30 2696 N 261.21 4.41804 1.39151 0
M  V30 2697 C 261.945 5.5025 1.61285 0
M  V30 2698 N 261.441 6.68775 1.80866 0
M  V30 2699 N 263.234 5.37798 1.63492 0
M  V30 2700 H 255.385 2.08338 -0.413383 0
M  V30 2701 H 257.648 0.940016 -0.122775 0
M  V30 2702 H 257.354 3.51431 0.137568 0
M  V30 2703 H 257.228 3.27505 1.87137 0
M  V30 2704 H 259.615 2.28321 1.86959 0
M  V30 2705 H 259.696 2.55504 0.123057 0
M  V30 2706 H 259.34 5.05254 0.517793 0
M  V30 2707 H 259.27 4.75059 2.27214 0
M  V30 2708 H 261.761 3.56377 1.25713 0
M  V30 2709 H 262.074 7.47197 1.97271 0
M  V30 2710 H 260.419 6.71797 1.78083 0
M  V30 2711 H 263.61 4.44171 1.47749 0
M  V30 2712 H 263.783 6.22382 1.80402 0
M  V30 2713 N 257.189 -0.644168 1.43834 0
M  V30 2714 C 258.435 -1.40431 1.47141 0
M  V30 2715 C 258.79 -1.92153 0.0975577 0
M  V30 2716 O 258.083 -1.69924 -0.885232 0
M  V30 2717 C 258.277 -2.59615 2.45631 0
M  V30 2718 C 258.106 -2.1956 3.92458 0
M  V30 2719 C 256.876 -2.07456 4.60749 0
M  V30 2720 C 259.074 -1.79281 4.8204 0
M  V30 2721 N 257.056 -1.60827 5.92459 0
M  V30 2722 C 258.427 -1.43801 6.03093 0
M  V30 2723 C 260.482 -1.66545 4.6922 0
M  V30 2724 C 259.185 -0.968599 7.12749 0
M  V30 2725 C 261.211 -1.21008 5.78888 0
M  V30 2726 C 260.573 -0.864711 6.99072 0
M  V30 2727 H 256.672 -0.509182 0.593513 0
M  V30 2728 H 259.256 -0.740351 1.80075 0
M  V30 2729 H 257.427 -3.23658 2.1471 0
M  V30 2730 H 259.159 -3.26357 2.39318 0
M  V30 2731 H 255.914 -2.275 4.1538 0
M  V30 2732 H 256.338 -1.39848 6.62398 0
M  V30 2733 H 260.98 -1.91883 3.7675 0
M  V30 2734 H 258.698 -0.702715 8.05039 0
M  V30 2735 H 262.284 -1.11631 5.7099 0
M  V30 2736 H 261.164 -0.517736 7.82489 0
M  V30 2737 N 258.668 -1.30515 -0.883378 0
M  V30 2738 C 259.945 -1.10086 -1.6168 0
M  V30 2739 C 260.325 0.349269 -2.08191 0
M  V30 2740 O 259.673 1.34105 -1.85008 0
M  V30 2741 C 259.883 -2.10315 -2.78511 0
M  V30 2742 C 261.231 -2.42119 -3.48803 0
M  V30 2743 O 262.255 -2.08638 -2.88702 0
M  V30 2744 O 261.114 -2.99396 -4.57192 0
M  V30 2745 H 258.208 -0.422907 -0.710689 0
M  V30 2746 H 260.754 -1.41947 -0.930015 0
M  V30 2747 H 259.526 -3.07917 -2.41459 0
M  V30 2748 H 259.149 -1.79282 -3.54886 0
M  V30 2749 N 260.146 1.09593 -1.13257 0
M  V30 2750 C 261.392 1.82003 -0.89458 0
M  V30 2751 C 261.725 1.85402 0.577906 0
M  V30 2752 O 261 1.32099 1.42759 0
M  V30 2753 C 261.283 3.28237 -1.48096 0
M  V30 2754 C 261.136 3.3312 -3.02244 0
M  V30 2755 C 262.455 4.24871 -1.14774 0
M  V30 2756 H 259.574 0.66077 -0.326424 0
M  V30 2757 H 262.216 1.28389 -1.40058 0
M  V30 2758 H 260.366 3.74024 -1.05062 0
M  V30 2759 H 262.038 2.95748 -3.54021 0
M  V30 2760 H 260.281 2.72756 -3.37323 0
M  V30 2761 H 260.952 4.3613 -3.38371 0
M  V30 2762 H 263.428 3.87361 -1.51957 0
M  V30 2763 H 262.304 5.25532 -1.58452 0
M  V30 2764 H 262.565 4.42058 -0.0611849 0
M  V30 2765 N 261.624 0.925811 1.2754 0
M  V30 2766 C 262.852 0.581509 1.9856 0
M  V30 2767 C 263.267 -0.840041 1.69082 0
M  V30 2768 O 262.624 -1.55805 0.950312 0
M  V30 2769 C 262.675 0.795589 3.52637 0
M  V30 2770 O 262.396 2.16121 3.81082 0
M  V30 2771 C 263.897 0.459744 4.4091 0
M  V30 2772 H 261.117 0.220538 0.633722 0
M  V30 2773 H 263.661 1.24232 1.6244 0
M  V30 2774 H 261.816 0.18161 3.86974 0
M  V30 2775 H 262.23 2.2098 4.75676 0
M  V30 2776 H 263.704 0.660244 5.48037 0
M  V30 2777 H 264.181 -0.604625 4.35018 0
M  V30 2778 H 264.787 1.05178 4.12089 0
M  V30 2779 N 263.102 -1.41638 0.69111 0
M  V30 2780 C 264.034 -2.29194 -0.0161523 0
M  V30 2781 C 265.047 -1.44549 -0.748955 0
M  V30 2782 O 266.236 -1.681 -0.6004 0
M  V30 2783 C 263.336 -3.22325 -1.0469 0
M  V30 2784 C 262.509 -4.35706 -0.384621 0
M  V30 2785 C 261.568 -5.09443 -1.31737 0
M  V30 2786 O 260.594 -5.63386 -0.811451 0
M  V30 2787 N 261.796 -5.16487 -2.64993 0
M  V30 2788 H 264.561 -2.90534 0.735523 0
M  V30 2789 H 262.122 -1.52742 0.53679 0
M  V30 2790 H 264.114 -3.68522 -1.67252 0
M  V30 2791 H 262.684 -2.62323 -1.70015 0
M  V30 2792 H 261.904 -3.91948 0.420804 0
M  V30 2793 H 263.192 -5.08743 0.0760765 0
M  V30 2794 H 262.59 -4.741 -3.08619 0
M  V30 2795 H 261.147 -5.66276 -3.22761 0
M  V30 2796 N 264.58 -0.43555 -1.51462 0
M  V30 2797 C 265.528 0.391205 -2.29287 0
M  V30 2798 C 266.522 1.02247 -1.35062 0
M  V30 2799 O 267.728 0.957646 -1.52411 0
M  V30 2800 H 264.103 0.144968 -0.737895 0
M  V30 2801 H 266.074 -0.286051 -2.97026 0
M  V30 2802 C 264.823 1.48096 -3.14583 0
M  V30 2803 H 264.146 1.00457 -3.86973 0
M  V30 2804 H 265.586 2.03273 -3.72097 0
M  V30 2805 C 264.045 2.46321 -2.29843 0
M  V30 2806 O 264.575 3.50815 -1.95682 0
M  V30 2807 N 262.781 2.17166 -1.931 0
M  V30 2808 H 262.328 1.32218 -2.21079 0
M  V30 2809 H 262.286 2.83127 -1.36698 0
M  V30 2810 N 266.058 1.56714 -0.166846 0
M  V30 2811 C 267.283 2.01557 0.488833 0
M  V30 2812 C 267.708 1.0463 1.56314 0
M  V30 2813 O 267.066 0.0251304 1.81283 0
M  V30 2814 C 267.114 3.4503 1.04818 0
M  V30 2815 O 266.218 3.51163 2.16236 0
M  V30 2816 H 265.559 0.653516 0.117526 0
M  V30 2817 H 268.089 2.02818 -0.269421 0
M  V30 2818 H 268.099 3.84243 1.37191 0
M  V30 2819 H 266.774 4.15077 0.261572 0
M  V30 2820 H 265.351 3.23807 1.84942 0
M  V30 2821 N 267.536 -0.106894 1.57237 0
M  V30 2822 C 268.466 -1.13148 2.04254 0
M  V30 2823 C 269.447 -1.42476 0.929224 0
M  V30 2824 O 270.632 -1.52709 1.19973 0
M  V30 2825 C 267.762 -2.4545 2.45706 0
M  V30 2826 C 266.716 -2.30558 3.60592 0
M  V30 2827 C 266.042 -3.67931 3.87983 0
M  V30 2828 C 267.342 -1.75597 4.91897 0
M  V30 2829 H 269.036 -0.740374 2.90101 0
M  V30 2830 H 266.582 -0.354696 1.39563 0
M  V30 2831 H 268.535 -3.17389 2.77205 0
M  V30 2832 H 267.259 -2.86475 1.56843 0
M  V30 2833 H 265.918 -1.61067 3.29322 0
M  V30 2834 H 265.566 -4.06462 2.96306 0
M  V30 2835 H 265.266 -3.58817 4.65322 0
M  V30 2836 H 266.79 -4.41356 4.21945 0
M  V30 2837 H 268.204 -2.37364 5.21854 0
M  V30 2838 H 266.601 -1.77272 5.73319 0
M  V30 2839 H 267.671 -0.714451 4.79608 0
M  V30 2840 N 269.014 -1.53014 -0.377408 0
M  V30 2841 C 269.944 -1.81589 -1.46791 0
M  V30 2842 C 270.925 -0.668622 -1.56408 0
M  V30 2843 O 272.11 -0.917337 -1.71168 0
M  V30 2844 C 269.24 -1.99519 -2.8427 0
M  V30 2845 C 268.194 -3.15249 -2.89486 0
M  V30 2846 C 267.52 -3.18451 -4.29527 0
M  V30 2847 C 268.82 -4.54084 -2.58079 0
M  V30 2848 H 270.514 -2.7291 -1.23127 0
M  V30 2849 H 268.06 -1.31319 -0.590883 0
M  V30 2850 H 270.013 -2.18092 -3.60575 0
M  V30 2851 H 268.737 -1.04897 -3.09296 0
M  V30 2852 H 267.396 -2.96477 -2.15631 0
M  V30 2853 H 267.044 -2.2149 -4.5161 0
M  V30 2854 H 266.744 -3.962 -4.33934 0
M  V30 2855 H 268.268 -3.39193 -5.07721 0
M  V30 2856 H 269.682 -4.72899 -3.24098 0
M  V30 2857 H 268.079 -5.33987 -2.7382 0
M  V30 2858 H 269.149 -4.60006 -1.53372 0
M  V30 2859 N 270.492 0.636531 -1.44174 0
M  V30 2860 C 271.74 1.39343 -1.46383 0
M  V30 2861 C 272.061 1.94766 -0.0955715 0
M  V30 2862 O 271.331 1.75452 0.871395 0
M  V30 2863 H 269.911 0.517199 -0.538994 0
M  V30 2864 H 272.573 0.74957 -1.7991 0
M  V30 2865 H 271.669 2.22746 -2.18611 0
M  V30 2866 N 271.97 1.30982 0.876444 0
M  V30 2867 C 272.9 1.20668 1.99903 0
M  V30 2868 C 273.881 0.095354 1.69833 0
M  V30 2869 O 275.066 0.27885 1.92188 0
M  V30 2870 C 272.196 0.90655 3.3526 0
M  V30 2871 C 271.15 1.97675 3.79617 0
M  V30 2872 C 270.476 1.52943 5.1236 0
M  V30 2873 C 271.776 3.389 3.97422 0
M  V30 2874 H 273.47 2.14586 2.0879 0
M  V30 2875 H 271.016 1.03308 1.00317 0
M  V30 2876 H 272.969 0.821025 4.13324 0
M  V30 2877 H 271.693 -0.0682969 3.26529 0
M  V30 2878 H 270.352 2.05205 3.03787 0
M  V30 2879 H 270 0.54262 5.00065 0
M  V30 2880 H 269.7 2.24532 5.43009 0
M  V30 2881 H 271.224 1.45786 5.92941 0
M  V30 2882 H 272.638 3.34081 4.659 0
M  V30 2883 H 271.035 4.0865 4.3946 0
M  V30 2884 H 272.105 3.80163 3.01006 0
M  V30 2885 N 273.449 -1.08991 1.13837 0
M  V30 2886 C 274.679 -1.84743 0.924859 0
M  V30 2887 C 275.087 -1.81629 -0.529874 0
M  V30 2888 O 274.43 -1.21397 -1.37872 0
M  V30 2889 C 274.492 -3.33568 1.34061 0
M  V30 2890 C 274.156 -3.60425 2.80968 0
M  V30 2891 C 275.153 -3.55771 3.79108 0
M  V30 2892 C 272.838 -3.88627 3.18236 0
M  V30 2893 C 274.832 -3.78939 5.12527 0
M  V30 2894 C 272.519 -4.11449 4.51833 0
M  V30 2895 C 273.517 -4.06598 5.48787 0
M  V30 2896 O 273.205 -4.28826 6.79973 0
M  V30 2897 H 272.937 -0.590258 0.329502 0
M  V30 2898 H 275.491 -1.38598 1.51591 0
M  V30 2899 H 273.721 -3.80442 0.692853 0
M  V30 2900 H 275.41 -3.90743 1.09886 0
M  V30 2901 H 276.176 -3.34005 3.51661 0
M  V30 2902 H 272.055 -3.91526 2.43369 0
M  V30 2903 H 275.599 -3.75068 5.88192 0
M  V30 2904 H 271.496 -4.32698 4.79002 0
M  V30 2905 H 272.264 -4.46264 6.86142 0
M  V30 2906 N 274.927 -0.932562 -1.27047 0
M  V30 2907 C 276.204 -0.49377 -1.89265 0
M  V30 2908 C 276.584 1.02833 -1.8436 0
M  V30 2909 O 275.932 1.88461 -1.29209 0
M  V30 2910 C 276.142 -1.04536 -3.32976 0
M  V30 2911 C 277.49 -1.10879 -4.09867 0
M  V30 2912 O 278.514 -0.995327 -3.42011 0
M  V30 2913 O 277.373 -1.28417 -5.31198 0
M  V30 2914 H 274.467 -0.159596 -0.811454 0
M  V30 2915 H 277.013 -1.02457 -1.3528 0
M  V30 2916 H 275.785 -2.08913 -3.30864 0
M  V30 2917 H 275.408 -0.496494 -3.94488 0
M  V30 2918 N 276.405 1.4127 -0.698611 0
M  V30 2919 C 277.651 2.01979 -0.239972 0
M  V30 2920 C 278.006 1.54353 1.14861 0
M  V30 2921 O 277.299 0.746218 1.76471 0
M  V30 2922 C 277.493 3.56592 -0.240192 0
M  V30 2923 C 277.322 4.19226 -1.62726 0
M  V30 2924 C 276.092 4.53389 -2.23084 0
M  V30 2925 C 278.29 4.45228 -2.57443 0
M  V30 2926 N 276.272 5.01327 -3.54323 0
M  V30 2927 C 277.643 4.94973 -3.73365 0
M  V30 2928 C 279.698 4.27243 -2.55671 0
M  V30 2929 C 278.401 5.28624 -4.878 0
M  V30 2930 C 280.427 4.61985 -3.69221 0
M  V30 2931 C 279.789 5.11904 -4.83873 0
M  V30 2932 H 275.888 0.770561 -0.133269 0
M  V30 2933 H 278.472 1.71767 -0.916748 0
M  V30 2934 H 276.643 3.86271 0.406082 0
M  V30 2935 H 278.375 4.04025 0.23356 0
M  V30 2936 H 275.13 4.39946 -1.75341 0
M  V30 2937 H 275.554 5.29697 -4.21604 0
M  V30 2938 H 280.196 3.87884 -1.68243 0
M  V30 2939 H 277.914 5.66905 -5.75885 0
M  V30 2940 H 281.5 4.49725 -3.69105 0
M  V30 2941 H 280.38 5.38282 -5.70282 0
M  V30 2942 N 277.883 0.443576 1.51229 0
M  V30 2943 C 278.831 -0.37904 2.29491 0
M  V30 2944 C 279.825 -1.0153 1.35603 0
M  V30 2945 O 281.031 -0.94955 1.52917 0
M  V30 2946 H 277.406 -0.141053 0.738653 0
M  V30 2947 H 279.377 0.301799 2.9687 0
M  V30 2948 C 278.126 -1.46426 3.15364 0
M  V30 2949 H 277.449 -0.984037 3.87501 0
M  V30 2950 H 278.889 -2.01297 3.7317 0
M  V30 2951 C 277.348 -2.45099 2.31146 0
M  V30 2952 O 277.878 -3.49773 1.9754 0
M  V30 2953 N 276.084 -2.16139 1.94249 0
M  V30 2954 H 275.631 -1.31044 2.21777 0
M  V30 2955 H 275.589 -2.82398 1.38198 0
M  V30 2956 N 279.361 -1.56624 0.175154 0
M  V30 2957 C 280.589 -2.01374 -0.474971 0
M  V30 2958 C 281.004 -1.05537 -1.56548 0
M  V30 2959 O 280.361 -0.0568668 -1.82411 0
M  V30 2960 C 280.412 -3.45923 -1.04975 0
M  V30 2961 O 280.133 -4.381 -0.00276605 0
M  V30 2962 C 281.634 -4.06093 -1.77773 0
M  V30 2963 H 278.854 -0.659962 -0.121206 0
M  V30 2964 H 281.398 -2.02601 0.27801 0
M  V30 2965 H 279.553 -3.45458 -1.75321 0
M  V30 2966 H 279.967 -5.22753 -0.427681 0
M  V30 2967 H 281.441 -5.09147 -2.13245 0
M  V30 2968 H 281.918 -3.48405 -2.67414 0
M  V30 2969 H 282.524 -4.10272 -1.12059 0
M  V30 2970 N 280.839 0.0985539 -1.57292 0
M  V30 2971 C 281.771 1.14595 -1.98496 0
M  V30 2972 C 282.784 1.36512 -0.887031 0
M  V30 2973 O 283.973 1.35225 -1.16518 0
M  V30 2974 C 281.073 2.50216 -2.28572 0
M  V30 2975 C 280.246 2.48624 -3.59868 0
M  V30 2976 C 279.305 3.66146 -3.7792 0
M  V30 2977 O 278.331 3.48795 -4.49812 0
M  V30 2978 N 279.533 4.85496 -3.18235 0
M  V30 2979 H 282.298 0.795277 -2.88956 0
M  V30 2980 H 279.859 0.287579 -1.59325 0
M  V30 2981 H 281.851 3.27432 -2.37845 0
M  V30 2982 H 280.421 2.77387 -1.44136 0
M  V30 2983 H 279.641 1.56978 -3.61596 0
M  V30 2984 H 280.929 2.44635 -4.46129 0
M  V30 2985 H 280.327 5.02497 -2.59833 0
M  V30 2986 H 278.884 5.60317 -3.32999 0
M  V30 2987 N 282.317 1.53212 0.369288 0
M  V30 2988 C 283.265 1.80054 1.47253 0
M  V30 2989 C 284.259 0.669456 1.55611 0
M  V30 2990 O 285.465 0.852328 1.58541 0
M  V30 2991 H 281.84 0.570034 0.490475 0
M  V30 2992 H 283.811 2.72403 1.21817 0
M  V30 2993 C 282.56 2.00403 2.84137 0
M  V30 2994 H 281.883 2.86876 2.78464 0
M  V30 2995 H 283.323 2.23164 3.60519 0
M  V30 2996 C 281.782 0.782081 3.27697 0
M  V30 2997 O 282.312 -0.0310205 4.01688 0
M  V30 2998 N 280.518 0.606573 2.84199 0
M  V30 2999 H 280.065 1.26939 2.24152 0
M  V30 3000 H 280.023 -0.20962 3.137 0
M  V30 3001 N 283.795 -0.628877 1.44509 0
M  V30 3002 C 285.023 -1.41554 1.50897 0
M  V30 3003 C 285.438 -1.8832 0.134564 0
M  V30 3004 O 284.795 -1.60969 -0.859965 0
M  V30 3005 C 284.846 -2.63435 2.47556 0
M  V30 3006 O 284.567 -2.18619 3.79654 0
M  V30 3007 C 286.068 -3.56537 2.63431 0
M  V30 3008 H 283.288 -0.434044 0.511709 0
M  V30 3009 H 285.832 -0.768895 1.89495 0
M  V30 3010 H 283.987 -3.24187 2.12089 0
M  V30 3011 H 284.401 -2.97652 4.31861 0
M  V30 3012 H 285.875 -4.38657 3.35088 0
M  V30 3013 H 286.352 -4.05493 1.68738 0
M  V30 3014 H 286.958 -3.01653 2.9981 0
M  V30 3015 N 285.273 -1.31445 -0.869486 0
M  V30 3016 C 286.205 -1.14955 -1.98287 0
M  V30 3017 C 287.218 -0.0885037 -1.62559 0
M  V30 3018 O 288.407 -0.336044 -1.75308 0
M  V30 3019 C 285.507 -0.734255 -3.3085 0
M  V30 3020 C 284.68 -1.88042 -3.94917 0
M  V30 3021 C 283.739 -1.4511 -5.05796 0
M  V30 3022 O 282.765 -2.16082 -5.2659 0
M  V30 3023 N 283.967 -0.338763 -5.79511 0
M  V30 3024 H 286.732 -2.10856 -2.12979 0
M  V30 3025 H 284.293 -1.23786 -1.04349 0
M  V30 3026 H 286.285 -0.42975 -4.02412 0
M  V30 3027 H 284.855 0.133158 -3.12316 0
M  V30 3028 H 284.075 -2.35222 -3.1633 0
M  V30 3029 H 285.363 -2.6481 -4.34457 0
M  V30 3030 H 284.761 0.252274 -5.65137 0
M  V30 3031 H 283.318 -0.0937925 -6.51733 0
M  V30 3032 N 286.751 1.08385 -1.14413 0
M  V30 3033 C 287.997 1.81044 -0.913834 0
M  V30 3034 C 288.33 1.86004 0.558209 0
M  V30 3035 O 287.605 1.33606 1.4135 0
M  V30 3036 C 287.888 3.26648 -1.51569 0
M  V30 3037 C 287.741 3.29895 -3.0576 0
M  V30 3038 C 289.06 4.23629 -1.19273 0
M  V30 3039 H 286.179 0.65727 -0.333414 0
M  V30 3040 H 288.821 1.26896 -1.41412 0
M  V30 3041 H 286.971 3.72889 -1.09023 0
M  V30 3042 H 288.643 2.91977 -3.57137 0
M  V30 3043 H 286.886 2.69163 -3.40197 0
M  V30 3044 H 287.557 4.32516 -3.42977 0
M  V30 3045 H 290.033 3.85727 -1.56057 0
M  V30 3046 H 288.909 5.23822 -1.64017 0
M  V30 3047 H 289.17 4.41968 -0.108068 0
M  V30 3048 N 288.23 0.939286 1.26551 0
M  V30 3049 C 289.162 0.404704 2.25599 0
M  V30 3050 C 290.175 -0.470983 1.55838 0
M  V30 3051 O 291.364 -0.281734 1.76263 0
M  V30 3052 C 288.464 -0.43764 3.36062 0
M  V30 3053 C 287.637 0.421449 4.35365 0
M  V30 3054 C 286.696 -0.36015 5.24966 0
M  V30 3055 O 285.722 0.236167 5.6871 0
M  V30 3056 N 286.924 -1.65715 5.56344 0
M  V30 3057 H 289.689 1.25618 2.72103 0
M  V30 3058 H 287.25 0.807963 1.40298 0
M  V30 3059 H 289.242 -0.967866 3.92956 0
M  V30 3060 H 287.812 -1.18991 2.89067 0
M  V30 3061 H 287.032 1.1329 3.7757 0
M  V30 3062 H 288.32 1.00835 4.98708 0
M  V30 3063 H 287.718 -2.16378 5.22682 0
M  V30 3064 H 286.275 -2.13366 6.15888 0
M  V30 3065 N 289.708 -1.40897 0.706093 0
M  V30 3066 C 290.933 -2.05895 0.249435 0
M  V30 3067 C 291.358 -1.52823 -1.09666 0
M  V30 3068 O 290.716 -0.659589 -1.68876 0
M  V30 3069 C 290.764 -3.59872 0.22904 0
M  V30 3070 O 289.868 -4.04708 -0.792784 0
M  V30 3071 H 289.209 -0.653206 0.119241 0
M  V30 3072 H 291.739 -1.80471 0.96391 0
M  V30 3073 H 291.749 -4.07951 0.0634791 0
M  V30 3074 H 290.424 -3.97866 1.21141 0
M  V30 3075 H 289.001 -3.68111 -0.59572 0
M  V30 3076 N 291.186 -0.45159 -1.50991 0
M  V30 3077 C 292.416 0.108177 -2.06317 0
M  V30 3078 C 292.824 1.35774 -1.31765 0
M  V30 3079 O 292.167 1.79838 -0.374694 0
M  V30 3080 C 292.229 0.481659 -3.56259 0
M  V30 3081 C 291.893 -0.663114 -4.52163 0
M  V30 3082 C 292.89 -1.53947 -4.96585 0
M  V30 3083 C 290.575 -0.8479 -4.95092 0
M  V30 3084 C 292.569 -2.58518 -5.82621 0
M  V30 3085 C 290.256 -1.89686 -5.80915 0
M  V30 3086 C 291.254 -2.76388 -6.24579 0
M  V30 3087 O 290.942 -3.79482 -7.08695 0
M  V30 3088 H 290.674 0.00499183 -0.675982 0
M  V30 3089 H 293.228 -0.633659 -1.95381 0
M  V30 3090 H 291.458 1.27641 -3.65027 0
M  V30 3091 H 293.147 0.974233 -3.94035 0
M  V30 3092 H 293.913 -1.4083 -4.64103 0
M  V30 3093 H 289.792 -0.18258 -4.60638 0
M  V30 3094 H 293.336 -3.26224 -6.16623 0
M  V30 3095 H 289.233 -2.02817 -6.12809 0
M  V30 3096 H 290.001 -3.76234 -7.26905 0
M  V30 3097 N 292.664 1.56529 -0.183458 0
M  V30 3098 C 293.594 2.21549 0.737456 0
M  V30 3099 C 294.575 1.17489 1.23005 0
M  V30 3100 O 295.76 1.45959 1.281 0
M  V30 3101 C 292.89 2.86575 1.96194 0
M  V30 3102 C 291.844 3.96778 1.60473 0
M  V30 3103 C 291.17 4.48911 2.90487 0
M  V30 3104 C 292.47 5.15767 0.823497 0
M  V30 3105 H 294.164 2.98761 0.195453 0
M  V30 3106 H 291.71 1.43702 0.0925686 0
M  V30 3107 H 293.663 3.30739 2.61131 0
M  V30 3108 H 292.387 2.06749 2.52828 0
M  V30 3109 H 291.046 3.53286 0.978997 0
M  V30 3110 H 290.694 3.65862 3.45186 0
M  V30 3111 H 290.394 5.23265 2.67335 0
M  V30 3112 H 291.918 4.95771 3.56432 0
M  V30 3113 H 293.332 5.56549 1.37571 0
M  V30 3114 H 291.729 5.96114 0.690551 0
M  V30 3115 H 292.799 4.84574 -0.177782 0
M  V30 3116 N 294.142 -0.090211 1.57342 0
M  V30 3117 C 295.089 -1.10909 2.02405 0
M  V30 3118 C 296.059 -1.39523 0.901252 0
M  V30 3119 O 297.244 -1.50903 1.1676 0
M  V30 3120 C 294.384 -2.42277 2.45755 0
M  V30 3121 C 293.497 -2.20352 3.71576 0
M  V30 3122 C 292.632 -3.45154 4.03785 0
M  V30 3123 C 291.671 -3.18512 5.22701 0
M  V30 3124 N 290.808 -4.35593 5.50639 0
M  V30 3125 H 295.648 -0.71782 2.89225 0
M  V30 3126 H 293.185 -0.342901 1.43048 0
M  V30 3127 H 295.143 -3.18951 2.68935 0
M  V30 3128 H 293.773 -2.79242 1.61938 0
M  V30 3129 H 292.825 -1.34458 3.55844 0
M  V30 3130 H 294.137 -1.96661 4.58395 0
M  V30 3131 H 293.291 -4.30233 4.27767 0
M  V30 3132 H 292.03 -3.71904 3.15498 0
M  V30 3133 H 291.035 -2.31827 4.98534 0
M  V30 3134 H 292.26 -2.93103 6.12591 0
M  V30 3135 H 290.206 -4.6241 4.6531 0
M  V30 3136 H 290.123 -4.1511 6.31838 0
M  V30 3137 H 291.391 -5.21723 5.7916 0
M  V30 3138 N 295.62 -1.53406 -0.361157 0
M  V30 3139 C 297.036 -1.43277 -0.703124 0
M  V30 3140 C 297.236 -0.575384 -1.9311 0
M  V30 3141 O 296.292 -0.0595362 -2.5243 0
M  V30 3142 C 297.605 -2.8653 -0.9122 0
M  V30 3143 C 299.153 -2.96191 -1.01193 0
M  V30 3144 C 299.628 -4.40514 -1.25345 0
M  V30 3145 N 301.119 -4.43962 -1.32105 0
M  V30 3146 C 301.854 -5.52746 -1.5251 0
M  V30 3147 N 301.35 -6.71567 -1.70203 0
M  V30 3148 N 303.143 -5.40331 -1.54916 0
M  V30 3149 H 295.294 -2.07654 0.446475 0
M  V30 3150 H 297.557 -0.937944 0.137715 0
M  V30 3151 H 297.263 -3.51605 -0.0816414 0
M  V30 3152 H 297.137 -3.30441 -1.81903 0
M  V30 3153 H 299.524 -2.31266 -1.83303 0
M  V30 3154 H 299.605 -2.55667 -0.0823929 0
M  V30 3155 H 299.249 -5.06014 -0.437346 0
M  V30 3156 H 299.179 -4.78614 -2.19627 0
M  V30 3157 H 301.67 -3.58332 -1.20028 0
M  V30 3158 H 301.983 -7.50241 -1.85359 0
M  V30 3159 H 300.328 -6.74545 -1.67373 0
M  V30 3160 H 303.519 -4.46465 -1.40663 0
M  V30 3161 H 303.692 -6.25173 -1.70477 0
M  V30 3162 N 297.098 0.621204 -1.44841 0
M  V30 3163 C 298.345 1.38055 -1.48145 0
M  V30 3164 C 298.673 1.94143 -0.117867 0
M  V30 3165 O 297.928 1.74713 0.881694 0
M  V30 3166 C 298.227 2.55675 -2.4973 0
M  V30 3167 C 297.893 2.17817 -3.94799 0
M  V30 3168 C 296.555 2.07205 -4.34303 0
M  V30 3169 C 298.907 1.88065 -4.86087 0
M  V30 3170 C 296.235 1.65045 -5.63007 0
M  V30 3171 C 298.587 1.47394 -6.15189 0
M  V30 3172 C 297.251 1.35331 -6.53637 0
M  V30 3173 H 296.521 0.505181 -0.542101 0
M  V30 3174 H 299.168 0.703477 -1.78111 0
M  V30 3175 H 297.473 3.2866 -2.13284 0
M  V30 3176 H 299.17 3.13904 -2.4953 0
M  V30 3177 H 295.76 2.26998 -3.63552 0
M  V30 3178 H 299.944 1.95168 -4.56315 0
M  V30 3179 H 295.2 1.54317 -5.91605 0
M  V30 3180 H 299.374 1.23415 -6.85377 0
M  V30 3181 H 297.001 1.02435 -7.53267 0
M  V30 3182 N 298.576 1.31904 0.862503 0
M  V30 3183 C 299.506 1.22782 1.98612 0
M  V30 3184 C 300.487 0.113362 1.69722 0
M  V30 3185 O 301.672 0.299218 1.91881 0
M  V30 3186 C 298.802 0.942058 3.34279 0
M  V30 3187 C 297.756 2.0169 3.77499 0
M  V30 3188 C 297.082 1.58369 5.10709 0
M  V30 3189 C 298.382 3.43096 3.93805 0
M  V30 3190 H 300.076 2.16788 2.06502 0
M  V30 3191 H 297.622 1.04366 0.992154 0
M  V30 3192 H 299.575 0.864818 4.1243 0
M  V30 3193 H 298.299 -0.0336603 3.26583 0
M  V30 3194 H 296.958 2.08416 3.01593 0
M  V30 3195 H 296.606 0.595628 4.99461 0
M  V30 3196 H 296.306 2.30279 5.40597 0
M  V30 3197 H 297.83 1.52067 5.91361 0
M  V30 3198 H 299.244 3.39003 4.62331 0
M  V30 3199 H 297.641 4.13288 4.35101 0
M  V30 3200 H 298.711 3.83334 2.96957 0
M  V30 3201 N 300.054 -1.07777 1.14986 0
M  V30 3202 C 301.331 -1.7699 0.832695 0
M  V30 3203 C 301.711 -2.001 -0.672561 0
M  V30 3204 O 301.059 -1.61598 -1.6155 0
M  V30 3205 C 301.269 -3.08139 1.63863 0
M  V30 3206 C 302.617 -3.8256 1.84208 0
M  V30 3207 O 303.641 -3.17939 1.60603 0
M  V30 3208 O 302.5 -4.98612 2.23714 0
M  V30 3209 H 299.594 -0.768389 0.305791 0
M  V30 3210 H 302.14 -1.14182 1.25541 0
M  V30 3211 H 300.912 -2.86909 2.6608 0
M  V30 3212 H 300.535 -3.78678 1.21197 0
M  V30 3213 N 301.532 -0.945985 -1.26051 0
M  V30 3214 C 302.948 -0.649045 -1.45807 0
M  V30 3215 C 303.148 0.796158 -1.85104 0
M  V30 3216 O 302.204 1.57233 -1.97571 0
M  V30 3217 C 303.517 -1.61458 -2.53677 0
M  V30 3218 C 305.065 -1.62481 -2.67524 0
M  V30 3219 C 305.54 -2.57776 -3.7857 0
M  V30 3220 N 307.031 -2.5609 -3.85969 0
M  V30 3221 C 307.766 -3.26508 -4.7136 0
M  V30 3222 N 307.262 -4.0637 -5.61102 0
M  V30 3223 N 309.055 -3.15437 -4.65248 0
M  V30 3224 H 301.206 -1.88005 -0.988328 0
M  V30 3225 H 303.469 -0.808198 -0.4955 0
M  V30 3226 H 303.175 -2.64644 -2.31638 0
M  V30 3227 H 303.049 -1.37036 -3.51427 0
M  V30 3228 H 305.436 -0.600167 -2.88933 0
M  V30 3229 H 305.517 -1.90958 -1.70202 0
M  V30 3230 H 305.161 -3.60361 -3.57913 0
M  V30 3231 H 305.091 -2.26587 -4.75359 0
M  V30 3232 H 307.582 -1.98105 -3.21812 0
M  V30 3233 H 307.895 -4.57042 -6.23164 0
M  V30 3234 H 306.24 -4.10469 -5.60839 0
M  V30 3235 H 309.431 -2.52525 -3.94143 0
M  V30 3236 H 309.604 -3.70584 -5.31575 0
M  V30 3237 N 303.011 1.40521 -0.713556 0
M  V30 3238 C 303.974 2.29098 -0.0684347 0
M  V30 3239 C 304.974 1.45268 0.689472 0
M  V30 3240 O 306.164 1.66205 0.521677 0
M  V30 3241 C 303.296 3.28446 0.913024 0
M  V30 3242 H 304.489 2.87645 -0.84855 0
M  V30 3243 H 302.042 1.48809 -0.47809 0
M  V30 3244 H 302.777 2.74913 1.72027 0
M  V30 3245 H 302.562 3.90327 0.372472 0
M  V30 3246 H 304.052 3.94777 1.36165 0
M  V30 3247 N 304.489 0.459591 1.5075 0
M  V30 3248 C 305.419 -0.330644 2.31147 0
M  V30 3249 C 306.4 -1.00087 1.37538 0
M  V30 3250 O 307.585 -1.00025 1.66459 0
M  V30 3251 C 304.715 -1.41958 3.16962 0
M  V30 3252 C 303.669 -0.871608 4.19031 0
M  V30 3253 C 302.995 -2.05797 4.9351 0
M  V30 3254 C 304.295 0.109251 5.22186 0
M  V30 3255 H 305.989 0.340336 2.97459 0
M  V30 3256 H 303.535 0.165119 1.4305 0
M  V30 3257 H 305.488 -1.9798 3.71997 0
M  V30 3258 H 304.212 -2.11917 2.48513 0
M  V30 3259 H 302.871 -0.333442 3.6508 0
M  V30 3260 H 302.519 -2.74427 4.21544 0
M  V30 3261 H 302.219 -1.6976 5.62544 0
M  V30 3262 H 303.743 -2.62331 5.51375 0
M  V30 3263 H 305.157 -0.361405 5.7216 0
M  V30 3264 H 303.554 0.383316 5.98875 0
M  V30 3265 H 304.624 1.03887 4.73641 0
M  V30 3266 N 305.967 -1.56429 0.191757 0
M  V30 3267 C 306.915 -2.20273 -0.747174 0
M  V30 3268 C 307.909 -1.17288 -1.22229 0
M  V30 3269 O 309.115 -1.35441 -1.18557 0
M  V30 3270 H 305.49 -0.705885 -0.259289 0
M  V30 3271 H 307.461 -2.97826 -0.184963 0
M  V30 3272 C 306.21 -2.87356 -1.95759 0
M  V30 3273 H 305.533 -3.66341 -1.60106 0
M  V30 3274 H 306.973 -3.3547 -2.59299 0
M  V30 3275 C 305.432 -1.88213 -2.79423 0
M  V30 3276 O 305.962 -1.38033 -3.7724 0
M  V30 3277 N 304.168 -1.56516 -2.44849 0
M  V30 3278 H 303.715 -1.97516 -1.65364 0
M  V30 3279 H 303.673 -0.904369 -3.01112 0
M  V30 3280 N 307.445 0.0818655 -1.57387 0
M  V30 3281 C 308.722 0.815343 -1.77796 0
M  V30 3282 C 309.102 1.96289 -0.77679 0
M  V30 3283 O 308.45 2.27691 0.192106 0
M  V30 3284 C 308.66 1.29765 -3.23978 0
M  V30 3285 C 310.008 1.7351 -3.8753 0
M  V30 3286 O 311.032 1.39356 -3.27808 0
M  V30 3287 O 309.891 2.36708 -4.92576 0
M  V30 3288 H 306.985 0.389914 -0.729312 0
M  V30 3289 H 309.531 0.0627213 -1.69584 0
M  V30 3290 H 308.303 0.47608 -3.88393 0
M  V30 3291 H 307.926 2.11189 -3.36875 0
M  V30 3292 N 308.923 1.53595 0.353017 0
M  V30 3293 C 310.171 1.70049 1.09215 0
M  V30 3294 C 310.492 0.461406 1.89463 0
M  V30 3295 O 309.762 -0.524633 1.88744 0
M  V30 3296 H 308.342 0.626912 0.40619 0
M  V30 3297 H 311.004 1.90822 0.396585 0
M  V30 3298 H 310.1 2.56718 1.77488 0
M  V30 3299 N 310.401 -0.613514 1.45168 0
M  V30 3300 C 311.364 -1.7065 1.53007 0
M  V30 3301 C 312.364 -1.5548 0.410184 0
M  V30 3302 O 313.554 -1.60656 0.673455 0
M  V30 3303 C 310.686 -3.09875 1.42093 0
M  V30 3304 H 311.879 -1.65068 2.50385 0
M  V30 3305 H 309.432 -0.828728 1.32521 0
M  V30 3306 H 310.167 -3.21039 0.458769 0
M  V30 3307 H 309.952 -3.22293 2.23315 0
M  V30 3308 H 311.442 -3.895 1.50598 0
M  V30 3309 N 311.879 -1.3236 -0.855495 0
M  V30 3310 C 313.156 -1.13491 -1.59309 0
M  V30 3311 C 313.536 0.30503 -2.08885 0
M  V30 3312 O 312.884 1.30151 -1.87811 0
M  V30 3313 C 313.094 -2.16176 -2.73987 0
M  V30 3314 C 314.442 -2.49463 -3.43589 0
M  V30 3315 O 315.466 -2.14715 -2.84211 0
M  V30 3316 O 314.325 -3.09027 -4.50738 0
M  V30 3317 H 311.419 -0.437887 -0.701559 0
M  V30 3318 H 313.965 -1.43887 -0.899696 0
M  V30 3319 H 312.737 -3.1297 -2.34873 0
M  V30 3320 H 312.36 -1.86769 -3.51003 0
M  V30 3321 N 313.357 1.07166 -1.15556 0
M  V30 3322 C 314.605 1.79443 -0.929764 0
M  V30 3323 C 314.926 1.87246 0.544414 0
M  V30 3324 O 314.196 1.37473 1.39564 0
M  V30 3325 H 312.776 0.664625 -0.341003 0
M  V30 3326 H 315.438 1.29499 -1.45657 0
M  V30 3327 H 314.534 2.81832 -1.34079 0
M  V30 3328 N 314.835 0.952656 1.25548 0
M  V30 3329 C 316.082 0.606373 1.93208 0
M  V30 3330 C 316.41 -0.85631 1.74636 0
M  V30 3331 O 315.665 -1.62951 1.08376 0
M  V30 3332 C 315.964 0.908818 3.45652 0
M  V30 3333 C 315.63 2.35722 3.84378 0
M  V30 3334 C 314.292 2.75312 3.9466 0
M  V30 3335 C 316.644 3.29793 4.03591 0
M  V30 3336 C 313.972 4.08047 4.21562 0
M  V30 3337 C 316.324 4.62138 4.31985 0
M  V30 3338 C 314.988 5.01528 4.40484 0
M  V30 3339 H 314.258 0.221888 0.706998 0
M  V30 3340 H 316.905 1.20132 1.49133 0
M  V30 3341 H 315.21 0.231456 3.91116 0
M  V30 3342 H 316.907 0.619498 3.96186 0
M  V30 3343 H 313.497 2.04017 3.76928 0
M  V30 3344 H 317.681 3.00397 3.95064 0
M  V30 3345 H 312.937 4.38212 4.26357 0
M  V30 3346 H 317.111 5.35012 4.45797 0
M  V30 3347 H 314.738 6.04406 4.61083 0
M  V30 3348 N 316.313 -1.40141 0.720998 0
M  V30 3349 C 317.729 -1.54632 0.395113 0
M  V30 3350 C 317.929 -1.69115 -1.09555 0
M  V30 3351 O 316.985 -1.68377 -1.88163 0
M  V30 3352 C 318.298 -2.77177 1.1659 0
M  V30 3353 C 319.846 -2.91 1.15274 0
M  V30 3354 C 320.321 -4.16465 1.90579 0
M  V30 3355 N 321.812 -4.23476 1.87675 0
M  V30 3356 C 322.547 -5.19475 2.42762 0
M  V30 3357 N 322.043 -6.21348 3.06428 0
M  V30 3358 N 323.836 -5.11592 2.32874 0
M  V30 3359 H 315.987 -1.28986 1.68749 0
M  V30 3360 H 318.25 -0.62412 0.713567 0
M  V30 3361 H 317.956 -2.72771 2.22011 0
M  V30 3362 H 317.83 -3.69442 0.76108 0
M  V30 3363 H 320.217 -2.94907 0.106702 0
M  V30 3364 H 320.298 -1.99838 1.59682 0
M  V30 3365 H 319.942 -4.1332 2.95176 0
M  V30 3366 H 319.872 -5.06646 1.43587 0
M  V30 3367 H 322.363 -3.50497 1.41281 0
M  V30 3368 H 322.676 -6.91034 3.45965 0
M  V30 3369 H 321.021 -6.21777 3.10514 0
M  V30 3370 H 324.212 -4.30936 1.82789 0
M  V30 3371 H 324.385 -5.86233 2.76106 0
M  V30 3372 N 317.792 -0.46758 -1.50504 0
M  V30 3373 C 319.039 0.0886219 -2.02306 0
M  V30 3374 C 319.367 1.40037 -1.34981 0
M  V30 3375 O 318.622 1.90136 -0.463318 0
M  V30 3376 C 318.921 0.323995 -3.55928 0
M  V30 3377 C 318.587 -0.905618 -4.41712 0
M  V30 3378 C 317.249 -1.24275 -4.64875 0
M  V30 3379 C 319.601 -1.72448 -4.91845 0
M  V30 3380 C 316.929 -2.39888 -5.35417 0
M  V30 3381 C 319.281 -2.87185 -5.63656 0
M  V30 3382 C 317.945 -3.21317 -5.85074 0
M  V30 3383 H 317.215 0.0324291 -0.74029 0
M  V30 3384 H 319.862 -0.620945 -1.81153 0
M  V30 3385 H 318.167 1.11577 -3.75577 0
M  V30 3386 H 319.864 0.76826 -3.93572 0
M  V30 3387 H 316.454 -0.632956 -4.239 0
M  V30 3388 H 320.638 -1.4772 -4.73806 0
M  V30 3389 H 315.894 -2.66611 -5.50208 0
M  V30 3390 H 320.068 -3.50985 -6.01484 0
M  V30 3391 H 317.695 -4.1101 -6.39511 0
M  V30 3392 N 319.27 1.56325 -0.20005 0
M  V30 3393 C 320.547 1.89484 0.48529 0
M  V30 3394 C 320.927 1.1143 1.79294 0
M  V30 3395 O 320.275 0.216919 2.27468 0
M  V30 3396 C 320.485 3.41923 0.699243 0
M  V30 3397 C 321.833 4.12256 1.01638 0
M  V30 3398 O 322.857 3.47402 0.786792 0
M  V30 3399 O 321.716 5.26887 1.45095 0
M  V30 3400 H 318.81 0.787144 0.253639 0
M  V30 3401 H 321.356 1.67985 -0.240633 0
M  V30 3402 H 320.128 3.90658 -0.224008 0
M  V30 3403 H 319.751 3.69131 1.47744 0
M  V30 3404 N 320.748 -0.0735177 1.57428 0
M  V30 3405 C 321.711 -1.07192 2.02589 0
M  V30 3406 C 322.711 -1.31695 0.922661 0
M  V30 3407 O 323.901 -1.27445 1.18758 0
M  V30 3408 C 321.033 -2.41599 2.40506 0
M  V30 3409 H 322.226 -0.682727 2.92025 0
M  V30 3410 H 319.779 -0.319193 1.53006 0
M  V30 3411 H 320.514 -2.85354 1.5409 0
M  V30 3412 H 320.299 -2.25156 3.21009 0
M  V30 3413 H 321.789 -3.13367 2.76027 0
M  V30 3414 N 322.226 -1.5378 -0.344866 0
M  V30 3415 C 323.189 -1.80981 -1.40637 0
M  V30 3416 C 324.189 -0.680816 -1.45676 0
M  V30 3417 O 325.379 -0.949095 -1.46075 0
M  V30 3418 C 322.511 -1.95063 -2.79577 0
M  V30 3419 H 323.704 -2.75803 -1.17783 0
M  V30 3420 H 321.257 -1.45173 -0.579181 0
M  V30 3421 H 321.992 -1.02379 -3.07716 0
M  V30 3422 H 321.777 -2.77198 -2.77315 0
M  V30 3423 H 323.267 -2.17629 -3.56409 0
M  V30 3424 N 323.704 0.605807 -1.45491 0
M  V30 3425 C 324.651 1.7164 -1.54299 0
M  V30 3426 C 325.621 1.61486 -0.388761 0
M  V30 3427 O 326.806 1.81039 -0.602445 0
M  V30 3428 C 323.946 3.09953 -1.51734 0
M  V30 3429 C 323.059 3.309 -2.77721 0
M  V30 3430 C 322.194 4.59329 -2.66816 0
M  V30 3431 C 321.233 4.7354 -3.87848 0
M  V30 3432 N 320.37 5.9327 -3.75467 0
M  V30 3433 H 325.21 1.63449 -2.49176 0
M  V30 3434 H 322.747 0.796957 -1.23641 0
M  V30 3435 H 324.705 3.89977 -1.48235 0
M  V30 3436 H 323.335 3.17098 -0.604068 0
M  V30 3437 H 322.387 2.44639 -2.913 0
M  V30 3438 H 323.699 3.37274 -3.67488 0
M  V30 3439 H 322.853 5.4755 -2.61292 0
M  V30 3440 H 321.592 4.55355 -1.74651 0
M  V30 3441 H 320.597 3.83741 -3.93729 0
M  V30 3442 H 321.822 4.79309 -4.81082 0
M  V30 3443 H 319.768 5.90338 -2.86072 0
M  V30 3444 H 319.685 6.00811 -4.5887 0
M  V30 3445 H 320.953 6.83984 -3.73879 0
M  V30 3446 N 325.182 1.32811 0.848464 0
M  V30 3447 C 326.132 1.18842 1.94578 0
M  V30 3448 C 327.116 0.0937517 1.60627 0
M  V30 3449 O 328.308 0.320887 1.74067 0
M  V30 3450 C 325.437 0.91999 3.30743 0
M  V30 3451 C 324.523 2.05665 3.70894 0
M  V30 3452 N 324.914 3.30579 3.8282 0
M  V30 3453 C 323.212 1.9612 4.00566 0
M  V30 3454 C 323.913 4.05067 4.17487 0
M  V30 3455 N 322.889 3.33419 4.2934 0
M  V30 3456 H 326.691 2.13536 2.0194 0
M  V30 3457 H 324.205 1.2468 1.0406 0
M  V30 3458 H 326.202 0.800859 4.09136 0
M  V30 3459 H 324.862 -0.0185076 3.24695 0
M  V30 3460 H 325.873 3.65441 3.66978 0
M  V30 3461 H 322.55 1.09871 4.02784 0
M  V30 3462 H 323.94 5.12815 4.34131 0
M  V30 3463 N 326.66 -1.06551 1.16123 0
M  V30 3464 C 327.909 -1.78687 0.935622 0
M  V30 3465 C 328.222 -1.88056 -0.538001 0
M  V30 3466 O 329.428 -2.56794 -0.88143 0
M  V30 3467 C 327.884 -3.21143 1.62466 0
M  V30 3468 C 327.492 -3.19949 3.13587 0
M  V30 3469 C 329.236 -3.9783 1.48092 0
M  V30 3470 C 327.143 -4.57108 3.75241 0
M  V30 3471 H 326.073 -0.669712 0.346412 0
M  V30 3472 H 328.724 -1.19534 1.39226 0
M  V30 3473 H 327.106 -3.80539 1.09572 0
M  V30 3474 H 328.28 -2.70151 3.73303 0
M  V30 3475 H 326.595 -2.5676 3.27816 0
M  V30 3476 H 329.192 -4.99217 1.91538 0
M  V30 3477 H 329.535 -4.14078 0.429507 0
M  V30 3478 H 330.068 -3.4495 1.98127 0
M  V30 3479 H 326.807 -4.46065 4.80319 0
M  V30 3480 H 326.327 -5.07111 3.20309 0
M  V30 3481 H 328.006 -5.26069 3.76644 0
M  V30 3482 N 328.138 -0.959301 -1.25041 0
M  V30 3483 C 329.048 -0.489994 -2.29426 0
M  V30 3484 C 330.064 0.444944 -1.68215 0
M  V30 3485 O 331.24 0.320046 -1.98841 0
M  V30 3486 C 328.305 0.220309 -3.45999 0
M  V30 3487 C 327.366 -0.753418 -4.22637 0
M  V30 3488 C 326.599 -0.076918 -5.33645 0
M  V30 3489 O 326.822 1.13649 -5.58963 0
M  V30 3490 O 325.756 -0.764824 -5.97021 0
M  V30 3491 H 329.582 -1.35755 -2.71669 0
M  V30 3492 H 327.167 -0.725961 -1.30576 0
M  V30 3493 H 329.049 0.619677 -4.16819 0
M  V30 3494 H 327.724 1.06296 -3.0575 0
M  V30 3495 H 326.631 -1.20308 -3.54227 0
M  V30 3496 H 327.964 -1.56423 -4.66683 0
M  V30 3497 N 329.616 1.39756 -0.72842 0
M  V30 3498 C 330.546 2.33289 -0.0991354 0
M  V30 3499 C 331.527 1.53568 0.731489 0
M  V30 3500 O 332.712 1.81987 0.677807 0
M  V30 3501 C 329.842 3.3763 0.813834 0
M  V30 3502 C 328.796 4.2791 0.0878663 0
M  V30 3503 C 328.122 5.22894 1.11741 0
M  V30 3504 C 329.422 5.11314 -1.06563 0
M  V30 3505 H 331.116 2.86163 -0.880408 0
M  V30 3506 H 328.662 1.37591 -0.424819 0
M  V30 3507 H 330.615 4.0201 1.26355 0
M  V30 3508 H 329.339 2.83181 1.62715 0
M  V30 3509 H 327.998 3.65 -0.342159 0
M  V30 3510 H 327.646 4.64744 1.92412 0
M  V30 3511 H 327.346 5.84143 0.636477 0
M  V30 3512 H 328.87 5.90151 1.56697 0
M  V30 3513 H 330.284 5.69076 -0.694671 0
M  V30 3514 H 328.681 5.81671 -1.47577 0
M  V30 3515 H 329.751 4.46534 -1.89038 0
M  V30 3516 N 331.094 0.475555 1.50254 0
M  V30 3517 C 332.505 0.0215174 1.86688 0
M  V30 3518 C 332.856 -1.38467 1.39001 0
M  V30 3519 O 331.981 -2.02732 0.756894 0
M  V30 3520 C 332.576 0.0322715 3.38785 0
M  V30 3521 C 331.135 -0.366314 3.74613 0
M  V30 3522 C 330.282 0.415832 2.74164 0
M  V30 3523 H 333.233 0.689612 1.42934 0
M  V30 3524 H 333.254 -0.76889 3.7265 0
M  V30 3525 H 332.766 1.05584 3.73462 0
M  V30 3526 H 330.867 -1.39406 3.45538 0
M  V30 3527 H 330.98 -0.064555 4.79057 0
M  V30 3528 H 329.344 -0.131048 2.54363 0
M  V30 3529 H 330.127 1.43899 3.11686 0
M  V30 3530 N 332.573 -1.56217 0.208337 0
M  V30 3531 C 333.85 -1.89739 -0.475234 0
M  V30 3532 C 334.23 -1.1238 -1.78701 0
M  V30 3533 O 333.578 -0.228979 -2.2735 0
M  V30 3534 C 333.788 -3.42289 -0.681101 0
M  V30 3535 C 335.136 -4.12789 -0.994507 0
M  V30 3536 O 336.16 -3.47814 -0.768357 0
M  V30 3537 O 335.019 -5.27649 -1.42299 0
M  V30 3538 H 332.113 -0.788478 -0.249461 0
M  V30 3539 H 334.659 -1.67855 0.249538 0
M  V30 3540 H 333.431 -3.90534 0.244722 0
M  V30 3541 H 333.054 -3.69909 -1.45785 0
M  V30 3542 N 334.051 0.0651679 -1.57465 0
M  V30 3543 C 335.328 0.79644 -1.78651 0
M  V30 3544 C 335.708 1.95454 -0.797566 0
M  V30 3545 O 335.056 2.27882 0.167946 0
M  V30 3546 C 335.266 1.26322 -3.25337 0
M  V30 3547 C 336.614 1.6939 -3.89348 0
M  V30 3548 O 337.638 1.35872 -3.29268 0
M  V30 3549 O 336.497 2.31471 -4.95059 0
M  V30 3550 H 333.591 0.382157 -0.733407 0
M  V30 3551 H 336.137 0.0447311 -1.69641 0
M  V30 3552 H 334.909 0.434859 -3.88876 0
M  V30 3553 H 334.532 2.07604 -3.39096 0
M  V30 3554 N 335.529 1.53961 0.336706 0
M  V30 3555 C 336.777 1.71197 1.07405 0
M  V30 3556 C 337.098 0.481475 1.88962 0
M  V30 3557 O 336.368 -0.504585 1.8929 0
M  V30 3558 H 334.948 0.631185 0.399517 0
M  V30 3559 H 337.61 1.91232 0.376323 0
M  V30 3560 H 336.706 2.58587 1.74755 0
M  V30 3561 N 337.007 -0.598083 1.45811 0
M  V30 3562 C 338.232 -1.3881 1.54099 0
M  V30 3563 C 338.657 -1.8726 0.177578 0
M  V30 3564 O 338.015 -1.6069 -0.839541 0
M  V30 3565 C 338.063 -2.56217 2.53743 0
M  V30 3566 O 337.167 -3.5716 2.06182 0
M  V30 3567 H 336.508 -0.414024 0.519115 0
M  V30 3568 H 339.038 -0.726971 1.91249 0
M  V30 3569 H 339.048 -3.03337 2.72856 0
M  V30 3570 H 337.723 -2.20303 3.5276 0
M  V30 3571 H 336.3 -3.16624 1.96987 0
M  V30 3572 N 338.485 -1.33259 -0.841409 0
M  V30 3573 C 339.715 -1.2742 -1.62628 0
M  V30 3574 C 340.123 0.157604 -1.88542 0
M  V30 3575 O 339.466 1.10938 -1.46419 0
M  V30 3576 C 339.528 -1.97797 -3.00194 0
M  V30 3577 C 339.192 -3.47109 -2.97261 0
M  V30 3578 C 340.189 -4.42358 -2.73159 0
M  V30 3579 C 337.874 -3.89247 -3.17478 0
M  V30 3580 C 339.868 -5.77718 -2.69296 0
M  V30 3581 C 337.555 -5.24713 -3.13241 0
M  V30 3582 C 338.553 -6.1876 -2.89181 0
M  V30 3583 O 338.241 -7.51745 -2.84843 0
M  V30 3584 H 337.973 -0.440436 -0.512827 0
M  V30 3585 H 340.527 -1.76153 -1.05638 0
M  V30 3586 H 338.757 -1.43652 -3.59028 0
M  V30 3587 H 340.446 -1.8549 -3.61038 0
M  V30 3588 H 341.212 -4.11127 -2.57294 0
M  V30 3589 H 337.091 -3.16456 -3.35226 0
M  V30 3590 H 340.635 -6.51097 -2.50436 0
M  V30 3591 H 336.532 -5.55569 -3.28654 0
M  V30 3592 H 337.3 -7.61262 -3.00702 0
M  V30 3593 N 339.963 1.05934 -1.16686 0
M  V30 3594 C 341.211 1.78447 -0.948744 0
M  V30 3595 C 341.532 1.87813 0.524523 0
M  V30 3596 O 340.802 1.38945 1.38098 0
M  V30 3597 H 339.382 0.660971 -0.348033 0
M  V30 3598 H 342.044 1.27947 -1.47022 0
M  V30 3599 H 341.14 2.80394 -1.37061 0
M  V30 3600 N 341.441 0.965919 1.2453 0
M  V30 3601 C 342.666 0.643971 1.97149 0
M  V30 3602 C 343.091 -0.779487 1.71189 0
M  V30 3603 O 342.449 -1.5288 0.974553 0
M  V30 3604 C 342.497 0.922557 3.48599 0
M  V30 3605 O 341.601 0.00707672 4.12399 0
M  V30 3606 H 340.942 0.243647 0.617683 0
M  V30 3607 H 343.472 1.29558 1.58353 0
M  V30 3608 H 343.482 0.853373 3.98976 0
M  V30 3609 H 342.157 1.95996 3.66822 0
M  V30 3610 H 340.734 0.12943 3.72675 0
M  V30 3611 N 342.919 -1.39368 0.735821 0
M  V30 3612 C 343.851 -2.2913 0.0567723 0
M  V30 3613 C 344.864 -1.46859 -0.702589 0
M  V30 3614 O 346.053 -1.69925 -0.546616 0
M  V30 3615 C 343.153 -3.25492 -0.943823 0
M  V30 3616 C 342.326 -4.36709 -0.24581 0
M  V30 3617 C 341.385 -5.13376 -1.15463 0
M  V30 3618 O 340.411 -5.65683 -0.631803 0
M  V30 3619 N 341.613 -5.24656 -2.48427 0
M  V30 3620 H 344.378 -2.88047 0.827582 0
M  V30 3621 H 341.939 -1.50957 0.585112 0
M  V30 3622 H 343.931 -3.73657 -1.55443 0
M  V30 3623 H 342.501 -2.676 -1.61583 0
M  V30 3624 H 341.721 -3.9041 0.545286 0
M  V30 3625 H 343.009 -5.08244 0.237891 0
M  V30 3626 H 342.407 -4.83679 -2.93379 0
M  V30 3627 H 340.964 -5.76258 -3.04582 0
M  V30 3628 N 344.397 -0.483516 -1.5 0
M  V30 3629 C 345.644 0.0671597 -2.02389 0
M  V30 3630 C 345.972 1.38597 -1.36459 0
M  V30 3631 O 345.227 1.89634 -0.483458 0
M  V30 3632 C 345.526 0.286226 -3.56252 0
M  V30 3633 C 345.192 -0.952416 -4.40726 0
M  V30 3634 C 343.854 -1.29199 -4.63531 0
M  V30 3635 C 346.206 -1.77655 -4.89988 0
M  V30 3636 C 343.534 -2.45553 -5.32842 0
M  V30 3637 C 345.886 -2.93147 -5.60578 0
M  V30 3638 C 344.55 -3.27505 -5.81633 0
M  V30 3639 H 343.82 0.0245755 -0.740592 0
M  V30 3640 H 346.467 -0.640124 -1.80485 0
M  V30 3641 H 344.772 1.07587 -3.76739 0
M  V30 3642 H 346.469 0.726473 -3.94365 0
M  V30 3643 H 343.059 -0.677881 -4.23205 0
M  V30 3644 H 347.243 -1.52737 -4.72213 0
M  V30 3645 H 342.499 -2.72431 -5.47349 0
M  V30 3646 H 346.673 -3.57344 -5.97727 0
M  V30 3647 H 344.3 -4.1777 -6.35116 0
M  V30 3648 N 345.875 1.56104 -0.216619 0
M  V30 3649 C 347.121 1.99219 0.410301 0
M  V30 3650 C 347.476 1.10169 1.57735 0
M  V30 3651 O 346.769 0.150598 1.91007 0
M  V30 3652 C 346.963 3.45923 0.898464 0
M  V30 3653 C 346.792 4.49163 -0.219748 0
M  V30 3654 C 345.562 5.00642 -0.684516 0
M  V30 3655 C 347.76 5.03751 -1.03629 0
M  V30 3656 N 345.742 5.87579 -1.7783 0
M  V30 3657 C 347.113 5.87566 -1.97904 0
M  V30 3658 C 349.168 4.86128 -1.07629 0
M  V30 3659 C 347.871 6.5564 -2.95851 0
M  V30 3660 C 349.897 5.54958 -2.04392 0
M  V30 3661 C 349.259 6.38536 -2.97407 0
M  V30 3662 H 345.358 0.773206 0.11695 0
M  V30 3663 H 347.942 1.9193 -0.327258 0
M  V30 3664 H 346.113 3.53669 1.6054 0
M  V30 3665 H 347.845 3.75963 1.49779 0
M  V30 3666 H 344.6 4.72807 -0.27399 0
M  V30 3667 H 345.024 6.3575 -2.32705 0
M  V30 3668 H 349.666 4.21168 -0.371099 0
M  V30 3669 H 347.384 7.19785 -3.67335 0
M  V30 3670 H 350.97 5.43289 -2.08154 0
M  V30 3671 H 349.85 6.90858 -3.71059 0
M  V30 3672 N 347.353 -0.0568162 1.57498 0
M  V30 3673 C 348.764 -0.606858 1.76562 0
M  V30 3674 C 349.115 -1.77114 0.844094 0
M  V30 3675 O 348.24 -2.16376 0.0318911 0
M  V30 3676 C 348.835 -1.10766 3.20182 0
M  V30 3677 C 347.394 -1.60344 3.40539 0
M  V30 3678 C 346.541 -0.529311 2.72201 0
M  V30 3679 H 349.492 0.169393 1.57793 0
M  V30 3680 H 349.513 -1.97602 3.25167 0
M  V30 3681 H 349.025 -0.26006 3.87228 0
M  V30 3682 H 347.126 -2.47379 2.78629 0
M  V30 3683 H 347.239 -1.67006 4.4905 0
M  V30 3684 H 345.603 -0.977893 2.35179 0
M  V30 3685 H 346.386 0.308352 3.41912 0
M  V30 3686 N 348.832 -1.54138 -0.328536 0
M  V30 3687 C 349.78 -1.83894 -1.42428 0
M  V30 3688 C 350.774 -0.710478 -1.53781 0
M  V30 3689 O 351.98 -0.894062 -1.56226 0
M  V30 3690 H 348.355 -0.582837 -0.475189 0
M  V30 3691 H 350.326 -2.75537 -1.14552 0
M  V30 3692 C 349.075 -2.07866 -2.78724 0
M  V30 3693 H 348.398 -2.94158 -2.7076 0
M  V30 3694 H 349.838 -2.32644 -3.54476 0
M  V30 3695 C 348.297 -0.868689 -3.25508 0
M  V30 3696 O 348.827 -0.0754908 -4.01629 0
M  V30 3697 N 347.033 -0.681711 -2.82491 0
M  V30 3698 H 346.58 -1.32838 -2.20708 0
M  V30 3699 H 346.538 0.126374 -3.14146 0
M  V30 3700 N 350.31 0.590341 -1.46126 0
M  V30 3701 C 351.559 1.34499 -1.50309 0
M  V30 3702 C 351.872 1.94977 -0.156021 0
M  V30 3703 O 353.078 2.71395 -0.0756037 0
M  V30 3704 C 351.534 2.43723 -2.64815 0
M  V30 3705 C 351.142 1.89582 -4.0591 0
M  V30 3706 C 352.886 3.20579 -2.78262 0
M  V30 3707 C 350.793 2.9639 -5.11769 0
M  V30 3708 H 349.723 0.505593 -0.559368 0
M  V30 3709 H 352.374 0.630848 -1.72315 0
M  V30 3710 H 350.756 3.17902 -2.36124 0
M  V30 3711 H 351.93 1.21997 -4.44357 0
M  V30 3712 H 350.245 1.25418 -3.97063 0
M  V30 3713 H 352.842 4.00276 -3.54519 0
M  V30 3714 H 353.185 3.72684 -1.85505 0
M  V30 3715 H 353.718 2.53505 -3.06562 0
M  V30 3716 H 350.457 2.49181 -6.06291 0
M  V30 3717 H 349.977 3.62487 -4.77873 0
M  V30 3718 H 351.656 3.60474 -5.37278 0
M  V30 3719 N 351.788 1.33704 0.83433 0
M  V30 3720 C 353.016 1.28467 1.62185 0
M  V30 3721 C 353.431 -0.143526 1.88254 0
M  V30 3722 O 352.788 -1.08709 1.4659 0
M  V30 3723 C 352.839 2.06174 2.96942 0
M  V30 3724 O 352.56 3.43422 2.72016 0
M  V30 3725 C 354.061 2.08201 3.91366 0
M  V30 3726 H 351.281 0.4424 0.504503 0
M  V30 3727 H 353.825 1.76145 1.03891 0
M  V30 3728 H 351.98 1.62167 3.51825 0
M  V30 3729 H 352.394 3.83453 3.57861 0
M  V30 3730 H 353.868 2.67017 4.83121 0
M  V30 3731 H 354.345 1.07343 4.2588 0
M  V30 3732 H 354.951 2.52246 3.42421 0
M  V30 3733 N 353.266 -1.05314 1.17247 0
M  V30 3734 C 354.214 -2.15137 0.884238 0
M  V30 3735 C 355.208 -1.68729 -0.15063 0
M  V30 3736 O 356.414 -1.8 -0.00366673 0
M  V30 3737 H 352.789 -0.702471 0.2684 0
M  V30 3738 H 354.76 -2.36652 1.81764 0
M  V30 3739 C 353.509 -3.45243 0.412659 0
M  V30 3740 H 352.832 -3.81352 1.20043 0
M  V30 3741 H 354.272 -4.23263 0.249858 0
M  V30 3742 C 352.731 -3.25487 -0.86948 0
M  V30 3743 O 353.261 -3.51938 -1.93655 0
M  V30 3744 N 351.467 -2.78875 -0.817147 0
M  V30 3745 H 351.014 -2.57549 0.0514211 0
M  V30 3746 H 350.972 -2.66036 -1.67547 0
M  V30 3747 N 354.744 -0.972509 -1.24016 0
M  V30 3748 C 355.972 -0.654803 -1.96265 0
M  V30 3749 C 356.387 0.776708 -1.72083 0
M  V30 3750 O 355.744 1.52171 -1.00748 0
M  V30 3751 C 355.795 -0.92592 -3.49441 0
M  V30 3752 O 355.516 -2.30116 -3.72798 0
M  V30 3753 C 357.017 -0.623068 -4.38899 0
M  V30 3754 H 354.237 -0.243907 -0.6251 0
M  V30 3755 H 356.781 -1.30175 -1.57717 0
M  V30 3756 H 354.936 -0.325108 -3.86033 0
M  V30 3757 H 355.35 -2.38483 -4.67147 0
M  V30 3758 H 356.824 -0.863189 -5.45209 0
M  V30 3759 H 357.301 0.442754 -4.36963 0
M  V30 3760 H 357.907 -1.204 -4.07902 0
M  V30 3761 N 356.222 1.38976 -0.743202 0
M  V30 3762 C 357.447 2.05161 -0.303936 0
M  V30 3763 C 357.872 1.55677 1.05576 0
M  V30 3764 O 357.23 0.704131 1.67068 0
M  V30 3765 C 357.278 3.59138 -0.324373 0
M  V30 3766 O 356.382 4.06668 0.685204 0
M  V30 3767 H 355.723 0.649815 -0.136518 0
M  V30 3768 H 358.253 1.77852 -1.01142 0
M  V30 3769 H 358.263 4.07639 -0.171618 0
M  V30 3770 H 356.938 3.94515 -1.31647 0
M  V30 3771 H 355.515 3.69561 0.497913 0
M  V30 3772 N 357.7 0.491464 1.49741 0
M  V30 3773 C 358.663 -0.280906 2.27472 0
M  V30 3774 C 359.663 -0.902454 1.33088 0
M  V30 3775 O 360.853 -0.768465 1.56334 0
M  V30 3776 C 357.985 -1.40209 3.10732 0
M  V30 3777 H 359.178 0.401056 2.97206 0
M  V30 3778 H 356.731 0.246131 1.5435 0
M  V30 3779 H 357.466 -2.11849 2.45541 0
M  V30 3780 H 357.251 -0.961969 3.80117 0
M  V30 3781 H 358.741 -1.9464 3.69466 0
M  V30 3782 N 359.178 -1.55987 0.224894 0
M  V30 3783 C 360.088 -2.24066 -0.69511 0
M  V30 3784 C 361.104 -1.24939 -1.21104 0
M  V30 3785 O 362.28 -1.5776 -1.25195 0
M  V30 3786 C 359.345 -2.90983 -1.88493 0
M  V30 3787 C 358.406 -4.05462 -1.41064 0
M  V30 3788 C 357.639 -4.69179 -2.54375 0
M  V30 3789 O 357.862 -4.31895 -3.72589 0
M  V30 3790 O 356.796 -5.58108 -2.25386 0
M  V30 3791 H 360.622 -3.03353 -0.145149 0
M  V30 3792 H 358.207 -1.49399 -0.00569476 0
M  V30 3793 H 360.089 -3.33209 -2.57972 0
M  V30 3794 H 358.764 -2.14653 -2.42293 0
M  V30 3795 H 357.671 -3.67798 -0.683774 0
M  V30 3796 H 359.004 -4.83545 -0.918985 0
M  V30 3797 N 360.656 0.0484629 -1.57525 0
M  V30 3798 C 361.903 0.743125 -1.88372 0
M  V30 3799 C 362.231 1.76383 -0.819715 0
M  V30 3800 O 361.486 1.94855 0.181659 0
M  V30 3801 C 361.785 1.46632 -3.25935 0
M  V30 3802 C 361.451 0.583427 -4.4711 0
M  V30 3803 C 360.113 0.340191 -4.79996 0
M  V30 3804 C 362.465 -0.0273345 -5.21193 0
M  V30 3805 C 359.793 -0.522903 -5.84365 0
M  V30 3806 C 362.145 -0.878017 -6.26477 0
M  V30 3807 C 360.809 -1.1309 -6.5785 0
M  V30 3808 H 360.079 0.271929 -0.689301 0
M  V30 3809 H 362.726 0.00336166 -1.915 0
M  V30 3810 H 361.031 2.2789 -3.18706 0
M  V30 3811 H 362.728 2.00902 -3.47044 0
M  V30 3812 H 359.318 0.783151 -4.21384 0
M  V30 3813 H 363.502 0.147654 -4.9608 0
M  V30 3814 H 358.758 -0.727335 -6.07058 0
M  V30 3815 H 362.932 -1.35789 -6.83033 0
M  V30 3816 H 360.559 -1.80144 -7.38547 0
M  V30 3817 N 362.134 1.5431 0.320358 0
M  V30 3818 C 363.066 1.80262 1.41556 0
M  V30 3819 C 364.079 0.684723 1.477 0
M  V30 3820 O 365.268 0.961886 1.50366 0
M  V30 3821 C 362.368 1.90825 2.8007 0
M  V30 3822 C 361.541 3.21023 2.97091 0
M  V30 3823 C 360.6 3.22247 4.15985 0
M  V30 3824 O 359.626 3.95871 4.08992 0
M  V30 3825 N 360.828 2.46258 5.25678 0
M  V30 3826 H 363.593 2.74778 1.19655 0
M  V30 3827 H 361.154 1.53646 0.510358 0
M  V30 3828 H 363.146 1.89067 3.57821 0
M  V30 3829 H 361.716 1.03392 2.95006 0
M  V30 3830 H 360.936 3.35715 2.06614 0
M  V30 3831 H 362.224 4.0698 3.05361 0
M  V30 3832 H 361.622 1.86037 5.34235 0
M  V30 3833 H 360.179 2.50275 6.01835 0
M  V30 3834 N 363.613 -0.582584 1.46437 0
M  V30 3835 C 364.843 -1.36484 1.55099 0
M  V30 3836 C 365.251 -1.88233 0.191056 0
M  V30 3837 O 364.594 -1.6429 -0.821858 0
M  V30 3838 C 364.656 -2.588 2.49525 0
M  V30 3839 C 364.32 -2.28517 3.95764 0
M  V30 3840 C 365.317 -1.87346 4.84972 0
M  V30 3841 C 363.002 -2.40658 4.40896 0
M  V30 3842 C 364.996 -1.5871 6.17325 0
M  V30 3843 C 362.683 -2.11635 5.73284 0
M  V30 3844 C 363.681 -1.70725 6.61318 0
M  V30 3845 O 363.369 -1.42057 7.91249 0
M  V30 3846 H 363.101 -0.423297 0.527063 0
M  V30 3847 H 365.655 -0.715188 1.92547 0
M  V30 3848 H 363.885 -3.26571 2.07095 0
M  V30 3849 H 365.574 -3.20868 2.48593 0
M  V30 3850 H 366.34 -1.77481 4.5136 0
M  V30 3851 H 362.219 -2.71463 3.72598 0
M  V30 3852 H 365.763 -1.26704 6.85997 0
M  V30 3853 H 361.66 -2.21124 6.06444 0
M  V30 3854 H 362.428 -1.55901 8.03515 0
M  V30 3855 N 365.091 -1.34144 -0.827227 0
M  V30 3856 C 366.339 -1.26009 -1.58007 0
M  V30 3857 C 366.66 0.170971 -1.94249 0
M  V30 3858 O 365.93 1.10256 -1.61927 0
M  V30 3859 H 364.51 -0.463414 -0.585881 0
M  V30 3860 H 367.172 -1.68005 -0.987951 0
M  V30 3861 H 366.268 -1.86187 -2.50481 0
M  V30 3862 N 366.569 1.04691 -1.17803 0
M  V30 3863 C 367.479 2.16057 -0.914151 0
M  V30 3864 C 368.495 1.73589 0.119503 0
M  V30 3865 O 369.671 2.01308 -0.0609468 0
M  V30 3866 C 366.736 3.4394 -0.436603 0
M  V30 3867 C 365.797 4.00825 -1.53746 0
M  V30 3868 C 365.03 5.22604 -1.0826 0
M  V30 3869 O 365.253 5.70367 0.0612244 0
M  V30 3870 O 364.187 5.7186 -1.87775 0
M  V30 3871 H 368.013 2.41169 -1.84584 0
M  V30 3872 H 365.598 1.1453 -0.959334 0
M  V30 3873 H 367.48 4.21024 -0.178057 0
M  V30 3874 H 366.155 3.20316 0.466869 0
M  V30 3875 H 365.062 3.25158 -1.84995 0
M  V30 3876 H 366.395 4.28778 -2.41683 0
M  V30 3877 N 368.047 0.979072 1.23499 0
M  V30 3878 C 369.296 0.642751 1.91185 0
M  V30 3879 C 369.609 -0.827253 1.77245 0
M  V30 3880 O 370.815 -1.27458 2.39722 0
M  V30 3881 C 369.271 1.09901 3.42709 0
M  V30 3882 C 368.879 2.59327 3.65313 0
M  V30 3883 C 370.623 0.836371 4.16179 0
M  V30 3884 C 368.53 2.98627 5.10467 0
M  V30 3885 H 367.46 0.236698 0.715884 0
M  V30 3886 H 370.111 1.1868 1.39955 0
M  V30 3887 H 368.493 0.48319 3.93041 0
M  V30 3888 H 369.667 3.26136 3.25533 0
M  V30 3889 H 367.982 2.83323 3.05151 0
M  V30 3890 H 370.579 1.10586 5.23139 0
M  V30 3891 H 370.922 -0.227509 4.15678 0
M  V30 3892 H 371.455 1.41371 3.71832 0
M  V30 3893 H 368.194 4.04133 5.16098 0
M  V30 3894 H 367.714 2.3651 5.51201 0
M  V30 3895 H 369.393 2.89159 5.78788 0
M  V30 3896 N 369.525 -1.3858 0.750561 0
M  V30 3897 C 370.455 -2.33102 0.136237 0
M  V30 3898 C 371.436 -1.54713 -0.706965 0
M  V30 3899 O 372.621 -1.83043 -0.648769 0
M  V30 3900 C 369.751 -3.38882 -0.760017 0
M  V30 3901 C 368.705 -4.27995 -0.0197785 0
M  V30 3902 C 368.031 -5.24605 -1.03408 0
M  V30 3903 C 369.331 -5.09554 1.14684 0
M  V30 3904 H 371.025 -2.84726 0.925822 0
M  V30 3905 H 368.571 -1.36898 0.446654 0
M  V30 3906 H 370.524 -4.0397 -1.19943 0
M  V30 3907 H 369.248 -2.85734 -1.58189 0
M  V30 3908 H 367.907 -3.64409 0.400184 0
M  V30 3909 H 367.555 -4.67746 -1.84994 0
M  V30 3910 H 367.255 -5.85081 -0.543464 0
M  V30 3911 H 368.779 -5.9257 -1.47288 0
M  V30 3912 H 370.193 -5.67899 0.785118 0
M  V30 3913 H 368.59 -5.7925 1.56812 0
M  V30 3914 H 369.66 -4.4347 1.96118 0
M  V30 3915 N 371.003 -0.499398 -1.49478 0
M  V30 3916 C 371.935 0.316575 -2.27003 0
M  V30 3917 C 372.948 0.932047 -1.33479 0
M  V30 3918 O 374.137 0.815658 -1.58774 0
M  V30 3919 C 371.237 1.46055 -3.05812 0
M  V30 3920 C 370.41 0.952679 -4.26899 0
M  V30 3921 C 369.469 1.97407 -4.87767 0
M  V30 3922 O 368.495 1.54326 -5.4788 0
M  V30 3923 N 369.697 3.30436 -4.77276 0
M  V30 3924 H 372.462 -0.348168 -2.97671 0
M  V30 3925 H 370.023 -0.33185 -1.58463 0
M  V30 3926 H 372.015 2.14135 -3.43407 0
M  V30 3927 H 370.585 2.02948 -2.37762 0
M  V30 3928 H 369.805 0.0968248 -3.94081 0
M  V30 3929 H 371.093 0.59174 -5.05347 0
M  V30 3930 H 370.491 3.68126 -4.29534 0
M  V30 3931 H 369.048 3.94235 -5.19059 0
M  V30 3932 N 372.481 1.55866 -0.233164 0
M  V30 3933 C 373.758 1.90471 0.444988 0
M  V30 3934 C 374.138 1.15209 1.7689 0
M  V30 3935 O 373.486 0.265119 2.26957 0
M  V30 3936 C 373.696 3.4333 0.626559 0
M  V30 3937 C 375.044 4.14319 0.92871 0
M  V30 3938 O 376.068 3.48993 0.712926 0
M  V30 3939 O 374.927 5.29846 1.33887 0
M  V30 3940 H 372.021 0.792347 0.236885 0
M  V30 3941 H 374.567 1.67437 -0.276211 0
M  V30 3942 H 373.339 3.90095 -0.306822 0
M  V30 3943 H 372.962 3.72181 1.39881 0
M  V30 3944 N 373.959 -0.0401083 1.57549 0
M  V30 3945 C 375.184 -0.748931 1.93406 0
M  V30 3946 C 375.609 -1.68686 0.832274 0
M  V30 3947 O 374.967 -1.80047 -0.212818 0
M  V30 3948 C 375.015 -1.4916 3.28304 0
M  V30 3949 O 374.119 -2.6042 3.19774 0
M  V30 3950 H 373.46 -0.202212 0.63246 0
M  V30 3951 H 375.99 0.00112086 2.046 0
M  V30 3952 H 376 -1.86395 3.62934 0
M  V30 3953 H 374.675 -0.80364 4.08062 0
M  V30 3954 H 373.252 -2.25808 2.96758 0
M  V30 3955 N 375.437 -1.54477 -0.31217 0
M  V30 3956 C 376.4 -1.83923 -1.36766 0
M  V30 3957 C 377.4 -0.711563 -1.44199 0
M  V30 3958 O 378.59 -0.979866 -1.44029 0
M  V30 3959 C 375.722 -2.0095 -2.75376 0
M  V30 3960 H 376.915 -2.78239 -1.11906 0
M  V30 3961 H 374.468 -1.46369 -0.548257 0
M  V30 3962 H 375.203 -1.08883 -3.05475 0
M  V30 3963 H 374.988 -2.83018 -2.71373 0
M  V30 3964 H 376.478 -2.2514 -3.51713 0
M  V30 3965 N 376.915 0.57481 -1.46744 0
M  V30 3966 C 378.14 1.36341 -1.56288 0
M  V30 3967 C 378.565 1.86954 -0.207347 0
M  V30 3968 O 377.923 1.62006 0.813871 0
M  V30 3969 C 377.971 2.52147 -2.57787 0
M  V30 3970 O 377.075 3.53834 -2.11838 0
M  V30 3971 H 376.416 0.405713 -0.525636 0
M  V30 3972 H 378.946 0.696453 -1.92382 0
M  V30 3973 H 378.956 2.98958 -2.77648 0
M  V30 3974 H 377.631 2.14663 -3.5622 0
M  V30 3975 H 376.208 3.1345 -2.01999 0
M  V30 3976 N 378.394 1.34581 0.820102 0
M  V30 3977 C 379.81 1.14325 1.11364 0
M  V30 3978 C 380.01 -0.0533648 2.01429 0
M  V30 3979 O 379.066 -0.728044 2.41776 0
M  V30 3980 C 380.379 2.43983 1.75764 0
M  V30 3981 C 381.927 2.50065 1.88246 0
M  V30 3982 C 382.402 3.79732 2.56061 0
M  V30 3983 N 383.893 3.80908 2.63558 0
M  V30 3984 C 384.628 4.77961 3.16766 0
M  V30 3985 N 384.124 5.85397 3.70517 0
M  V30 3986 N 385.917 4.65413 3.15194 0
M  V30 3987 H 378.068 2.11246 0.221096 0
M  V30 3988 H 380.331 0.934289 0.160649 0
M  V30 3989 H 380.037 3.31651 1.1705 0
M  V30 3990 H 379.911 2.57531 2.75604 0
M  V30 3991 H 382.298 1.62834 2.46108 0
M  V30 3992 H 382.379 2.40442 0.873006 0
M  V30 3993 H 382.023 4.67354 1.98853 0
M  V30 3994 H 381.953 3.86639 3.57516 0
M  V30 3995 H 384.444 3.03274 2.25463 0
M  V30 3996 H 384.757 6.55463 4.09376 0
M  V30 3997 H 383.102 5.89107 3.68752 0
M  V30 3998 H 386.293 3.80627 2.72471 0
M  V30 3999 H 386.466 5.41216 3.56356 0
M  V30 4000 N 379.872 -1.04064 1.18357 0
M  V30 4001 C 381.149 -1.74252 0.888581 0
M  V30 4002 C 381.529 -2.02138 -0.60856 0
M  V30 4003 O 380.877 -1.66656 -1.56327 0
M  V30 4004 C 381.087 -3.0277 1.73584 0
M  V30 4005 C 382.435 -3.76506 1.96286 0
M  V30 4006 O 383.459 -3.12668 1.70637 0
M  V30 4007 O 382.318 -4.91243 2.39464 0
M  V30 4008 H 379.412 -0.758271 0.330082 0
M  V30 4009 H 381.958 -1.1013 1.2911 0
M  V30 4010 H 380.73 -2.78299 2.75073 0
M  V30 4011 H 380.353 -3.74631 1.33183 0
M  V30 4012 N 381.35 -0.985608 -1.22978 0
M  V30 4013 C 382.313 -0.535071 -2.22867 0
M  V30 4014 C 383.313 0.378123 -1.56291 0
M  V30 4015 O 384.503 0.171092 -1.73358 0
M  V30 4016 C 381.635 0.222702 -3.40172 0
M  V30 4017 H 382.828 -1.41835 -2.6424 0
M  V30 4018 H 380.381 -0.772042 -1.35901 0
M  V30 4019 H 381.116 1.12229 -3.04262 0
M  V30 4020 H 380.901 -0.43288 -3.89703 0
M  V30 4021 H 382.391 0.526335 -4.1427 0
M  V30 4022 N 382.828 1.3818 -0.7579 0
M  V30 4023 C 383.791 2.28764 -0.141286 0
M  V30 4024 C 384.791 1.47388 0.642907 0
M  V30 4025 O 385.981 1.67781 0.468536 0
M  V30 4026 C 383.113 3.31184 0.808069 0
M  V30 4027 H 384.306 2.848 -0.939633 0
M  V30 4028 H 381.859 1.47212 -0.525191 0
M  V30 4029 H 382.594 2.80247 1.63193 0
M  V30 4030 H 382.379 3.91314 0.248104 0
M  V30 4031 H 383.869 3.98909 1.23536 0
M  V30 4032 N 384.306 0.507319 1.49211 0
M  V30 4033 C 385.536 -0.0315292 2.06576 0
M  V30 4034 C 385.944 -1.30791 1.36713 0
M  V30 4035 O 385.287 -1.78324 0.441181 0
M  V30 4036 C 385.349 -0.349104 3.57801 0
M  V30 4037 C 385.013 0.830475 4.49391 0
M  V30 4038 C 386.01 1.72271 4.90529 0
M  V30 4039 C 383.695 1.03107 4.91604 0
M  V30 4040 C 385.689 2.79964 5.72625 0
M  V30 4041 C 383.376 2.11116 5.73475 0
M  V30 4042 C 384.374 2.99379 6.1389 0
M  V30 4043 O 384.062 4.05523 6.94123 0
M  V30 4044 H 383.794 0.0201002 0.675701 0
M  V30 4045 H 386.348 0.705737 1.92895 0
M  V30 4046 H 384.578 -1.14005 3.69513 0
M  V30 4047 H 386.267 -0.827319 3.97379 0
M  V30 4048 H 387.033 1.57958 4.58557 0
M  V30 4049 H 382.912 0.353417 4.59643 0
M  V30 4050 H 386.456 3.48884 6.04091 0
M  V30 4051 H 382.353 2.25421 6.0486 0
M  V30 4052 H 383.121 4.02953 7.1244 0
M  V30 4053 N 385.784 -1.5574 0.241426 0
M  V30 4054 C 386.747 -2.19877 -0.647063 0
M  V30 4055 C 387.747 -1.16642 -1.10686 0
M  V30 4056 O 388.937 -1.41757 -1.01245 0
M  V30 4057 C 386.069 -2.83797 -1.88871 0
M  V30 4058 H 387.262 -2.99772 -0.087574 0
M  V30 4059 H 384.815 -1.56298 -0.00813574 0
M  V30 4060 H 385.55 -2.07824 -2.48957 0
M  V30 4061 H 385.335 -3.59414 -1.56728 0
M  V30 4062 H 386.825 -3.32898 -2.52129 0
M  V30 4063 N 387.262 0.0317525 -1.57568 0
M  V30 4064 C 388.21 1.05165 -2.07468 0
M  V30 4065 C 389.204 1.3761 -0.98792 0
M  V30 4066 O 390.41 1.36546 -1.17282 0
M  V30 4067 H 386.785 0.35666 -0.66204 0
M  V30 4068 H 388.756 0.604958 -2.92203 0
M  V30 4069 C 387.505 2.34488 -2.56731 0
M  V30 4070 H 386.828 2.10383 -3.39969 0
M  V30 4071 H 388.268 3.04203 -2.95358 0
M  V30 4072 C 386.727 3.03266 -1.46736 0
M  V30 4073 O 387.257 3.92988 -0.832069 0
M  V30 4074 N 385.463 2.6455 -1.20256 0
M  V30 4075 H 385.01 1.91674 -1.72102 0
M  V30 4076 H 384.968 3.10886 -0.468737 0
M  V30 4077 N 388.74 1.54641 0.303973 0
M  V30 4078 C 389.97 1.77511 1.05705 0
M  V30 4079 C 390.378 0.533228 1.81531 0
M  V30 4080 O 389.721 -0.506423 1.76582 0
M  V30 4081 C 389.783 2.92779 2.08617 0
M  V30 4082 C 389.447 4.30977 1.52013 0
M  V30 4083 C 390.444 5.11115 0.9517 0
M  V30 4084 C 388.129 4.77571 1.55665 0
M  V30 4085 C 390.123 6.35966 0.427327 0
M  V30 4086 C 387.81 6.02384 1.02841 0
M  V30 4087 C 388.808 6.81417 0.464713 0
M  V30 4088 O 388.496 8.03881 -0.0555283 0
M  V30 4089 H 388.228 0.59579 0.319391 0
M  V30 4090 H 390.782 2.02401 0.349712 0
M  V30 4091 H 389.012 2.63506 2.83022 0
M  V30 4092 H 390.701 3.03252 2.69802 0
M  V30 4093 H 391.467 4.76264 0.916407 0
M  V30 4094 H 387.346 4.16085 1.9848 0
M  V30 4095 H 390.89 6.97599 -0.0133062 0
M  V30 4096 H 386.787 6.36723 1.06084 0
M  V30 4097 H 387.555 8.18479 0.0580522 0
M  V30 4098 N 390.218 -0.567019 1.47046 0
M  V30 4099 C 391.151 -1.69016 1.53326 0
M  V30 4100 C 392.129 -1.57949 0.386126 0
M  V30 4101 O 393.313 -1.78945 0.592529 0
M  V30 4102 C 390.44 -3.07191 1.42658 0
M  V30 4103 C 389.486 -3.36733 2.6175 0
M  V30 4104 S 390.319 -3.27069 4.24012 0
M  V30 4105 C 391.475 -4.67755 4.1588 0
M  V30 4106 H 391.708 -1.63434 2.48348 0
M  V30 4107 H 389.241 -0.747048 1.35124 0
M  V30 4108 H 391.199 -3.86897 1.37191 0
M  V30 4109 H 389.86 -3.10249 0.490369 0
M  V30 4110 H 389.053 -4.37441 2.50323 0
M  V30 4111 H 388.655 -2.64627 2.64289 0
M  V30 4112 H 390.947 -5.58491 3.83529 0
M  V30 4113 H 391.89 -4.84239 5.16641 0
M  V30 4114 H 392.298 -4.45341 3.46889 0
M  V30 4115 N 391.696 -1.35014 -0.812953 0
M  V30 4116 C 392.973 -1.18502 -1.55617 0
M  V30 4117 C 393.353 0.238421 -2.09749 0
M  V30 4118 O 392.701 1.2411 -1.91857 0
M  V30 4119 C 392.911 -2.24783 -2.66971 0
M  V30 4120 C 394.259 -2.60268 -3.35478 0
M  V30 4121 O 395.283 -2.23648 -2.77236 0
M  V30 4122 O 394.142 -3.2321 -4.40678 0
M  V30 4123 H 391.236 -0.459984 -0.687272 0
M  V30 4124 H 393.782 -1.46677 -0.853464 0
M  V30 4125 H 392.554 -3.20284 -2.24798 0
M  V30 4126 H 392.177 -1.97841 -3.44884 0
M  V30 4127 N 393.175 1.03435 -1.18907 0
M  V30 4128 C 394.421 1.77005 -0.989798 0
M  V30 4129 C 394.754 1.88205 0.478816 0
M  V30 4130 O 394.029 1.39481 1.35556 0
M  V30 4131 C 394.312 3.19925 -1.65287 0
M  V30 4132 C 394.165 3.1663 -3.19477 0
M  V30 4133 C 395.484 4.18189 -1.37134 0
M  V30 4134 H 392.603 0.642538 -0.360991 0
M  V30 4135 H 395.245 1.20784 -1.46667 0
M  V30 4136 H 393.395 3.67929 -1.24741 0
M  V30 4137 H 395.067 2.76567 -3.692 0
M  V30 4138 H 393.31 2.54491 -3.51307 0
M  V30 4139 H 393.981 4.1758 -3.61013 0
M  V30 4140 H 396.457 3.78761 -1.72276 0
M  V30 4141 H 395.333 5.16394 -1.86087 0
M  V30 4142 H 395.594 4.41112 -0.295424 0
M  V30 4143 N 394.653 0.992116 1.22453 0
M  V30 4144 C 395.881 0.685944 1.95198 0
M  V30 4145 C 396.296 -0.749233 1.73297 0
M  V30 4146 O 395.653 -1.50549 1.03156 0
M  V30 4147 C 395.704 0.981395 3.47924 0
M  V30 4148 O 395.425 2.36018 3.6909 0
M  V30 4149 C 396.926 0.692815 4.37853 0
M  V30 4150 H 394.146 0.253821 0.621141 0
M  V30 4151 H 396.69 1.32668 1.55626 0
M  V30 4152 H 394.845 0.386481 3.85467 0
M  V30 4153 H 395.259 2.45884 4.63294 0
M  V30 4154 H 396.733 0.949818 5.43767 0
M  V30 4155 H 397.21 -0.373181 4.37612 0
M  V30 4156 H 397.816 1.26874 4.05935 0
M  V30 4157 N 396.131 -1.37776 0.765217 0
M  V30 4158 C 397.094 -2.28686 0.153416 0
M  V30 4159 C 398.094 -1.47727 -0.635081 0
M  V30 4160 O 399.284 -1.68027 -0.459632 0
M  V30 4161 C 396.416 -3.31608 -0.790495 0
M  V30 4162 H 397.609 -2.84297 0.954723 0
M  V30 4163 H 395.162 -1.46932 0.53299 0
M  V30 4164 H 395.897 -2.81109 -1.61705 0
M  V30 4165 H 395.682 -3.9144 -0.227348 0
M  V30 4166 H 397.172 -3.99559 -1.21419 0
M  V30 4167 N 397.609 -0.515225 -1.4894 0
M  V30 4168 C 398.834 0.022727 -2.07388 0
M  V30 4169 C 399.259 1.2876 -1.37122 0
M  V30 4170 O 398.617 1.76067 -0.432431 0
M  V30 4171 C 398.665 0.244869 -3.59768 0
M  V30 4172 O 397.769 1.31667 -3.90817 0
M  V30 4173 H 397.11 -0.0325506 -0.663202 0
M  V30 4174 H 399.64 -0.718918 -1.91553 0
M  V30 4175 H 399.65 0.47205 -4.0526 0
M  V30 4176 H 398.325 -0.679194 -4.10317 0
M  V30 4177 H 396.902 1.07331 -3.5712 0
M  V30 4178 N 399.087 1.5561 -0.249682 0
M  V30 4179 C 400.035 2.22894 0.664906 0
M  V30 4180 C 401.029 1.21743 1.17792 0
M  V30 4181 O 402.235 1.39748 1.13449 0
M  V30 4182 H 398.61 0.715022 0.232912 0
M  V30 4183 H 400.581 2.98307 0.0742998 0
M  V30 4184 C 399.33 2.94424 1.84959 0
M  V30 4185 H 398.653 3.72031 1.46399 0
M  V30 4186 H 400.093 3.44862 2.4667 0
M  V30 4187 C 398.552 1.98454 2.72245 0
M  V30 4188 O 399.082 1.51939 3.71857 0
M  V30 4189 N 397.288 1.65496 2.38871 0
M  V30 4190 H 396.835 2.03517 1.57919 0
M  V30 4191 H 396.793 1.0155 2.97548 0
M  V30 4192 N 400.565 -0.0233959 1.57583 0
M  V30 4193 C 401.795 -0.723631 1.93513 0
M  V30 4194 C 402.203 -1.69115 0.848333 0
M  V30 4195 O 401.546 -1.82781 -0.183484 0
M  V30 4196 C 401.608 -1.53075 3.25282 0
M  V30 4197 C 401.272 -0.727388 4.51174 0
M  V30 4198 C 402.269 -0.0251924 5.19894 0
M  V30 4199 C 399.954 -0.680256 4.97672 0
M  V30 4200 C 401.948 0.713374 6.33395 0
M  V30 4201 C 399.635 0.0620523 6.11068 0
M  V30 4202 C 400.633 0.757622 6.78785 0
M  V30 4203 O 400.321 1.48787 7.90011 0
M  V30 4204 H 400.053 -0.208051 0.643188 0
M  V30 4205 H 402.607 0.0167489 2.05393 0
M  V30 4206 H 400.837 -2.31508 3.09744 0
M  V30 4207 H 402.526 -2.11413 3.46496 0
M  V30 4208 H 403.292 -0.0526003 4.84971 0
M  V30 4209 H 399.171 -1.21116 4.44805 0
M  V30 4210 H 402.715 1.25683 6.86185 0
M  V30 4211 H 398.612 0.0913634 6.45435 0
M  V30 4212 H 399.38 1.40213 8.06401 0
M  V30 4213 N 402.043 -1.548 -0.295768 0
M  V30 4214 C 403.291 -1.73985 -1.02828 0
M  V30 4215 C 403.612 -0.531406 -1.87619 0
M  V30 4216 O 402.882 0.454221 -1.90561 0
M  V30 4217 H 401.462 -0.641556 -0.382642 0
M  V30 4218 H 404.124 -1.92163 -0.325489 0
M  V30 4219 H 403.22 -2.63129 -1.67838 0
M  V30 4220 N 403.521 0.559213 -1.47345 0
M  V30 4221 C 404.471 1.66192 -1.5609 0
M  V30 4222 C 405.455 1.55323 -0.419957 0
M  V30 4223 O 406.647 1.63839 -0.669762 0
M  V30 4224 C 403.776 3.0497 -1.57634 0
M  V30 4225 C 402.862 3.2105 -2.77106 0
M  V30 4226 N 403.253 3.07203 -4.01821 0
M  V30 4227 C 401.551 3.52046 -2.73825 0
M  V30 4228 C 402.252 3.25919 -4.81821 0
M  V30 4229 N 401.228 3.52161 -4.14106 0
M  V30 4230 H 405.03 1.54052 -2.5029 0
M  V30 4231 H 402.544 0.763914 -1.43311 0
M  V30 4232 H 404.541 3.84142 -1.61989 0
M  V30 4233 H 403.201 3.18224 -0.645281 0
M  V30 4234 H 404.212 2.84572 -4.32711 0
M  V30 4235 H 400.889 3.71839 -1.89848 0
M  V30 4236 H 402.279 3.20198 -5.90697 0
M  V30 4237 N 404.999 1.35443 0.805782 0
M  V30 4238 C 406.224 1.32037 1.59941 0
M  V30 4239 C 406.649 -0.0994215 1.87837 0
M  V30 4240 O 406.007 -1.06648 1.46615 0
M  V30 4241 C 406.055 2.13354 2.90711 0
M  V30 4242 O 405.159 1.5148 3.83572 0
M  V30 4243 H 404.5 0.452666 0.485787 0
M  V30 4244 H 407.03 1.78496 1.00002 0
M  V30 4245 H 407.04 2.25338 3.40128 0
M  V30 4246 H 405.715 3.16572 2.69732 0
M  V30 4247 H 404.292 1.4834 3.42125 0
M  V30 4248 N 406.477 -1.02803 1.19454 0
M  V30 4249 C 407.726 -1.7562 0.991996 0
M  V30 4250 C 408.039 -1.89672 -0.477901 0
M  V30 4251 O 409.245 -2.59468 -0.799287 0
M  V30 4252 C 407.701 -3.15812 1.72601 0
M  V30 4253 C 407.309 -3.0981 3.23607 0
M  V30 4254 C 409.053 -3.92918 1.60674 0
M  V30 4255 C 406.96 -4.44939 3.89594 0
M  V30 4256 H 405.89 -0.658352 0.367543 0
M  V30 4257 H 408.541 -1.15044 1.42959 0
M  V30 4258 H 406.923 -3.7686 1.21624 0
M  V30 4259 H 408.097 -2.58138 3.81709 0
M  V30 4260 H 406.412 -2.46201 3.35819 0
M  V30 4261 H 409.009 -4.9287 2.07323 0
M  V30 4262 H 409.352 -4.12502 0.561025 0
M  V30 4263 H 409.885 -3.38472 2.09001 0
M  V30 4264 H 406.624 -4.30559 4.94267 0
M  V30 4265 H 406.144 -4.96664 3.36281 0
M  V30 4266 H 407.823 -5.1382 3.93189 0
M  V30 4267 N 407.956 -0.998596 -1.21925 0
M  V30 4268 C 409.372 -0.710303 -1.42923 0
M  V30 4269 C 409.572 0.716933 -1.88314 0
M  V30 4270 O 408.628 1.48712 -2.04062 0
M  V30 4271 C 409.941 -1.72072 -2.466 0
M  V30 4272 C 411.489 -1.73681 -2.60392 0
M  V30 4273 C 411.964 -2.73601 -3.67296 0
M  V30 4274 N 413.455 -2.7223 -3.7476 0
M  V30 4275 C 414.19 -3.46206 -4.57087 0
M  V30 4276 N 413.686 -4.29802 -5.43362 0
M  V30 4277 N 415.479 -3.34886 -4.51451 0
M  V30 4278 H 407.63 -1.92028 -0.9077 0
M  V30 4279 H 409.893 -0.828487 -0.460775 0
M  V30 4280 H 409.599 -2.74231 -2.20206 0
M  V30 4281 H 409.473 -1.51818 -3.45299 0
M  V30 4282 H 411.86 -0.722173 -2.86127 0
M  V30 4283 H 411.941 -1.98005 -1.61949 0
M  V30 4284 H 411.585 -3.75217 -3.42307 0
M  V30 4285 H 411.515 -2.46545 -4.65321 0
M  V30 4286 H 414.006 -2.11576 -3.1312 0
M  V30 4287 H 414.319 -4.83061 -6.03218 0
M  V30 4288 H 412.664 -4.33887 -5.42925 0
M  V30 4289 H 415.855 -2.69015 -3.83078 0
M  V30 4290 H 416.028 -3.92796 -5.15379 0
M  V30 4291 N 409.434 1.37368 -0.772513 0
M  V30 4292 C 410.659 2.0447 -0.347386 0
M  V30 4293 C 411.084 1.57882 1.0225 0
M  V30 4294 O 410.442 0.73941 1.65537 0
M  V30 4295 C 410.49 3.58369 -0.400479 0
M  V30 4296 O 409.594 4.0803 0.598789 0
M  V30 4297 H 408.935 0.646773 -0.15027 0
M  V30 4298 H 411.465 1.75667 -1.04892 0
M  V30 4299 H 411.475 4.07183 -0.258045 0
M  V30 4300 H 410.15 3.91633 -1.39986 0
M  V30 4301 H 408.727 3.70534 0.419411 0
M  V30 4302 N 410.912 0.523116 1.48665 0
M  V30 4303 C 411.875 -0.232592 2.28017 0
M  V30 4304 C 412.875 -0.874021 1.34972 0
M  V30 4305 O 414.065 -0.735132 1.57929 0
M  V30 4306 C 411.197 -1.33586 3.13636 0
M  V30 4307 H 412.39 0.464008 2.96289 0
M  V30 4308 H 409.943 0.278816 1.53793 0
M  V30 4309 H 410.678 -2.06593 2.4998 0
M  V30 4310 H 410.463 -0.881125 3.82071 0
M  V30 4311 H 411.953 -1.86759 3.73511 0
M  V30 4312 N 412.39 -1.55475 0.257931 0
M  V30 4313 C 413.32 -2.24815 -0.630912 0
M  V30 4314 C 414.301 -1.23224 -1.17259 0
M  V30 4315 O 415.486 -1.51904 -1.20991 0
M  V30 4316 C 412.616 -2.95609 -1.82298 0
M  V30 4317 C 411.57 -4.03982 -1.41359 0
M  V30 4318 C 410.896 -4.6226 -2.68738 0
M  V30 4319 C 412.196 -5.19109 -0.57648 0
M  V30 4320 H 413.89 -2.99354 -0.0526878 0
M  V30 4321 H 411.436 -1.4398 -0.023901 0
M  V30 4322 H 413.389 -3.42822 -2.45054 0
M  V30 4323 H 412.113 -2.18577 -2.42676 0
M  V30 4324 H 410.772 -3.57555 -0.809324 0
M  V30 4325 H 410.42 -3.81915 -3.27338 0
M  V30 4326 H 410.12 -5.35424 -2.42065 0
M  V30 4327 H 411.644 -5.12212 -3.32372 0
M  V30 4328 H 413.058 -5.62479 -1.10861 0
M  V30 4329 H 411.455 -5.98729 -0.405351 0
M  V30 4330 H 412.525 -4.83174 0.408776 0
M  V30 4331 N 413.868 0.0150385 -1.57593 0
M  V30 4332 C 414.815 1.01126 -2.07466 0
M  V30 4333 C 415.785 1.35064 -0.966794 0
M  V30 4334 O 416.97 1.4516 -1.23827 0
M  V30 4335 C 414.11 2.30276 -2.57035 0
M  V30 4336 C 413.223 2.02373 -3.81666 0
M  V30 4337 C 412.358 3.25496 -4.19793 0
M  V30 4338 C 411.397 2.93211 -5.37303 0
M  V30 4339 N 410.534 4.08826 -5.70794 0
M  V30 4340 H 415.374 0.57901 -2.92321 0
M  V30 4341 H 412.911 0.27426 -1.44521 0
M  V30 4342 H 414.869 3.05757 -2.83846 0
M  V30 4343 H 413.499 2.71197 -1.75077 0
M  V30 4344 H 412.551 1.17327 -3.61854 0
M  V30 4345 H 413.863 1.74567 -4.67256 0
M  V30 4346 H 413.017 4.09333 -4.47807 0
M  V30 4347 H 411.756 3.56428 -3.32882 0
M  V30 4348 H 410.761 2.07777 -5.09027 0
M  V30 4349 H 411.986 2.63542 -6.25877 0
M  V30 4350 H 409.932 4.39682 -4.86842 0
M  V30 4351 H 409.849 3.84491 -6.50924 0
M  V30 4352 H 411.117 4.93496 -6.03392 0
M  V30 4353 N 415.346 1.54954 0.287554 0
M  V30 4354 C 416.294 1.87606 1.37502 0
M  V30 4355 C 417.288 0.751001 1.51843 0
M  V30 4356 O 418.494 0.935169 1.53801 0
M  V30 4357 H 414.869 0.595231 0.459569 0
M  V30 4358 H 416.84 2.78477 1.07206 0
M  V30 4359 C 415.589 2.15183 2.73115 0
M  V30 4360 H 414.912 3.01234 2.62866 0
M  V30 4361 H 416.352 2.4196 3.48183 0
M  V30 4362 C 414.811 0.954686 3.2309 0
M  V30 4363 O 415.341 0.181949 4.01288 0
M  V30 4364 N 413.547 0.756368 2.80584 0
M  V30 4365 H 413.094 1.38643 2.17108 0
M  V30 4366 H 413.052 -0.0430391 3.14371 0
M  V30 4367 N 416.824 -0.551391 1.4764 0
M  V30 4368 C 418.24 -0.877887 1.33287 0
M  V30 4369 C 418.44 -1.98817 0.327721 0
M  V30 4370 O 417.496 -2.51171 -0.258695 0
M  V30 4371 C 418.809 -1.26563 2.72768 0
M  V30 4372 C 420.357 -1.37673 2.81097 0
M  V30 4373 C 420.832 -1.79799 4.21232 0
M  V30 4374 N 422.323 -1.8694 4.23802 0
M  V30 4375 C 423.058 -2.20876 5.29151 0
M  V30 4376 N 422.554 -2.53386 6.448 0
M  V30 4377 N 424.347 -2.217 5.16532 0
M  V30 4378 H 416.498 0.18153 2.11623 0
M  V30 4379 H 418.761 0.0185514 0.947818 0
M  V30 4380 H 418.467 -0.523591 3.47781 0
M  V30 4381 H 418.341 -2.22052 3.04915 0
M  V30 4382 H 420.728 -2.10956 2.06353 0
M  V30 4383 H 420.809 -0.40357 2.52596 0
M  V30 4384 H 420.453 -1.07083 4.96483 0
M  V30 4385 H 420.383 -2.78128 4.4716 0
M  V30 4386 H 422.874 -1.64179 3.40373 0
M  V30 4387 H 423.187 -2.78325 7.20941 0
M  V30 4388 H 421.532 -2.50953 6.48111 0
M  V30 4389 H 424.723 -1.95745 4.25207 0
M  V30 4390 H 424.896 -2.47818 5.98741 0
M  V30 4391 N 418.302 -1.35869 -0.798587 0
M  V30 4392 C 419.25 -1.29491 -1.93222 0
M  V30 4393 C 420.244 -0.18836 -1.6835 0
M  V30 4394 O 421.45 -0.354822 -1.76468 0
M  V30 4395 H 417.825 -0.402901 -0.63496 0
M  V30 4396 H 419.796 -2.25247 -1.9572 0
M  V30 4397 C 418.545 -1.09184 -3.30112 0
M  V30 4398 H 417.868 -1.93574 -3.49813 0
M  V30 4399 H 419.308 -1.08766 -4.09812 0
M  V30 4400 C 417.767 0.203959 -3.36282 0
M  V30 4401 O 418.297 1.19699 -3.83451 0
M  V30 4402 N 416.503 0.245488 -2.89561 0
M  V30 4403 H 416.05 -0.563223 -2.51367 0
M  V30 4404 H 416.008 1.11219 -2.94071 0
M  V30 4405 N 419.78 1.02168 -1.19998 0
M  V30 4406 C 420.71 2.12488 -0.96804 0
M  V30 4407 C 421.691 1.69799 0.101185 0
M  V30 4408 O 422.876 1.94121 -0.0552993 0
M  V30 4409 C 420.006 3.43479 -0.513776 0
M  V30 4410 C 418.96 3.99884 -1.52566 0
M  V30 4411 C 418.286 5.26582 -0.928214 0
M  V30 4412 C 419.586 4.33861 -2.90795 0
M  V30 4413 H 421.28 2.32149 -1.89069 0
M  V30 4414 H 418.826 1.11564 -0.910468 0
M  V30 4415 H 420.779 4.20036 -0.338774 0
M  V30 4416 H 419.503 3.23561 0.444493 0
M  V30 4417 H 418.162 3.25429 -1.68794 0
M  V30 4418 H 417.81 5.02986 0.0378289 0
M  V30 4419 H 417.51 5.65284 -1.60397 0
M  V30 4420 H 419.034 6.05799 -0.764167 0
M  V30 4421 H 420.448 5.01327 -2.78109 0
M  V30 4422 H 418.845 4.83664 -3.55231 0
M  V30 4423 H 419.915 3.42848 -3.42904 0
M  V30 4424 N 421.258 1.00505 1.21394 0
M  V30 4425 C 422.506 0.686415 1.90086 0
M  V30 4426 C 422.827 -0.785264 1.7849 0
M  V30 4427 O 422.097 -1.56387 1.17983 0
M  V30 4428 H 420.677 0.2509 0.703604 0
M  V30 4429 H 423.339 1.27417 1.47482 0
M  V30 4430 H 422.435 0.959621 2.96981 0
M  V30 4431 N 422.737 -1.36956 0.779787 0
M  V30 4432 C 423.983 -1.99787 0.348281 0
M  V30 4433 C 424.316 -1.61756 -1.07465 0
M  V30 4434 O 423.591 -0.867639 -1.74075 0
M  V30 4435 C 423.874 -3.56597 0.50104 0
M  V30 4436 C 423.727 -4.04513 1.96697 0
M  V30 4437 C 425.046 -4.40008 -0.0898097 0
M  V30 4438 H 422.165 -0.725796 0.128022 0
M  V30 4439 H 424.807 -1.62514 0.984331 0
M  V30 4440 H 422.957 -3.88479 -0.0404347 0
M  V30 4441 H 424.629 -3.83161 2.56876 0
M  V30 4442 H 422.872 -3.56408 2.47297 0
M  V30 4443 H 423.543 -5.1352 2.02486 0
M  V30 4444 H 426.019 -4.14431 0.372293 0
M  V30 4445 H 424.895 -5.4888 0.0471605 0
M  V30 4446 H 425.156 -4.26035 -1.18096 0
M  V30 4447 N 424.215 -0.530993 -1.48385 0
M  V30 4448 C 425.44 0.000729535 -2.074 0
M  V30 4449 C 425.865 1.27298 -1.3848 0
M  V30 4450 O 425.223 1.75599 -0.451081 0
M  V30 4451 C 425.271 0.206697 -3.60007 0
M  V30 4452 O 424.375 1.27514 -3.92191 0
M  V30 4453 H 423.716 -0.039583 -0.662819 0
M  V30 4454 H 426.246 -0.739194 -1.9078 0
M  V30 4455 H 426.256 0.42904 -4.05738 0
M  V30 4456 H 424.931 -0.722675 -4.09573 0
M  V30 4457 H 423.508 1.03537 -3.58238 0
M  V30 4458 N 425.693 1.55336 -0.266172 0
M  V30 4459 C 426.641 2.23587 0.641228 0
M  V30 4460 C 427.635 1.22986 1.16494 0
M  V30 4461 O 428.841 1.40943 1.1196 0
M  V30 4462 H 425.216 0.717452 0.225315 0
M  V30 4463 H 427.187 2.9837 0.0426561 0
M  V30 4464 C 425.936 2.96369 1.81826 0
M  V30 4465 H 425.259 3.73563 1.42445 0
M  V30 4466 H 426.699 3.47459 2.42998 0
M  V30 4467 C 425.158 2.0133 2.70125 0
M  V30 4468 O 425.688 1.55875 3.70224 0
M  V30 4469 N 423.894 1.6802 2.37102 0
M  V30 4470 H 423.441 2.05181 1.55751 0
M  V30 4471 H 423.399 1.047 2.96454 0
M  V30 4472 N 427.171 -0.0066808 1.57599 0
M  V30 4473 C 428.42 -0.692078 1.89455 0
M  V30 4474 C 428.733 -1.75306 0.867586 0
M  V30 4475 O 429.939 -2.49262 1.07614 0
M  V30 4476 C 428.395 -1.2821 3.36289 0
M  V30 4477 C 428.003 -0.256291 4.47266 0
M  V30 4478 C 429.747 -1.94608 3.77264 0
M  V30 4479 C 427.654 -0.855927 5.85173 0
M  V30 4480 H 426.584 -0.262252 0.706923 0
M  V30 4481 H 429.235 0.052769 1.83424 0
M  V30 4482 H 427.617 -2.0774 3.37135 0
M  V30 4483 H 428.791 0.513923 4.57925 0
M  V30 4484 H 427.106 0.306862 4.15268 0
M  V30 4485 H 429.703 -2.40364 4.77629 0
M  V30 4486 H 430.046 -2.77382 3.10427 0
M  V30 4487 H 430.579 -1.21822 3.78688 0
M  V30 4488 H 427.318 -0.0671161 6.55466 0
M  V30 4489 H 426.838 -1.59546 5.78191 0
M  V30 4490 H 428.517 -1.35658 6.32618 0
M  V30 4491 N 428.649 -1.55105 -0.279332 0
M  V30 4492 C 429.874 -1.7976 -1.03446 0
M  V30 4493 C 430.299 -0.565952 -1.79384 0
M  V30 4494 O 429.657 0.484259 -1.74713 0
M  V30 4495 C 429.705 -3.0179 -1.97371 0
M  V30 4496 O 428.809 -2.76432 -3.06038 0
M  V30 4497 H 428.15 -0.594334 -0.29608 0
M  V30 4498 H 430.68 -2.02235 -0.310165 0
M  V30 4499 H 430.69 -3.30351 -2.39441 0
M  V30 4500 H 429.365 -3.91085 -1.4151 0
M  V30 4501 H 427.942 -2.58949 -2.68328 0
M  V30 4502 N 430.127 0.543554 -1.4793 0
M  V30 4503 C 431.077 1.64527 -1.57844 0
M  V30 4504 C 432.061 1.54869 -0.436408 0
M  V30 4505 O 433.253 1.63119 -0.687101 0
M  V30 4506 C 430.382 3.03281 -1.6086 0
M  V30 4507 C 429.468 3.18093 -2.80495 0
M  V30 4508 N 429.859 3.02923 -4.05057 0
M  V30 4509 C 428.157 3.49121 -2.77543 0
M  V30 4510 C 428.858 3.20791 -4.85251 0
M  V30 4511 N 427.834 3.47749 -4.17818 0
M  V30 4512 H 431.636 1.51388 -2.5191 0
M  V30 4513 H 429.15 0.748671 -1.44113 0
M  V30 4514 H 431.147 3.82403 -1.66054 0
M  V30 4515 H 429.807 3.17521 -0.678996 0
M  V30 4516 H 430.818 2.79966 -4.35705 0
M  V30 4517 H 427.495 3.69804 -1.93781 0
M  V30 4518 H 428.885 3.13915 -5.9406 0
M  V30 4519 N 431.605 1.3629 0.791371 0
M  V30 4520 C 432.835 1.33368 1.57786 0
M  V30 4521 C 433.243 -0.0875188 1.88997 0
M  V30 4522 O 432.586 -1.05427 1.50435 0
M  V30 4523 C 432.648 2.08802 2.92646 0
M  V30 4524 C 432.312 3.57903 2.84174 0
M  V30 4525 C 433.309 4.52191 2.56553 0
M  V30 4526 C 430.994 4.00762 3.02812 0
M  V30 4527 C 432.988 5.87315 2.47669 0
M  V30 4528 C 430.675 5.35977 2.93551 0
M  V30 4529 C 431.673 6.29066 2.66017 0
M  V30 4530 O 431.361 7.61798 2.56746 0
M  V30 4531 H 431.093 0.459166 0.496128 0
M  V30 4532 H 433.647 1.79952 0.990269 0
M  V30 4533 H 431.877 1.56878 3.53449 0
M  V30 4534 H 433.566 1.98762 3.53904 0
M  V30 4535 H 434.332 4.20393 2.41858 0
M  V30 4536 H 430.211 3.2868 3.2325 0
M  V30 4537 H 433.755 6.59943 2.26099 0
M  V30 4538 H 429.652 5.67384 3.07808 0
M  V30 4539 H 430.42 7.71898 2.72242 0
M  V30 4540 N 433.083 -1.0153 1.20538 0
M  V30 4541 C 434.046 -2.0826 0.957098 0
M  V30 4542 C 435.046 -1.60657 -0.0678655 0
M  V30 4543 O 436.236 -1.73385 0.168332 0
M  V30 4544 C 433.368 -3.38033 0.441188 0
M  V30 4545 H 434.561 -2.31719 1.90384 0
M  V30 4546 H 432.114 -1.1835 1.02093 0
M  V30 4547 H 432.849 -3.20249 -0.510961 0
M  V30 4548 H 432.634 -3.73911 1.18038 0
M  V30 4549 H 434.124 -4.16613 0.287009 0
M  V30 4550 N 434.561 -1.01147 -1.20859 0
M  V30 4551 C 435.786 -0.716698 -1.94623 0
M  V30 4552 C 436.211 0.715415 -1.73964 0
M  V30 4553 O 435.569 1.49157 -1.03062 0
M  V30 4554 C 435.617 -1.0513 -3.44935 0
M  V30 4555 O 434.721 -0.160131 -4.12089 0
M  V30 4556 H 434.062 -0.266404 -0.608214 0
M  V30 4557 H 436.592 -1.35346 -1.53436 0
M  V30 4558 H 436.602 -1.00086 -3.95533 0
M  V30 4559 H 435.277 -2.09475 -3.59295 0
M  V30 4560 H 433.854 -0.267657 -3.71938 0
M  V30 4561 N 436.039 1.36541 -0.78704 0
M  V30 4562 C 437.316 1.9355 -0.282424 0
M  V30 4563 C 437.696 1.71919 1.22503 0
M  V30 4564 O 437.044 1.07677 2.01539 0
M  V30 4565 C 437.254 3.4246 -0.672462 0
M  V30 4566 C 438.602 4.19582 -0.650863 0
M  V30 4567 O 439.626 3.50889 -0.612789 0
M  V30 4568 O 438.485 5.42106 -0.691623 0
M  V30 4569 H 435.579 0.824091 -0.0693 0
M  V30 4570 H 438.125 1.45736 -0.869423 0
M  V30 4571 H 436.897 3.51851 -1.71221 0
M  V30 4572 H 436.52 3.97556 -0.0592211 0
M  V30 4573 N 437.518 0.538854 1.48102 0
M  V30 4574 C 438.764 0.00801365 2.02798 0
M  V30 4575 C 439.097 -1.3309 1.41424 0
M  V30 4576 O 438.372 -1.86169 0.563158 0
M  V30 4577 C 438.655 -0.104589 3.59948 0
M  V30 4578 C 438.508 1.26012 4.31788 0
M  V30 4579 C 439.827 -0.827055 4.32259 0
M  V30 4580 H 436.946 0.00438624 0.736987 0
M  V30 4581 H 439.588 0.6976 1.7673 0
M  V30 4582 H 437.738 -0.691893 3.82289 0
M  V30 4583 H 439.41 1.88922 4.2084 0
M  V30 4584 H 437.653 1.83968 3.92859 0
M  V30 4585 H 438.324 1.13424 5.40221 0
M  V30 4586 H 440.8 -0.328578 4.14801 0
M  V30 4587 H 439.676 -0.87476 5.41885 0
M  V30 4588 H 439.937 -1.87927 4.0017 0
M  V30 4589 N 438.996 -1.55193 0.274407 0
M  V30 4590 C 440.221 -2.04446 -0.348824 0
M  V30 4591 C 440.646 -1.15149 -1.48735 0
M  V30 4592 O 440.004 -0.149952 -1.80679 0
M  V30 4593 C 440.052 -3.51431 -0.808009 0
M  V30 4594 O 439.156 -3.65225 -1.91531 0
M  V30 4595 H 438.497 -0.66006 -0.0722276 0
M  V30 4596 H 441.027 -2.00481 0.408498 0
M  V30 4597 H 441.037 -3.92781 -1.10395 0
M  V30 4598 H 439.712 -4.15892 0.0249865 0
M  V30 4599 H 438.289 -3.35778 -1.62196 0
M  V30 4600 N 440.474 -0.00167713 -1.576 0
M  V30 4601 C 441.437 0.974046 -2.07473 0
M  V30 4602 C 442.437 1.27143 -0.984444 0
M  V30 4603 O 443.627 1.21633 -1.24703 0
M  V30 4604 C 440.759 2.29849 -2.51759 0
M  V30 4605 H 441.952 0.54262 -2.9495 0
M  V30 4606 H 439.505 0.245829 -1.54355 0
M  V30 4607 H 440.24 2.77677 -1.67529 0
M  V30 4608 H 440.025 2.09584 -3.31386 0
M  V30 4609 H 441.515 2.9984 -2.90664 0
M  V30 4610 N 441.952 1.55251 0.271103 0
M  V30 4611 C 443.229 1.66664 1.02384 0
M  V30 4612 C 443.609 0.534363 2.04225 0
M  V30 4613 O 442.957 -0.465337 2.23712 0
M  V30 4614 C 443.167 3.05961 1.67895 0
M  V30 4615 C 444.515 3.63772 2.18986 0
M  V30 4616 O 445.539 3.08606 1.77878 0
M  V30 4617 O 444.398 4.60429 2.94393 0
M  V30 4618 H 441.492 0.676957 0.475035 0
M  V30 4619 H 444.038 1.67589 0.26681 0
M  V30 4620 H 442.81 3.79815 0.941071 0
M  V30 4621 H 442.433 3.08943 2.5028 0
M  V30 4622 N 443.43 -0.535701 1.48216 0
M  V30 4623 C 444.377 -1.64083 1.62312 0
M  V30 4624 C 445.347 -1.59448 0.465365 0
M  V30 4625 O 446.532 -1.77959 0.688135 0
M  V30 4626 C 443.672 -3.0236 1.66349 0
M  V30 4627 C 442.785 -3.17273 2.93193 0
M  V30 4628 C 441.92 -4.46075 2.88427 0
M  V30 4629 C 440.959 -4.54496 4.1 0
M  V30 4630 N 440.096 -5.7468 4.03345 0
M  V30 4631 H 444.936 -1.51374 2.5669 0
M  V30 4632 H 442.473 -0.737059 1.27302 0
M  V30 4633 H 444.431 -3.82461 1.66672 0
M  V30 4634 H 443.061 -3.13854 0.754672 0
M  V30 4635 H 442.113 -2.30462 3.02641 0
M  V30 4636 H 443.425 -3.19357 3.83162 0
M  V30 4637 H 442.579 -5.3446 2.87119 0
M  V30 4638 H 441.318 -4.46504 1.96177 0
M  V30 4639 H 440.323 -3.64519 4.11589 0
M  V30 4640 H 441.548 -4.5581 5.03402 0
M  V30 4641 H 439.494 -5.76017 3.13912 0
M  V30 4642 H 439.411 -5.78234 4.87013 0
M  V30 4643 H 440.679 -6.65367 4.06087 0
M  V30 4644 N 444.908 -1.36708 -0.784132 0
M  V30 4645 C 445.838 -1.34153 -1.91116 0
M  V30 4646 C 446.819 -0.212121 -1.68772 0
M  V30 4647 O 448.004 -0.410581 -1.8981 0
M  V30 4648 C 445.134 -1.13535 -3.28218 0
M  V30 4649 C 444.088 -2.23356 -3.65097 0
M  V30 4650 C 443.414 -1.87875 -5.00607 0
M  V30 4651 C 444.714 -3.65473 -3.73131 0
M  V30 4652 H 446.408 -2.28459 -1.93512 0
M  V30 4653 H 443.954 -1.09973 -0.929618 0
M  V30 4654 H 445.907 -1.10381 -4.06687 0
M  V30 4655 H 444.631 -0.156804 -3.26223 0
M  V30 4656 H 443.29 -2.25645 -2.88929 0
M  V30 4657 H 442.938 -0.885814 -4.95139 0
M  V30 4658 H 442.638 -2.61406 -5.26252 0
M  V30 4659 H 444.162 -1.86286 -5.81489 0
M  V30 4660 H 445.576 -3.65382 -4.41779 0
M  V30 4661 H 443.973 -4.37953 -4.10265 0
M  V30 4662 H 445.043 -3.99995 -2.74102 0
M  V30 4663 N 446.386 1.0089 -1.21074 0
M  V30 4664 C 447.632 1.74866 -1.02712 0
M  V30 4665 C 447.965 1.89178 0.438787 0
M  V30 4666 O 447.24 1.42325 1.32567 0
M  V30 4667 C 447.523 3.16347 -1.72036 0
M  V30 4668 C 447.376 3.09782 -3.26121 0
M  V30 4669 C 448.695 4.15187 -1.45973 0
M  V30 4670 H 445.814 0.634736 -0.374539 0
M  V30 4671 H 448.456 1.17646 -1.49196 0
M  V30 4672 H 446.606 3.65201 -1.32517 0
M  V30 4673 H 448.278 2.68673 -3.74983 0
M  V30 4674 H 446.521 2.46982 -3.56626 0
M  V30 4675 H 447.192 4.09829 -3.6979 0
M  V30 4676 H 449.668 3.75022 -1.80272 0
M  V30 4677 H 448.544 5.12331 -1.96999 0
M  V30 4678 H 448.805 4.40386 -0.388924 0
M  V30 4679 N 447.864 1.01787 1.20321 0
M  V30 4680 C 449.092 0.727194 1.937 0
M  V30 4681 C 449.507 -0.712305 1.74848 0
M  V30 4682 O 448.864 -1.48327 1.06327 0
M  V30 4683 C 448.915 1.05497 3.45764 0
M  V30 4684 O 448.636 2.43794 3.64 0
M  V30 4685 C 450.137 0.785534 4.36285 0
M  V30 4686 H 447.357 0.266939 0.615617 0
M  V30 4687 H 449.901 1.35939 1.52777 0
M  V30 4688 H 448.056 0.468158 3.84561 0
M  V30 4689 H 448.47 2.55656 4.57974 0
M  V30 4690 H 449.944 1.06495 5.4163 0
M  V30 4691 H 450.421 -0.280273 4.38305 0
M  V30 4692 H 451.027 1.35456 4.03152 0
M  V30 4693 N 449.342 -1.36122 0.79427 0
M  V30 4694 C 450.588 -1.99846 0.378542 0
M  V30 4695 C 450.943 -1.61898 -1.03955 0
M  V30 4696 O 450.236 -0.866013 -1.70912 0
M  V30 4697 C 450.43 -3.5409 0.48527 0
M  V30 4698 C 450.259 -4.0702 1.91219 0
M  V30 4699 C 449.029 -4.36944 2.53787 0
M  V30 4700 C 451.227 -4.26435 2.87502 0
M  V30 4701 N 449.209 -4.75727 3.88017 0
M  V30 4702 C 450.58 -4.68077 4.06576 0
M  V30 4703 C 452.635 -4.08616 2.84495 0
M  V30 4704 C 451.338 -4.93765 5.23057 0
M  V30 4705 C 453.364 -4.35453 4.00169 0
M  V30 4706 C 452.726 -4.77355 5.17988 0
M  V30 4707 H 448.825 -0.759549 0.186034 0
M  V30 4708 H 451.409 -1.65043 1.0329 0
M  V30 4709 H 449.58 -3.88151 -0.139023 0
M  V30 4710 H 451.312 -4.04675 0.0453192 0
M  V30 4711 H 448.067 -4.26822 2.05231 0
M  V30 4712 H 448.491 -4.99396 4.57092 0
M  V30 4713 H 453.133 -3.75373 1.94564 0
M  V30 4714 H 450.851 -5.25887 6.1357 0
M  V30 4715 H 454.437 -4.2323 3.99208 0
M  V30 4716 H 453.317 -4.97718 6.06008 0
M  V30 4717 N 450.82 -0.546701 -1.47814 0
M  V30 4718 C 452.066 -0.0187684 -2.02791 0
M  V30 4719 C 452.399 1.32338 -1.42128 0
M  V30 4720 O 451.674 1.85867 -0.573023 0
M  V30 4721 C 451.957 0.0854985 -3.59998 0
M  V30 4722 C 451.81 -1.283 -4.31114 0
M  V30 4723 C 453.129 0.80412 -4.32691 0
M  V30 4724 H 450.248 -0.0082946 -0.736953 0
M  V30 4725 H 452.89 -0.706962 -1.76358 0
M  V30 4726 H 451.04 0.671609 -3.82651 0
M  V30 4727 H 452.712 -1.91151 -4.19832 0
M  V30 4728 H 450.955 -1.86049 -3.91878 0
M  V30 4729 H 451.626 -1.16287 -5.39612 0
M  V30 4730 H 454.102 0.306576 -4.14969 0
M  V30 4731 H 452.978 0.846011 -5.42341 0
M  V30 4732 H 453.239 1.85802 -4.01161 0
M  V30 4733 N 452.299 1.55045 -0.282633 0
M  V30 4734 C 453.209 2.26491 0.61147 0
M  V30 4735 C 454.225 1.29348 1.16384 0
M  V30 4736 O 455.401 1.62298 1.19253 0
M  V30 4737 C 452.466 2.97779 1.77563 0
M  V30 4738 C 451.527 4.10418 1.25919 0
M  V30 4739 C 450.76 4.78297 2.36786 0
M  V30 4740 O 450.983 4.45426 3.56303 0
M  V30 4741 O 449.917 5.66089 2.04517 0
M  V30 4742 H 453.743 3.03683 0.0324615 0
M  V30 4743 H 451.328 1.49317 -0.0497576 0
M  V30 4744 H 453.21 3.42554 2.45427 0
M  V30 4745 H 451.885 2.23498 2.34159 0
M  V30 4746 H 450.792 3.70082 0.546797 0
M  V30 4747 H 452.125 4.86622 0.738887 0
M  V30 4748 N 453.777 0.010035 1.57597 0
M  V30 4749 C 455.002 -0.687021 1.95691 0
M  V30 4750 C 455.427 -1.65952 0.885519 0
M  V30 4751 O 454.785 -1.80633 -0.15543 0
M  V30 4752 C 454.833 -1.3864 3.32884 0
M  V30 4753 O 453.937 -2.50115 3.27897 0
M  V30 4754 H 453.278 -0.181989 0.638573 0
M  V30 4755 H 455.808 0.0662122 2.04493 0
M  V30 4756 H 455.818 -1.74754 3.6868 0
M  V30 4757 H 454.493 -0.673411 4.10412 0
M  V30 4758 H 453.07 -2.16253 3.03791 0
M  V30 4759 N 455.255 -1.55392 -0.262866 0
M  V30 4760 C 456.205 -1.85355 -1.32768 0
M  V30 4761 C 457.189 -0.713188 -1.44231 0
M  V30 4762 O 458.381 -0.974765 -1.47741 0
M  V30 4763 C 455.51 -2.13781 -2.68612 0
M  V30 4764 C 454.596 -3.34104 -2.61219 0
M  V30 4765 N 454.987 -4.53766 -2.2345 0
M  V30 4766 C 453.285 -3.36895 -2.92263 0
M  V30 4767 C 453.986 -5.35877 -2.26298 0
M  V30 4768 N 452.962 -4.74536 -2.65172 0
M  V30 4769 H 456.764 -2.75413 -1.02591 0
M  V30 4770 H 454.278 -1.55405 -0.471503 0
M  V30 4771 H 456.275 -2.33407 -3.45437 0
M  V30 4772 H 454.935 -1.25013 -2.99669 0
M  V30 4773 H 455.946 -4.79682 -1.95258 0
M  V30 4774 H 452.623 -2.58351 -3.27965 0
M  V30 4775 H 454.013 -6.41577 -1.99572 0
M  V30 4776 N 456.733 0.527833 -1.48498 0
M  V30 4777 C 458.01 1.28905 -1.47115 0
M  V30 4778 C 458.39 2.10297 -0.184007 0
M  V30 4779 O 457.738 2.12728 0.834218 0
M  V30 4780 C 457.948 2.16866 -2.73441 0
M  V30 4781 C 459.296 2.76936 -3.21857 0
M  V30 4782 O 460.32 2.27152 -2.74373 0
M  V30 4783 O 459.179 3.67496 -4.04486 0
M  V30 4784 H 456.273 0.581918 -0.587623 0
M  V30 4785 H 458.819 0.544311 -1.60734 0
M  V30 4786 H 457.591 1.56521 -3.58632 0
M  V30 4787 H 457.214 2.98583 -2.62553 0
M  V30 4788 N 458.211 1.37122 0.776871 0
M  V30 4789 C 459.439 1.3523 1.5659 0
M  V30 4790 C 459.854 -0.0635518 1.88693 0
M  V30 4791 O 459.211 -1.02394 1.51069 0
M  V30 4792 C 459.262 2.18583 2.8793 0
M  V30 4793 O 458.983 3.5465 2.57206 0
M  V30 4794 C 460.484 2.24612 3.82183 0
M  V30 4795 H 457.704 0.4634 0.485285 0
M  V30 4796 H 460.248 1.80392 0.963266 0
M  V30 4797 H 458.403 1.76943 3.4463 0
M  V30 4798 H 458.817 3.98286 3.41275 0
M  V30 4799 H 460.291 2.87267 4.71361 0
M  V30 4800 H 460.768 1.25309 4.20944 0
M  V30 4801 H 461.374 2.66543 3.31414 0
M  V30 4802 N 459.689 -1.00246 1.21608 0
M  V30 4803 C 460.919 -1.77373 1.05935 0
M  V30 4804 C 461.327 -1.85059 -0.393686 0
M  V30 4805 O 460.67 -1.31289 -1.28487 0
M  V30 4806 C 460.732 -3.22705 1.58435 0
M  V30 4807 C 460.396 -3.38591 3.06929 0
M  V30 4808 C 461.393 -3.2667 4.04454 0
M  V30 4809 C 459.078 -3.6395 3.46187 0
M  V30 4810 C 461.072 -3.39877 5.39224 0
M  V30 4811 C 458.759 -3.768 4.81108 0
M  V30 4812 C 459.757 -3.6477 5.77436 0
M  V30 4813 O 459.445 -3.77206 7.09909 0
M  V30 4814 H 459.177 -0.56419 0.372378 0
M  V30 4815 H 461.731 -1.26971 1.61454 0
M  V30 4816 H 459.961 -3.74255 0.973147 0
M  V30 4817 H 461.65 -3.81515 1.38568 0
M  V30 4818 H 462.416 -3.06999 3.75468 0
M  V30 4819 H 458.295 -3.72395 2.71741 0
M  V30 4820 H 461.839 -3.30404 6.14393 0
M  V30 4821 H 457.736 -3.95975 5.09779 0
M  V30 4822 H 458.504 -3.94138 7.17355 0
M  V30 4823 N 461.167 -1.02423 -1.1978 0
M  V30 4824 C 462.13 -0.605703 -2.21052 0
M  V30 4825 C 463.13 0.328209 -1.57415 0
M  V30 4826 O 464.32 0.115853 -1.73814 0
M  V30 4827 C 461.452 0.114366 -3.40708 0
M  V30 4828 H 462.645 -1.5017 -2.59594 0
M  V30 4829 H 460.198 -0.814888 -1.33376 0
M  V30 4830 H 460.933 1.02492 -3.07678 0
M  V30 4831 H 460.718 -0.556641 -3.88129 0
M  V30 4832 H 462.208 0.394272 -4.15735 0
M  V30 4833 N 462.645 1.35699 -0.801477 0
M  V30 4834 C 463.593 2.3177 -0.196317 0
M  V30 4835 C 464.587 1.56388 0.651081 0
M  V30 4836 O 465.793 1.71557 0.544815 0
M  V30 4837 H 462.168 0.750669 -0.0447189 0
M  V30 4838 H 464.139 2.8036 -1.02181 0
M  V30 4839 C 462.888 3.41671 0.644702 0
M  V30 4840 H 462.211 3.998 0.0019921 0
M  V30 4841 H 463.651 4.11184 1.0346 0
M  V30 4842 C 462.11 2.84271 1.80808 0
M  V30 4843 O 462.64 2.77408 2.9053 0
M  V30 4844 N 460.846 2.41391 1.61799 0
M  V30 4845 H 460.393 2.47173 0.725493 0
M  V30 4846 H 460.351 2.03334 2.39797 0
M  V30 4847 N 464.123 0.554532 1.47522 0
M  V30 4848 C 465.4 -0.0360704 1.95567 0
M  V30 4849 C 465.78 -1.48828 1.49711 0
M  V30 4850 O 465.128 -2.16366 0.734717 0
M  V30 4851 C 465.338 0.106631 3.48837 0
M  V30 4852 C 466.686 -0.0400899 4.24581 0
M  V30 4853 O 467.71 0.0340453 3.56184 0
M  V30 4854 O 466.569 -0.199111 5.46137 0
M  V30 4855 H 463.663 -0.0656294 0.824392 0
M  V30 4856 H 466.209 0.620867 1.57935 0
M  V30 4857 H 464.981 1.11727 3.7501 0
M  V30 4858 H 464.604 -0.58804 3.93227 0
M  V30 4859 N 465.601 -1.54893 0.290851 0
M  V30 4860 C 466.878 -1.91991 -0.373989 0
M  V30 4861 C 467.258 -1.21694 -1.72493 0
M  V30 4862 O 466.606 -0.34917 -2.25816 0
M  V30 4863 C 466.816 -3.45419 -0.498703 0
M  V30 4864 C 468.164 -4.1748 -0.774298 0
M  V30 4865 O 469.188 -3.51398 -0.582908 0
M  V30 4866 O 468.047 -5.3445 -1.14129 0
M  V30 4867 H 465.141 -0.800593 -0.207315 0
M  V30 4868 H 467.687 -1.66297 0.338164 0
M  V30 4869 H 466.459 -3.88688 0.451392 0
M  V30 4870 H 466.082 -3.77117 -1.25972 0
M  V30 4871 N 467.08 -0.0183926 -1.57589 0
M  V30 4872 C 467.99 0.982943 -2.13015 0
M  V30 4873 C 469.006 1.36443 -1.07979 0
M  V30 4874 O 470.182 1.44802 -1.3998 0
M  V30 4875 C 467.247 2.25024 -2.63752 0
M  V30 4876 C 466.308 1.93018 -3.83461 0
M  V30 4877 C 465.541 3.13706 -4.31769 0
M  V30 4878 O 465.764 4.2601 -3.79305 0
M  V30 4879 O 464.698 2.96629 -5.23732 0
M  V30 4880 H 468.524 0.541709 -2.9883 0
M  V30 4881 H 466.109 0.201565 -1.48034 0
M  V30 4882 H 467.991 2.99441 -2.96502 0
M  V30 4883 H 466.666 2.68349 -1.81026 0
M  V30 4884 H 465.573 1.16019 -3.55655 0
M  V30 4885 H 466.906 1.54516 -4.67317 0
M  V30 4886 N 468.558 1.5553 0.254621 0
M  V30 4887 C 469.468 1.92789 1.33677 0
M  V30 4888 C 470.484 0.827356 1.53071 0
M  V30 4889 O 471.66 1.12807 1.66843 0
M  V30 4890 C 468.725 2.20827 2.67275 0
M  V30 4891 C 467.786 3.4427 2.5647 0
M  V30 4892 C 467.019 3.70961 3.83697 0
M  V30 4893 O 467.242 2.99852 4.85227 0
M  V30 4894 O 466.176 4.64491 3.82794 0
M  V30 4895 H 470.002 2.84945 1.05071 0
M  V30 4896 H 467.587 1.42312 0.454723 0
M  V30 4897 H 469.469 2.40204 3.46237 0
M  V30 4898 H 468.144 1.31851 2.9563 0
M  V30 4899 H 467.051 3.30209 1.75821 0
M  V30 4900 H 468.384 4.33524 2.33062 0
M  V30 4901 N 470.036 -0.519951 1.48776 0
M  V30 4902 C 471.261 -1.30447 1.6124 0
M  V30 4903 C 471.686 -1.86055 0.276591 0
M  V30 4904 O 471.044 -1.64915 -0.753183 0
M  V30 4905 C 471.092 -2.42406 2.66967 0
M  V30 4906 O 470.196 -3.45728 2.24824 0
M  V30 4907 H 469.537 -0.385924 0.540332 0
M  V30 4908 H 472.067 -0.624572 1.94834 0
M  V30 4909 H 472.077 -2.88447 2.88552 0
M  V30 4910 H 470.752 -2.01294 3.63941 0
M  V30 4911 H 469.329 -3.05737 2.13494 0
M  V30 4912 N 471.514 -1.37532 -0.769588 0
M  V30 4913 C 472.742 -1.36059 -1.55871 0
M  V30 4914 C 473.157 0.053544 -1.88724 0
M  V30 4915 O 472.514 1.01591 -1.5161 0
M  V30 4916 C 472.565 -2.20107 -2.86767 0
M  V30 4917 O 472.286 -3.56009 -2.55321 0
M  V30 4918 C 473.787 -2.26636 -3.80987 0
M  V30 4919 H 471.007 -0.465967 -0.482821 0
M  V30 4920 H 473.551 -1.80901 -0.953686 0
M  V30 4921 H 471.706 -1.78768 -3.43687 0
M  V30 4922 H 472.12 -4.0009 -3.39158 0
M  V30 4923 H 473.594 -2.89763 -4.69831 0
M  V30 4924 H 474.071 -1.2754 -4.20274 0
M  V30 4925 H 474.677 -2.68296 -3.29996 0
M  V30 4926 N 472.992 0.995999 -1.22138 0
M  V30 4927 C 474.238 1.7386 -1.05567 0
M  V30 4928 C 474.593 1.8808 0.405418 0
M  V30 4929 O 473.886 1.41062 1.29661 0
M  V30 4930 C 474.08 3.14553 -1.6968 0
M  V30 4931 C 473.909 3.14053 -3.21871 0
M  V30 4932 C 472.679 3.20121 -3.90961 0
M  V30 4933 C 474.877 2.98451 -4.18845 0
M  V30 4934 N 472.859 3.09342 -5.30265 0
M  V30 4935 C 474.23 2.95667 -5.4496 0
M  V30 4936 C 476.285 2.8282 -4.09777 0
M  V30 4937 C 474.988 2.78852 -6.63049 0
M  V30 4938 C 477.014 2.67364 -5.27513 0
M  V30 4939 C 476.376 2.65264 -6.52544 0
M  V30 4940 H 472.475 0.645989 -0.440706 0
M  V30 4941 H 475.059 1.1831 -1.54631 0
M  V30 4942 H 473.23 3.68353 -1.2317 0
M  V30 4943 H 474.962 3.77358 -1.4623 0
M  V30 4944 H 471.717 3.27679 -3.4194 0
M  V30 4945 H 472.141 3.0727 -6.03253 0
M  V30 4946 H 476.783 2.83243 -3.139 0
M  V30 4947 H 474.501 2.77175 -7.59078 0
M  V30 4948 H 478.087 2.56256 -5.22326 0
M  V30 4949 H 476.967 2.5345 -7.42114 0
M  V30 4950 N 474.47 1.03057 1.19235 0
M  V30 4951 C 475.403 0.557384 2.21288 0
M  V30 4952 C 476.381 -0.402675 1.57535 0
M  V30 4953 O 477.565 -0.319376 1.85775 0
M  V30 4954 C 474.692 -0.187041 3.38183 0
M  V30 4955 C 473.738 0.72471 4.20298 0
M  V30 4956 S 474.571 2.20187 4.88137 0
M  V30 4957 C 475.727 1.46801 6.08441 0
M  V30 4958 H 475.96 1.42207 2.61083 0
M  V30 4959 H 473.493 0.840651 1.29508 0
M  V30 4960 H 475.451 -0.610405 4.05936 0
M  V30 4961 H 474.112 -1.02748 2.96819 0
M  V30 4962 H 473.305 0.149911 5.03777 0
M  V30 4963 H 472.907 1.08647 3.57871 0
M  V30 4964 H 475.199 0.755522 6.73274 0
M  V30 4965 H 476.142 2.27946 6.70407 0
M  V30 4966 H 476.55 0.964762 5.56195 0
M  V30 4967 N 475.948 -1.35272 0.808662 0
M  V30 4968 C 477.173 -2.03477 0.401475 0
M  V30 4969 C 477.598 -1.60537 -0.980279 0
M  V30 4970 O 476.956 -0.78304 -1.63518 0
M  V30 4971 C 477.004 -3.57181 0.495354 0
M  V30 4972 O 476.108 -4.09474 -0.490397 0
M  V30 4973 H 475.449 -0.642561 0.167366 0
M  V30 4974 H 477.979 -1.72824 1.09512 0
M  V30 4975 H 477.989 -4.06356 0.365912 0
M  V30 4976 H 476.664 -3.87784 1.5032 0
M  V30 4977 H 475.241 -3.71516 -0.321023 0
M  V30 4978 N 477.426 -0.562348 -1.47226 0
M  V30 4979 C 478.703 0.0256985 -1.95583 0
M  V30 4980 C 479.083 1.48032 -1.50498 0
M  V30 4981 O 478.431 2.15973 -0.746181 0
M  V30 4982 C 478.641 -0.125129 -3.48776 0
M  V30 4983 C 479.989 0.0175728 -4.24596 0
M  V30 4984 O 481.013 -0.0529341 -3.56161 0
M  V30 4985 O 479.872 0.170145 -5.46235 0
M  V30 4986 H 476.966 0.0612565 -0.824728 0
M  V30 4987 H 479.512 -0.629233 -1.57603 0
M  V30 4988 H 478.284 -1.13715 -3.74412 0
M  V30 4989 H 477.907 0.567178 -3.93534 0
M  V30 4990 N 478.904 1.54736 -0.299062 0
M  V30 4991 C 480.181 1.92187 0.363802 0
M  V30 4992 C 480.561 1.22607 1.71845 0
M  V30 4993 O 479.909 0.361141 2.25628 0
M  V30 4994 C 480.119 3.45678 0.480377 0
M  V30 4995 C 481.467 4.17885 0.752147 0
M  V30 4996 O 482.491 3.51702 0.564264 0
M  V30 4997 O 481.35 5.35048 1.11294 0
M  V30 4998 H 478.444 0.801681 0.203066 0
M  V30 4999 H 480.99 1.66115 -0.346978 0
M  V30 5000 H 479.762 3.88443 -0.471999 0
M  V30 5001 H 479.385 3.77779 1.2397 0
M  V30 5002 N 480.382 0.0267497 1.57577 0
M  V30 5003 C 481.659 -0.690926 1.82991 0
M  V30 5004 C 482.039 -1.90471 0.910164 0
M  V30 5005 O 481.387 -2.28474 -0.0347985 0
M  V30 5006 C 481.597 -1.07139 3.32148 0
M  V30 5007 C 482.945 -1.46402 3.98562 0
M  V30 5008 O 483.969 -1.16443 3.36629 0
M  V30 5009 O 482.828 -2.02214 5.07712 0
M  V30 5010 H 479.922 -0.338747 0.75444 0
M  V30 5011 H 482.468 0.0542506 1.69613 0
M  V30 5012 H 481.24 -0.207394 3.9075 0
M  V30 5013 H 480.863 -1.87481 3.50623 0
M  V30 5014 N 481.861 -1.55662 -0.24637 0
M  V30 5015 C 483.11 -1.7672 -0.972254 0
M  V30 5016 C 483.423 -0.59078 -1.86465 0
M  V30 5017 O 484.629 -0.684391 -2.62732 0
M  V30 5018 C 483.085 -3.12869 -1.7788 0
M  V30 5019 C 482.693 -4.38161 -0.933768 0
M  V30 5020 C 484.437 -3.43265 -2.49738 0
M  V30 5021 C 482.344 -5.6534 -1.73623 0
M  V30 5022 H 481.274 -0.658795 -0.366749 0
M  V30 5023 H 483.925 -1.82092 -0.226902 0
M  V30 5024 H 482.307 -3.01606 -2.56612 0
M  V30 5025 H 483.481 -4.60413 -0.188736 0
M  V30 5026 H 481.796 -4.15102 -0.328488 0
M  V30 5027 H 484.393 -4.35501 -3.10231 0
M  V30 5028 H 484.736 -2.64614 -3.2138 0
M  V30 5029 H 485.269 -3.55746 -1.78016 0
M  V30 5030 H 482.008 -6.46814 -1.06354 0
M  V30 5031 H 481.528 -5.47188 -2.45653 0
M  V30 5032 H 483.207 -6.04616 -2.30323 0
M  V30 5033 N 483.339 0.512053 -1.4905 0
M  V30 5034 C 484.755 0.84224 -1.35567 0
M  V30 5035 C 484.955 1.97878 -0.380319 0
M  V30 5036 O 484.011 2.51769 0.19201 0
M  V30 5037 C 485.324 1.19286 -2.76028 0
M  V30 5038 C 486.872 1.30171 -2.84648 0
M  V30 5039 C 487.347 1.68568 -4.25851 0
M  V30 5040 N 488.838 1.75638 -4.28609 0
M  V30 5041 C 489.573 2.06769 -5.34821 0
M  V30 5042 N 489.069 2.36201 -6.51292 0
M  V30 5043 N 490.862 2.07927 -5.22229 0
M  V30 5044 H 483.013 -0.237574 -2.11067 0
M  V30 5045 H 485.276 -0.0436747 -0.946993 0
M  V30 5046 H 484.982 0.431199 -3.49047 0
M  V30 5047 H 484.856 2.13889 -3.10695 0
M  V30 5048 H 487.243 2.05411 -2.11873 0
M  V30 5049 H 487.324 0.336457 -2.53578 0
M  V30 5050 H 486.968 0.938824 -4.99148 0
M  V30 5051 H 486.898 2.66174 -4.54377 0
M  V30 5052 H 489.389 1.55097 -3.44606 0
M  V30 5053 H 489.702 2.59112 -7.28066 0
M  V30 5054 H 488.047 2.33681 -6.54536 0
M  V30 5055 H 491.238 1.84403 -4.30248 0
M  V30 5056 H 491.411 2.31856 -6.05101 0
M  V30 5057 N 484.817 1.37938 0.762283 0
M  V30 5058 C 485.747 1.37176 1.88958 0
M  V30 5059 C 486.728 0.238945 1.68413 0
M  V30 5060 O 487.913 0.440726 1.89133 0
M  V30 5061 C 485.043 1.18742 3.2637 0
M  V30 5062 C 483.997 2.29136 3.61498 0
M  V30 5063 C 483.323 1.95816 4.97554 0
M  V30 5064 C 484.623 3.71363 3.6727 0
M  V30 5065 H 486.317 2.31509 1.89853 0
M  V30 5066 H 483.863 1.11438 0.912005 0
M  V30 5067 H 485.816 1.16837 4.04879 0
M  V30 5068 H 484.54 0.208683 3.25933 0
M  V30 5069 H 483.199 2.30213 2.85303 0
M  V30 5070 H 482.847 0.964475 4.93667 0
M  V30 5071 H 482.547 2.69745 5.22026 0
M  V30 5072 H 484.071 1.95513 5.78452 0
M  V30 5073 H 485.485 3.72364 4.35911 0
M  V30 5074 H 483.882 4.44425 4.03245 0
M  V30 5075 H 484.952 4.04305 2.67704 0
M  V30 5076 N 486.295 -0.989507 1.22664 0
M  V30 5077 C 487.543 -1.72612 1.05117 0
M  V30 5078 C 487.864 -1.90552 -0.414131 0
M  V30 5079 O 487.134 -1.4676 -1.29762 0
M  V30 5080 H 485.714 -0.639555 0.385977 0
M  V30 5081 H 488.376 -1.19158 1.54232 0
M  V30 5082 H 487.472 -2.71926 1.53175 0
M  V30 5083 N 487.773 -1.03688 -1.18687 0
M  V30 5084 C 489.019 -0.74888 -1.89112 0
M  V30 5085 C 489.374 0.715345 -1.78607 0
M  V30 5086 O 488.667 1.51498 -1.17299 0
M  V30 5087 C 488.861 -1.14477 -3.3857 0
M  V30 5088 C 488.69 -2.64594 -3.63621 0
M  V30 5089 C 487.46 -3.31685 -3.812 0
M  V30 5090 C 489.658 -3.62811 -3.64517 0
M  V30 5091 N 487.64 -4.70822 -3.93955 0
M  V30 5092 C 489.011 -4.87603 -3.8294 0
M  V30 5093 C 491.066 -3.56495 -3.47585 0
M  V30 5094 C 489.769 -6.0684 -3.86184 0
M  V30 5095 C 491.795 -4.75155 -3.52111 0
M  V30 5096 C 491.157 -5.98765 -3.71026 0
M  V30 5097 H 487.256 -0.32603 -0.710794 0
M  V30 5098 H 489.84 -1.3258 -1.42586 0
M  V30 5099 H 488.011 -0.595974 -3.838 0
M  V30 5100 H 489.743 -0.808187 -3.96548 0
M  V30 5101 H 486.498 -2.82091 -3.80423 0
M  V30 5102 H 486.922 -5.43122 -4.04163 0
M  V30 5103 H 491.564 -2.61907 -3.31911 0
M  V30 5104 H 489.282 -7.01788 -4.00648 0
M  V30 5105 H 492.868 -4.71905 -3.40289 0
M  V30 5106 H 491.748 -6.89047 -3.74412 0
M  V30 5107 N 489.251 1.34841 -0.815825 0
M  V30 5108 C 490.214 2.27959 -0.238185 0
M  V30 5109 C 491.214 1.49983 0.579816 0
M  V30 5110 O 492.404 1.69617 0.396953 0
M  V30 5111 C 489.536 3.34314 0.666876 0
M  V30 5112 H 490.729 2.80558 -1.05958 0
M  V30 5113 H 488.282 1.44852 -0.587156 0
M  V30 5114 H 489.017 2.86916 1.5116 0
M  V30 5115 H 488.802 3.92014 0.0819106 0
M  V30 5116 H 490.292 4.0379 1.06506 0
M  V30 5117 N 490.729 0.570148 1.46925 0
M  V30 5118 C 491.975 0.0510284 2.02736 0
M  V30 5119 C 492.308 -1.3006 1.44215 0
M  V30 5120 O 491.583 -1.84932 0.602521 0
M  V30 5121 C 491.866 -0.028215 3.60089 0
M  V30 5122 C 491.719 1.35142 4.29018 0
M  V30 5123 C 493.038 -0.735181 4.33916 0
M  V30 5124 H 490.157 0.0200178 0.736728 0
M  V30 5125 H 492.799 0.73493 1.75211 0
M  V30 5126 H 490.949 -0.610648 3.83671 0
M  V30 5127 H 492.621 1.97806 4.16738 0
M  V30 5128 H 490.864 1.9226 3.88868 0
M  V30 5129 H 491.535 1.24857 5.37694 0
M  V30 5130 H 494.011 -0.240519 4.15404 0
M  V30 5131 H 492.887 -0.759622 5.43618 0
M  V30 5132 H 493.148 -1.79397 4.04066 0
M  V30 5133 N 492.207 -1.54576 0.307264 0
M  V30 5134 C 493.456 -1.99442 -0.300976 0
M  V30 5135 C 493.769 -1.19928 -1.5452 0
M  V30 5136 O 494.975 -1.55092 -2.22842 0
M  V30 5137 C 493.431 -3.55084 -0.586809 0
M  V30 5138 C 493.039 -4.43413 0.639438 0
M  V30 5139 C 494.783 -4.0846 -1.1559 0
M  V30 5140 C 492.69 -5.90499 0.326411 0
M  V30 5141 H 491.62 -0.744986 -0.116238 0
M  V30 5142 H 494.271 -1.787 0.416947 0
M  V30 5143 H 492.653 -3.71749 -1.36449 0
M  V30 5144 H 493.827 -4.38522 1.41545 0
M  V30 5145 H 492.142 -4.00842 1.1276 0
M  V30 5146 H 494.739 -5.15926 -1.40445 0
M  V30 5147 H 495.082 -3.59443 -2.10015 0
M  V30 5148 H 495.615 -3.95362 -0.439778 0
M  V30 5149 H 492.354 -6.43676 1.23939 0
M  V30 5150 H 491.874 -5.98382 -0.412212 0
M  V30 5151 H 493.553 -6.46962 -0.0697393 0
M  V30 5152 N 493.685 -0.035106 -1.57561 0
M  V30 5153 C 494.648 0.929819 -2.09492 0
M  V30 5154 C 495.648 1.25026 -1.01119 0
M  V30 5155 O 496.838 1.18961 -1.27255 0
M  V30 5156 C 493.97 2.24457 -2.56577 0
M  V30 5157 H 495.163 0.479935 -2.96035 0
M  V30 5158 H 492.716 0.213033 -1.54841 0
M  V30 5159 H 493.451 2.74061 -1.73382 0
M  V30 5160 H 493.236 2.02508 -3.35757 0
M  V30 5161 H 494.726 2.93607 -2.96959 0
M  V30 5162 N 495.163 1.55791 0.238111 0
M  V30 5163 C 496.388 1.8244 0.986432 0
M  V30 5164 C 496.813 0.613314 1.7782 0
M  V30 5165 O 496.171 -0.437767 1.75935 0
M  V30 5166 C 496.219 3.06917 1.893 0
M  V30 5167 O 495.323 2.84449 2.98601 0
M  V30 5168 H 494.664 0.601975 0.280218 0
M  V30 5169 H 497.194 2.02987 0.256437 0
M  V30 5170 H 497.204 3.36583 2.30598 0
M  V30 5171 H 495.879 3.947 1.31091 0
M  V30 5172 H 494.456 2.65972 2.61368 0
M  V30 5173 N 496.642 -0.504142 1.49319 0
M  V30 5174 C 498.058 -0.835039 1.36012 0
M  V30 5175 C 498.258 -1.97674 0.390808 0
M  V30 5176 O 497.314 -2.51867 -0.178655 0
M  V30 5177 C 498.627 -1.17821 2.76656 0
M  V30 5178 C 500.175 -1.2866 2.85334 0
M  V30 5179 C 500.65 -1.66307 4.26739 0
M  V30 5180 N 502.141 -1.73362 4.29534 0
M  V30 5181 C 502.876 -2.0393 5.35911 0
M  V30 5182 N 502.372 -2.32744 6.52535 0
M  V30 5183 N 504.165 -2.05155 5.23324 0
M  V30 5184 H 496.316 0.248764 2.10938 0
M  V30 5185 H 498.579 0.0486962 0.946748 0
M  V30 5186 H 498.285 -0.412682 3.4927 0
M  V30 5187 H 498.159 -2.12239 3.11825 0
M  V30 5188 H 500.546 -2.04285 2.1296 0
M  V30 5189 H 500.627 -0.323004 2.53752 0
M  V30 5190 H 500.271 -0.91234 4.99639 0
M  V30 5191 H 500.201 -2.63761 4.55782 0
M  V30 5192 H 502.692 -1.53268 3.45424 0
M  V30 5193 H 503.005 -2.55248 7.2943 0
M  V30 5194 H 501.35 -2.30207 6.55767 0
M  V30 5195 H 504.541 -1.82119 4.3122 0
M  V30 5196 H 504.714 -2.28644 6.06322 0
M  V30 5197 N 498.12 -1.38341 -0.754957 0
M  V30 5198 C 499.345 -1.37882 -1.5493 0
M  V30 5199 C 499.77 0.0296385 -1.88077 0
M  V30 5200 O 499.128 1.01133 -1.50472 0
M  V30 5201 C 499.176 -2.23996 -2.82592 0
M  V30 5202 O 498.28 -1.65612 -3.77686 0
M  V30 5203 H 497.621 -0.470384 -0.468652 0
M  V30 5204 H 500.151 -1.82084 -0.933082 0
M  V30 5205 H 500.161 -2.37806 -3.3153 0
M  V30 5206 H 498.836 -3.26365 -2.57796 0
M  V30 5207 H 497.413 -1.60936 -3.36384 0
M  V30 5208 N 499.598 0.982988 -1.23187 0
M  V30 5209 C 500.846 1.72052 -1.06031 0
M  V30 5210 C 501.167 1.90769 0.404019 0
M  V30 5211 O 500.437 1.47446 1.28982 0
M  V30 5212 H 499.017 0.637499 -0.389363 0
M  V30 5213 H 501.679 1.18338 -1.54862 0
M  V30 5214 H 500.775 2.7111 -1.54615 0
M  V30 5215 N 501.076 1.04316 1.18135 0
M  V30 5216 C 502.301 0.768047 1.92655 0
M  V30 5217 C 502.726 -0.66904 1.758 0
M  V30 5218 O 502.084 -1.46372 1.06981 0
M  V30 5219 C 502.132 1.14239 3.42026 0
M  V30 5220 O 501.236 0.269333 4.1152 0
M  V30 5221 H 500.577 0.282436 0.600937 0
M  V30 5222 H 503.107 1.39367 1.49793 0
M  V30 5223 H 503.117 1.10538 3.92741 0
M  V30 5224 H 501.792 2.18928 3.53615 0
M  V30 5225 H 500.369 0.366175 3.71098 0
M  V30 5226 N 502.554 -1.34406 0.822964 0
M  V30 5227 C 503.782 -2.02508 0.424039 0
M  V30 5228 C 504.197 -1.61975 -0.970022 0
M  V30 5229 O 503.554 -0.825228 -1.62777 0
M  V30 5230 C 503.605 -3.57789 0.516657 0
M  V30 5231 O 503.326 -3.96853 1.85577 0
M  V30 5232 C 504.827 -4.43157 0.112637 0
M  V30 5233 H 502.047 -0.649063 0.170173 0
M  V30 5234 H 504.591 -1.7168 1.11113 0
M  V30 5235 H 502.746 -3.87207 -0.122353 0
M  V30 5236 H 503.16 -4.91538 1.83005 0
M  V30 5237 H 504.634 -5.51527 0.228526 0
M  V30 5238 H 505.111 -4.28939 -0.943837 0
M  V30 5239 H 505.717 -4.19067 0.725449 0
M  V30 5240 N 504.032 -0.577932 -1.46621 0
M  V30 5241 C 505.443 -0.150071 -1.86096 0
M  V30 5242 C 505.794 1.28563 -1.48209 0
M  V30 5243 O 504.919 1.97036 -0.894754 0
M  V30 5244 C 505.514 -0.265576 -3.37758 0
M  V30 5245 C 504.073 0.10738 -3.76247 0
M  V30 5246 C 503.22 -0.603711 -2.70649 0
M  V30 5247 H 506.171 -0.786438 -1.37844 0
M  V30 5248 H 506.192 0.510352 -3.77062 0
M  V30 5249 H 505.704 -1.3106 -3.65301 0
M  V30 5250 H 503.805 1.15272 -3.54321 0
M  V30 5251 H 503.918 -0.26561 -4.78363 0
M  V30 5252 H 502.282 -0.0444884 -2.54661 0
M  V30 5253 H 503.065 -1.65029 -3.01032 0
M  V30 5254 N 505.51 1.54411 -0.315457 0
M  V30 5255 C 506.44 2.27002 0.547039 0
M  V30 5256 C 507.421 1.27492 1.12605 0
M  V30 5257 O 508.606 1.5629 1.15269 0
M  V30 5258 C 505.736 3.02171 1.71201 0
M  V30 5259 C 504.69 4.0895 1.26268 0
M  V30 5260 C 504.016 4.71915 2.51396 0
M  V30 5261 C 505.316 5.20891 0.383419 0
M  V30 5262 H 507.01 2.99343 -0.0584517 0
M  V30 5263 H 504.556 1.4397 -0.0295527 0
M  V30 5264 H 506.509 3.51681 2.32161 0
M  V30 5265 H 505.233 2.27433 2.34397 0
M  V30 5266 H 503.892 3.60312 0.676062 0
M  V30 5267 H 503.54 3.93801 3.12937 0
M  V30 5268 H 503.24 5.44039 2.22026 0
M  V30 5269 H 504.764 5.24195 3.13133 0
M  V30 5270 H 506.178 5.66206 0.899082 0
M  V30 5271 H 504.575 5.99821 0.182857 0
M  V30 5272 H 505.645 4.81324 -0.587821 0
M  V30 5273 N 506.988 0.0434614 1.5754 0
M  V30 5274 C 508.235 -0.632035 1.92384 0
M  V30 5275 C 508.563 -1.71304 0.921157 0
M  V30 5276 O 507.818 -1.95583 -0.067744 0
M  V30 5277 C 508.117 -1.2738 3.3393 0
M  V30 5278 C 507.783 -0.321757 4.49751 0
M  V30 5279 C 506.445 -0.0597611 4.81163 0
M  V30 5280 C 508.797 0.331158 5.20147 0
M  V30 5281 C 506.125 0.862715 5.80322 0
M  V30 5282 C 508.477 1.24178 6.20292 0
M  V30 5283 C 507.141 1.51252 6.50138 0
M  V30 5284 H 506.411 -0.231278 0.703983 0
M  V30 5285 H 509.058 0.108294 1.91194 0
M  V30 5286 H 507.363 -2.08921 3.3145 0
M  V30 5287 H 509.06 -1.80326 3.58167 0
M  V30 5288 H 505.65 -0.53614 4.25233 0
M  V30 5289 H 509.834 0.141826 4.96097 0
M  V30 5290 H 505.09 1.08003 6.01785 0
M  V30 5291 H 509.264 1.75381 6.73954 0
M  V30 5292 H 506.891 2.22897 7.26788 0
M  V30 5293 N 508.466 -1.55915 -0.229846 0
M  V30 5294 C 509.713 -1.78542 -0.955452 0
M  V30 5295 C 510.041 -0.610785 -1.84661 0
M  V30 5296 O 509.296 0.405213 -1.91459 0
M  V30 5297 C 509.595 -3.06845 -1.8325 0
M  V30 5298 C 509.261 -4.37395 -1.09528 0
M  V30 5299 C 507.923 -4.72868 -0.891598 0
M  V30 5300 C 510.275 -5.18029 -0.574046 0
M  V30 5301 C 507.603 -5.86496 -0.154655 0
M  V30 5302 C 509.955 -6.32423 0.149513 0
M  V30 5303 C 508.619 -6.66504 0.364519 0
M  V30 5304 H 507.889 -0.653333 -0.349625 0
M  V30 5305 H 510.536 -1.90183 -0.224235 0
M  V30 5306 H 508.841 -2.90291 -2.63132 0
M  V30 5307 H 510.538 -3.21553 -2.39592 0
M  V30 5308 H 507.128 -4.09538 -1.26399 0
M  V30 5309 H 511.312 -4.91066 -0.718899 0
M  V30 5310 H 506.568 -6.11396 0.0222356 0
M  V30 5311 H 510.742 -6.94137 0.560947 0
M  V30 5312 H 508.369 -7.54397 0.937495 0
M  V30 5313 N 509.944 0.496216 -1.49584 0
M  V30 5314 C 511.169 1.27865 -1.63295 0
M  V30 5315 C 511.594 1.85592 -0.306156 0
M  V30 5316 O 510.952 1.66092 0.726851 0
M  V30 5317 C 511 2.38128 -2.7079 0
M  V30 5318 O 510.104 3.42108 -2.30296 0
M  V30 5319 H 509.445 0.377279 -0.546403 0
M  V30 5320 H 511.975 0.593497 -1.95803 0
M  V30 5321 H 511.985 2.8382 -2.93104 0
M  V30 5322 H 510.66 1.95479 -3.67098 0
M  V30 5323 H 509.237 3.02301 -2.18331 0
M  V30 5324 N 511.423 1.38739 0.74761 0
M  V30 5325 C 512.839 1.20067 1.05148 0
M  V30 5326 C 513.039 0.0534835 2.01429 0
M  V30 5327 O 512.095 -0.59886 2.45296 0
M  V30 5328 C 513.408 2.52957 1.62584 0
M  V30 5329 C 514.956 2.59692 1.74726 0
M  V30 5330 C 515.431 3.92772 2.35573 0
M  V30 5331 N 516.922 3.94343 2.42997 0
M  V30 5332 C 517.657 4.9408 2.90985 0
M  V30 5333 N 517.153 6.04214 3.38965 0
M  V30 5334 N 518.946 4.81466 2.9008 0
M  V30 5335 H 511.097 2.12121 0.108808 0
M  V30 5336 H 513.36 0.941491 0.110899 0
M  V30 5337 H 513.066 3.37389 0.993051 0
M  V30 5338 H 512.94 2.71779 2.61565 0
M  V30 5339 H 515.327 1.75651 2.3713 0
M  V30 5340 H 515.408 2.44731 0.744326 0
M  V30 5341 H 515.052 4.77238 1.738 0
M  V30 5342 H 514.982 4.05046 3.36519 0
M  V30 5343 H 517.473 3.14799 2.0907 0
M  V30 5344 H 517.786 6.76241 3.74056 0
M  V30 5345 H 516.131 6.07825 3.37007 0
M  V30 5346 H 519.322 3.94535 2.51912 0
M  V30 5347 H 519.495 5.59344 3.27166 0
M  V30 5348 N 512.901 -0.976442 1.23707 0
M  V30 5349 C 514.312 -1.53284 1.06587 0
M  V30 5350 C 514.663 -1.92765 -0.365526 0
M  V30 5351 O 513.788 -1.7645 -1.25277 0
M  V30 5352 C 514.383 -2.78548 1.92864 0
M  V30 5353 C 512.942 -3.30574 1.79994 0
M  V30 5354 C 512.089 -2.03538 1.88328 0
M  V30 5355 H 515.04 -0.795692 1.37311 0
M  V30 5356 H 515.061 -3.5155 1.45577 0
M  V30 5357 H 514.573 -2.49782 2.97037 0
M  V30 5358 H 512.674 -3.64211 0.786202 0
M  V30 5359 H 512.787 -4.00065 2.636 0
M  V30 5360 H 511.151 -2.17853 1.31954 0
M  V30 5361 H 511.934 -1.77149 2.94063 0
M  V30 5362 N 514.379 -1.04941 -1.1758 0
M  V30 5363 C 515.289 -0.658826 -2.25159 0
M  V30 5364 C 516.305 0.318941 -1.71052 0
M  V30 5365 O 517.481 0.171669 -2.00667 0
M  V30 5366 C 514.546 -0.0369522 -3.4668 0
M  V30 5367 C 513.607 -1.06484 -4.15884 0
M  V30 5368 C 512.84 -0.472551 -5.31604 0
M  V30 5369 O 513.063 0.718736 -5.65854 0
M  V30 5370 O 511.997 -1.20557 -5.89703 0
M  V30 5371 H 515.823 -1.55533 -2.60851 0
M  V30 5372 H 513.408 -0.820819 -1.24832 0
M  V30 5373 H 515.29 0.308784 -4.20267 0
M  V30 5374 H 513.965 0.833238 -3.12792 0
M  V30 5375 H 512.872 -1.46253 -3.44327 0
M  V30 5376 H 514.205 -1.9061 -4.53794 0
M  V30 5377 N 515.857 1.33968 -0.830081 0
M  V30 5378 C 517.105 1.97672 -0.420734 0
M  V30 5379 C 517.426 1.66111 1.02138 0
M  V30 5380 O 516.696 0.955503 1.71017 0
M  V30 5381 H 515.276 0.73125 -0.152587 0
M  V30 5382 H 517.938 1.63483 -1.0611 0
M  V30 5383 H 517.034 3.07294 -0.545588 0
M  V30 5384 N 517.335 0.585699 1.46312 0
M  V30 5385 C 518.583 0.072278 2.01971 0
M  V30 5386 C 518.904 -1.29345 1.45928 0
M  V30 5387 O 518.174 -1.84973 0.645109 0
M  V30 5388 H 516.754 0.023729 0.746623 0
M  V30 5389 H 519.416 0.762155 1.7938 0
M  V30 5390 H 518.512 0.00552767 3.121 0
M  V30 5391 N 518.813 -1.54241 0.323641 0
M  V30 5392 C 520.061 -2.00174 -0.278359 0
M  V30 5393 C 520.382 -1.2134 -1.52648 0
M  V30 5394 O 519.652 -0.315244 -1.93347 0
M  V30 5395 H 518.232 -0.739463 -0.105845 0
M  V30 5396 H 520.894 -1.89864 0.440204 0
M  V30 5397 H 519.99 -3.07486 -0.5347 0
M  V30 5398 N 520.291 -0.0518155 -1.57515 0
M  V30 5399 C 521.239 0.940195 -2.12751 0
M  V30 5400 C 522.233 1.3218 -1.05948 0
M  V30 5401 O 523.439 1.30138 -1.24355 0
M  V30 5402 H 519.814 0.321066 -0.680015 0
M  V30 5403 H 521.785 0.449217 -2.94999 0
M  V30 5404 C 520.534 2.2055 -2.68799 0
M  V30 5405 H 519.857 1.92066 -3.50643 0
M  V30 5406 H 521.297 2.88119 -3.11068 0
M  V30 5407 C 519.756 2.95061 -1.62605 0
M  V30 5408 O 520.286 3.88025 -1.03921 0
M  V30 5409 N 518.492 2.57804 -1.34111 0
M  V30 5410 H 518.039 1.82281 -1.8202 0
M  V30 5411 H 517.997 3.07964 -0.632872 0
M  V30 5412 N 521.769 1.56035 0.221574 0
M  V30 5413 C 523.017 1.78693 0.944102 0
M  V30 5414 C 523.338 0.620317 1.8487 0
M  V30 5415 O 522.608 -0.362784 1.92512 0
M  V30 5416 H 521.188 0.659082 0.351597 0
M  V30 5417 H 523.85 1.93497 0.233435 0
M  V30 5418 H 522.946 2.70837 1.55093 0
M  V30 5419 N 523.247 -0.488276 1.49845 0
M  V30 5420 C 524.493 -1.24341 1.6021 0
M  V30 5421 C 524.826 -1.91967 0.293651 0
M  V30 5422 O 524.101 -1.81323 -0.703718 0
M  V30 5423 C 524.384 -2.3005 2.77036 0
M  V30 5424 C 524.237 -1.66842 4.17713 0
M  V30 5425 C 525.556 -3.31509 2.89464 0
M  V30 5426 H 522.675 -0.450704 0.583125 0
M  V30 5427 H 525.317 -0.539673 1.82174 0
M  V30 5428 H 523.467 -2.90071 2.58439 0
M  V30 5429 H 525.139 -1.1055 4.47858 0
M  V30 5430 H 523.382 -0.972079 4.22768 0
M  V30 5431 H 524.053 -2.43576 4.95353 0
M  V30 5432 H 526.529 -2.81493 3.06433 0
M  V30 5433 H 525.405 -4.02822 3.72861 0
M  V30 5434 H 525.666 -3.94603 1.99351 0
M  V30 5435 N 524.725 -1.39134 -0.740242 0
M  V30 5436 C 526.141 -1.20623 -1.0451 0
M  V30 5437 C 526.341 -0.0641651 -2.01398 0
M  V30 5438 O 525.397 0.585843 -2.4561 0
M  V30 5439 C 526.71 -2.53815 -1.6124 0
M  V30 5440 C 528.258 -2.60615 -1.73346 0
M  V30 5441 C 528.733 -3.94015 -2.33486 0
M  V30 5442 N 530.224 -3.95627 -2.40902 0
M  V30 5443 C 530.959 -4.95616 -2.88361 0
M  V30 5444 N 530.455 -6.06003 -3.35756 0
M  V30 5445 N 532.248 -4.82998 -2.87523 0
M  V30 5446 H 524.399 -2.12176 -0.0975576 0
M  V30 5447 H 526.662 -0.942066 -0.105904 0
M  V30 5448 H 526.368 -3.37911 -0.975144 0
M  V30 5449 H 526.242 -2.73162 -2.6012 0
M  V30 5450 H 528.629 -1.76906 -2.36195 0
M  V30 5451 H 528.71 -2.45123 -0.731336 0
M  V30 5452 H 528.354 -4.78153 -1.71267 0
M  V30 5453 H 528.284 -4.06825 -3.34366 0
M  V30 5454 H 530.775 -3.15903 -2.07398 0
M  V30 5455 H 531.088 -6.78215 -3.70464 0
M  V30 5456 H 529.433 -6.09604 -3.33778 0
M  V30 5457 H 532.624 -3.95866 -2.49816 0
M  V30 5458 H 532.797 -5.61072 -3.24196 0
M  V30 5459 N 526.204 0.969867 -1.24223 0
M  V30 5460 C 527.451 1.71256 -1.08063 0
M  V30 5461 C 527.779 1.90734 0.380872 0
M  V30 5462 O 527.034 1.46469 1.29789 0
M  V30 5463 C 527.333 3.10883 -1.76314 0
M  V30 5464 C 526.999 3.11252 -3.26241 0
M  V30 5465 C 525.661 3.1106 -3.67144 0
M  V30 5466 C 528.013 3.05751 -4.22097 0
M  V30 5467 C 525.341 3.03097 -5.02344 0
M  V30 5468 C 527.693 2.9933 -5.57301 0
M  V30 5469 C 526.357 2.97466 -5.97554 0
M  V30 5470 H 525.627 0.62667 -0.395431 0
M  V30 5471 H 528.274 1.13422 -1.54297 0
M  V30 5472 H 526.579 3.72168 -1.22468 0
M  V30 5473 H 528.276 3.67138 -1.61277 0
M  V30 5474 H 524.866 3.12165 -2.93685 0
M  V30 5475 H 529.05 3.05031 -3.91497 0
M  V30 5476 H 524.306 3.00013 -5.32731 0
M  V30 5477 H 528.48 2.94033 -6.31283 0
M  V30 5478 H 526.107 2.91051 -7.02277 0
M  V30 5479 N 527.682 1.05563 1.17022 0
M  V30 5480 C 529.093 0.793475 1.69 0
M  V30 5481 C 529.444 -0.683882 1.83895 0
M  V30 5482 O 528.569 -1.53116 1.5292 0
M  V30 5483 C 529.164 1.43376 3.06967 0
M  V30 5484 C 527.723 1.21956 3.56095 0
M  V30 5485 C 526.87 1.51494 2.3226 0
M  V30 5486 H 529.821 1.22008 1.01487 0
M  V30 5487 H 529.842 0.845068 3.70997 0
M  V30 5488 H 529.354 2.50899 2.96093 0
M  V30 5489 H 527.455 0.163749 3.7224 0
M  V30 5490 H 527.568 1.92713 4.38633 0
M  V30 5491 H 525.932 0.935175 2.3691 0
M  V30 5492 H 526.715 2.60159 2.23992 0
M  V30 5493 N 529.16 -1.33526 0.837174 0
M  V30 5494 C 530.408 -1.97446 0.431211 0
M  V30 5495 C 530.729 -1.6665 -1.01255 0
M  V30 5496 O 529.999 -0.964559 -1.70508 0
M  V30 5497 H 528.579 -0.73043 0.156463 0
M  V30 5498 H 531.241 -1.62918 1.06976 0
M  V30 5499 H 530.337 -3.07001 0.561877 0
M  V30 5500 N 530.638 -0.59345 -1.46 0
M  V30 5501 C 531.585 0.133618 -2.30413 0
M  V30 5502 C 532.555 0.873736 -1.41262 0
M  V30 5503 O 533.74 0.862279 -1.70204 0
M  V30 5504 C 530.88 1.13434 -3.25924 0
M  V30 5505 C 529.993 0.39656 -4.30176 0
M  V30 5506 C 529.128 1.38575 -5.12806 0
M  V30 5507 C 528.167 0.634984 -6.08797 0
M  V30 5508 N 527.304 1.57276 -6.84258 0
M  V30 5509 H 532.144 -0.592252 -2.92055 0
M  V30 5510 H 529.681 -0.303874 -1.43927 0
M  V30 5511 H 531.639 1.72752 -3.79753 0
M  V30 5512 H 530.269 1.82779 -2.66067 0
M  V30 5513 H 529.321 -0.311861 -3.79119 0
M  V30 5514 H 530.633 -0.189869 -4.98438 0
M  V30 5515 H 529.787 2.05141 -5.70966 0
M  V30 5516 H 528.526 2.00611 -4.44529 0
M  V30 5517 H 527.531 -0.0443925 -5.49782 0
M  V30 5518 H 528.756 0.0198678 -6.79097 0
M  V30 5519 H 526.702 2.18103 -6.18682 0
M  V30 5520 H 526.619 1.03941 -7.48821 0
M  V30 5521 H 527.887 2.22844 -7.46968 0
M  V30 5522 N 532.116 1.54067 -0.331816 0
M  V30 5523 C 533.341 2.05599 0.272705 0
M  V30 5524 C 533.766 1.2059 1.44359 0
M  V30 5525 O 533.124 0.216907 1.79998 0
M  V30 5526 C 533.172 3.54188 0.677021 0
M  V30 5527 O 532.276 3.72082 1.77844 0
M  V30 5528 H 531.617 0.662286 0.0476801 0
M  V30 5529 H 534.147 1.98826 -0.482624 0
M  V30 5530 H 534.157 3.96608 0.957415 0
M  V30 5531 H 532.832 4.15513 -0.179325 0
M  V30 5532 H 531.409 3.41566 1.49622 0
M  V30 5533 N 533.594 0.0601682 1.57485 0
M  V30 5534 C 534.526 -0.94047 2.09016 0
M  V30 5535 C 535.539 -1.26897 1.01985 0
M  V30 5536 O 536.728 -1.22819 1.29529 0
M  V30 5537 C 533.828 -2.25955 2.52582 0
M  V30 5538 C 533.001 -2.11163 3.83052 0
M  V30 5539 C 532.06 -3.26273 4.12835 0
M  V30 5540 O 531.086 -3.01779 4.82616 0
M  V30 5541 N 532.288 -4.51022 3.65458 0
M  V30 5542 H 535.053 -0.500578 2.9549 0
M  V30 5543 H 532.614 -0.125852 1.6141 0
M  V30 5544 H 534.606 -3.01846 2.69575 0
M  V30 5545 H 533.176 -2.61481 1.71308 0
M  V30 5546 H 532.396 -1.19808 3.75552 0
M  V30 5547 H 533.684 -1.98517 4.68475 0
M  V30 5548 H 533.082 -4.73811 3.09062 0
M  V30 5549 H 531.639 -5.23978 3.87673 0
M  V30 5550 N 535.072 -1.5615 -0.213296 0
M  V30 5551 C 536.321 -1.78743 -0.93455 0
M  V30 5552 C 536.634 -0.630199 -1.8517 0
M  V30 5553 O 537.84 -0.739966 -2.61222 0
M  V30 5554 C 536.296 -3.16571 -1.71203 0
M  V30 5555 C 535.904 -4.40043 -0.840617 0
M  V30 5556 C 537.648 -3.48485 -2.42401 0
M  V30 5557 C 535.555 -5.68895 -1.61592 0
M  V30 5558 H 534.485 -0.666426 -0.352692 0
M  V30 5559 H 537.136 -1.82532 -0.188227 0
M  V30 5560 H 535.518 -3.06981 -2.50157 0
M  V30 5561 H 536.692 -4.6071 -0.0910326 0
M  V30 5562 H 535.007 -4.15706 -0.240365 0
M  V30 5563 H 537.604 -4.41983 -3.00924 0
M  V30 5564 H 537.947 -2.71371 -3.15695 0
M  V30 5565 H 538.48 -3.59442 -1.7043 0
M  V30 5566 H 535.219 -6.48925 -0.926106 0
M  V30 5567 H 534.739 -5.52275 -2.33991 0
M  V30 5568 H 536.418 -6.09365 -2.17447 0
M  V30 5569 N 536.55 0.480323 -1.50102 0
M  V30 5570 C 537.798 1.23063 -1.60312 0
M  V30 5571 C 538.119 1.92659 -0.301226 0
M  V30 5572 O 537.389 1.83691 0.680753 0
M  V30 5573 H 535.969 0.457231 -0.590719 0
M  V30 5574 H 538.631 0.554893 -1.86834 0
M  V30 5575 H 537.727 1.9835 -2.40964 0
M  V30 5576 N 538.028 1.39524 0.732853 0
M  V30 5577 C 539.305 1.27373 1.48444 0
M  V30 5578 C 539.685 -0.115725 2.10783 0
M  V30 5579 O 539.033 -1.12713 1.98766 0
M  V30 5580 C 539.243 2.39966 2.53412 0
M  V30 5581 C 540.591 2.79384 3.19733 0
M  V30 5582 O 541.615 2.39431 2.63725 0
M  V30 5583 O 540.474 3.48353 4.21085 0
M  V30 5584 H 537.568 0.499272 0.659285 0
M  V30 5585 H 540.114 1.51403 0.766496 0
M  V30 5586 H 538.886 3.32845 2.05742 0
M  V30 5587 H 538.509 2.17612 3.32762 0
M  V30 5588 N 539.506 -0.963266 1.24736 0
M  V30 5589 C 540.922 -1.23273 1.01371 0
M  V30 5590 C 541.122 -1.99618 -0.274776 0
M  V30 5591 O 540.178 -2.32293 -0.989769 0
M  V30 5592 C 541.491 -2.01554 2.23152 0
M  V30 5593 C 543.039 -2.14629 2.27823 0
M  V30 5594 C 543.514 -2.96307 3.49237 0
M  V30 5595 N 545.005 -3.03887 3.49581 0
M  V30 5596 C 545.74 -3.67456 4.40186 0
M  V30 5597 N 545.236 -4.32706 5.41052 0
M  V30 5598 N 547.029 -3.64511 4.27888 0
M  V30 5599 H 539.18 -0.452294 2.07528 0
M  V30 5600 H 541.443 -0.262521 0.910926 0
M  V30 5601 H 541.149 -1.52847 3.1675 0
M  V30 5602 H 541.023 -3.02278 2.25628 0
M  V30 5603 H 543.41 -2.62537 1.34753 0
M  V30 5604 H 543.491 -1.13238 2.2937 0
M  V30 5605 H 543.135 -2.49091 4.42624 0
M  V30 5606 H 543.065 -3.97905 3.44933 0
M  V30 5607 H 545.556 -2.57477 2.76611 0
M  V30 5608 H 545.869 -4.79042 6.06415 0
M  V30 5609 H 544.214 -4.31361 5.44934 0
M  V30 5610 H 547.405 -3.12715 3.4832 0
M  V30 5611 H 547.578 -4.13768 4.98698 0
M  V30 5612 N 540.985 -1.06182 -1.16461 0
M  V30 5613 C 542.233 -0.776326 -1.86595 0
M  V30 5614 C 542.554 0.69921 -1.82033 0
M  V30 5615 O 541.824 1.50579 -1.2531 0
M  V30 5616 H 540.404 -0.284184 -0.690832 0
M  V30 5617 H 543.066 -1.34308 -1.41235 0
M  V30 5618 H 542.162 -1.10022 -2.92064 0
M  V30 5619 N 542.463 1.3308 -0.844243 0
M  V30 5620 C 543.688 2.02341 -0.455282 0
M  V30 5621 C 544.113 1.6308 0.93737 0
M  V30 5622 O 543.471 0.826118 1.61385 0
M  V30 5623 C 543.519 3.55743 -0.58988 0
M  V30 5624 O 542.623 4.1063 0.38166 0
M  V30 5625 H 541.964 0.637898 -0.184343 0
M  V30 5626 H 544.494 1.6986 -1.14056 0
M  V30 5627 H 544.504 4.05243 -0.473522 0
M  V30 5628 H 543.179 3.83662 -1.60549 0
M  V30 5629 H 541.756 3.72236 0.22241 0
M  V30 5630 N 543.941 0.601185 1.45683 0
M  V30 5631 C 544.904 -0.111398 2.28929 0
M  V30 5632 C 545.904 -0.801246 1.39416 0
M  V30 5633 O 547.094 -0.650383 1.61603 0
M  V30 5634 C 544.226 -1.16773 3.20276 0
M  V30 5635 H 545.419 0.620412 2.93413 0
M  V30 5636 H 542.972 0.359946 1.52099 0
M  V30 5637 H 543.707 -1.93051 2.60579 0
M  V30 5638 H 543.492 -0.677358 3.86205 0
M  V30 5639 H 544.982 -1.66698 3.82886 0
M  V30 5640 N 545.419 -1.53889 0.339982 0
M  V30 5641 C 546.349 -2.27843 -0.510856 0
M  V30 5642 C 547.33 -1.29267 -1.10563 0
M  V30 5643 O 548.515 -1.58104 -1.12768 0
M  V30 5644 C 545.645 -3.04857 -1.66372 0
M  V30 5645 C 544.599 -4.10907 -1.19746 0
M  V30 5646 C 543.925 -4.75855 -2.43857 0
M  V30 5647 C 545.225 -5.21435 -0.300501 0
M  V30 5648 H 546.919 -2.99212 0.106067 0
M  V30 5649 H 544.465 -1.43904 0.0524533 0
M  V30 5650 H 546.418 -3.5533 -2.26537 0
M  V30 5651 H 545.142 -2.31133 -2.30749 0
M  V30 5652 H 543.801 -3.61342 -0.618654 0
M  V30 5653 H 543.449 -3.9873 -3.06633 0
M  V30 5654 H 543.149 -5.47502 -2.13343 0
M  V30 5655 H 544.673 -5.2911 -3.04754 0
M  V30 5656 H 546.087 -5.67565 -0.80889 0
M  V30 5657 H 544.484 -6.00036 -0.0874076 0
M  V30 5658 H 545.554 -4.80328 0.664321 0
M  V30 5659 N 546.897 -0.0685191 -1.57451 0
M  V30 5660 C 548.144 0.601348 -1.93365 0
M  V30 5661 C 548.472 1.69816 -0.948294 0
M  V30 5662 O 547.727 1.95666 0.0366199 0
M  V30 5663 C 548.026 1.22051 -3.35914 0
M  V30 5664 C 547.692 0.250165 -4.50205 0
M  V30 5665 C 546.354 -0.0167954 -4.81197 0
M  V30 5666 C 548.706 -0.413867 -5.19554 0
M  V30 5667 C 546.034 -0.95493 -5.78876 0
M  V30 5668 C 548.386 -1.3403 -6.18238 0
M  V30 5669 C 547.05 -1.61576 -6.47649 0
M  V30 5670 H 546.32 0.220049 -0.707573 0
M  V30 5671 H 548.967 -0.138697 -1.90997 0
M  V30 5672 H 547.272 2.03622 -3.34732 0
M  V30 5673 H 548.969 1.74605 -3.6099 0
M  V30 5674 H 545.559 0.468421 -4.26033 0
M  V30 5675 H 549.743 -0.220733 -4.95809 0
M  V30 5676 H 544.999 -1.17563 -5.99991 0
M  V30 5677 H 549.173 -1.86081 -6.71079 0
M  V30 5678 H 546.8 -2.34431 -7.2315 0
M  V30 5679 N 548.375 1.56261 0.205012 0
M  V30 5680 C 549.285 1.96944 1.27476 0
M  V30 5681 C 550.301 0.875636 1.50362 0
M  V30 5682 O 551.477 1.18058 1.6317 0
M  V30 5683 C 548.542 2.29219 2.60115 0
M  V30 5684 C 547.603 3.52255 2.45387 0
M  V30 5685 C 546.836 3.8298 3.71701 0
M  V30 5686 O 547.059 3.15138 4.75441 0
M  V30 5687 O 545.993 4.76435 3.67823 0
M  V30 5688 H 549.819 2.88144 0.959527 0
M  V30 5689 H 547.404 1.43686 0.409217 0
M  V30 5690 H 549.286 2.51098 3.3842 0
M  V30 5691 H 547.961 1.4119 2.91285 0
M  V30 5692 H 546.868 3.35635 1.65227 0
M  V30 5693 H 548.201 4.40719 2.19152 0
M  V30 5694 N 549.853 -0.472356 1.50355 0
M  V30 5695 C 551.13 -1.23356 1.51798 0
M  V30 5696 C 551.51 -2.09469 0.26193 0
M  V30 5697 O 550.858 -2.15677 -0.754691 0
M  V30 5698 C 551.068 -2.06568 2.81302 0
M  V30 5699 C 552.416 -2.648 3.31913 0
M  V30 5700 O 553.44 -2.16812 2.82614 0
M  V30 5701 O 552.299 -3.52231 4.17846 0
M  V30 5702 H 549.393 -0.559707 0.608816 0
M  V30 5703 H 551.939 -0.48428 1.62643 0
M  V30 5704 H 550.711 -1.43103 3.64194 0
M  V30 5705 H 550.334 -2.88633 2.73454 0
M  V30 5706 N 551.331 -1.39911 -0.725443 0
M  V30 5707 C 552.263 -1.35301 -1.85003 0
M  V30 5708 C 553.276 -0.260102 -1.60709 0
M  V30 5709 O 554.465 -0.519749 -1.70766 0
M  V30 5710 C 551.565 -1.08039 -3.21218 0
M  V30 5711 C 550.738 -2.28793 -3.7279 0
M  V30 5712 C 549.797 -1.97841 -4.87591 0
M  V30 5713 O 548.823 -2.70616 -5.00755 0
M  V30 5714 N 550.025 -0.950367 -5.72668 0
M  V30 5715 H 552.79 -2.32218 -1.89459 0
M  V30 5716 H 550.351 -1.34137 -0.90658 0
M  V30 5717 H 552.343 -0.853354 -3.95601 0
M  V30 5718 H 550.913 -0.198229 -3.11971 0
M  V30 5719 H 550.133 -2.67388 -2.8965 0
M  V30 5720 H 551.421 -3.09317 -4.03981 0
M  V30 5721 H 550.819 -0.347436 -5.64632 0
M  V30 5722 H 549.376 -0.783232 -6.47077 0
M  V30 5723 N 552.809 0.956637 -1.25245 0
M  V30 5724 C 553.772 2.03457 -1.05537 0
M  V30 5725 C 554.772 1.60798 -0.00886317 0
M  V30 5726 O 555.962 1.72384 -0.250865 0
M  V30 5727 C 553.094 3.35543 -0.601965 0
M  V30 5728 H 554.287 2.22372 -2.01223 0
M  V30 5729 H 551.84 1.13344 -1.07623 0
M  V30 5730 H 552.575 3.22323 0.357584 0
M  V30 5731 H 552.36 3.67854 -1.35743 0
M  V30 5732 H 553.85 4.14769 -0.485454 0
M  V30 5733 N 554.287 1.06798 1.15896 0
M  V30 5734 C 555.536 0.782796 1.8589 0
M  V30 5735 C 555.849 -0.693498 1.82893 0
M  V30 5736 O 557.055 -1.09325 2.48516 0
M  V30 5737 C 555.511 1.3502 3.33613 0
M  V30 5738 C 555.119 2.8571 3.45071 0
M  V30 5739 C 556.863 1.14278 4.08829 0
M  V30 5740 C 554.77 3.35669 4.86909 0
M  V30 5741 H 553.7 0.289149 0.696354 0
M  V30 5742 H 556.351 1.28734 1.30766 0
M  V30 5743 H 554.733 0.773407 3.88374 0
M  V30 5744 H 555.907 3.49385 3.00445 0
M  V30 5745 H 554.222 3.05178 2.83294 0
M  V30 5746 H 556.819 1.49087 5.13495 0
M  V30 5747 H 557.162 0.0814575 4.1622 0
M  V30 5748 H 557.695 1.68563 3.60321 0
M  V30 5749 H 554.434 4.41302 4.84698 0
M  V30 5750 H 553.954 2.76745 5.32139 0
M  V30 5751 H 555.633 3.31296 5.55745 0
M  V30 5752 N 555.766 -1.3263 0.851289 0
M  V30 5753 C 556.994 -2.01563 0.466899 0
M  V30 5754 C 557.409 -1.63996 -0.935447 0
M  V30 5755 O 556.766 -0.85957 -1.6099 0
M  V30 5756 C 556.817 -3.56613 0.592433 0
M  V30 5757 O 556.538 -3.92828 1.93954 0
M  V30 5758 C 558.039 -4.42818 0.206612 0
M  V30 5759 H 555.259 -0.645307 0.183902 0
M  V30 5760 H 557.803 -1.69285 1.1473 0
M  V30 5761 H 555.958 -3.87379 -0.0401936 0
M  V30 5762 H 556.372 -4.87545 1.9339 0
M  V30 5763 H 557.846 -5.50918 0.345462 0
M  V30 5764 H 558.323 -4.30844 -0.85264 0
M  V30 5765 H 558.929 -4.17434 0.814176 0
M  V30 5766 N 557.244 -0.608902 -1.45362 0
M  V30 5767 C 558.207 0.0992563 -2.28985 0
M  V30 5768 C 559.207 0.793841 -1.39838 0
M  V30 5769 O 560.397 0.641804 -1.61946 0
M  V30 5770 C 557.529 1.15073 -3.20891 0
M  V30 5771 H 558.722 -0.635964 -2.93079 0
M  V30 5772 H 556.275 -0.368007 -1.51906 0
M  V30 5773 H 557.01 1.91667 -2.616 0
M  V30 5774 H 556.795 0.656867 -3.86559 0
M  V30 5775 H 558.285 1.64665 -3.83765 0
M  V30 5776 N 558.722 1.53707 -0.348139 0
M  V30 5777 C 559.968 2.01286 0.247332 0
M  V30 5778 C 560.301 1.23546 1.49834 0
M  V30 5779 O 559.576 0.324331 1.91777 0
M  V30 5780 C 559.859 3.55768 0.556858 0
M  V30 5781 C 559.712 4.44216 -0.706564 0
M  V30 5782 C 561.031 4.1841 1.3646 0
M  V30 5783 H 558.15 0.731677 0.0884201 0
M  V30 5784 H 560.792 1.84106 -0.469584 0
M  V30 5785 H 558.942 3.70539 1.16761 0
M  V30 5786 H 560.614 4.41274 -1.34444 0
M  V30 5787 H 558.857 4.12892 -1.33052 0
M  V30 5788 H 559.528 5.50202 -0.445186 0
M  V30 5789 H 562.004 4.07365 0.848113 0
M  V30 5790 H 560.88 5.26563 1.54992 0
M  V30 5791 H 561.141 3.7333 2.36805 0
M  V30 5792 N 560.2 0.0768682 1.57412 0
M  V30 5793 C 561.148 -0.906229 2.1422 0
M  V30 5794 C 562.142 -1.30477 1.08037 0
M  V30 5795 O 563.348 -1.28143 1.2641 0
M  V30 5796 H 559.723 -0.310207 0.685037 0
M  V30 5797 H 561.694 -0.402228 2.95677 0
M  V30 5798 C 560.443 -2.16245 2.72274 0
M  V30 5799 H 559.766 -1.86463 3.53655 0
M  V30 5800 H 561.206 -2.83134 3.15613 0
M  V30 5801 C 559.665 -2.92437 1.67279 0
M  V30 5802 O 560.195 -3.86322 1.10081 0
M  V30 5803 N 558.401 -2.55637 1.38195 0
M  V30 5804 H 557.948 -1.79363 1.84897 0
M  V30 5805 H 557.906 -3.06919 0.681787 0
M  V30 5806 N 561.678 -1.56367 -0.196722 0
M  V30 5807 C 563.094 -1.49916 -0.54749 0
M  V30 5808 C 563.294 -0.77659 -1.85934 0
M  V30 5809 O 562.35 -0.32644 -2.50381 0
M  V30 5810 C 563.663 -2.94577 -0.603734 0
M  V30 5811 C 565.211 -3.05239 -0.692677 0
M  V30 5812 C 565.686 -4.51308 -0.780046 0
M  V30 5813 N 567.177 -4.55453 -0.843616 0
M  V30 5814 C 567.912 -5.65786 -0.931358 0
M  V30 5815 N 567.408 -6.85812 -0.981503 0
M  V30 5816 N 569.201 -5.53695 -0.968421 0
M  V30 5817 H 561.352 -2.01761 0.663803 0
M  V30 5818 H 563.615 -0.918094 0.236238 0
M  V30 5819 H 563.321 -3.50494 0.29105 0
M  V30 5820 H 563.195 -3.47841 -1.45898 0
M  V30 5821 H 565.582 -2.49372 -1.57789 0
M  V30 5822 H 565.663 -2.55103 0.188736 0
M  V30 5823 H 565.307 -5.078 0.100811 0
M  V30 5824 H 565.237 -4.99176 -1.67724 0
M  V30 5825 H 567.728 -3.69025 -0.814176 0
M  V30 5826 H 568.041 -7.65648 -1.04892 0
M  V30 5827 H 566.386 -6.88474 -0.950208 0
M  V30 5828 H 569.577 -4.58848 -0.926072 0
M  V30 5829 H 569.75 -6.39708 -1.03334 0
M  V30 5830 N 563.156 0.464375 -1.50603 0
M  V30 5831 C 564.403 1.21596 -1.61928 0
M  V30 5832 C 564.731 1.91804 -0.322737 0
M  V30 5833 O 563.986 1.83065 0.691776 0
M  V30 5834 C 564.285 2.278 -2.75394 0
M  V30 5835 C 563.951 1.74797 -4.1564 0
M  V30 5836 C 562.613 1.60063 -4.53799 0
M  V30 5837 C 564.965 1.35548 -5.03266 0
M  V30 5838 C 562.293 1.04514 -5.77316 0
M  V30 5839 C 564.645 0.814381 -6.27336 0
M  V30 5840 C 563.309 0.653726 -6.64291 0
M  V30 5841 H 562.579 0.444951 -0.592536 0
M  V30 5842 H 565.226 0.510964 -1.84557 0
M  V30 5843 H 563.531 3.04233 -2.46879 0
M  V30 5844 H 565.228 2.85723 -2.81359 0
M  V30 5845 H 561.818 1.87234 -3.8554 0
M  V30 5846 H 566.002 1.45763 -4.74412 0
M  V30 5847 H 561.258 0.908186 -6.04617 0
M  V30 5848 H 565.432 0.501626 -6.94591 0
M  V30 5849 H 563.059 0.22114 -7.59878 0
M  V30 5850 N 564.634 1.40294 0.718013 0
M  V30 5851 C 565.584 1.36847 1.82365 0
M  V30 5852 C 566.568 0.246424 1.59002 0
M  V30 5853 O 567.76 0.485336 1.70216 0
M  V30 5854 C 564.889 1.23105 3.20469 0
M  V30 5855 C 563.975 2.4008 3.49603 0
M  V30 5856 N 564.366 3.65562 3.49568 0
M  V30 5857 C 562.664 2.33407 3.80049 0
M  V30 5858 C 563.365 4.43015 3.76978 0
M  V30 5859 N 562.341 3.72823 3.95606 0
M  V30 5860 H 566.143 2.31811 1.80668 0
M  V30 5861 H 563.657 1.34031 0.91703 0
M  V30 5862 H 565.654 1.18718 3.9964 0
M  V30 5863 H 564.314 0.291056 3.23393 0
M  V30 5864 H 565.325 3.98756 3.30476 0
M  V30 5865 H 562.002 1.47762 3.90478 0
M  V30 5866 H 563.392 5.51859 3.83276 0
M  V30 5867 N 566.112 -0.949982 1.2575 0
M  V30 5868 C 567.06 -2.06869 1.06339 0
M  V30 5869 C 568.054 -1.69399 -0.00708901 0
M  V30 5870 O 569.26 -1.79383 0.148897 0
M  V30 5871 H 565.635 -0.677197 0.326969 0
M  V30 5872 H 567.606 -2.20396 2.01167 0
M  V30 5873 C 566.355 -3.40503 0.703769 0
M  V30 5874 H 565.678 -3.69807 1.51931 0
M  V30 5875 H 567.118 -4.19623 0.607677 0
M  V30 5876 C 565.577 -3.31685 -0.5905 0
M  V30 5877 O 566.107 -3.67085 -1.63131 0
M  V30 5878 N 564.313 -2.84797 -0.577859 0
M  V30 5879 H 563.86 -2.56186 0.26951 0
M  V30 5880 H 563.818 -2.79279 -1.44398 0
M  V30 5881 N 567.59 -1.07411 -1.15328 0
M  V30 5882 C 568.836 -0.798831 -1.86404 0
M  V30 5883 C 569.169 0.673433 -1.8215 0
M  V30 5884 O 568.444 1.49428 -1.24505 0
M  V30 5885 C 568.727 -1.30846 -3.35487 0
M  V30 5886 C 568.58 -2.84532 -3.4837 0
M  V30 5887 C 569.899 -0.925486 -4.30259 0
M  V30 5888 H 567.018 -0.291659 -0.676834 0
M  V30 5889 H 569.66 -1.332 -1.35491 0
M  V30 5890 H 567.81 -0.854916 -3.78977 0
M  V30 5891 H 569.482 -3.3818 -3.13739 0
M  V30 5892 H 567.725 -3.22699 -2.8991 0
M  V30 5893 H 568.396 -3.15259 -4.53118 0
M  V30 5894 H 570.872 -1.3163 -3.94731 0
M  V30 5895 H 569.748 -1.3094 -5.33053 0
M  V30 5896 H 570.009 0.168525 -4.41779 0
M  V30 5897 N 569.068 1.32177 -0.85831 0
M  V30 5898 C 570.001 2.26823 -0.25035 0
M  V30 5899 C 570.979 1.50571 0.61378 0
M  V30 5900 O 572.163 1.79682 0.569777 0
M  V30 5901 C 569.29 3.32472 0.646556 0
M  V30 5902 C 568.336 4.26255 -0.144675 0
M  V30 5903 S 569.169 5.13608 -1.5155 0
M  V30 5904 C 570.325 6.22778 -0.624408 0
M  V30 5905 H 570.558 2.7804 -1.05267 0
M  V30 5906 H 568.091 1.39764 -0.656152 0
M  V30 5907 H 570.049 3.93817 1.15837 0
M  V30 5908 H 568.71 2.80031 1.42272 0
M  V30 5909 H 567.903 5.01114 0.538613 0
M  V30 5910 H 567.505 3.69346 -0.588198 0
M  V30 5911 H 569.797 6.77287 0.169846 0
M  V30 5912 H 570.74 6.95233 -1.34376 0
M  V30 5913 H 571.148 5.64156 -0.197128 0
M  V30 5914 N 570.547 0.616602 1.45037 0
M  V30 5915 C 571.51 -0.0871112 2.29034 0
M  V30 5916 C 572.51 -0.786414 1.40258 0
M  V30 5917 O 573.7 -0.633207 1.62284 0
M  V30 5918 C 570.832 -1.13369 3.21497 0
M  V30 5919 H 572.025 0.651497 2.92738 0
M  V30 5920 H 569.578 0.376058 1.51709 0
M  V30 5921 H 570.313 -1.90277 2.62612 0
M  V30 5922 H 570.098 -0.636358 3.86902 0
M  V30 5923 H 571.588 -1.62627 3.84633 0
M  V30 5924 N 572.025 -1.5352 0.356285 0
M  V30 5925 C 573.273 -2.00719 -0.235837 0
M  V30 5926 C 573.594 -1.24551 -1.5004 0
M  V30 5927 O 572.864 -0.356185 -1.92635 0
M  V30 5928 H 571.444 -0.741542 -0.0901366 0
M  V30 5929 H 574.106 -1.88887 0.480378 0
M  V30 5930 H 573.202 -3.08551 -0.469357 0
M  V30 5931 N 573.503 -0.0852151 -1.57369 0
M  V30 5932 C 574.435 0.907099 -2.10486 0
M  V30 5933 C 575.448 1.25259 -1.03991 0
M  V30 5934 O 576.637 1.20743 -1.31467 0
M  V30 5935 C 573.737 2.21908 -2.56145 0
M  V30 5936 C 572.91 2.05042 -3.86363 0
M  V30 5937 C 571.969 3.19664 -4.17973 0
M  V30 5938 O 570.995 2.94062 -4.87356 0
M  V30 5939 N 572.197 4.45151 -3.72587 0
M  V30 5940 H 574.962 0.453505 -2.96249 0
M  V30 5941 H 572.523 0.100157 -1.6159 0
M  V30 5942 H 574.515 2.97519 -2.74343 0
M  V30 5943 H 573.085 2.58723 -1.75446 0
M  V30 5944 H 572.305 1.13819 -3.77411 0
M  V30 5945 H 573.593 1.91039 -4.71574 0
M  V30 5946 H 572.991 4.68834 -3.16561 0
M  V30 5947 H 571.548 5.17744 -3.9596 0
M  V30 5948 N 574.981 1.5647 0.188427 0
M  V30 5949 C 576.392 1.70864 0.752494 0
M  V30 5950 C 576.743 0.692905 1.83557 0
M  V30 5951 O 575.868 -0.149307 2.15884 0
M  V30 5952 C 576.463 3.09789 1.37173 0
M  V30 5953 C 575.022 3.25925 1.88281 0
M  V30 5954 C 574.169 2.66817 0.755259 0
M  V30 5955 H 577.12 1.58657 -0.0367408 0
M  V30 5956 H 577.141 3.07489 2.24122 0
M  V30 5957 H 576.653 3.83693 0.583219 0
M  V30 5958 H 574.754 2.56948 2.6983 0
M  V30 5959 H 574.867 4.33498 2.04001 0
M  V30 5960 H 573.231 2.2617 1.17128 0
M  V30 5961 H 574.014 3.43294 -0.0211237 0
M  V30 5962 N 576.459 -0.456382 1.50847 0
M  V30 5963 C 577.369 -1.57805 1.73594 0
M  V30 5964 C 578.385 -1.62599 0.619476 0
M  V30 5965 O 579.561 -1.80195 0.899532 0
M  V30 5966 C 576.626 -2.93926 1.8387 0
M  V30 5967 C 575.687 -2.99402 3.07663 0
M  V30 5968 C 574.92 -4.29031 3.1744 0
M  V30 5969 O 575.143 -5.20358 2.33631 0
M  V30 5970 O 574.077 -4.40401 4.10281 0
M  V30 5971 H 577.903 -1.41531 2.68705 0
M  V30 5972 H 575.488 -0.637422 1.3512 0
M  V30 5973 H 577.37 -3.74747 1.92725 0
M  V30 5974 H 576.045 -3.10368 0.91944 0
M  V30 5975 H 574.952 -2.17606 3.043 0
M  V30 5976 H 576.285 -2.87901 3.99216 0
M  V30 5977 N 577.937 -1.40673 -0.710563 0
M  V30 5978 C 578.847 -1.43663 -1.85467 0
M  V30 5979 C 579.863 -0.328721 -1.70867 0
M  V30 5980 O 581.039 -0.574098 -1.93044 0
M  V30 5981 C 578.104 -1.30226 -3.21313 0
M  V30 5982 C 577.165 -2.51204 -3.48131 0
M  V30 5983 C 576.398 -2.38398 -4.77495 0
M  V30 5984 O 576.621 -1.40048 -5.5294 0
M  V30 5985 O 575.555 -3.2787 -5.04762 0
M  V30 5986 H 579.381 -2.40156 -1.859 0
M  V30 5987 H 576.966 -1.22049 -0.861652 0
M  V30 5988 H 578.848 -1.2496 -4.02446 0
M  V30 5989 H 577.523 -0.368419 -3.21597 0
M  V30 5990 H 576.43 -2.62048 -2.66987 0
M  V30 5991 H 577.763 -3.43366 -3.52648 0
M  V30 5992 N 579.415 0.9433 -1.26252 0
M  V30 5993 C 580.345 2.05902 -1.10122 0
M  V30 5994 C 581.326 1.70099 -0.00700552 0
M  V30 5995 O 582.511 1.93377 -0.178641 0
M  V30 5996 C 579.641 3.39516 -0.731175 0
M  V30 5997 C 578.595 3.89372 -1.77688 0
M  V30 5998 C 577.921 5.19613 -1.26122 0
M  V30 5999 C 579.221 4.14489 -3.17799 0
M  V30 6000 H 580.915 2.19655 -2.03451 0
M  V30 6001 H 578.461 1.05548 -0.979576 0
M  V30 6002 H 580.414 4.17031 -0.605215 0
M  V30 6003 H 579.138 3.25733 0.23782 0
M  V30 6004 H 577.797 3.14036 -1.89148 0
M  V30 6005 H 577.445 5.02208 -0.282128 0
M  V30 6006 H 577.145 5.53939 -1.96023 0
M  V30 6007 H 578.669 5.99713 -1.14789 0
M  V30 6008 H 580.083 4.82625 -3.09428 0
M  V30 6009 H 578.48 4.60094 -3.85271 0
M  V30 6010 H 579.55 3.20347 -3.64014 0
M  V30 6011 N 580.893 1.08022 1.14757 0
M  V30 6012 C 582.118 0.82895 1.90114 0
M  V30 6013 C 582.543 -0.612772 1.77839 0
M  V30 6014 O 581.901 -1.42895 1.11583 0
M  V30 6015 C 581.949 1.25062 3.38219 0
M  V30 6016 O 581.053 0.400119 4.10454 0
M  V30 6017 H 580.394 0.301412 0.591648 0
M  V30 6018 H 582.924 1.44062 1.45284 0
M  V30 6019 H 582.934 1.22977 3.89025 0
M  V30 6020 H 581.609 2.30067 3.46471 0
M  V30 6021 H 580.186 0.484052 3.69745 0
M  V30 6022 N 582.371 -1.3172 0.865308 0
M  V30 6023 C 583.319 -2.30569 0.306674 0
M  V30 6024 C 584.313 -1.59317 -0.575724 0
M  V30 6025 O 585.519 -1.73961 -0.462343 0
M  V30 6026 H 581.894 -0.747681 0.0804834 0
M  V30 6027 H 583.865 -2.75165 1.15441 0
M  V30 6028 C 582.614 -3.44358 -0.480952 0
M  V30 6029 H 581.937 -3.99354 0.18876 0
M  V30 6030 H 583.377 -4.15652 -0.837241 0
M  V30 6031 C 581.836 -2.92574 -1.67039 0
M  V30 6032 O 582.366 -2.90954 -2.76964 0
M  V30 6033 N 580.572 -2.48835 -1.50097 0
M  V30 6034 H 580.119 -2.50353 -0.606738 0
M  V30 6035 H 580.077 -2.14543 -2.29823 0
M  V30 6036 N 583.85 -0.624285 -1.44708 0
M  V30 6037 C 585.26 -0.2092 -1.85524 0
M  V30 6038 C 585.611 1.23783 -1.52225 0
M  V30 6039 O 584.736 1.94089 -0.956986 0
M  V30 6040 C 585.332 -0.372897 -3.36742 0
M  V30 6041 C 583.891 -0.012374 -3.76398 0
M  V30 6042 C 583.038 -0.68951 -2.68591 0
M  V30 6043 H 585.989 -0.829894 -1.35272 0
M  V30 6044 H 586.01 0.390134 -3.78495 0
M  V30 6045 H 585.522 -1.42615 -3.60947 0
M  V30 6046 H 583.623 1.03941 -3.57809 0
M  V30 6047 H 583.736 -0.417663 -4.77276 0
M  V30 6048 H 582.1 -0.125484 -2.54391 0
M  V30 6049 H 582.883 -1.74522 -2.9563 0
M  V30 6050 N 585.328 1.53329 -0.364422 0
M  V30 6051 C 586.276 2.27212 0.497737 0
M  V30 6052 C 587.27 1.30146 1.08437 0
M  V30 6053 O 588.476 1.47778 1.0277 0
M  V30 6054 H 584.851 0.730329 0.179232 0
M  V30 6055 H 586.822 2.98037 -0.147182 0
M  V30 6056 C 585.571 3.07333 1.6261 0
M  V30 6057 H 584.894 3.81866 1.184 0
M  V30 6058 H 586.334 3.62209 2.20409 0
M  V30 6059 C 584.793 2.18102 2.56775 0
M  V30 6060 O 585.323 1.79104 3.59562 0
M  V30 6061 N 583.529 1.82759 2.25937 0
M  V30 6062 H 583.076 2.14671 1.42387 0
M  V30 6063 H 583.034 1.23342 2.89196 0
M  V30 6064 N 586.806 0.0935595 1.57322 0
M  V30 6065 C 588.054 -0.569383 1.93913 0
M  V30 6066 C 588.375 -1.68817 0.976009 0
M  V30 6067 O 587.645 -1.9588 0.0278099 0
M  V30 6068 H 586.225 -0.21332 0.715894 0
M  V30 6069 H 588.887 0.156531 1.9427 0
M  V30 6070 H 587.983 -0.980577 2.96296 0
M  V30 6071 N 588.284 -1.56567 -0.180126 0
M  V30 6072 C 589.232 -1.96632 -1.24251 0
M  V30 6073 C 590.226 -0.853818 -1.46309 0
M  V30 6074 O 591.432 -1.0389 -1.46993 0
M  V30 6075 H 587.807 -0.625476 -0.417473 0
M  V30 6076 H 589.778 -2.85201 -0.877679 0
M  V30 6077 C 588.527 -2.33486 -2.57642 0
M  V30 6078 H 587.85 -3.18626 -2.4149 0
M  V30 6079 H 589.29 -2.65371 -3.30688 0
M  V30 6080 C 587.749 -1.17499 -3.15746 0
M  V30 6081 O 588.279 -0.457956 -3.99081 0
M  V30 6082 N 586.485 -0.94786 -2.74707 0
M  V30 6083 H 586.032 -1.53269 -2.07042 0
M  V30 6084 H 585.99 -0.173626 -3.1392 0
M  V30 6085 N 589.762 0.448376 -1.51087 0
M  V30 6086 C 590.71 1.56407 -1.72161 0
M  V30 6087 C 591.704 1.58878 -0.587721 0
M  V30 6088 O 592.91 1.62755 -0.768822 0
M  V30 6089 H 589.285 0.519423 -0.543786 0
M  V30 6090 H 591.256 1.35803 -2.65707 0
M  V30 6091 C 590.005 2.94163 -1.85373 0
M  V30 6092 H 589.328 2.9299 -2.72024 0
M  V30 6093 H 590.768 3.71625 -2.04135 0
M  V30 6094 C 589.227 3.31317 -0.610803 0
M  V30 6095 O 589.757 4.00985 0.239636 0
M  V30 6096 N 587.963 2.86966 -0.458127 0
M  V30 6097 H 587.51 2.30443 -1.15124 0
M  V30 6098 H 587.468 3.12188 0.372289 0
M  V30 6099 N 591.24 1.41047 0.703093 0
M  V30 6100 C 592.172 1.38228 1.82827 0
M  V30 6101 C 593.185 0.285637 1.60275 0
M  V30 6102 O 594.374 0.54685 1.69917 0
M  V30 6103 C 591.474 1.13136 3.19458 0
M  V30 6104 C 590.647 2.34695 3.69103 0
M  V30 6105 C 589.706 2.05574 4.84382 0
M  V30 6106 O 588.732 2.78549 4.96386 0
M  V30 6107 N 589.934 1.04135 5.71083 0
M  V30 6108 H 592.699 2.35203 1.85741 0
M  V30 6109 H 590.26 1.35562 0.885125 0
M  V30 6110 H 592.252 0.916183 3.94193 0
M  V30 6111 H 590.822 0.247836 3.11616 0
M  V30 6112 H 590.042 2.71963 2.85359 0
M  V30 6113 H 591.33 3.15705 3.99009 0
M  V30 6114 H 590.728 0.43722 5.64008 0
M  V30 6115 H 589.285 0.886078 6.45749 0
M  V30 6116 N 592.718 -0.936591 1.26751 0
M  V30 6117 C 593.967 -1.67778 1.11953 0
M  V30 6118 C 594.28 -1.92694 -0.33589 0
M  V30 6119 O 595.486 -2.64682 -0.604618 0
M  V30 6120 C 593.942 -3.02138 1.95551 0
M  V30 6121 C 593.55 -2.84953 3.45696 0
M  V30 6122 C 595.294 -3.79917 1.89377 0
M  V30 6123 C 593.201 -4.14814 4.21525 0
M  V30 6124 H 592.131 -0.629275 0.415366 0
M  V30 6125 H 594.782 -1.04122 1.51099 0
M  V30 6126 H 593.164 -3.668 1.49243 0
M  V30 6127 H 594.338 -2.29112 3.99805 0
M  V30 6128 H 592.653 -2.20612 3.53156 0
M  V30 6129 H 595.25 -4.76134 2.43312 0
M  V30 6130 H 595.593 -4.07204 0.865464 0
M  V30 6131 H 596.126 -3.22037 2.33532 0
M  V30 6132 H 592.865 -3.92709 5.24843 0
M  V30 6133 H 592.385 -4.70352 3.72195 0
M  V30 6134 H 594.064 -4.83239 4.3022 0
M  V30 6135 N 594.196 -1.08629 -1.14182 0
M  V30 6136 C 595.443 -0.817345 -1.85272 0
M  V30 6137 C 595.771 0.656917 -1.83071 0
M  V30 6138 O 595.026 1.49897 -1.25815 0
M  V30 6139 C 595.325 -1.28734 -3.3341 0
M  V30 6140 C 594.991 -2.76981 -3.55798 0
M  V30 6141 C 593.653 -3.17469 -3.61617 0
M  V30 6142 C 596.005 -3.72605 -3.64438 0
M  V30 6143 C 593.333 -4.52371 -3.736 0
M  V30 6144 C 595.685 -5.07286 -3.77947 0
M  V30 6145 C 594.349 -5.47376 -3.82016 0
M  V30 6146 H 593.619 -0.299088 -0.677958 0
M  V30 6147 H 596.266 -1.35962 -1.34857 0
M  V30 6148 H 594.571 -0.664702 -3.8612 0
M  V30 6149 H 596.268 -1.05598 -3.86846 0
M  V30 6150 H 592.858 -2.44644 -3.51919 0
M  V30 6151 H 597.042 -3.42443 -3.5923 0
M  V30 6152 H 592.298 -4.82882 -3.75013 0
M  V30 6153 H 596.472 -5.81243 -3.83575 0
M  V30 6154 H 594.099 -6.51906 -3.91054 0
M  V30 6155 N 595.674 1.31259 -0.872281 0
M  V30 6156 C 596.607 2.26544 -0.274394 0
M  V30 6157 C 597.585 1.51213 0.597776 0
M  V30 6158 O 598.769 1.80277 0.550687 0
M  V30 6159 C 595.896 3.33139 0.611256 0
M  V30 6160 C 594.942 4.26077 -0.189876 0
M  V30 6161 S 595.775 5.11971 -1.56989 0
M  V30 6162 C 596.931 6.2208 -0.690427 0
M  V30 6163 H 597.164 2.76908 -1.0821 0
M  V30 6164 H 594.697 1.3906 -0.670939 0
M  V30 6165 H 596.655 3.95024 1.11654 0
M  V30 6166 H 595.316 2.81525 1.39294 0
M  V30 6167 H 594.509 5.01657 0.485433 0
M  V30 6168 H 594.111 3.68701 -0.627339 0
M  V30 6169 H 596.403 6.77429 0.098001 0
M  V30 6170 H 597.346 6.93768 -1.41742 0
M  V30 6171 H 597.754 5.63915 -0.256953 0
M  V30 6172 N 597.152 0.631951 1.44375 0
M  V30 6173 C 598.1 -0.0846693 2.32446 0
M  V30 6174 C 599.094 -0.834957 1.47393 0
M  V30 6175 O 600.3 -0.747764 1.63733 0
M  V30 6176 H 596.675 -0.0461508 0.750583 0
M  V30 6177 H 598.646 0.67619 2.90638 0
M  V30 6178 C 597.395 -1.05211 3.314 0
M  V30 6179 H 596.718 -0.484203 3.96857 0
M  V30 6180 H 598.158 -1.523 3.95703 0
M  V30 6181 C 596.617 -2.13776 2.60387 0
M  V30 6182 O 597.147 -3.21869 2.4034 0
M  V30 6183 N 595.353 -1.89733 2.20113 0
M  V30 6184 H 594.9 -1.01833 2.36618 0
M  V30 6185 H 594.858 -2.62572 1.72926 0
M  V30 6186 N 598.631 -1.53133 0.372548 0
M  V30 6187 C 599.563 -2.23557 -0.505444 0
M  V30 6188 C 600.576 -1.25211 -1.04049 0
M  V30 6189 O 601.765 -1.51391 -0.945675 0
M  V30 6190 C 598.865 -2.92516 -1.71136 0
M  V30 6191 C 598.038 -4.17428 -1.30661 0
M  V30 6192 C 597.097 -4.69535 -2.37536 0
M  V30 6193 O 596.123 -5.33042 -1.99637 0
M  V30 6194 N 597.325 -4.47947 -3.6922 0
M  V30 6195 H 600.09 -2.9954 0.0978259 0
M  V30 6196 H 597.651 -1.60684 0.198068 0
M  V30 6197 H 599.643 -3.24281 -2.42124 0
M  V30 6198 H 598.213 -2.19944 -2.22134 0
M  V30 6199 H 597.433 -3.91888 -0.426292 0
M  V30 6200 H 598.721 -4.98622 -1.01259 0
M  V30 6201 H 598.119 -3.97219 -4.02783 0
M  V30 6202 H 596.676 -4.84245 -4.36292 0
M  V30 6203 N 600.109 -0.101901 -1.5727 0
M  V30 6204 C 601.525 0.254739 -1.57554 0
M  V30 6205 C 601.725 1.67937 -1.11352 0
M  V30 6206 O 600.781 2.39722 -0.793081 0
M  V30 6207 C 602.094 0.036975 -3.00677 0
M  V30 6208 C 603.642 0.104199 -3.12827 0
M  V30 6209 C 604.117 -0.0856565 -4.5792 0
M  V30 6210 N 605.608 -0.0310498 -4.6319 0
M  V30 6211 C 606.343 -0.153099 -5.73196 0
M  V30 6212 N 605.839 -0.330364 -6.92012 0
M  V30 6213 N 607.632 -0.0938854 -5.62022 0
M  V30 6214 H 599.783 -1.03263 -1.85609 0
M  V30 6215 H 602.046 -0.405251 -0.857016 0
M  V30 6216 H 601.752 -0.947254 -3.38703 0
M  V30 6217 H 601.626 0.776335 -3.69124 0
M  V30 6218 H 604.013 1.07894 -2.74669 0
M  V30 6219 H 604.094 -0.666762 -2.46957 0
M  V30 6220 H 603.738 -1.05729 -4.96773 0
M  V30 6221 H 603.668 0.705082 -5.21858 0
M  V30 6222 H 606.159 0.103141 -3.77759 0
M  V30 6223 H 606.472 -0.41482 -7.71686 0
M  V30 6224 H 604.817 -0.366119 -6.94035 0
M  V30 6225 H 608.008 0.0435168 -4.6808 0
M  V30 6226 H 608.181 -0.19245 -6.47714 0
M  V30 6227 N 601.587 1.56661 0.17182 0
M  V30 6228 C 602.835 1.81606 0.886774 0
M  V30 6229 C 603.156 0.678818 1.82803 0
M  V30 6230 O 602.426 -0.301354 1.93568 0
M  V30 6231 H 601.006 0.669934 0.330451 0
M  V30 6232 H 603.668 1.94142 0.171757 0
M  V30 6233 H 602.764 2.75634 1.46398 0
M  V30 6234 N 603.065 -0.440357 1.51323 0
M  V30 6235 C 604.29 -1.21716 1.67928 0
M  V30 6236 C 604.715 -1.84328 0.374826 0
M  V30 6237 O 604.073 -1.68675 -0.664706 0
M  V30 6238 C 604.121 -2.27914 2.79442 0
M  V30 6239 O 603.225 -3.33325 2.42834 0
M  V30 6240 H 602.566 -0.35674 0.560029 0
M  V30 6241 H 605.096 -0.520417 1.97871 0
M  V30 6242 H 605.106 -2.72746 3.03436 0
M  V30 6243 H 603.781 -1.8172 3.741 0
M  V30 6244 H 602.358 -2.9399 2.294 0
M  V30 6245 N 604.543 -1.41418 -0.695603 0
M  V30 6246 C 605.493 -1.39731 -1.80165 0
M  V30 6247 C 606.477 -0.271689 -1.5859 0
M  V30 6248 O 607.669 -0.512354 -1.69422 0
M  V30 6249 C 604.798 -1.28187 -3.1847 0
M  V30 6250 C 603.884 -2.45612 -3.45739 0
M  V30 6251 N 604.275 -3.71077 -3.43708 0
M  V30 6252 C 602.573 -2.39424 -3.76288 0
M  V30 6253 C 603.274 -4.48957 -3.69882 0
M  V30 6254 N 602.25 -3.7907 -3.89624 0
M  V30 6255 H 606.052 -2.34656 -1.76957 0
M  V30 6256 H 603.566 -1.35473 -0.89559 0
M  V30 6257 H 605.563 -1.2506 -3.977 0
M  V30 6258 H 604.223 -0.342468 -3.22889 0
M  V30 6259 H 605.234 -4.03963 -3.2409 0
M  V30 6260 H 601.911 -1.53955 -3.88077 0
M  V30 6261 H 603.301 -5.57887 -3.74448 0
M  V30 6262 N 606.021 0.929856 -1.27246 0
M  V30 6263 C 607.269 1.674 -1.13233 0
M  V30 6264 C 607.59 1.92311 0.322744 0
M  V30 6265 O 606.86 1.52784 1.22612 0
M  V30 6266 H 605.44 0.620411 -0.416052 0
M  V30 6267 H 608.102 1.11663 -1.59741 0
M  V30 6268 H 607.198 2.64308 -1.65975 0
M  V30 6269 N 607.499 1.09233 1.13605 0
M  V30 6270 C 608.745 0.828385 1.8511 0
M  V30 6271 C 609.078 -0.64437 1.83198 0
M  V30 6272 O 608.353 -1.47428 1.26867 0
M  V30 6273 C 608.636 1.36167 3.33363 0
M  V30 6274 C 608.489 2.90038 3.438 0
M  V30 6275 C 609.808 0.993819 4.28732 0
M  V30 6276 H 606.927 0.30239 0.672108 0
M  V30 6277 H 609.569 1.35339 1.33355 0
M  V30 6278 H 607.719 0.9151 3.77569 0
M  V30 6279 H 609.391 3.43128 3.08319 0
M  V30 6280 H 607.634 3.27271 2.84739 0
M  V30 6281 H 608.305 3.22428 4.48045 0
M  V30 6282 H 610.781 1.37893 3.92587 0
M  V30 6283 H 609.657 1.39403 5.30903 0
M  V30 6284 H 609.918 -0.0982206 4.41991 0
M  V30 6285 N 608.977 -1.30795 0.87923 0
M  V30 6286 C 610.223 -1.96653 0.495519 0
M  V30 6287 C 610.556 -1.69282 -0.951703 0
M  V30 6288 O 609.831 -0.994374 -1.6716 0
M  V30 6289 C 610.114 -3.51898 0.764174 0
M  V30 6290 C 609.967 -3.88808 2.2616 0
M  V30 6291 C 611.286 -4.39462 0.236825 0
M  V30 6292 H 608.405 -0.7143 0.181507 0
M  V30 6293 H 611.047 -1.54765 1.10217 0
M  V30 6294 H 609.197 -3.87709 0.247841 0
M  V30 6295 H 610.869 -3.63051 2.8459 0
M  V30 6296 H 609.112 -3.37082 2.73053 0
M  V30 6297 H 609.783 -4.97086 2.4002 0
M  V30 6298 H 612.259 -4.10528 0.678683 0
M  V30 6299 H 611.135 -5.47018 0.454176 0
M  V30 6300 H 611.396 -4.33621 -0.861683 0
M  V30 6301 N 610.455 -0.639598 -1.44038 0
M  V30 6302 C 611.385 0.0469443 -2.33453 0
M  V30 6303 C 612.366 0.82609 -1.48694 0
M  V30 6304 O 613.551 0.790285 -1.77393 0
M  V30 6305 C 610.681 1.02338 -3.3188 0
M  V30 6306 C 609.635 0.355284 -4.26523 0
M  V30 6307 C 608.961 1.44221 -5.14883 0
M  V30 6308 C 610.261 -0.743798 -5.16977 0
M  V30 6309 H 611.955 -0.699735 -2.91108 0
M  V30 6310 H 609.501 -0.337946 -1.39978 0
M  V30 6311 H 611.454 1.51247 -3.93322 0
M  V30 6312 H 610.178 1.80105 -2.72451 0
M  V30 6313 H 608.837 -0.113239 -3.66425 0
M  V30 6314 H 608.485 2.21097 -4.51802 0
M  V30 6315 H 608.185 1.00052 -5.79019 0
M  V30 6316 H 609.709 1.93295 -5.79197 0
M  V30 6317 H 611.123 -0.337444 -5.72306 0
M  V30 6318 H 609.52 -1.10914 -5.89761 0
M  V30 6319 H 610.59 -1.60745 -4.57481 0
M  V30 6320 N 611.933 1.52934 -0.380664 0
M  V30 6321 C 612.896 2.24809 0.446473 0
M  V30 6322 C 613.896 1.26133 0.997347 0
M  V30 6323 O 615.086 1.50297 0.880714 0
M  V30 6324 C 612.218 2.99649 1.62553 0
M  V30 6325 H 613.411 2.99343 -0.182677 0
M  V30 6326 H 610.964 1.55736 -0.132618 0
M  V30 6327 H 611.699 2.29395 2.29235 0
M  V30 6328 H 611.484 3.72066 1.23732 0
M  V30 6329 H 612.974 3.54246 2.21133 0
M  V30 6330 N 613.412 0.11024 1.57214 0
M  V30 6331 C 614.36 -0.860586 2.16094 0
M  V30 6332 C 615.354 -1.28156 1.1078 0
M  V30 6333 O 616.56 -1.25433 1.29099 0
M  V30 6334 H 612.935 -0.295606 0.691463 0
M  V30 6335 H 614.906 -0.33942 2.96463 0
M  V30 6336 C 613.655 -2.10421 2.768 0
M  V30 6337 H 612.978 -1.7892 3.5753 0
M  V30 6338 H 614.418 -2.76375 3.21547 0
M  V30 6339 C 612.877 -2.88823 1.73444 0
M  V30 6340 O 613.407 -3.839 1.18251 0
M  V30 6341 N 611.613 -2.52649 1.43586 0
M  V30 6342 H 611.16 -1.754 1.8866 0
M  V30 6343 H 611.118 -3.05403 0.746735 0
M  V30 6344 N 614.89 -1.56749 -0.16351 0
M  V30 6345 C 615.853 -1.96121 -1.18613 0
M  V30 6346 C 616.853 -0.845765 -1.36761 0
M  V30 6347 O 618.043 -1.11268 -1.34033 0
M  V30 6348 C 615.175 -2.26282 -2.54969 0
M  V30 6349 H 616.368 -2.87639 -0.848764 0
M  V30 6350 H 613.921 -1.50928 -0.406251 0
M  V30 6351 H 614.656 -1.37504 -2.93706 0
M  V30 6352 H 614.441 -3.07595 -2.43162 0
M  V30 6353 H 615.931 -2.57638 -3.28653 0
M  V30 6354 N 616.368 0.432326 -1.51554 0
M  V30 6355 C 617.616 1.17901 -1.64146 0
M  V30 6356 C 617.937 1.91604 -0.362367 0
M  V30 6357 O 617.207 1.85764 0.621968 0
M  V30 6358 H 615.787 0.438206 -0.604966 0
M  V30 6359 H 618.449 0.495172 -1.88505 0
M  V30 6360 H 617.545 1.90584 -2.47152 0
M  V30 6361 N 617.846 1.41785 0.688094 0
M  V30 6362 C 619.071 1.45117 1.48175 0
M  V30 6363 C 619.496 0.060129 1.88004 0
M  V30 6364 O 618.854 -0.938385 1.55126 0
M  V30 6365 C 618.902 2.37224 2.71583 0
M  V30 6366 O 618.006 1.83443 3.69354 0
M  V30 6367 H 617.347 0.492208 0.445676 0
M  V30 6368 H 619.877 1.86329 0.845145 0
M  V30 6369 H 619.887 2.53353 3.19806 0
M  V30 6370 H 618.562 3.38293 2.41931 0
M  V30 6371 H 617.139 1.76802 3.28322 0
M  V30 6372 N 619.324 -0.923095 1.27737 0
M  V30 6373 C 620.549 -1.71054 1.17283 0
M  V30 6374 C 620.974 -1.86208 -0.266153 0
M  V30 6375 O 620.332 -1.36545 -1.1927 0
M  V30 6376 C 620.38 -3.0854 1.86642 0
M  V30 6377 O 619.484 -3.95528 1.16752 0
M  V30 6378 H 618.825 -0.524136 0.407649 0
M  V30 6379 H 621.355 -1.15487 1.6889 0
M  V30 6380 H 621.365 -3.58828 1.94182 0
M  V30 6381 H 620.04 -2.96828 2.91317 0
M  V30 6382 H 618.617 -3.53967 1.17312 0
M  V30 6383 N 620.802 -1.09834 -1.13024 0
M  V30 6384 C 622.027 -0.85909 -1.88771 0
M  V30 6385 C 622.452 0.584402 -1.78791 0
M  V30 6386 O 621.81 1.41101 -1.13842 0
M  V30 6387 C 621.858 -1.30427 -3.36186 0
M  V30 6388 O 620.962 -0.465368 -4.09766 0
M  V30 6389 H 620.303 -0.310786 -0.586778 0
M  V30 6390 H 622.833 -1.46355 -1.42973 0
M  V30 6391 H 622.843 -1.2915 -3.8702 0
M  V30 6392 H 621.518 -2.3555 -3.42767 0
M  V30 6393 H 620.095 -0.542814 -3.68928 0
M  V30 6394 N 622.28 1.30327 -0.886154 0
M  V30 6395 C 623.526 1.96388 -0.505941 0
M  V30 6396 C 623.859 1.69784 0.942712 0
M  V30 6397 O 623.134 1.00322 1.6663 0
M  V30 6398 C 623.417 3.51488 -0.782826 0
M  V30 6399 C 623.27 3.87603 -2.28219 0
M  V30 6400 C 624.589 4.39331 -0.260128 0
M  V30 6401 H 621.708 0.713327 -0.185292 0
M  V30 6402 H 624.35 1.54178 -1.11036 0
M  V30 6403 H 622.5 3.87572 -0.268399 0
M  V30 6404 H 624.172 3.61537 -2.86512 0
M  V30 6405 H 622.415 3.3563 -2.74837 0
M  V30 6406 H 623.086 4.95806 -2.42653 0
M  V30 6407 H 625.562 4.10162 -0.700444 0
M  V30 6408 H 624.438 5.46769 -0.483179 0
M  V30 6409 H 624.699 4.34072 0.838674 0
M  V30 6410 N 623.758 0.647228 1.43697 0
M  V30 6411 C 624.983 0.164083 2.0675 0
M  V30 6412 C 625.408 -1.15892 1.48158 0
M  V30 6413 O 624.766 -1.71459 0.589194 0
M  V30 6414 C 624.814 0.0800368 3.60511 0
M  V30 6415 O 623.918 -0.959453 4.01084 0
M  V30 6416 H 623.259 0.0921288 0.657578 0
M  V30 6417 H 625.789 0.88846 1.84303 0
M  V30 6418 H 625.799 -0.105263 4.07864 0
M  V30 6419 H 624.474 1.04586 4.02535 0
M  V30 6420 H 623.051 -0.747425 3.65333 0
M  V30 6421 N 625.236 -1.5273 0.388769 0
M  V30 6422 C 626.485 -2.00757 -0.194833 0
M  V30 6423 C 626.798 -1.27951 -1.47946 0
M  V30 6424 O 628.004 -1.66686 -2.14308 0
M  V30 6425 C 626.46 -3.57695 -0.397762 0
M  V30 6426 C 626.068 -4.394 0.873583 0
M  V30 6427 C 627.812 -4.14012 -0.937759 0
M  V30 6428 C 625.719 -5.87938 0.638962 0
M  V30 6429 H 624.649 -0.750101 -0.0765845 0
M  V30 6430 H 627.3 -1.76239 0.511086 0
M  V30 6431 H 625.682 -3.7846 -1.16552 0
M  V30 6432 H 626.856 -4.30403 1.64591 0
M  V30 6433 H 625.171 -3.94301 1.33849 0
M  V30 6434 H 627.768 -5.22645 -1.12899 0
M  V30 6435 H 628.111 -3.7007 -1.90666 0
M  V30 6436 H 628.644 -3.97137 -0.229588 0
M  V30 6437 H 625.383 -6.36202 1.57885 0
M  V30 6438 H 624.903 -5.99726 -0.094443 0
M  V30 6439 H 626.582 -6.46423 0.273299 0
M  V30 6440 N 626.714 -0.118576 -1.57153 0
M  V30 6441 C 627.662 0.849114 -2.16547 0
M  V30 6442 C 628.656 1.27567 -1.11458 0
M  V30 6443 O 629.862 1.24746 -1.29763 0
M  V30 6444 H 626.237 0.291935 -0.693021 0
M  V30 6445 H 628.208 0.323693 -2.96639 0
M  V30 6446 C 626.957 2.08951 -2.77912 0
M  V30 6447 H 626.28 1.77021 -3.58474 0
M  V30 6448 H 627.72 2.74666 -3.23008 0
M  V30 6449 C 626.179 2.87899 -1.74974 0
M  V30 6450 O 626.709 3.83268 -1.20285 0
M  V30 6451 N 624.915 2.51884 -1.44924 0
M  V30 6452 H 624.462 1.74397 -1.89587 0
M  V30 6453 H 624.42 3.05003 -0.762921 0
M  V30 6454 N 628.193 1.56834 0.155195 0
M  V30 6455 C 629.421 1.87049 0.884326 0
M  V30 6456 C 629.836 0.705839 1.7511 0
M  V30 6457 O 629.193 -0.324641 1.79589 0
M  V30 6458 C 629.244 3.1644 1.74781 0
M  V30 6459 O 628.965 4.28417 0.915978 0
M  V30 6460 C 630.466 3.60113 2.58522 0
M  V30 6461 H 627.686 0.620196 0.25612 0
M  V30 6462 H 630.23 2.03946 0.150445 0
M  V30 6463 H 628.385 3.01321 2.43484 0
M  V30 6464 H 628.799 5.02353 1.50803 0
M  V30 6465 H 630.273 4.53508 3.14698 0
M  V30 6466 H 630.75 2.85005 3.34169 0
M  V30 6467 H 631.356 3.77898 1.95124 0
M  V30 6468 N 629.671 -0.424282 1.51781 0
M  V30 6469 C 630.634 -1.49848 1.73431 0
M  V30 6470 C 631.634 -1.49016 0.604225 0
M  V30 6471 O 632.824 -1.50808 0.871935 0
M  V30 6472 C 629.956 -2.89332 1.80277 0
M  V30 6473 H 631.149 -1.3195 2.69312 0
M  V30 6474 H 628.702 -0.653809 1.41968 0
M  V30 6475 H 629.437 -3.12618 0.862568 0
M  V30 6476 H 629.222 -2.9134 2.62419 0
M  V30 6477 H 630.712 -3.67233 1.98821 0
M  V30 6478 N 631.149 -1.42148 -0.680565 0
M  V30 6479 C 632.377 -1.45696 -1.46902 0
M  V30 6480 C 632.792 -0.0665858 -1.88683 0
M  V30 6481 O 632.149 0.917436 -1.57764 0
M  V30 6482 C 632.2 -2.37898 -2.72188 0
M  V30 6483 O 631.921 -3.71526 -2.32163 0
M  V30 6484 C 633.422 -2.50407 -3.65802 0
M  V30 6485 H 630.642 -0.495729 -0.45221 0
M  V30 6486 H 633.186 -1.866 -0.836709 0
M  V30 6487 H 631.341 -2.00263 -3.31622 0
M  V30 6488 H 631.755 -4.20849 -3.13027 0
M  V30 6489 H 633.229 -3.19056 -4.50452 0
M  V30 6490 H 633.706 -1.5401 -4.11312 0
M  V30 6491 H 634.312 -2.8874 -3.12265 0
M  V30 6492 N 632.627 0.916307 -1.28225 0
M  V30 6493 C 633.574 2.01841 -1.11932 0
M  V30 6494 C 634.544 1.66091 -0.0171604 0
M  V30 6495 O 635.729 1.89934 -0.181617 0
M  V30 6496 C 632.869 3.36065 -0.784504 0
M  V30 6497 C 631.982 3.847 -1.96544 0
M  V30 6498 C 631.117 5.07423 -1.57149 0
M  V30 6499 C 630.156 5.48384 -2.71922 0
M  V30 6500 N 629.293 6.62298 -2.33037 0
M  V30 6501 H 634.133 2.1511 -2.06232 0
M  V30 6502 H 631.67 1.05366 -1.02647 0
M  V30 6503 H 633.628 4.13272 -0.571148 0
M  V30 6504 H 632.258 3.22571 0.121565 0
M  V30 6505 H 631.31 3.03673 -2.291 0
M  V30 6506 H 632.622 4.1102 -2.82603 0
M  V30 6507 H 631.776 5.92165 -1.32004 0
M  V30 6508 H 630.515 4.82906 -0.682153 0
M  V30 6509 H 629.52 4.62184 -2.97768 0
M  V30 6510 H 630.745 5.7489 -3.61494 0
M  V30 6511 H 628.691 6.39416 -1.4657 0
M  V30 6512 H 628.608 6.8833 -3.12631 0
M  V30 6513 H 629.876 7.50352 -2.11169 0
M  V30 6514 N 634.105 1.10431 1.1244 0
M  V30 6515 C 635.035 0.775143 2.20258 0
M  V30 6516 C 636.016 -0.25186 1.68225 0
M  V30 6517 O 637.201 -0.117637 1.93843 0
M  V30 6518 C 634.331 0.206133 3.46688 0
M  V30 6519 C 633.285 1.16382 4.11873 0
M  V30 6520 C 632.611 0.456014 5.32752 0
M  V30 6521 C 633.911 2.5104 4.58013 0
M  V30 6522 H 635.605 1.67665 2.4805 0
M  V30 6523 H 633.151 0.807595 1.19222 0
M  V30 6524 H 635.104 -0.036291 4.21384 0
M  V30 6525 H 633.828 -0.730614 3.18323 0
M  V30 6526 H 632.487 1.39169 3.39157 0
M  V30 6527 H 632.135 -0.485203 5.00654 0
M  V30 6528 H 631.835 1.09466 5.77314 0
M  V30 6529 H 633.359 0.222135 6.10196 0
M  V30 6530 H 634.773 2.32401 5.24083 0
M  V30 6531 H 633.17 3.10789 5.13352 0
M  V30 6532 H 634.24 3.11039 3.71998 0
M  V30 6533 N 635.583 -1.29855 0.893053 0
M  V30 6534 C 636.994 -1.77946 0.564998 0
M  V30 6535 C 637.345 -1.73339 -0.919134 0
M  V30 6536 O 636.47 -1.3152 -1.71847 0
M  V30 6537 C 637.065 -3.23118 1.01883 0
M  V30 6538 C 635.624 -3.69013 0.742051 0
M  V30 6539 C 634.771 -2.50121 1.19727 0
M  V30 6540 H 637.722 -1.16611 1.07646 0
M  V30 6541 H 637.743 -3.78875 0.351249 0
M  V30 6542 H 637.255 -3.26439 2.09903 0
M  V30 6543 H 635.356 -3.71173 -0.325816 0
M  V30 6544 H 635.469 -4.60117 1.33527 0
M  V30 6545 H 633.833 -2.47128 0.616418 0
M  V30 6546 H 634.616 -2.56174 2.28538 0
M  V30 6547 N 637.061 -0.65484 -1.43351 0
M  V30 6548 C 638.338 -0.0987371 -1.95351 0
M  V30 6549 C 638.718 1.38161 -1.59608 0
M  V30 6550 O 638.066 2.10791 -0.882021 0
M  V30 6551 C 638.276 -0.346684 -3.47274 0
M  V30 6552 C 639.624 -0.25249 -4.23849 0
M  V30 6553 O 640.648 -0.279332 -3.55103 0
M  V30 6554 O 639.507 -0.177584 -5.46211 0
M  V30 6555 H 636.601 0.0086829 -0.826954 0
M  V30 6556 H 639.147 -0.728189 -1.53282 0
M  V30 6557 H 637.919 -1.37296 -3.66423 0
M  V30 6558 H 637.542 0.315757 -3.96344 0
M  V30 6559 N 638.539 1.52521 -0.396863 0
M  V30 6560 C 639.787 2.01274 0.182536 0
M  V30 6561 C 640.108 1.28485 1.46685 0
M  V30 6562 O 639.378 0.407134 1.91623 0
M  V30 6563 H 637.958 0.743671 0.0704442 0
M  V30 6564 H 640.62 1.87547 -0.530289 0
M  V30 6565 H 639.716 3.09687 0.387385 0
M  V30 6566 N 640.017 0.126909 1.57088 0
M  V30 6567 C 641.433 -0.229641 1.57939 0
M  V30 6568 C 641.633 -1.66145 1.1401 0
M  V30 6569 O 640.689 -2.3843 0.831119 0
M  V30 6570 C 642.002 0.0108648 3.00698 0
M  V30 6571 C 643.55 -0.054418 3.12953 0
M  V30 6572 C 644.025 0.158497 4.57726 0
M  V30 6573 N 645.516 0.104735 4.63082 0
M  V30 6574 C 646.251 0.24427 5.72879 0
M  V30 6575 N 645.747 0.440415 6.91399 0
M  V30 6576 N 647.54 0.183286 5.61801 0
M  V30 6577 H 639.691 1.06203 1.83942 0
M  V30 6578 H 641.954 0.418834 0.85046 0
M  V30 6579 H 641.66 1.00102 3.37154 0
M  V30 6580 H 641.534 -0.717512 3.70313 0
M  V30 6581 H 643.921 -1.0351 2.7635 0
M  V30 6582 H 644.002 0.705967 2.45865 0
M  V30 6583 H 643.646 1.13619 4.95028 0
M  V30 6584 H 643.576 -0.62197 5.22914 0
M  V30 6585 H 646.067 -0.0430298 3.77876 0
M  V30 6586 H 646.38 0.537536 7.70928 0
M  V30 6587 H 644.725 0.476488 6.93365 0
M  V30 6588 H 647.916 0.0309561 4.6809 0
M  V30 6589 H 648.089 0.295471 6.47326 0
M  V30 6590 N 641.495 -1.56914 -0.146875 0
M  V30 6591 C 642.725 -1.87243 -0.873126 0
M  V30 6592 C 643.133 -0.713127 -1.75246 0
M  V30 6593 O 642.476 0.326228 -1.8078 0
M  V30 6594 C 642.538 -3.12279 -1.78107 0
M  V30 6595 C 642.202 -4.44082 -1.07889 0
M  V30 6596 C 643.199 -5.18096 -0.432734 0
M  V30 6597 C 640.884 -4.90807 -1.06836 0
M  V30 6598 C 642.878 -6.37039 0.214569 0
M  V30 6599 C 640.565 -6.09674 -0.417243 0
M  V30 6600 C 641.563 -6.82636 0.223093 0
M  V30 6601 O 641.251 -7.99245 0.863884 0
M  V30 6602 H 640.983 -0.624896 -0.257839 0
M  V30 6603 H 643.537 -2.04892 -0.14434 0
M  V30 6604 H 641.767 -2.90639 -2.5508 0
M  V30 6605 H 643.456 -3.28854 -2.37929 0
M  V30 6606 H 644.222 -4.83066 -0.432677 0
M  V30 6607 H 640.101 -4.3394 -1.55618 0
M  V30 6608 H 643.645 -6.93927 0.714965 0
M  V30 6609 H 639.542 -6.44165 -0.414967 0
M  V30 6610 H 640.31 -8.14912 0.765564 0
M  V30 6611 N 642.974 0.416227 -1.52004 0
M  V30 6612 C 644.251 1.17637 -1.56272 0
M  V30 6613 C 644.631 2.08352 -0.339493 0
M  V30 6614 O 643.979 2.1833 0.674124 0
M  V30 6615 C 644.189 1.95986 -2.88774 0
M  V30 6616 C 645.537 2.52299 -3.41512 0
M  V30 6617 O 646.561 2.06174 -2.90467 0
M  V30 6618 O 645.42 3.3648 -4.30631 0
M  V30 6619 H 642.514 0.536726 -0.629169 0
M  V30 6620 H 645.06 0.423583 -1.64329 0
M  V30 6621 H 643.832 1.29487 -3.69254 0
M  V30 6622 H 643.455 2.78285 -2.83978 0
M  V30 6623 N 644.452 1.42507 0.673017 0
M  V30 6624 C 645.4 1.46362 1.80779 0
M  V30 6625 C 646.394 0.339166 1.6597 0
M  V30 6626 O 647.6 0.512262 1.72557 0
M  V30 6627 H 643.975 0.458433 0.596107 0
M  V30 6628 H 645.946 2.41953 1.74646 0
M  V30 6629 C 644.695 1.38462 3.18941 0
M  V30 6630 H 644.018 2.24283 3.30964 0
M  V30 6631 H 645.458 1.45221 3.98355 0
M  V30 6632 C 643.917 0.0996354 3.36753 0
M  V30 6633 O 644.447 -0.846894 3.92671 0
M  V30 6634 N 642.653 0.016211 2.90595 0
M  V30 6635 H 642.2 0.78725 2.45276 0
M  V30 6636 H 642.158 -0.84291 3.0289 0
M  V30 6637 N 645.93 -0.909495 1.28709 0
M  V30 6638 C 646.877 -2.01245 1.13 0
M  V30 6639 C 647.847 -1.6608 0.0259684 0
M  V30 6640 O 649.032 -1.89835 0.191687 0
M  V30 6641 C 646.172 -3.35644 0.802315 0
M  V30 6642 C 645.285 -3.83653 1.98582 0
M  V30 6643 C 644.42 -5.06582 1.59837 0
M  V30 6644 C 643.459 -5.46934 2.74827 0
M  V30 6645 N 642.596 -6.61053 2.36546 0
M  V30 6646 H 647.436 -2.14013 2.0737 0
M  V30 6647 H 644.973 -1.0482 1.03205 0
M  V30 6648 H 646.931 -4.12963 0.593057 0
M  V30 6649 H 645.561 -3.22631 -0.104457 0
M  V30 6650 H 644.613 -3.02454 2.30708 0
M  V30 6651 H 645.925 -4.09515 2.84779 0
M  V30 6652 H 645.079 -5.91457 1.35143 0
M  V30 6653 H 643.818 -4.82537 0.707753 0
M  V30 6654 H 642.823 -4.60599 3.00215 0
M  V30 6655 H 644.048 -5.72965 3.64538 0
M  V30 6656 H 641.994 -6.3863 1.49959 0
M  V30 6657 H 641.911 -6.86662 3.16277 0
M  V30 6658 H 643.179 -7.49221 2.15146 0
M  V30 6659 N 647.408 -1.11026 -1.11852 0
M  V30 6660 C 648.371 -0.768006 -2.1595 0
M  V30 6661 C 649.371 0.210538 -1.59416 0
M  V30 6662 O 650.561 -0.0133978 -1.74195 0
M  V30 6663 C 647.693 -0.138678 -3.40618 0
M  V30 6664 H 648.886 -1.69012 -2.4774 0
M  V30 6665 H 646.439 -0.911578 -1.26964 0
M  V30 6666 H 647.174 0.793872 -3.14433 0
M  V30 6667 H 646.959 -0.843012 -3.8293 0
M  V30 6668 H 648.449 0.0848039 -4.17514 0
M  V30 6669 N 648.886 1.2938 -0.899927 0
M  V30 6670 C 650.134 1.95164 -0.524924 0
M  V30 6671 C 650.455 1.71292 0.931888 0
M  V30 6672 O 649.725 1.04481 1.65712 0
M  V30 6673 H 648.305 0.722133 -0.191135 0
M  V30 6674 H 650.967 1.57628 -1.14627 0
M  V30 6675 H 650.063 3.0397 -0.707711 0
M  V30 6676 N 650.364 0.662433 1.43002 0
M  V30 6677 C 651.327 -0.0142016 2.29196 0
M  V30 6678 C 652.327 -0.741394 1.42688 0
M  V30 6679 O 653.517 -0.581257 1.64216 0
M  V30 6680 C 650.649 -1.03084 3.24941 0
M  V30 6681 H 651.842 0.7443 2.90517 0
M  V30 6682 H 649.395 0.424133 1.50435 0
M  V30 6683 H 650.13 -1.81826 2.68533 0
M  V30 6684 H 649.915 -0.512946 3.8873 0
M  V30 6685 H 651.405 -1.50308 3.89612 0
M  V30 6686 N 651.842 -1.52309 0.404946 0
M  V30 6687 C 653.09 -2.01368 -0.17186 0
M  V30 6688 C 653.411 -1.29261 -1.46002 0
M  V30 6689 O 652.681 -0.41729 -1.91404 0
M  V30 6690 H 651.261 -0.744034 -0.0664993 0
M  V30 6691 H 653.923 -1.87263 0.540228 0
M  V30 6692 H 653.019 -3.09888 -0.370957 0
M  V30 6693 N 653.32 -0.135238 -1.57019 0
M  V30 6694 C 654.545 0.529343 -2.00531 0
M  V30 6695 C 654.97 1.58391 -1.01459 0
M  V30 6696 O 654.328 1.81296 0.0113986 0
M  V30 6697 C 654.376 1.11748 -3.42848 0
M  V30 6698 O 653.48 2.23267 -3.46736 0
M  V30 6699 H 652.821 0.130669 -0.651016 0
M  V30 6700 H 655.351 -0.228503 -2.0332 0
M  V30 6701 H 655.361 1.44905 -3.81401 0
M  V30 6702 H 654.036 0.345147 -4.14465 0
M  V30 6703 H 652.613 1.91428 -3.20015 0
M  V30 6704 N 654.798 1.5699 0.138552 0
M  V30 6705 C 656.045 1.83809 0.849732 0
M  V30 6706 C 656.373 0.717409 1.80786 0
M  V30 6707 O 655.628 -0.292897 1.93496 0
M  V30 6708 C 655.927 3.17007 1.65049 0
M  V30 6709 C 655.593 4.43037 0.838398 0
M  V30 6710 C 654.255 4.77262 0.614385 0
M  V30 6711 C 656.607 5.20495 0.271044 0
M  V30 6712 C 653.935 5.864 -0.187552 0
M  V30 6713 C 656.287 6.30476 -0.517979 0
M  V30 6714 C 654.951 6.63245 -0.75249 0
M  V30 6715 H 654.221 0.672605 0.310939 0
M  V30 6716 H 656.868 1.91166 0.112971 0
M  V30 6717 H 655.173 3.05138 2.4576 0
M  V30 6718 H 656.87 3.34975 2.20437 0
M  V30 6719 H 653.46 4.16211 1.02307 0
M  V30 6720 H 657.644 4.94422 0.431371 0
M  V30 6721 H 652.9 6.10226 -0.378659 0
M  V30 6722 H 657.074 6.89686 -0.964694 0
M  V30 6723 H 654.701 7.47648 -1.37573 0
M  V30 6724 N 656.276 -0.40816 1.52223 0
M  V30 6725 C 657.208 -1.51642 1.71864 0
M  V30 6726 C 658.221 -1.51378 0.599056 0
M  V30 6727 O 659.41 -1.55626 0.874239 0
M  V30 6728 C 656.51 -2.90534 1.74481 0
M  V30 6729 C 655.683 -3.14979 3.03491 0
M  V30 6730 C 654.742 -4.33749 2.97907 0
M  V30 6731 O 653.768 -4.30982 3.71811 0
M  V30 6732 N 654.97 -5.38912 2.15764 0
M  V30 6733 H 657.735 -1.35188 2.67478 0
M  V30 6734 H 655.296 -0.597468 1.50472 0
M  V30 6735 H 657.288 -3.68056 1.68275 0
M  V30 6736 H 655.858 -3.00441 0.863363 0
M  V30 6737 H 655.078 -2.25492 3.23337 0
M  V30 6738 H 656.366 -3.28156 3.88833 0
M  V30 6739 H 655.764 -5.44008 1.55152 0
M  V30 6740 H 654.321 -6.15174 2.15415 0
M  V30 6741 N 657.755 -1.42862 -0.66545 0
M  V30 6742 C 659.001 -1.44043 -1.42757 0
M  V30 6743 C 659.334 -0.0599629 -1.94107 0
M  V30 6744 O 658.609 0.917286 -1.71511 0
M  V30 6745 C 658.892 -2.47266 -2.61786 0
M  V30 6746 C 658.745 -3.94539 -2.16007 0
M  V30 6747 C 660.064 -2.47365 -3.64003 0
M  V30 6748 H 657.183 -0.524506 -0.517748 0
M  V30 6749 H 659.825 -1.74335 -0.755466 0
M  V30 6750 H 657.975 -2.21565 -3.19126 0
M  V30 6751 H 659.647 -4.31254 -1.63762 0
M  V30 6752 H 657.89 -4.07957 -1.47491 0
M  V30 6753 H 658.561 -4.62357 -3.01546 0
M  V30 6754 H 661.037 -2.70243 -3.16399 0
M  V30 6755 H 659.913 -3.21552 -4.44854 0
M  V30 6756 H 660.174 -1.50299 -4.15767 0
M  V30 6757 N 659.233 0.902656 -1.29189 0
M  V30 6758 C 660.181 2.0278 -1.13943 0
M  V30 6759 C 661.175 1.69308 -0.055787 0
M  V30 6760 O 662.381 1.78707 -0.215371 0
M  V30 6761 H 658.756 0.664595 -0.351877 0
M  V30 6762 H 660.727 2.12778 -2.09208 0
M  V30 6763 C 659.476 3.37657 -0.82966 0
M  V30 6764 H 658.799 3.63913 -1.65551 0
M  V30 6765 H 660.239 4.17078 -0.762998 0
M  V30 6766 C 658.698 3.33648 0.466991 0
M  V30 6767 O 659.228 3.72886 1.49395 0
M  V30 6768 N 657.434 2.86745 0.471761 0
M  V30 6769 H 656.981 2.55009 -0.364406 0
M  V30 6770 H 656.939 2.84446 1.33933 0
M  V30 6771 N 660.711 1.11618 1.11262 0
M  V30 6772 C 661.988 0.777876 1.79467 0
M  V30 6773 C 662.368 -0.733774 1.97937 0
M  V30 6774 O 661.716 -1.66443 1.56554 0
M  V30 6775 C 661.926 1.5431 3.13032 0
M  V30 6776 C 663.274 1.72357 3.88044 0
M  V30 6777 O 664.298 1.5075 3.22727 0
M  V30 6778 O 663.157 2.08276 5.05256 0
M  V30 6779 H 660.251 0.282018 0.777428 0
M  V30 6780 H 662.797 1.21971 1.17988 0
M  V30 6781 H 661.569 2.57132 2.94956 0
M  V30 6782 H 661.192 1.09495 3.82226 0
M  V30 6783 N 662.189 -1.289 0.906776 0
M  V30 6784 C 663.437 -1.94883 0.535266 0
M  V30 6785 C 663.758 -1.71784 -0.922791 0
M  V30 6786 O 663.028 -1.05359 -1.65156 0
M  V30 6787 H 661.608 -0.721109 0.194962 0
M  V30 6788 H 664.27 -1.57018 1.15461 0
M  V30 6789 H 663.366 -3.03591 0.723821 0
M  V30 6790 N 663.667 -0.670007 -1.42649 0
M  V30 6791 C 664.614 0.0112928 -2.30797 0
M  V30 6792 C 665.584 0.797627 -1.45695 0
M  V30 6793 O 666.769 0.770845 -1.74535 0
M  V30 6794 C 663.909 0.95998 -3.31479 0
M  V30 6795 C 663.022 0.167975 -4.31673 0
M  V30 6796 C 662.157 1.11198 -5.19431 0
M  V30 6797 C 661.196 0.311381 -6.11307 0
M  V30 6798 N 660.333 1.20784 -6.91633 0
M  V30 6799 H 665.173 -0.746231 -2.88505 0
M  V30 6800 H 662.71 -0.379739 -1.42114 0
M  V30 6801 H 664.668 1.52379 -3.88377 0
M  V30 6802 H 663.298 1.68419 -2.75382 0
M  V30 6803 H 662.35 -0.512385 -3.76933 0
M  V30 6804 H 663.662 -0.453814 -4.96731 0
M  V30 6805 H 662.816 1.74587 -5.81037 0
M  V30 6806 H 661.555 1.76766 -4.54538 0
M  V30 6807 H 660.56 -0.335758 -5.48774 0
M  V30 6808 H 661.785 -0.340135 -6.78248 0
M  V30 6809 H 659.731 1.85001 -6.29373 0
M  V30 6810 H 659.648 0.64102 -7.53277 0
M  V30 6811 H 660.916 1.82936 -7.5773 0
M  V30 6812 N 665.145 1.52092 -0.413018 0
M  V30 6813 C 666.075 2.30021 0.401567 0
M  V30 6814 C 667.056 1.34395 1.04269 0
M  V30 6815 O 668.241 1.63304 1.05097 0
M  V30 6816 C 665.371 3.12447 1.51638 0
M  V30 6817 C 664.325 4.16153 1.00005 0
M  V30 6818 C 663.651 4.86948 2.20875 0
M  V30 6819 C 664.951 5.22275 0.0513757 0
M  V30 6820 H 666.645 2.98365 -0.248704 0
M  V30 6821 H 664.191 1.4349 -0.121052 0
M  V30 6822 H 666.144 3.65733 2.09326 0
M  V30 6823 H 664.868 2.41879 2.19458 0
M  V30 6824 H 663.527 3.63882 0.445549 0
M  V30 6825 H 663.175 4.12905 2.8726 0
M  V30 6826 H 662.875 5.57057 1.86978 0
M  V30 6827 H 664.399 5.43048 2.79162 0
M  V30 6828 H 665.813 5.70778 0.537176 0
M  V30 6829 H 664.21 5.9977 -0.198977 0
M  V30 6830 H 665.28 4.76611 -0.892736 0
M  V30 6831 N 666.623 0.143563 1.56945 0
M  V30 6832 C 667.851 -0.515447 2.00377 0
M  V30 6833 C 668.266 -1.58643 1.02361 0
M  V30 6834 O 667.623 -1.82489 0.0201039 0
M  V30 6835 C 667.674 -1.11923 3.43737 0
M  V30 6836 O 667.395 -0.0910318 4.38005 0
M  V30 6837 C 668.896 -1.85918 4.02429 0
M  V30 6838 H 666.116 -0.134478 0.657386 0
M  V30 6839 H 668.66 0.237135 2.0312 0
M  V30 6840 H 666.815 -1.82245 3.41856 0
M  V30 6841 H 667.229 -0.532916 5.21786 0
M  V30 6842 H 668.703 -2.2346 5.04747 0
M  V30 6843 H 669.18 -2.7438 3.42947 0
M  V30 6844 H 669.786 -1.20303 4.07931 0
M  V30 6845 N 668.101 -1.57061 -0.130224 0
M  V30 6846 C 669.349 -1.83893 -0.838313 0
M  V30 6847 C 669.67 -0.727046 -1.80939 0
M  V30 6848 O 668.94 0.249927 -1.94299 0
M  V30 6849 H 667.52 -0.67846 -0.312573 0
M  V30 6850 H 670.182 -1.94529 -0.120224 0
M  V30 6851 H 669.278 -2.79419 -1.39038 0
M  V30 6852 N 669.579 0.400081 -1.52437 0
M  V30 6853 C 670.807 1.16768 -1.70801 0
M  V30 6854 C 671.222 1.84036 -0.421462 0
M  V30 6855 O 670.579 1.72242 0.603228 0
M  V30 6856 C 670.63 2.22403 -2.8499 0
M  V30 6857 O 670.351 1.57879 -4.08663 0
M  V30 6858 C 671.852 3.11974 -3.1494 0
M  V30 6859 H 669.072 0.350533 -0.57216 0
M  V30 6860 H 671.616 0.469534 -1.99037 0
M  V30 6861 H 669.771 2.87871 -2.59247 0
M  V30 6862 H 670.185 2.27982 -4.7236 0
M  V30 6863 H 671.659 3.82148 -3.9833 0
M  V30 6864 H 672.136 3.74858 -2.28863 0
M  V30 6865 H 672.742 2.52165 -3.42481 0
M  V30 6866 N 671.057 1.43213 0.657864 0
M  V30 6867 C 672.306 1.43871 1.41365 0
M  V30 6868 C 672.619 0.064898 1.95492 0
M  V30 6869 O 673.825 -0.0510796 2.71452 0
M  V30 6870 C 672.281 2.53158 2.55811 0
M  V30 6871 C 671.889 3.96624 2.08311 0
M  V30 6872 C 673.633 2.63004 3.3321 0
M  V30 6873 C 671.54 4.97385 3.1994 0
M  V30 6874 H 670.47 0.535174 0.531136 0
M  V30 6875 H 673.121 1.69185 0.710543 0
M  V30 6876 H 671.503 2.21037 3.2857 0
M  V30 6877 H 672.677 4.38182 1.42593 0
M  V30 6878 H 670.992 3.90781 1.43804 0
M  V30 6879 H 673.589 3.3546 4.16378 0
M  V30 6880 H 673.932 1.67918 3.80932 0
M  V30 6881 H 674.465 2.94403 2.67529 0
M  V30 6882 H 671.204 5.94007 2.77192 0
M  V30 6883 H 670.724 4.60444 3.84385 0
M  V30 6884 H 672.403 5.19877 3.85145 0
M  V30 6885 N 672.536 -0.895792 1.29666 0
M  V30 6886 C 673.484 -2.02173 1.15017 0
M  V30 6887 C 674.478 -1.69276 0.0647651 0
M  V30 6888 O 675.684 -1.7859 0.224846 0
M  V30 6889 H 672.059 -0.662719 0.355397 0
M  V30 6890 H 674.03 -2.11666 2.10334 0
M  V30 6891 C 672.779 -3.37212 0.847555 0
M  V30 6892 H 672.102 -3.6303 1.67479 0
M  V30 6893 H 673.542 -4.16668 0.785106 0
M  V30 6894 C 672.001 -3.33891 -0.44929 0
M  V30 6895 O 672.531 -3.73673 -1.47415 0
M  V30 6896 N 670.737 -2.86991 -0.456547 0
M  V30 6897 H 670.284 -2.54813 0.377925 0
M  V30 6898 H 670.242 -2.85152 -1.32423 0
M  V30 6899 N 674.014 -1.12206 -1.10668 0
M  V30 6900 C 674.977 -0.790867 -2.15123 0
M  V30 6901 C 675.977 0.193618 -1.5963 0
M  V30 6902 O 677.167 -0.0318728 -1.74171 0
M  V30 6903 C 674.299 -0.174797 -3.40452 0
M  V30 6904 H 675.492 -1.7163 -2.45933 0
M  V30 6905 H 673.045 -0.924993 -1.2599 0
M  V30 6906 H 673.78 0.760478 -3.15257 0
M  V30 6907 H 673.565 -0.88358 -3.82015 0
M  V30 6908 H 675.055 0.0405162 -4.1758 0
M  V30 6909 N 675.492 1.28418 -0.913599 0
M  V30 6910 C 676.908 1.47411 -0.611728 0
M  V30 6911 C 677.108 1.83018 0.843008 0
M  V30 6912 O 676.164 1.93505 1.6221 0
M  V30 6913 C 677.477 2.57703 -1.5495 0
M  V30 6914 C 679.025 2.71572 -1.5562 0
M  V30 6915 C 679.5 3.85008 -2.48058 0
M  V30 6916 N 680.991 3.92361 -2.46184 0
M  V30 6917 C 681.726 4.79516 -3.14407 0
M  V30 6918 N 681.222 5.71262 -3.91958 0
M  V30 6919 N 683.015 4.73125 -3.03495 0
M  V30 6920 H 675.166 1.03585 -1.85429 0
M  V30 6921 H 677.429 0.515907 -0.795326 0
M  V30 6922 H 677.135 2.38298 -2.58663 0
M  V30 6923 H 677.009 3.54801 -1.28048 0
M  V30 6924 H 679.396 2.90366 -0.526441 0
M  V30 6925 H 679.477 1.75006 -1.86565 0
M  V30 6926 H 679.121 3.66969 -3.51136 0
M  V30 6927 H 679.051 4.80971 -2.14416 0
M  V30 6928 H 681.542 3.26749 -1.89851 0
M  V30 6929 H 681.855 6.34593 -4.41034 0
M  V30 6930 H 680.2 5.71103 -3.96063 0
M  V30 6931 H 683.391 4.00442 -2.42413 0
M  V30 6932 H 683.564 5.40834 -3.56935 0
M  V30 6933 N 676.97 0.677563 1.42291 0
M  V30 6934 C 678.195 0.207901 2.06355 0
M  V30 6935 C 678.62 -1.12723 1.50583 0
M  V30 6936 O 677.978 -1.70171 0.62543 0
M  V30 6937 C 678.026 0.156489 3.6026 0
M  V30 6938 O 677.13 -0.874162 4.03029 0
M  V30 6939 H 676.471 0.106056 0.655475 0
M  V30 6940 H 679.001 0.927354 1.82377 0
M  V30 6941 H 679.011 -0.0187258 4.07996 0
M  V30 6942 H 677.686 1.13101 4.00226 0
M  V30 6943 H 676.263 -0.669764 3.66836 0
M  V30 6944 N 678.448 -1.51871 0.421078 0
M  V30 6945 C 679.694 -2.02237 -0.151014 0
M  V30 6946 C 680.027 -1.30554 -1.43768 0
M  V30 6947 O 679.302 -0.41546 -1.90011 0
M  V30 6948 C 679.585 -3.5802 -0.386482 0
M  V30 6949 C 679.438 -4.40339 0.9177 0
M  V30 6950 C 680.757 -4.24444 -1.16342 0
M  V30 6951 H 677.876 -0.735062 -0.0534102 0
M  V30 6952 H 680.518 -1.81656 0.556888 0
M  V30 6953 H 678.668 -3.75688 -0.989494 0
M  V30 6954 H 680.34 -4.34357 1.55344 0
M  V30 6955 H 678.583 -4.06073 1.526 0
M  V30 6956 H 679.254 -5.47451 0.707187 0
M  V30 6957 H 681.73 -4.10948 -0.652788 0
M  V30 6958 H 680.606 -5.33358 -1.29693 0
M  V30 6959 H 680.867 -3.84204 -2.18724 0
M  V30 6960 N 679.926 -0.151884 -1.56866 0
M  V30 6961 C 680.889 0.771861 -2.15812 0
M  V30 6962 C 681.889 1.17181 -1.10115 0
M  V30 6963 O 683.079 1.09194 -1.35729 0
M  V30 6964 C 680.211 2.04806 -2.7252 0
M  V30 6965 H 681.404 0.259021 -2.98779 0
M  V30 6966 H 678.957 0.097588 -1.55995 0
M  V30 6967 H 679.692 2.60445 -1.93233 0
M  V30 6968 H 679.477 1.77044 -3.49854 0
M  V30 6969 H 680.967 2.70771 -3.1792 0
M  V30 6970 N 681.404 1.57128 0.121893 0
M  V30 6971 C 682.65 1.84974 0.831418 0
M  V30 6972 C 682.983 0.737204 1.79663 0
M  V30 6973 O 682.258 -0.257199 1.92792 0
M  V30 6974 C 682.541 3.23397 1.58386 0
M  V30 6975 C 682.394 4.45246 0.638445 0
M  V30 6976 C 683.713 3.59355 2.54071 0
M  V30 6977 H 680.832 0.67282 0.300803 0
M  V30 6978 H 683.474 1.89759 0.0957587 0
M  V30 6979 H 681.624 3.19449 2.21098 0
M  V30 6980 H 683.296 4.61295 0.0203925 0
M  V30 6981 H 681.539 4.33771 -0.05023 0
M  V30 6982 H 682.21 5.38765 1.20151 0
M  V30 6983 H 684.686 3.64075 2.01465 0
M  V30 6984 H 683.562 4.57193 3.03752 0
M  V30 6985 H 683.823 2.86622 3.36601 0
M  V30 6986 N 682.882 -0.391992 1.52647 0
M  V30 6987 C 683.812 -1.48517 1.8018 0
M  V30 6988 C 684.793 -1.57039 0.653667 0
M  V30 6989 O 685.978 -1.72036 0.900962 0
M  V30 6990 C 683.108 -2.86161 1.96797 0
M  V30 6991 C 682.062 -2.92481 3.12472 0
M  V30 6992 C 681.388 -4.32546 3.14338 0
M  V30 6993 C 682.688 -2.624 4.51601 0
M  V30 6994 H 684.382 -1.25726 2.71723 0
M  V30 6995 H 681.928 -0.603387 1.30749 0
M  V30 6996 H 683.881 -3.62639 2.14641 0
M  V30 6997 H 682.605 -3.10283 1.01941 0
M  V30 6998 H 681.264 -2.18451 2.94406 0
M  V30 6999 H 680.912 -4.53703 2.1717 0
M  V30 7000 H 680.612 -4.37695 3.92042 0
M  V30 7001 H 682.136 -5.10934 3.34333 0
M  V30 7002 H 683.55 -3.28596 4.69785 0
M  V30 7003 H 681.947 -2.78903 5.3135 0
M  V30 7004 H 683.017 -1.57754 4.58521 0
M  V30 7005 N 684.36 -1.4356 -0.65026 0
M  V30 7006 C 685.59 -1.48563 -1.4357 0
M  V30 7007 C 685.998 -0.103041 -1.88919 0
M  V30 7008 O 685.341 0.897602 -1.60277 0
M  V30 7009 C 685.403 -2.37181 -2.70158 0
M  V30 7010 C 685.067 -3.84673 -2.4673 0
M  V30 7011 C 686.064 -4.75704 -2.09765 0
M  V30 7012 C 683.749 -4.29189 -2.60963 0
M  V30 7013 C 685.743 -6.09249 -1.87334 0
M  V30 7014 C 683.43 -5.62787 -2.38147 0
M  V30 7015 C 684.428 -6.52634 -2.01389 0
M  V30 7016 O 684.116 -7.83761 -1.78813 0
M  V30 7017 H 683.848 -0.506743 -0.447423 0
M  V30 7018 H 686.402 -1.89001 -0.80423 0
M  V30 7019 H 684.632 -1.91636 -3.35876 0
M  V30 7020 H 686.321 -2.33354 -3.32116 0
M  V30 7021 H 687.087 -4.42589 -1.98343 0
M  V30 7022 H 682.966 -3.59529 -2.88548 0
M  V30 7023 H 686.51 -6.7934 -1.58567 0
M  V30 7024 H 682.407 -5.95469 -2.49173 0
M  V30 7025 H 683.175 -7.95368 -1.93214 0
M  V30 7026 N 685.838 0.888903 -1.30139 0
M  V30 7027 C 687.249 1.45578 -1.16893 0
M  V30 7028 C 687.6 1.94825 0.231866 0
M  V30 7029 O 686.725 1.84661 1.12824 0
M  V30 7030 C 687.32 2.646 -2.11595 0
M  V30 7031 C 685.879 3.17389 -2.02339 0
M  V30 7032 C 685.026 1.90081 -2.01902 0
M  V30 7033 H 687.977 0.69921 -1.42467 0
M  V30 7034 H 687.998 3.40687 -1.69449 0
M  V30 7035 H 687.51 2.28726 -3.13538 0
M  V30 7036 H 685.611 3.5793 -1.03523 0
M  V30 7037 H 685.724 3.80955 -2.90534 0
M  V30 7038 H 684.088 2.08246 -1.46648 0
M  V30 7039 H 684.871 1.5647 -3.05568 0
M  V30 7040 N 687.317 1.12792 1.10072 0
M  V30 7041 C 688.594 0.796867 1.78632 0
M  V30 7042 C 688.974 -0.712739 1.98704 0
M  V30 7043 O 688.322 -1.64773 1.5831 0
M  V30 7044 C 688.532 1.57622 3.11378 0
M  V30 7045 C 689.88 1.76463 3.86194 0
M  V30 7046 O 690.904 1.54165 3.2111 0
M  V30 7047 O 689.763 2.13623 5.03018 0
M  V30 7048 H 686.857 0.290248 0.774394 0
M  V30 7049 H 689.403 1.23215 1.16688 0
M  V30 7050 H 688.175 2.60246 2.92212 0
M  V30 7051 H 687.798 1.13543 3.81043 0
M  V30 7052 N 688.795 -1.27931 0.920396 0
M  V30 7053 C 690.072 -1.89728 0.475687 0
M  V30 7054 C 690.452 -1.8337 -1.04588 0
M  V30 7055 O 689.8 -1.27404 -1.89685 0
M  V30 7056 C 690.01 -3.33959 1.01354 0
M  V30 7057 C 691.358 -4.10907 1.06963 0
M  V30 7058 O 692.382 -3.42945 0.962646 0
M  V30 7059 O 691.241 -5.32399 1.23343 0
M  V30 7060 H 688.335 -0.81294 0.151845 0
M  V30 7061 H 690.881 -1.36252 1.01161 0
M  V30 7062 H 689.653 -3.32843 2.05746 0
M  V30 7063 H 689.276 -3.94944 0.458829 0
M  V30 7064 N 690.273 -0.685099 -1.4193 0
M  V30 7065 C 691.522 -0.208816 -2.00616 0
M  V30 7066 C 691.835 1.19506 -1.54847 0
M  V30 7067 O 693.041 1.76826 -2.06021 0
M  V30 7068 C 691.497 -0.322446 -3.58453 0
M  V30 7069 C 691.105 -1.73102 -4.13206 0
M  V30 7070 C 692.849 0.0945979 -4.24395 0
M  V30 7071 C 690.756 -1.79687 -5.63442 0
M  V30 7072 H 689.686 -0.0743092 -0.750329 0
M  V30 7073 H 692.337 -0.851778 -1.62533 0
M  V30 7074 H 690.719 0.388588 -3.94089 0
M  V30 7075 H 691.893 -2.46997 -3.8901 0
M  V30 7076 H 690.208 -2.09682 -3.59753 0
M  V30 7077 H 692.805 0.0656937 -5.3466 0
M  V30 7078 H 693.148 1.1316 -4.00625 0
M  V30 7079 H 693.681 -0.56579 -3.93756 0
M  V30 7080 H 690.42 -2.81404 -5.92024 0
M  V30 7081 H 689.94 -1.10162 -5.89597 0
M  V30 7082 H 691.619 -1.55498 -6.28036 0
M  V30 7083 N 691.751 1.51645 -0.429126 0
M  V30 7084 C 692.714 2.26116 0.374726 0
M  V30 7085 C 693.714 1.29242 0.956714 0
M  V30 7086 O 694.904 1.53022 0.832452 0
M  V30 7087 C 692.036 3.04669 1.52937 0
M  V30 7088 H 693.229 2.9861 -0.277818 0
M  V30 7089 H 690.782 1.55236 -0.182097 0
M  V30 7090 H 691.517 2.36571 2.21821 0
M  V30 7091 H 691.302 3.75814 1.11833 0
M  V30 7092 H 692.792 3.61102 2.09751 0
M  V30 7093 N 693.229 0.160201 1.56784 0
M  V30 7094 C 694.176 -0.774416 2.1742 0
M  V30 7095 C 695.146 -1.23483 1.11091 0
M  V30 7096 O 696.331 -1.30499 1.39193 0
M  V30 7097 C 693.471 -2.00283 2.81035 0
M  V30 7098 C 692.584 -1.58701 4.01793 0
M  V30 7099 C 691.719 -2.76824 4.53367 0
M  V30 7100 C 690.758 -2.31679 5.66561 0
M  V30 7101 N 689.895 -3.42856 6.12694 0
M  V30 7102 H 694.735 -0.250542 2.96945 0
M  V30 7103 H 692.272 -0.111943 1.46673 0
M  V30 7104 H 694.23 -2.72316 3.16069 0
M  V30 7105 H 692.86 -2.5006 2.04132 0
M  V30 7106 H 691.912 -0.76384 3.72652 0
M  V30 7107 H 693.224 -1.21555 4.83762 0
M  V30 7108 H 692.378 -3.57029 4.90525 0
M  V30 7109 H 691.117 -3.17223 3.70433 0
M  V30 7110 H 690.122 -1.49917 5.28966 0
M  V30 7111 H 691.347 -1.9235 6.5129 0
M  V30 7112 H 689.293 -3.82852 5.32692 0
M  V30 7113 H 689.21 -3.09767 6.89624 0
M  V30 7114 H 690.478 -4.23379 6.545 0
M  V30 7115 N 694.707 -1.5719 -0.113559 0
M  V30 7116 C 695.67 -1.99796 -1.12314 0
M  V30 7117 C 696.67 -0.888847 -1.34001 0
M  V30 7118 O 697.86 -1.15476 -1.30426 0
M  V30 7119 C 694.992 -2.34279 -2.47641 0
M  V30 7120 H 696.185 -2.90193 -0.756825 0
M  V30 7121 H 693.738 -1.52144 -0.358029 0
M  V30 7122 H 694.473 -1.46778 -2.89183 0
M  V30 7123 H 694.258 -3.15175 -2.33253 0
M  V30 7124 H 695.748 -2.67963 -3.2029 0
M  V30 7125 N 696.185 0.383891 -1.52853 0
M  V30 7126 C 697.596 0.961591 -1.60032 0
M  V30 7127 C 697.947 1.90819 -0.456333 0
M  V30 7128 O 697.072 2.12288 0.419873 0
M  V30 7129 C 697.667 1.75078 -2.90057 0
M  V30 7130 C 696.226 2.2781 -2.99632 0
M  V30 7131 C 695.373 1.08512 -2.55187 0
M  V30 7132 H 698.324 0.163269 -1.57858 0
M  V30 7133 H 698.345 2.61046 -2.7683 0
M  V30 7134 H 697.857 1.06157 -3.73299 0
M  V30 7135 H 695.958 3.00028 -2.20939 0
M  V30 7136 H 696.071 2.56947 -4.0437 0
M  V30 7137 H 694.435 1.44667 -2.09627 0
M  V30 7138 H 695.218 0.41118 -3.40829 0
M  V30 7139 N 697.663 1.43903 0.642637 0
M  V30 7140 C 698.613 1.46321 1.74854 0
M  V30 7141 C 699.597 0.330361 1.57472 0
M  V30 7142 O 700.789 0.574881 1.67404 0
M  V30 7143 C 697.918 1.39919 3.13493 0
M  V30 7144 C 697.004 2.58274 3.36385 0
M  V30 7145 N 697.395 3.83578 3.29699 0
M  V30 7146 C 695.693 2.53224 3.67142 0
M  V30 7147 C 696.394 4.62375 3.52965 0
M  V30 7148 N 695.37 3.93269 3.75287 0
M  V30 7149 H 699.172 2.41062 1.68126 0
M  V30 7150 H 696.686 1.38704 0.844693 0
M  V30 7151 H 698.683 1.39735 3.92785 0
M  V30 7152 H 697.343 0.46207 3.21395 0
M  V30 7153 H 698.354 4.15713 3.08874 0
M  V30 7154 H 695.031 1.68252 3.82096 0
M  V30 7155 H 696.421 5.714 3.53485 0
M  V30 7156 N 699.141 -0.881989 1.30609 0
M  V30 7157 C 700.387 -1.63647 1.19781 0
M  V30 7158 C 700.72 -1.92632 -0.246265 0
M  V30 7159 O 699.995 -1.54938 -1.17577 0
M  V30 7160 C 700.278 -2.97437 2.02985 0
M  V30 7161 C 700.131 -2.75406 3.55628 0
M  V30 7162 C 701.45 -3.98397 1.86997 0
M  V30 7163 H 698.569 -0.593841 0.436488 0
M  V30 7164 H 701.211 -1.02041 1.60273 0
M  V30 7165 H 699.361 -3.50018 1.68581 0
M  V30 7166 H 701.033 -2.2959 4.00107 0
M  V30 7167 H 699.276 -2.09856 3.79662 0
M  V30 7168 H 699.947 -3.70552 4.09139 0
M  V30 7169 H 702.423 -3.54986 2.17081 0
M  V30 7170 H 701.299 -4.89916 2.47536 0
M  V30 7171 H 701.56 -4.3424 0.829943 0
M  V30 7172 N 700.619 -1.13374 -1.09472 0
M  V30 7173 C 701.866 -0.89519 -1.81639 0
M  V30 7174 C 702.194 0.57868 -1.85692 0
M  V30 7175 O 701.449 1.44426 -1.32059 0
M  V30 7176 C 701.748 -1.42759 -3.2765 0
M  V30 7177 C 701.414 -2.91822 -3.43731 0
M  V30 7178 C 700.076 -3.32521 -3.47827 0
M  V30 7179 C 702.428 -3.87727 -3.48307 0
M  V30 7180 C 699.756 -4.6781 -3.54078 0
M  V30 7181 C 702.108 -5.22859 -3.56091 0
M  V30 7182 C 700.772 -5.63086 -3.58456 0
M  V30 7183 H 700.042 -0.327573 -0.664663 0
M  V30 7184 H 702.689 -1.4156 -1.28969 0
M  V30 7185 H 700.994 -0.827871 -3.82954 0
M  V30 7186 H 702.691 -1.2191 -3.8202 0
M  V30 7187 H 699.281 -2.5935 -3.41226 0
M  V30 7188 H 703.465 -3.57371 -3.44383 0
M  V30 7189 H 698.721 -4.98353 -3.54195 0
M  V30 7190 H 702.895 -5.96989 -3.58577 0
M  V30 7191 H 700.522 -6.67905 -3.63052 0
M  V30 7192 N 702.098 1.27442 -0.927168 0
M  V30 7193 C 703.028 2.29256 -0.443188 0
M  V30 7194 C 704.009 1.62701 0.49624 0
M  V30 7195 O 705.194 1.90013 0.401105 0
M  V30 7196 C 702.324 3.45955 0.305366 0
M  V30 7197 C 701.278 4.24501 -0.546178 0
M  V30 7198 C 700.604 5.33671 0.331512 0
M  V30 7199 C 701.904 4.89921 -1.81037 0
M  V30 7200 H 703.598 2.69988 -1.29409 0
M  V30 7201 H 701.144 1.29792 -0.623705 0
M  V30 7202 H 703.097 4.1628 0.654885 0
M  V30 7203 H 701.821 3.04138 1.19029 0
M  V30 7204 H 700.48 3.55921 -0.878398 0
M  V30 7205 H 700.128 4.88096 1.21537 0
M  V30 7206 H 699.828 5.87131 -0.234746 0
M  V30 7207 H 701.352 6.0684 0.676614 0
M  V30 7208 H 702.766 5.52536 -1.52895 0
M  V30 7209 H 701.163 5.53436 -2.32009 0
M  V30 7210 H 702.233 4.13652 -2.53021 0
M  V30 7211 N 703.576 0.692616 1.41565 0
M  V30 7212 C 704.486 0.0258451 2.34586 0
M  V30 7213 C 705.502 -0.769324 1.56069 0
M  V30 7214 O 706.678 -0.707563 1.88562 0
M  V30 7215 C 703.743 -0.901289 3.3478 0
M  V30 7216 C 702.804 -0.0986579 4.29187 0
M  V30 7217 C 702.037 -0.981634 5.24595 0
M  V30 7218 O 702.26 -2.22115 5.25377 0
M  V30 7219 O 701.194 -0.432892 6.00341 0
M  V30 7220 H 705.02 0.792537 2.93177 0
M  V30 7221 H 702.605 0.452935 1.42369 0
M  V30 7222 H 704.487 -1.43302 3.96286 0
M  V30 7223 H 703.162 -1.64752 2.78637 0
M  V30 7224 H 702.069 0.477604 3.71039 0
M  V30 7225 H 703.402 0.608848 4.8842 0
M  V30 7226 N 705.054 -1.51416 0.437162 0
M  V30 7227 C 706.002 -2.29328 -0.388765 0
M  V30 7228 C 706.996 -1.35171 -1.02104 0
M  V30 7229 O 708.202 -1.52513 -0.956024 0
M  V30 7230 H 704.577 -0.738048 -0.144183 0
M  V30 7231 H 706.548 -2.96995 0.289212 0
M  V30 7232 C 705.297 -3.14741 -1.47761 0
M  V30 7233 H 704.62 -3.8708 -1.00045 0
M  V30 7234 H 706.06 -3.72313 -2.02877 0
M  V30 7235 C 704.519 -2.30105 -2.46076 0
M  V30 7236 O 705.049 -1.96055 -3.50607 0
M  V30 7237 N 703.255 -1.93331 -2.1696 0
M  V30 7238 H 702.802 -2.2122 -1.31983 0
M  V30 7239 H 702.76 -1.36999 -2.82982 0
M  V30 7240 N 706.532 -0.168513 -1.56696 0
M  V30 7241 C 707.762 0.482802 -2.0088 0
M  V30 7242 C 708.17 1.57537 -1.0478 0
M  V30 7243 O 707.513 1.83656 -0.0402746 0
M  V30 7244 C 707.575 1.1236 -3.4149 0
M  V30 7245 C 707.239 0.173027 -4.56672 0
M  V30 7246 C 708.236 -0.607565 -5.16338 0
M  V30 7247 C 705.921 0.0696691 -5.02252 0
M  V30 7248 C 707.915 -1.47874 -6.2001 0
M  V30 7249 C 705.602 -0.805096 -6.05773 0
M  V30 7250 C 706.6 -1.57789 -6.64524 0
M  V30 7251 O 706.288 -2.43804 -7.66038 0
M  V30 7252 H 706.02 0.128246 -0.663723 0
M  V30 7253 H 708.574 -0.266532 -2.03663 0
M  V30 7254 H 706.804 1.921 -3.35611 0
M  V30 7255 H 708.493 1.67683 -3.69645 0
M  V30 7256 H 709.259 -0.53787 -4.82008 0
M  V30 7257 H 705.138 0.660957 -4.56237 0
M  V30 7258 H 708.682 -2.0824 -6.65794 0
M  V30 7259 H 704.579 -0.876005 -6.39528 0
M  V30 7260 H 705.347 -2.37289 -7.83349 0
M  V30 7261 N 708.01 1.57248 0.105221 0
M  V30 7262 C 708.957 2.01338 1.12835 0
M  V30 7263 C 709.927 0.887897 1.40377 0
M  V30 7264 O 711.112 1.15315 1.5201 0
M  V30 7265 C 708.252 2.43432 2.44611 0
M  V30 7266 C 707.365 3.69457 2.23888 0
M  V30 7267 C 706.5 4.00473 3.48991 0
M  V30 7268 C 705.539 5.19638 3.23485 0
M  V30 7269 N 704.676 5.46457 4.40828 0
M  V30 7270 H 709.516 2.88527 0.745386 0
M  V30 7271 H 707.053 1.42714 0.356535 0
M  V30 7272 H 709.011 2.65879 3.21503 0
M  V30 7273 H 707.641 1.59266 2.80774 0
M  V30 7274 H 706.693 3.54545 1.37847 0
M  V30 7275 H 708.005 4.56497 2.01026 0
M  V30 7276 H 707.159 4.23642 4.34295 0
M  V30 7277 H 705.898 3.11935 3.74897 0
M  V30 7278 H 704.903 4.96299 2.36574 0
M  V30 7279 H 706.128 6.09766 2.98935 0
M  V30 7280 H 704.074 4.60876 4.66829 0
M  V30 7281 H 703.991 6.27849 4.2112 0
M  V30 7282 H 705.259 5.74155 5.27225 0
M  V30 7283 N 709.488 -0.375779 1.53054 0
M  V30 7284 C 710.716 -1.14036 1.72637 0
M  V30 7285 C 711.131 -1.83342 0.450687 0
M  V30 7286 O 710.488 -1.7318 -0.575749 0
M  V30 7287 C 710.539 -2.17841 2.88492 0
M  V30 7288 O 710.26 -1.51358 4.11123 0
M  V30 7289 C 711.761 -3.06924 3.19863 0
M  V30 7290 H 708.981 -0.341386 0.577665 0
M  V30 7291 H 711.525 -0.437809 1.99759 0
M  V30 7292 H 709.68 -2.8371 2.63794 0
M  V30 7293 H 710.094 -2.20439 4.75928 0
M  V30 7294 H 711.568 -3.75763 4.04359 0
M  V30 7295 H 712.045 -3.71169 2.34798 0
M  V30 7296 H 712.651 -2.46684 3.46449 0
M  V30 7297 N 710.966 -1.44241 -0.634997 0
M  V30 7298 C 712.214 -1.46531 -1.39187 0
M  V30 7299 C 712.535 -0.0976441 -1.94755 0
M  V30 7300 O 711.805 0.869528 -1.75545 0
M  V30 7301 H 710.385 -0.539544 -0.516625 0
M  V30 7302 H 713.047 -1.79989 -0.747655 0
M  V30 7303 H 712.143 -2.18848 -2.22513 0
M  V30 7304 N 712.444 0.87505 -1.31075 0
M  V30 7305 C 713.69 1.63009 -1.20647 0
M  V30 7306 C 714.023 1.9276 0.236045 0
M  V30 7307 O 713.298 1.55559 1.16754 0
M  V30 7308 C 713.581 2.96357 -2.0456 0
M  V30 7309 C 713.434 2.73516 -3.57084 0
M  V30 7310 C 714.753 3.974 -1.89107 0
M  V30 7311 H 711.872 0.591518 -0.439631 0
M  V30 7312 H 714.514 1.0119 -1.60812 0
M  V30 7313 H 712.664 3.49119 -1.70435 0
M  V30 7314 H 714.336 2.27465 -4.01319 0
M  V30 7315 H 712.579 2.0784 -3.80769 0
M  V30 7316 H 713.25 3.68377 -4.11099 0
M  V30 7317 H 715.726 3.5383 -2.18961 0
M  V30 7318 H 714.602 4.88596 -2.5013 0
M  V30 7319 H 714.863 4.33794 -0.85296 0
M  V30 7320 N 713.922 1.13953 1.08869 0
M  V30 7321 C 715.15 0.92817 1.84912 0
M  V30 7322 C 715.565 -0.523197 1.81406 0
M  V30 7323 O 714.922 -1.36237 1.21432 0
M  V30 7324 C 714.973 1.41509 3.32652 0
M  V30 7325 O 714.694 2.80959 3.36145 0
M  V30 7326 C 716.195 1.243 4.25517 0
M  V30 7327 H 713.415 0.330612 0.583898 0
M  V30 7328 H 715.959 1.51349 1.37527 0
M  V30 7329 H 714.114 0.872648 3.77444 0
M  V30 7330 H 714.528 3.02704 4.28335 0
M  V30 7331 H 716.002 1.63237 5.27312 0
M  V30 7332 H 716.479 0.18532 4.38809 0
M  V30 7333 H 717.085 1.77375 3.86546 0
M  V30 7334 N 715.4 -1.26948 0.933913 0
M  V30 7335 C 716.35 -2.24306 0.408779 0
M  V30 7336 C 717.334 -1.53243 -0.490435 0
M  V30 7337 O 718.526 -1.73956 -0.326866 0
M  V30 7338 C 715.655 -3.41695 -0.331578 0
M  V30 7339 C 714.741 -4.20053 0.58451 0
M  V30 7340 N 715.132 -4.76122 1.70709 0
M  V30 7341 C 713.43 -4.44303 0.388703 0
M  V30 7342 C 714.131 -5.35267 2.27737 0
M  V30 7343 N 713.107 -5.20548 1.56622 0
M  V30 7344 H 716.909 -2.65244 1.26582 0
M  V30 7345 H 714.423 -1.4195 0.788919 0
M  V30 7346 H 716.42 -4.10552 -0.724774 0
M  V30 7347 H 715.08 -3.02286 -1.18547 0
M  V30 7348 H 716.091 -4.73884 2.08937 0
M  V30 7349 H 712.768 -4.15341 -0.424016 0
M  V30 7350 H 714.158 -5.89563 3.22282 0
M  V30 7351 N 716.879 -0.700114 -1.41195 0
M  V30 7352 C 718.104 -0.240704 -2.05998 0
M  V30 7353 C 718.529 1.10313 -1.52357 0
M  V30 7354 O 717.887 1.69154 -0.652424 0
M  V30 7355 C 717.935 -0.213783 -3.59966 0
M  V30 7356 O 717.039 0.809933 -4.04368 0
M  V30 7357 H 716.38 -0.116471 -0.653705 0
M  V30 7358 H 718.91 -0.956251 -1.80878 0
M  V30 7359 H 718.92 -0.0461852 -4.07974 0
M  V30 7360 H 717.595 -1.19454 -3.98376 0
M  V30 7361 H 716.172 0.611319 -3.67855 0
M  V30 7362 N 718.357 1.51182 -0.445186 0
M  V30 7363 C 719.604 2.02152 0.118645 0
M  V30 7364 C 719.932 1.32888 1.42025 0
M  V30 7365 O 719.187 0.435041 1.90803 0
M  V30 7366 C 719.486 3.55408 0.376797 0
M  V30 7367 C 719.152 4.43008 -0.839945 0
M  V30 7368 C 717.814 4.66669 -1.17361 0
M  V30 7369 C 720.166 4.9435 -1.65127 0
M  V30 7370 C 717.494 5.38919 -2.31913 0
M  V30 7371 C 719.846 5.67857 -2.78786 0
M  V30 7372 C 718.51 5.89779 -3.12597 0
M  V30 7373 H 717.78 0.739727 0.0434152 0
M  V30 7374 H 720.427 1.82055 -0.593984 0
M  V30 7375 H 718.732 3.73879 1.1714 0
M  V30 7376 H 720.429 3.92388 0.826602 0
M  V30 7377 H 717.019 4.24793 -0.569958 0
M  V30 7378 H 721.203 4.75947 -1.4067 0
M  V30 7379 H 716.459 5.54105 -2.58413 0
M  V30 7380 H 720.633 6.06628 -3.42017 0
M  V30 7381 H 718.26 6.45542 -4.01471 0
M  V30 7382 N 719.835 0.176821 1.56605 0
M  V30 7383 C 720.783 -0.768159 2.1955 0
M  V30 7384 C 721.777 -1.23343 1.16116 0
M  V30 7385 O 722.983 -1.19844 1.34303 0
M  V30 7386 H 719.358 -0.266013 0.703378 0
M  V30 7387 H 721.329 -0.213374 2.97636 0
M  V30 7388 C 720.078 -1.98492 2.85475 0
M  V30 7389 H 719.401 -1.63595 3.64797 0
M  V30 7390 H 720.841 -2.62489 3.3298 0
M  V30 7391 C 719.3 -2.81207 1.85538 0
M  V30 7392 O 719.83 -3.7854 1.34427 0
M  V30 7393 N 718.036 -2.46331 1.54173 0
M  V30 7394 H 717.583 -1.67241 1.95929 0
M  V30 7395 H 717.541 -3.01961 0.875595 0
M  V30 7396 N 721.313 -1.57302 -0.09688 0
M  V30 7397 C 722.59 -1.7701 -0.832272 0
M  V30 7398 C 722.97 -0.758025 -1.97021 0
M  V30 7399 O 722.318 0.213824 -2.27497 0
M  V30 7400 C 722.528 -3.22725 -1.32851 0
M  V30 7401 C 723.876 -3.85856 -1.772 0
M  V30 7402 O 724.9 -3.26464 -1.42478 0
M  V30 7403 O 723.759 -4.90295 -2.41398 0
M  V30 7404 H 720.853 -0.725558 -0.396856 0
M  V30 7405 H 723.399 -1.69516 -0.0789005 0
M  V30 7406 H 722.171 -3.87921 -0.51312 0
M  V30 7407 H 721.794 -3.34845 -2.14394 0
M  V30 7408 N 722.791 0.367657 -1.53252 0
M  V30 7409 C 723.723 1.47032 -1.75824 0
M  V30 7410 C 724.736 1.49736 -0.63898 0
M  V30 7411 O 725.925 1.53253 -0.915193 0
M  V30 7412 C 723.025 2.85805 -1.82122 0
M  V30 7413 C 722.198 3.06822 -3.11736 0
M  V30 7414 C 721.257 4.25698 -3.09302 0
M  V30 7415 O 720.283 4.20972 -3.83107 0
M  V30 7416 N 721.485 5.33002 -2.29977 0
M  V30 7417 H 724.25 1.28048 -2.70968 0
M  V30 7418 H 721.811 0.557363 -1.52004 0
M  V30 7419 H 723.803 3.63465 -1.77975 0
M  V30 7420 H 722.373 2.98046 -0.942716 0
M  V30 7421 H 721.593 2.1684 -3.29202 0
M  V30 7422 H 722.881 3.17731 -3.97397 0
M  V30 7423 H 722.279 5.39703 -1.69521 0
M  V30 7424 H 720.836 6.09247 -2.3165 0
M  V30 7425 N 724.269 1.44576 0.627338 0
M  V30 7426 C 725.199 1.54562 1.75022 0
M  V30 7427 C 726.18 0.398378 1.65369 0
M  V30 7428 O 727.365 0.61899 1.84071 0
M  V30 7429 C 724.495 1.49309 3.13567 0
M  V30 7430 C 723.449 2.62549 3.38012 0
M  V30 7431 C 722.775 2.42348 4.76625 0
M  V30 7432 C 724.075 4.04678 3.30202 0
M  V30 7433 H 725.769 2.4855 1.66922 0
M  V30 7434 H 723.315 1.19624 0.801636 0
M  V30 7435 H 725.268 1.54895 3.919 0
M  V30 7436 H 723.992 0.518392 3.2246 0
M  V30 7437 H 722.651 2.56358 2.62061 0
M  V30 7438 H 722.299 1.43062 4.82226 0
M  V30 7439 H 721.999 3.18273 4.93939 0
M  V30 7440 H 723.523 2.49758 5.57183 0
M  V30 7441 H 724.937 4.12217 3.98435 0
M  V30 7442 H 723.334 4.80836 3.5905 0
M  V30 7443 H 724.404 4.2798 2.27949 0
M  V30 7444 N 725.747 -0.868086 1.31537 0
M  V30 7445 C 726.975 -1.65402 1.24298 0
M  V30 7446 C 727.39 -1.87827 -0.191389 0
M  V30 7447 O 726.747 -1.43776 -1.12404 0
M  V30 7448 C 726.798 -3.02093 1.9855 0
M  V30 7449 O 726.519 -2.80668 3.36388 0
M  V30 7450 C 728.02 -3.96538 1.98173 0
M  V30 7451 H 725.24 -0.515598 0.429417 0
M  V30 7452 H 727.784 -1.0834 1.73444 0
M  V30 7453 H 725.939 -3.55838 1.53161 0
M  V30 7454 H 726.353 -3.67504 3.74221 0
M  V30 7455 H 727.827 -4.8976 2.54635 0
M  V30 7456 H 728.304 -4.28474 0.964697 0
M  V30 7457 H 728.91 -3.48729 2.4345 0
M  V30 7458 N 727.225 -1.14528 -1.08264 0
M  V30 7459 C 728.474 -0.908992 -1.80056 0
M  V30 7460 C 728.787 0.565859 -1.87236 0
M  V30 7461 O 729.993 0.919454 -2.55457 0
M  V30 7462 C 728.449 -1.57681 -3.23519 0
M  V30 7463 C 728.057 -3.08803 -3.24569 0
M  V30 7464 C 729.801 -1.4217 -3.99985 0
M  V30 7465 C 727.708 -3.68414 -4.62629 0
M  V30 7466 H 726.638 -0.336432 -0.674781 0
M  V30 7467 H 729.289 -1.37437 -1.21587 0
M  V30 7468 H 727.671 -1.03911 -3.82124 0
M  V30 7469 H 728.845 -3.69252 -2.75663 0
M  V30 7470 H 727.16 -3.23968 -2.61598 0
M  V30 7471 H 729.757 -1.84106 -5.02005 0
M  V30 7472 H 730.1 -0.367989 -4.1467 0
M  V30 7473 H 730.633 -1.92984 -3.47853 0
M  V30 7474 H 727.372 -4.73644 -4.53147 0
M  V30 7475 H 726.892 -3.12746 -5.11811 0
M  V30 7476 H 728.571 -3.68793 -5.31602 0
M  V30 7477 N 728.703 1.26451 -0.940633 0
M  V30 7478 C 729.931 1.97868 -0.604642 0
M  V30 7479 C 730.346 1.70051 0.820251 0
M  V30 7480 O 729.703 0.96843 1.54686 0
M  V30 7481 C 729.754 3.51684 -0.836689 0
M  V30 7482 O 729.475 3.78533 -2.20554 0
M  V30 7483 C 730.976 4.40343 -0.511169 0
M  V30 7484 H 728.196 0.631105 -0.227919 0
M  V30 7485 H 730.74 1.60979 -1.26119 0
M  V30 7486 H 728.895 3.86736 -0.226759 0
M  V30 7487 H 729.309 4.73065 -2.26517 0
M  V30 7488 H 730.783 5.47229 -0.724157 0
M  V30 7489 H 731.26 4.35694 0.553815 0
M  V30 7490 H 731.866 4.10834 -1.0998 0
M  V30 7491 N 730.181 0.707592 1.40822 0
M  V30 7492 C 731.111 0.0644925 2.33411 0
M  V30 7493 C 732.092 -0.754205 1.52466 0
M  V30 7494 O 733.277 -0.704749 1.80961 0
M  V30 7495 C 730.407 -0.863865 3.36385 0
M  V30 7496 C 729.361 -0.15138 4.27732 0
M  V30 7497 C 728.687 -1.19491 5.21177 0
M  V30 7498 C 729.987 0.989607 5.12839 0
M  V30 7499 H 731.681 0.837829 2.87438 0
M  V30 7500 H 729.227 0.404346 1.38207 0
M  V30 7501 H 731.18 -1.32309 4.0009 0
M  V30 7502 H 729.904 -1.66901 2.80734 0
M  V30 7503 H 728.563 0.287937 3.65467 0
M  V30 7504 H 728.211 -1.9929 4.61836 0
M  V30 7505 H 727.911 -0.723123 5.83134 0
M  V30 7506 H 729.435 -1.6544 5.8776 0
M  V30 7507 H 730.849 0.610114 5.70044 0
M  V30 7508 H 729.246 1.38926 5.83798 0
M  V30 7509 H 730.316 1.82389 4.49291 0
M  V30 7510 N 731.66 -1.50943 0.453197 0
M  V30 7511 C 733.076 -1.59245 0.106342 0
M  V30 7512 C 733.276 -1.46287 -1.38572 0
M  V30 7513 O 732.332 -1.31219 -2.15726 0
M  V30 7514 C 733.645 -2.93797 0.640595 0
M  V30 7515 C 735.193 -3.07148 0.602435 0
M  V30 7516 C 735.668 -4.44247 1.11393 0
M  V30 7517 N 737.159 -4.50611 1.07258 0
M  V30 7518 C 737.894 -5.55049 1.43905 0
M  V30 7519 N 737.39 -6.66828 1.87914 0
M  V30 7520 N 739.183 -5.45494 1.35621 0
M  V30 7521 H 731.334 -1.5761 1.42382 0
M  V30 7522 H 733.597 -0.74384 0.587713 0
M  V30 7523 H 733.303 -3.087 1.68515 0
M  V30 7524 H 733.177 -3.77127 0.0742272 0
M  V30 7525 H 735.564 -2.91903 -0.433171 0
M  V30 7526 H 735.645 -2.25619 1.20539 0
M  V30 7527 H 735.289 -4.60239 2.14808 0
M  V30 7528 H 735.219 -5.2434 0.487353 0
M  V30 7529 H 737.71 -3.70391 0.749585 0
M  V30 7530 H 738.023 -7.42558 2.14072 0
M  V30 7531 H 736.368 -6.67995 1.91853 0
M  V30 7532 H 739.559 -4.57053 1.01093 0
M  V30 7533 H 739.732 -6.2677 1.64508 0
M  V30 7534 N 733.138 -0.185124 -1.56509 0
M  V30 7535 C 734.101 0.72591 -2.17401 0
M  V30 7536 C 735.101 1.14819 -1.12575 0
M  V30 7537 O 736.291 1.0629 -1.38015 0
M  V30 7538 C 733.423 1.98979 -2.76803 0
M  V30 7539 H 734.616 0.195588 -2.99262 0
M  V30 7540 H 732.169 0.0644772 -1.56167 0
M  V30 7541 H 732.904 2.56287 -1.98714 0
M  V30 7542 H 732.689 1.69583 -3.53531 0
M  V30 7543 H 734.179 2.63966 -3.23592 0
M  V30 7544 N 734.616 1.57351 0.0885366 0
M  V30 7545 C 735.893 1.77449 0.822873 0
M  V30 7546 C 736.273 0.768463 1.96616 0
M  V30 7547 O 735.621 -0.201757 2.27608 0
M  V30 7548 C 735.831 3.23425 1.31137 0
M  V30 7549 C 737.179 3.86791 1.75152 0
M  V30 7550 O 738.203 3.27215 1.40745 0
M  V30 7551 O 737.062 4.91568 2.38794 0
M  V30 7552 H 734.156 0.727653 0.393002 0
M  V30 7553 H 736.702 1.69556 0.0699095 0
M  V30 7554 H 735.474 3.88188 0.49254 0
M  V30 7555 H 735.097 3.35977 2.12615 0
M  V30 7556 N 736.094 -0.359525 1.53444 0
M  V30 7557 C 737.057 -1.42357 1.7963 0
M  V30 7558 C 738.057 -1.46319 0.666884 0
M  V30 7559 O 739.247 -1.46974 0.935113 0
M  V30 7560 C 736.379 -2.81425 1.92387 0
M  V30 7561 H 737.572 -1.20409 2.74666 0
M  V30 7562 H 735.125 -0.593007 1.44614 0
M  V30 7563 H 735.86 -3.08679 0.994384 0
M  V30 7564 H 735.645 -2.79947 2.74539 0
M  V30 7565 H 737.135 -3.5847 2.14218 0
M  V30 7566 N 737.572 -1.44907 -0.619662 0
M  V30 7567 C 738.52 -1.52971 -1.75222 0
M  V30 7568 C 739.514 -0.400531 -1.64597 0
M  V30 7569 O 740.72 -0.575952 -1.70537 0
M  V30 7570 H 737.095 -0.480241 -0.578682 0
M  V30 7571 H 739.066 -2.48269 -1.65545 0
M  V30 7572 C 737.815 -1.50204 -3.13583 0
M  V30 7573 H 737.138 -2.36412 -3.22412 0
M  V30 7574 H 738.578 -1.59905 -3.92691 0
M  V30 7575 C 737.037 -0.22455 -3.36151 0
M  V30 7576 O 737.567 0.700574 -3.95544 0
M  V30 7577 N 735.773 -0.124052 -2.90335 0
M  V30 7578 H 735.32 -0.87774 -2.42185 0
M  V30 7579 H 735.278 0.729914 -3.0581 0
M  V30 7580 N 739.05 0.861098 -1.31996 0
M  V30 7581 C 740.278 1.6474 -1.25173 0
M  V30 7582 C 740.693 1.87926 0.181425 0
M  V30 7583 O 740.05 1.4437 1.1164 0
M  V30 7584 C 740.101 3.01036 -2.0015 0
M  V30 7585 O 739.822 2.7888 -3.37872 0
M  V30 7586 C 741.323 3.95481 -2.00273 0
M  V30 7587 H 738.543 0.513314 -0.432146 0
M  V30 7588 H 741.087 1.07419 -1.74016 0
M  V30 7589 H 739.242 3.55021 -1.55046 0
M  V30 7590 H 739.656 3.65514 -3.76165 0
M  V30 7591 H 741.13 4.88403 -2.57229 0
M  V30 7592 H 741.607 4.27957 -0.987407 0
M  V30 7593 H 742.213 3.47433 -2.45296 0
M  V30 7594 N 740.528 1.15101 1.07655 0
M  V30 7595 C 741.756 0.947731 1.83918 0
M  V30 7596 C 742.171 -0.503927 1.81951 0
M  V30 7597 O 741.528 -1.34941 1.2287 0
M  V30 7598 C 741.579 1.4503 3.31132 0
M  V30 7599 O 741.3 2.84508 3.33146 0
M  V30 7600 C 742.801 1.28806 4.24174 0
M  V30 7601 H 740.021 0.336786 0.580358 0
M  V30 7602 H 742.565 1.52799 1.35914 0
M  V30 7603 H 740.72 0.912632 3.76497 0
M  V30 7604 H 741.134 3.0723 4.251 0
M  V30 7605 H 742.608 1.6882 5.25551 0
M  V30 7606 H 743.085 0.231851 4.38588 0
M  V30 7607 H 743.691 1.81465 3.84643 0
M  V30 7608 N 742.006 -1.2595 0.947325 0
M  V30 7609 C 742.953 -2.26159 0.460497 0
M  V30 7610 C 743.923 -1.58919 -0.483125 0
M  V30 7611 O 745.108 -1.86603 -0.397983 0
M  V30 7612 C 742.248 -3.441 -0.26247 0
M  V30 7613 C 741.361 -4.25999 0.717539 0
M  V30 7614 C 740.496 -5.31193 -0.0272486 0
M  V30 7615 C 739.535 -6.04774 0.944177 0
M  V30 7616 N 738.672 -7.01721 0.230741 0
M  V30 7617 H 743.512 -2.67173 1.31995 0
M  V30 7618 H 741.049 -1.31358 0.662088 0
M  V30 7619 H 743.007 -4.11317 -0.698137 0
M  V30 7620 H 741.637 -3.03983 -1.08602 0
M  V30 7621 H 740.689 -3.58513 1.27171 0
M  V30 7622 H 742.001 -4.76981 1.45913 0
M  V30 7623 H 741.155 -6.04451 -0.521903 0
M  V30 7624 H 739.894 -4.81066 -0.801682 0
M  V30 7625 H 738.899 -5.30338 1.4499 0
M  V30 7626 H 740.124 -6.56991 1.71872 0
M  V30 7627 H 738.07 -6.53895 -0.525088 0
M  V30 7628 H 737.987 -7.50484 0.911556 0
M  V30 7629 H 739.255 -7.79122 -0.242616 0
M  V30 7630 N 743.484 -0.715051 -1.40445 0
M  V30 7631 C 744.447 -0.0708726 -2.2909 0
M  V30 7632 C 745.447 0.687926 -1.45342 0
M  V30 7633 O 746.637 0.519908 -1.66261 0
M  V30 7634 C 743.769 0.909528 -3.28543 0
M  V30 7635 H 744.962 -0.851611 -2.87555 0
M  V30 7636 H 742.515 -0.479674 -1.48758 0
M  V30 7637 H 743.25 1.71734 -2.75096 0
M  V30 7638 H 743.035 0.368318 -3.90366 0
M  V30 7639 H 744.525 1.35744 -3.94922 0
M  V30 7640 N 744.962 1.50701 -0.461195 0
M  V30 7641 C 746.208 2.02566 0.0973411 0
M  V30 7642 C 746.541 1.3432 1.40257 0
M  V30 7643 O 745.816 0.465692 1.88843 0
M  V30 7644 C 746.099 3.58919 0.291423 0
M  V30 7645 C 745.952 4.37751 -1.03413 0
M  V30 7646 C 747.271 4.27379 1.05048 0
M  V30 7647 H 744.39 0.73622 0.0339026 0
M  V30 7648 H 747.032 1.80115 -0.604855 0
M  V30 7649 H 745.182 3.78179 0.889539 0
M  V30 7650 H 746.854 4.30085 -1.66806 0
M  V30 7651 H 745.097 4.01885 -1.63313 0
M  V30 7652 H 745.768 5.45384 -0.852085 0
M  V30 7653 H 748.244 4.12534 0.543603 0
M  V30 7654 H 747.12 5.36609 1.15506 0
M  V30 7655 H 747.381 3.89868 2.0846 0
M  V30 7656 N 746.441 0.193421 1.56409 0
M  V30 7657 C 747.671 -0.450783 2.01622 0
M  V30 7658 C 748.079 -1.5585 1.07273 0
M  V30 7659 O 747.422 -1.83569 0.0694875 0
M  V30 7660 C 747.484 -1.06913 3.43235 0
M  V30 7661 C 747.148 -0.100352 4.5689 0
M  V30 7662 C 748.145 0.689633 5.15306 0
M  V30 7663 C 745.83 0.0102436 5.02299 0
M  V30 7664 C 747.824 1.5772 6.17579 0
M  V30 7665 C 745.511 0.901368 6.04416 0
M  V30 7666 C 746.509 1.68341 6.61929 0
M  V30 7667 O 746.197 2.5596 7.62063 0
M  V30 7668 H 745.929 -0.117671 0.66568 0
M  V30 7669 H 748.483 0.2989 2.03214 0
M  V30 7670 H 746.713 -1.86736 3.38624 0
M  V30 7671 H 748.402 -1.61781 3.72266 0
M  V30 7672 H 749.168 0.614485 4.81092 0
M  V30 7673 H 745.047 -0.58829 4.57231 0
M  V30 7674 H 748.591 2.18805 6.62397 0
M  V30 7675 H 744.488 0.977637 6.38054 0
M  V30 7676 H 745.256 2.49721 7.79475 0
M  V30 7677 N 747.919 -1.57396 -0.0801906 0
M  V30 7678 C 748.851 -1.9982 -1.12271 0
M  V30 7679 C 749.864 -0.902902 -1.35468 0
M  V30 7680 O 751.053 -1.18088 -1.33856 0
M  V30 7681 C 748.153 -2.31476 -2.47532 0
M  V30 7682 C 747.326 -3.62745 -2.44407 0
M  V30 7683 C 746.385 -3.82168 -3.6171 0
M  V30 7684 O 745.411 -4.53852 -3.43522 0
M  V30 7685 N 746.613 -3.2388 -4.81749 0
M  V30 7686 H 749.378 -2.89864 -0.761501 0
M  V30 7687 H 746.939 -1.5965 -0.268965 0
M  V30 7688 H 748.931 -2.4165 -3.24634 0
M  V30 7689 H 747.501 -1.47364 -2.75686 0
M  V30 7690 H 746.721 -3.63403 -1.52747 0
M  V30 7691 H 748.009 -4.48954 -2.39412 0
M  V30 7692 H 747.407 -2.6568 -4.9943 0
M  V30 7693 H 745.964 -3.39515 -5.56392 0
M  V30 7694 N 749.397 0.351382 -1.53633 0
M  V30 7695 C 750.646 1.08988 -1.69719 0
M  V30 7696 C 750.959 1.90043 -0.462948 0
M  V30 7697 O 752.165 2.66769 -0.504613 0
M  V30 7698 C 750.621 1.98691 -3.00083 0
M  V30 7699 C 750.229 1.22881 -4.30818 0
M  V30 7700 C 751.973 2.72446 -3.25536 0
M  V30 7701 C 749.88 2.11568 -5.52262 0
M  V30 7702 H 748.81 0.410588 -0.632403 0
M  V30 7703 H 751.461 0.349886 -1.80133 0
M  V30 7704 H 749.843 2.76478 -2.83506 0
M  V30 7705 H 751.017 0.500582 -4.58073 0
M  V30 7706 H 749.332 0.60928 -4.11918 0
M  V30 7707 H 751.929 3.39055 -4.13456 0
M  V30 7708 H 752.272 3.38588 -2.42206 0
M  V30 7709 H 752.805 2.01735 -3.42852 0
M  V30 7710 H 749.544 1.4998 -6.38111 0
M  V30 7711 H 749.064 2.82201 -5.29266 0
M  V30 7712 H 750.743 2.70802 -5.87601 0
M  V30 7713 N 750.875 1.45233 0.611969 0
M  V30 7714 C 751.823 1.53898 1.74408 0
M  V30 7715 C 752.817 0.409254 1.64382 0
M  V30 7716 O 754.023 0.584988 1.70229 0
M  V30 7717 H 750.398 0.483303 0.576127 0
M  V30 7718 H 752.369 2.49143 1.64227 0
M  V30 7719 C 751.118 1.51865 3.12782 0
M  V30 7720 H 750.441 2.38118 3.21154 0
M  V30 7721 H 751.881 1.61986 3.91838 0
M  V30 7722 C 750.34 0.242374 3.36027 0
M  V30 7723 O 750.87 -0.679587 3.9591 0
M  V30 7724 N 749.076 0.139448 2.90265 0
M  V30 7725 H 748.623 0.890571 2.41716 0
M  V30 7726 H 748.581 -0.713686 3.06193 0
M  V30 7727 N 752.353 -0.854086 1.3245 0
M  V30 7728 C 753.301 -1.98411 1.21391 0
M  V30 7729 C 754.295 -1.68984 0.118586 0
M  V30 7730 O 755.501 -1.77784 0.281549 0
M  V30 7731 H 751.876 -0.651077 0.376301 0
M  V30 7732 H 753.847 -2.04867 2.16961 0
M  V30 7733 C 752.596 -3.34345 0.954407 0
M  V30 7734 H 751.919 -3.57518 1.78944 0
M  V30 7735 H 753.359 -4.13959 0.917269 0
M  V30 7736 C 751.818 -3.35151 -0.342838 0
M  V30 7737 O 752.348 -3.78174 -1.35452 0
M  V30 7738 N 750.554 -2.88298 -0.365012 0
M  V30 7739 H 750.101 -2.53481 0.4588 0
M  V30 7740 H 750.059 -2.8922 -1.23284 0
M  V30 7741 N 753.831 -1.1567 -1.07043 0
M  V30 7742 C 755.079 -0.931673 -1.79344 0
M  V30 7743 C 755.4 0.542421 -1.87304 0
M  V30 7744 O 754.67 1.39418 -1.37621 0
M  V30 7745 H 753.25 -0.34171 -0.664262 0
M  V30 7746 H 755.912 -1.45795 -1.29344 0
M  V30 7747 H 755.008 -1.34379 -2.81689 0
M  V30 7748 N 755.309 1.25446 -0.953992 0
M  V30 7749 C 756.72 1.75047 -0.649255 0
M  V30 7750 C 757.071 1.77527 0.835385 0
M  V30 7751 O 756.196 1.39569 1.65377 0
M  V30 7752 C 756.791 3.17889 -1.17183 0
M  V30 7753 C 755.35 3.65052 -0.917267 0
M  V30 7754 C 754.497 2.44124 -1.31525 0
M  V30 7755 H 757.448 1.11342 -1.13087 0
M  V30 7756 H 757.469 3.76768 -0.531616 0
M  V30 7757 H 756.981 3.16052 -2.25239 0
M  V30 7758 H 755.082 3.72305 0.148354 0
M  V30 7759 H 755.195 4.53222 -1.55328 0
M  V30 7760 H 753.559 2.43906 -0.733624 0
M  V30 7761 H 754.342 2.44979 -2.405 0
M  V30 7762 N 756.787 0.722489 1.40064 0
M  V30 7763 C 757.697 0.0755984 2.34478 0
M  V30 7764 C 758.713 -0.736046 1.57665 0
M  V30 7765 O 759.889 -0.667407 1.9002 0
M  V30 7766 C 756.954 -0.830075 3.36616 0
M  V30 7767 C 756.015 -0.00759884 4.29299 0
M  V30 7768 C 755.248 -0.870139 5.26559 0
M  V30 7769 O 755.471 -2.10921 5.2997 0
M  V30 7770 O 754.405 -0.305454 6.01124 0
M  V30 7771 H 758.231 0.854545 2.9143 0
M  V30 7772 H 755.816 0.483032 1.41376 0
M  V30 7773 H 757.698 -1.34864 3.99236 0
M  V30 7774 H 756.373 -1.58805 2.82069 0
M  V30 7775 H 755.28 0.556199 3.69942 0
M  V30 7776 H 756.613 0.712312 4.87018 0
M  V30 7777 N 758.265 -1.50454 0.469181 0
M  V30 7778 C 759.493 -2.06729 -0.0842134 0
M  V30 7779 C 759.908 -1.33326 -1.33677 0
M  V30 7780 O 759.265 -0.401977 -1.78018 0
M  V30 7781 C 759.316 -3.59557 -0.374253 0
M  V30 7782 O 759.037 -4.30192 0.828622 0
M  V30 7783 C 760.538 -4.32449 -0.974824 0
M  V30 7784 H 757.758 -0.670971 0.006231 0
M  V30 7785 H 760.302 -1.93645 0.657415 0
M  V30 7786 H 758.457 -3.7245 -1.06581 0
M  V30 7787 H 758.871 -5.21371 0.572066 0
M  V30 7788 H 760.345 -5.40361 -1.12755 0
M  V30 7789 H 760.822 -3.92819 -1.96442 0
M  V30 7790 H 761.428 -4.24082 -0.321703 0
M  V30 7791 N 759.743 -0.201713 -1.56304 0
M  V30 7792 C 760.706 0.702811 -2.18159 0
M  V30 7793 C 761.706 1.13619 -1.13787 0
M  V30 7794 O 762.896 1.0482 -1.39134 0
M  V30 7795 C 760.028 1.96032 -2.78898 0
M  V30 7796 H 761.221 0.163836 -2.99452 0
M  V30 7797 H 758.774 0.04791 -1.56227 0
M  V30 7798 H 759.509 2.54165 -2.01421 0
M  V30 7799 H 759.294 1.65824 -3.55309 0
M  V30 7800 H 760.784 2.60519 -3.26373 0
M  V30 7801 N 761.222 1.57436 0.0718424 0
M  V30 7802 C 762.469 1.87248 0.771007 0
M  V30 7803 C 762.797 0.793441 1.7758 0
M  V30 7804 O 762.052 -0.210565 1.94564 0
M  V30 7805 C 762.351 3.23723 1.51455 0
M  V30 7806 C 762.017 4.46194 0.649736 0
M  V30 7807 C 760.679 4.79438 0.411409 0
M  V30 7808 C 763.031 5.21176 0.05004 0
M  V30 7809 C 760.359 5.85077 -0.436096 0
M  V30 7810 C 762.711 6.27712 -0.784919 0
M  V30 7811 C 761.375 6.59457 -1.03312 0
M  V30 7812 H 760.645 0.685188 0.282132 0
M  V30 7813 H 763.292 1.91474 0.0317896 0
M  V30 7814 H 761.597 3.15287 2.32597 0
M  V30 7815 H 763.294 3.44023 2.06031 0
M  V30 7816 H 759.884 4.20175 0.84562 0
M  V30 7817 H 764.068 4.95806 0.221282 0
M  V30 7818 H 759.324 6.08071 -0.637136 0
M  V30 7819 H 763.498 6.84974 -1.25635 0
M  V30 7820 H 761.125 7.4114 -1.6916 0
M  V30 7821 N 762.7 -0.34323 1.53817 0
M  V30 7822 C 763.647 -1.42153 1.81827 0
M  V30 7823 C 764.617 -1.52251 0.663996 0
M  V30 7824 O 765.802 -1.67784 0.908461 0
M  V30 7825 C 762.942 -2.78799 2.03384 0
M  V30 7826 C 762.055 -2.7749 3.31094 0
M  V30 7827 C 761.19 -4.05856 3.42717 0
M  V30 7828 C 760.229 -3.98776 4.64375 0
M  V30 7829 N 759.366 -5.18833 4.73029 0
M  V30 7830 H 764.206 -1.17567 2.73829 0
M  V30 7831 H 761.743 -0.569506 1.35628 0
M  V30 7832 H 763.701 -3.58211 2.13872 0
M  V30 7833 H 762.331 -3.01736 1.14696 0
M  V30 7834 H 761.383 -1.90182 3.29446 0
M  V30 7835 H 762.695 -2.68137 4.206 0
M  V30 7836 H 761.849 -4.93691 3.52638 0
M  V30 7837 H 760.588 -4.1799 2.51267 0
M  V30 7838 H 759.593 -3.09325 4.5453 0
M  V30 7839 H 760.818 -3.88224 5.57189 0
M  V30 7840 H 758.764 -5.31511 3.84489 0
M  V30 7841 H 758.681 -5.11737 5.56472 0
M  V30 7842 H 759.949 -6.08439 4.87261 0
M  V30 7843 N 764.178 -1.45556 -0.604258 0
M  V30 7844 C 765.455 -1.40221 -1.36373 0
M  V30 7845 C 765.835 -0.0745195 -2.10968 0
M  V30 7846 O 765.183 0.943594 -2.08107 0
M  V30 7847 C 765.393 -2.61807 -2.30777 0
M  V30 7848 C 766.741 -3.07037 -2.93281 0
M  V30 7849 O 767.765 -2.62203 -2.41097 0
M  V30 7850 O 766.624 -3.8485 -3.88011 0
M  V30 7851 H 763.718 -0.556602 -0.611656 0
M  V30 7852 H 766.264 -1.57689 -0.627069 0
M  V30 7853 H 765.036 -3.50017 -1.74939 0
M  V30 7854 H 764.659 -2.46688 -3.11818 0
M  V30 7855 N 765.656 0.84705 -1.32902 0
M  V30 7856 C 766.904 1.5986 -1.2365 0
M  V30 7857 C 767.225 1.93974 0.199789 0
M  V30 7858 O 766.495 1.60273 1.12648 0
M  V30 7859 H 765.075 0.592696 -0.454665 0
M  V30 7860 H 767.737 1.01278 -1.66519 0
M  V30 7861 H 766.833 2.53218 -1.82448 0
M  V30 7862 N 767.134 1.16236 1.06428 0
M  V30 7863 C 768.411 0.853294 1.76006 0
M  V30 7864 C 768.791 -0.649162 2.00871 0
M  V30 7865 O 768.139 -1.59653 1.63472 0
M  V30 7866 C 768.349 1.67448 3.06206 0
M  V30 7867 C 769.697 1.8866 3.80385 0
M  V30 7868 O 770.721 1.64303 3.16043 0
M  V30 7869 O 769.58 2.29518 4.95968 0
M  V30 7870 H 766.674 0.314737 0.764767 0
M  V30 7871 H 769.22 1.26865 1.12709 0
M  V30 7872 H 767.992 2.69411 2.83784 0
M  V30 7873 H 767.615 1.25608 3.77238 0
M  V30 7874 N 768.612 -1.24939 0.960631 0
M  V30 7875 C 769.544 -2.24879 0.442937 0
M  V30 7876 C 770.557 -1.56615 -0.444464 0
M  V30 7877 O 771.746 -1.76715 -0.251776 0
M  V30 7878 C 768.846 -3.36757 -0.380537 0
M  V30 7879 C 768.019 -4.34587 0.495283 0
M  V30 7880 C 767.078 -5.25502 -0.270995 0
M  V30 7881 O 766.104 -5.68227 0.332661 0
M  V30 7882 N 767.306 -5.59077 -1.56249 0
M  V30 7883 H 770.071 -2.69932 1.30218 0
M  V30 7884 H 767.632 -1.38907 0.83166 0
M  V30 7885 H 769.624 -3.94542 -0.90103 0
M  V30 7886 H 768.194 -2.91045 -1.14067 0
M  V30 7887 H 767.414 -3.75593 1.19682 0
M  V30 7888 H 768.702 -4.96925 1.09285 0
M  V30 7889 H 768.1 -5.2628 -2.07476 0
M  V30 7890 H 766.657 -6.19421 -2.02882 0
M  V30 7891 N 770.09 -0.729906 -1.39679 0
M  V30 7892 C 771.337 -0.275622 -2.00615 0
M  V30 7893 C 771.665 1.13559 -1.57907 0
M  V30 7894 O 770.92 1.78745 -0.796789 0
M  V30 7895 C 771.219 -0.319564 -3.55968 0
M  V30 7896 C 770.885 -1.68308 -4.1831 0
M  V30 7897 C 769.547 -2.05629 -4.35052 0
M  V30 7898 C 771.899 -2.57857 -4.52945 0
M  V30 7899 C 769.227 -3.32018 -4.83716 0
M  V30 7900 C 771.579 -3.83613 -5.03015 0
M  V30 7901 C 770.243 -4.21033 -5.17965 0
M  V30 7902 H 769.513 -0.100857 -0.734104 0
M  V30 7903 H 772.16 -0.93575 -1.67081 0
M  V30 7904 H 770.465 0.42414 -3.89497 0
M  V30 7905 H 772.162 0.0499905 -4.00969 0
M  V30 7906 H 768.752 -1.3829 -4.05677 0
M  V30 7907 H 772.936 -2.30295 -4.39634 0
M  V30 7908 H 768.192 -3.6096 -4.93475 0
M  V30 7909 H 772.366 -4.53162 -5.28788 0
M  V30 7910 H 769.993 -5.19034 -5.55435 0
M  V30 7911 N 771.568 1.50203 -0.477153 0
M  V30 7912 C 772.796 2.0677 0.0732489 0
M  V30 7913 C 773.211 1.34033 1.32968 0
M  V30 7914 O 772.568 0.411412 1.77802 0
M  V30 7915 C 772.619 3.59751 0.35518 0
M  V30 7916 O 772.34 4.29747 -0.851425 0
M  V30 7917 C 773.841 4.3296 0.951877 0
M  V30 7918 H 771.061 0.670929 -0.00978923 0
M  V30 7919 H 773.605 1.93293 -0.667676 0
M  V30 7920 H 771.76 3.7301 1.04605 0
M  V30 7921 H 772.174 5.2106 -0.599708 0
M  V30 7922 H 773.648 5.40952 1.09888 0
M  V30 7923 H 774.125 3.93856 1.94356 0
M  V30 7924 H 774.731 4.24246 0.299208 0
M  V30 7925 N 773.046 0.209999 1.56195 0
M  V30 7926 C 774.295 -0.425106 1.97169 0
M  V30 7927 C 774.608 -1.61718 1.10031 0
M  V30 7928 O 775.814 -2.32105 1.40853 0
M  V30 7929 C 774.27 -0.80771 3.50719 0
M  V30 7930 C 773.878 0.360902 4.46544 0
M  V30 7931 C 775.622 -1.40906 4.00432 0
M  V30 7932 C 773.529 -0.0434919 5.91384 0
M  V30 7933 H 772.459 -0.162598 0.736259 0
M  V30 7934 H 775.11 0.304382 1.80958 0
M  V30 7935 H 773.492 -1.59429 3.62489 0
M  V30 7936 H 774.666 1.13846 4.46515 0
M  V30 7937 H 772.981 0.874729 4.07109 0
M  V30 7938 H 775.578 -1.72433 5.06133 0
M  V30 7939 H 775.921 -2.32081 3.45607 0
M  V30 7940 H 776.454 -0.686154 3.91838 0
M  V30 7941 H 773.193 0.834448 6.50167 0
M  V30 7942 H 772.713 -0.785598 5.94633 0
M  V30 7943 H 774.392 -0.474176 6.4526 0
M  V30 7944 N 774.524 -1.57472 -0.0634922 0
M  V30 7945 C 775.772 -1.87283 -0.759563 0
M  V30 7946 C 776.093 -0.803135 -1.77693 0
M  V30 7947 O 775.363 0.167293 -1.95184 0
M  V30 7948 H 773.943 -0.691106 -0.283516 0
M  V30 7949 H 776.605 -1.94864 -0.0376091 0
M  V30 7950 H 775.701 -2.85064 -1.27062 0
M  V30 7951 N 776.003 0.335068 -1.53997 0
M  V30 7952 C 776.95 1.41187 -1.82579 0
M  V30 7953 C 777.92 1.51897 -0.672061 0
M  V30 7954 O 779.105 1.673 -0.917346 0
M  V30 7955 C 776.245 2.77717 -2.0486 0
M  V30 7956 C 775.358 2.7573 -3.32561 0
M  V30 7957 C 774.493 4.04032 -3.44864 0
M  V30 7958 C 773.532 3.96308 -4.66483 0
M  V30 7959 N 772.669 5.16317 -4.75774 0
M  V30 7960 H 777.509 1.16113 -2.74448 0
M  V30 7961 H 775.046 0.562305 -1.35928 0
M  V30 7962 H 777.004 3.57071 -2.15768 0
M  V30 7963 H 775.634 3.01124 -1.16294 0
M  V30 7964 H 774.686 1.88432 -3.3045 0
M  V30 7965 H 775.998 2.65902 -4.22016 0
M  V30 7966 H 775.152 4.91814 -3.55251 0
M  V30 7967 H 773.891 4.16652 -2.53481 0
M  V30 7968 H 772.896 3.06911 -4.56164 0
M  V30 7969 H 774.121 3.85263 -5.5924 0
M  V30 7970 H 772.067 5.29464 -3.87303 0
M  V30 7971 H 771.984 5.08779 -5.59178 0
M  V30 7972 H 773.252 6.05846 -4.9048 0
M  V30 7973 N 777.481 1.45874 0.596531 0
M  V30 7974 C 778.729 1.5017 1.35253 0
M  V30 7975 C 779.05 0.149246 1.94428 0
M  V30 7976 O 778.32 -0.82268 1.77789 0
M  V30 7977 H 776.9 0.553052 0.502138 0
M  V30 7978 H 779.562 1.81908 0.699671 0
M  V30 7979 H 778.658 2.24671 2.16632 0
M  V30 7980 N 778.959 -0.83999 1.33349 0
M  V30 7981 C 780.236 -1.57973 1.15342 0
M  V30 7982 C 780.616 -2.09226 -0.280632 0
M  V30 7983 O 779.964 -1.89317 -1.2795 0
M  V30 7984 C 780.174 -2.71446 2.19359 0
M  V30 7985 C 781.522 -3.40654 2.53456 0
M  V30 7986 O 782.546 -2.81686 2.18017 0
M  V30 7987 O 781.405 -4.47101 3.14266 0
M  V30 7988 H 778.499 -0.6964 0.446044 0
M  V30 7989 H 781.045 -0.882843 1.44927 0
M  V30 7990 H 779.817 -2.31205 3.1569 0
M  V30 7991 H 779.44 -3.488 1.90852 0
M  V30 7992 N 780.437 -1.16799 -1.0581 0
M  V30 7993 C 781.848 -0.95945 -1.60161 0
M  V30 7994 C 782.199 0.49543 -1.89842 0
M  V30 7995 O 781.324 1.36957 -1.67546 0
M  V30 7996 C 781.919 -1.73527 -2.90987 0
M  V30 7997 C 780.478 -1.57158 -3.42021 0
M  V30 7998 C 779.625 -1.74089 -2.15843 0
M  V30 7999 H 782.576 -1.31598 -0.886992 0
M  V30 8000 H 782.597 -1.21397 -3.60615 0
M  V30 8001 H 782.109 -2.79411 -2.69353 0
M  V30 8002 H 780.21 -0.537361 -3.68705 0
M  V30 8003 H 780.323 -2.35858 -4.17022 0
M  V30 8004 H 778.687 -1.16874 -2.26302 0
M  V30 8005 H 779.47 -2.81371 -1.96686 0
M  V30 8006 N 781.915 1.24427 -0.967243 0
M  V30 8007 C 783.162 1.92487 -0.62888 0
M  V30 8008 C 783.49 1.75623 0.835871 0
M  V30 8009 O 782.745 1.1027 1.61675 0
M  V30 8010 C 783.044 3.44568 -0.949096 0
M  V30 8011 C 782.71 3.816 -2.40192 0
M  V30 8012 C 781.372 3.9142 -2.799 0
M  V30 8013 C 783.724 3.99715 -3.34481 0
M  V30 8014 C 781.052 4.16771 -4.12939 0
M  V30 8015 C 783.404 4.26562 -4.67148 0
M  V30 8016 C 782.068 4.34601 -5.06634 0
M  V30 8017 H 781.338 0.704361 -0.230124 0
M  V30 8018 H 783.985 1.4772 -1.21864 0
M  V30 8019 H 782.29 3.90819 -0.277085 0
M  V30 8020 H 783.987 3.95436 -0.665692 0
M  V30 8021 H 780.577 3.74522 -2.08402 0
M  V30 8022 H 784.761 3.91531 -3.04987 0
M  V30 8023 H 780.017 4.21214 -4.43158 0
M  V30 8024 H 784.191 4.39523 -5.40178 0
M  V30 8025 H 781.818 4.53998 -6.09746 0
M  V30 8026 N 783.393 0.737304 1.3929 0
M  V30 8027 C 784.641 0.285691 2.00071 0
M  V30 8028 C 784.962 -1.13169 1.58801 0
M  V30 8029 O 784.232 -1.77104 0.837308 0
M  V30 8030 H 782.812 0.102638 0.739915 0
M  V30 8031 H 785.474 0.947775 1.70303 0
M  V30 8032 H 784.57 0.335906 3.10287 0
M  V30 8033 N 784.871 -1.49948 0.485112 0
M  V30 8034 C 785.818 -2.28819 -0.301729 0
M  V30 8035 C 786.788 -1.34496 -0.974683 0
M  V30 8036 O 787.973 -1.63444 -0.984418 0
M  V30 8037 C 785.113 -3.16758 -1.36961 0
M  V30 8038 C 784.226 -4.26125 -0.710027 0
M  V30 8039 C 783.361 -5.01302 -1.75699 0
M  V30 8040 C 782.4 -6.02525 -1.07841 0
M  V30 8041 N 781.537 -6.70927 -2.06886 0
M  V30 8042 H 786.377 -2.95604 0.377127 0
M  V30 8043 H 783.914 -1.45764 0.197826 0
M  V30 8044 H 785.872 -3.66106 -2.00056 0
M  V30 8045 H 784.502 -2.51991 -2.01744 0
M  V30 8046 H 783.554 -3.80385 0.0338278 0
M  V30 8047 H 784.866 -4.98493 -0.175079 0
M  V30 8048 H 784.02 -5.54438 -2.46339 0
M  V30 8049 H 782.759 -4.28672 -2.32577 0
M  V30 8050 H 781.764 -5.48635 -0.357706 0
M  V30 8051 H 782.989 -6.77134 -0.516345 0
M  V30 8052 H 780.935 -6.01079 -2.62755 0
M  V30 8053 H 780.852 -7.39216 -1.58414 0
M  V30 8054 H 782.12 -7.28675 -2.76863 0
M  V30 8055 N 786.349 -0.21828 -1.56081 0
M  V30 8056 C 787.577 0.419258 -2.02608 0
M  V30 8057 C 787.992 1.53578 -1.09814 0
M  V30 8058 O 787.349 1.82185 -0.107149 0
M  V30 8059 C 787.4 0.953955 -3.48686 0
M  V30 8060 O 787.121 -0.11805 -4.37941 0
M  V30 8061 C 788.622 1.66506 -4.10841 0
M  V30 8062 H 785.842 0.10296 -0.663054 0
M  V30 8063 H 788.386 -0.333776 -2.01758 0
M  V30 8064 H 786.541 1.65727 -3.50162 0
M  V30 8065 H 786.955 0.283359 -5.23734 0
M  V30 8066 H 788.429 1.99123 -5.14834 0
M  V30 8067 H 788.906 2.57705 -3.55647 0
M  V30 8068 H 789.512 1.00703 -4.13206 0
M  V30 8069 N 787.827 1.57504 0.0551401 0
M  V30 8070 C 789.057 1.92015 0.762472 0
M  V30 8071 C 789.465 0.814088 1.7079 0
M  V30 8072 O 788.808 -0.220273 1.82375 0
M  V30 8073 C 788.87 3.22132 1.59598 0
M  V30 8074 C 788.534 4.49617 0.818141 0
M  V30 8075 C 789.531 5.19738 0.129933 0
M  V30 8076 C 787.216 4.96201 0.780387 0
M  V30 8077 C 789.21 6.34704 -0.585616 0
M  V30 8078 C 786.897 6.11069 0.0610756 0
M  V30 8079 C 787.895 6.80174 -0.62071 0
M  V30 8080 O 787.583 7.92849 -1.3284 0
M  V30 8081 H 787.315 0.638866 0.220967 0
M  V30 8082 H 789.869 2.05385 0.0246362 0
M  V30 8083 H 788.099 3.05016 2.37701 0
M  V30 8084 H 789.788 3.42166 2.18351 0
M  V30 8085 H 790.554 4.84767 0.150299 0
M  V30 8086 H 786.433 4.42275 1.30054 0
M  V30 8087 H 789.977 6.88578 -1.11833 0
M  V30 8088 H 785.874 6.45488 0.0386945 0
M  V30 8089 H 786.642 8.09062 -1.23938 0
M  V30 8090 N 789.305 -0.326896 1.54172 0
M  V30 8091 C 790.533 -1.08486 1.76177 0
M  V30 8092 C 790.948 -1.81815 0.508788 0
M  V30 8093 O 790.305 -1.74924 -0.520362 0
M  V30 8094 C 790.356 -2.08552 2.95276 0
M  V30 8095 O 790.077 -1.38202 4.15731 0
M  V30 8096 C 791.578 -2.96593 3.29466 0
M  V30 8097 H 788.798 -0.322835 0.588233 0
M  V30 8098 H 791.342 -0.374036 2.0105 0
M  V30 8099 H 789.497 -2.75174 2.72687 0
M  V30 8100 H 789.911 -2.05186 4.827 0
M  V30 8101 H 791.385 -3.62708 4.16109 0
M  V30 8102 H 791.862 -3.63511 2.46487 0
M  V30 8103 H 792.468 -2.35537 3.54122 0
M  V30 8104 N 790.784 -1.46188 -0.588786 0
M  V30 8105 C 792.033 -1.50452 -1.34339 0
M  V30 8106 C 792.346 -0.158096 -1.9496 0
M  V30 8107 O 793.552 -0.0784918 -2.71387 0
M  V30 8108 C 792.008 -2.65074 -2.43441 0
M  V30 8109 C 791.616 -4.06111 -1.8915 0
M  V30 8110 C 793.36 -2.78603 -3.20282 0
M  V30 8111 C 791.267 -5.12084 -2.95845 0
M  V30 8112 H 790.197 -0.559905 -0.504997 0
M  V30 8113 H 792.848 -1.72382 -0.629014 0
M  V30 8114 H 791.23 -2.36462 -3.1765 0
M  V30 8115 H 792.404 -4.44487 -1.21524 0
M  V30 8116 H 790.719 -3.97197 -1.24995 0
M  V30 8117 H 793.316 -3.54944 -3.99898 0
M  V30 8118 H 793.659 -1.85902 -3.72486 0
M  V30 8119 H 794.192 -3.06832 -2.53178 0
M  V30 8120 H 790.931 -6.06556 -2.48535 0
M  V30 8121 H 790.451 -4.78259 -3.61979 0
M  V30 8122 H 792.13 -5.37661 -3.59902 0
M  V30 8123 N 792.262 0.832906 -1.33792 0
M  V30 8124 C 793.195 1.94788 -1.18882 0
M  V30 8125 C 794.173 1.62389 -0.0828426 0
M  V30 8126 O 795.357 1.86886 -0.246175 0
M  V30 8127 C 792.484 3.28506 -0.824728 0
M  V30 8128 C 791.53 3.79872 -1.93905 0
M  V30 8129 S 792.363 4.00832 -3.55097 0
M  V30 8130 C 793.519 5.37492 -3.20708 0
M  V30 8131 H 793.752 2.07137 -2.13264 0
M  V30 8132 H 791.285 0.987362 -1.18704 0
M  V30 8133 H 793.243 4.05769 -0.621442 0
M  V30 8134 H 791.904 3.13939 0.100587 0
M  V30 8135 H 791.097 4.76647 -1.6378 0
M  V30 8136 H 790.699 3.09524 -2.09931 0
M  V30 8137 H 792.991 6.20544 -2.71903 0
M  V30 8138 H 793.934 5.72593 -4.16584 0
M  V30 8139 H 794.342 5.02529 -2.57148 0
M  V30 8140 N 793.74 1.17359 1.05189 0
M  V30 8141 C 794.67 0.91365 2.14883 0
M  V30 8142 C 795.651 -0.144365 1.69486 0
M  V30 8143 O 796.836 0.00587861 1.94199 0
M  V30 8144 C 793.966 0.426196 3.44675 0
M  V30 8145 C 792.92 1.4234 4.03638 0
M  V30 8146 C 792.246 0.793902 5.28773 0
M  V30 8147 C 793.546 2.7966 4.41121 0
M  V30 8148 H 795.24 1.831 2.36885 0
M  V30 8149 H 792.786 0.881781 1.13845 0
M  V30 8150 H 794.739 0.231767 4.20762 0
M  V30 8151 H 793.463 -0.526693 3.22325 0
M  V30 8152 H 792.122 1.60457 3.2962 0
M  V30 8153 H 791.77 -0.165824 5.02727 0
M  V30 8154 H 791.47 1.45959 5.69183 0
M  V30 8155 H 792.994 0.609747 6.07548 0
M  V30 8156 H 794.408 2.6526 5.08242 0
M  V30 8157 H 792.805 3.42807 4.92548 0
M  V30 8158 H 793.875 3.34068 3.51464 0
M  V30 8159 N 795.218 -1.23913 0.973828 0
M  V30 8160 C 796.165 -2.25132 0.508366 0
M  V30 8161 C 797.135 -1.59908 -0.449307 0
M  V30 8162 O 798.32 -1.87405 -0.358313 0
M  V30 8163 C 795.46 -3.4458 -0.189422 0
M  V30 8164 C 794.573 -4.24381 0.807738 0
M  V30 8165 C 793.708 -5.31131 0.0854315 0
M  V30 8166 C 792.747 -6.02635 1.07225 0
M  V30 8167 N 791.884 -7.01073 0.379535 0
M  V30 8168 H 796.724 -2.64313 1.37632 0
M  V30 8169 H 794.261 -1.29924 0.689802 0
M  V30 8170 H 796.219 -4.12706 -0.610733 0
M  V30 8171 H 794.849 -3.06218 -1.02129 0
M  V30 8172 H 793.901 -3.55735 1.34747 0
M  V30 8173 H 795.213 -4.73778 1.55998 0
M  V30 8174 H 794.367 -6.05422 -0.393572 0
M  V30 8175 H 793.106 -4.82658 -0.699461 0
M  V30 8176 H 792.111 -5.27143 1.56207 0
M  V30 8177 H 793.336 -6.53197 1.85769 0
M  V30 8178 H 791.282 -6.54862 -0.386269 0
M  V30 8179 H 791.199 -7.48382 1.07054 0
M  V30 8180 H 792.467 -7.79462 -0.0772984 0
M  V30 8181 N 796.696 -0.74468 -1.38897 0
M  V30 8182 C 797.944 -0.296298 -1.99916 0
M  V30 8183 C 798.265 1.12325 -1.59399 0
M  V30 8184 O 797.535 1.76658 -0.846689 0
M  V30 8185 H 796.115 -0.106561 -0.73936 0
M  V30 8186 H 798.777 -0.956793 -1.69798 0
M  V30 8187 H 797.873 -0.352356 -3.10105 0
M  V30 8188 N 798.174 1.49689 -0.493057 0
M  V30 8189 C 799.402 2.06836 0.0513141 0
M  V30 8190 C 799.817 1.35436 1.31539 0
M  V30 8191 O 799.174 0.430248 1.77356 0
M  V30 8192 C 799.225 3.60107 0.317003 0
M  V30 8193 O 798.946 4.2882 -0.896957 0
M  V30 8194 C 800.447 4.33945 0.905902 0
M  V30 8195 H 797.667 0.670787 -0.0169048 0
M  V30 8196 H 800.211 1.92574 -0.688139 0
M  V30 8197 H 798.366 3.74099 1.00642 0
M  V30 8198 H 798.78 5.20395 -0.654939 0
M  V30 8199 H 800.254 5.42087 1.04144 0
M  V30 8200 H 800.731 3.95895 1.90168 0
M  V30 8201 H 801.337 4.2454 0.254195 0
M  V30 8202 N 799.652 0.226554 1.55963 0
M  V30 8203 C 800.6 -0.697922 2.21882 0
M  V30 8204 C 801.594 -1.19586 1.19981 0
M  V30 8205 O 802.8 -1.15511 1.38048 0
M  V30 8206 H 799.175 -0.243501 0.711485 0
M  V30 8207 H 801.146 -0.118576 2.98164 0
M  V30 8208 C 799.895 -1.89309 2.91646 0
M  V30 8209 H 799.218 -1.51906 3.69817 0
M  V30 8210 H 800.658 -2.51762 3.41162 0
M  V30 8211 C 799.117 -2.75162 1.94391 0
M  V30 8212 O 799.647 -3.74071 1.46402 0
M  V30 8213 N 797.853 -2.41302 1.61932 0
M  V30 8214 H 797.4 -1.60923 2.01151 0
M  V30 8215 H 797.358 -2.99023 0.971219 0
M  V30 8216 N 801.13 -1.57531 -0.0467866 0
M  V30 8217 C 802.355 -1.93087 -0.757123 0
M  V30 8218 C 802.78 -0.825116 -1.69037 0
M  V30 8219 O 802.138 0.220449 -1.79955 0
M  V30 8220 C 802.186 -3.27669 -1.5055 0
M  V30 8221 O 801.29 -3.18667 -2.61773 0
M  V30 8222 H 800.631 -0.631597 -0.204892 0
M  V30 8223 H 803.161 -2.04599 -0.00755232 0
M  V30 8224 H 803.171 -3.6214 -1.87932 0
M  V30 8225 H 801.846 -4.07717 -0.820931 0
M  V30 8226 H 800.423 -2.95798 -2.27064 0
M  V30 8227 N 802.608 0.318715 -1.54344 0
M  V30 8228 C 803.885 1.07461 -1.63437 0
M  V30 8229 C 804.265 2.05771 -0.47131 0
M  V30 8230 O 803.613 2.22175 0.53391 0
M  V30 8231 C 803.823 1.77224 -3.00654 0
M  V30 8232 C 805.171 2.30069 -3.56866 0
M  V30 8233 O 806.195 1.87284 -3.0299 0
M  V30 8234 O 805.054 3.08412 -4.51159 0
M  V30 8235 H 802.148 0.495627 -0.66203 0
M  V30 8236 H 804.694 0.318218 -1.6669 0
M  V30 8237 H 803.466 1.05742 -3.76742 0
M  V30 8238 H 803.089 2.59662 -3.01101 0
M  V30 8239 N 804.086 1.46499 0.581025 0
M  V30 8240 C 805.334 1.51596 1.33653 0
M  V30 8241 C 805.655 0.169859 1.94259 0
M  V30 8242 O 804.925 -0.803776 1.78651 0
M  V30 8243 H 803.505 0.558346 0.496244 0
M  V30 8244 H 806.167 1.8264 0.680338 0
M  V30 8245 H 805.263 2.26956 2.14237 0
M  V30 8246 N 805.565 -0.825799 1.34232 0
M  V30 8247 C 806.811 -1.58419 1.26614 0
M  V30 8248 C 807.144 -1.93503 -0.164341 0
M  V30 8249 O 806.419 -1.59785 -1.109 0
M  V30 8250 C 806.702 -2.8856 2.15418 0
M  V30 8251 C 806.555 -2.60075 3.66989 0
M  V30 8252 C 807.874 -3.90107 2.03726 0
M  V30 8253 H 804.993 -0.574794 0.461282 0
M  V30 8254 H 807.635 -0.951519 1.64457 0
M  V30 8255 H 805.785 -3.42553 1.83275 0
M  V30 8256 H 807.457 -2.12414 4.09485 0
M  V30 8257 H 805.7 -1.93565 3.88221 0
M  V30 8258 H 806.371 -3.52866 4.24488 0
M  V30 8259 H 808.847 -3.45459 2.31942 0
M  V30 8260 H 807.723 -4.78976 2.68092 0
M  V30 8261 H 807.984 -4.30329 1.01337 0
M  V30 8262 N 807.043 -1.17915 -1.04565 0
M  V30 8263 C 808.271 -0.99616 -1.8134 0
M  V30 8264 C 808.686 0.455509 -1.83223 0
M  V30 8265 O 808.043 1.31636 -1.26405 0
M  V30 8266 C 808.094 -1.53758 -3.27171 0
M  V30 8267 O 807.815 -2.93241 -3.25486 0
M  V30 8268 C 809.316 -1.40007 -4.2061 0
M  V30 8269 H 806.536 -0.352055 -0.571225 0
M  V30 8270 H 809.08 -1.56349 -1.31815 0
M  V30 8271 H 807.235 -1.01213 -3.73945 0
M  V30 8272 H 807.649 -3.18392 -4.16805 0
M  V30 8273 H 809.123 -1.82695 -5.2089 0
M  V30 8274 H 809.6 -0.348054 -4.37819 0
M  V30 8275 H 810.206 -1.916 -3.79697 0
M  V30 8276 N 808.521 1.23394 -0.980386 0
M  V30 8277 C 809.937 1.43961 -0.689008 0
M  V30 8278 C 810.137 1.87229 0.744809 0
M  V30 8279 O 809.193 2.01831 1.51725 0
M  V30 8280 C 810.506 2.49128 -1.68392 0
M  V30 8281 C 812.054 2.62941 -1.69796 0
M  V30 8282 C 812.529 3.71317 -2.68118 0
M  V30 8283 N 814.02 3.7876 -2.66636 0
M  V30 8284 C 814.755 4.62176 -3.39383 0
M  V30 8285 N 814.251 5.49682 -4.21688 0
M  V30 8286 N 816.044 4.56372 -3.28147 0
M  V30 8287 H 808.195 0.936106 -1.90659 0
M  V30 8288 H 810.458 0.473023 -0.821555 0
M  V30 8289 H 810.164 2.24252 -2.70931 0
M  V30 8290 H 810.038 3.47514 -1.46675 0
M  V30 8291 H 812.425 2.87168 -0.679617 0
M  V30 8292 H 812.506 1.64871 -1.95579 0
M  V30 8293 H 812.15 3.4784 -3.70095 0
M  V30 8294 H 812.08 4.68929 -2.3961 0
M  V30 8295 H 814.571 3.16226 -2.06904 0
M  V30 8296 H 814.884 6.10323 -4.74053 0
M  V30 8297 H 813.229 5.49306 -4.25779 0
M  V30 8298 H 816.42 3.87029 -2.63299 0
M  V30 8299 H 816.593 5.21153 -3.85102 0
M  V30 8300 N 809.999 0.752036 1.385 0
M  V30 8301 C 811.227 0.318274 2.04437 0
M  V30 8302 C 811.642 -1.05285 1.56718 0
M  V30 8303 O 810.999 -1.66844 0.73956 0
M  V30 8304 C 811.05 0.330106 3.5999 0
M  V30 8305 O 810.771 1.64712 4.05957 0
M  V30 8306 C 812.272 -0.117713 4.43144 0
M  V30 8307 H 809.492 0.136228 0.657026 0
M  V30 8308 H 812.036 1.02045 1.7722 0
M  V30 8309 H 810.191 -0.323323 3.86048 0
M  V30 8310 H 810.605 1.57225 5.0038 0
M  V30 8311 H 812.079 -0.0582735 5.51969 0
M  V30 8312 H 812.556 -1.16538 4.23457 0
M  V30 8313 H 813.162 0.506784 4.2227 0
M  V30 8314 N 811.477 -1.49425 0.500989 0
M  V30 8315 C 812.387 -2.32899 -0.282011 0
M  V30 8316 C 813.403 -1.44632 -0.967346 0
M  V30 8317 O 814.579 -1.77654 -0.94873 0
M  V30 8318 C 811.644 -3.20069 -1.33253 0
M  V30 8319 C 810.705 -4.24186 -0.660636 0
M  V30 8320 C 809.938 -5.07191 -1.6611 0
M  V30 8321 O 810.161 -4.91712 -2.89094 0
M  V30 8322 O 809.095 -5.8948 -1.21643 0
M  V30 8323 H 812.921 -3.01038 0.401224 0
M  V30 8324 H 810.506 -1.47079 0.262323 0
M  V30 8325 H 812.388 -3.74071 -1.94033 0
M  V30 8326 H 811.063 -2.54625 -1.9987 0
M  V30 8327 H 809.97 -3.74098 -0.0130959 0
M  V30 8328 H 811.303 -4.92186 -0.0369179 0
M  V30 8329 N 812.955 -0.234822 -1.55841 0
M  V30 8330 C 813.902 0.6698 -2.20867 0
M  V30 8331 C 814.872 1.18042 -1.16856 0
M  V30 8332 O 816.057 1.23709 -1.45261 0
M  V30 8333 C 813.197 1.86646 -2.90271 0
M  V30 8334 C 812.31 1.39351 -4.08908 0
M  V30 8335 C 811.445 2.54878 -4.66059 0
M  V30 8336 C 810.484 2.04384 -5.76969 0
M  V30 8337 N 809.621 3.13233 -6.28355 0
M  V30 8338 H 814.461 0.10858 -2.97802 0
M  V30 8339 H 811.998 0.041836 -1.4704 0
M  V30 8340 H 813.956 2.56926 -3.28702 0
M  V30 8341 H 812.586 2.40035 -2.15831 0
M  V30 8342 H 811.638 0.585173 -3.75872 0
M  V30 8343 H 812.95 0.983356 -4.89011 0
M  V30 8344 H 812.104 3.33219 -5.07001 0
M  V30 8345 H 810.843 2.99188 -3.85146 0
M  V30 8346 H 809.848 1.24509 -5.35516 0
M  V30 8347 H 811.073 1.61057 -6.59725 0
M  V30 8348 H 809.019 3.57 -5.50352 0
M  V30 8349 H 808.936 2.76511 -7.03618 0
M  V30 8350 H 810.204 3.91669 -6.73955 0
M  V30 8351 N 814.433 1.57553 0.0384317 0
M  V30 8352 C 815.663 1.92813 0.742064 0
M  V30 8353 C 816.071 0.832157 1.69917 0
M  V30 8354 O 815.414 -0.200917 1.82598 0
M  V30 8355 C 815.476 3.23806 1.56172 0
M  V30 8356 C 815.14 4.50459 0.770407 0
M  V30 8357 C 816.137 5.19846 0.0748006 0
M  V30 8358 C 813.822 4.97001 0.727714 0
M  V30 8359 C 815.816 6.34047 -0.652902 0
M  V30 8360 C 813.503 6.111 -0.00373992 0
M  V30 8361 C 814.501 6.79477 -0.692816 0
M  V30 8362 O 814.189 7.91395 -1.41241 0
M  V30 8363 H 813.921 0.641174 0.214179 0
M  V30 8364 H 816.475 2.054 0.00285095 0
M  V30 8365 H 814.705 3.0752 2.34453 0
M  V30 8366 H 816.394 3.44463 2.14709 0
M  V30 8367 H 817.16 4.84899 0.098875 0
M  V30 8368 H 813.039 4.43629 1.25355 0
M  V30 8369 H 816.583 6.87353 -1.1913 0
M  V30 8370 H 812.48 6.45493 -0.0297703 0
M  V30 8371 H 813.248 8.07702 -1.32512 0
M  V30 8372 N 815.911 -0.310526 1.54511 0
M  V30 8373 C 817.136 -1.07046 1.7764 0
M  V30 8374 C 817.561 -1.80488 0.529696 0
M  V30 8375 O 816.919 -1.73702 -0.519361 0
M  V30 8376 C 816.967 -2.03411 2.97752 0
M  V30 8377 O 816.071 -3.11545 2.7021 0
M  V30 8378 H 815.412 -0.307994 0.588248 0
M  V30 8379 H 817.942 -0.350848 2.01569 0
M  V30 8380 H 817.952 -2.46048 3.2546 0
M  V30 8381 H 816.627 -1.49361 3.88155 0
M  V30 8382 H 815.204 -2.7349 2.53491 0
M  V30 8383 N 817.389 -1.46805 -0.573248 0
M  V30 8384 C 818.636 -1.52604 -1.3311 0
M  V30 8385 C 818.964 -0.181633 -1.9365 0
M  V30 8386 O 818.219 0.823775 -1.77517 0
M  V30 8387 C 818.518 -2.58001 -2.47326 0
M  V30 8388 C 818.184 -4.01747 -2.04719 0
M  V30 8389 C 816.846 -4.40881 -1.92814 0
M  V30 8390 C 819.198 -4.92008 -1.71982 0
M  V30 8391 C 816.526 -5.68129 -1.46445 0
M  V30 8392 C 818.878 -6.19703 -1.27089 0
M  V30 8393 C 817.542 -6.57733 -1.13768 0
M  V30 8394 H 816.812 -0.558417 -0.487084 0
M  V30 8395 H 819.459 -1.80327 -0.644538 0
M  V30 8396 H 817.764 -2.23974 -3.2147 0
M  V30 8397 H 819.461 -2.59715 -3.05531 0
M  V30 8398 H 816.051 -3.70819 -2.14922 0
M  V30 8399 H 820.235 -4.62485 -1.8006 0
M  V30 8400 H 815.491 -5.96359 -1.34783 0
M  V30 8401 H 819.665 -6.89064 -1.00814 0
M  V30 8402 H 817.292 -7.56228 -0.776142 0
M  V30 8403 N 818.867 0.818669 -1.34668 0
M  V30 8404 C 820.113 1.57746 -1.27453 0
M  V30 8405 C 820.446 1.93588 0.154077 0
M  V30 8406 O 819.721 1.60371 1.10051 0
M  V30 8407 C 820.004 2.87414 -2.16945 0
M  V30 8408 C 819.857 2.58125 -3.68363 0
M  V30 8409 C 821.176 3.89021 -2.05792 0
M  V30 8410 H 818.295 0.572339 -0.464324 0
M  V30 8411 H 820.937 0.942784 -1.64959 0
M  V30 8412 H 819.087 3.41576 -1.85089 0
M  V30 8413 H 820.759 2.10239 -4.10606 0
M  V30 8414 H 819.002 1.91503 -3.89242 0
M  V30 8415 H 819.673 3.5061 -4.26353 0
M  V30 8416 H 822.149 3.44224 -2.33771 0
M  V30 8417 H 821.025 4.77548 -2.70628 0
M  V30 8418 H 821.286 4.29786 -1.03618 0
M  V30 8419 N 820.346 1.18468 1.03938 0
M  V30 8420 C 821.293 0.912859 2.1198 0
M  V30 8421 C 822.263 -0.14824 1.65437 0
M  V30 8422 O 823.448 -0.008331 1.90798 0
M  V30 8423 C 820.588 0.446114 3.42204 0
M  V30 8424 C 819.701 1.57278 4.02353 0
M  V30 8425 C 818.836 1.05863 5.20544 0
M  V30 8426 C 817.875 2.1599 5.72726 0
M  V30 8427 N 817.012 1.65959 6.82204 0
M  V30 8428 H 821.852 1.83798 2.34569 0
M  V30 8429 H 819.389 0.916504 1.15059 0
M  V30 8430 H 821.347 0.15697 4.16905 0
M  V30 8431 H 819.977 -0.442025 3.19759 0
M  V30 8432 H 819.029 1.97737 3.24968 0
M  V30 8433 H 820.341 2.40289 4.37107 0
M  V30 8434 H 819.495 0.724087 6.02364 0
M  V30 8435 H 818.234 0.198116 4.87297 0
M  V30 8436 H 817.239 2.50287 4.89527 0
M  V30 8437 H 818.464 3.02479 6.08016 0
M  V30 8438 H 816.41 0.82199 6.5083 0
M  V30 8439 H 816.327 2.42567 7.16029 0
M  V30 8440 H 817.595 1.35436 7.67644 0
M  V30 8441 N 821.824 -1.22873 0.986916 0
M  V30 8442 C 823.24 -1.43594 0.696633 0
M  V30 8443 C 823.44 -1.87622 -0.734869 0
M  V30 8444 O 822.496 -2.02633 -1.50652 0
M  V30 8445 C 823.809 -2.48231 1.69711 0
M  V30 8446 C 825.357 -2.62037 1.71188 0
M  V30 8447 C 825.832 -3.6989 2.70084 0
M  V30 8448 N 827.323 -3.77341 2.68641 0
M  V30 8449 C 828.058 -4.6037 3.41829 0
M  V30 8450 N 827.554 -5.47438 4.24598 0
M  V30 8451 N 829.347 -4.54626 3.30563 0
M  V30 8452 H 821.498 -0.925982 1.91153 0
M  V30 8453 H 823.761 -0.46866 0.824052 0
M  V30 8454 H 823.467 -2.22812 2.72117 0
M  V30 8455 H 823.341 -3.46731 1.48516 0
M  V30 8456 H 825.728 -2.86803 0.694837 0
M  V30 8457 H 825.809 -1.63831 1.96451 0
M  V30 8458 H 825.453 -3.45872 3.71934 0
M  V30 8459 H 825.383 -4.67652 2.42093 0
M  V30 8460 H 827.874 -3.15124 2.08578 0
M  V30 8461 H 828.187 -6.078 4.77283 0
M  V30 8462 H 826.532 -5.4704 4.28687 0
M  V30 8463 H 829.723 -3.85627 2.65347 0
M  V30 8464 H 829.896 -5.19103 3.8786 0
M  V30 8465 N 823.302 -0.75937 -1.38099 0
M  V30 8466 C 824.579 -0.243371 -1.9408 0
M  V30 8467 C 824.959 1.25942 -1.69416 0
M  V30 8468 O 824.307 2.03667 -1.03595 0
M  V30 8469 C 824.517 -0.603328 -3.43745 0
M  V30 8470 C 825.865 -0.566195 -4.20808 0
M  V30 8471 O 826.889 -0.541969 -3.52053 0
M  V30 8472 O 825.748 -0.582261 -5.43389 0
M  V30 8473 H 822.842 -0.0526825 -0.82532 0
M  V30 8474 H 825.388 -0.839884 -1.47459 0
M  V30 8475 H 824.16 -1.64098 -3.55229 0
M  V30 8476 H 823.783 0.0208887 -3.97595 0
M  V30 8477 N 824.78 1.49157 -0.508906 0
M  V30 8478 C 826.191 1.86593 -0.0630975 0
M  V30 8479 C 826.542 1.42051 1.35337 0
M  V30 8480 O 825.667 0.801866 2.00995 0
M  V30 8481 C 826.262 3.38629 -0.107729 0
M  V30 8482 C 824.821 3.75336 0.282776 0
M  V30 8483 C 823.968 2.7317 -0.4768 0
M  V30 8484 H 826.919 1.41362 -0.72128 0
M  V30 8485 H 826.94 3.74271 0.685689 0
M  V30 8486 H 826.452 3.71017 -1.13876 0
M  V30 8487 H 824.553 3.48558 1.31675 0
M  V30 8488 H 824.666 4.79081 -0.0421728 0
M  V30 8489 H 823.03 2.54591 0.0743552 0
M  V30 8490 H 823.813 3.08403 -1.50807 0
M  V30 8491 N 826.258 0.243083 1.55714 0
M  V30 8492 C 827.221 -0.644723 2.19945 0
M  V30 8493 C 828.221 -1.10562 1.16759 0
M  V30 8494 O 829.411 -1.01095 1.41865 0
M  V30 8495 C 826.543 -1.88569 2.83997 0
M  V30 8496 H 827.736 -0.0843839 2.99781 0
M  V30 8497 H 825.289 -0.00647246 1.56299 0
M  V30 8498 H 826.024 -2.48736 2.08089 0
M  V30 8499 H 825.809 -1.56345 3.59581 0
M  V30 8500 H 827.299 -2.51774 3.33166 0
M  V30 8501 N 827.736 -1.57571 -0.0300757 0
M  V30 8502 C 828.961 -1.93879 -0.736601 0
M  V30 8503 C 829.386 -0.842998 -1.68152 0
M  V30 8504 O 828.744 0.20135 -1.80178 0
M  V30 8505 C 828.792 -3.29247 -1.47066 0
M  V30 8506 O 827.896 -3.21426 -2.58378 0
M  V30 8507 H 827.237 -0.633735 -0.198181 0
M  V30 8508 H 829.767 -2.04595 0.0141485 0
M  V30 8509 H 829.777 -3.64113 -1.84081 0
M  V30 8510 H 828.452 -4.08565 -0.77764 0
M  V30 8511 H 827.029 -2.98189 -2.23914 0
M  V30 8512 N 829.214 0.302327 -1.54673 0
M  V30 8513 C 830.177 1.35592 -1.8479 0
M  V30 8514 C 831.177 1.43743 -0.72073 0
M  V30 8515 O 832.367 1.43402 -0.989017 0
M  V30 8516 C 829.499 2.74091 -2.02699 0
M  V30 8517 H 830.692 1.10132 -2.78946 0
M  V30 8518 H 828.245 0.538926 -1.46715 0
M  V30 8519 H 828.98 3.04775 -1.10826 0
M  V30 8520 H 828.765 2.69565 -2.8474 0
M  V30 8521 H 830.255 3.50272 -2.27374 0
M  V30 8522 N 830.692 1.47107 0.565454 0
M  V30 8523 C 831.639 1.58974 1.6732 0
M  V30 8524 C 832.609 0.433146 1.60353 0
M  V30 8525 O 833.794 0.652141 1.79309 0
M  V30 8526 C 830.934 1.60224 3.05651 0
M  V30 8527 C 830.047 2.86741 3.23116 0
M  V30 8528 C 829.182 2.79381 4.51796 0
M  V30 8529 C 828.221 4.0076 4.62664 0
M  V30 8530 N 827.358 3.91685 5.8269 0
M  V30 8531 H 832.198 2.53588 1.56515 0
M  V30 8532 H 829.735 1.25791 0.762558 0
M  V30 8533 H 831.693 1.58933 3.85741 0
M  V30 8534 H 830.323 0.691285 3.15311 0
M  V30 8535 H 829.375 2.97936 2.36513 0
M  V30 8536 H 830.687 3.7665 3.27011 0
M  V30 8537 H 829.841 2.76293 5.40136 0
M  V30 8538 H 828.58 1.87142 4.50366 0
M  V30 8539 H 827.585 4.04162 3.72738 0
M  V30 8540 H 828.81 4.94117 4.6586 0
M  V30 8541 H 826.756 3.02243 5.82224 0
M  V30 8542 H 826.673 4.75264 5.87929 0
M  V30 8543 H 827.941 3.92599 6.73414 0
M  V30 8544 N 832.17 -0.811516 1.35101 0
M  V30 8545 C 833.398 -1.59981 1.31201 0
M  V30 8546 C 833.813 -1.8847 -0.111552 0
M  V30 8547 O 833.17 -1.48414 -1.06205 0
M  V30 8548 C 833.221 -2.934 2.11184 0
M  V30 8549 O 832.942 -2.66148 3.4799 0
M  V30 8550 C 834.443 -3.87776 2.14813 0
M  V30 8551 H 831.663 -0.496921 0.450899 0
M  V30 8552 H 834.207 -1.00886 1.77883 0
M  V30 8553 H 832.362 -3.49022 1.68115 0
M  V30 8554 H 832.776 -3.51301 3.89471 0
M  V30 8555 H 834.25 -4.7852 2.75178 0
M  V30 8556 H 834.727 -4.23997 1.14556 0
M  V30 8557 H 835.333 -3.3809 2.58022 0
M  V30 8558 N 833.648 -1.19017 -1.03309 0
M  V30 8559 C 834.897 -0.984542 -1.76039 0
M  V30 8560 C 835.21 0.485937 -1.89468 0
M  V30 8561 O 836.416 0.810278 -2.59127 0
M  V30 8562 C 834.872 -1.71261 -3.1654 0
M  V30 8563 C 834.48 -3.22291 -3.11179 0
M  V30 8564 C 836.224 -1.59007 -3.93595 0
M  V30 8565 C 834.131 -3.87704 -4.46587 0
M  V30 8566 H 833.061 -0.364749 -0.659905 0
M  V30 8567 H 835.712 -1.4247 -1.15649 0
M  V30 8568 H 834.094 -1.20025 -3.77373 0
M  V30 8569 H 835.268 -3.80611 -2.59753 0
M  V30 8570 H 833.583 -3.34772 -2.47622 0
M  V30 8571 H 836.18 -2.05232 -4.93745 0
M  V30 8572 H 836.523 -0.543534 -4.12736 0
M  V30 8573 H 837.056 -2.07564 -3.39355 0
M  V30 8574 H 833.795 -4.92437 -4.3265 0
M  V30 8575 H 833.315 -3.34172 -4.98085 0
M  V30 8576 H 834.994 -3.91008 -5.15482 0
M  V30 8577 N 835.127 1.22348 -0.993418 0
M  V30 8578 C 836.375 1.90733 -0.668246 0
M  V30 8579 C 836.696 1.77732 0.802261 0
M  V30 8580 O 835.966 1.16486 1.57505 0
M  V30 8581 H 834.546 0.705966 -0.244174 0
M  V30 8582 H 837.208 1.48691 -1.26004 0
M  V30 8583 H 836.304 2.97883 -0.931239 0
M  V30 8584 N 836.605 0.766683 1.37694 0
M  V30 8585 C 837.835 0.339446 2.03792 0
M  V30 8586 C 838.243 -1.04153 1.57952 0
M  V30 8587 O 837.586 -1.67521 0.753826 0
M  V30 8588 C 837.648 0.29822 3.58261 0
M  V30 8589 C 837.312 1.62293 4.27212 0
M  V30 8590 C 838.309 2.57447 4.51682 0
M  V30 8591 C 835.994 1.89597 4.65143 0
M  V30 8592 C 837.988 3.78117 5.13134 0
M  V30 8593 C 835.675 3.10538 5.26317 0
M  V30 8594 C 836.673 4.04617 5.50249 0
M  V30 8595 O 836.361 5.23429 6.10145 0
M  V30 8596 H 836.093 0.140952 0.661142 0
M  V30 8597 H 838.647 1.04022 1.77111 0
M  V30 8598 H 836.877 -0.458897 3.83967 0
M  V30 8599 H 838.566 -0.101263 4.05774 0
M  V30 8600 H 839.332 2.37633 4.22795 0
M  V30 8601 H 835.211 1.17199 4.45854 0
M  V30 8602 H 838.755 4.51563 5.3173 0
M  V30 8603 H 834.652 3.3024 5.54628 0
M  V30 8604 H 835.42 5.24187 6.28626 0
M  V30 8605 N 838.083 -1.48885 0.516809 0
M  V30 8606 C 839.015 -2.27357 -0.290061 0
M  V30 8607 C 840.028 -1.34558 -0.916406 0
M  V30 8608 O 841.217 -1.59715 -0.797073 0
M  V30 8609 C 838.317 -3.07496 -1.42476 0
M  V30 8610 C 837.49 -4.27982 -0.902793 0
M  V30 8611 C 836.549 -4.90038 -1.91701 0
M  V30 8612 O 835.575 -5.49643 -1.47922 0
M  V30 8613 N 836.777 -4.811 -3.24843 0
M  V30 8614 H 839.542 -2.97244 0.382884 0
M  V30 8615 H 837.103 -1.58064 0.35032 0
M  V30 8616 H 839.095 -3.45882 -2.10113 0
M  V30 8617 H 837.665 -2.40115 -2.00159 0
M  V30 8618 H 836.885 -3.94167 -0.0508272 0
M  V30 8619 H 838.173 -5.06003 -0.532723 0
M  V30 8620 H 837.571 -4.33801 -3.63088 0
M  V30 8621 H 836.128 -5.23625 -3.8815 0
M  V30 8622 N 839.561 -0.251338 -1.55583 0
M  V30 8623 C 840.509 0.662534 -2.22965 0
M  V30 8624 C 841.503 1.17662 -1.21869 0
M  V30 8625 O 842.709 1.133 -1.39868 0
M  V30 8626 H 839.084 0.232151 -0.715269 0
M  V30 8627 H 841.055 0.0711252 -2.98315 0
M  V30 8628 C 839.804 1.84646 -2.94621 0
M  V30 8629 H 839.127 1.46003 -3.72187 0
M  V30 8630 H 840.567 2.46303 -3.45124 0
M  V30 8631 C 839.026 2.72034 -1.98744 0
M  V30 8632 O 839.556 3.71695 -1.52335 0
M  V30 8633 N 837.762 2.38695 -1.6575 0
M  V30 8634 H 837.309 1.57702 -2.03685 0
M  V30 8635 H 837.267 2.9744 -1.01867 0
M  V30 8636 N 841.039 1.57585 0.0217189 0
M  V30 8637 C 842.45 1.7787 0.567377 0
M  V30 8638 C 842.801 0.883337 1.7519 0
M  V30 8639 O 841.926 0.0800819 2.16252 0
M  V30 8640 C 842.521 3.2257 1.03606 0
M  V30 8641 C 841.08 3.44026 1.52718 0
M  V30 8642 C 840.227 2.73313 0.468545 0
M  V30 8643 H 843.178 1.57377 -0.2045 0
M  V30 8644 H 843.199 3.29488 1.9031 0
M  V30 8645 H 842.711 3.87711 0.173739 0
M  V30 8646 H 840.812 2.8407 2.41111 0
M  V30 8647 H 840.925 4.52659 1.56962 0
M  V30 8648 H 839.289 2.37299 0.925263 0
M  V30 8649 H 840.072 3.41141 -0.384438 0
M  V30 8650 N 842.517 -0.29412 1.54831 0
M  V30 8651 C 843.465 -1.38296 1.87021 0
M  V30 8652 C 844.459 -1.5216 0.744557 0
M  V30 8653 O 845.665 -1.54196 0.92864 0
M  V30 8654 H 842.04 -0.462088 0.593278 0
M  V30 8655 H 844.011 -1.08386 2.7802 0
M  V30 8656 C 842.76 -2.74024 2.14023 0
M  V30 8657 H 842.083 -2.6414 3.00117 0
M  V30 8658 H 843.523 -3.49205 2.40482 0
M  V30 8659 C 841.982 -3.23492 0.940982 0
M  V30 8660 O 842.512 -4.01361 0.164937 0
M  V30 8661 N 840.718 -2.80902 0.744467 0
M  V30 8662 H 840.265 -2.17694 1.37721 0
M  V30 8663 H 840.223 -3.14349 -0.0563652 0
M  V30 8664 N 843.995 -1.47404 -0.557645 0
M  V30 8665 C 844.945 -1.56267 -1.66026 0
M  V30 8666 C 845.929 -0.42161 -1.55278 0
M  V30 8667 O 847.121 -0.671505 -1.63768 0
M  V30 8668 C 844.25 -1.57958 -3.04802 0
M  V30 8669 C 843.336 -2.77447 -3.20755 0
M  V30 8670 N 843.727 -4.02148 -3.06775 0
M  V30 8671 C 842.025 -2.74199 -3.51754 0
M  V30 8672 C 842.726 -4.82168 -3.25406 0
M  V30 8673 N 841.702 -4.14481 -3.5172 0
M  V30 8674 H 845.504 -2.50454 -1.53785 0
M  V30 8675 H 843.018 -1.43392 -0.762388 0
M  V30 8676 H 845.015 -1.62397 -3.8397 0
M  V30 8677 H 843.675 -0.648667 -3.18155 0
M  V30 8678 H 844.686 -4.33014 -2.84111 0
M  V30 8679 H 841.363 -1.90243 -3.71637 0
M  V30 8680 H 842.753 -5.91037 -3.19569 0
M  V30 8681 N 845.473 0.80434 -1.35529 0
M  V30 8682 C 846.719 1.56328 -1.30127 0
M  V30 8683 C 847.074 1.92008 0.122699 0
M  V30 8684 O 846.367 1.58693 1.07364 0
M  V30 8685 C 846.561 2.85988 -2.14349 0
M  V30 8686 C 846.39 2.62977 -3.64792 0
M  V30 8687 C 845.16 2.58757 -4.34019 0
M  V30 8688 C 847.358 2.332 -4.58391 0
M  V30 8689 N 845.34 2.27487 -5.70195 0
M  V30 8690 C 846.711 2.11788 -5.82706 0
M  V30 8691 C 848.766 2.19082 -4.4711 0
M  V30 8692 C 847.469 1.77688 -6.97008 0
M  V30 8693 C 849.495 1.86378 -5.61264 0
M  V30 8694 C 848.857 1.65804 -6.84608 0
M  V30 8695 H 844.956 0.57368 -0.531428 0
M  V30 8696 H 847.54 0.941313 -1.70433 0
M  V30 8697 H 845.711 3.46077 -1.76311 0
M  V30 8698 H 847.443 3.51571 -2.00449 0
M  V30 8699 H 844.198 2.73484 -3.86656 0
M  V30 8700 H 844.622 2.1464 -6.42074 0
M  V30 8701 H 849.264 2.33686 -3.5235 0
M  V30 8702 H 846.982 1.61822 -7.91732 0
M  V30 8703 H 850.568 1.7616 -5.5449 0
M  V30 8704 H 849.448 1.40868 -7.71444 0
M  V30 8705 N 846.951 1.19563 1.02676 0
M  V30 8706 C 848.176 1.02556 1.80269 0
M  V30 8707 C 848.601 -0.421056 1.83327 0
M  V30 8708 O 847.959 -1.30279 1.26084 0
M  V30 8709 C 848.007 1.60165 3.23078 0
M  V30 8710 O 847.111 0.832404 4.03912 0
M  V30 8711 H 846.452 0.362354 0.556413 0
M  V30 8712 H 848.982 1.58633 1.29216 0
M  V30 8713 H 848.992 1.6347 3.7382 0
M  V30 8714 H 847.667 2.65454 3.20167 0
M  V30 8715 H 846.244 0.872768 3.62543 0
M  V30 8716 N 848.429 -1.21819 0.999893 0
M  V30 8717 C 849.361 -2.23356 0.514256 0
M  V30 8718 C 850.374 -1.5795 -0.394413 0
M  V30 8719 O 851.563 -1.77427 -0.195428 0
M  V30 8720 C 848.663 -3.37797 -0.273207 0
M  V30 8721 C 847.836 -4.32791 0.633293 0
M  V30 8722 C 846.895 -5.26098 -0.103673 0
M  V30 8723 O 845.921 -5.66881 0.513269 0
M  V30 8724 N 847.123 -5.63764 -1.38383 0
M  V30 8725 H 849.888 -2.65653 1.3874 0
M  V30 8726 H 847.449 -1.3619 0.875431 0
M  V30 8727 H 849.441 -3.97209 -0.775053 0
M  V30 8728 H 848.011 -2.94527 -1.0475 0
M  V30 8729 H 847.231 -3.71595 1.31571 0
M  V30 8730 H 848.519 -4.93196 1.25039 0
M  V30 8731 H 847.917 -5.32614 -1.90627 0
M  V30 8732 H 846.474 -6.25562 -1.83073 0
M  V30 8733 N 849.908 -0.773975 -1.37286 0
M  V30 8734 C 851.154 -0.339809 -1.99933 0
M  V30 8735 C 851.487 1.0815 -1.61299 0
M  V30 8736 O 850.762 1.74442 -0.860252 0
M  V30 8737 C 851.045 -0.485919 -3.56806 0
M  V30 8738 C 850.898 -1.9498 -4.05343 0
M  V30 8739 C 852.217 0.108461 -4.39966 0
M  V30 8740 H 849.336 -0.124944 -0.726332 0
M  V30 8741 H 851.978 -0.977433 -1.6293 0
M  V30 8742 H 850.128 0.0569023 -3.88458 0
M  V30 8743 H 851.8 -2.5525 -3.84246 0
M  V30 8744 H 850.043 -2.45784 -3.57453 0
M  V30 8745 H 850.714 -2.00308 -5.14374 0
M  V30 8746 H 853.19 -0.354722 -4.14585 0
M  V30 8747 H 852.066 -0.0238926 -5.48895 0
M  V30 8748 H 852.327 1.19901 -4.25531 0
M  V30 8749 N 851.386 1.48609 -0.524698 0
M  V30 8750 C 852.334 2.31205 0.254398 0
M  V30 8751 C 853.328 1.40894 0.940491 0
M  V30 8752 O 854.534 1.57827 0.865478 0
M  V30 8753 H 850.909 0.745199 0.100907 0
M  V30 8754 H 852.88 2.94804 -0.461876 0
M  V30 8755 C 851.629 3.2282 1.2916 0
M  V30 8756 H 850.952 3.92255 0.773074 0
M  V30 8757 H 852.392 3.83508 1.80825 0
M  V30 8758 C 850.851 2.4406 2.32242 0
M  V30 8759 O 851.381 2.16163 3.3858 0
M  V30 8760 N 849.587 2.05651 2.05319 0
M  V30 8761 H 849.134 2.28539 1.18861 0
M  V30 8762 H 849.092 1.53265 2.74513 0
M  V30 8763 N 852.864 0.259585 1.55447 0
M  V30 8764 C 853.827 -0.621359 2.20617 0
M  V30 8765 C 854.827 -1.09317 1.17925 0
M  V30 8766 O 856.017 -0.995842 1.42929 0
M  V30 8767 C 853.149 -1.85546 2.85982 0
M  V30 8768 H 854.342 -0.0525833 2.99854 0
M  V30 8769 H 851.895 0.0101055 1.56297 0
M  V30 8770 H 852.63 -2.46515 2.10715 0
M  V30 8771 H 852.415 -1.52523 3.61219 0
M  V30 8772 H 853.905 -2.48227 3.35817 0
M  V30 8773 N 854.342 -1.57594 -0.0133615 0
M  V30 8774 C 855.572 -1.93969 -0.711295 0
M  V30 8775 C 855.98 -0.859084 -1.68572 0
M  V30 8776 O 855.323 0.171842 -1.82894 0
M  V30 8777 C 855.385 -3.2625 -1.51001 0
M  V30 8778 C 855.049 -4.51628 -0.698645 0
M  V30 8779 C 856.046 -5.19899 0.00791185 0
M  V30 8780 C 853.731 -4.98095 -0.648553 0
M  V30 8781 C 855.725 -6.32928 0.753691 0
M  V30 8782 C 853.412 -6.11017 0.10096 0
M  V30 8783 C 854.41 -6.78289 0.800828 0
M  V30 8784 O 854.098 -7.89048 1.53814 0
M  V30 8785 H 853.83 -0.6445 -0.203951 0
M  V30 8786 H 856.384 -2.05378 0.0298267 0
M  V30 8787 H 854.614 -3.11211 -2.29531 0
M  V30 8788 H 856.303 -3.47835 -2.09202 0
M  V30 8789 H 857.069 -4.84995 -0.0217192 0
M  V30 8790 H 852.948 -4.45568 -1.18282 0
M  V30 8791 H 856.492 -6.85371 1.3005 0
M  V30 8792 H 852.389 -6.45364 0.132459 0
M  V30 8793 H 853.157 -8.05492 1.45345 0
M  V30 8794 N 855.82 0.285905 -1.54985 0
M  V30 8795 C 857.069 1.01691 -1.74189 0
M  V30 8796 C 857.382 1.87908 -0.543135 0
M  V30 8797 O 858.588 2.64389 -0.617305 0
M  V30 8798 C 857.044 1.85785 -3.0824 0
M  V30 8799 C 856.652 1.04497 -4.35642 0
M  V30 8800 C 858.396 2.58393 -3.36798 0
M  V30 8801 C 856.303 1.87955 -5.60738 0
M  V30 8802 H 855.233 0.383396 -0.649248 0
M  V30 8803 H 857.884 0.27317 -1.81455 0
M  V30 8804 H 856.266 2.64205 -2.94978 0
M  V30 8805 H 857.44 0.305847 -4.59784 0
M  V30 8806 H 855.755 0.434023 -4.14132 0
M  V30 8807 H 858.352 3.21214 -4.27464 0
M  V30 8808 H 858.695 3.28011 -2.56349 0
M  V30 8809 H 859.228 1.87012 -3.511 0
M  V30 8810 H 855.967 1.22781 -6.43898 0
M  V30 8811 H 855.487 2.59499 -5.40759 0
M  V30 8812 H 857.166 2.45636 -5.98558 0
M  V30 8813 N 857.298 1.47698 0.54982 0
M  V30 8814 C 858.528 1.58101 1.32995 0
M  V30 8815 C 858.936 0.232939 1.87761 0
M  V30 8816 O 858.279 -0.785058 1.6608 0
M  V30 8817 C 858.341 2.55228 2.53178 0
M  V30 8818 C 858.005 4.00756 2.19645 0
M  V30 8819 C 859.002 4.89025 1.76496 0
M  V30 8820 C 856.687 4.46147 2.30777 0
M  V30 8821 C 858.681 6.20707 1.44919 0
M  V30 8822 C 856.368 5.77856 1.98812 0
M  V30 8823 C 857.366 6.64957 1.55952 0
M  V30 8824 O 857.054 7.94217 1.24396 0
M  V30 8825 H 856.786 0.536362 0.411451 0
M  V30 8826 H 859.34 1.94092 0.67212 0
M  V30 8827 H 857.57 2.14319 3.21876 0
M  V30 8828 H 859.259 2.55678 3.15251 0
M  V30 8829 H 860.025 4.55201 1.67383 0
M  V30 8830 H 855.904 3.78552 2.63096 0
M  V30 8831 H 859.448 6.88649 1.11392 0
M  V30 8832 H 855.345 6.11219 2.0756 0
M  V30 8833 H 856.113 8.06789 1.37964 0
M  V30 8834 N 858.776 -0.797141 1.35954 0
M  V30 8835 C 859.723 -1.90944 1.2965 0
M  V30 8836 C 860.693 -1.65262 0.166628 0
M  V30 8837 O 861.878 -1.87527 0.351883 0
M  V30 8838 C 859.018 -3.27637 1.08389 0
M  V30 8839 C 858.131 -3.65442 2.30382 0
M  V30 8840 C 857.266 -4.91213 2.02195 0
M  V30 8841 C 856.305 -5.21674 3.20191 0
M  V30 8842 N 855.442 -6.38627 2.91719 0
M  V30 8843 H 860.282 -1.95668 2.24762 0
M  V30 8844 H 857.819 -0.95696 1.11717 0
M  V30 8845 H 859.777 -4.06451 0.940912 0
M  V30 8846 H 858.407 -3.22355 0.169351 0
M  V30 8847 H 857.459 -2.81813 2.55511 0
M  V30 8848 H 858.771 -3.83907 3.18461 0
M  V30 8849 H 857.925 -5.77876 1.84783 0
M  V30 8850 H 856.664 -4.74803 1.11416 0
M  V30 8851 H 855.669 -4.33498 3.38171 0
M  V30 8852 H 856.894 -5.40009 4.11786 0
M  V30 8853 H 854.84 -6.23623 2.03543 0
M  V30 8854 H 854.757 -6.57387 3.73334 0
M  V30 8855 H 856.025 -7.28292 2.77868 0
M  V30 8856 N 860.254 -1.20106 -1.0204 0
M  V30 8857 C 861.204 -0.914145 -2.08872 0
M  V30 8858 C 862.188 0.124503 -1.60418 0
M  V30 8859 O 863.38 -0.0823521 -1.76808 0
M  V30 8860 C 860.509 -0.463897 -3.40151 0
M  V30 8861 C 859.595 -1.53576 -3.95317 0
M  V30 8862 N 859.986 -2.75726 -4.24038 0
M  V30 8863 C 858.284 -1.40103 -4.23423 0
M  V30 8864 C 858.985 -3.44838 -4.68468 0
M  V30 8865 N 857.961 -2.72245 -4.70514 0
M  V30 8866 H 861.763 -1.8424 -2.28982 0
M  V30 8867 H 859.277 -1.0945 -1.19977 0
M  V30 8868 H 861.274 -0.239766 -4.1621 0
M  V30 8869 H 859.934 0.457779 -3.21457 0
M  V30 8870 H 860.945 -3.12412 -4.13061 0
M  V30 8871 H 857.622 -0.543472 -4.13948 0
M  V30 8872 H 859.012 -4.49342 -4.99541 0
M  V30 8873 N 861.732 1.21287 -1.00634 0
M  V30 8874 C 863.009 1.86 -0.605257 0
M  V30 8875 C 863.389 1.90139 0.917072 0
M  V30 8876 O 862.737 1.40169 1.80458 0
M  V30 8877 C 862.947 3.26183 -1.24119 0
M  V30 8878 C 864.295 4.02562 -1.35015 0
M  V30 8879 O 865.319 3.35499 -1.19661 0
M  V30 8880 O 864.178 5.22638 -1.59726 0
M  V30 8881 H 861.272 0.800549 -0.207486 0
M  V30 8882 H 863.818 1.28959 -1.10307 0
M  V30 8883 H 862.59 3.17878 -2.28186 0
M  V30 8884 H 862.213 3.90845 -0.729807 0
M  V30 8885 N 863.21 0.781244 1.36873 0
M  V30 8886 C 864.458 0.349198 1.9906 0
M  V30 8887 C 864.779 -1.0806 1.62321 0
M  V30 8888 O 864.049 -1.74351 0.893229 0
M  V30 8889 H 862.629 0.126126 0.736275 0
M  V30 8890 H 865.291 1.00148 1.67202 0
M  V30 8891 H 864.387 0.434451 3.09061 0
M  V30 8892 N 864.689 -1.48329 0.532571 0
M  V30 8893 C 865.914 -2.074 0.00147755 0
M  V30 8894 C 866.339 -1.38615 -1.27151 0
M  V30 8895 O 865.697 -0.452949 -1.75551 0
M  V30 8896 C 865.745 -3.60029 -0.202866 0
M  V30 8897 O 864.849 -3.92327 -1.27097 0
M  V30 8898 H 864.19 -0.662777 0.0402883 0
M  V30 8899 H 866.72 -1.90701 0.741224 0
M  V30 8900 H 866.73 -4.05783 -0.424722 0
M  V30 8901 H 865.405 -4.09496 0.727033 0
M  V30 8902 H 863.982 -3.58348 -1.03156 0
M  V30 8903 N 866.167 -0.267825 -1.55308 0
M  V30 8904 C 867.583 0.0865107 -1.59365 0
M  V30 8905 C 867.783 1.55205 -1.28505 0
M  V30 8906 O 866.839 2.29978 -1.04241 0
M  V30 8907 C 868.152 -0.28155 -2.99379 0
M  V30 8908 C 869.7 -0.227565 -3.12172 0
M  V30 8909 C 870.175 -0.569959 -4.5444 0
M  V30 8910 N 871.666 -0.521238 -4.60258 0
M  V30 8911 C 872.401 -0.759061 -5.68354 0
M  V30 8912 N 871.897 -1.06112 -6.84626 0
M  V30 8913 N 873.69 -0.688351 -5.57869 0
M  V30 8914 H 865.841 -1.22332 -1.73633 0
M  V30 8915 H 868.104 -0.493703 -0.809297 0
M  V30 8916 H 867.81 -1.3005 -3.26772 0
M  V30 8917 H 867.684 0.381192 -3.75269 0
M  V30 8918 H 870.071 0.782093 -2.84548 0
M  V30 8919 H 870.152 -0.924461 -2.38511 0
M  V30 8920 H 869.796 -1.57727 -4.82788 0
M  V30 8921 H 869.726 0.148646 -5.2639 0
M  V30 8922 H 872.217 -0.297359 -3.76728 0
M  V30 8923 H 872.53 -1.22945 -7.62958 0
M  V30 8924 H 870.875 -1.09881 -6.86259 0
M  V30 8925 H 874.066 -0.452268 -4.6591 0
M  V30 8926 H 874.239 -0.877081 -6.42037 0
M  V30 8927 N 867.645 1.57599 0.00500368 0
M  V30 8928 C 868.891 1.90631 0.691919 0
M  V30 8929 C 869.224 0.868443 1.737 0
M  V30 8930 O 868.499 -0.113482 1.94169 0
M  V30 8931 C 868.782 3.34255 1.33961 0
M  V30 8932 C 868.635 4.48755 0.306413 0
M  V30 8933 C 869.954 3.77211 2.26715 0
M  V30 8934 H 867.073 0.693279 0.250066 0
M  V30 8935 H 869.715 1.89946 -0.0452634 0
M  V30 8936 H 867.865 3.3497 1.96793 0
M  V30 8937 H 869.537 4.60176 -0.321841 0
M  V30 8938 H 867.78 4.32203 -0.371852 0
M  V30 8939 H 868.451 5.46193 0.798554 0
M  V30 8940 H 870.927 3.78017 1.73904 0
M  V30 8941 H 869.803 4.78466 2.69002 0
M  V30 8942 H 870.064 3.10801 3.14413 0
M  V30 8943 N 869.123 -0.277682 1.55134 0
M  V30 8944 C 870.372 -1.00766 1.74726 0
M  V30 8945 C 870.685 -1.87617 0.553092 0
M  V30 8946 O 871.891 -2.64058 0.631318 0
M  V30 8947 C 870.347 -1.84147 3.09221 0
M  V30 8948 C 869.955 -1.02186 4.3619 0
M  V30 8949 C 871.699 -2.56604 3.38164 0
M  V30 8950 C 869.606 -1.84978 5.61727 0
M  V30 8951 H 868.536 -0.379948 0.651273 0
M  V30 8952 H 871.187 -0.263543 1.81598 0
M  V30 8953 H 869.569 -2.62637 2.96375 0
M  V30 8954 H 870.743 -0.281459 4.5994 0
M  V30 8955 H 869.058 -0.412054 4.14356 0
M  V30 8956 H 871.655 -3.18942 4.29162 0
M  V30 8957 H 871.998 -3.26647 2.58085 0
M  V30 8958 H 872.531 -1.85147 3.52087 0
M  V30 8959 H 869.27 -1.19365 6.4454 0
M  V30 8960 H 868.79 -2.56628 5.42128 0
M  V30 8961 H 870.469 -2.42458 5.99853 0
M  V30 8962 N 870.601 -1.47988 -0.541979 0
M  V30 8963 C 871.511 -1.64276 -1.67483 0
M  V30 8964 C 872.527 -0.525387 -1.65879 0
M  V30 8965 O 873.703 -0.794912 -1.85049 0
M  V30 8966 C 870.768 -1.66744 -3.03969 0
M  V30 8967 C 869.829 -2.90021 -3.16522 0
M  V30 8968 C 869.062 -2.92362 -4.46498 0
M  V30 8969 O 869.285 -2.03462 -5.32878 0
M  V30 8970 O 868.219 -3.84399 -4.63164 0
M  V30 8971 H 872.045 -2.60164 -1.5668 0
M  V30 8972 H 869.63 -1.31249 -0.71372 0
M  V30 8973 H 871.512 -1.70958 -3.85164 0
M  V30 8974 H 870.187 -0.740277 -3.15122 0
M  V30 8975 H 869.094 -2.91345 -2.34667 0
M  V30 8976 H 870.427 -3.82082 -3.10281 0
M  V30 8977 N 872.079 0.78992 -1.36375 0
M  V30 8978 C 873.009 1.91683 -1.33341 0
M  V30 8979 C 873.99 1.68861 -0.204965 0
M  V30 8980 O 875.175 1.89982 -0.402531 0
M  V30 8981 C 872.305 3.28696 -1.12143 0
M  V30 8982 C 871.259 3.66041 -2.21806 0
M  V30 8983 C 870.585 5.01399 -1.85751 0
M  V30 8984 C 871.885 3.74677 -3.63888 0
M  V30 8985 H 873.579 1.94478 -2.27637 0
M  V30 8986 H 871.125 0.934271 -1.09578 0
M  V30 8987 H 873.078 4.07151 -1.08656 0
M  V30 8988 H 871.802 3.26287 -0.142974 0
M  V30 8989 H 870.461 2.89883 -2.24418 0
M  V30 8990 H 870.109 4.9551 -0.864817 0
M  V30 8991 H 869.809 5.27355 -2.59173 0
M  V30 8992 H 871.333 5.82274 -1.83819 0
M  V30 8993 H 872.747 4.43324 -3.63506 0
M  V30 8994 H 871.144 4.12118 -4.3621 0
M  V30 8995 H 872.214 2.75795 -3.9883 0
M  V30 8996 N 873.557 1.20646 1.01402 0
M  V30 8997 C 874.785 1.04389 1.78635 0
M  V30 8998 C 875.2 -0.406771 1.84366 0
M  V30 8999 O 874.557 -1.28239 1.2985 0
M  V30 9000 C 874.608 1.62378 3.22979 0
M  V30 9001 O 874.329 3.01768 3.17597 0
M  V30 9002 C 875.83 1.5111 4.1675 0
M  V30 9003 H 873.05 0.367077 0.56169 0
M  V30 9004 H 875.594 1.59789 1.27624 0
M  V30 9005 H 873.749 1.11092 3.7113 0
M  V30 9006 H 874.163 3.29331 4.08217 0
M  V30 9007 H 875.637 1.96441 5.15863 0
M  V30 9008 H 876.114 0.464011 4.36742 0
M  V30 9009 H 876.72 2.01599 3.74483 0
M  V30 9010 N 875.035 -1.20752 1.01276 0
M  V30 9011 C 876.283 -1.89645 0.698505 0
M  V30 9012 C 876.604 -1.78986 -0.773883 0
M  V30 9013 O 875.874 -1.18977 -1.55632 0
M  V30 9014 H 874.454 -0.701992 0.255375 0
M  V30 9015 H 877.116 -1.46668 1.28353 0
M  V30 9016 H 876.212 -2.96364 0.978512 0
M  V30 9017 N 876.513 -0.788492 -1.36457 0
M  V30 9018 C 877.738 -0.371224 -2.04051 0
M  V30 9019 C 878.163 1.004 -1.59064 0
M  V30 9020 O 877.521 1.64663 -0.758679 0
M  V30 9021 C 877.569 -0.442275 -3.57877 0
M  V30 9022 O 876.673 0.55113 -4.08701 0
M  V30 9023 H 876.014 -0.157808 -0.644975 0
M  V30 9024 H 878.544 -1.06935 -1.74431 0
M  V30 9025 H 878.554 -0.305548 -4.06854 0
M  V30 9026 H 877.229 -1.44547 -3.89973 0
M  V30 9027 H 875.806 0.37614 -3.70998 0
M  V30 9028 N 877.991 1.48044 -0.54043 0
M  V30 9029 C 879.237 2.03392 -0.0183377 0
M  V30 9030 C 879.592 1.4091 1.31004 0
M  V30 9031 O 878.885 0.549375 1.83555 0
M  V30 9032 C 879.079 3.57085 0.150008 0
M  V30 9033 C 878.908 4.34468 -1.1605 0
M  V30 9034 C 877.678 4.75008 -1.72324 0
M  V30 9035 C 879.876 4.70641 -2.07368 0
M  V30 9036 N 877.858 5.36968 -2.97555 0
M  V30 9037 C 879.229 5.32728 -3.17176 0
M  V30 9038 C 881.284 4.52571 -2.07567 0
M  V30 9039 C 879.987 5.78654 -4.27261 0
M  V30 9040 C 882.013 4.99485 -3.16653 0
M  V30 9041 C 881.375 5.61606 -4.2518 0
M  V30 9042 H 877.474 0.780497 -0.0484652 0
M  V30 9043 H 880.058 1.80738 -0.724018 0
M  V30 9044 H 878.229 3.79542 0.824787 0
M  V30 9045 H 879.961 3.99071 0.672649 0
M  V30 9046 H 876.716 4.5644 -1.26331 0
M  V30 9047 H 877.14 5.72505 -3.61341 0
M  V30 9048 H 881.782 4.03914 -1.24952 0
M  V30 9049 H 879.5 6.26311 -5.10647 0
M  V30 9050 H 883.086 4.87286 -3.17874 0
M  V30 9051 H 881.966 5.97248 -5.08197 0
M  V30 9052 N 879.47 0.276058 1.55163 0
M  V30 9053 C 880.881 -0.221516 1.85381 0
M  V30 9054 C 881.232 -1.55372 1.19808 0
M  V30 9055 O 880.357 -2.10855 0.486742 0
M  V30 9056 C 880.952 -0.408706 3.36326 0
M  V30 9057 C 879.511 -0.850512 3.66665 0
M  V30 9058 C 878.658 0.055656 2.77244 0
M  V30 9059 H 881.609 0.497819 1.5069 0
M  V30 9060 H 881.63 -1.24711 3.59482 0
M  V30 9061 H 881.142 0.561052 3.84023 0
M  V30 9062 H 879.243 -1.83171 3.24468 0
M  V30 9063 H 879.356 -0.687181 4.74146 0
M  V30 9064 H 877.72 -0.460819 2.50497 0
M  V30 9065 H 878.503 1.02131 3.27756 0
M  V30 9066 N 880.948 -1.576 0.00335426 0
M  V30 9067 C 882.196 -1.90336 -0.679446 0
M  V30 9068 C 882.517 -0.877777 -1.74127 0
M  V30 9069 O 881.787 0.0843585 -1.95718 0
M  V30 9070 H 880.367 -0.702509 -0.253948 0
M  V30 9071 H 883.029 -1.94848 0.0450731 0
M  V30 9072 H 882.125 -2.90197 -1.14857 0
M  V30 9073 N 882.426 0.269451 -1.5528 0
M  V30 9074 C 883.373 1.33316 -1.88403 0
M  V30 9075 C 884.343 1.48909 -0.735881 0
M  V30 9076 O 885.528 1.63259 -0.987479 0
M  V30 9077 C 882.668 2.68778 -2.16454 0
M  V30 9078 C 881.781 2.61377 -3.43956 0
M  V30 9079 C 880.916 3.89042 -3.6169 0
M  V30 9080 C 879.955 3.76166 -4.82872 0
M  V30 9081 N 879.092 4.95673 -4.97245 0
M  V30 9082 H 883.932 1.04368 -2.79126 0
M  V30 9083 H 881.469 0.504147 -1.38191 0
M  V30 9084 H 883.427 3.47599 -2.30719 0
M  V30 9085 H 882.057 2.9592 -1.28961 0
M  V30 9086 H 881.109 1.74247 -3.38145 0
M  V30 9087 H 882.421 2.47764 -4.32914 0
M  V30 9088 H 881.575 4.76304 -3.75791 0
M  V30 9089 H 880.314 4.05526 -2.70924 0
M  V30 9090 H 879.319 2.87287 -4.68771 0
M  V30 9091 H 880.544 3.61198 -5.75077 0
M  V30 9092 H 878.49 5.12561 -4.09411 0
M  V30 9093 H 878.407 4.84605 -5.80254 0
M  V30 9094 H 879.675 5.84498 -5.15735 0
M  V30 9095 N 883.904 1.48273 0.534124 0
M  V30 9096 C 885.315 1.49667 1.1161 0
M  V30 9097 C 885.666 0.264139 1.94414 0
M  V30 9098 O 884.791 -0.629084 2.07054 0
M  V30 9099 C 885.386 2.71191 2.03079 0
M  V30 9100 C 883.945 2.7547 2.56502 0
M  V30 9101 C 883.092 2.43119 1.33373 0
M  V30 9102 H 886.043 1.55449 0.319578 0
M  V30 9103 H 886.064 2.49473 2.87304 0
M  V30 9104 H 885.576 3.60879 1.42785 0
M  V30 9105 H 883.677 1.89979 3.20529 0
M  V30 9106 H 883.79 3.76787 2.95919 0
M  V30 9107 H 882.154 1.94187 1.64813 0
M  V30 9108 H 882.937 3.35044 0.748375 0
M  V30 9109 N 885.382 -0.782676 1.36792 0
M  V30 9110 C 886.315 -1.90241 1.2603 0
M  V30 9111 C 887.293 -1.61969 0.143055 0
M  V30 9112 O 888.477 -1.85843 0.315366 0
M  V30 9113 C 885.604 -3.25218 0.946082 0
M  V30 9114 C 884.65 -3.72414 2.0787 0
M  V30 9115 S 885.483 -3.87376 3.69729 0
M  V30 9116 C 886.639 -5.25219 3.40435 0
M  V30 9117 H 886.872 -1.99079 2.20805 0
M  V30 9118 H 884.405 -0.942625 1.22286 0
M  V30 9119 H 886.363 -4.03183 0.771612 0
M  V30 9120 H 885.024 -3.14096 0.0159991 0
M  V30 9121 H 884.217 -4.7024 1.81358 0
M  V30 9122 H 883.819 -3.01519 2.21274 0
M  V30 9123 H 886.111 -6.10025 2.94746 0
M  V30 9124 H 887.054 -5.56738 4.37549 0
M  V30 9125 H 887.462 -4.92638 2.75622 0
M  V30 9126 N 886.86 -1.21182 -1.00761 0
M  V30 9127 C 888.088 -1.05335 -1.78079 0
M  V30 9128 C 888.503 0.396988 -1.84579 0
M  V30 9129 O 887.86 1.27548 -1.30529 0
M  V30 9130 C 887.911 -1.64089 -3.22113 0
M  V30 9131 O 887.632 -3.03448 -3.15992 0
M  V30 9132 C 889.133 -1.53318 -4.15943 0
M  V30 9133 H 886.353 -0.37005 -0.559736 0
M  V30 9134 H 888.897 -1.60463 -1.26775 0
M  V30 9135 H 887.052 -1.13059 -3.70535 0
M  V30 9136 H 887.466 -3.31492 -4.06465 0
M  V30 9137 H 888.94 -1.99174 -5.14814 0
M  V30 9138 H 889.417 -0.487166 -4.3649 0
M  V30 9139 H 890.023 -2.03582 -3.73409 0
M  V30 9140 N 888.338 1.20213 -1.01915 0
M  V30 9141 C 889.285 2.2309 -0.591571 0
M  V30 9142 C 890.255 1.61465 0.389649 0
M  V30 9143 O 891.44 1.88606 0.288511 0
M  V30 9144 C 888.58 3.45045 0.0614028 0
M  V30 9145 C 887.693 4.21091 -0.964688 0
M  V30 9146 C 886.828 5.30448 -0.282499 0
M  V30 9147 C 885.867 5.98241 -1.29517 0
M  V30 9148 N 885.004 6.99182 -0.639472 0
M  V30 9149 H 889.844 2.59023 -1.47347 0
M  V30 9150 H 887.381 1.27274 -0.737547 0
M  V30 9151 H 889.339 4.14688 0.45714 0
M  V30 9152 H 887.969 3.09797 0.906937 0
M  V30 9153 H 887.021 3.50489 -1.47857 0
M  V30 9154 H 888.333 4.67662 -1.73475 0
M  V30 9155 H 887.487 6.06466 0.168603 0
M  V30 9156 H 886.226 4.84922 0.519843 0
M  V30 9157 H 885.231 5.20982 -1.75663 0
M  V30 9158 H 886.456 6.45853 -2.09884 0
M  V30 9159 H 884.402 6.55844 0.142955 0
M  V30 9160 H 884.319 7.43893 -1.34756 0
M  V30 9161 H 885.587 7.79212 -0.212047 0
M  V30 9162 N 889.816 0.795718 1.36037 0
M  V30 9163 C 890.764 0.18649 2.31851 0
M  V30 9164 C 891.758 -0.657704 1.56111 0
M  V30 9165 O 892.964 -0.552083 1.71324 0
M  V30 9166 H 889.339 0.0415363 0.750852 0
M  V30 9167 H 891.31 1.00992 2.8079 0
M  V30 9168 C 890.059 -0.65918 3.41394 0
M  V30 9169 H 889.382 -0.01894 3.99796 0
M  V30 9170 H 890.822 -1.05202 4.10741 0
M  V30 9171 C 889.281 -1.82011 2.83502 0
M  V30 9172 O 889.811 -2.91703 2.76174 0
M  V30 9173 N 888.017 -1.62821 2.40703 0
M  V30 9174 H 887.564 -0.735965 2.46863 0
M  V30 9175 H 887.522 -2.40657 2.02316 0
M  V30 9176 N 891.294 -1.47756 0.548274 0
M  V30 9177 C 892.257 -2.28379 -0.193857 0
M  V30 9178 C 893.257 -1.36436 -0.850986 0
M  V30 9179 O 894.447 -1.59154 -0.70822 0
M  V30 9180 C 891.579 -3.15858 -1.28243 0
M  V30 9181 H 892.772 -2.95458 0.514231 0
M  V30 9182 H 890.325 -1.53298 0.304879 0
M  V30 9183 H 891.06 -2.5345 -2.0232 0
M  V30 9184 H 890.845 -3.83512 -0.816148 0
M  V30 9185 H 892.335 -3.76627 -1.80393 0
M  V30 9186 N 892.772 -0.284283 -1.55015 0
M  V30 9187 C 894.049 0.382125 -1.91831 0
M  V30 9188 C 894.429 1.73007 -1.20962 0
M  V30 9189 O 893.777 2.25962 -0.339594 0
M  V30 9190 C 893.987 0.513341 -3.45204 0
M  V30 9191 C 895.335 0.791989 -4.17148 0
M  V30 9192 O 896.359 0.597799 -3.51148 0
M  V30 9193 O 895.218 1.16394 -5.33961 0
M  V30 9194 H 892.312 0.210707 -0.799707 0
M  V30 9195 H 894.858 -0.331111 -1.66438 0
M  V30 9196 H 893.63 -0.434911 -3.88876 0
M  V30 9197 H 893.253 1.27569 -3.76579 0
M  V30 9198 N 894.251 1.57596 -0.0117121 0
M  V30 9199 C 895.499 1.90694 0.669342 0
M  V30 9200 C 895.82 0.886999 1.73659 0
M  V30 9201 O 895.09 -0.0739779 1.9576 0
M  V30 9202 H 893.67 0.703846 0.250219 0
M  V30 9203 H 896.332 1.94821 -0.0554057 0
M  V30 9204 H 895.428 2.90802 1.13316 0
M  V30 9205 N 895.729 -0.261212 1.5542 0
M  V30 9206 C 896.978 -0.989072 1.75785 0
M  V30 9207 C 897.291 -1.8702 0.572961 0
M  V30 9208 O 898.497 -2.63374 0.659289 0
M  V30 9209 C 896.953 -1.80857 3.11157 0
M  V30 9210 C 896.561 -0.975535 4.3725 0
M  V30 9211 C 898.305 -2.53003 3.40866 0
M  V30 9212 C 896.212 -1.7901 5.63657 0
M  V30 9213 H 895.142 -0.373019 0.655266 0
M  V30 9214 H 897.793 -0.244267 1.81867 0
M  V30 9215 H 896.175 -2.59479 2.99144 0
M  V30 9216 H 897.349 -0.232661 4.60212 0
M  V30 9217 H 895.664 -0.368083 4.1477 0
M  V30 9218 H 898.261 -3.14372 4.32521 0
M  V30 9219 H 898.604 -3.23891 2.61535 0
M  V30 9220 H 899.137 -1.81403 3.54031 0
M  V30 9221 H 895.876 -1.12522 6.4577 0
M  V30 9222 H 895.396 -2.50863 5.44819 0
M  V30 9223 H 897.075 -2.36082 6.0239 0
M  V30 9224 N 897.207 -1.48554 -0.526253 0
M  V30 9225 C 898.437 -1.60197 -1.30463 0
M  V30 9226 C 898.845 -0.26278 -1.87366 0
M  V30 9227 O 898.188 0.758537 -1.67308 0
M  V30 9228 C 898.25 -2.59223 -2.49085 0
M  V30 9229 C 897.914 -4.04199 -2.13241 0
M  V30 9230 C 898.911 -4.91771 -1.68694 0
M  V30 9231 C 896.596 -4.49762 -2.2365 0
M  V30 9232 C 898.59 -6.22934 -1.35026 0
M  V30 9233 C 896.277 -5.80945 -1.89594 0
M  V30 9234 C 897.275 -6.67354 -1.45353 0
M  V30 9235 O 896.963 -7.96096 -1.11745 0
M  V30 9236 H 896.695 -0.54284 -0.402866 0
M  V30 9237 H 899.249 -1.95137 -0.641157 0
M  V30 9238 H 897.479 -2.19412 -3.18426 0
M  V30 9239 H 899.168 -2.60661 -3.11144 0
M  V30 9240 H 899.934 -4.57806 -1.6012 0
M  V30 9241 H 895.813 -3.8269 -2.5704 0
M  V30 9242 H 899.357 -6.90334 -1.00422 0
M  V30 9243 H 895.254 -6.14444 -1.9781 0
M  V30 9244 H 896.022 -8.08882 -1.25111 0
M  V30 9245 N 898.685 0.775411 -1.37205 0
M  V30 9246 C 899.913 1.56446 -1.35397 0
M  V30 9247 C 900.328 1.887 0.0615437 0
M  V30 9248 O 899.685 1.51178 1.02233 0
M  V30 9249 C 899.736 2.87697 -2.18889 0
M  V30 9250 O 899.457 2.56828 -3.54924 0
M  V30 9251 C 900.958 3.81944 -2.25019 0
M  V30 9252 H 898.178 0.484792 -0.463916 0
M  V30 9253 H 900.722 0.961346 -1.80495 0
M  V30 9254 H 898.877 3.44442 -1.7731 0
M  V30 9255 H 899.291 3.40851 -3.98649 0
M  V30 9256 H 900.765 4.71055 -2.87769 0
M  V30 9257 H 901.242 4.20811 -1.25757 0
M  V30 9258 H 901.848 3.3113 -2.66895 0
M  V30 9259 N 900.163 1.21714 1.00117 0
M  V30 9260 C 901.093 1.00397 2.10815 0
M  V30 9261 C 902.074 -0.0723502 1.69946 0
M  V30 9262 O 903.259 0.0882398 1.93999 0
M  V30 9263 C 900.389 0.572001 3.42557 0
M  V30 9264 C 899.343 1.59331 3.97237 0
M  V30 9265 C 898.669 1.01746 5.2493 0
M  V30 9266 C 899.969 2.98117 4.28863 0
M  V30 9267 H 901.663 1.92983 2.28906 0
M  V30 9268 H 899.209 0.929273 1.10002 0
M  V30 9269 H 901.162 0.410018 4.19401 0
M  V30 9270 H 899.886 -0.38951 3.24269 0
M  V30 9271 H 898.545 1.74293 3.22518 0
M  V30 9272 H 898.193 0.0475491 5.02978 0
M  V30 9273 H 897.893 1.69969 5.62481 0
M  V30 9274 H 899.417 0.866881 6.04415 0
M  V30 9275 H 900.831 2.86578 4.96534 0
M  V30 9276 H 899.228 3.63389 4.77565 0
M  V30 9277 H 900.298 3.48674 3.36979 0
M  V30 9278 N 901.641 -1.19671 1.02551 0
M  V30 9279 C 902.869 -1.93233 0.739513 0
M  V30 9280 C 903.284 -1.75298 -0.701158 0
M  V30 9281 O 902.641 -1.07269 -1.47647 0
M  V30 9282 C 902.692 -3.45085 1.07697 0
M  V30 9283 O 902.413 -3.62441 2.46106 0
M  V30 9284 C 903.914 -4.35776 0.813298 0
M  V30 9285 H 901.134 -0.613905 0.270853 0
M  V30 9286 H 903.678 -1.51909 1.36909 0
M  V30 9287 H 901.833 -3.84255 0.492635 0
M  V30 9288 H 902.247 -4.56337 2.58567 0
M  V30 9289 H 903.721 -5.40941 1.09941 0
M  V30 9290 H 904.198 -4.38474 -0.252359 0
M  V30 9291 H 904.804 -4.02282 1.38021 0
M  V30 9292 N 903.119 -0.802921 -1.35613 0
M  V30 9293 C 904.049 -0.225131 -2.32412 0
M  V30 9294 C 905.03 0.647383 -1.57299 0
M  V30 9295 O 906.215 0.578414 -1.85386 0
M  V30 9296 C 903.345 0.630085 -3.41537 0
M  V30 9297 C 902.299 -0.143635 -4.27759 0
M  V30 9298 C 901.625 0.833046 -5.28171 0
M  V30 9299 C 902.925 -1.34054 -5.04804 0
M  V30 9300 H 904.619 -1.03385 -2.80984 0
M  V30 9301 H 902.165 -0.498593 -1.35093 0
M  V30 9302 H 904.118 1.04433 -4.08254 0
M  V30 9303 H 902.842 1.47165 -2.91565 0
M  V30 9304 H 901.501 -0.539015 -3.62616 0
M  V30 9305 H 901.149 1.67001 -4.74468 0
M  V30 9306 H 900.849 0.319697 -5.8673 0
M  V30 9307 H 902.373 1.24558 -5.97761 0
M  V30 9308 H 903.787 -1.00136 -5.64487 0
M  V30 9309 H 902.184 -1.78812 -5.72841 0
M  V30 9310 H 903.254 -2.12906 -4.35659 0
M  V30 9311 N 904.597 1.47463 -0.556102 0
M  V30 9312 C 906.008 1.86298 -0.122429 0
M  V30 9313 C 906.359 1.46285 1.30749 0
M  V30 9314 O 905.484 0.865405 1.98342 0
M  V30 9315 C 906.079 3.38115 -0.215407 0
M  V30 9316 C 904.638 3.76046 0.163223 0
M  V30 9317 C 903.785 2.71515 -0.563466 0
M  V30 9318 H 906.736 1.38996 -0.765888 0
M  V30 9319 H 906.757 3.76263 0.566271 0
M  V30 9320 H 906.269 3.67207 -1.25622 0
M  V30 9321 H 904.37 3.5257 1.20519 0
M  V30 9322 H 904.483 4.78705 -0.194568 0
M  V30 9323 H 902.847 2.54699 -0.00667879 0
M  V30 9324 H 903.63 3.03449 -1.60542 0
M  V30 9325 N 906.075 0.2925 1.54862 0
M  V30 9326 C 907.038 -0.574423 2.21885 0
M  V30 9327 C 908.038 -1.06791 1.20218 0
M  V30 9328 O 909.228 -0.9653 1.45009 0
M  V30 9329 C 906.36 -1.79438 2.89853 0
M  V30 9330 H 907.553 0.0110319 2.99898 0
M  V30 9331 H 905.106 0.043256 1.5624 0
M  V30 9332 H 905.841 -2.4199 2.15897 0
M  V30 9333 H 905.626 -1.44827 3.64373 0
M  V30 9334 H 907.116 -2.41048 3.41007 0
M  V30 9335 N 907.553 -1.57587 0.0200696 0
M  V30 9336 C 908.83 -1.82696 -0.698677 0
M  V30 9337 C 909.21 -0.902082 -1.90855 0
M  V30 9338 O 908.558 0.0444834 -2.28457 0
M  V30 9339 C 908.768 -3.31691 -1.08546 0
M  V30 9340 C 910.116 -3.97938 -1.4809 0
M  V30 9341 O 911.14 -3.36133 -1.17869 0
M  V30 9342 O 909.999 -5.06851 -2.04364 0
M  V30 9343 H 907.093 -0.752997 -0.341942 0
M  V30 9344 H 909.639 -1.69635 0.04706 0
M  V30 9345 H 908.411 -3.90659 -0.223956 0
M  V30 9346 H 908.034 -3.49825 -1.88965 0
M  V30 9347 N 909.032 0.252966 -1.55557 0
M  V30 9348 C 910.26 0.999565 -1.81153 0
M  V30 9349 C 910.675 1.79181 -0.594955 0
M  V30 9350 O 910.032 1.77208 0.436311 0
M  V30 9351 C 910.083 1.94227 -3.04891 0
M  V30 9352 O 909.804 1.18209 -4.21851 0
M  V30 9353 C 911.305 2.80536 -3.43241 0
M  V30 9354 H 908.525 0.294402 -0.602966 0
M  V30 9355 H 911.069 0.277686 -2.02606 0
M  V30 9356 H 909.224 2.6185 -2.85505 0
M  V30 9357 H 909.638 1.81922 -4.9194 0
M  V30 9358 H 911.112 3.42442 -4.32941 0
M  V30 9359 H 911.589 3.51337 -2.6355 0
M  V30 9360 H 912.195 2.18373 -3.64956 0
M  V30 9361 N 910.51 1.48831 0.518367 0
M  V30 9362 C 911.787 1.47933 1.27966 0
M  V30 9363 C 912.167 0.197393 2.10175 0
M  V30 9364 O 911.515 -0.820656 2.13255 0
M  V30 9365 C 911.725 2.74816 2.15121 0
M  V30 9366 C 913.073 3.23613 2.74881 0
M  V30 9367 O 914.097 2.75814 2.254 0
M  V30 9368 O 912.956 4.06818 3.64913 0
M  V30 9369 H 910.05 0.591316 0.578164 0
M  V30 9370 H 912.596 1.61077 0.534065 0
M  V30 9371 H 911.368 3.59621 1.54234 0
M  V30 9372 H 910.991 2.64449 2.96905 0
M  V30 9373 N 911.988 -0.768124 1.37614 0
M  V30 9374 C 913.216 -1.55726 1.36224 0
M  V30 9375 C 913.631 -1.8873 -0.0515357 0
M  V30 9376 O 912.988 -1.51718 -1.0143 0
M  V30 9377 C 913.039 -2.86533 2.20412 0
M  V30 9378 O 912.76 -2.54942 3.56281 0
M  V30 9379 C 914.261 -3.80745 2.27041 0
M  V30 9380 H 911.481 -0.482325 0.46648 0
M  V30 9381 H 914.025 -0.95176 1.81002 0
M  V30 9382 H 912.18 -3.43496 1.79134 0
M  V30 9383 H 912.594 -3.38732 4.00451 0
M  V30 9384 H 914.068 -4.69523 2.90263 0
M  V30 9385 H 914.545 -4.20138 1.27987 0
M  V30 9386 H 915.151 -3.2971 2.68647 0
M  V30 9387 N 913.466 -1.22244 -0.994698 0
M  V30 9388 C 914.694 -1.07218 -1.76952 0
M  V30 9389 C 915.109 0.377388 -1.8499 0
M  V30 9390 O 914.466 1.26157 -1.31874 0
M  V30 9391 C 914.517 -1.67496 -3.20355 0
M  V30 9392 O 914.238 -3.06782 -3.12756 0
M  V30 9393 C 915.739 -1.57721 -4.14294 0
M  V30 9394 H 912.959 -0.375966 -0.555779 0
M  V30 9395 H 915.503 -1.61799 -1.25065 0
M  V30 9396 H 913.658 -1.16982 -3.69315 0
M  V30 9397 H 914.072 -3.35784 -4.02926 0
M  V30 9398 H 915.546 -2.04623 -5.12673 0
M  V30 9399 H 916.023 -0.533434 -4.35949 0
M  V30 9400 H 916.629 -2.07531 -3.71229 0
M  V30 9401 N 914.944 1.19125 -1.03184 0
M  V30 9402 C 915.892 2.24492 -0.608781 0
M  V30 9403 C 916.886 1.65529 0.360065 0
M  V30 9404 O 918.092 1.78546 0.22832 0
M  V30 9405 H 914.467 0.73048 -0.178616 0
M  V30 9406 H 916.438 2.5749 -1.50803 0
M  V30 9407 C 915.187 3.47693 0.0215126 0
M  V30 9408 H 914.51 3.93354 -0.715024 0
M  V30 9409 H 915.95 4.23072 0.280429 0
M  V30 9410 C 914.409 3.12088 1.26896 0
M  V30 9411 O 914.939 3.25013 2.36071 0
M  V30 9412 N 913.145 2.66494 1.15886 0
M  V30 9413 H 912.692 2.56176 0.270463 0
M  V30 9414 H 912.65 2.43042 1.99444 0
M  V30 9415 N 916.422 0.810101 1.35185 0
M  V30 9416 C 917.385 0.22852 2.28058 0
M  V30 9417 C 918.385 -0.586168 1.49735 0
M  V30 9418 O 919.575 -0.40414 1.69447 0
M  V30 9419 C 916.707 -0.681041 3.34028 0
M  V30 9420 H 917.9 1.04768 2.81005 0
M  V30 9421 H 915.453 0.58101 1.451 0
M  V30 9422 H 916.188 -1.52375 2.86273 0
M  V30 9423 H 915.973 -0.0985276 3.91976 0
M  V30 9424 H 917.463 -1.08217 4.03335 0
M  V30 9425 N 917.9 -1.47166 0.563914 0
M  V30 9426 C 918.847 -2.30097 -0.180013 0
M  V30 9427 C 919.817 -1.39473 -0.902019 0
M  V30 9428 O 921.002 -1.68432 -0.896396 0
M  V30 9429 C 918.142 -3.23573 -1.19978 0
M  V30 9430 C 917.255 -4.2929 -0.483149 0
M  V30 9431 C 916.39 -5.0991 -1.48879 0
M  V30 9432 C 915.429 -6.07395 -0.757513 0
M  V30 9433 N 914.566 -6.8095 -1.71031 0
M  V30 9434 H 919.406 -2.93189 0.53329 0
M  V30 9435 H 916.943 -1.4451 0.274814 0
M  V30 9436 H 918.901 -3.76196 -1.80368 0
M  V30 9437 H 917.531 -2.6233 -1.88103 0
M  V30 9438 H 916.583 -3.79671 0.235414 0
M  V30 9439 H 917.895 -4.9872 0.0894075 0
M  V30 9440 H 917.049 -5.66717 -2.16603 0
M  V30 9441 H 915.788 -4.40397 -2.09527 0
M  V30 9442 H 914.793 -5.4976 -0.0663841 0
M  V30 9443 H 916.018 -6.78919 -0.156685 0
M  V30 9444 H 913.964 -6.14162 -2.30524 0
M  V30 9445 H 913.881 -7.46574 -1.19007 0
M  V30 9446 H 915.149 -7.42326 -2.37849 0
M  V30 9447 N 919.378 -0.300708 -1.54705 0
M  V30 9448 C 920.624 0.309111 -2.0043 0
M  V30 9449 C 920.957 1.53562 -1.1888 0
M  V30 9450 O 920.232 1.92683 -0.265205 0
M  V30 9451 C 920.515 0.665995 -3.53888 0
M  V30 9452 C 920.368 -0.56963 -4.46178 0
M  V30 9453 C 921.687 1.49262 -4.14016 0
M  V30 9454 H 918.806 0.110878 -0.728612 0
M  V30 9455 H 921.448 -0.412748 -1.85463 0
M  V30 9456 H 919.598 1.281 -3.66773 0
M  V30 9457 H 921.27 -1.20811 -4.45199 0
M  V30 9458 H 919.513 -1.20292 -4.16788 0
M  V30 9459 H 920.184 -0.275785 -5.51311 0
M  V30 9460 H 922.66 0.972979 -4.04564 0
M  V30 9461 H 921.536 1.71111 -5.21548 0
M  V30 9462 H 921.797 2.48174 -3.65872 0
M  V30 9463 N 920.856 1.57574 -0.0284266 0
M  V30 9464 C 922.105 1.9095 0.649704 0
M  V30 9465 C 922.418 0.906421 1.7333 0
M  V30 9466 O 923.624 1.1314 2.46803 0
M  V30 9467 C 922.08 3.39061 1.20687 0
M  V30 9468 C 921.688 4.47726 0.156597 0
M  V30 9469 C 923.432 3.81505 1.86156 0
M  V30 9470 C 921.339 5.86935 0.725365 0
M  V30 9471 H 920.269 0.712589 0.24644 0
M  V30 9472 H 922.92 1.83261 -0.0936143 0
M  V30 9473 H 921.302 3.41679 2.00178 0
M  V30 9474 H 922.476 4.56667 -0.6158 0
M  V30 9475 H 920.791 4.14481 -0.399288 0
M  V30 9476 H 923.388 4.82865 2.29665 0
M  V30 9477 H 923.731 3.16529 2.70398 0
M  V30 9478 H 924.264 3.81307 1.13356 0
M  V30 9479 H 921.003 6.55453 -0.0789081 0
M  V30 9480 H 920.523 5.81602 1.46627 0
M  V30 9481 H 922.202 6.35483 1.21532 0
M  V30 9482 N 922.334 -0.244713 1.55689 0
M  V30 9483 C 923.581 -0.972446 1.77622 0
M  V30 9484 C 923.909 -1.85235 0.593137 0
M  V30 9485 O 923.164 -1.91064 -0.423464 0
M  V30 9486 C 923.463 -1.8617 3.05083 0
M  V30 9487 C 923.129 -1.13696 4.3633 0
M  V30 9488 C 921.791 -0.936679 4.71996 0
M  V30 9489 C 924.143 -0.623451 5.17458 0
M  V30 9490 C 921.471 -0.210612 5.86322 0
M  V30 9491 C 923.823 0.0891587 6.32537 0
M  V30 9492 C 922.487 0.300904 6.66821 0
M  V30 9493 H 921.757 -0.355843 0.649967 0
M  V30 9494 H 924.404 -0.242372 1.8996 0
M  V30 9495 H 922.709 -2.6589 2.87767 0
M  V30 9496 H 924.406 -2.4265 3.19253 0
M  V30 9497 H 920.996 -1.30301 4.08313 0
M  V30 9498 H 925.18 -0.765725 4.90357 0
M  V30 9499 H 920.436 -0.0361062 6.11389 0
M  V30 9500 H 924.61 0.494685 6.94641 0
M  V30 9501 H 922.237 0.865466 7.55257 0
M  V30 9502 N 923.813 -1.49104 -0.510467 0
M  V30 9503 C 924.761 -1.65547 -1.63392 0
M  V30 9504 C 925.755 -0.521522 -1.61172 0
M  V30 9505 O 926.961 -0.700865 -1.65795 0
M  V30 9506 H 923.336 -0.521843 -0.541464 0
M  V30 9507 H 925.307 -2.59864 -1.46673 0
M  V30 9508 C 924.056 -1.73051 -3.01577 0
M  V30 9509 H 923.379 -2.59676 -3.03987 0
M  V30 9510 H 924.819 -1.88594 -3.79748 0
M  V30 9511 C 923.278 -0.47328 -3.33559 0
M  V30 9512 O 923.808 0.405239 -3.99651 0
M  V30 9513 N 922.014 -0.339074 -2.88615 0
M  V30 9514 H 921.561 -1.05497 -2.35007 0
M  V30 9515 H 921.519 0.501061 -3.10382 0
M  V30 9516 N 925.291 0.760815 -1.38019 0
M  V30 9517 C 926.239 1.89578 -1.34771 0
M  V30 9518 C 927.233 1.67766 -0.234714 0
M  V30 9519 O 928.439 1.75423 -0.403352 0
M  V30 9520 H 924.814 0.623608 -0.420258 0
M  V30 9521 H 926.785 1.89434 -2.30558 0
M  V30 9522 C 925.534 3.26976 -1.18246 0
M  V30 9523 H 924.857 3.44342 -2.03147 0
M  V30 9524 H 926.297 4.06657 -1.20026 0
M  V30 9525 C 924.756 3.36717 0.111145 0
M  V30 9526 O 925.286 3.86607 1.09079 0
M  V30 9527 N 923.492 2.90128 0.165542 0
M  V30 9528 H 923.039 2.49719 -0.632328 0
M  V30 9529 H 922.997 2.97026 1.03067 0
M  V30 9530 N 926.769 1.22769 0.988202 0
M  V30 9531 C 928.017 1.05301 1.725 0
M  V30 9532 C 928.338 -0.412103 1.90596 0
M  V30 9533 O 927.608 -1.29606 1.46898 0
M  V30 9534 H 926.188 0.386658 0.639144 0
M  V30 9535 H 928.85 1.54359 1.18993 0
M  V30 9536 H 927.946 1.53465 2.71763 0
M  V30 9537 N 928.247 -1.18576 1.03814 0
M  V30 9538 C 929.472 -1.92978 0.759873 0
M  V30 9539 C 929.897 -1.75514 -0.676486 0
M  V30 9540 O 929.255 -1.06359 -1.46824 0
M  V30 9541 C 929.303 -3.42507 1.12788 0
M  V30 9542 O 928.407 -4.1163 0.251886 0
M  V30 9543 H 927.748 -0.602129 0.279886 0
M  V30 9544 H 930.278 -1.50383 1.3873 0
M  V30 9545 H 930.288 -3.93206 1.08872 0
M  V30 9546 H 928.963 -3.5454 2.17427 0
M  V30 9547 H 927.54 -3.7125 0.350441 0
M  V30 9548 N 929.725 -0.817259 -1.34754 0
M  V30 9549 C 930.688 -0.240611 -2.27934 0
M  V30 9550 C 931.688 0.578219 -1.50044 0
M  V30 9551 O 932.878 0.395148 -1.69659 0
M  V30 9552 C 930.01 0.663318 -3.34384 0
M  V30 9553 H 931.203 -1.06257 -2.80445 0
M  V30 9554 H 928.756 -0.588697 -1.4479 0
M  V30 9555 H 929.491 1.50855 -2.87077 0
M  V30 9556 H 929.276 0.0777388 -3.92023 0
M  V30 9557 H 930.766 1.06076 -4.03903 0
M  V30 9558 N 931.203 1.46865 -0.571711 0
M  V30 9559 C 932.135 2.28277 0.205479 0
M  V30 9560 C 933.148 1.37866 0.865835 0
M  V30 9561 O 934.337 1.62564 0.737247 0
M  V30 9562 C 931.437 3.12572 1.30965 0
M  V30 9563 C 930.61 4.31038 0.743328 0
M  V30 9564 C 929.669 4.96815 1.73382 0
M  V30 9565 O 928.695 5.54755 1.2742 0
M  V30 9566 N 929.897 4.92825 3.06764 0
M  V30 9567 H 932.662 2.95618 -0.49294 0
M  V30 9568 H 930.223 1.56655 -0.408744 0
M  V30 9569 H 932.215 3.53442 1.97131 0
M  V30 9570 H 930.785 2.47378 1.91109 0
M  V30 9571 H 930.005 3.94084 -0.0955004 0
M  V30 9572 H 931.293 5.07632 0.344556 0
M  V30 9573 H 930.691 4.46978 3.46738 0
M  V30 9574 H 929.248 5.3767 3.68449 0
M  V30 9575 N 932.681 0.308908 1.54543 0
M  V30 9576 C 933.927 -0.298478 2.00592 0
M  V30 9577 C 934.26 -1.52929 1.19692 0
M  V30 9578 O 933.535 -1.9254 0.27542 0
M  V30 9579 C 933.818 -0.647218 3.54236 0
M  V30 9580 C 933.671 0.593284 4.4587 0
M  V30 9581 C 934.99 -1.47064 4.14801 0
M  V30 9582 H 932.109 -0.107012 0.72919 0
M  V30 9583 H 934.751 0.422578 1.85241 0
M  V30 9584 H 932.901 -1.26153 3.67447 0
M  V30 9585 H 934.573 1.2317 4.44552 0
M  V30 9586 H 932.816 1.22501 4.16144 0
M  V30 9587 H 933.487 0.305018 5.51157 0
M  V30 9588 H 935.963 -0.951511 4.05075 0
M  V30 9589 H 934.839 -1.68343 5.22448 0
M  V30 9590 H 935.1 -2.4623 3.67183 0
M  V30 9591 N 934.159 -1.57557 0.0367827 0
M  V30 9592 C 935.57 -1.79853 -0.500971 0
M  V30 9593 C 935.921 -0.947749 -1.71791 0
M  V30 9594 O 935.046 -0.160287 -2.15806 0
M  V30 9595 C 935.641 -3.26193 -0.915626 0
M  V30 9596 C 934.2 -3.49457 -1.39845 0
M  V30 9597 C 933.347 -2.74864 -0.366784 0
M  V30 9598 H 936.298 -1.56509 0.262768 0
M  V30 9599 H 936.319 -3.36324 -1.7795 0
M  V30 9600 H 935.831 -3.88089 -0.0297227 0
M  V30 9601 H 933.932 -2.92823 -2.30402 0
M  V30 9602 H 934.045 -4.58172 -1.40054 0
M  V30 9603 H 932.409 -2.4057 -0.836554 0
M  V30 9604 H 933.192 -3.39479 0.510785 0
M  V30 9605 N 935.637 0.236453 -1.55816 0
M  V30 9606 C 936.885 0.96111 -1.77784 0
M  V30 9607 C 937.206 1.85454 -0.602648 0
M  V30 9608 O 936.476 1.92157 0.381137 0
M  V30 9609 H 935.056 0.35787 -0.655697 0
M  V30 9610 H 937.718 0.251888 -1.93265 0
M  V30 9611 H 936.814 1.5767 -2.69345 0
M  V30 9612 N 937.115 1.49373 0.502552 0
M  V30 9613 C 938.047 1.62045 1.62093 0
M  V30 9614 C 939.06 0.503221 1.54827 0
M  V30 9615 O 940.249 0.775208 1.60788 0
M  V30 9616 C 937.349 1.55971 3.00876 0
M  V30 9617 C 936.522 2.832 3.33341 0
M  V30 9618 C 935.581 2.702 4.51529 0
M  V30 9619 O 934.607 3.44132 4.53389 0
M  V30 9620 N 935.809 1.81642 5.5135 0
M  V30 9621 H 938.574 2.58501 1.51649 0
M  V30 9622 H 936.135 1.46442 0.690396 0
M  V30 9623 H 938.127 1.4493 3.77859 0
M  V30 9624 H 936.697 0.673795 3.05252 0
M  V30 9625 H 935.917 3.08604 2.4527 0
M  V30 9626 H 937.205 3.67551 3.51829 0
M  V30 9627 H 936.603 1.20829 5.52645 0
M  V30 9628 H 935.16 1.76524 6.27441 0
M  V30 9629 N 938.594 -0.753485 1.38421 0
M  V30 9630 C 939.542 -1.8886 1.35774 0
M  V30 9631 C 940.536 -1.67639 0.243608 0
M  V30 9632 O 941.742 -1.75206 0.412649 0
M  V30 9633 H 938.117 -0.62137 0.42356 0
M  V30 9634 H 940.088 -1.88209 2.3156 0
M  V30 9635 C 938.837 -3.26344 1.19979 0
M  V30 9636 H 938.16 -3.43259 2.04971 0
M  V30 9637 H 939.6 -4.06015 1.22181 0
M  V30 9638 C 938.059 -3.36771 -0.0932867 0
M  V30 9639 O 938.589 -3.8718 -1.07027 0
M  V30 9640 N 936.795 -2.90212 -0.150154 0
M  V30 9641 H 936.342 -2.4938 0.645562 0
M  V30 9642 H 936.3 -2.97569 -1.0149 0
M  V30 9643 N 940.072 -1.23292 -0.981677 0
M  V30 9644 C 941.004 -0.970782 -2.07626 0
M  V30 9645 C 942.017 0.0547506 -1.62708 0
M  V30 9646 O 943.206 -0.180623 -1.77584 0
M  V30 9647 C 940.306 -0.44055 -3.36024 0
M  V30 9648 C 939.479 -1.52595 -4.09919 0
M  V30 9649 C 938.538 -1.00082 -5.16595 0
M  V30 9650 O 937.564 -1.68951 -5.43548 0
M  V30 9651 N 938.766 0.172017 -5.80245 0
M  V30 9652 H 941.531 -1.91316 -2.30691 0
M  V30 9653 H 939.092 -1.14133 -1.14828 0
M  V30 9654 H 941.084 -0.0743111 -4.04632 0
M  V30 9655 H 939.654 0.407211 -3.09936 0
M  V30 9656 H 938.874 -2.06501 -3.35784 0
M  V30 9657 H 940.162 -2.2559 -4.56055 0
M  V30 9658 H 939.56 0.748129 -5.60731 0
M  V30 9659 H 938.117 0.479532 -6.50034 0
M  V30 9660 N 941.55 1.18024 -1.04442 0
M  V30 9661 C 942.961 1.69749 -0.777312 0
M  V30 9662 C 943.312 1.83234 0.701399 0
M  V30 9663 O 942.437 1.51452 1.54568 0
M  V30 9664 C 943.032 3.08321 -1.40441 0
M  V30 9665 C 941.591 3.57243 -1.18553 0
M  V30 9666 C 940.738 2.33695 -1.49271 0
M  V30 9667 H 943.689 1.02647 -1.21035 0
M  V30 9668 H 943.71 3.71787 -0.809628 0
M  V30 9669 H 943.222 2.98474 -2.48062 0
M  V30 9670 H 941.323 3.72379 -0.128221 0
M  V30 9671 H 941.436 4.40451 -1.88519 0
M  V30 9672 H 939.8 2.37792 -0.912526 0
M  V30 9673 H 940.583 2.26464 -2.5801 0
M  V30 9674 N 943.028 0.824394 1.34319 0
M  V30 9675 C 944.276 0.41235 1.97849 0
M  V30 9676 C 944.597 -1.02841 1.65677 0
M  V30 9677 O 943.867 -1.71421 0.948245 0
M  V30 9678 H 942.447 0.149486 0.73189 0
M  V30 9679 H 945.109 1.05416 1.63931 0
M  V30 9680 H 944.205 0.532557 3.07523 0
M  V30 9681 N 944.506 -1.46559 0.579492 0
M  V30 9682 C 945.753 -2.02399 0.0638418 0
M  V30 9683 C 946.081 -1.45135 -1.29484 0
M  V30 9684 O 945.336 -0.605061 -1.86112 0
M  V30 9685 C 945.635 -3.57357 -0.0552803 0
M  V30 9686 C 945.301 -4.33646 1.23539 0
M  V30 9687 C 943.963 -4.54207 1.589 0
M  V30 9688 C 946.315 -4.77476 2.08965 0
M  V30 9689 C 943.643 -5.1585 2.79492 0
M  V30 9690 C 945.995 -5.4045 3.2878 0
M  V30 9691 C 944.659 -5.5924 3.64427 0
M  V30 9692 H 943.929 -0.740632 0.0233614 0
M  V30 9693 H 946.576 -1.75968 0.755482 0
M  V30 9694 H 944.881 -3.82907 -0.83003 0
M  V30 9695 H 946.578 -3.98237 -0.469964 0
M  V30 9696 H 943.168 -4.17937 0.9501 0
M  V30 9697 H 947.352 -4.61349 1.8295 0
M  V30 9698 H 942.608 -5.28589 3.07252 0
M  V30 9699 H 946.782 -5.73371 3.95245 0
M  V30 9700 H 944.409 -6.06775 4.57961 0
M  V30 9701 N 945.984 -0.3171 -1.54377 0
M  V30 9702 C 947.261 0.341348 -1.92598 0
M  V30 9703 C 947.641 1.70402 -1.24605 0
M  V30 9704 O 946.989 2.25191 -0.387448 0
M  V30 9705 C 947.199 0.440003 -3.46215 0
M  V30 9706 C 948.547 0.703327 -4.18734 0
M  V30 9707 O 949.571 0.523181 -3.52337 0
M  V30 9708 O 948.43 1.05042 -5.3631 0
M  V30 9709 H 945.524 0.193696 -0.803997 0
M  V30 9710 H 948.07 -0.366341 -1.65699 0
M  V30 9711 H 946.842 -0.517299 -3.87866 0
M  V30 9712 H 946.465 1.19553 -3.792 0
M  V30 9713 N 947.462 1.57535 -0.0451378 0
M  V30 9714 C 948.692 1.96476 0.638814 0
M  V30 9715 C 949.1 0.921056 1.65267 0
M  V30 9716 O 948.443 -0.103843 1.83406 0
M  V30 9717 C 948.505 3.31629 1.38788 0
M  V30 9718 C 948.169 4.5391 0.530545 0
M  V30 9719 C 949.166 5.19512 -0.200864 0
M  V30 9720 C 946.851 5.00159 0.463242 0
M  V30 9721 C 948.845 6.29695 -0.988078 0
M  V30 9722 C 946.532 6.10221 -0.327665 0
M  V30 9723 C 947.53 6.74849 -1.05202 0
M  V30 9724 O 947.218 7.82795 -1.82993 0
M  V30 9725 H 946.95 0.651625 0.17989 0
M  V30 9726 H 949.504 2.05126 -0.106031 0
M  V30 9727 H 947.734 3.19516 2.17822 0
M  V30 9728 H 949.423 3.5536 1.96148 0
M  V30 9729 H 950.189 4.84742 -0.158299 0
M  V30 9730 H 946.068 4.49651 1.01663 0
M  V30 9731 H 949.612 6.80072 -1.55397 0
M  V30 9732 H 945.509 6.44428 -0.37189 0
M  V30 9733 H 946.277 7.99542 -1.7514 0
M  V30 9734 N 948.94 -0.228186 1.55939 0
M  V30 9735 C 950.186 -0.954964 1.78909 0
M  V30 9736 C 950.519 -1.8425 0.613648 0
M  V30 9737 O 949.794 -1.90604 -0.38737 0
M  V30 9738 C 950.077 -1.79957 3.1191 0
M  V30 9739 C 949.93 -0.938968 4.3989 0
M  V30 9740 C 951.249 -2.77859 3.41295 0
M  V30 9741 H 948.368 -0.345745 0.650868 0
M  V30 9742 H 951.01 -0.224244 1.88672 0
M  V30 9743 H 949.16 -2.42256 3.03717 0
M  V30 9744 H 950.832 -0.333225 4.60095 0
M  V30 9745 H 949.075 -0.244096 4.33113 0
M  V30 9746 H 949.746 -1.56416 5.29375 0
M  V30 9747 H 952.222 -2.25695 3.49572 0
M  V30 9748 H 951.098 -3.34062 4.35538 0
M  V30 9749 H 951.359 -3.55266 2.63132 0
M  V30 9750 N 950.418 -1.49637 -0.494624 0
M  V30 9751 C 951.348 -1.69692 -1.60396 0
M  V30 9752 C 952.329 -0.545648 -1.61111 0
M  V30 9753 O 953.514 -0.782202 -1.77751 0
M  V30 9754 C 950.644 -1.76934 -2.9885 0
M  V30 9755 C 949.598 -2.91915 -3.13001 0
M  V30 9756 C 948.924 -2.84276 -4.5287 0
M  V30 9757 C 950.224 -4.32764 -2.92426 0
M  V30 9758 H 951.918 -2.6257 -1.43866 0
M  V30 9759 H 949.464 -1.26355 -0.690679 0
M  V30 9760 H 951.417 -1.8955 -3.76362 0
M  V30 9761 H 950.141 -0.806609 -3.16483 0
M  V30 9762 H 948.8 -2.78911 -2.37916 0
M  V30 9763 H 948.448 -1.85897 -4.67388 0
M  V30 9764 H 948.148 -3.61452 -4.63278 0
M  V30 9765 H 949.672 -2.98909 -5.32434 0
M  V30 9766 H 951.086 -4.46415 -3.59703 0
M  V30 9767 H 949.483 -5.1121 -3.143 0
M  V30 9768 H 950.553 -4.46765 -1.88491 0
M  V30 9769 N 951.896 0.746133 -1.38819 0
M  V30 9770 C 952.844 1.88137 -1.36774 0
M  V30 9771 C 953.838 1.67508 -0.252495 0
M  V30 9772 O 955.044 1.74985 -0.421935 0
M  V30 9773 H 951.419 0.619116 -0.426849 0
M  V30 9774 H 953.39 1.86978 -2.32555 0
M  V30 9775 C 952.139 3.25703 -1.21708 0
M  V30 9776 H 951.462 3.42168 -2.06788 0
M  V30 9777 H 952.902 4.05361 -1.24332 0
M  V30 9778 C 951.361 3.36816 0.0754257 0
M  V30 9779 O 951.891 3.87742 1.04972 0
M  V30 9780 N 950.097 2.90287 0.134761 0
M  V30 9781 H 949.644 2.49034 -0.658779 0
M  V30 9782 H 949.602 2.98103 0.999109 0
M  V30 9783 N 953.375 1.23811 0.975125 0
M  V30 9784 C 954.623 1.07124 1.71373 0
M  V30 9785 C 954.944 -0.391864 1.91022 0
M  V30 9786 O 954.214 -1.28041 1.48265 0
M  V30 9787 H 952.794 0.393415 0.635007 0
M  V30 9788 H 955.456 1.55612 1.17349 0
M  V30 9789 H 954.552 1.56338 2.7012 0
M  V30 9790 N 954.853 -1.17469 1.05066 0
M  V30 9791 C 955.783 -2.23635 0.671552 0
M  V30 9792 C 956.764 -1.66867 -0.33006 0
M  V30 9793 O 957.949 -1.93084 -0.207933 0
M  V30 9794 C 955.079 -3.47272 0.0441845 0
M  V30 9795 C 954.033 -4.16854 0.97042 0
M  V30 9796 C 953.359 -5.34299 0.206998 0
M  V30 9797 C 954.659 -4.69225 2.29401 0
M  V30 9798 H 956.353 -2.55602 1.55911 0
M  V30 9799 H 953.899 -1.2286 0.751101 0
M  V30 9800 H 955.852 -4.20756 -0.23282 0
M  V30 9801 H 954.576 -3.14568 -0.878311 0
M  V30 9802 H 953.235 -3.4528 1.23197 0
M  V30 9803 H 952.883 -4.97846 -0.718222 0
M  V30 9804 H 952.583 -5.81792 0.82416 0
M  V30 9805 H 954.107 -6.10568 -0.0627525 0
M  V30 9806 H 955.521 -5.34353 2.077 0
M  V30 9807 H 953.918 -5.27291 2.86503 0
M  V30 9808 H 954.988 -3.86102 2.93348 0
M  V30 9809 N 956.331 -0.831506 -1.3388 0
M  V30 9810 C 957.561 -0.436292 -2.01941 0
M  V30 9811 C 957.969 0.964979 -1.62741 0
M  V30 9812 O 957.312 1.63733 -0.832894 0
M  V30 9813 C 957.374 -0.468811 -3.5643 0
M  V30 9814 C 957.038 -1.82491 -4.18982 0
M  V30 9815 C 958.035 -2.78705 -4.38885 0
M  V30 9816 C 955.72 -2.11574 -4.55568 0
M  V30 9817 C 957.714 -4.02168 -4.94509 0
M  V30 9818 C 955.401 -3.35296 -5.10901 0
M  V30 9819 C 956.399 -4.3041 -5.30317 0
M  V30 9820 O 956.087 -5.51944 -5.84477 0
M  V30 9821 H 955.819 -0.172335 -0.653664 0
M  V30 9822 H 958.373 -1.12354 -1.71947 0
M  V30 9823 H 956.603 0.275179 -3.8572 0
M  V30 9824 H 958.292 -0.0924518 -4.05795 0
M  V30 9825 H 959.058 -2.57534 -4.10976 0
M  V30 9826 H 954.937 -1.38338 -4.39754 0
M  V30 9827 H 958.481 -4.76418 -5.09579 0
M  V30 9828 H 954.378 -3.56326 -5.3824 0
M  V30 9829 H 955.146 -5.53582 -6.029 0
M  V30 9830 N 957.809 1.4625 -0.587256 0
M  V30 9831 C 958.757 2.32076 0.156108 0
M  V30 9832 C 959.751 1.44756 0.879887 0
M  V30 9833 O 960.957 1.61356 0.797759 0
M  V30 9834 H 957.332 0.748808 0.0692098 0
M  V30 9835 H 959.303 2.9258 -0.586497 0
M  V30 9836 C 958.052 3.28008 1.15352 0
M  V30 9837 H 957.375 3.9518 0.60601 0
M  V30 9838 H 958.815 3.90832 1.64396 0
M  V30 9839 C 957.274 2.53691 2.21681 0
M  V30 9840 O 957.804 2.30329 3.29107 0
M  V30 9841 N 956.01 2.14174 1.96412 0
M  V30 9842 H 955.557 2.33374 1.09061 0
M  V30 9843 H 955.515 1.6477 2.67765 0
M  V30 9844 N 959.287 0.325282 1.54207 0
M  V30 9845 C 960.564 -0.33113 1.92777 0
M  V30 9846 C 960.944 -1.69739 1.25506 0
M  V30 9847 O 960.292 -2.24983 0.399385 0
M  V30 9848 C 960.502 -0.421636 3.46444 0
M  V30 9849 C 961.85 -0.681111 4.19101 0
M  V30 9850 O 962.874 -0.504488 3.52609 0
M  V30 9851 O 961.733 -1.02196 5.3686 0
M  V30 9852 H 958.827 -0.18943 0.805013 0
M  V30 9853 H 961.373 0.375123 1.65502 0
M  V30 9854 H 960.145 0.537862 3.87586 0
M  V30 9855 H 959.768 -1.1754 3.79829 0
M  V30 9856 N 960.765 -1.57509 0.0534917 0
M  V30 9857 C 961.99 -1.97511 -0.632794 0
M  V30 9858 C 962.415 -0.930947 -1.63447 0
M  V30 9859 O 961.773 0.105558 -1.80992 0
M  V30 9860 C 961.821 -3.3658 -1.29407 0
M  V30 9861 O 960.925 -3.3467 -2.40977 0
M  V30 9862 H 960.266 -0.643349 -0.16431 0
M  V30 9863 H 962.796 -2.04232 0.12258 0
M  V30 9864 H 962.806 -3.73359 -1.64521 0
M  V30 9865 H 961.481 -4.12113 -0.559976 0
M  V30 9866 H 960.058 -3.09639 -2.07793 0
M  V30 9867 N 962.243 0.219913 -1.56058 0
M  V30 9868 C 963.491 0.942199 -1.78793 0
M  V30 9869 C 963.812 1.84804 -0.622284 0
M  V30 9870 O 963.082 1.9255 0.360735 0
M  V30 9871 H 961.662 0.350895 -0.659455 0
M  V30 9872 H 964.324 0.231376 -1.93522 0
M  V30 9873 H 963.42 1.54804 -2.71002 0
M  V30 9874 N 963.721 1.49897 0.486681 0
M  V30 9875 C 964.651 1.7054 1.59494 0
M  V30 9876 C 965.632 0.554184 1.60819 0
M  V30 9877 O 966.817 0.791617 1.77333 0
M  V30 9878 C 963.947 1.78517 2.97908 0
M  V30 9879 C 962.901 2.93571 3.11449 0
M  V30 9880 C 962.227 2.86674 4.51356 0
M  V30 9881 C 963.527 4.34308 2.90127 0
M  V30 9882 H 965.221 2.63329 1.42472 0
M  V30 9883 H 962.767 1.2672 0.683969 0
M  V30 9884 H 964.72 1.91544 3.75352 0
M  V30 9885 H 963.444 0.823381 3.16051 0
M  V30 9886 H 962.103 2.80169 2.36433 0
M  V30 9887 H 961.751 1.88373 4.66395 0
M  V30 9888 H 961.451 3.63903 4.61355 0
M  V30 9889 H 962.975 3.01728 5.30841 0
M  V30 9890 H 964.389 4.48317 3.57331 0
M  V30 9891 H 962.786 5.12869 3.11585 0
M  V30 9892 H 963.856 4.47759 1.86119 0
M  V30 9893 N 965.199 -0.738761 1.39212 0
M  V30 9894 C 966.424 -1.5331 1.39681 0
M  V30 9895 C 966.849 -1.88098 -0.00768715 0
M  V30 9896 O 966.207 -1.51642 -0.993699 0
M  V30 9897 C 966.255 -2.79958 2.27279 0
M  V30 9898 O 965.359 -3.75727 1.70008 0
M  V30 9899 H 964.7 -0.463131 0.475821 0
M  V30 9900 H 967.23 -0.911768 1.83161 0
M  V30 9901 H 967.24 -3.28732 2.41659 0
M  V30 9902 H 965.915 -2.5397 3.29351 0
M  V30 9903 H 964.492 -3.34483 1.64851 0
M  V30 9904 N 966.677 -1.24326 -0.968545 0
M  V30 9905 C 967.925 -1.08032 -1.70803 0
M  V30 9906 C 968.246 0.381728 -1.91227 0
M  V30 9907 O 967.516 1.27253 -1.48942 0
M  V30 9908 H 966.096 -0.396777 -0.632912 0
M  V30 9909 H 968.758 -1.56232 -1.16523 0
M  V30 9910 H 967.854 -1.57769 -2.69287 0
M  V30 9911 N 968.156 1.1691 -1.05688 0
M  V30 9912 C 969.381 1.91745 -0.790478 0
M  V30 9913 C 969.806 1.76568 0.648478 0
M  V30 9914 O 969.164 1.08682 1.45114 0
M  V30 9915 C 969.212 3.4067 -1.18222 0
M  V30 9916 O 968.316 4.11177 -0.317341 0
M  V30 9917 H 967.657 0.5976 -0.28943 0
M  V30 9918 H 970.187 1.48157 -1.41105 0
M  V30 9919 H 970.197 3.91424 -1.15114 0
M  V30 9920 H 968.872 3.51036 -2.2304 0
M  V30 9921 H 967.449 3.70645 -0.409459 0
M  V30 9922 N 969.634 0.838594 1.33437 0
M  V30 9923 C 970.564 0.286672 2.31734 0
M  V30 9924 C 971.545 -0.605451 1.5896 0
M  V30 9925 O 972.73 -0.529059 1.86854 0
M  V30 9926 C 969.86 -0.539311 3.43087 0
M  V30 9927 C 968.814 0.256997 4.27228 0
M  V30 9928 C 968.14 -0.692718 5.30194 0
M  V30 9929 C 969.44 1.47391 5.01072 0
M  V30 9930 H 971.134 1.10798 2.78144 0
M  V30 9931 H 968.68 0.534235 1.33723 0
M  V30 9932 H 970.633 -0.935724 4.1088 0
M  V30 9933 H 969.357 -1.39383 2.95364 0
M  V30 9934 H 968.016 0.634967 3.61059 0
M  V30 9935 H 967.664 -1.54363 4.78729 0
M  V30 9936 H 967.364 -0.164023 5.87371 0
M  V30 9937 H 968.888 -1.08665 6.00853 0
M  V30 9938 H 970.302 1.15067 5.61634 0
M  V30 9939 H 968.699 1.93937 5.67898 0
M  V30 9940 H 969.769 2.24382 4.29861 0
M  V30 9941 N 971.112 -1.45937 0.595003 0
M  V30 9942 C 972.523 -1.85908 0.171779 0
M  V30 9943 C 972.874 -1.497 -1.26824 0
M  V30 9944 O 971.999 -0.917688 -1.95978 0
M  V30 9945 C 972.594 -3.37425 0.304976 0
M  V30 9946 C 971.153 -3.76346 -0.0634635 0
M  V30 9947 C 970.3 -2.69926 0.635255 0
M  V30 9948 H 973.251 -1.36916 0.802471 0
M  V30 9949 H 973.272 -3.77632 -0.466313 0
M  V30 9950 H 972.784 -3.63747 1.35314 0
M  V30 9951 H 970.885 -3.55642 -1.11129 0
M  V30 9952 H 970.998 -4.78021 0.321419 0
M  V30 9953 H 969.362 -2.54592 0.0742054 0
M  V30 9954 H 970.145 -2.99086 1.68531 0
M  V30 9955 N 972.59 -0.333456 -1.54032 0
M  V30 9956 C 973.54 0.543745 -2.21421 0
M  V30 9957 C 974.524 1.07396 -1.19812 0
M  V30 9958 O 975.716 1.00934 -1.45401 0
M  V30 9959 C 972.845 1.69925 -2.98296 0
M  V30 9960 C 971.931 1.18345 -4.07253 0
M  V30 9961 N 972.322 0.388098 -5.04309 0
M  V30 9962 C 970.62 1.46128 -4.21382 0
M  V30 9963 C 971.321 0.109383 -5.81597 0
M  V30 9964 N 970.297 0.69825 -5.39097 0
M  V30 9965 H 974.099 -0.0711018 -2.93814 0
M  V30 9966 H 971.613 -0.139807 -1.61797 0
M  V30 9967 H 973.61 2.33954 -3.45067 0
M  V30 9968 H 972.27 2.31747 -2.27428 0
M  V30 9969 H 973.281 0.0300645 -5.17891 0
M  V30 9970 H 969.958 2.08463 -3.61731 0
M  V30 9971 H 971.348 -0.531554 -6.69794 0
M  V30 9972 O 974.107 1.6024 -0.201336 0
M  V30 9973 H 974.798 1.89877 0.382941 0
M  V30 END ATOM
M  V30 BEGIN BOND
M  V30 END BOND
M  V30 END CTAB
M  END
$$$$
