drugbank_target|Q7Z406 Myosin-14 (DB01944; DB03126; DB04444; DB07468; DB07469; DB07470; DB08276)
 OpenBabel12092120433D

  0  0  0     0  0            999 V3000
M  V30 BEGIN CTAB
M  V30 COUNTS 32029 32210 0 0 0
M  V30 BEGIN ATOM
M  V30 1 H -0.908 1.98254 -0.117106 0
M  V30 2 N 0 1.576 0 0
M  V30 3 C 0.933 2.03868 1.02534 0
M  V30 4 C 1.911 0.928543 1.3348 0
M  V30 5 O 3.095 1.19667 1.45644 0
M  V30 6 C 0.222 2.43627 2.35294 0
M  V30 7 C -0.732 3.65373 2.2001 0
M  V30 8 S 0.101 5.13292 1.52614 0
M  V30 9 C 1.257 5.56322 2.86805 0
M  V30 10 H 1.49 2.90518 0.631377 0
M  V30 11 H -0.977 1.52953 0.210867 0
M  V30 12 H 0.981 2.67203 3.11629 0
M  V30 13 H -0.358 1.57376 2.7183 0
M  V30 14 H -1.165 3.90944 3.18086 0
M  V30 15 H -1.563 3.418 1.51819 0
M  V30 16 H 0.729 5.58782 3.83104 0
M  V30 17 H 1.672 6.56266 2.65933 0
M  V30 18 H 2.08 4.83886 2.90714 0
M  V30 19 N 1.4781 -0.272755 1.55222 0
M  V30 20 C 2.4411 -1.32041 1.87344 0
M  V30 21 C 3.4411 -1.42342 0.74803 0
M  V30 22 O 4.6311 -1.41488 1.0162 0
M  V30 23 C 1.7631 -2.70173 2.07893 0
M  V30 24 H 2.9561 -1.04789 2.80997 0
M  V30 25 H 0.5091 -0.51083 1.47717 0
M  V30 26 H 1.2441 -3.02605 1.16622 0
M  V30 27 H 1.0291 -2.64082 2.89833 0
M  V30 28 H 2.5191 -3.45869 2.34017 0
M  V30 29 N 2.9562 -1.48159 -0.537278 0
M  V30 30 C 3.9192 -1.61665 -1.62472 0
M  V30 31 C 4.9192 -0.490395 -1.5314 0
M  V30 32 O 6.1092 -0.755998 -1.5694 0
M  V30 33 C 3.2412 -1.57997 -3.02076 0
M  V30 34 H 4.4342 -2.58621 -1.51839 0
M  V30 35 H 1.9872 -1.36647 -0.758771 0
M  V30 36 H 2.7222 -0.624913 -3.18222 0
M  V30 37 H 2.5072 -2.39755 -3.10258 0
M  V30 38 H 3.9972 -1.70627 -3.81151 0
M  V30 39 N 4.4343 0.785586 -1.36625 0
M  V30 40 C 5.6803 1.54591 -1.31261 0
M  V30 41 C 6.0133 1.93906 0.106823 0
M  V30 42 O 5.2883 1.63007 1.06108 0
M  V30 43 C 5.5713 2.82038 -2.23889 0
M  V30 44 C 5.4243 2.49066 -3.74548 0
M  V30 45 C 6.7433 3.83887 -2.15217 0
M  V30 46 H 3.8623 0.560846 -0.478143 0
M  V30 47 H 6.5043 0.902278 -1.67209 0
M  V30 48 H 4.6543 3.36961 -1.93363 0
M  V30 49 H 6.3263 2.00164 -4.15611 0
M  V30 50 H 4.5693 1.81954 -3.93796 0
M  V30 51 H 5.2403 3.40109 -4.34776 0
M  V30 52 H 7.7163 3.38421 -2.42096 0
M  V30 53 H 6.5923 4.70806 -2.82193 0
M  V30 54 H 6.8533 4.27131 -1.14068 0
M  V30 55 N 5.9124 1.20967 1.01018 0
M  V30 56 C 7.1404 1.04956 1.78303 0
M  V30 57 C 7.5554 -0.400915 1.84494 0
M  V30 58 O 6.9124 -1.27826 1.30257 0
M  V30 59 C 6.9634 1.63403 3.22462 0
M  V30 60 O 6.6844 3.02775 3.16637 0
M  V30 61 C 8.1854 1.52432 4.16268 0
M  V30 62 H 5.4054 0.368858 0.560522 0
M  V30 63 H 7.9494 1.60193 1.27116 0
M  V30 64 H 6.1044 1.1227 3.70775 0
M  V30 65 H 6.5184 3.30626 4.07169 0
M  V30 66 H 7.9924 1.98078 5.15237 0
M  V30 67 H 8.4694 0.477875 4.36592 0
M  V30 68 H 9.0754 2.02787 3.73841 0
M  V30 69 N 7.3905 -1.2043 1.01659 0
M  V30 70 C 8.3235 -2.21924 0.531521 0
M  V30 71 C 9.3015 -1.57054 -0.421032 0
M  V30 72 O 10.4855 -1.85389 -0.341035 0
M  V30 73 C 7.6125 -3.37942 -0.226496 0
M  V30 74 C 6.6585 -4.21115 0.67561 0
M  V30 75 S 7.4915 -4.90674 2.14475 0
M  V30 76 C 8.6475 -6.10113 1.3969 0
M  V30 77 H 8.8805 -2.62725 1.3915 0
M  V30 78 H 6.4135 -1.30481 0.825479 0
M  V30 79 H 8.3715 -4.05196 -0.657738 0
M  V30 80 H 7.0325 -2.956 -1.06205 0
M  V30 81 H 6.2255 -5.03918 0.091108 0
M  V30 82 H 5.8275 -3.59115 1.04463 0
M  V30 83 H 8.1195 -6.7411 0.676897 0
M  V30 84 H 9.0625 -6.73022 2.20107 0
M  V30 85 H 9.4705 -5.57283 0.899786 0
M  V30 86 N 8.8686 -0.792821 -1.36206 0
M  V30 87 C 10.0936 -0.377701 -2.03932 0
M  V30 88 C 10.5186 0.998947 -1.59382 0
M  V30 89 O 9.8766 1.64421 -0.763903 0
M  V30 90 C 9.9246 -0.453635 -3.57735 0
M  V30 91 O 9.0286 0.538151 -4.08874 0
M  V30 92 H 8.3696 -0.159855 -0.644471 0
M  V30 93 H 10.8996 -1.07488 -1.7409 0
M  V30 94 H 10.9096 -0.318464 -4.06755 0
M  V30 95 H 9.5846 -1.45784 -3.89512 0
M  V30 96 H 8.1616 0.364359 -3.71116 0
M  V30 97 N 10.3467 1.47872 -0.545128 0
M  V30 98 C 11.5927 2.02793 -0.0166104 0
M  V30 99 C 11.9257 1.41987 1.32489 0
M  V30 100 O 11.2007 0.571045 1.85928 0
M  V30 101 C 11.4837 3.59989 0.0893294 0
M  V30 102 C 11.3367 4.3125 -1.27841 0
M  V30 103 C 12.6557 4.32606 0.808724 0
M  V30 104 H 9.7747 0.736962 -0.00751035 0
M  V30 105 H 12.4167 1.76433 -0.705085 0
M  V30 106 H 10.5667 3.82579 0.675681 0
M  V30 107 H 12.2387 4.20035 -1.90704 0
M  V30 108 H 10.4817 3.92076 -1.85632 0
M  V30 109 H 11.1527 5.39736 -1.15713 0
M  V30 110 H 13.6287 4.14936 0.310992 0
M  V30 111 H 12.5047 5.42251 0.851782 0
M  V30 112 H 12.7657 4.00963 1.86229 0
M  V30 113 N 11.8248 0.280983 1.55075 0
M  V30 114 C 13.2358 -0.215629 1.85451 0
M  V30 115 C 13.5868 -1.54991 1.203 0
M  V30 116 O 12.7118 -2.10699 0.493435 0
M  V30 117 C 13.3068 -0.398026 3.36454 0
M  V30 118 C 11.8658 -0.838866 3.66933 0
M  V30 119 C 11.0128 0.064458 2.77225 0
M  V30 120 H 13.9638 0.502601 1.50531 0
M  V30 121 H 13.9848 -1.23569 3.59876 0
M  V30 122 H 13.4968 0.573241 3.83843 0
M  V30 123 H 11.5978 -1.8214 3.25048 0
M  V30 124 H 11.7108 -0.672123 4.74362 0
M  V30 125 H 10.0748 -0.452863 2.50642 0
M  V30 126 H 10.8578 1.03172 3.2743 0
M  V30 127 N 13.3029 -1.57598 0.00835791 0
M  V30 128 C 14.5509 -1.90551 -0.6734 0
M  V30 129 C 14.8719 -0.883301 -1.73847 0
M  V30 130 O 14.1419 0.0781442 -1.95744 0
M  V30 131 H 12.7219 -0.703312 -0.251717 0
M  V30 132 H 15.3839 -1.94833 0.0512592 0
M  V30 133 H 14.4799 -2.9056 -1.13935 0
M  V30 134 N 14.781 0.264519 -1.55364 0
M  V30 135 C 16.197 0.61215 -1.47394 0
M  V30 136 C 16.397 1.89134 -0.695018 0
M  V30 137 O 15.453 2.51563 -0.217275 0
M  V30 138 C 16.766 0.731235 -2.91674 0
M  V30 139 C 18.314 0.82473 -3.01939 0
M  V30 140 C 18.789 0.975522 -4.4749 0
M  V30 141 N 20.28 1.04083 -4.51354 0
M  V30 142 C 21.015 1.17646 -5.61201 0
M  V30 143 N 20.511 1.27874 -6.80896 0
M  V30 144 N 22.304 1.20823 -5.48961 0
M  V30 145 H 14.455 -0.575456 -2.04456 0
M  V30 146 H 16.718 -0.196099 -0.927496 0
M  V30 147 H 16.424 -0.138392 -3.51428 0
M  V30 148 H 16.298 1.60883 -3.41169 0
M  V30 149 H 18.685 1.68482 -2.42276 0
M  V30 150 H 18.766 -0.0776479 -2.55682 0
M  V30 151 H 18.41 0.120058 -5.07758 0
M  V30 152 H 18.34 1.89268 -4.91412 0
M  V30 153 H 20.831 0.973846 -3.65136 0
M  V30 154 H 21.144 1.38081 -7.60364 0
M  V30 155 H 19.489 1.24863 -6.83692 0
M  V30 156 H 22.68 1.12469 -4.54388 0
M  V30 157 H 22.853 1.31049 -6.3461 0
M  V30 158 N 16.2591 1.48442 0.529413 0
M  V30 159 C 17.2061 1.63007 1.63394 0
M  V30 160 C 18.1761 0.47212 1.59249 0
M  V30 161 O 19.3611 0.695673 1.77666 0
M  V30 162 C 16.5011 1.6763 3.01653 0
M  V30 163 C 15.6141 2.94535 3.16027 0
M  V30 164 C 14.7491 2.90316 4.44849 0
M  V30 165 C 13.7881 4.11923 4.52754 0
M  V30 166 N 12.9251 4.05777 5.72965 0
M  V30 167 H 17.7651 2.5733 1.50285 0
M  V30 168 H 15.3021 1.27613 0.731656 0
M  V30 169 H 17.2601 1.68292 3.81751 0
M  V30 170 H 15.8901 0.76797 3.13532 0
M  V30 171 H 14.9421 3.03615 2.29177 0
M  V30 172 H 16.2541 3.84512 3.17729 0
M  V30 173 H 15.4081 2.89382 5.33238 0
M  V30 174 H 14.1471 1.98068 4.45668 0
M  V30 175 H 13.1521 4.13131 3.62771 0
M  V30 176 H 14.3771 5.0533 4.53672 0
M  V30 177 H 12.3231 3.16351 5.74681 0
M  V30 178 H 12.2401 4.8946 5.76164 0
M  V30 179 H 13.5081 4.08904 6.6364 0
M  V30 180 N 17.7372 -0.778329 1.37039 0
M  V30 181 C 18.7002 -1.87301 1.32102 0
M  V30 182 C 19.7002 -1.59198 0.226405 0
M  V30 183 O 20.8902 -1.67403 0.481861 0
M  V30 184 C 18.0222 -3.24309 1.05055 0
M  V30 185 H 19.2152 -1.93093 2.29467 0
M  V30 186 H 16.7682 -0.977358 1.21973 0
M  V30 187 H 17.5032 -3.24196 0.0819373 0
M  V30 188 H 17.2882 -3.46098 1.84279 0
M  V30 189 H 18.7782 -4.04382 1.04234 0
M  V30 190 N 19.2153 -1.21501 -1.00376 0
M  V30 191 C 20.6263 -1.03146 -1.55621 0
M  V30 192 C 20.9773 0.408375 -1.91903 0
M  V30 193 O 20.1023 1.29177 -1.73616 0
M  V30 194 C 20.6973 -1.86612 -2.82775 0
M  V30 195 C 19.2563 -1.72586 -3.34501 0
M  V30 196 C 18.4033 -1.83747 -2.07683 0
M  V30 197 H 21.3543 -1.35505 -0.826081 0
M  V30 198 H 21.3753 -1.3771 -3.54706 0
M  V30 199 H 20.8873 -2.91399 -2.56336 0
M  V30 200 H 18.9883 -0.704877 -3.65872 0
M  V30 201 H 19.1013 -2.54623 -4.05837 0
M  V30 202 H 17.4653 -1.27069 -2.20739 0
M  V30 203 H 18.2483 -2.90044 -1.83655 0
M  V30 204 N 20.6934 1.19889 -1.02296 0
M  V30 205 C 22.1044 1.71124 -0.746568 0
M  V30 206 C 22.4554 1.81939 0.734335 0
M  V30 207 O 21.5804 1.48639 1.57275 0
M  V30 208 C 22.1754 3.10804 -1.34857 0
M  V30 209 C 20.7344 3.59323 -1.1209 0
M  V30 210 C 19.8814 2.3635 -1.45031 0
M  V30 211 H 22.8324 1.04813 -1.19163 0
M  V30 212 H 22.8534 3.73186 -0.742437 0
M  V30 213 H 22.3654 3.029 -2.42638 0
M  V30 214 H 20.4664 3.7255 -0.0610337 0
M  V30 215 H 20.5794 4.4378 -1.80544 0
M  V30 216 H 18.9434 2.39399 -0.869487 0
M  V30 217 H 19.7264 2.31081 -2.53883 0
M  V30 218 N 22.1715 0.800033 1.35784 0
M  V30 219 C 23.5875 0.482977 1.52117 0
M  V30 220 C 23.7875 -0.996948 1.75109 0
M  V30 221 O 22.8435 -1.78216 1.78872 0
M  V30 222 C 24.1565 1.32264 2.70049 0
M  V30 223 C 25.7045 1.31742 2.83924 0
M  V30 224 C 26.1795 2.14106 4.04874 0
M  V30 225 N 27.6705 2.11607 4.12039 0
M  V30 226 C 28.4055 2.72099 5.04727 0
M  V30 227 N 27.9015 3.41492 6.02789 0
M  V30 228 N 29.6945 2.61776 4.97423 0
M  V30 229 H 21.8455 1.75856 1.19115 0
M  V30 230 H 24.1085 0.748122 0.582252 0
M  V30 231 H 23.8145 2.37261 2.59616 0
M  V30 232 H 23.6885 0.971303 3.6448 0
M  V30 233 H 26.0755 0.275333 2.93813 0
M  V30 234 H 26.1565 1.70859 1.9037 0
M  V30 235 H 25.8005 3.18351 3.95746 0
M  V30 236 H 25.7305 1.72353 4.97596 0
M  V30 237 H 28.2215 1.61112 3.41835 0
M  V30 238 H 28.5345 3.84953 6.70098 0
M  V30 239 H 26.8795 3.45596 6.02983 0
M  V30 240 H 30.0705 2.07157 4.19766 0
M  V30 241 H 30.2435 3.0921 5.69468 0
M  V30 242 N 23.6496 -1.47581 0.552962 0
M  V30 243 C 25.0606 -1.86324 0.118463 0
M  V30 244 C 25.4116 -1.46006 -1.3106 0
M  V30 245 O 24.5366 -0.861182 -1.98526 0
M  V30 246 C 25.1316 -3.3816 0.20821 0
M  V30 247 C 23.6906 -3.7601 -0.171226 0
M  V30 248 C 22.8376 -2.71634 0.557686 0
M  V30 249 H 25.7886 -1.39159 0.762928 0
M  V30 250 H 25.8096 -3.76141 -0.574278 0
M  V30 251 H 25.3216 -3.67473 1.24841 0
M  V30 252 H 23.4226 -3.52313 -1.21269 0
M  V30 253 H 23.5356 -4.78745 0.184379 0
M  V30 254 H 21.8996 -2.547 0.00125792 0
M  V30 255 H 22.6826 -3.0379 1.59896 0
M  V30 256 N 25.1277 -0.289203 -1.54924 0
M  V30 257 C 26.3757 0.322879 -1.99504 0
M  V30 258 C 26.6967 1.55313 -1.1791 0
M  V30 259 O 25.9667 1.94001 -0.272097 0
M  V30 260 H 24.5467 0.122291 -0.736922 0
M  V30 261 H 27.2087 -0.397802 -1.90797 0
M  V30 262 H 26.3047 0.603061 -3.06218 0
M  V30 263 N 26.6058 1.57591 -0.0167156 0
M  V30 264 C 28.0168 1.79201 0.523834 0
M  V30 265 C 28.3678 0.925796 1.72984 0
M  V30 266 O 27.4928 0.132792 2.15992 0
M  V30 267 C 28.0878 3.25 0.957091 0
M  V30 268 C 26.6468 3.47648 1.44283 0
M  V30 269 C 25.7938 2.74374 0.401757 0
M  V30 270 H 28.7448 1.56831 -0.242816 0
M  V30 271 H 28.7658 3.34031 1.82219 0
M  V30 272 H 28.2778 3.88019 0.0791415 0
M  V30 273 H 26.3788 2.89866 2.34113 0
M  V30 274 H 26.4918 4.56352 1.45877 0
M  V30 275 H 24.8558 2.39485 0.867121 0
M  V30 276 H 25.6388 3.40102 -0.467513 0
M  V30 277 N 28.0839 -0.256276 1.55502 0
M  V30 278 C 29.3299 -0.987079 1.77157 0
M  V30 279 C 29.6629 -1.85327 0.580315 0
M  V30 280 O 28.9379 -1.89874 -0.421686 0
M  V30 281 C 29.2209 -1.85553 3.08613 0
M  V30 282 C 29.0739 -1.01816 4.38125 0
M  V30 283 C 30.3929 -2.8397 3.36228 0
M  V30 284 H 27.5119 -0.357428 0.644526 0
M  V30 285 H 30.1539 -0.258239 1.88237 0
M  V30 286 H 28.3039 -2.47695 2.99298 0
M  V30 287 H 29.9759 -0.416159 4.59419 0
M  V30 288 H 28.2189 -0.322178 4.32602 0
M  V30 289 H 28.8899 -1.65939 5.26468 0
M  V30 290 H 31.3659 -2.31964 3.45445 0
M  V30 291 H 30.2419 -3.41864 4.29442 0
M  V30 292 H 30.5029 -3.59955 2.56681 0
M  V30 293 N 29.562 -1.4872 -0.521534 0
M  V30 294 C 30.973 -1.50607 -1.10337 0
M  V30 295 C 31.324 -0.280612 -1.94183 0
M  V30 296 O 30.449 0.611507 -2.0758 0
M  V30 297 C 31.044 -2.72903 -2.00772 0
M  V30 298 C 29.603 -2.77634 -2.54158 0
M  V30 299 C 28.75 -2.44241 -1.31307 0
M  V30 300 H 31.701 -1.55714 -0.306388 0
M  V30 301 H 31.722 -2.519 -2.85178 0
M  V30 302 H 31.234 -3.62077 -1.39721 0
M  V30 303 H 29.335 -1.92689 -3.18907 0
M  V30 304 H 29.448 -3.79283 -2.92714 0
M  V30 305 H 27.812 -1.95577 -1.63161 0
M  V30 306 H 28.595 -3.35666 -0.719943 0
M  V30 307 N 31.0401 0.771051 -1.3745 0
M  V30 308 C 31.9501 1.91538 -1.35464 0
M  V30 309 C 32.9661 1.72134 -0.254123 0
M  V30 310 O 34.1421 1.95358 -0.489626 0
M  V30 311 C 31.2071 3.26671 -1.16134 0
M  V30 312 C 30.2681 3.58723 -2.35831 0
M  V30 313 C 29.5011 4.87409 -2.17413 0
M  V30 314 O 29.7241 5.58506 -1.15876 0
M  V30 315 O 28.6581 5.18539 -3.05615 0
M  V30 316 H 32.4841 1.96165 -2.31847 0
M  V30 317 H 30.0691 0.9139 -1.18187 0
M  V30 318 H 31.9511 4.07499 -1.07345 0
M  V30 319 H 30.6261 3.22894 -0.228251 0
M  V30 320 H 29.5331 2.78127 -2.50192 0
M  V30 321 H 30.8661 3.67243 -3.27709 0
M  V30 322 N 32.5182 1.22032 0.997298 0
M  V30 323 C 33.4812 0.987909 2.06816 0
M  V30 324 C 34.4812 -0.0440084 1.6074 0
M  V30 325 O 35.6712 0.194053 1.73116 0
M  V30 326 C 32.8032 0.49132 3.37341 0
M  V30 327 H 33.9962 1.93803 2.28868 0
M  V30 328 H 31.5492 1.03838 1.16822 0
M  V30 329 H 32.2842 -0.463364 3.20973 0
M  V30 330 H 32.0692 1.23575 3.72118 0
M  V30 331 H 33.5592 0.348824 4.16141 0
M  V30 332 N 33.9963 -1.19345 1.0293 0
M  V30 333 C 34.9593 -2.20793 0.615069 0
M  V30 334 C 35.9593 -1.57553 -0.321533 0
M  V30 335 O 37.1493 -1.73862 -0.108483 0
M  V30 336 C 34.2813 -3.40754 -0.0999222 0
M  V30 337 H 35.4743 -2.58955 1.51269 0
M  V30 338 H 33.0273 -1.3303 0.820534 0
M  V30 339 H 33.7623 -3.0811 -1.01187 0
M  V30 340 H 33.5473 -3.87889 0.57309 0
M  V30 341 H 35.0373 -4.15898 -0.376645 0
M  V30 342 N 35.4744 -0.807222 -1.35358 0
M  V30 343 C 36.4064 -0.175717 -2.28525 0
M  V30 344 C 37.4194 0.625354 -1.5031 0
M  V30 345 O 38.6084 0.457611 -1.72535 0
M  V30 346 C 35.7084 0.773471 -3.29956 0
M  V30 347 C 34.8814 0.0186296 -4.37396 0
M  V30 348 C 33.9404 0.886395 -5.18681 0
M  V30 349 O 32.9664 0.337106 -5.68201 0
M  V30 350 N 34.1684 2.20839 -5.36852 0
M  V30 351 H 36.9334 -0.976091 -2.83359 0
M  V30 352 H 34.4944 -0.662737 -1.47714 0
M  V30 353 H 36.4864 1.35824 -3.81227 0
M  V30 354 H 35.0564 1.47465 -2.75632 0
M  V30 355 H 34.2764 -0.747349 -3.87051 0
M  V30 356 H 35.5644 -0.501577 -5.06322 0
M  V30 357 H 34.9624 2.67858 -4.98265 0
M  V30 358 H 33.5194 2.74237 -5.91301 0
M  V30 359 N 36.9525 1.47285 -0.560781 0
M  V30 360 C 38.3635 1.86258 -0.128343 0
M  V30 361 C 38.7145 1.46699 1.30284 0
M  V30 362 O 37.8395 0.871698 1.98067 0
M  V30 363 C 38.4345 3.38044 -0.22614 0
M  V30 364 C 36.9935 3.76096 0.151283 0
M  V30 365 C 36.1405 2.71335 -0.572084 0
M  V30 366 H 39.0915 1.38752 -0.770297 0
M  V30 367 H 39.1125 3.76441 0.554322 0
M  V30 368 H 38.6245 3.66806 -1.26788 0
M  V30 369 H 36.7255 3.52951 1.19399 0
M  V30 370 H 36.8385 4.78641 -0.209765 0
M  V30 371 H 35.2025 2.54696 -0.0147653 0
M  V30 372 H 35.9855 3.02938 -1.61504 0
M  V30 373 N 38.4306 0.297415 1.54768 0
M  V30 374 C 39.6776 -0.312913 2.00068 0
M  V30 375 C 40.0056 -1.54171 1.18582 0
M  V30 376 O 39.2606 -1.94108 0.249133 0
M  V30 377 C 39.5596 -0.717561 3.50123 0
M  V30 378 C 39.2256 0.409095 4.4904 0
M  V30 379 C 37.8876 0.718399 4.75807 0
M  V30 380 C 40.2396 1.16717 5.07963 0
M  V30 381 C 37.5676 1.78896 5.5876 0
M  V30 382 C 39.9196 2.22762 5.92081 0
M  V30 383 C 38.5836 2.54303 6.1716 0
M  V30 384 H 37.8536 -0.114503 0.7321 0
M  V30 385 H 40.5006 0.415767 1.86932 0
M  V30 386 H 38.8056 -1.52627 3.60849 0
M  V30 387 H 40.5026 -1.20091 3.82595 0
M  V30 388 H 37.0926 0.157918 4.28309 0
M  V30 389 H 41.2766 0.941466 4.87289 0
M  V30 390 H 36.5326 2.0381 5.7643 0
M  V30 391 H 40.7066 2.81962 6.36765 0
M  V30 392 H 38.3336 3.3739 6.81229 0
M  V30 393 N 39.9087 -1.5758 0.0250728 0
M  V30 394 C 40.8387 -2.13007 -0.956575 0
M  V30 395 C 41.8197 -1.0452 -1.342 0
M  V30 396 O 43.0047 -1.32332 -1.42133 0
M  V30 397 C 40.1347 -2.65386 -2.24026 0
M  V30 398 C 39.0887 -3.78623 -1.99571 0
M  V30 399 C 38.4147 -4.17414 -3.3417 0
M  V30 400 C 39.7147 -5.04867 -1.33814 0
M  V30 401 H 41.4087 -2.9528 -0.494991 0
M  V30 402 H 38.9547 -1.42042 -0.236651 0
M  V30 403 H 40.9077 -3.02794 -2.93076 0
M  V30 404 H 39.6317 -1.80268 -2.72343 0
M  V30 405 H 38.2907 -3.41646 -1.32941 0
M  V30 406 H 37.9387 -3.29284 -3.80238 0
M  V30 407 H 37.6387 -4.93719 -3.18615 0
M  V30 408 H 39.1627 -4.57402 -4.04495 0
M  V30 409 H 40.5767 -5.39888 -1.92857 0
M  V30 410 H 38.9737 -5.86144 -1.28669 0
M  V30 411 H 40.0437 -4.83904 -0.310561 0
M  V30 412 N 41.3868 0.248026 -1.55636 0
M  V30 413 C 42.6338 0.976224 -1.77415 0
M  V30 414 C 42.9618 1.85361 -0.589193 0
M  V30 415 O 42.2168 1.90973 0.427529 0
M  V30 416 C 42.5158 1.86819 -3.04686 0
M  V30 417 C 42.1818 1.14625 -4.36087 0
M  V30 418 C 40.8438 0.946723 -4.71795 0
M  V30 419 C 43.1958 0.634463 -5.17324 0
M  V30 420 C 40.5238 0.223091 -5.86276 0
M  V30 421 C 42.8758 -0.0756959 -6.32555 0
M  V30 422 C 41.5398 -0.286711 -6.66884 0
M  V30 423 H 40.8098 0.357226 -0.649208 0
M  V30 424 H 43.4568 0.246415 -1.89908 0
M  V30 425 H 41.7618 2.66502 -2.872 0
M  V30 426 H 43.4588 2.43329 -3.18735 0
M  V30 427 H 40.0488 1.3117 -4.08035 0
M  V30 428 H 44.2328 0.77616 -4.90193 0
M  V30 429 H 39.4888 0.0491185 -6.1138 0
M  V30 430 H 43.6628 -0.479899 -6.94745 0
M  V30 431 H 41.2898 -0.849389 -7.5544 0
M  V30 432 N 42.8649 1.48995 0.513639 0
M  V30 433 C 44.0929 1.61531 1.29288 0
M  V30 434 C 44.5079 0.281801 1.86685 0
M  V30 435 O 43.8649 -0.731111 1.67215 0
M  V30 436 C 43.9159 2.67449 2.43215 0
M  V30 437 O 43.6369 3.95626 1.88179 0
M  V30 438 C 45.1379 2.90575 3.34785 0
M  V30 439 H 42.3579 0.544165 0.392588 0
M  V30 440 H 44.9019 1.9494 0.617956 0
M  V30 441 H 43.0569 2.36853 3.0656 0
M  V30 442 H 43.4709 4.53868 2.62876 0
M  V30 443 H 44.9449 3.68449 4.11035 0
M  V30 444 H 45.4219 2.00011 3.91015 0
M  V30 445 H 46.0279 3.22538 2.77218 0
M  V30 446 N 44.343 -0.763751 1.37857 0
M  V30 447 C 45.754 -1.3405 1.29952 0
M  V30 448 C 46.105 -1.96138 -0.0492898 0
M  V30 449 O 45.23 -1.94372 -0.951239 0
M  V30 450 C 45.825 -2.43729 2.35333 0
M  V30 451 C 44.384 -2.97151 2.31037 0
M  V30 452 C 43.531 -1.70438 2.18738 0
M  V30 453 H 46.482 -0.563396 1.48363 0
M  V30 454 H 46.503 -3.23412 2.00462 0
M  V30 455 H 46.015 -1.9851 3.33489 0
M  V30 456 H 44.116 -3.46724 1.3643 0
M  V30 457 H 44.229 -3.52221 3.24772 0
M  V30 458 H 42.593 -1.93673 1.65418 0
M  V30 459 H 43.376 -1.27312 3.18821 0
M  V30 460 N 45.8211 -1.22559 -0.990812 0
M  V30 461 C 47.2371 -0.985996 -1.255 0
M  V30 462 C 47.4371 0.319173 -1.98956 0
M  V30 463 O 46.4931 1.04127 -2.3003 0
M  V30 464 C 47.8061 -2.18607 -2.06474 0
M  V30 465 C 49.3541 -2.22985 -2.19651 0
M  V30 466 C 49.8291 -3.4255 -3.04012 0
M  V30 467 N 51.3201 -3.42725 -3.11599 0
M  V30 468 C 52.0551 -4.31892 -3.7717 0
M  V30 469 N 51.5511 -5.31279 -4.44651 0
M  V30 470 N 53.3441 -4.19662 -3.73952 0
M  V30 471 H 45.4951 -2.06469 -0.49841 0
M  V30 472 H 47.7581 -0.904853 -0.282747 0
M  V30 473 H 47.4641 -3.13267 -1.59865 0
M  V30 474 H 47.3381 -2.18838 -3.07229 0
M  V30 475 H 49.7251 -1.28871 -2.65474 0
M  V30 476 H 49.8061 -2.26791 -1.18319 0
M  V30 477 H 49.4501 -4.36965 -2.58889 0
M  V30 478 H 49.3801 -3.35984 -4.0549 0
M  V30 479 H 51.8711 -2.70807 -2.63575 0
M  V30 480 H 52.1841 -5.95593 -4.92431 0
M  V30 481 H 50.5291 -5.3519 -4.43392 0
M  V30 482 H 53.7201 -3.41268 -3.20396 0
M  V30 483 H 53.8931 -4.89358 -4.24774 0
M  V30 484 N 47.2992 1.18797 -1.03562 0
M  V30 485 C 48.5472 1.88278 -0.734569 0
M  V30 486 C 48.8682 1.8043 0.739586 0
M  V30 487 O 48.1382 1.21925 1.53333 0
M  V30 488 H 46.7182 0.696991 -0.268725 0
M  V30 489 H 49.3802 1.44192 -1.31129 0
M  V30 490 H 48.4762 2.94443 -1.03489 0
M  V30 491 N 48.7773 0.814389 1.34928 0
M  V30 492 C 50.1883 0.458364 1.80986 0
M  V30 493 C 50.5393 -1.02042 1.67577 0
M  V30 494 O 49.6643 -1.79352 1.21086 0
M  V30 495 C 50.2593 0.825212 3.28597 0
M  V30 496 C 48.8183 0.521677 3.72767 0
M  V30 497 C 47.9653 1.04668 2.56788 0
M  V30 498 H 50.9163 1.00533 1.22795 0
M  V30 499 H 50.9373 0.12571 3.80292 0
M  V30 500 H 50.4493 1.90154 3.38324 0
M  V30 501 H 48.5503 -0.545589 3.68584 0
M  V30 502 H 48.6633 1.05977 4.67232 0
M  V30 503 H 47.0273 0.468622 2.50352 0
M  V30 504 H 47.8103 2.12927 2.6929 0
M  V30 505 N 50.2554 -1.46986 0.568584 0
M  V30 506 C 51.4804 -2.07335 0.0520528 0
M  V30 507 C 51.9054 -1.41675 -1.23733 0
M  V30 508 O 51.2634 -0.495623 -1.74394 0
M  V30 509 C 51.3114 -3.60417 -0.11501 0
M  V30 510 O 50.4154 -3.95309 -1.17492 0
M  V30 511 H 49.7564 -0.661597 0.0564385 0
M  V30 512 H 52.2864 -1.88837 0.787507 0
M  V30 513 H 52.2964 -4.06698 -0.325644 0
M  V30 514 H 50.9714 -4.07601 0.826675 0
M  V30 515 H 49.5484 -3.60757 -0.943869 0
M  V30 516 N 51.7335 -0.305618 -1.54608 0
M  V30 517 C 52.6965 0.555591 -2.22364 0
M  V30 518 C 53.6965 1.05768 -1.21119 0
M  V30 519 O 54.8865 0.952972 -1.45822 0
M  V30 520 C 52.0185 1.76974 -2.91364 0
M  V30 521 H 53.2115 -0.0364572 -2.99878 0
M  V30 522 H 50.7645 -0.0565007 -1.56198 0
M  V30 523 H 51.4995 2.40151 -2.17941 0
M  V30 524 H 51.2845 1.41732 -3.65588 0
M  V30 525 H 52.7745 2.38148 -3.43038 0
M  V30 526 N 53.2116 1.57565 -0.0334293 0
M  V30 527 C 54.4596 1.91598 0.642999 0
M  V30 528 C 54.7806 0.910847 1.7242 0
M  V30 529 O 54.0506 -0.0469931 1.95844 0
M  V30 530 H 52.6306 0.707228 0.240496 0
M  V30 531 H 55.2926 1.94726 -0.0822488 0
M  V30 532 H 54.3886 2.92336 1.09298 0
M  V30 533 N 54.6897 -0.239769 1.55765 0
M  V30 534 C 55.9377 -0.964892 1.77579 0
M  V30 535 C 56.2587 -1.85582 0.598699 0
M  V30 536 O 55.5287 -1.92075 -0.385226 0
M  V30 537 H 54.1087 -0.359265 0.654933 0
M  V30 538 H 56.7707 -0.256001 1.93211 0
M  V30 539 H 55.8667 -1.58243 2.69009 0
M  V30 540 N 56.1678 -1.49265 -0.50573 0
M  V30 541 C 57.4158 -1.582 -1.25766 0
M  V30 542 C 57.7368 -0.268482 -1.93143 0
M  V30 543 O 57.0068 0.711833 -1.8251 0
M  V30 544 H 55.5868 -0.582873 -0.467191 0
M  V30 545 H 58.2488 -1.85865 -0.586525 0
M  V30 546 H 57.3448 -2.37563 -2.02412 0
M  V30 547 N 57.6459 0.756429 -1.3826 0
M  V30 548 C 59.0569 1.33359 -1.30661 0
M  V30 549 C 59.4079 1.96161 0.0388875 0
M  V30 550 O 58.5329 1.94874 0.940918 0
M  V30 551 C 59.1279 2.42477 -2.36622 0
M  V30 552 C 57.6869 2.95922 -2.3261 0
M  V30 553 C 56.8339 1.69275 -2.19639 0
M  V30 554 H 59.7849 0.55552 -1.4866 0
M  V30 555 H 59.8059 3.22345 -2.02174 0
M  V30 556 H 59.3179 1.96739 -3.34538 0
M  V30 557 H 57.4189 3.45996 -1.38267 0
M  V30 558 H 57.5319 3.50494 -3.26636 0
M  V30 559 H 55.8959 1.92793 -1.66442 0
M  V30 560 H 56.6789 1.25619 -3.19491 0
M  V30 561 N 59.124 1.23083 0.984299 0
M  V30 562 C 60.372 1.05848 1.72165 0
M  V30 563 C 60.693 -0.406049 1.90726 0
M  V30 564 O 59.963 -1.29139 1.47309 0
M  V30 565 H 58.543 0.388685 0.637913 0
M  V30 566 H 61.205 1.54736 1.18503 0
M  V30 567 H 60.301 1.54327 2.71274 0
M  V30 568 N 60.6021 -1.18246 1.0419 0
M  V30 569 C 61.8271 -1.92736 0.765996 0
M  V30 570 C 62.2521 -1.75728 -0.67091 0
M  V30 571 O 61.6101 -1.06825 -1.46486 0
M  V30 572 C 61.6581 -3.42148 1.13875 0
M  V30 573 O 60.7621 -4.11548 0.264954 0
M  V30 574 H 60.1031 -0.601238 0.281797 0
M  V30 575 H 62.6331 -1.49942 1.39207 0
M  V30 576 H 62.6431 -3.92858 1.1012 0
M  V30 577 H 61.3181 -3.53848 2.18551 0
M  V30 578 H 59.8951 -3.71137 0.362226 0
M  V30 579 N 62.0802 -0.821533 -1.34494 0
M  V30 580 C 63.3282 -0.408139 -1.97936 0
M  V30 581 C 63.6492 1.03193 -1.65457 0
M  V30 582 O 62.9192 1.71622 -0.944595 0
M  V30 583 H 61.4992 -0.147928 -0.732206 0
M  V30 584 H 64.1612 -1.05067 -1.64155 0
M  V30 585 H 63.2572 -0.52601 -3.07635 0
M  V30 586 N 63.5583 1.46682 -0.576371 0
M  V30 587 C 64.7863 2.06798 -0.0649635 0
M  V30 588 C 65.2013 1.42612 1.23723 0
M  V30 589 O 64.5583 0.529203 1.74659 0
M  V30 590 C 64.6093 3.6132 0.114202 0
M  V30 591 O 64.3303 4.23104 -1.13644 0
M  V30 592 C 65.8313 4.38349 0.66069 0
M  V30 593 H 63.0513 0.668778 -0.0545616 0
M  V30 594 H 65.5953 1.88404 -0.795237 0
M  V30 595 H 63.7503 3.79162 0.794673 0
M  V30 596 H 64.1643 5.15894 -0.946253 0
M  V30 597 H 65.6383 5.47081 0.73526 0
M  V30 598 H 66.1153 4.05953 1.67627 0
M  V30 599 H 66.7213 4.25297 0.0152951 0
M  V30 600 N 65.0364 0.313813 1.54444 0
M  V30 601 C 66.2614 -0.296681 2.05267 0
M  V30 602 C 66.6864 -1.45757 1.18897 0
M  V30 603 O 66.0444 -1.80239 0.195886 0
M  V30 604 C 66.0924 -0.71831 3.53373 0
M  V30 605 O 65.1964 -1.82175 3.69981 0
M  V30 606 H 64.5374 -0.0554061 0.661684 0
M  V30 607 H 67.0674 0.459387 1.99376 0
M  V30 608 H 67.0774 -1.00364 3.95463 0
M  V30 609 H 65.7524 0.130821 4.15694 0
M  V30 610 H 64.3294 -1.53598 3.39797 0
M  V30 611 N 66.5145 -1.57545 0.0417849 0
M  V30 612 C 67.9255 -1.80011 -0.495259 0
M  V30 613 C 68.2765 -0.953199 -1.71489 0
M  V30 614 O 67.4015 -0.167138 -2.15754 0
M  V30 615 C 67.9965 -3.26482 -0.905265 0
M  V30 616 C 66.5555 -3.499 -1.38734 0
M  V30 617 C 65.7025 -2.74979 -0.358056 0
M  V30 618 H 68.6535 -1.56425 0.267736 0
M  V30 619 H 68.6745 -3.36887 -1.76882 0
M  V30 620 H 68.1865 -3.88096 -0.017401 0
M  V30 621 H 66.2875 -2.93553 -2.29471 0
M  V30 622 H 66.4005 -4.58615 -1.38598 0
M  V30 623 H 64.7645 -2.40834 -0.828912 0
M  V30 624 H 65.5475 -3.39315 0.521561 0
M  V30 625 N 67.9926 0.231505 -1.5589 0
M  V30 626 C 68.9246 1.31006 -1.8807 0
M  V30 627 C 69.9376 1.43539 -0.768145 0
M  V30 628 O 71.1266 1.44614 -1.04638 0
M  V30 629 C 68.2266 2.68688 -2.06543 0
M  V30 630 C 67.3996 2.78228 -3.37502 0
M  V30 631 C 66.4586 3.96857 -3.4553 0
M  V30 632 O 65.4846 3.85662 -4.18633 0
M  V30 633 N 66.6866 5.1072 -2.75944 0
M  V30 634 H 69.4516 1.03731 -2.81176 0
M  V30 635 H 67.0126 0.421573 -1.56315 0
M  V30 636 H 69.0046 3.46412 -2.09239 0
M  V30 637 H 67.5746 2.88605 -1.20109 0
M  V30 638 H 66.7946 1.87059 -3.46991 0
M  V30 639 H 68.0826 2.81564 -4.23791 0
M  V30 640 H 67.4806 5.2271 -2.16311 0
M  V30 641 H 66.0376 5.86523 -2.84314 0
M  V30 642 N 69.4707 1.49531 0.497807 0
M  V30 643 C 70.7167 1.59415 1.25358 0
M  V30 644 C 71.0497 0.281422 1.9215 0
M  V30 645 O 70.3247 -0.715249 1.80871 0
M  V30 646 C 70.6077 2.75566 2.3181 0
M  V30 647 C 70.4607 4.16642 1.69498 0
M  V30 648 C 71.7797 2.87347 3.33346 0
M  V30 649 H 68.8987 0.580244 0.454408 0
M  V30 650 H 71.5407 1.81827 0.551262 0
M  V30 651 H 69.6907 2.56587 2.91711 0
M  V30 652 H 71.3627 4.47145 1.13399 0
M  V30 653 H 69.6057 4.22141 0.998978 0
M  V30 654 H 70.2767 4.93792 2.46725 0
M  V30 655 H 72.7527 3.04634 2.83438 0
M  V30 656 H 71.6287 3.70289 4.05188 0
M  V30 657 H 71.8897 1.96834 3.95865 0
M  V30 658 N 70.9488 -0.749086 1.3866 0
M  V30 659 C 71.8588 -1.89358 1.38494 0
M  V30 660 C 72.8748 -1.71708 0.281476 0
M  V30 661 O 74.0508 -1.94554 0.520643 0
M  V30 662 C 71.1158 -3.24782 1.21316 0
M  V30 663 C 70.1768 -3.54926 2.41508 0
M  V30 664 C 69.4098 -4.83888 2.2514 0
M  V30 665 O 69.6328 -5.56592 1.24746 0
M  V30 666 O 68.5668 -5.13612 3.13826 0
M  V30 667 H 72.3928 -1.92452 2.34938 0
M  V30 668 H 69.9778 -0.894981 1.19626 0
M  V30 669 H 71.8598 -4.05739 1.13814 0
M  V30 670 H 70.5348 -3.2249 0.279592 0
M  V30 671 H 69.4418 -2.74112 2.54585 0
M  V30 672 H 70.7748 -3.61983 3.3351 0
M  V30 673 N 72.4269 -1.23603 -0.977757 0
M  V30 674 C 73.6729 -1.08136 -1.72274 0
M  V30 675 C 74.0279 0.377453 -1.88661 0
M  V30 676 O 73.3209 1.27552 -1.42972 0
M  V30 677 C 73.5149 -1.7433 -3.11999 0
M  V30 678 C 73.3439 -3.26498 -3.0924 0
M  V30 679 C 72.1139 -3.9567 -3.14282 0
M  V30 680 C 74.3119 -4.2323 -2.92201 0
M  V30 681 N 72.2939 -5.34799 -3.01436 0
M  V30 682 C 73.6649 -5.49289 -2.87544 0
M  V30 683 C 75.7199 -4.13931 -2.76705 0
M  V30 684 C 74.4229 -6.67116 -2.68978 0
M  V30 685 C 76.4489 -5.31424 -2.59504 0
M  V30 686 C 75.8109 -6.5641 -2.55548 0
M  V30 687 H 71.9099 -0.450247 -0.639376 0
M  V30 688 H 74.4939 -1.5637 -1.16002 0
M  V30 689 H 72.6649 -1.28624 -3.66484 0
M  V30 690 H 74.3969 -1.51815 -3.75146 0
M  V30 691 H 71.1519 -3.46767 -3.22567 0
M  V30 692 H 71.5759 -6.07748 -2.98281 0
M  V30 693 H 76.2179 -3.1807 -2.78552 0
M  V30 694 H 73.9359 -7.63109 -2.65876 0
M  V30 695 H 77.5219 -5.26072 -2.48474 0
M  V30 696 H 76.4019 -7.45795 -2.42405 0
M  V30 697 N 73.905 1.17692 -1.04816 0
M  V30 698 C 75.133 1.91786 -0.776254 0
M  V30 699 C 75.548 1.76604 0.667577 0
M  V30 700 O 74.905 1.10067 1.45573 0
M  V30 701 C 74.956 3.42967 -1.14263 0
M  V30 702 O 74.677 3.57678 -2.52978 0
M  V30 703 C 76.178 4.34144 -0.896311 0
M  V30 704 H 73.398 0.608624 -0.282519 0
M  V30 705 H 75.942 1.49268 -1.39783 0
M  V30 706 H 74.097 3.83245 -0.565874 0
M  V30 707 H 74.511 4.51319 -2.67229 0
M  V30 708 H 75.985 5.38744 -1.20244 0
M  V30 709 H 76.462 4.38876 0.168636 0
M  V30 710 H 77.068 3.99574 -1.45672 0
M  V30 711 N 75.3831 0.828654 1.34056 0
M  V30 712 C 76.3461 0.259927 2.27721 0
M  V30 713 C 77.3461 -0.565478 1.50529 0
M  V30 714 O 78.5361 -0.38075 1.69988 0
M  V30 715 C 75.6681 -0.634944 3.34935 0
M  V30 716 H 76.8611 1.0863 2.79534 0
M  V30 717 H 74.4141 0.600951 1.44285 0
M  V30 718 H 75.1491 -1.48416 2.88346 0
M  V30 719 H 74.9341 -0.0444999 3.92075 0
M  V30 720 H 76.4241 -1.02648 4.04788 0
M  V30 721 N 76.8612 -1.46375 0.584142 0
M  V30 722 C 78.2772 -1.57694 0.245929 0
M  V30 723 C 78.4772 -1.57903 -1.25175 0
M  V30 724 O 77.5332 -1.49676 -2.03355 0
M  V30 725 C 78.8462 -2.87028 0.896402 0
M  V30 726 C 80.3942 -3.00662 0.870127 0
M  V30 727 C 80.8692 -4.32734 1.50017 0
M  V30 728 N 82.3602 -4.39436 1.46458 0
M  V30 729 C 83.0952 -5.40248 1.92144 0
M  V30 730 N 82.5912 -6.47726 2.4581 0
M  V30 731 N 84.3842 -5.31459 1.83052 0
M  V30 732 H 76.5352 -1.44483 1.55687 0
M  V30 733 H 78.7982 -0.689291 0.650831 0
M  V30 734 H 78.5042 -2.9269 1.95002 0
M  V30 735 H 78.3782 -3.75014 0.405486 0
M  V30 736 H 80.7652 -2.94581 -0.174871 0
M  V30 737 H 80.8462 -2.14148 1.39908 0
M  V30 738 H 80.4902 -4.39573 2.54437 0
M  V30 739 H 80.4202 -5.18025 0.946432 0
M  V30 740 H 82.9112 -3.62367 1.07231 0
M  V30 741 H 83.2242 -7.20863 2.78525 0
M  V30 742 H 81.5692 -6.48542 2.49836 0
M  V30 743 H 84.7602 -4.46396 1.40883 0
M  V30 744 H 84.9332 -6.09881 2.18973 0
M  V30 745 N 78.3393 -0.321999 -1.54275 0
M  V30 746 C 79.7553 0.0306999 -1.5957 0
M  V30 747 C 79.9553 1.50614 -1.33857 0
M  V30 748 O 79.0113 2.2619 -1.12223 0
M  V30 749 C 80.3243 -0.386122 -2.98211 0
M  V30 750 C 81.8723 -0.336647 -3.11184 0
M  V30 751 C 82.3473 -0.728607 -4.52167 0
M  V30 752 N 83.8383 -0.681952 -4.58152 0
M  V30 753 C 84.5733 -0.957449 -5.6535 0
M  V30 754 N 84.0693 -1.3 -6.80494 0
M  V30 755 N 85.8623 -0.883113 -5.55119 0
M  V30 756 H 78.0133 -1.28332 -1.69247 0
M  V30 757 H 80.2763 -0.521716 -0.791528 0
M  V30 758 H 79.9823 -1.41404 -3.22022 0
M  V30 759 H 79.8563 0.249662 -3.76373 0
M  V30 760 H 82.2433 0.682058 -2.8711 0
M  V30 761 H 82.3243 -1.00734 -2.3513 0
M  V30 762 H 81.9683 -1.74522 -4.76974 0
M  V30 763 H 81.8983 -0.0356152 -5.26588 0
M  V30 764 H 84.3893 -0.428985 -3.75457 0
M  V30 765 H 84.7023 -1.49563 -7.58189 0
M  V30 766 H 83.0473 -1.33824 -6.81994 0
M  V30 767 H 86.2383 -0.615001 -4.64042 0
M  V30 768 H 86.4113 -1.10118 -6.38575 0
M  V30 769 N 79.8174 1.5752 -0.0501392 0
M  V30 770 C 80.7474 2.14502 0.922566 0
M  V30 771 C 81.7284 1.06642 1.3252 0
M  V30 772 O 82.9134 1.34577 1.4001 0
M  V30 773 C 80.0434 2.68916 2.19776 0
M  V30 774 C 78.9974 3.8175 1.93523 0
M  V30 775 C 78.3234 4.22677 3.27487 0
M  V30 776 C 79.6234 5.06932 1.25765 0
M  V30 777 H 81.3174 2.9603 0.447952 0
M  V30 778 H 78.8634 1.42401 0.214024 0
M  V30 779 H 80.8164 3.07419 2.88222 0
M  V30 780 H 79.5404 1.84578 2.69441 0
M  V30 781 H 78.1994 3.43718 1.27489 0
M  V30 782 H 77.8474 3.35291 3.74952 0
M  V30 783 H 77.5474 4.98725 3.1072 0
M  V30 784 H 79.0714 4.63779 3.97166 0
M  V30 785 H 80.4854 5.42888 1.84244 0
M  V30 786 H 78.8824 5.88116 1.19328 0
M  V30 787 H 79.9524 4.84337 0.233536 0
M  V30 788 N 81.2955 -0.223234 1.56011 0
M  V30 789 C 82.5415 -0.949279 1.79211 0
M  V30 790 C 82.8745 -1.84054 0.619494 0
M  V30 791 O 82.1495 -1.90726 -0.381317 0
M  V30 792 C 82.4325 -1.78965 3.12479 0
M  V30 793 C 82.2855 -0.924997 4.40186 0
M  V30 794 C 83.6045 -2.76774 3.42175 0
M  V30 795 H 80.7235 -0.343676 0.651963 0
M  V30 796 H 83.3655 -0.218253 1.88742 0
M  V30 797 H 81.5155 -2.41291 3.04485 0
M  V30 798 H 83.1875 -0.318615 4.60198 0
M  V30 799 H 81.4305 -0.230344 4.33188 0
M  V30 800 H 82.1015 -1.54735 5.29869 0
M  V30 801 H 84.5775 -2.24584 3.50287 0
M  V30 802 H 83.4535 -3.32678 4.36597 0
M  V30 803 H 83.7145 -3.54429 2.64258 0
M  V30 804 N 82.7736 -1.49793 -0.48987 0
M  V30 805 C 84.0196 -1.61049 -1.24236 0
M  V30 806 C 84.3746 -0.298412 -1.90072 0
M  V30 807 O 83.6676 0.702262 -1.78266 0
M  V30 808 C 83.8616 -2.71488 -2.32441 0
M  V30 809 C 83.6906 -4.13308 -1.77218 0
M  V30 810 C 82.4606 -4.79955 -1.58023 0
M  V30 811 C 84.6586 -4.98176 -1.27772 0
M  V30 812 N 82.6406 -6.06052 -0.978465 0
M  V30 813 C 84.0116 -6.14843 -0.798 0
M  V30 814 C 86.0666 -4.84091 -1.16449 0
M  V30 815 C 84.7696 -7.18975 -0.216245 0
M  V30 816 C 86.7956 -5.88382 -0.596698 0
M  V30 817 C 86.1576 -7.04285 -0.127262 0
M  V30 818 H 82.2566 -0.643611 -0.444172 0
M  V30 819 H 84.8406 -1.86842 -0.54754 0
M  V30 820 H 83.0116 -2.47449 -2.99372 0
M  V30 821 H 84.7436 -2.72205 -2.99477 0
M  V30 822 H 81.4986 -4.36936 -1.82712 0
M  V30 823 H 81.9226 -6.73407 -0.696534 0
M  V30 824 H 86.5646 -3.94786 -1.5134 0
M  V30 825 H 84.2826 -8.0797 0.144903 0
M  V30 826 H 87.8686 -5.79545 -0.511716 0
M  V30 827 H 86.7486 -7.83606 0.30523 0
M  V30 828 N 84.2517 0.741722 -1.39055 0
M  V30 829 C 85.4977 1.50336 -1.36113 0
M  V30 830 C 85.8307 1.94148 0.0450796 0
M  V30 831 O 85.1057 1.66301 1.00868 0
M  V30 832 C 85.3887 2.74773 -2.32749 0
M  V30 833 C 85.2417 2.37023 -3.82283 0
M  V30 834 C 86.5607 3.76846 -2.27322 0
M  V30 835 H 83.6797 0.545351 -0.495743 0
M  V30 836 H 86.3217 0.848624 -1.69995 0
M  V30 837 H 84.4717 3.30639 -2.03986 0
M  V30 838 H 86.1437 1.8684 -4.21768 0
M  V30 839 H 84.3867 1.69334 -3.99385 0
M  V30 840 H 85.0577 3.26104 -4.45376 0
M  V30 841 H 87.5337 3.30548 -2.5274 0
M  V30 842 H 86.4097 4.6159 -2.97028 0
M  V30 843 H 86.6707 4.23286 -1.27599 0
M  V30 844 N 85.7298 1.2412 0.971189 0
M  V30 845 C 87.1408 1.07236 1.52831 0
M  V30 846 C 87.4918 -0.357352 1.92918 0
M  V30 847 O 86.6168 -1.24528 1.76979 0
M  V30 848 C 87.2118 1.94043 2.77728 0
M  V30 849 C 85.7708 1.81394 3.29808 0
M  V30 850 C 84.9178 1.89189 2.02738 0
M  V30 851 H 87.8688 1.37648 0.789864 0
M  V30 852 H 87.8898 1.47066 3.5093 0
M  V30 853 H 87.4018 2.98093 2.4852 0
M  V30 854 H 85.5028 0.801634 3.63874 0
M  V30 855 H 85.6158 2.65294 3.98944 0
M  V30 856 H 83.9798 1.32877 2.17292 0
M  V30 857 H 84.7628 2.94812 1.759 0
M  V30 858 N 87.2079 -1.17134 1.05439 0
M  V30 859 C 88.4329 -1.91913 0.786396 0
M  V30 860 C 88.8579 -1.7643 -0.652234 0
M  V30 861 O 88.2159 -1.08372 -1.45345 0
M  V30 862 C 88.2639 -3.40921 1.17497 0
M  V30 863 O 87.3679 -4.11244 0.308589 0
M  V30 864 H 86.7089 -0.598215 0.288158 0
M  V30 865 H 89.2389 -1.48457 1.4079 0
M  V30 866 H 89.2489 -3.91668 1.14281 0
M  V30 867 H 87.9239 -3.5151 2.22292 0
M  V30 868 H 86.5009 -3.70731 0.40157 0
M  V30 869 N 88.686 -0.835752 -1.33615 0
M  V30 870 C 89.596 -0.269088 -2.33052 0
M  V30 871 C 90.612 0.603251 -1.63208 0
M  V30 872 O 91.788 0.508112 -1.94885 0
M  V30 873 C 88.853 0.549091 -3.42324 0
M  V30 874 C 87.914 -0.347156 -4.27894 0
M  V30 875 C 87.147 0.43207 -5.31948 0
M  V30 876 O 87.37 1.66409 -5.45586 0
M  V30 877 O 86.304 -0.192298 -6.01593 0
M  V30 878 H 90.13 -1.09243 -2.83372 0
M  V30 879 H 87.715 -0.598198 -1.36901 0
M  V30 880 H 89.597 1.01414 -4.09015 0
M  V30 881 H 88.272 1.34955 -2.94226 0
M  V30 882 H 87.179 -0.859979 -3.64081 0
M  V30 883 H 88.512 -1.1123 -4.79467 0
M  V30 884 N 90.1641 1.46063 -0.591896 0
M  V30 885 C 91.0941 2.33172 0.123673 0
M  V30 886 C 92.0751 1.45897 0.87453 0
M  V30 887 O 93.2601 1.74698 0.848181 0
M  V30 888 C 90.3901 3.28336 1.13194 0
M  V30 889 C 89.3441 4.25124 0.495324 0
M  V30 890 C 88.6701 5.09863 1.61071 0
M  V30 891 C 89.9701 5.19143 -0.573425 0
M  V30 892 H 91.6641 2.93252 -0.603646 0
M  V30 893 H 89.2101 1.41014 -0.291741 0
M  V30 894 H 91.1631 3.88137 1.64097 0
M  V30 895 H 89.8871 2.66383 1.88965 0
M  V30 896 H 88.5461 3.66599 0.00729452 0
M  V30 897 H 88.1941 4.44288 2.35832 0
M  V30 898 H 87.8941 5.75417 1.19035 0
M  V30 899 H 89.4181 5.72529 2.12233 0
M  V30 900 H 90.8321 5.73106 -0.1491 0
M  V30 901 H 89.2291 5.93089 -0.914636 0
M  V30 902 H 90.2991 4.62519 -1.45617 0
M  V30 903 N 91.6422 0.330177 1.54103 0
M  V30 904 C 92.5922 -0.548456 2.21305 0
M  V30 905 C 93.5762 -1.07651 1.19583 0
M  V30 906 O 94.7682 -1.01243 1.45186 0
M  V30 907 C 91.8972 -1.70559 2.97934 0
M  V30 908 C 90.9832 -1.19212 4.07 0
M  V30 909 N 91.3742 -0.398831 5.04225 0
M  V30 910 C 89.6722 -1.47024 4.2107 0
M  V30 911 C 90.3732 -0.121761 5.81573 0
M  V30 912 N 89.3492 -0.709722 5.38947 0
M  V30 913 H 93.1512 0.0648483 2.93828 0
M  V30 914 H 90.6652 0.136363 1.61826 0
M  V30 915 H 92.6622 -2.34688 3.44568 0
M  V30 916 H 91.3222 -2.32231 2.26934 0
M  V30 917 H 92.3332 -0.0410869 5.17884 0
M  V30 918 H 89.0102 -2.09232 3.61287 0
M  V30 919 H 90.4002 0.517298 6.69906 0
M  V30 920 N 93.1203 -1.57491 0.0584922 0
M  V30 921 C 94.3683 -1.92597 -0.612436 0
M  V30 922 C 94.6893 -0.938162 -1.70949 0
M  V30 923 O 93.9593 0.0158301 -1.95894 0
M  V30 924 H 92.5393 -0.710964 -0.229214 0
M  V30 925 H 95.2013 -1.94571 0.113218 0
M  V30 926 H 94.2973 -2.94038 -1.04633 0
M  V30 927 N 94.5984 0.214957 -1.56127 0
M  V30 928 C 95.8454 0.938372 -1.79446 0
M  V30 929 C 96.1734 1.8407 -0.628378 0
M  V30 930 O 95.4284 1.91837 0.386925 0
M  V30 931 C 95.7274 1.80314 -3.0858 0
M  V30 932 C 95.3934 1.05349 -4.3842 0
M  V30 933 C 94.0554 0.846435 -4.73697 0
M  V30 934 C 96.4074 0.524588 -5.18553 0
M  V30 935 C 93.7354 0.098683 -5.86617 0
M  V30 936 C 96.0874 -0.209853 -6.32252 0
M  V30 937 C 94.7514 -0.428102 -6.66126 0
M  V30 938 H 94.0214 0.343375 -0.656639 0
M  V30 939 H 96.6684 0.206077 -1.90388 0
M  V30 940 H 94.9734 2.6035 -2.92789 0
M  V30 941 H 96.6704 2.36513 -3.23825 0
M  V30 942 H 93.2604 1.22486 -4.10725 0
M  V30 943 H 97.4444 0.672008 -4.91729 0
M  V30 944 H 92.7004 -0.0805753 -6.11347 0
M  V30 945 H 96.8744 -0.627157 -6.9357 0
M  V30 946 H 94.5014 -1.00944 -7.53468 0
M  V30 947 N 96.0765 1.50051 0.48192 0
M  V30 948 C 96.9865 1.7089 1.60728 0
M  V30 949 C 98.0025 0.591788 1.63627 0
M  V30 950 O 99.1785 0.868817 1.81696 0
M  V30 951 C 96.2435 1.78855 2.97005 0
M  V30 952 C 95.3045 3.02537 3.04581 0
M  V30 953 C 94.5375 3.10112 4.34357 0
M  V30 954 O 94.7605 2.24765 5.24249 0
M  V30 955 O 93.6945 4.02747 4.47301 0
M  V30 956 H 97.5205 2.66264 1.46072 0
M  V30 957 H 95.1055 1.34018 0.660264 0
M  V30 958 H 96.9875 1.86336 3.77964 0
M  V30 959 H 95.6625 0.866628 3.11883 0
M  V30 960 H 94.5695 3.00563 2.22739 0
M  V30 961 H 95.9025 3.94272 2.94636 0
M  V30 962 N 97.5546 -0.734337 1.39446 0
M  V30 963 C 98.5176 -1.83004 1.37994 0
M  V30 964 C 99.5176 -1.58397 0.276938 0
M  V30 965 O 100.708 -1.65785 0.534875 0
M  V30 966 C 97.8396 -3.20802 1.1532 0
M  V30 967 H 99.0326 -1.85694 2.35494 0
M  V30 968 H 96.5856 -0.938059 1.25021 0
M  V30 969 H 97.3206 -3.23772 0.185036 0
M  V30 970 H 97.1056 -3.4006 1.95197 0
M  V30 971 H 98.5956 -4.00862 1.17046 0
M  V30 972 N 99.0327 -1.24633 -0.964593 0
M  V30 973 C 99.9957 -1.0424 -2.04124 0
M  V30 974 C 100.996 0.00137563 -1.608 0
M  V30 975 O 102.186 -0.239883 -1.7254 0
M  V30 976 C 99.3177 -0.580588 -3.3592 0
M  V30 977 H 100.511 -1.99803 -2.23649 0
M  V30 978 H 98.0637 -1.06899 -1.14027 0
M  V30 979 H 98.7987 0.3781 -3.22088 0
M  V30 980 H 98.5837 -1.33398 -3.6871 0
M  V30 981 H 100.074 -0.459034 -4.15069 0
M  V30 982 N 100.511 1.16574 -1.06058 0
M  V30 983 C 101.474 2.19085 -0.673392 0
M  V30 984 C 102.474 1.5835 0.279648 0
M  V30 985 O 103.664 1.74088 0.0623488 0
M  V30 986 C 100.796 3.40899 0.00954234 0
M  V30 987 H 101.989 2.54853 -1.58081 0
M  V30 988 H 99.5418 1.30808 -0.855516 0
M  V30 989 H 100.277 3.10684 0.929826 0
M  V30 990 H 100.062 3.86233 -0.67573 0
M  V30 991 H 101.552 4.1675 0.266245 0
M  V30 992 N 101.989 0.842826 1.3317 0
M  V30 993 C 102.919 0.294028 2.31641 0
M  V30 994 C 103.9 -0.600401 1.59151 0
M  V30 995 O 105.085 -0.523124 1.87022 0
M  V30 996 C 102.215 -0.528416 3.43257 0
M  V30 997 C 101.169 0.27056 4.27144 0
M  V30 998 C 100.495 -0.675881 5.30411 0
M  V30 999 C 101.795 1.48981 5.00602 0
M  V30 1000 H 103.489 1.11681 2.77791 0
M  V30 1001 H 101.035 0.538478 1.33553 0
M  V30 1002 H 102.988 -0.922674 4.11175 0
M  V30 1003 H 101.712 -1.38445 2.95805 0
M  V30 1004 H 100.371 0.646427 3.60856 0
M  V30 1005 H 100.019 -1.52842 4.79216 0
M  V30 1006 H 99.7189 -0.145374 5.8742 0
M  V30 1007 H 101.243 -1.06757 6.01195 0
M  V30 1008 H 102.657 1.16849 5.61266 0
M  V30 1009 H 101.054 1.95739 5.6728 0
M  V30 1010 H 102.124 2.25746 4.29147 0
M  V30 1011 N 103.467 -1.45747 0.599634 0
M  V30 1012 C 104.883 -1.57424 0.26264 0
M  V30 1013 C 105.083 -1.59222 -1.23493 0
M  V30 1014 O 104.139 -1.51825 -2.01756 0
M  V30 1015 C 105.452 -2.86061 0.926795 0
M  V30 1016 C 107 -2.99722 0.901967 0
M  V30 1017 C 107.475 -4.31119 1.54598 0
M  V30 1018 N 108.966 -4.37858 1.5111 0
M  V30 1019 C 109.701 -5.3818 1.97863 0
M  V30 1020 N 109.197 -6.45083 2.52666 0
M  V30 1021 N 110.99 -5.29487 1.88679 0
M  V30 1022 H 103.141 -1.42823 1.57211 0
M  V30 1023 H 105.404 -0.68235 0.658105 0
M  V30 1024 H 105.11 -2.90605 1.98095 0
M  V30 1025 H 104.984 -3.74563 0.445238 0
M  V30 1026 H 107.371 -2.9475 -0.143617 0
M  V30 1027 H 107.452 -2.12652 1.42171 0
M  V30 1028 H 107.096 -4.36849 2.59085 0
M  V30 1029 H 107.026 -5.16992 1.00132 0
M  V30 1030 H 109.517 -3.61209 1.11068 0
M  V30 1031 H 109.83 -7.17869 2.86155 0
M  V30 1032 H 108.175 -6.45856 2.56701 0
M  V30 1033 H 111.366 -4.44877 1.4561 0
M  V30 1034 H 111.539 -6.07524 2.25429 0
M  V30 1035 N 104.945 -0.338344 -1.53925 0
M  V30 1036 C 106.222 0.314774 -1.93051 0
M  V30 1037 C 106.602 1.68669 -1.26941 0
M  V30 1038 O 105.95 2.24636 -0.418445 0
M  V30 1039 C 106.16 0.392249 -3.46789 0
M  V30 1040 C 107.508 0.645554 -4.19664 0
M  V30 1041 O 108.532 0.474575 -3.53024 0
M  V30 1042 O 107.391 0.976408 -5.37707 0
M  V30 1043 H 104.485 0.182598 -0.80659 0
M  V30 1044 H 107.031 -0.389141 -1.65178 0
M  V30 1045 H 105.803 -0.570702 -3.87116 0
M  V30 1046 H 105.426 1.14316 -3.80812 0
M  V30 1047 N 106.423 1.57458 -0.0668435 0
M  V30 1048 C 107.333 2.15937 0.916975 0
M  V30 1049 C 108.349 1.12123 1.33058 0
M  V30 1050 O 109.525 1.44366 1.40429 0
M  V30 1051 C 106.59 2.70547 2.16807 0
M  V30 1052 C 105.651 3.89215 1.81135 0
M  V30 1053 C 104.884 4.41211 3.0028 0
M  V30 1054 O 105.107 3.92225 4.14144 0
M  V30 1055 O 104.041 5.32605 2.80384 0
M  V30 1056 H 107.867 3.00354 0.449561 0
M  V30 1057 H 105.452 1.48584 0.155949 0
M  V30 1058 H 107.334 3.0557 2.90181 0
M  V30 1059 H 106.009 1.89192 2.62656 0
M  V30 1060 H 104.916 3.59054 1.05028 0
M  V30 1061 H 106.249 4.71848 1.40073 0
M  V30 1062 N 107.901 -0.206675 1.56239 0
M  V30 1063 C 109.149 -0.927007 1.79586 0
M  V30 1064 C 109.47 -1.8427 0.637929 0
M  V30 1065 O 108.74 -1.92849 -0.344398 0
M  V30 1066 H 107.32 -0.345292 0.662407 0
M  V30 1067 H 109.982 -0.21496 1.93711 0
M  V30 1068 H 109.078 -1.52501 2.72305 0
M  V30 1069 N 109.379 -1.50304 -0.473955 0
M  V30 1070 C 110.289 -1.7174 -1.5982 0
M  V30 1071 C 111.305 -0.600457 -1.63311 0
M  V30 1072 O 112.481 -0.878441 -1.81233 0
M  V30 1073 C 109.546 -1.80427 -2.96052 0
M  V30 1074 C 108.607 -3.04148 -3.02972 0
M  V30 1075 C 107.84 -3.12411 -4.32706 0
M  V30 1076 O 108.063 -2.27542 -5.23049 0
M  V30 1077 O 106.997 -4.05113 -4.45159 0
M  V30 1078 H 110.823 -2.67035 -1.44657 0
M  V30 1079 H 108.408 -1.34366 -0.653148 0
M  V30 1080 H 110.29 -1.88338 -3.7697 0
M  V30 1081 H 108.965 -0.883156 -3.11419 0
M  V30 1082 H 107.872 -3.0174 -2.21142 0
M  V30 1083 H 109.205 -3.95829 -2.92541 0
M  V30 1084 N 110.857 0.726932 -1.39834 0
M  V30 1085 C 111.767 1.87131 -1.41489 0
M  V30 1086 C 112.783 1.71239 -0.308757 0
M  V30 1087 O 113.959 1.93701 -0.551529 0
M  V30 1088 C 111.024 3.22811 -1.26468 0
M  V30 1089 C 110.085 3.51039 -2.47124 0
M  V30 1090 C 109.318 4.80245 -2.3281 0
M  V30 1091 O 109.541 5.54537 -1.33585 0
M  V30 1092 O 108.475 5.08554 -3.21957 0
M  V30 1093 H 112.301 1.8869 -2.3797 0
M  V30 1094 H 109.886 0.875837 -1.21035 0
M  V30 1095 H 111.768 4.03877 -1.20255 0
M  V30 1096 H 110.443 3.22005 -0.330862 0
M  V30 1097 H 109.35 2.70027 -2.58914 0
M  V30 1098 H 110.683 3.56632 -3.39227 0
M  V30 1099 N 112.336 1.25143 0.95797 0
M  V30 1100 C 113.246 1.06968 2.08794 0
M  V30 1101 C 114.262 0.00773911 1.73998 0
M  V30 1102 O 115.438 0.207972 2.00323 0
M  V30 1103 C 112.503 0.68691 3.39827 0
M  V30 1104 C 111.564 1.82641 3.88511 0
M  V30 1105 C 110.797 1.46181 5.1329 0
M  V30 1106 O 111.02 0.355971 5.69288 0
M  V30 1107 O 109.954 2.29085 5.566 0
M  V30 1108 H 113.78 2.01723 2.27027 0
M  V30 1109 H 111.365 1.04051 1.07209 0
M  V30 1110 H 113.247 0.485417 4.18595 0
M  V30 1111 H 111.922 -0.231417 3.22872 0
M  V30 1112 H 110.829 2.08274 3.10762 0
M  V30 1113 H 112.162 2.72386 4.09959 0
M  V30 1114 N 113.814 -1.1601 1.06675 0
M  V30 1115 C 114.777 -2.18724 0.685001 0
M  V30 1116 C 115.777 -1.58496 -0.271246 0
M  V30 1117 O 116.967 -1.74119 -0.0531156 0
M  V30 1118 C 114.099 -3.40899 0.00853648 0
M  V30 1119 H 115.292 -2.54011 1.59431 0
M  V30 1120 H 112.845 -1.30352 0.862441 0
M  V30 1121 H 113.58 -3.11173 -0.913337 0
M  V30 1122 H 113.365 -3.8587 0.696204 0
M  V30 1123 H 114.855 -4.16886 -0.24414 0
M  V30 1124 N 115.292 -0.849877 -1.32721 0
M  V30 1125 C 116.202 -0.293791 -2.32753 0
M  V30 1126 C 117.218 0.585906 -1.63839 0
M  V30 1127 O 118.394 0.487413 -1.95413 0
M  V30 1128 C 115.459 0.512752 -3.42887 0
M  V30 1129 C 114.52 -0.39252 -4.27502 0
M  V30 1130 C 113.753 0.375625 -5.32377 0
M  V30 1131 O 113.976 1.60613 -5.4732 0
M  V30 1132 O 112.91 -0.256094 -6.01355 0
M  V30 1133 H 116.736 -1.12242 -2.82197 0
M  V30 1134 H 114.321 -0.612685 -1.36259 0
M  V30 1135 H 116.203 0.970704 -4.10067 0
M  V30 1136 H 114.878 1.31826 -2.95641 0
M  V30 1137 H 113.785 -0.898547 -3.63149 0
M  V30 1138 H 115.118 -1.16309 -4.7826 0
M  V30 1139 N 116.77 1.45427 -0.607355 0
M  V30 1140 C 118.016 2.0254 -0.102607 0
M  V30 1141 C 118.349 1.47478 1.26348 0
M  V30 1142 O 117.624 0.64939 1.83339 0
M  V30 1143 C 117.907 3.60044 -0.0634347 0
M  V30 1144 C 117.76 4.2544 -1.46017 0
M  V30 1145 C 119.079 4.35646 0.624514 0
M  V30 1146 H 116.198 0.73598 -0.0387607 0
M  V30 1147 H 118.84 1.73284 -0.779282 0
M  V30 1148 H 116.99 3.85101 0.512808 0
M  V30 1149 H 118.662 4.11569 -2.08347 0
M  V30 1150 H 116.905 3.83849 -2.02094 0
M  V30 1151 H 117.576 5.34342 -1.385 0
M  V30 1152 H 120.052 4.15882 0.134723 0
M  V30 1153 H 118.928 5.45376 0.621028 0
M  V30 1154 H 119.189 4.08501 1.69055 0
M  V30 1155 N 118.248 0.346503 1.53744 0
M  V30 1156 C 119.158 -0.517293 2.28826 0
M  V30 1157 C 120.174 -1.10935 1.3405 0
M  V30 1158 O 121.35 -1.1244 1.6709 0
M  V30 1159 C 118.415 -1.65098 3.04866 0
M  V30 1160 C 117.476 -1.0884 4.15274 0
M  V30 1161 C 116.709 -2.16806 4.87679 0
M  V30 1162 O 116.932 -3.3758 4.59778 0
M  V30 1163 O 115.866 -1.80934 5.74061 0
M  V30 1164 H 119.692 0.0931396 3.03557 0
M  V30 1165 H 117.277 0.111458 1.48984 0
M  V30 1166 H 119.159 -2.31053 3.5241 0
M  V30 1167 H 117.834 -2.24717 2.32989 0
M  V30 1168 H 116.741 -0.3933 3.72027 0
M  V30 1169 H 118.074 -0.537036 4.89261 0
M  V30 1170 N 119.726 -1.57421 0.075193 0
M  V30 1171 C 120.656 -2.15942 -0.888324 0
M  V30 1172 C 121.637 -1.08737 -1.30806 0
M  V30 1173 O 122.822 -1.36787 -1.37851 0
M  V30 1174 C 119.952 -2.72379 -2.1547 0
M  V30 1175 C 118.906 -3.8478 -1.87425 0
M  V30 1176 C 118.232 -4.27834 -3.20721 0
M  V30 1177 C 119.532 -5.08869 -1.17684 0
M  V30 1178 H 121.226 -2.96705 -0.400799 0
M  V30 1179 H 118.772 -1.42723 -0.191342 0
M  V30 1180 H 120.725 -3.11965 -2.83295 0
M  V30 1181 H 119.449 -1.88841 -2.6647 0
M  V30 1182 H 118.108 -3.45703 -1.22004 0
M  V30 1183 H 117.756 -3.41214 -3.6957 0
M  V30 1184 H 117.456 -5.03605 -3.02746 0
M  V30 1185 H 118.98 -4.70039 -3.89738 0
M  V30 1186 H 120.394 -5.4575 -1.75584 0
M  V30 1187 H 118.791 -5.8994 -1.09956 0
M  V30 1188 H 119.861 -4.84648 -0.156453 0
M  V30 1189 N 121.204 0.198386 -1.56346 0
M  V30 1190 C 122.167 1.22952 -1.93431 0
M  V30 1191 C 123.167 1.38611 -0.815092 0
M  V30 1192 O 124.357 1.36479 -1.08255 0
M  V30 1193 C 121.489 2.59946 -2.20546 0
M  V30 1194 H 122.682 0.912626 -2.85677 0
M  V30 1195 H 120.235 0.43977 -1.49986 0
M  V30 1196 H 120.97 2.96696 -1.30927 0
M  V30 1197 H 120.755 2.49953 -3.02102 0
M  V30 1198 H 122.245 3.3431 -2.50253 0
M  V30 1199 N 122.682 1.50554 0.465978 0
M  V30 1200 C 123.592 1.72585 1.58907 0
M  V30 1201 C 124.608 0.60911 1.6299 0
M  V30 1202 O 125.784 0.88804 1.80765 0
M  V30 1203 C 122.849 1.81995 2.95091 0
M  V30 1204 C 121.91 3.05751 3.01355 0
M  V30 1205 C 121.143 3.14702 4.31043 0
M  V30 1206 O 121.366 2.30313 5.21835 0
M  V30 1207 O 120.3 4.07468 4.43005 0
M  V30 1208 H 124.126 2.67799 1.43239 0
M  V30 1209 H 121.711 1.34711 0.646013 0
M  V30 1210 H 123.593 1.90335 3.75966 0
M  V30 1211 H 122.268 0.899659 3.10947 0
M  V30 1212 H 121.175 3.02908 2.19539 0
M  V30 1213 H 122.508 3.97375 2.90437 0
M  V30 1214 N 124.16 -0.719506 1.40217 0
M  V30 1215 C 125.385 -1.51371 1.4178 0
M  V30 1216 C 125.81 -1.88091 0.0182355 0
M  V30 1217 O 125.168 -1.52997 -0.972707 0
M  V30 1218 C 125.216 -2.768 2.31115 0
M  V30 1219 O 124.32 -3.73349 1.7517 0
M  V30 1220 H 123.661 -0.456529 0.482159 0
M  V30 1221 H 126.191 -0.88644 1.844 0
M  V30 1222 H 126.201 -3.25371 2.46167 0
M  V30 1223 H 124.876 -2.49407 3.3282 0
M  V30 1224 H 123.453 -3.32179 1.69444 0
M  V30 1225 N 125.638 -1.25649 -0.95132 0
M  V30 1226 C 126.886 -1.10375 -1.69298 0
M  V30 1227 C 127.207 0.355339 -1.91735 0
M  V30 1228 O 126.477 1.25188 -1.50681 0
M  V30 1229 H 125.057 -0.405461 -0.627384 0
M  V30 1230 H 127.719 -1.57823 -1.14358 0
M  V30 1231 H 126.815 -1.61465 -2.67087 0
M  V30 1232 N 127.117 1.15442 -1.07289 0
M  V30 1233 C 128.533 1.38201 -0.798288 0
M  V30 1234 C 128.733 1.92429 0.597769 0
M  V30 1235 O 127.789 2.12962 1.3566 0
M  V30 1236 C 129.102 2.35357 -1.87156 0
M  V30 1237 C 130.65 2.49021 -1.89624 0
M  V30 1238 C 131.125 3.49468 -2.96034 0
M  V30 1239 N 132.616 3.57003 -2.95132 0
M  V30 1240 C 133.351 4.34543 -3.74112 0
M  V30 1241 N 132.847 5.15421 -4.6294 0
M  V30 1242 N 134.64 4.29625 -3.62462 0
M  V30 1243 H 126.791 0.78584 -1.97328 0
M  V30 1244 H 129.054 0.408065 -0.855679 0
M  V30 1245 H 128.76 2.02626 -2.87464 0
M  V30 1246 H 128.634 3.35129 -1.73114 0
M  V30 1247 H 131.021 2.81051 -0.899687 0
M  V30 1248 H 131.102 1.4925 -2.07745 0
M  V30 1249 H 130.746 3.18173 -3.95889 0
M  V30 1250 H 130.676 4.48992 -2.75161 0
M  V30 1251 H 133.167 2.99276 -2.30743 0
M  V30 1252 H 133.48 5.7183 -5.19837 0
M  V30 1253 H 131.825 5.14729 -4.66989 0
M  V30 1254 H 135.016 3.65505 -2.92444 0
M  V30 1255 H 135.189 4.89807 -4.24256 0
M  V30 1256 N 128.595 0.856903 1.32268 0
M  V30 1257 C 130.011 0.547061 1.49931 0
M  V30 1258 C 130.211 -0.921781 1.7918 0
M  V30 1259 O 129.267 -1.70469 1.8627 0
M  V30 1260 C 130.58 1.43599 2.64196 0
M  V30 1261 C 132.128 1.43665 2.78081 0
M  V30 1262 C 132.603 2.31085 3.95428 0
M  V30 1263 N 134.094 2.28893 4.02694 0
M  V30 1264 C 134.829 2.93262 4.92732 0
M  V30 1265 N 134.325 3.66751 5.87763 0
M  V30 1266 N 136.118 2.82638 4.85873 0
M  V30 1267 H 128.269 1.8075 1.11549 0
M  V30 1268 H 130.532 0.772144 0.549997 0
M  V30 1269 H 130.238 2.48058 2.49319 0
M  V30 1270 H 130.112 1.12502 3.60032 0
M  V30 1271 H 132.499 0.399701 2.92381 0
M  V30 1272 H 132.58 1.7878 1.82952 0
M  V30 1273 H 132.224 3.34849 3.81888 0
M  V30 1274 H 132.154 1.93302 4.89839 0
M  V30 1275 H 134.645 1.75466 3.34694 0
M  V30 1276 H 134.958 4.13027 6.53168 0
M  V30 1277 H 133.303 3.70859 5.87783 0
M  V30 1278 H 136.494 2.24774 4.10602 0
M  V30 1279 H 136.667 3.33084 5.55841 0
M  V30 1280 N 130.073 -1.45103 0.615059 0
M  V30 1281 C 131.003 -2.33339 -0.0865619 0
M  V30 1282 C 131.984 -1.4727 -0.851209 0
M  V30 1283 O 133.169 -1.76026 -0.820281 0
M  V30 1284 C 130.299 -3.30095 -1.07956 0
M  V30 1285 C 129.253 -4.25858 -0.427628 0
M  V30 1286 C 128.579 -5.12361 -1.5294 0
M  V30 1287 C 129.879 -5.18165 0.655944 0
M  V30 1288 H 131.573 -2.92254 0.650224 0
M  V30 1289 H 129.119 -1.40532 0.314138 0
M  V30 1290 H 131.072 -3.90698 -1.57901 0
M  V30 1291 H 129.796 -2.69355 -1.84703 0
M  V30 1292 H 128.455 -3.66564 0.0510292 0
M  V30 1293 H 128.103 -4.47984 -2.28734 0
M  V30 1294 H 127.803 -5.77238 -1.09865 0
M  V30 1295 H 129.327 -5.75833 -2.03098 0
M  V30 1296 H 130.741 -5.72796 0.240257 0
M  V30 1297 H 129.138 -5.91559 1.00888 0
M  V30 1298 H 130.208 -4.60144 1.52957 0
M  V30 1299 N 131.551 -0.354651 -1.53558 0
M  V30 1300 C 132.967 -0.00315426 -1.596 0
M  V30 1301 C 133.167 1.47741 -1.37021 0
M  V30 1302 O 132.223 2.23759 -1.16996 0
M  V30 1303 C 133.536 -0.44929 -2.97325 0
M  V30 1304 C 135.084 -0.402578 -3.104 0
M  V30 1305 C 135.559 -0.824355 -4.5052 0
M  V30 1306 N 137.05 -0.778979 -4.56603 0
M  V30 1307 C 137.785 -1.07715 -5.63192 0
M  V30 1308 N 137.281 -1.44405 -6.77583 0
M  V30 1309 N 139.074 -1.00066 -5.53121 0
M  V30 1310 H 131.225 -1.31893 -1.66487 0
M  V30 1311 H 133.488 -0.538388 -0.780284 0
M  V30 1312 H 133.194 -1.48202 -3.1895 0
M  V30 1313 H 133.068 0.169772 -3.76818 0
M  V30 1314 H 135.455 0.621004 -2.88492 0
M  V30 1315 H 135.536 -1.05699 -2.32941 0
M  V30 1316 H 135.18 -1.846 -4.73165 0
M  V30 1317 H 135.11 -0.147304 -5.26394 0
M  V30 1318 H 137.601 -0.508528 -3.74463 0
M  V30 1319 H 137.914 -1.65612 -7.54846 0
M  V30 1320 H 136.259 -1.4826 -6.79002 0
M  V30 1321 H 139.45 -0.713293 -4.62633 0
M  V30 1322 H 139.623 -1.23638 -6.36096 0
M  V30 1323 N 133.029 1.57378 -0.0835403 0
M  V30 1324 C 133.959 2.1641 0.87686 0
M  V30 1325 C 134.94 1.09429 1.30228 0
M  V30 1326 O 136.125 1.37516 1.37124 0
M  V30 1327 C 133.255 2.73517 2.14022 0
M  V30 1328 C 132.209 3.85769 1.85381 0
M  V30 1329 C 131.535 4.29529 3.18448 0
M  V30 1330 C 132.835 5.09486 1.14984 0
M  V30 1331 H 134.529 2.96914 0.385059 0
M  V30 1332 H 132.075 1.42823 0.18377 0
M  V30 1333 H 134.028 3.13463 2.81636 0
M  V30 1334 H 132.752 1.90252 2.65465 0
M  V30 1335 H 131.411 3.46345 1.20169 0
M  V30 1336 H 131.059 3.43169 3.67755 0
M  V30 1337 H 130.759 5.05204 3.00071 0
M  V30 1338 H 132.283 4.72099 3.8724 0
M  V30 1339 H 133.697 5.46674 1.72687 0
M  V30 1340 H 132.094 5.90515 1.06826 0
M  V30 1341 H 133.164 4.84724 0.130749 0
M  V30 1342 N 134.507 -0.190092 1.56449 0
M  V30 1343 C 135.918 -0.754312 1.70784 0
M  V30 1344 C 136.269 -1.83631 0.690951 0
M  V30 1345 O 135.394 -2.15868 -0.151604 0
M  V30 1346 C 135.989 -1.37503 3.09642 0
M  V30 1347 C 134.548 -1.88628 3.25725 0
M  V30 1348 C 133.695 -0.758098 2.66736 0
M  V30 1349 H 136.646 0.0350524 1.58661 0
M  V30 1350 H 136.667 -2.2445 3.0725 0
M  V30 1351 H 136.179 -0.587302 3.83631 0
M  V30 1352 H 134.28 -2.70103 2.56661 0
M  V30 1353 H 134.393 -2.04462 4.3328 0
M  V30 1354 H 132.757 -1.17369 2.26046 0
M  V30 1355 H 133.54 0.0174705 3.43296 0
M  V30 1356 N 135.985 -1.50799 -0.457987 0
M  V30 1357 C 137.401 -1.38515 -0.792819 0
M  V30 1358 C 137.601 -0.451409 -1.96379 0
M  V30 1359 O 136.657 0.10112 -2.52297 0
M  V30 1360 C 137.97 -2.80149 -1.09258 0
M  V30 1361 C 139.518 -2.89156 -1.19825 0
M  V30 1362 C 139.993 -4.31651 -1.53106 0
M  V30 1363 N 141.484 -4.34662 -1.60072 0
M  V30 1364 C 142.219 -5.41928 -1.87354 0
M  V30 1365 N 141.715 -6.59384 -2.12568 0
M  V30 1366 N 143.508 -5.29385 -1.88965 0
M  V30 1367 H 135.659 -2.10073 0.313511 0
M  V30 1368 H 137.922 -0.944803 0.0777862 0
M  V30 1369 H 137.628 -3.50374 -0.305084 0
M  V30 1370 H 137.502 -3.18204 -2.02549 0
M  V30 1371 H 139.889 -2.19141 -1.97639 0
M  V30 1372 H 139.97 -2.54626 -0.244821 0
M  V30 1373 H 139.614 -5.02208 -0.758266 0
M  V30 1374 H 139.544 -4.63678 -2.49621 0
M  V30 1375 H 142.035 -3.49973 -1.42573 0
M  V30 1376 H 142.348 -7.36934 -2.32696 0
M  V30 1377 H 140.693 -6.62535 -2.09933 0
M  V30 1378 H 143.884 -4.36616 -1.68772 0
M  V30 1379 H 144.057 -6.13066 -2.09891 0
M  V30 1380 N 137.463 0.71206 -1.40597 0
M  V30 1381 C 138.74 1.46536 -1.29563 0
M  V30 1382 C 139.12 2.10931 0.0844217 0
M  V30 1383 O 138.468 2.00418 1.0975 0
M  V30 1384 C 138.678 2.49821 -2.43701 0
M  V30 1385 C 140.026 3.15551 -2.841 0
M  V30 1386 O 141.05 2.60142 -2.4332 0
M  V30 1387 O 139.909 4.15867 -3.54566 0
M  V30 1388 H 137.003 0.651801 -0.509004 0
M  V30 1389 H 139.549 0.743935 -1.52524 0
M  V30 1390 H 138.321 2.00778 -3.35863 0
M  V30 1391 H 137.944 3.29495 -2.22528 0
M  V30 1392 N 138.941 1.26152 0.944643 0
M  V30 1393 C 139.873 1.03199 2.04652 0
M  V30 1394 C 140.886 -0.00642356 1.62799 0
M  V30 1395 O 142.075 0.233263 1.76969 0
M  V30 1396 C 139.175 0.540111 3.34568 0
M  V30 1397 C 138.348 1.64697 4.05208 0
M  V30 1398 C 137.407 1.15374 5.13396 0
M  V30 1399 O 136.433 1.85013 5.38293 0
M  V30 1400 N 137.635 0.00031529 5.805 0
M  V30 1401 H 140.4 1.9808 2.2491 0
M  V30 1402 H 137.961 1.17491 1.11389 0
M  V30 1403 H 139.953 0.194401 4.04233 0
M  V30 1404 H 138.523 -0.315021 3.11009 0
M  V30 1405 H 137.743 2.16379 3.29506 0
M  V30 1406 H 139.031 2.3903 4.49157 0
M  V30 1407 H 138.429 -0.581336 5.62705 0
M  V30 1408 H 136.986 -0.286346 6.51171 0
M  V30 1409 N 140.419 -1.14872 1.07899 0
M  V30 1410 C 141.668 -1.85135 0.800499 0
M  V30 1411 C 141.981 -1.83547 -0.676014 0
M  V30 1412 O 143.187 -2.49548 -1.06948 0
M  V30 1413 C 141.643 -3.3231 1.38197 0
M  V30 1414 C 141.251 -3.42329 2.8899 0
M  V30 1415 C 142.995 -4.0772 1.18174 0
M  V30 1416 C 140.902 -4.83684 3.403 0
M  V30 1417 H 139.832 -0.693563 0.29578 0
M  V30 1418 H 142.483 -1.29532 1.29976 0
M  V30 1419 H 140.865 -3.87618 0.810431 0
M  V30 1420 H 142.039 -2.97097 3.52236 0
M  V30 1421 H 140.354 -2.80369 3.07867 0
M  V30 1422 H 142.951 -5.12049 1.5398 0
M  V30 1423 H 143.294 -4.16124 0.12117 0
M  V30 1424 H 143.827 -3.58696 1.71994 0
M  V30 1425 H 140.566 -4.80465 4.45907 0
M  V30 1426 H 140.086 -5.29474 2.81811 0
M  V30 1427 H 141.765 -5.52558 3.36584 0
M  V30 1428 N 141.898 -0.863906 -1.31812 0
M  V30 1429 C 142.83 -0.272485 -2.27575 0
M  V30 1430 C 143.843 0.56104 -1.52827 0
M  V30 1431 O 145.032 0.384021 -1.7432 0
M  V30 1432 C 142.132 0.63283 -3.32939 0
M  V30 1433 C 141.305 -0.166902 -4.37081 0
M  V30 1434 C 140.364 0.665608 -5.21973 0
M  V30 1435 O 139.39 0.0958091 -5.69119 0
M  V30 1436 N 140.592 1.9787 -5.45736 0
M  V30 1437 H 143.357 -1.0954 -2.78964 0
M  V30 1438 H 140.918 -0.724791 -1.4477 0
M  V30 1439 H 142.91 1.19532 -3.86645 0
M  V30 1440 H 141.48 1.35642 -2.81638 0
M  V30 1441 H 140.7 -0.910838 -3.83533 0
M  V30 1442 H 141.988 -0.715874 -5.03739 0
M  V30 1443 H 141.386 2.46484 -5.09178 0
M  V30 1444 H 139.943 2.48911 -6.024 0
M  V30 1445 N 143.376 1.44774 -0.622745 0
M  V30 1446 C 144.792 1.56986 -0.287652 0
M  V30 1447 C 144.992 1.61167 1.20944 0
M  V30 1448 O 144.048 1.55015 1.99315 0
M  V30 1449 C 145.361 2.84551 -0.972188 0
M  V30 1450 C 146.909 2.9825 -0.949536 0
M  V30 1451 C 147.384 4.28605 -1.61437 0
M  V30 1452 N 148.875 4.35399 -1.58057 0
M  V30 1453 C 149.61 5.34964 -2.064 0
M  V30 1454 N 149.106 6.40981 -2.62897 0
M  V30 1455 N 150.899 5.26419 -1.97078 0
M  V30 1456 H 143.05 1.40304 -1.59463 0
M  V30 1457 H 145.313 0.671794 -0.668878 0
M  V30 1458 H 145.019 2.87417 -2.02693 0
M  V30 1459 H 144.893 3.73807 -0.504771 0
M  V30 1460 H 147.28 2.94941 0.0967067 0
M  V30 1461 H 147.361 2.10364 -1.45536 0
M  V30 1462 H 147.005 4.32672 -2.66002 0
M  V30 1463 H 146.935 5.15334 -1.08344 0
M  V30 1464 H 149.426 3.59397 -1.16801 0
M  V30 1465 H 149.739 7.13225 -2.97539 0
M  V30 1466 H 148.084 6.4169 -2.66943 0
M  V30 1467 H 151.275 4.42504 -1.52669 0
M  V30 1468 H 151.448 6.03861 -2.35066 0
M  V30 1469 N 144.854 0.36279 1.53368 0
M  V30 1470 C 145.787 -0.528507 2.21996 0
M  V30 1471 C 146.765 -1.0852 1.21087 0
M  V30 1472 O 147.949 -1.14186 1.4998 0
M  V30 1473 C 145.076 -1.72893 2.91249 0
M  V30 1474 C 144.122 -1.29994 4.06207 0
M  V30 1475 S 144.955 -0.303575 5.34639 0
M  V30 1476 C 146.111 -1.51039 6.07403 0
M  V30 1477 H 146.344 0.0543423 2.9725 0
M  V30 1478 H 143.877 0.146889 1.537 0
M  V30 1479 H 145.835 -2.41751 3.31763 0
M  V30 1480 H 144.496 -2.28303 2.15724 0
M  V30 1481 H 143.689 -2.19549 4.53667 0
M  V30 1482 H 143.291 -0.690608 3.67569 0
M  V30 1483 H 145.583 -2.44186 6.31965 0
M  V30 1484 H 146.526 -1.07721 6.99858 0
M  V30 1485 H 146.934 -1.71518 5.37812 0
M  V30 1486 N 146.332 -1.57332 0.0918853 0
M  V30 1487 C 147.28 -2.15075 -0.885747 0
M  V30 1488 C 148.274 -1.09277 -1.29441 0
M  V30 1489 O 149.48 -1.27627 -1.26931 0
M  V30 1490 H 145.855 -0.687966 -0.303656 0
M  V30 1491 H 147.826 -2.96047 -0.373995 0
M  V30 1492 C 146.575 -2.74325 -2.13638 0
M  V30 1493 H 145.898 -3.55418 -1.8308 0
M  V30 1494 H 147.338 -3.183 -2.80109 0
M  V30 1495 C 145.797 -1.70062 -2.90827 0
M  V30 1496 O 146.327 -1.13763 -3.85254 0
M  V30 1497 N 144.533 -1.40628 -2.54307 0
M  V30 1498 H 144.08 -1.866 -1.7759 0
M  V30 1499 H 144.038 -0.711043 -3.06254 0
M  V30 1500 N 147.81 0.181792 -1.56548 0
M  V30 1501 C 149.221 0.745244 -1.71181 0
M  V30 1502 C 149.572 1.83262 -0.70068 0
M  V30 1503 O 148.697 2.15946 0.140154 0
M  V30 1504 C 149.292 1.35859 -3.10367 0
M  V30 1505 C 147.851 1.86898 -3.2672 0
M  V30 1506 C 146.998 0.743942 -2.67134 0
M  V30 1507 H 149.949 -0.0434661 -1.5864 0
M  V30 1508 H 149.97 2.22817 -3.08436 0
M  V30 1509 H 149.482 0.566948 -3.83937 0
M  V30 1510 H 147.583 2.68738 -2.5809 0
M  V30 1511 H 147.696 2.02162 -4.34359 0
M  V30 1512 H 146.06 1.16169 -2.26665 0
M  V30 1513 H 146.843 -0.035676 -3.43281 0
M  V30 1514 N 149.288 1.51039 0.449983 0
M  V30 1515 C 150.699 1.557 1.03026 0
M  V30 1516 C 151.05 0.372939 1.92623 0
M  V30 1517 O 150.175 -0.511771 2.10261 0
M  V30 1518 C 150.77 2.82171 1.87523 0
M  V30 1519 C 149.329 2.89444 2.40622 0
M  V30 1520 C 148.476 2.50228 1.19504 0
M  V30 1521 H 151.427 1.56999 0.231745 0
M  V30 1522 H 151.448 2.65219 2.72835 0
M  V30 1523 H 150.96 3.68331 1.22286 0
M  V30 1524 H 149.061 2.07685 3.0935 0
M  V30 1525 H 149.174 3.92816 2.74285 0
M  V30 1526 H 147.538 2.03139 1.53644 0
M  V30 1527 H 148.321 3.38719 0.558972 0
M  V30 1528 N 150.766 -0.704594 1.40972 0
M  V30 1529 C 151.713 -1.81862 1.42109 0
M  V30 1530 C 152.683 -1.63781 0.276593 0
M  V30 1531 O 153.868 -1.84759 0.4763 0
M  V30 1532 C 151.008 -3.19669 1.30022 0
M  V30 1533 C 150.121 -3.49246 2.54267 0
M  V30 1534 C 149.256 -4.76618 2.3454 0
M  V30 1535 C 148.295 -4.99133 3.54306 0
M  V30 1536 N 147.432 -6.17726 3.33706 0
M  V30 1537 H 152.272 -1.80226 2.37324 0
M  V30 1538 H 149.809 -0.880238 1.17857 0
M  V30 1539 H 151.767 -3.99263 1.21018 0
M  V30 1540 H 150.397 -3.20506 0.384192 0
M  V30 1541 H 149.449 -2.64125 2.73756 0
M  V30 1542 H 150.761 -3.61788 3.43381 0
M  V30 1543 H 149.915 -5.64249 2.22952 0
M  V30 1544 H 148.654 -4.66305 1.42867 0
M  V30 1545 H 147.659 -4.09953 3.66359 0
M  V30 1546 H 148.884 -5.11311 4.4692 0
M  V30 1547 H 146.83 -6.08642 2.44725 0
M  V30 1548 H 146.747 -6.30995 4.16391 0
M  V30 1549 H 148.015 -7.08115 3.25873 0
M  V30 1550 N 152.244 -1.26651 -0.937939 0
M  V30 1551 C 153.491 -1.12387 -1.6845 0
M  V30 1552 C 153.819 0.332208 -1.91642 0
M  V30 1553 O 153.074 1.2602 -1.49725 0
M  V30 1554 C 153.373 -1.84168 -3.06295 0
M  V30 1555 C 153.039 -3.34056 -3.02849 0
M  V30 1556 C 151.701 -3.74942 -3.01616 0
M  V30 1557 C 154.053 -4.29741 -2.9491 0
M  V30 1558 C 151.381 -5.09894 -2.90215 0
M  V30 1559 C 153.733 -5.64738 -2.8505 0
M  V30 1560 C 152.397 -6.0493 -2.82162 0
M  V30 1561 H 151.667 -0.411252 -0.616403 0
M  V30 1562 H 154.314 -1.57134 -1.09459 0
M  V30 1563 H 152.619 -1.319 -3.6893 0
M  V30 1564 H 154.316 -1.70569 -3.62915 0
M  V30 1565 H 150.906 -3.01534 -3.0459 0
M  V30 1566 H 155.09 -3.99133 -2.94969 0
M  V30 1567 H 150.346 -5.40194 -2.86358 0
M  V30 1568 H 154.52 -6.38561 -2.77872 0
M  V30 1569 H 152.147 -7.09457 -2.73084 0
M  V30 1570 N 153.722 1.14298 -1.08507 0
M  V30 1571 C 154.947 1.8976 -0.837001 0
M  V30 1572 C 155.372 1.78097 0.605228 0
M  V30 1573 O 154.73 1.12188 1.4242 0
M  V30 1574 C 154.778 3.37685 -1.26495 0
M  V30 1575 O 153.882 4.10281 -0.417514 0
M  V30 1576 H 153.223 0.590365 -0.303917 0
M  V30 1577 H 155.753 1.44672 -1.44676 0
M  V30 1578 H 155.763 3.88501 -1.24625 0
M  V30 1579 H 154.438 3.45492 -2.31534 0
M  V30 1580 H 153.015 3.69536 -0.499722 0
M  V30 1581 N 155.201 0.870884 1.31352 0
M  V30 1582 C 156.148 0.325425 2.28494 0
M  V30 1583 C 157.118 -0.576615 1.5577 0
M  V30 1584 O 158.303 -0.508059 1.83911 0
M  V30 1585 C 155.443 -0.466283 3.41935 0
M  V30 1586 C 154.556 0.463378 4.29508 0
M  V30 1587 C 153.691 -0.342544 5.30094 0
M  V30 1588 C 152.73 0.583486 6.09313 0
M  V30 1589 N 151.867 -0.186244 7.01853 0
M  V30 1590 H 156.707 1.15901 2.74538 0
M  V30 1591 H 154.244 0.58294 1.35056 0
M  V30 1592 H 156.202 -0.941085 4.06447 0
M  V30 1593 H 154.832 -1.26456 2.97 0
M  V30 1594 H 153.884 1.05663 3.65431 0
M  V30 1595 H 155.196 1.1734 4.84802 0
M  V30 1596 H 154.35 -0.879816 6.00287 0
M  V30 1597 H 153.089 -1.08585 4.75458 0
M  V30 1598 H 152.094 1.13251 5.3801 0
M  V30 1599 H 153.319 1.32566 6.66035 0
M  V30 1600 H 151.265 -0.912348 6.49625 0
M  V30 1601 H 151.182 0.464422 7.54572 0
M  V30 1602 H 152.45 -0.704716 7.76308 0
M  V30 1603 N 156.679 -1.44442 0.630414 0
M  V30 1604 C 157.642 -2.29107 -0.0652523 0
M  V30 1605 C 158.642 -1.41002 -0.772995 0
M  V30 1606 O 159.832 -1.62881 -0.617692 0
M  V30 1607 C 156.964 -3.22564 -1.10296 0
M  V30 1608 H 158.157 -2.92103 0.679401 0
M  V30 1609 H 155.71 -1.51343 0.390517 0
M  V30 1610 H 156.445 -2.64416 -1.87762 0
M  V30 1611 H 156.23 -3.87491 -0.59941 0
M  V30 1612 H 157.72 -3.86167 -1.5895 0
M  V30 1613 N 158.157 -0.370918 -1.53173 0
M  V30 1614 C 159.067 0.480823 -2.2962 0
M  V30 1615 C 160.083 1.08789 -1.35798 0
M  V30 1616 O 161.259 1.09768 -1.68858 0
M  V30 1617 C 158.324 1.60227 -3.07454 0
M  V30 1618 C 157.385 1.0222 -4.16953 0
M  V30 1619 C 156.618 2.0902 -4.91066 0
M  V30 1620 O 156.841 3.30222 -4.65091 0
M  V30 1621 O 155.775 1.71778 -5.76867 0
M  V30 1622 H 159.601 -0.141421 -3.03371 0
M  V30 1623 H 157.186 -0.135146 -1.48787 0
M  V30 1624 H 159.068 2.25417 -3.56041 0
M  V30 1625 H 157.743 2.20982 -2.36535 0
M  V30 1626 H 156.65 0.334064 -3.72605 0
M  V30 1627 H 157.983 0.459131 -4.90054 0
M  V30 1628 N 159.635 1.57281 -0.100228 0
M  V30 1629 C 160.912 1.86014 0.604812 0
M  V30 1630 C 161.292 0.998025 1.86018 0
M  V30 1631 O 160.64 0.0718184 2.28387 0
M  V30 1632 C 160.85 3.36784 0.915278 0
M  V30 1633 C 162.198 4.04957 1.27651 0
M  V30 1634 O 163.222 3.41695 1.00613 0
M  V30 1635 O 162.081 5.16593 1.7831 0
M  V30 1636 H 159.175 0.76942 0.303185 0
M  V30 1637 H 161.721 1.69176 -0.133313 0
M  V30 1638 H 160.493 3.91292 0.0248896 0
M  V30 1639 H 160.116 3.58987 1.70921 0
M  V30 1640 N 161.113 -0.173488 1.56642 0
M  V30 1641 C 162.046 -1.24353 1.91342 0
M  V30 1642 C 163.024 -1.4289 0.775965 0
M  V30 1643 O 164.208 -1.57932 1.02907 0
M  V30 1644 C 161.335 -2.60683 2.16245 0
M  V30 1645 C 160.381 -2.58894 3.38934 0
M  V30 1646 S 161.214 -2.0819 4.93373 0
M  V30 1647 C 162.37 -3.46302 5.21369 0
M  V30 1648 H 162.603 -0.947345 2.81803 0
M  V30 1649 H 160.136 -0.377958 1.49703 0
M  V30 1650 H 162.094 -3.39149 2.31275 0
M  V30 1651 H 160.755 -2.87502 1.26496 0
M  V30 1652 H 159.948 -3.59188 3.53553 0
M  V30 1653 H 159.55 -1.88522 3.2301 0
M  V30 1654 H 161.842 -4.42287 5.13214 0
M  V30 1655 H 162.785 -3.3656 6.23003 0
M  V30 1656 H 163.193 -3.42214 4.48943 0
M  V30 1657 N 162.591 -1.51276 -0.441967 0
M  V30 1658 C 163.554 -1.7167 -1.51862 0
M  V30 1659 C 164.554 -0.586793 -1.49711 0
M  V30 1660 O 165.744 -0.854276 -1.51815 0
M  V30 1661 C 162.876 -1.76889 -2.91416 0
M  V30 1662 H 164.069 -2.67754 -1.35084 0
M  V30 1663 H 161.622 -1.41196 -0.670333 0
M  V30 1664 H 162.357 -0.826026 -3.13604 0
M  V30 1665 H 162.142 -2.59001 -2.94382 0
M  V30 1666 H 163.632 -1.94522 -3.69528 0
M  V30 1667 N 164.069 0.697108 -1.41344 0
M  V30 1668 C 164.979 1.84088 -1.45427 0
M  V30 1669 C 165.995 1.70545 -0.34501 0
M  V30 1670 O 167.171 1.92488 -0.592492 0
M  V30 1671 C 164.236 3.20056 -1.33286 0
M  V30 1672 C 163.297 3.45718 -2.54514 0
M  V30 1673 C 162.53 4.75199 -2.42944 0
M  V30 1674 O 162.753 5.51579 -1.45318 0
M  V30 1675 O 161.687 5.0161 -3.32672 0
M  V30 1676 H 165.513 1.836 -2.41919 0
M  V30 1677 H 163.098 0.849966 -1.22866 0
M  V30 1678 H 164.98 4.01236 -1.28794 0
M  V30 1679 H 163.655 3.2123 -0.39909 0
M  V30 1680 H 162.562 2.64474 -2.64583 0
M  V30 1681 H 163.895 3.49356 -3.46715 0
M  V30 1682 N 165.547 1.27147 0.931209 0
M  V30 1683 C 166.477 1.12081 2.04842 0
M  V30 1684 C 167.458 0.0232364 1.70084 0
M  V30 1685 O 168.643 0.197085 1.93197 0
M  V30 1686 C 165.773 0.76354 3.38803 0
M  V30 1687 C 164.727 1.81396 3.87659 0
M  V30 1688 C 164.053 1.31075 5.18385 0
M  V30 1689 C 165.353 3.21739 4.11438 0
M  V30 1690 H 167.047 2.05537 2.17703 0
M  V30 1691 H 164.593 0.989603 1.04608 0
M  V30 1692 H 166.546 0.644982 4.16435 0
M  V30 1693 H 165.27 -0.206727 3.25945 0
M  V30 1694 H 163.929 1.92136 3.12217 0
M  V30 1695 H 163.577 0.330037 5.01916 0
M  V30 1696 H 163.277 2.013 5.52044 0
M  V30 1697 H 164.801 1.20506 5.98591 0
M  V30 1698 H 166.215 3.14019 4.79651 0
M  V30 1699 H 164.612 3.89644 4.56397 0
M  V30 1700 H 165.682 3.67054 3.16859 0
M  V30 1701 N 167.025 -1.13721 1.09112 0
M  V30 1702 C 168.253 -1.88773 0.846899 0
M  V30 1703 C 168.668 -1.7896 -0.601572 0
M  V30 1704 O 168.025 -1.15394 -1.41388 0
M  V30 1705 C 168.076 -3.3849 1.26913 0
M  V30 1706 O 167.797 -3.48043 2.66079 0
M  V30 1707 C 169.298 -4.30518 1.05682 0
M  V30 1708 H 166.518 -0.59772 0.304914 0
M  V30 1709 H 169.062 -1.43977 1.45227 0
M  V30 1710 H 167.217 -3.80881 0.707723 0
M  V30 1711 H 167.631 -4.4109 2.83795 0
M  V30 1712 H 169.105 -5.3391 1.40156 0
M  V30 1713 H 169.582 -4.392 -0.00563416 0
M  V30 1714 H 170.188 -3.93893 1.60402 0
M  V30 1715 N 168.503 -0.877838 -1.30888 0
M  V30 1716 C 169.743 -0.499301 -1.98208 0
M  V30 1717 C 170.107 0.932649 -1.67826 0
M  V30 1718 O 171.308 1.41694 -2.28421 0
M  V30 1719 C 169.579 -0.758221 -3.49265 0
M  V30 1720 S 171.138 -0.480719 -4.36159 0
M  V30 1721 H 167.956 -0.186062 -0.686223 0
M  V30 1722 H 170.558 -1.13556 -1.59139 0
M  V30 1723 H 169.262 -1.79903 -3.68867 0
M  V30 1724 H 168.793 -0.109247 -3.93248 0
M  V30 1725 H 170.808 0.683698 -4.91467 0
M  V30 1726 N 169.982 1.44106 -0.638065 0
M  V30 1727 C 170.912 2.33448 0.0494287 0
M  V30 1728 C 171.893 1.48606 0.827672 0
M  V30 1729 O 173.078 1.77308 0.792173 0
M  V30 1730 C 170.208 3.31771 1.02691 0
M  V30 1731 C 169.162 4.26485 0.359823 0
M  V30 1732 C 168.488 5.14729 1.44769 0
M  V30 1733 C 169.788 5.17056 -0.738296 0
M  V30 1734 H 171.482 2.91183 -0.696636 0
M  V30 1735 H 169.028 1.40014 -0.336456 0
M  V30 1736 H 170.981 3.93161 1.51666 0
M  V30 1737 H 169.705 2.7226 1.80395 0
M  V30 1738 H 168.364 3.66437 -0.10934 0
M  V30 1739 H 168.012 4.51566 2.21578 0
M  V30 1740 H 167.712 5.78913 1.00668 0
M  V30 1741 H 169.236 5.78991 1.93911 0
M  V30 1742 H 170.65 5.72342 -0.331354 0
M  V30 1743 H 169.047 5.89879 -1.10286 0
M  V30 1744 H 170.117 4.57652 -1.60258 0
M  V30 1745 N 171.46 0.379036 1.52974 0
M  V30 1746 C 172.408 -0.476033 2.27677 0
M  V30 1747 C 173.402 -1.0719 1.31174 0
M  V30 1748 O 174.608 -1.01355 1.48752 0
M  V30 1749 H 170.983 -0.172255 0.732006 0
M  V30 1750 H 172.954 0.175615 2.97883 0
M  V30 1751 C 171.703 -1.5967 3.0887 0
M  V30 1752 H 171.026 -1.1475 3.82978 0
M  V30 1753 H 172.466 -2.16943 3.64296 0
M  V30 1754 C 170.925 -2.54682 2.20542 0
M  V30 1755 O 171.455 -3.57836 1.82527 0
M  V30 1756 N 169.661 -2.24183 1.84907 0
M  V30 1757 H 169.208 -1.40333 2.1602 0
M  V30 1758 H 169.166 -2.88006 1.26096 0
M  V30 1759 N 172.938 -1.57226 0.108567 0
M  V30 1760 C 173.848 -2.18292 -0.859401 0
M  V30 1761 C 174.864 -1.15612 -1.30038 0
M  V30 1762 O 176.04 -1.48039 -1.36552 0
M  V30 1763 C 173.105 -2.762 -2.09558 0
M  V30 1764 C 172.166 -3.93881 -1.70752 0
M  V30 1765 C 171.399 -4.49018 -2.88477 0
M  V30 1766 O 171.622 -4.03068 -4.036 0
M  V30 1767 O 170.556 -5.39852 -2.66164 0
M  V30 1768 H 174.382 -3.01441 -0.369769 0
M  V30 1769 H 171.967 -1.48945 -0.1165 0
M  V30 1770 H 173.849 -3.13156 -2.81978 0
M  V30 1771 H 172.524 -1.96089 -2.57548 0
M  V30 1772 H 171.431 -3.61713 -0.954714 0
M  V30 1773 H 172.764 -4.75396 -1.27513 0
M  V30 1774 N 174.416 0.165178 -1.56732 0
M  V30 1775 C 175.379 1.18822 -1.95995 0
M  V30 1776 C 176.379 1.3685 -0.84431 0
M  V30 1777 O 177.569 1.34152 -1.11126 0
M  V30 1778 C 174.701 2.5521 -2.26011 0
M  V30 1779 H 175.894 0.851825 -2.87548 0
M  V30 1780 H 173.447 0.407857 -1.50885 0
M  V30 1781 H 174.182 2.93852 -1.37191 0
M  V30 1782 H 173.967 2.43489 -3.07336 0
M  V30 1783 H 175.457 3.28927 -2.57288 0
M  V30 1784 N 175.894 1.51508 0.433938 0
M  V30 1785 C 177.119 1.68443 1.21003 0
M  V30 1786 C 177.544 0.382636 1.84167 0
M  V30 1787 O 176.902 -0.65755 1.68956 0
M  V30 1788 C 176.95 2.80405 2.26727 0
M  V30 1789 O 176.054 2.44245 3.32292 0
M  V30 1790 H 175.395 0.561536 0.354363 0
M  V30 1791 H 177.925 1.9809 0.512024 0
M  V30 1792 H 177.935 3.0459 2.71457 0
M  V30 1793 H 176.61 3.74867 1.80132 0
M  V30 1794 H 175.187 2.30644 2.93015 0
M  V30 1795 N 177.372 -0.689602 1.41712 0
M  V30 1796 C 178.618 -1.45181 1.41599 0
M  V30 1797 C 178.951 -1.94181 0.0270081 0
M  V30 1798 O 178.226 -1.6993 -0.946265 0
M  V30 1799 C 178.509 -2.65945 2.42787 0
M  V30 1800 C 178.362 -2.22672 3.90816 0
M  V30 1801 C 179.681 -3.68149 2.41151 0
M  V30 1802 H 176.8 -0.526576 0.515642 0
M  V30 1803 H 179.442 -0.784947 1.73028 0
M  V30 1804 H 177.592 -3.2284 2.16116 0
M  V30 1805 H 179.264 -1.71058 4.28412 0
M  V30 1806 H 177.507 -1.54394 4.05395 0
M  V30 1807 H 178.178 -3.0935 4.57172 0
M  V30 1808 H 180.654 -3.2094 2.64834 0
M  V30 1809 H 179.53 -4.50248 3.13955 0
M  V30 1810 H 179.791 -4.18259 1.43221 0
M  V30 1811 N 178.85 -1.27639 -0.924453 0
M  V30 1812 C 179.78 -1.13166 -2.04244 0
M  V30 1813 C 180.761 -0.032256 -1.70069 0
M  V30 1814 O 181.946 -0.207328 -1.9309 0
M  V30 1815 C 179.076 -0.781496 -3.38393 0
M  V30 1816 C 178.03 -1.83449 -3.86692 0
M  V30 1817 C 177.356 -1.33822 -5.17683 0
M  V30 1818 C 178.656 -3.23917 -4.09726 0
M  V30 1819 H 180.35 -2.06689 -2.1661 0
M  V30 1820 H 177.896 -0.995136 -1.04082 0
M  V30 1821 H 179.849 -0.667057 -4.16087 0
M  V30 1822 H 178.573 0.189439 -3.2605 0
M  V30 1823 H 177.232 -1.93789 -3.11193 0
M  V30 1824 H 176.88 -0.35665 -5.01734 0
M  V30 1825 H 176.58 -2.04224 -5.50968 0
M  V30 1826 H 178.104 -1.23679 -5.97943 0
M  V30 1827 H 179.518 -3.16559 -4.77978 0
M  V30 1828 H 177.915 -3.92059 -4.54324 0
M  V30 1829 H 178.985 -3.68729 -3.14908 0
M  V30 1830 N 180.328 1.1314 -1.09713 0
M  V30 1831 C 181.278 2.16709 -0.708593 0
M  V30 1832 C 182.262 1.58471 0.278523 0
M  V30 1833 O 183.454 1.76779 0.088427 0
M  V30 1834 C 180.583 3.43039 -0.133923 0
M  V30 1835 C 179.669 4.08277 -1.14763 0
M  V30 1836 N 180.06 4.48637 -2.33577 0
M  V30 1837 C 178.358 4.34954 -0.986446 0
M  V30 1838 C 179.059 4.9952 -2.98085 0
M  V30 1839 N 178.035 4.94561 -2.25632 0
M  V30 1840 H 181.837 2.45672 -1.61315 0
M  V30 1841 H 179.351 1.29967 -0.973775 0
M  V30 1842 H 181.348 4.16583 0.162465 0
M  V30 1843 H 180.008 3.15549 0.765447 0
M  V30 1844 H 181.019 4.41246 -2.7115 0
M  V30 1845 H 177.696 4.17258 -0.142008 0
M  V30 1846 H 179.086 5.40521 -3.99108 0
M  V30 1847 N 181.806 0.884767 1.30421 0
M  V30 1848 C 182.754 0.340869 2.30089 0
M  V30 1849 C 183.748 -0.55201 1.60154 0
M  V30 1850 O 184.954 -0.436467 1.74628 0
M  V30 1851 H 181.329 0.0915739 0.746404 0
M  V30 1852 H 183.3 1.19513 2.73421 0
M  V30 1853 C 182.049 -0.429779 3.45034 0
M  V30 1854 H 181.372 0.248024 3.9903 0
M  V30 1855 H 182.812 -0.775445 4.16849 0
M  V30 1856 C 181.271 -1.62677 2.95022 0
M  V30 1857 O 181.801 -2.72614 2.95033 0
M  V30 1858 N 180.007 -1.46387 2.51036 0
M  V30 1859 H 179.554 -0.569506 2.51226 0
M  V30 1860 H 179.512 -2.26612 2.17932 0
M  V30 1861 N 183.284 -1.43765 0.645699 0
M  V30 1862 C 184.214 -2.33471 -0.0370477 0
M  V30 1863 C 185.195 -1.49042 -0.819779 0
M  V30 1864 O 186.38 -1.77726 -0.782758 0
M  V30 1865 C 183.51 -3.32311 -1.0093 0
M  V30 1866 C 182.464 -4.2667 -0.337201 0
M  V30 1867 C 181.79 -5.1549 -1.42037 0
M  V30 1868 C 183.09 -5.16657 0.765706 0
M  V30 1869 H 184.784 -2.90809 0.712069 0
M  V30 1870 H 182.33 -1.39834 0.343876 0
M  V30 1871 H 184.283 -3.9396 -1.49578 0
M  V30 1872 H 183.007 -2.73213 -1.78948 0
M  V30 1873 H 181.666 -3.66374 0.128771 0
M  V30 1874 H 181.314 -4.52735 -2.1918 0
M  V30 1875 H 181.014 -5.79438 -0.975966 0
M  V30 1876 H 182.538 -5.80012 -1.90838 0
M  V30 1877 H 183.952 -5.72158 0.361702 0
M  V30 1878 H 182.349 -5.89286 1.13413 0
M  V30 1879 H 183.419 -4.56796 1.62683 0
M  V30 1880 N 184.763 -0.387143 -1.52771 0
M  V30 1881 C 186.179 -0.037007 -1.59557 0
M  V30 1882 C 186.379 1.44801 -1.40124 0
M  V30 1883 O 185.435 2.21227 -1.21716 0
M  V30 1884 C 186.748 -0.512256 -2.96305 0
M  V30 1885 C 188.296 -0.468328 -3.09476 0
M  V30 1886 C 188.771 -0.919731 -4.4867 0
M  V30 1887 N 190.262 -0.875656 -4.54848 0
M  V30 1888 C 190.997 -1.19637 -5.6078 0
M  V30 1889 N 190.493 -1.58745 -6.74368 0
M  V30 1890 N 192.286 -1.11776 -5.50874 0
M  V30 1891 H 184.437 -1.35395 -1.63652 0
M  V30 1892 H 186.7 -0.554818 -0.768688 0
M  V30 1893 H 186.406 -1.54935 -3.15734 0
M  V30 1894 H 186.28 0.089805 -3.77093 0
M  V30 1895 H 188.667 0.559671 -2.89744 0
M  V30 1896 H 188.748 -1.10616 -2.30646 0
M  V30 1897 H 188.392 -1.94595 -4.69143 0
M  V30 1898 H 188.322 -0.258927 -5.25963 0
M  V30 1899 H 190.813 -0.587843 -3.733 0
M  V30 1900 H 191.126 -1.81586 -7.51163 0
M  V30 1901 H 189.471 -1.6263 -6.75705 0
M  V30 1902 H 192.662 -0.811264 -4.61016 0
M  V30 1903 H 192.835 -1.37103 -6.3333 0
M  V30 1904 N 186.241 1.57166 -0.116904 0
M  V30 1905 C 187.151 2.18745 0.847812 0
M  V30 1906 C 188.167 1.163 1.29423 0
M  V30 1907 O 189.343 1.48761 1.35765 0
M  V30 1908 C 186.408 2.77307 2.0809 0
M  V30 1909 C 185.469 3.94781 1.68661 0
M  V30 1910 C 184.702 4.50541 2.86091 0
M  V30 1911 O 184.925 4.05202 4.01456 0
M  V30 1912 O 183.859 5.41256 2.63298 0
M  V30 1913 H 187.685 3.01632 0.353778 0
M  V30 1914 H 185.27 1.49005 0.108599 0
M  V30 1915 H 187.152 3.14647 2.80313 0
M  V30 1916 H 185.827 1.97452 2.56504 0
M  V30 1917 H 184.734 3.62214 0.935518 0
M  V30 1918 H 186.067 4.76065 1.24991 0
M  V30 1919 N 187.719 -0.156864 1.56817 0
M  V30 1920 C 189.135 -0.50916 1.5126 0
M  V30 1921 C 189.335 -1.83897 0.823658 0
M  V30 1922 O 188.391 -2.49469 0.390055 0
M  V30 1923 C 189.704 -0.52857 2.96018 0
M  V30 1924 C 191.252 -0.614771 3.06903 0
M  V30 1925 C 191.727 -0.664938 4.53147 0
M  V30 1926 N 193.218 -0.727433 4.57452 0
M  V30 1927 C 193.953 -0.787067 5.67973 0
M  V30 1928 N 193.449 -0.806649 6.88088 0
M  V30 1929 N 195.242 -0.827195 5.5598 0
M  V30 1930 H 187.393 0.714935 2.00006 0
M  V30 1931 H 189.656 0.259526 0.911784 0
M  V30 1932 H 189.362 0.380154 3.49639 0
M  V30 1933 H 189.236 -1.36998 3.51442 0
M  V30 1934 H 191.623 -1.51392 2.53307 0
M  V30 1935 H 191.704 0.253597 2.5454 0
M  V30 1936 H 191.348 0.230011 5.07379 0
M  V30 1937 H 191.278 -1.54966 5.03282 0
M  V30 1938 H 193.769 -0.719998 3.70978 0
M  V30 1939 H 194.082 -0.853727 7.6807 0
M  V30 1940 H 192.427 -0.774687 6.90669 0
M  V30 1941 H 195.618 -0.808998 4.61056 0
M  V30 1942 H 195.791 -0.870206 6.4213 0
M  V30 1943 N 189.197 -1.51736 -0.425897 0
M  V30 1944 C 190.427 -1.68549 -1.19476 0
M  V30 1945 C 190.835 -0.387288 -1.85194 0
M  V30 1946 O 190.178 0.645142 -1.71999 0
M  V30 1947 C 190.24 -2.75275 -2.31223 0
M  V30 1948 C 189.904 -4.17534 -1.8578 0
M  V30 1949 C 190.901 -5.01936 -1.35485 0
M  V30 1950 C 188.586 -4.6369 -1.93123 0
M  V30 1951 C 190.58 -6.30559 -0.931347 0
M  V30 1952 C 188.267 -5.92307 -1.50384 0
M  V30 1953 C 189.265 -6.75569 -1.00473 0
M  V30 1954 O 188.953 -8.0178 -0.583452 0
M  V30 1955 H 188.685 -0.568525 -0.365725 0
M  V30 1956 H 191.239 -1.98982 -0.509444 0
M  V30 1957 H 189.469 -2.40182 -3.03067 0
M  V30 1958 H 191.158 -2.80853 -2.93047 0
M  V30 1959 H 191.924 -4.67475 -1.29197 0
M  V30 1960 H 187.803 -3.98997 -2.30916 0
M  V30 1961 H 191.347 -6.95498 -0.541084 0
M  V30 1962 H 187.244 -6.2628 -1.56346 0
M  V30 1963 H 188.012 -8.1543 -0.708275 0
M  V30 1964 N 190.675 0.682077 -1.42076 0
M  V30 1965 C 191.905 1.46844 -1.45329 0
M  V30 1966 C 192.313 1.89102 -0.0609328 0
M  V30 1967 O 191.656 1.58238 0.933082 0
M  V30 1968 C 191.718 2.75375 -2.31104 0
M  V30 1969 C 191.382 2.55238 -3.79081 0
M  V30 1970 C 192.379 2.20309 -4.70914 0
M  V30 1971 C 190.064 2.70459 -4.2327 0
M  V30 1972 C 192.058 2.00859 -6.04925 0
M  V30 1973 C 189.745 2.50624 -5.57343 0
M  V30 1974 C 190.743 2.15876 -6.47986 0
M  V30 1975 O 190.431 1.96227 -7.79583 0
M  V30 1976 H 190.163 0.4586 -0.496651 0
M  V30 1977 H 192.717 0.846131 -1.87162 0
M  V30 1978 H 190.947 3.40061 -1.84107 0
M  V30 1979 H 192.636 3.37231 -2.25898 0
M  V30 1980 H 193.402 2.08153 -4.38061 0
M  V30 1981 H 189.281 2.96485 -3.53012 0
M  V30 1982 H 192.825 1.7366 -6.75639 0
M  V30 1983 H 188.722 2.62375 -5.89771 0
M  V30 1984 H 189.49 2.10883 -7.90867 0
M  V30 1985 N 192.153 1.28127 0.917671 0
M  V30 1986 C 193.378 1.18007 1.70555 0
M  V30 1987 C 193.803 -0.258257 1.86319 0
M  V30 1988 O 193.161 -1.1869 1.37049 0
M  V30 1989 C 193.209 1.87948 3.07746 0
M  V30 1990 O 192.313 1.18427 3.9503 0
M  V30 1991 H 191.654 0.409867 0.522403 0
M  V30 1992 H 194.184 1.69379 1.1477 0
M  V30 1993 H 194.194 1.95701 3.58001 0
M  V30 1994 H 192.869 2.92573 2.95591 0
M  V30 1995 H 191.446 1.18811 3.53466 0
M  V30 1996 N 193.631 -1.12557 1.10312 0
M  V30 1997 C 194.879 -1.83675 0.843091 0
M  V30 1998 C 195.2 -1.84435 -0.633131 0
M  V30 1999 O 194.47 -1.30657 -1.45964 0
M  V30 2000 H 193.05 -0.680138 0.308904 0
M  V30 2001 H 195.712 -1.36301 1.39313 0
M  V30 2002 H 194.808 -2.87908 1.2048 0
M  V30 2003 N 195.109 -0.891671 -1.2995 0
M  V30 2004 C 196.039 -0.379797 -2.30391 0
M  V30 2005 C 197.02 0.540919 -1.6127 0
M  V30 2006 O 198.205 0.453352 -1.88834 0
M  V30 2007 C 195.335 0.400654 -3.44981 0
M  V30 2008 C 194.289 -0.428905 -4.25846 0
M  V30 2009 C 193.615 0.478557 -5.32554 0
M  V30 2010 C 194.915 -1.67458 -4.94727 0
M  V30 2011 H 196.609 -1.21914 -2.73454 0
M  V30 2012 H 194.155 -0.587675 -1.31462 0
M  V30 2013 H 196.108 0.769434 -4.14316 0
M  V30 2014 H 194.832 1.27371 -3.0074 0
M  V30 2015 H 193.491 -0.779911 -3.58208 0
M  V30 2016 H 193.139 1.34951 -4.84559 0
M  V30 2017 H 192.839 -0.0727433 -5.87555 0
M  V30 2018 H 194.363 0.843705 -6.04743 0
M  V30 2019 H 195.777 -1.376 -5.56542 0
M  V30 2020 H 194.174 -2.16659 -5.59624 0
M  V30 2021 H 195.244 -2.41518 -4.20473 0
M  V30 2022 N 196.587 1.43421 -0.653314 0
M  V30 2023 C 197.836 2.01032 -0.164076 0
M  V30 2024 C 198.149 1.52147 1.22926 0
M  V30 2025 O 199.355 2.02031 1.81371 0
M  V30 2026 C 197.811 3.59082 -0.24252 0
M  V30 2027 C 197.419 4.1696 -1.63855 0
M  V30 2028 C 199.163 4.24079 0.18911 0
M  V30 2029 C 197.07 5.67304 -1.67092 0
M  V30 2030 H 196 0.751798 -0.0575769 0
M  V30 2031 H 198.651 1.6439 -0.815362 0
M  V30 2032 H 197.033 3.93125 0.476276 0
M  V30 2033 H 198.207 3.94416 -2.38271 0
M  V30 2034 H 196.522 3.64335 -2.01616 0
M  V30 2035 H 199.119 5.34381 0.184775 0
M  V30 2036 H 199.462 3.98005 1.22056 0
M  V30 2037 H 199.995 3.94918 -0.477938 0
M  V30 2038 H 196.734 5.98145 -2.68146 0
M  V30 2039 H 196.254 5.91904 -0.970014 0
M  V30 2040 H 197.933 6.31344 -1.4147 0
M  V30 2041 N 198.065 0.39524 1.52563 0
M  V30 2042 C 199.295 -0.184675 2.05773 0
M  V30 2043 C 199.703 -1.40571 1.26635 0
M  V30 2044 O 199.046 -1.81105 0.30769 0
M  V30 2045 C 199.108 -0.613551 3.54226 0
M  V30 2046 C 198.772 0.49484 4.54313 0
M  V30 2047 C 199.769 1.3541 5.01956 0
M  V30 2048 C 197.454 0.663565 4.97898 0
M  V30 2049 C 199.448 2.36716 5.91814 0
M  V30 2050 C 197.135 1.67996 5.87555 0
M  V30 2051 C 198.133 2.53017 6.34406 0
M  V30 2052 O 197.821 3.52917 7.22291 0
M  V30 2053 H 197.553 -0.030077 0.675331 0
M  V30 2054 H 200.107 0.560708 1.97599 0
M  V30 2055 H 198.337 -1.411 3.60038 0
M  V30 2056 H 200.026 -1.11981 3.90148 0
M  V30 2057 H 200.792 1.23509 4.6901 0
M  V30 2058 H 196.671 0.0114913 4.60999 0
M  V30 2059 H 200.215 3.03113 6.28306 0
M  V30 2060 H 196.112 1.79933 6.19915 0
M  V30 2061 H 196.88 3.48996 7.40367 0
M  V30 2062 N 199.544 -1.57102 0.125237 0
M  V30 2063 C 200.772 -1.99761 -0.538797 0
M  V30 2064 C 201.187 -1.00503 -1.59827 0
M  V30 2065 O 200.544 0.00119474 -1.825 0
M  V30 2066 C 200.595 -3.42408 -1.15927 0
M  V30 2067 O 200.316 -4.37869 -0.142143 0
M  V30 2068 C 201.817 -4.00232 -1.90602 0
M  V30 2069 H 199.037 -0.655772 -0.14214 0
M  V30 2070 H 201.581 -2.03383 0.213413 0
M  V30 2071 H 199.736 -3.39706 -1.86223 0
M  V30 2072 H 200.15 -5.21128 -0.593775 0
M  V30 2073 H 201.624 -5.02105 -2.29335 0
M  V30 2074 H 202.101 -3.39721 -2.78363 0
M  V30 2075 H 202.707 -4.06499 -1.25055 0
M  V30 2076 N 201.022 0.148545 -1.56898 0
M  V30 2077 C 202.252 0.875118 -1.8715 0
M  V30 2078 C 202.66 1.75322 -0.711262 0
M  V30 2079 O 202.003 1.80745 0.328151 0
M  V30 2080 C 202.065 1.7844 -3.12089 0
M  V30 2081 C 201.729 1.08361 -4.43967 0
M  V30 2082 C 202.726 0.438247 -5.1805 0
M  V30 2083 C 200.411 1.07358 -4.90693 0
M  V30 2084 C 202.405 -0.20779 -6.37061 0
M  V30 2085 C 200.092 0.42373 -6.09629 0
M  V30 2086 C 201.09 -0.215829 -6.82659 0
M  V30 2087 O 200.778 -0.855378 -7.99336 0
M  V30 2088 H 200.51 0.258504 -0.624621 0
M  V30 2089 H 203.064 0.14652 -2.04877 0
M  V30 2090 H 201.294 2.55389 -2.90367 0
M  V30 2091 H 202.983 2.38279 -3.286 0
M  V30 2092 H 203.749 0.437817 -4.8302 0
M  V30 2093 H 199.628 1.5608 -4.33774 0
M  V30 2094 H 203.172 -0.70758 -6.94002 0
M  V30 2095 H 199.069 0.421822 -6.4412 0
M  V30 2096 H 199.837 -0.756892 -8.14993 0
M  V30 2097 N 202.5 1.5196 0.417844 0
M  V30 2098 C 203.725 1.69717 1.1921 0
M  V30 2099 C 204.15 0.402148 1.83751 0
M  V30 2100 O 203.508 -0.639593 1.69643 0
M  V30 2101 C 203.556 2.82794 2.2374 0
M  V30 2102 O 202.66 2.47756 3.29683 0
M  V30 2103 H 202.001 0.565263 0.348387 0
M  V30 2104 H 204.531 1.98621 0.490985 0
M  V30 2105 H 204.541 3.07452 2.68212 0
M  V30 2106 H 203.216 3.76756 1.76146 0
M  V30 2107 H 201.793 2.33739 2.90552 0
M  V30 2108 N 203.978 -0.674533 1.42435 0
M  V30 2109 C 205.226 -1.43175 1.42637 0
M  V30 2110 C 205.547 -1.94951 0.0438992 0
M  V30 2111 O 204.817 -1.7308 -0.917607 0
M  V30 2112 H 203.397 -0.531307 0.525092 0
M  V30 2113 H 206.059 -0.797006 1.77859 0
M  V30 2114 H 205.155 -2.28463 2.12629 0
M  V30 2115 N 205.456 -1.28612 -0.910864 0
M  V30 2116 C 206.386 -1.15326 -2.03032 0
M  V30 2117 C 207.367 -0.0502924 -1.70026 0
M  V30 2118 O 208.552 -0.227797 -1.92859 0
M  V30 2119 C 205.682 -0.817343 -3.37545 0
M  V30 2120 C 204.636 -1.8754 -3.84724 0
M  V30 2121 C 203.962 -1.39305 -5.16235 0
M  V30 2122 C 205.262 -3.28244 -4.06267 0
M  V30 2123 H 206.956 -2.08975 -2.14406 0
M  V30 2124 H 204.502 -1.00612 -1.03021 0
M  V30 2125 H 206.455 -0.711151 -4.15356 0
M  V30 2126 H 205.179 0.154846 -3.26233 0
M  V30 2127 H 203.838 -1.97079 -3.09121 0
M  V30 2128 H 203.486 -0.409846 -5.01328 0
M  V30 2129 H 203.186 -2.10057 -5.48771 0
M  V30 2130 H 204.71 -1.30014 -5.96598 0
M  V30 2131 H 206.124 -3.21611 -4.74594 0
M  V30 2132 H 204.521 -3.96855 -4.5014 0
M  V30 2133 H 205.591 -3.72048 -3.10979 0
M  V30 2134 N 206.934 1.1197 -1.10907 0
M  V30 2135 C 208.181 1.83588 -0.854507 0
M  V30 2136 C 208.509 1.84357 0.6199 0
M  V30 2137 O 207.764 1.28809 1.47332 0
M  V30 2138 C 208.063 3.30749 -1.35425 0
M  V30 2139 C 207.729 3.50146 -2.84093 0
M  V30 2140 C 206.391 3.55148 -3.2469 0
M  V30 2141 C 208.743 3.56857 -3.79872 0
M  V30 2142 C 206.071 3.6441 -4.59806 0
M  V30 2143 C 208.423 3.6765 -5.14797 0
M  V30 2144 C 207.087 3.7091 -5.54961 0
M  V30 2145 H 206.357 0.671795 -0.312686 0
M  V30 2146 H 209.004 1.32091 -1.38652 0
M  V30 2147 H 207.309 3.84703 -0.742361 0
M  V30 2148 H 209.006 3.8464 -1.1337 0
M  V30 2149 H 205.596 3.46919 -2.51685 0
M  V30 2150 H 209.78 3.52258 -3.49611 0
M  V30 2151 H 205.036 3.65208 -4.9034 0
M  V30 2152 H 209.21 3.71786 -5.88853 0
M  V30 2153 H 206.837 3.7784 -6.59652 0
M  V30 2154 N 208.412 0.89855 1.29475 0
M  V30 2155 C 209.652 0.530771 1.97388 0
M  V30 2156 C 210.016 -0.905832 1.69289 0
M  V30 2157 O 211.217 -1.38042 2.30646 0
M  V30 2158 C 209.488 0.81369 3.48014 0
M  V30 2159 S 211.047 0.550048 4.35339 0
M  V30 2160 H 207.865 0.196956 0.683176 0
M  V30 2161 H 210.467 1.16074 1.57312 0
M  V30 2162 H 209.171 1.85749 3.65958 0
M  V30 2163 H 208.702 0.171795 3.93025 0
M  V30 2164 H 210.717 -0.605423 4.92493 0
M  V30 2165 N 209.89 -1.43072 0.660911 0
M  V30 2166 C 211.136 -2.0202 0.177708 0
M  V30 2167 C 211.469 -1.52066 -1.20787 0
M  V30 2168 O 210.744 -0.716987 -1.80802 0
M  V30 2169 C 211.027 -3.59561 0.197019 0
M  V30 2170 C 210.88 -4.19727 1.61706 0
M  V30 2171 C 212.199 -4.37664 -0.462396 0
M  V30 2172 H 209.318 -0.734034 0.0660494 0
M  V30 2173 H 211.96 -1.70272 0.843058 0
M  V30 2174 H 210.11 -3.86739 -0.369527 0
M  V30 2175 H 211.782 -4.03553 2.23479 0
M  V30 2176 H 210.025 -3.76084 2.16201 0
M  V30 2177 H 210.696 -5.28834 1.58237 0
M  V30 2178 H 213.172 -4.16095 0.0197215 0
M  V30 2179 H 212.048 -5.47305 -0.418188 0
M  V30 2180 H 212.309 -4.14493 -1.53778 0
M  V30 2181 N 211.368 -0.403325 -1.52352 0
M  V30 2182 C 212.614 0.174605 -2.02047 0
M  V30 2183 C 212.947 1.45282 -1.28867 0
M  V30 2184 O 212.222 1.90483 -0.393257 0
M  V30 2185 C 212.505 0.428238 -3.57545 0
M  V30 2186 C 212.358 -0.866248 -4.4138 0
M  V30 2187 C 213.677 1.21287 -4.23057 0
M  V30 2188 H 210.796 0.0619851 -0.734389 0
M  V30 2189 H 213.438 -0.53565 -1.82293 0
M  V30 2190 H 211.588 1.03327 -3.74507 0
M  V30 2191 H 213.26 -1.50265 -4.3614 0
M  V30 2192 H 211.503 -1.47851 -4.07827 0
M  V30 2193 H 212.174 -0.643249 -5.48239 0
M  V30 2194 H 214.65 0.700703 -4.10158 0
M  V30 2195 H 213.526 1.35909 -5.31808 0
M  V30 2196 H 213.787 2.23193 -3.81625 0
M  V30 2197 N 212.846 1.57033 -0.133567 0
M  V30 2198 C 214.095 1.94861 0.520768 0
M  V30 2199 C 214.408 1.02012 1.66892 0
M  V30 2200 O 215.614 1.29365 2.38699 0
M  V30 2201 C 214.07 3.46362 0.977809 0
M  V30 2202 C 213.678 4.47773 -0.142674 0
M  V30 2203 C 215.422 3.93083 1.60269 0
M  V30 2204 C 213.329 5.90468 0.331883 0
M  V30 2205 H 212.259 0.727453 0.198315 0
M  V30 2206 H 214.91 1.82227 -0.215759 0
M  V30 2207 H 213.292 3.54282 1.7692 0
M  V30 2208 H 214.466 4.51536 -0.919317 0
M  V30 2209 H 212.781 4.10891 -0.675124 0
M  V30 2210 H 215.378 4.97121 1.96914 0
M  V30 2211 H 215.721 3.33876 2.48662 0
M  V30 2212 H 216.254 3.88025 0.876453 0
M  V30 2213 H 212.993 6.53463 -0.516341 0
M  V30 2214 H 212.513 5.90094 1.07469 0
M  V30 2215 H 214.192 6.42179 0.788332 0
M  V30 2216 N 214.325 -0.140222 1.56975 0
M  V30 2217 C 215.273 -1.19207 1.99731 0
M  V30 2218 C 216.267 -1.44089 0.890777 0
M  V30 2219 O 217.473 -1.44301 1.07597 0
M  V30 2220 H 213.848 -0.40142 0.635898 0
M  V30 2221 H 215.819 -0.804813 2.87342 0
M  V30 2222 C 214.568 -2.51617 2.39967 0
M  V30 2223 H 213.891 -2.33303 3.24669 0
M  V30 2224 H 215.331 -3.23827 2.73701 0
M  V30 2225 C 213.79 -3.12654 1.25496 0
M  V30 2226 O 214.32 -3.97786 0.559371 0
M  V30 2227 N 212.526 -2.72206 1.01746 0
M  V30 2228 H 212.073 -2.03074 1.58489 0
M  V30 2229 H 212.031 -3.13377 0.253461 0
M  V30 2230 N 215.803 -1.52179 -0.40978 0
M  V30 2231 C 217.214 -1.58377 -0.988615 0
M  V30 2232 C 217.565 -0.423879 -1.91566 0
M  V30 2233 O 216.69 0.455844 -2.11544 0
M  V30 2234 C 217.285 -2.87044 -1.79976 0
M  V30 2235 C 215.844 -2.95722 -2.32863 0
M  V30 2236 C 214.991 -2.53309 -1.12828 0
M  V30 2237 H 217.942 -1.57558 -0.190039 0
M  V30 2238 H 217.963 -2.7236 -2.65707 0
M  V30 2239 H 217.475 -3.71444 -1.12478 0
M  V30 2240 H 215.576 -2.15814 -3.03735 0
M  V30 2241 H 215.689 -3.99951 -2.63773 0
M  V30 2242 H 214.053 -2.07142 -1.48204 0
M  V30 2243 H 214.836 -3.40082 -0.46897 0
M  V30 2244 N 217.281 0.66697 -1.42791 0
M  V30 2245 C 218.511 1.45294 -1.46878 0
M  V30 2246 C 218.919 1.89027 -0.0809861 0
M  V30 2247 O 218.262 1.59219 0.916246 0
M  V30 2248 C 218.324 2.72908 -2.34012 0
M  V30 2249 C 217.988 2.51203 -3.81767 0
M  V30 2250 C 218.985 2.15302 -4.73224 0
M  V30 2251 C 216.67 2.65954 -4.26115 0
M  V30 2252 C 218.664 1.94431 -6.07022 0
M  V30 2253 C 216.351 2.44699 -5.59969 0
M  V30 2254 C 217.349 2.08992 -6.5024 0
M  V30 2255 O 217.037 1.87948 -7.81621 0
M  V30 2256 H 216.769 0.453306 -0.501487 0
M  V30 2257 H 219.323 0.826232 -1.88049 0
M  V30 2258 H 217.553 3.38089 -1.87703 0
M  V30 2259 H 219.242 3.34816 -2.29462 0
M  V30 2260 H 220.008 2.03495 -4.40244 0
M  V30 2261 H 215.887 2.92724 -3.56137 0
M  V30 2262 H 219.431 1.66484 -6.77443 0
M  V30 2263 H 215.328 2.56105 -5.9252 0
M  V30 2264 H 216.096 2.02483 -7.93059 0
M  V30 2265 N 218.759 1.29093 0.90403 0
M  V30 2266 C 219.706 1.13853 2.00764 0
M  V30 2267 C 220.676 0.0330084 1.66067 0
M  V30 2268 O 221.861 0.199733 1.89752 0
M  V30 2269 C 219.001 0.816537 3.35301 0
M  V30 2270 C 218.114 2.00206 3.82807 0
M  V30 2271 C 217.249 1.61983 5.059 0
M  V30 2272 C 216.288 2.77143 5.45764 0
M  V30 2273 N 215.425 2.39346 6.60044 0
M  V30 2274 H 220.265 2.08276 2.13132 0
M  V30 2275 H 217.802 1.03648 1.04381 0
M  V30 2276 H 219.76 0.610557 4.12708 0
M  V30 2277 H 218.39 -0.090779 3.22672 0
M  V30 2278 H 217.442 2.31988 3.01473 0
M  V30 2279 H 218.754 2.86512 4.08304 0
M  V30 2280 H 217.908 1.37649 5.90879 0
M  V30 2281 H 216.647 0.728202 4.82233 0
M  V30 2282 H 215.652 3.02165 4.59322 0
M  V30 2283 H 216.877 3.66964 5.71414 0
M  V30 2284 H 214.823 1.52665 6.37989 0
M  V30 2285 H 214.74 3.19185 6.85315 0
M  V30 2286 H 216.008 2.1832 7.48303 0
M  V30 2287 N 220.237 -1.11381 1.11499 0
M  V30 2288 C 221.169 -2.17207 0.731704 0
M  V30 2289 C 222.182 -1.61066 -0.236957 0
M  V30 2290 O 223.371 -1.78489 -0.0197591 0
M  V30 2291 C 220.471 -3.38846 0.0607624 0
M  V30 2292 C 219.644 -4.24451 1.0564 0
M  V30 2293 C 218.703 -5.24562 0.4149 0
M  V30 2294 O 217.729 -5.59071 1.069 0
M  V30 2295 N 218.931 -5.74651 -0.821943 0
M  V30 2296 H 221.696 -2.50699 1.64225 0
M  V30 2297 H 219.257 -1.26908 1.00529 0
M  V30 2298 H 221.249 -4.02911 -0.380139 0
M  V30 2299 H 219.819 -3.03411 -0.752376 0
M  V30 2300 H 219.039 -3.56833 1.67524 0
M  V30 2301 H 220.327 -4.78486 1.72998 0
M  V30 2302 H 219.725 -5.48797 -1.37252 0
M  V30 2303 H 218.282 -6.40549 -1.20582 0
M  V30 2304 N 221.715 -0.905404 -1.28997 0
M  V30 2305 C 222.645 -0.404212 -2.29975 0
M  V30 2306 C 223.626 0.523784 -1.61835 0
M  V30 2307 O 224.811 0.433298 -1.89304 0
M  V30 2308 C 221.941 0.364042 -3.45387 0
M  V30 2309 C 220.895 -0.474048 -4.25367 0
M  V30 2310 C 220.221 0.422045 -5.33032 0
M  V30 2311 C 221.521 -1.72696 -4.92923 0
M  V30 2312 H 223.215 -1.24807 -2.72146 0
M  V30 2313 H 220.761 -0.601585 -1.30832 0
M  V30 2314 H 222.714 0.725447 -4.15109 0
M  V30 2315 H 221.438 1.24174 -3.02074 0
M  V30 2316 H 220.097 -0.81786 -3.57361 0
M  V30 2317 H 219.745 1.29804 -4.85963 0
M  V30 2318 H 219.445 -0.135057 -5.87445 0
M  V30 2319 H 220.969 0.779517 -6.05604 0
M  V30 2320 H 222.383 -1.43495 -5.55051 0
M  V30 2321 H 220.78 -2.22582 -5.57295 0
M  V30 2322 H 221.85 -2.45964 -4.17887 0
M  V30 2323 N 223.193 1.4272 -0.668489 0
M  V30 2324 C 224.604 1.84793 -0.266151 0
M  V30 2325 C 224.955 1.55959 1.19043 0
M  V30 2326 O 224.08 1.01622 1.91055 0
M  V30 2327 C 224.675 3.35436 -0.476271 0
M  V30 2328 C 223.234 3.76182 -0.128113 0
M  V30 2329 C 222.381 2.66344 -0.771777 0
M  V30 2330 H 225.332 1.32656 -0.871098 0
M  V30 2331 H 225.353 3.79515 0.273561 0
M  V30 2332 H 224.865 3.5639 -1.53647 0
M  V30 2333 H 222.966 3.60836 0.928891 0
M  V30 2334 H 223.079 4.75766 -0.564231 0
M  V30 2335 H 221.443 2.53885 -0.203652 0
M  V30 2336 H 222.226 2.90123 -1.83531 0
M  V30 2337 N 224.671 0.411399 1.52136 0
M  V30 2338 C 225.92 -0.165009 2.01024 0
M  V30 2339 C 226.233 -1.4603 1.30133 0
M  V30 2340 O 227.439 -2.1181 1.69849 0
M  V30 2341 C 225.895 -0.344618 3.58246 0
M  V30 2342 C 225.503 0.938716 4.38055 0
M  V30 2343 C 227.247 -0.876195 4.15359 0
M  V30 2344 C 225.154 0.726172 5.86925 0
M  V30 2345 H 224.084 -0.0654407 0.751155 0
M  V30 2346 H 226.735 0.537192 1.75461 0
M  V30 2347 H 225.117 -1.10921 3.80148 0
M  V30 2348 H 226.291 1.70963 4.27912 0
M  V30 2349 H 224.606 1.39688 3.92271 0
M  V30 2350 H 227.203 -1.05128 5.24263 0
M  V30 2351 H 227.546 -1.85152 3.7286 0
M  V30 2352 H 228.079 -0.170607 3.97434 0
M  V30 2353 H 224.818 1.67312 6.33788 0
M  V30 2354 H 224.338 -0.00540283 5.998 0
M  V30 2355 H 226.017 0.369231 6.45946 0
M  V30 2356 N 226.149 -1.5696 0.141893 0
M  V30 2357 C 227.379 -2.00031 -0.516828 0
M  V30 2358 C 227.787 -1.02091 -1.59293 0
M  V30 2359 O 227.13 -0.00909657 -1.83698 0
M  V30 2360 C 227.192 -3.39534 -1.1814 0
M  V30 2361 C 226.856 -4.56313 -0.250513 0
M  V30 2362 C 227.853 -5.17295 0.519839 0
M  V30 2363 C 225.538 -5.02061 -0.154907 0
M  V30 2364 C 227.532 -6.2243 1.3733 0
M  V30 2365 C 225.219 -6.07053 0.702161 0
M  V30 2366 C 226.217 -6.67106 1.46487 0
M  V30 2367 O 225.905 -7.70066 2.30767 0
M  V30 2368 H 225.637 -0.661451 -0.139493 0
M  V30 2369 H 228.191 -2.04086 0.231926 0
M  V30 2370 H 226.421 -3.32302 -1.97769 0
M  V30 2371 H 228.11 -3.66745 -1.73933 0
M  V30 2372 H 228.876 -4.82852 0.45598 0
M  V30 2373 H 224.755 -4.5505 -0.7383 0
M  V30 2374 H 228.299 -6.69233 1.96909 0
M  V30 2375 H 224.196 -6.40923 0.76733 0
M  V30 2376 H 224.964 -7.87264 2.23959 0
M  V30 2377 N 227.627 0.131896 -1.57047 0
M  V30 2378 C 228.855 0.856461 -1.88341 0
M  V30 2379 C 229.27 1.74042 -0.731757 0
M  V30 2380 O 228.627 1.80051 0.297945 0
M  V30 2381 C 228.678 1.70064 -3.18999 0
M  V30 2382 O 228.399 0.852278 -4.2973 0
M  V30 2383 C 229.9 2.53148 -3.63911 0
M  V30 2384 H 227.12 0.246885 -0.62393 0
M  V30 2385 H 229.664 0.120152 -2.04147 0
M  V30 2386 H 227.819 2.38984 -3.04902 0
M  V30 2387 H 228.233 1.43329 -5.04537 0
M  V30 2388 H 229.707 3.07931 -4.58129 0
M  V30 2389 H 230.184 3.29901 -2.89935 0
M  V30 2390 H 230.79 1.89492 -3.80753 0
M  V30 2391 N 229.106 1.52395 0.401703 0
M  V30 2392 C 230.016 1.7917 1.51444 0
M  V30 2393 C 231.032 0.677691 1.6026 0
M  V30 2394 O 232.208 0.963909 1.76835 0
M  V30 2395 C 229.273 1.94347 2.87107 0
M  V30 2396 C 228.334 3.18257 2.88116 0
M  V30 2397 C 227.567 3.32701 4.17308 0
M  V30 2398 O 227.79 2.52238 5.11598 0
M  V30 2399 O 226.724 4.25891 4.25324 0
M  V30 2400 H 230.55 2.73633 1.31752 0
M  V30 2401 H 228.135 1.3733 0.588296 0
M  V30 2402 H 230.017 2.06109 3.67555 0
M  V30 2403 H 228.692 1.03073 3.06851 0
M  V30 2404 H 227.599 3.11947 2.06494 0
M  V30 2405 H 228.932 4.09336 2.73322 0
M  V30 2406 N 230.584 -0.659388 1.43143 0
M  V30 2407 C 231.547 -1.75432 1.47501 0
M  V30 2408 C 232.547 -1.56707 0.360512 0
M  V30 2409 O 233.737 -1.62717 0.622002 0
M  V30 2410 C 230.869 -3.14239 1.32162 0
M  V30 2411 H 232.062 -1.7295 2.45006 0
M  V30 2412 H 229.615 -0.870469 1.29817 0
M  V30 2413 H 230.35 -3.22336 0.356401 0
M  V30 2414 H 230.135 -3.29235 2.12948 0
M  V30 2415 H 231.625 -3.94094 1.3813 0
M  V30 2416 N 232.062 -1.29571 -0.897171 0
M  V30 2417 C 233.311 -1.1706 -1.64256 0
M  V30 2418 C 233.624 0.276476 -1.93636 0
M  V30 2419 O 234.83 0.52294 -2.66416 0
M  V30 2420 C 233.286 -2.0475 -2.95982 0
M  V30 2421 C 232.894 -3.54295 -2.74187 0
M  V30 2422 C 234.638 -2.0097 -3.73914 0
M  V30 2423 C 232.545 -4.34081 -4.01656 0
M  V30 2424 H 231.475 -0.43452 -0.616205 0
M  V30 2425 H 234.126 -1.54229 -0.994268 0
M  V30 2426 H 232.508 -1.60452 -3.62038 0
M  V30 2427 H 233.682 -4.06662 -2.1671 0
M  V30 2428 H 231.997 -3.59773 -2.09648 0
M  V30 2429 H 234.594 -2.57838 -4.68427 0
M  V30 2430 H 234.937 -0.990273 -4.0435 0
M  V30 2431 H 235.47 -2.43325 -3.14703 0
M  V30 2432 H 232.209 -5.36671 -3.76384 0
M  V30 2433 H 231.729 -3.86483 -4.58684 0
M  V30 2434 H 233.408 -4.44877 -4.69781 0
M  V30 2435 N 233.54 1.10788 -1.12088 0
M  V30 2436 C 234.786 1.82942 -0.875226 0
M  V30 2437 C 235.119 1.84779 0.597538 0
M  V30 2438 O 234.394 1.30578 1.44152 0
M  V30 2439 C 234.677 3.29789 -1.44606 0
M  V30 2440 C 234.53 3.36307 -2.98693 0
M  V30 2441 C 235.849 4.26064 -1.10261 0
M  V30 2442 H 232.968 0.664195 -0.319397 0
M  V30 2443 H 235.61 1.29867 -1.38689 0
M  V30 2444 H 233.76 3.75118 -1.01089 0
M  V30 2445 H 235.432 2.99487 -3.50864 0
M  V30 2446 H 233.675 2.76318 -3.34411 0
M  V30 2447 H 234.346 4.39694 -3.33726 0
M  V30 2448 H 236.822 3.88951 -1.4784 0
M  V30 2449 H 235.698 5.27183 -1.52869 0
M  V30 2450 H 235.959 4.42098 -0.0142953 0
M  V30 2451 N 235.018 0.912232 1.28515 0
M  V30 2452 C 235.928 0.404506 2.31086 0
M  V30 2453 C 236.944 -0.50707 1.66448 0
M  V30 2454 O 238.12 -0.393624 1.97516 0
M  V30 2455 C 235.185 -0.348572 3.44943 0
M  V30 2456 C 234.246 0.59604 4.25142 0
M  V30 2457 C 233.479 -0.121194 5.33562 0
M  V30 2458 O 233.702 -1.34317 5.5436 0
M  V30 2459 O 232.636 0.542716 5.99448 0
M  V30 2460 H 236.462 1.25579 2.76521 0
M  V30 2461 H 234.047 0.676998 1.33181 0
M  V30 2462 H 235.929 -0.77395 4.14232 0
M  V30 2463 H 234.604 -1.17571 3.01594 0
M  V30 2464 H 233.511 1.07079 3.58448 0
M  V30 2465 H 234.844 1.38995 4.72167 0
M  V30 2466 N 236.496 -1.42363 0.676048 0
M  V30 2467 C 237.429 -2.28141 -0.0516916 0
M  V30 2468 C 238.407 -1.41135 -0.807439 0
M  V30 2469 O 239.591 -1.70573 -0.802305 0
M  V30 2470 C 236.718 -3.21007 -1.08039 0
M  V30 2471 C 235.764 -4.24426 -0.420076 0
M  V30 2472 S 236.597 -5.29134 0.823246 0
M  V30 2473 C 237.753 -6.25566 -0.204344 0
M  V30 2474 H 237.986 -2.89515 0.675884 0
M  V30 2475 H 235.519 -1.47211 0.465635 0
M  V30 2476 H 237.477 -3.75048 -1.66881 0
M  V30 2477 H 236.138 -2.58766 -1.78042 0
M  V30 2478 H 235.331 -4.89596 -1.19633 0
M  V30 2479 H 234.933 -3.7388 0.0947845 0
M  V30 2480 H 237.225 -6.69098 -1.06369 0
M  V30 2481 H 238.168 -7.06895 0.412915 0
M  V30 2482 H 238.576 -5.61811 -0.55038 0
M  V30 2483 N 237.974 -0.419461 -1.51915 0
M  V30 2484 C 239.204 0.151915 -2.06041 0
M  V30 2485 C 239.612 1.38539 -1.28855 0
M  V30 2486 O 238.955 1.80592 -0.336463 0
M  V30 2487 C 239.017 0.557119 -3.55157 0
M  V30 2488 C 238.681 -0.567054 -4.53468 0
M  V30 2489 C 239.678 -1.43379 -4.99738 0
M  V30 2490 C 237.363 -0.742693 -4.96779 0
M  V30 2491 C 239.357 -2.46102 -5.87973 0
M  V30 2492 C 237.044 -1.77322 -5.84808 0
M  V30 2493 C 238.042 -2.63078 -6.30301 0
M  V30 2494 O 237.73 -3.64364 -7.16585 0
M  V30 2495 H 237.462 0.0193293 -0.675724 0
M  V30 2496 H 240.016 -0.592073 -1.96682 0
M  V30 2497 H 238.246 1.35355 -3.62238 0
M  V30 2498 H 239.935 1.05759 -3.9188 0
M  V30 2499 H 240.701 -1.30954 -4.66986 0
M  V30 2500 H 236.58 -0.0848307 -4.60922 0
M  V30 2501 H 240.124 -3.13071 -6.23404 0
M  V30 2502 H 236.021 -1.89773 -6.16974 0
M  V30 2503 H 236.789 -3.60731 -7.34721 0
M  V30 2504 N 239.452 1.56882 -0.150215 0
M  V30 2505 C 240.868 1.58263 0.20617 0
M  V30 2506 C 241.068 1.16464 1.64434 0
M  V30 2507 O 240.124 0.866422 2.3717 0
M  V30 2508 C 241.437 3.00649 -0.0555025 0
M  V30 2509 C 242.985 3.12999 0.00795388 0
M  V30 2510 C 243.46 4.5744 -0.226429 0
M  V30 2511 N 244.951 4.62875 -0.173469 0
M  V30 2512 C 245.686 5.72454 -0.329288 0
M  V30 2513 N 245.182 6.90669 -0.543005 0
M  V30 2514 N 246.975 5.61467 -0.266666 0
M  V30 2515 H 239.126 1.82345 -1.08922 0
M  V30 2516 H 241.389 0.844149 -0.431413 0
M  V30 2517 H 241.095 3.3563 -1.05096 0
M  V30 2518 H 240.969 3.71337 0.66246 0
M  V30 2519 H 243.356 2.77857 0.993966 0
M  V30 2520 H 243.437 2.4479 -0.742388 0
M  V30 2521 H 243.081 4.93287 -1.20956 0
M  V30 2522 H 243.011 5.2378 0.544274 0
M  V30 2523 H 245.502 3.77898 -0.0130709 0
M  V30 2524 H 245.815 7.70045 -0.651922 0
M  V30 2525 H 244.16 6.92581 -0.579366 0
M  V30 2526 H 247.351 4.67992 -0.100441 0
M  V30 2527 H 247.524 6.46816 -0.391535 0
M  V30 2528 N 240.93 -0.123565 1.57115 0
M  V30 2529 C 242.178 -0.83051 1.84247 0
M  V30 2530 C 242.499 -1.80629 0.73471 0
M  V30 2531 O 241.769 -1.94403 -0.241688 0
M  V30 2532 H 240.349 -0.309694 0.679778 0
M  V30 2533 H 243.011 -0.111976 1.94578 0
M  V30 2534 H 242.107 -1.37852 2.80006 0
M  V30 2535 N 242.408 -1.52605 -0.393616 0
M  V30 2536 C 243.355 -1.77055 -1.48054 0
M  V30 2537 C 244.325 -0.61358 -1.54352 0
M  V30 2538 O 245.51 -0.852806 -1.70681 0
M  V30 2539 C 242.65 -1.94108 -2.85335 0
M  V30 2540 C 241.763 -3.21792 -2.88226 0
M  V30 2541 C 240.898 -3.29188 -4.16904 0
M  V30 2542 C 239.937 -4.51013 -4.13828 0
M  V30 2543 N 239.074 -4.55716 -5.34105 0
M  V30 2544 H 243.914 -2.69815 -1.26506 0
M  V30 2545 H 241.451 -1.33683 -0.61379 0
M  V30 2546 H 243.409 -2.01979 -3.65049 0
M  V30 2547 H 242.039 -1.04713 -3.05344 0
M  V30 2548 H 241.091 -3.23015 -2.00911 0
M  V30 2549 H 242.403 -4.11557 -2.8182 0
M  V30 2550 H 241.557 -3.36216 -5.05018 0
M  V30 2551 H 240.296 -2.37389 -4.26026 0
M  V30 2552 H 239.301 -4.44115 -3.24102 0
M  V30 2553 H 240.526 -5.44123 -4.06333 0
M  V30 2554 H 238.472 -3.66807 -5.43865 0
M  V30 2555 H 238.389 -5.39346 -5.29756 0
M  V30 2556 H 239.657 -4.66993 -6.2413 0
M  V30 2557 N 243.887 0.651787 -1.4349 0
M  V30 2558 C 244.834 1.76462 -1.4876 0
M  V30 2559 C 245.804 1.62641 -0.337189 0
M  V30 2560 O 246.989 1.82864 -0.544544 0
M  V30 2561 C 244.129 3.14623 -1.41796 0
M  V30 2562 C 243.242 3.39568 -2.67053 0
M  V30 2563 C 242.377 4.67585 -2.52068 0
M  V30 2564 C 241.416 4.85639 -3.72587 0
M  V30 2565 N 240.553 6.04915 -3.56402 0
M  V30 2566 H 245.393 1.71293 -2.43849 0
M  V30 2567 H 242.93 0.835889 -1.21043 0
M  V30 2568 H 244.888 3.94496 -1.35753 0
M  V30 2569 H 243.518 3.18859 -0.50288 0
M  V30 2570 H 242.57 2.53783 -2.8337 0
M  V30 2571 H 243.882 3.48795 -3.56572 0
M  V30 2572 H 243.036 5.55586 -2.4374 0
M  V30 2573 H 241.775 4.60681 -1.60075 0
M  V30 2574 H 240.78 3.96073 -3.81321 0
M  V30 2575 H 242.005 4.94372 -4.65589 0
M  V30 2576 H 239.951 5.9914 -2.67146 0
M  V30 2577 H 239.868 6.15106 -4.39524 0
M  V30 2578 H 241.136 6.95533 -3.51929 0
M  V30 2579 N 245.365 1.30045 0.890287 0
M  V30 2580 C 246.781 1.08261 1.17268 0
M  V30 2581 C 246.981 -0.160063 2.00863 0
M  V30 2582 O 246.037 -0.855181 2.37577 0
M  V30 2583 C 247.35 2.34323 1.8845 0
M  V30 2584 C 248.898 2.39735 2.01237 0
M  V30 2585 C 249.373 3.65625 2.7583 0
M  V30 2586 N 250.864 3.66402 2.83379 0
M  V30 2587 C 251.599 4.60498 3.41657 0
M  V30 2588 N 251.095 5.64933 4.01026 0
M  V30 2589 N 252.888 4.48051 3.39421 0
M  V30 2590 H 245.039 2.09777 0.332762 0
M  V30 2591 H 247.302 0.92446 0.209948 0
M  V30 2592 H 247.008 3.2498 1.34465 0
M  V30 2593 H 246.882 2.4256 2.88867 0
M  V30 2594 H 249.269 1.4956 2.54393 0
M  V30 2595 H 249.35 2.35476 0.999232 0
M  V30 2596 H 248.994 4.56156 2.23347 0
M  V30 2597 H 248.924 3.67144 3.77509 0
M  V30 2598 H 251.415 2.90896 2.41222 0
M  V30 2599 H 251.728 6.32841 4.43545 0
M  V30 2600 H 250.073 5.68732 3.99461 0
M  V30 2601 H 253.264 3.65649 2.92264 0
M  V30 2602 H 253.437 5.21565 3.84544 0
M  V30 2603 N 246.843 -1.10192 1.12674 0
M  V30 2604 C 247.793 -2.14754 0.765801 0
M  V30 2605 C 248.777 -1.59154 -0.236409 0
M  V30 2606 O 249.969 -1.76951 -0.0415261 0
M  V30 2607 C 247.098 -3.42563 0.224827 0
M  V30 2608 C 246.184 -4.05091 1.25548 0
M  V30 2609 N 246.575 -4.42287 2.4539 0
M  V30 2610 C 244.873 -4.32186 1.10142 0
M  V30 2611 C 245.574 -4.91441 3.11224 0
M  V30 2612 N 244.55 -4.88405 2.38666 0
M  V30 2613 H 248.352 -2.41309 1.67772 0
M  V30 2614 H 245.866 -1.27339 1.00789 0
M  V30 2615 H 247.863 -4.16868 -0.0519578 0
M  V30 2616 H 246.523 -3.17467 -0.681515 0
M  V30 2617 H 247.534 -4.33902 2.82754 0
M  V30 2618 H 244.211 -4.16735 0.252587 0
M  V30 2619 H 245.601 -5.29749 4.13298 0
M  V30 2620 N 248.321 -0.919034 -1.28029 0
M  V30 2621 C 249.231 -0.416756 -2.30869 0
M  V30 2622 C 250.247 0.498235 -1.66714 0
M  V30 2623 O 251.423 0.383144 -1.97722 0
M  V30 2624 C 248.488 0.330274 -3.45123 0
M  V30 2625 C 247.549 -0.618578 -4.2482 0
M  V30 2626 C 246.782 0.0928959 -5.33619 0
M  V30 2627 O 247.005 1.31375 -5.55065 0
M  V30 2628 O 245.939 -0.574499 -5.99152 0
M  V30 2629 H 249.765 -1.27043 -2.75851 0
M  V30 2630 H 247.35 -0.684052 -1.3282 0
M  V30 2631 H 249.232 0.751972 -4.14636 0
M  V30 2632 H 247.907 1.1597 -3.02213 0
M  V30 2633 H 246.814 -1.08978 -3.57875 0
M  V30 2634 H 248.147 -1.41497 -4.71423 0
M  V30 2635 N 249.799 1.42003 -0.683588 0
M  V30 2636 C 251.045 2.01712 -0.209825 0
M  V30 2637 C 251.378 1.53968 1.18353 0
M  V30 2638 O 250.653 0.745661 1.79639 0
M  V30 2639 C 250.936 3.59202 -0.254197 0
M  V30 2640 C 250.789 4.17102 -1.68363 0
M  V30 2641 C 252.108 4.38344 0.392709 0
M  V30 2642 H 249.227 0.732891 -0.0777189 0
M  V30 2643 H 251.869 1.68909 -0.87004 0
M  V30 2644 H 250.019 3.87278 0.307954 0
M  V30 2645 H 251.691 3.99946 -2.29871 0
M  V30 2646 H 249.934 3.72597 -2.22157 0
M  V30 2647 H 250.605 5.26249 -1.6663 0
M  V30 2648 H 253.081 4.16011 -0.0859162 0
M  V30 2649 H 251.957 5.47901 0.331063 0
M  V30 2650 H 252.218 4.16887 1.47164 0
M  V30 2651 N 251.277 0.427512 1.51691 0
M  V30 2652 C 252.688 -0.0378867 1.86662 0
M  V30 2653 C 253.039 -1.42819 1.34525 0
M  V30 2654 O 252.164 -2.05037 0.692014 0
M  V30 2655 C 252.759 -0.0755266 3.38716 0
M  V30 2656 C 251.318 -0.485309 3.73258 0
M  V30 2657 C 250.465 0.328399 2.75349 0
M  V30 2658 H 253.416 0.64379 1.45055 0
M  V30 2659 H 253.437 -0.887056 3.70016 0
M  V30 2660 H 252.949 0.936487 3.76632 0
M  V30 2661 H 251.05 -1.50329 3.40928 0
M  V30 2662 H 251.163 -0.21693 4.78609 0
M  V30 2663 H 249.527 -0.211905 2.53817 0
M  V30 2664 H 250.31 1.3391 3.16106 0
M  V30 2665 N 252.755 -1.56801 0.158532 0
M  V30 2666 C 254.166 -1.83189 -0.360366 0
M  V30 2667 C 254.517 -1.07778 -1.63946 0
M  V30 2668 O 253.642 -0.326718 -2.13919 0
M  V30 2669 C 254.237 -3.32297 -0.660595 0
M  V30 2670 C 252.796 -3.59227 -1.12398 0
M  V30 2671 C 251.943 -2.76877 -0.153097 0
M  V30 2672 H 254.894 -1.54008 0.383031 0
M  V30 2673 H 254.915 -3.4908 -1.51405 0
M  V30 2674 H 254.427 -3.87156 0.270527 0
M  V30 2675 H 252.528 -3.09766 -2.07064 0
M  V30 2676 H 252.641 -4.67632 -1.04197 0
M  V30 2677 H 251.005 -2.46319 -0.647983 0
M  V30 2678 H 251.788 -3.34511 0.77182 0
M  V30 2679 N 254.233 0.115231 -1.57178 0
M  V30 2680 C 255.183 1.14707 -1.97044 0
M  V30 2681 C 256.167 1.36866 -0.845957 0
M  V30 2682 O 257.359 1.37895 -1.10968 0
M  V30 2683 C 254.488 2.47266 -2.38148 0
M  V30 2684 C 253.574 2.28566 -3.57237 0
M  V30 2685 N 253.965 1.79685 -4.72807 0
M  V30 2686 C 252.263 2.59208 -3.62943 0
M  V30 2687 C 252.964 1.74781 -5.54821 0
M  V30 2688 N 251.94 2.19264 -4.97417 0
M  V30 2689 H 255.742 0.761754 -2.83857 0
M  V30 2690 H 253.256 0.322928 -1.59157 0
M  V30 2691 H 255.253 3.219 -2.64927 0
M  V30 2692 H 253.913 2.86552 -1.52702 0
M  V30 2693 H 254.924 1.49177 -4.9595 0
M  V30 2694 H 251.601 3.02154 -2.88113 0
M  V30 2695 H 252.991 1.38212 -6.57531 0
M  V30 2696 N 255.711 1.52812 0.385517 0
M  V30 2697 C 256.957 1.68275 1.13188 0
M  V30 2698 C 257.29 0.423179 1.89533 0
M  V30 2699 O 256.565 -0.579113 1.85679 0
M  V30 2700 C 256.848 2.92001 2.1073 0
M  V30 2701 C 256.701 4.28067 1.38125 0
M  V30 2702 C 258.02 3.11283 3.11113 0
M  V30 2703 H 255.139 0.612352 0.410115 0
M  V30 2704 H 257.781 1.85415 0.414869 0
M  V30 2705 H 255.931 2.77519 2.71874 0
M  V30 2706 H 257.603 4.54324 0.799187 0
M  V30 2707 H 255.846 4.28388 0.683092 0
M  V30 2708 H 256.517 5.10733 2.09417 0
M  V30 2709 H 258.993 3.2482 2.6006 0
M  V30 2710 H 257.869 3.99325 3.76605 0
M  V30 2711 H 258.13 2.25656 3.80173 0
M  V30 2712 N 257.189 -0.644168 1.43834 0
M  V30 2713 C 258.419 -1.42939 1.49171 0
M  V30 2714 C 258.827 -1.88874 0.111048 0
M  V30 2715 O 258.17 -1.60656 -0.8908 0
M  V30 2716 C 258.232 -2.69151 2.38324 0
M  V30 2717 C 257.896 -2.45097 3.85715 0
M  V30 2718 C 258.893 -2.07747 4.76589 0
M  V30 2719 C 256.578 -2.59141 4.30292 0
M  V30 2720 C 258.572 -1.8475 6.10038 0
M  V30 2721 C 256.259 -2.35759 5.63792 0
M  V30 2722 C 257.257 -1.9862 6.53482 0
M  V30 2723 O 256.945 -1.75489 7.84512 0
M  V30 2724 H 256.677 -0.445271 0.508635 0
M  V30 2725 H 259.231 -0.79621 1.8934 0
M  V30 2726 H 257.461 -3.3506 1.93058 0
M  V30 2727 H 259.15 -3.31123 2.3476 0
M  V30 2728 H 259.916 -1.96465 4.43426 0
M  V30 2729 H 255.795 -2.87022 3.60749 0
M  V30 2730 H 259.339 -1.55686 6.80006 0
M  V30 2731 H 255.236 -2.46646 5.9652 0
M  V30 2732 H 256.004 -1.89841 7.9618 0
M  V30 2733 N 258.668 -1.30515 -0.883378 0
M  V30 2734 C 259.631 -1.1701 -1.97082 0
M  V30 2735 C 260.631 -0.10089 -1.60483 0
M  V30 2736 O 261.821 -0.349127 -1.70666 0
M  V30 2737 C 258.953 -0.793045 -3.31547 0
M  V30 2738 H 260.146 -2.13622 -2.10489 0
M  V30 2739 H 257.699 -1.13935 -1.06998 0
M  V30 2740 H 258.434 0.172499 -3.23841 0
M  V30 2741 H 258.219 -1.56576 -3.5948 0
M  V30 2742 H 259.709 -0.722073 -4.1131 0
M  V30 2743 N 260.146 1.09593 -1.13257 0
M  V30 2744 C 261.392 1.82003 -0.89458 0
M  V30 2745 C 261.725 1.85402 0.577906 0
M  V30 2746 O 261 1.32099 1.42759 0
M  V30 2747 C 261.283 3.28237 -1.48096 0
M  V30 2748 C 261.136 3.3312 -3.02244 0
M  V30 2749 C 262.455 4.24871 -1.14774 0
M  V30 2750 H 259.574 0.66077 -0.326424 0
M  V30 2751 H 262.216 1.28389 -1.40058 0
M  V30 2752 H 260.366 3.74024 -1.05062 0
M  V30 2753 H 262.038 2.95748 -3.54021 0
M  V30 2754 H 260.281 2.72756 -3.37323 0
M  V30 2755 H 260.952 4.3613 -3.38371 0
M  V30 2756 H 263.428 3.87361 -1.51957 0
M  V30 2757 H 262.304 5.25532 -1.58452 0
M  V30 2758 H 262.565 4.42058 -0.0611849 0
M  V30 2759 N 261.624 0.925811 1.2754 0
M  V30 2760 C 262.852 0.581509 1.9856 0
M  V30 2761 C 263.267 -0.840041 1.69082 0
M  V30 2762 O 262.624 -1.55805 0.950312 0
M  V30 2763 C 262.675 0.795589 3.52637 0
M  V30 2764 O 262.396 2.16121 3.81082 0
M  V30 2765 C 263.897 0.459744 4.4091 0
M  V30 2766 H 261.117 0.220538 0.633722 0
M  V30 2767 H 263.661 1.24232 1.6244 0
M  V30 2768 H 261.816 0.18161 3.86974 0
M  V30 2769 H 262.23 2.2098 4.75676 0
M  V30 2770 H 263.704 0.660244 5.48037 0
M  V30 2771 H 264.181 -0.604625 4.35018 0
M  V30 2772 H 264.787 1.05178 4.12089 0
M  V30 2773 N 263.102 -1.41638 0.69111 0
M  V30 2774 C 264.012 -2.34588 0.0233487 0
M  V30 2775 C 265.028 -1.55987 -0.770984 0
M  V30 2776 O 266.204 -1.88486 -0.709569 0
M  V30 2777 C 263.269 -3.34684 -0.904851 0
M  V30 2778 C 262.33 -4.29176 -0.103225 0
M  V30 2779 C 261.563 -5.2449 -0.987216 0
M  V30 2780 O 261.786 -5.2514 -2.22674 0
M  V30 2781 O 260.72 -6.00295 -0.439281 0
M  V30 2782 H 264.546 -2.93261 0.789416 0
M  V30 2783 H 262.131 -1.42417 0.45142 0
M  V30 2784 H 264.013 -3.96133 -1.43724 0
M  V30 2785 H 262.688 -2.78461 -1.65049 0
M  V30 2786 H 261.595 -3.71089 0.473655 0
M  V30 2787 H 262.928 -4.88484 0.60365 0
M  V30 2788 N 264.58 -0.43555 -1.51462 0
M  V30 2789 C 265.828 0.131254 -2.01673 0
M  V30 2790 C 266.149 1.43368 -1.32177 0
M  V30 2791 O 265.419 1.90524 -0.455769 0
M  V30 2792 H 263.999 0.0514954 -0.745223 0
M  V30 2793 H 266.661 -0.577847 -1.86137 0
M  V30 2794 H 265.757 0.308446 -3.10572 0
M  V30 2795 N 266.058 1.56714 -0.166846 0
M  V30 2796 C 267.021 2.16539 0.751232 0
M  V30 2797 C 268.021 1.11228 1.16125 0
M  V30 2798 O 269.211 1.36765 1.07894 0
M  V30 2799 C 266.343 2.74462 2.02196 0
M  V30 2800 H 267.536 2.99013 0.230499 0
M  V30 2801 H 265.089 1.56081 0.0826982 0
M  V30 2802 H 265.824 1.95709 2.58589 0
M  V30 2803 H 265.609 3.51527 1.73698 0
M  V30 2804 H 267.099 3.20489 2.67725 0
M  V30 2805 N 267.536 -0.106894 1.57237 0
M  V30 2806 C 268.766 -0.825191 1.89405 0
M  V30 2807 C 269.174 -1.73374 0.757496 0
M  V30 2808 O 268.517 -1.81552 -0.280115 0
M  V30 2809 C 268.579 -1.70102 3.1671 0
M  V30 2810 C 268.243 -0.965523 4.46684 0
M  V30 2811 C 269.24 -0.300741 5.19029 0
M  V30 2812 C 266.925 -0.943105 4.93367 0
M  V30 2813 C 268.919 0.376622 6.36286 0
M  V30 2814 C 266.606 -0.261949 6.10538 0
M  V30 2815 C 267.604 0.396748 6.81847 0
M  V30 2816 O 267.292 1.06701 7.96787 0
M  V30 2817 H 267.024 -0.241852 0.631255 0
M  V30 2818 H 269.578 -0.0921491 2.05193 0
M  V30 2819 H 267.808 -2.47601 2.97036 0
M  V30 2820 H 269.497 -2.29483 3.34802 0
M  V30 2821 H 270.263 -0.309599 4.84011 0
M  V30 2822 H 266.142 -1.44524 4.3776 0
M  V30 2823 H 269.686 0.891334 6.91882 0
M  V30 2824 H 265.583 -0.250896 6.45012 0
M  V30 2825 H 266.351 0.972707 8.127 0
M  V30 2826 N 269.014 -1.53014 -0.377408 0
M  V30 2827 C 270.43 -1.42523 -0.718281 0
M  V30 2828 C 270.63 -0.55487 -1.9371 0
M  V30 2829 O 269.686 -0.0327593 -2.52479 0
M  V30 2830 C 270.999 -2.85546 -0.942539 0
M  V30 2831 C 272.547 -2.95101 -1.04329 0
M  V30 2832 C 273.022 -4.3916 -1.3001 0
M  V30 2833 N 274.513 -4.42536 -1.36806 0
M  V30 2834 C 275.248 -5.51097 -1.58364 0
M  V30 2835 N 274.744 -6.69724 -1.77317 0
M  V30 2836 N 276.537 -5.38657 -1.60638 0
M  V30 2837 H 268.688 -2.08116 0.424426 0
M  V30 2838 H 270.951 -0.939352 0.127759 0
M  V30 2839 H 270.657 -3.51499 -0.118929 0
M  V30 2840 H 270.531 -3.28493 -1.85397 0
M  V30 2841 H 272.918 -2.29309 -1.85745 0
M  V30 2842 H 272.999 -2.55566 -0.109505 0
M  V30 2843 H 272.643 -5.05521 -0.490991 0
M  V30 2844 H 272.573 -4.76258 -2.24691 0
M  V30 2845 H 275.064 -3.57039 -1.23821 0
M  V30 2846 H 275.377 -7.48233 -1.93306 0
M  V30 2847 H 273.722 -6.72732 -1.74518 0
M  V30 2848 H 276.913 -4.44948 -1.45391 0
M  V30 2849 H 277.086 -6.2333 -1.77098 0
M  V30 2850 N 270.492 0.636531 -1.44174 0
M  V30 2851 C 271.717 1.42847 -1.50364 0
M  V30 2852 C 272.142 1.87665 -0.127867 0
M  V30 2853 O 271.5 1.58408 0.88185 0
M  V30 2854 C 271.548 2.62854 -2.4686 0
M  V30 2855 O 270.652 3.62501 -1.9664 0
M  V30 2856 H 269.993 0.427642 -0.507955 0
M  V30 2857 H 272.523 0.777422 -1.89255 0
M  V30 2858 H 272.533 3.10465 -2.64718 0
M  V30 2859 H 271.208 2.29578 -3.46795 0
M  V30 2860 H 269.785 3.21735 -1.88523 0
M  V30 2861 N 271.97 1.30982 0.876444 0
M  V30 2862 C 272.903 1.12414 1.98591 0
M  V30 2863 C 273.881 0.0294078 1.62573 0
M  V30 2864 O 275.065 0.184598 1.87594 0
M  V30 2865 C 272.192 0.716276 3.3104 0
M  V30 2866 C 271.238 1.81311 3.86042 0
M  V30 2867 S 272.071 3.41727 4.1229 0
M  V30 2868 C 273.227 3.02863 5.47745 0
M  V30 2869 H 273.46 2.06338 2.14037 0
M  V30 2870 H 270.993 1.15393 1.02586 0
M  V30 2871 H 272.951 0.487697 4.07593 0
M  V30 2872 H 271.612 -0.203749 3.13438 0
M  V30 2873 H 270.805 1.48021 4.81774 0
M  V30 2874 H 270.407 1.99641 3.16259 0
M  V30 2875 H 272.699 2.51353 6.29148 0
M  V30 2876 H 273.642 3.97533 5.8598 0
M  V30 2877 H 274.05 2.40487 5.10711 0
M  V30 2878 N 273.449 -1.08991 1.13837 0
M  V30 2879 C 274.379 -2.17771 0.842507 0
M  V30 2880 C 275.36 -1.6892 -0.20001 0
M  V30 2881 O 276.545 -1.94113 -0.0579731 0
M  V30 2882 C 273.675 -3.4589 0.312644 0
M  V30 2883 C 272.629 -4.08099 1.28992 0
M  V30 2884 C 271.955 -5.31098 0.619623 0
M  V30 2885 C 273.255 -4.50077 2.65005 0
M  V30 2886 H 274.949 -2.42777 1.75213 0
M  V30 2887 H 272.495 -1.16682 0.843875 0
M  V30 2888 H 274.448 -4.21297 0.0933043 0
M  V30 2889 H 273.172 -3.20419 -0.632382 0
M  V30 2890 H 271.831 -3.34717 1.49533 0
M  V30 2891 H 271.479 -5.0191 -0.33102 0
M  V30 2892 H 271.179 -5.73674 1.27167 0
M  V30 2893 H 272.703 -6.09224 0.409669 0
M  V30 2894 H 274.117 -5.16688 2.48407 0
M  V30 2895 H 272.514 -5.03553 3.26427 0
M  V30 2896 H 273.584 -3.62257 3.22332 0
M  V30 2897 N 274.927 -0.932562 -1.27047 0
M  V30 2898 C 275.859 -0.392734 -2.2581 0
M  V30 2899 C 276.872 0.479241 -1.55586 0
M  V30 2900 O 278.061 0.291078 -1.76111 0
M  V30 2901 C 275.161 0.455456 -3.35826 0
M  V30 2902 C 274.334 -0.398355 -4.35582 0
M  V30 2903 C 273.393 0.387985 -5.24768 0
M  V30 2904 O 272.419 -0.206003 -5.68827 0
M  V30 2905 N 273.621 1.68664 -5.55457 0
M  V30 2906 H 276.386 -1.24173 -2.72766 0
M  V30 2907 H 273.947 -0.800511 -1.40725 0
M  V30 2908 H 275.939 0.988692 -3.92437 0
M  V30 2909 H 274.509 1.20522 -2.88432 0
M  V30 2910 H 273.729 -1.11286 -3.78165 0
M  V30 2911 H 275.017 -0.981889 -4.99236 0
M  V30 2912 H 274.415 2.19147 -5.21528 0
M  V30 2913 H 272.972 2.1663 -6.14748 0
M  V30 2914 N 276.405 1.4127 -0.698611 0
M  V30 2915 C 277.682 1.94955 -0.158762 0
M  V30 2916 C 278.062 1.63781 1.33188 0
M  V30 2917 O 277.41 0.946423 2.07979 0
M  V30 2918 C 277.62 3.46044 -0.453309 0
M  V30 2919 C 278.968 4.22872 -0.382707 0
M  V30 2920 O 279.992 3.54076 -0.388396 0
M  V30 2921 O 278.851 5.45407 -0.345463 0
M  V30 2922 H 275.945 0.82683 -0.0167505 0
M  V30 2923 H 278.491 1.50971 -0.77498 0
M  V30 2924 H 277.263 3.62028 -1.48498 0
M  V30 2925 H 276.886 3.97128 0.19373 0
M  V30 2926 N 277.883 0.443576 1.51229 0
M  V30 2927 C 279.299 0.0962001 1.5931 0
M  V30 2928 C 279.499 -1.39501 1.45402 0
M  V30 2929 O 278.555 -2.16557 1.29843 0
M  V30 2930 C 279.868 0.621875 2.94199 0
M  V30 2931 C 281.416 0.582865 3.07525 0
M  V30 2932 C 281.891 1.08562 4.44948 0
M  V30 2933 N 283.382 1.04387 4.51284 0
M  V30 2934 C 284.117 1.40368 5.55954 0
M  V30 2935 N 283.613 1.83664 6.68011 0
M  V30 2936 N 285.406 1.32145 5.46346 0
M  V30 2937 H 277.557 1.41376 1.58514 0
M  V30 2938 H 279.82 0.582965 0.747567 0
M  V30 2939 H 279.526 1.66546 3.09767 0
M  V30 2940 H 279.4 0.0502125 3.77167 0
M  V30 2941 H 281.787 -0.451749 2.91622 0
M  V30 2942 H 281.868 1.191 2.26382 0
M  V30 2943 H 281.512 2.11873 4.61598 0
M  V30 2944 H 281.442 0.453956 5.2464 0
M  V30 2945 H 283.933 0.725986 3.70861 0
M  V30 2946 H 284.246 2.0934 7.43906 0
M  V30 2947 H 282.591 1.87596 6.69203 0
M  V30 2948 H 285.782 0.981808 4.57688 0
M  V30 2949 H 285.955 1.60514 6.27805 0
M  V30 2950 N 279.361 -1.56624 0.175154 0
M  V30 2951 C 280.271 -2.21741 -0.766042 0
M  V30 2952 C 281.287 -1.21023 -1.25018 0
M  V30 2953 O 282.463 -1.53697 -1.3015 0
M  V30 2954 C 279.528 -2.84839 -1.97655 0
M  V30 2955 C 278.589 -4.00769 -1.53892 0
M  V30 2956 C 277.822 -4.60849 -2.69173 0
M  V30 2957 O 278.045 -4.19823 -3.86141 0
M  V30 2958 O 276.979 -5.50655 -2.43028 0
M  V30 2959 H 280.805 -3.02738 -0.241585 0
M  V30 2960 H 278.39 -1.49305 -0.053222 0
M  V30 2961 H 280.272 -3.24834 -2.68442 0
M  V30 2962 H 278.947 -2.06836 -2.48999 0
M  V30 2963 H 277.854 -3.65436 -0.80044 0
M  V30 2964 H 279.187 -4.80376 -1.07236 0
M  V30 2965 N 280.839 0.0985539 -1.57292 0
M  V30 2966 C 282.116 0.834155 -1.76921 0
M  V30 2967 C 282.496 1.97101 -0.755928 0
M  V30 2968 O 281.844 2.27474 0.216245 0
M  V30 2969 C 282.054 1.33194 -3.22584 0
M  V30 2970 C 283.402 1.77611 -3.85668 0
M  V30 2971 O 284.426 1.42825 -3.26312 0
M  V30 2972 O 283.285 2.4192 -4.90038 0
M  V30 2973 H 280.379 0.397628 -0.725135 0
M  V30 2974 H 282.925 0.0807044 -1.69508 0
M  V30 2975 H 281.697 0.517248 -3.87866 0
M  V30 2976 H 281.32 2.1475 -3.34616 0
M  V30 2977 N 282.317 1.53212 0.369288 0
M  V30 2978 C 283.249 1.75668 1.47219 0
M  V30 2979 C 284.262 0.637387 1.49804 0
M  V30 2980 O 285.451 0.913561 1.5335 0
M  V30 2981 C 282.551 1.81818 2.85999 0
M  V30 2982 C 281.724 3.11409 3.07153 0
M  V30 2983 C 280.783 3.08849 4.26026 0
M  V30 2984 O 279.809 3.82659 4.2138 0
M  V30 2985 N 281.011 2.29409 5.33246 0
M  V30 2986 H 283.776 2.70832 1.28337 0
M  V30 2987 H 281.337 1.51944 0.55898 0
M  V30 2988 H 283.329 1.77588 3.63655 0
M  V30 2989 H 281.899 0.939544 2.98146 0
M  V30 2990 H 281.119 3.28971 2.1719 0
M  V30 2991 H 282.407 3.97059 3.18154 0
M  V30 2992 H 281.805 1.68946 5.39883 0
M  V30 2993 H 280.362 2.31001 6.09493 0
M  V30 2994 N 283.795 -0.628877 1.44509 0
M  V30 2995 C 285.02 -1.42048 1.5112 0
M  V30 2996 C 285.445 -1.87594 0.137818 0
M  V30 2997 O 284.803 -1.58873 -0.873437 0
M  V30 2998 C 284.851 -2.61541 2.48251 0
M  V30 2999 O 283.955 -3.61453 1.98559 0
M  V30 3000 H 283.296 -0.424942 0.510216 0
M  V30 3001 H 285.826 -0.767374 1.89664 0
M  V30 3002 H 285.836 -3.09057 2.66361 0
M  V30 3003 H 284.511 -2.27736 3.48007 0
M  V30 3004 H 283.088 -3.20731 1.90227 0
M  V30 3005 N 285.273 -1.31445 -0.869486 0
M  V30 3006 C 286.522 -1.20517 -1.61736 0
M  V30 3007 C 286.835 0.235341 -1.94179 0
M  V30 3008 O 288.041 0.466312 -2.67465 0
M  V30 3009 C 286.497 -2.10982 -2.91573 0
M  V30 3010 C 286.105 -3.60032 -2.66611 0
M  V30 3011 C 287.849 -2.08856 -3.69567 0
M  V30 3012 C 285.756 -4.42503 -3.92358 0
M  V30 3013 H 284.686 -0.447493 -0.606849 0
M  V30 3014 H 287.337 -1.56303 -0.96133 0
M  V30 3015 H 285.719 -1.68095 -3.58553 0
M  V30 3016 H 286.893 -4.11167 -2.08035 0
M  V30 3017 H 285.208 -3.64139 -2.0197 0
M  V30 3018 H 287.805 -2.67716 -4.62852 0
M  V30 3019 H 288.148 -1.07582 -4.02159 0
M  V30 3020 H 288.681 -2.49945 -3.09471 0
M  V30 3021 H 285.42 -5.44533 -3.64916 0
M  V30 3022 H 284.94 -3.96125 -4.50383 0
M  V30 3023 H 286.619 -4.54741 -4.60238 0
M  V30 3024 N 286.751 1.08385 -1.14413 0
M  V30 3025 C 287.681 2.17321 -0.854044 0
M  V30 3026 C 288.662 1.69024 0.191049 0
M  V30 3027 O 289.847 1.94141 0.0476779 0
M  V30 3028 C 286.977 3.45719 -0.330983 0
M  V30 3029 C 285.931 4.07409 -1.31155 0
M  V30 3030 C 285.257 5.30762 -0.64778 0
M  V30 3031 C 286.557 4.48665 -2.67388 0
M  V30 3032 H 288.251 2.41845 -1.76498 0
M  V30 3033 H 285.797 1.16233 -0.850051 0
M  V30 3034 H 287.75 4.21241 -0.115645 0
M  V30 3035 H 286.474 3.2075 0.615381 0
M  V30 3036 H 285.133 3.33919 -1.51306 0
M  V30 3037 H 284.781 5.02078 0.304398 0
M  V30 3038 H 284.481 5.72992 -1.30207 0
M  V30 3039 H 286.005 6.08998 -0.441972 0
M  V30 3040 H 287.419 5.15364 -2.51143 0
M  V30 3041 H 285.816 5.01814 -3.29093 0
M  V30 3042 H 286.886 3.60543 -3.24248 0
M  V30 3043 N 288.23 0.939286 1.26551 0
M  V30 3044 C 289.47 0.5933 1.956 0
M  V30 3045 C 289.834 -0.851515 1.72085 0
M  V30 3046 O 291.035 -1.30634 2.34921 0
M  V30 3047 C 289.306 0.923996 3.45249 0
M  V30 3048 S 290.865 0.688269 4.33369 0
M  V30 3049 H 287.683 0.218591 0.676564 0
M  V30 3050 H 290.285 1.2102 1.5354 0
M  V30 3051 H 288.989 1.97297 3.59864 0
M  V30 3052 H 288.52 0.296746 3.92279 0
M  V30 3053 H 290.535 -0.448434 4.9417 0
M  V30 3054 N 289.708 -1.40897 0.706093 0
M  V30 3055 C 290.936 -2.05373 0.250887 0
M  V30 3056 C 291.351 -1.53172 -1.10381 0
M  V30 3057 O 290.708 -0.684305 -1.69185 0
M  V30 3058 C 290.759 -3.6088 0.211571 0
M  V30 3059 O 290.48 -4.11153 1.51276 0
M  V30 3060 C 291.981 -4.42517 -0.263346 0
M  V30 3061 H 289.201 -0.66115 0.114552 0
M  V30 3062 H 291.745 -1.80479 0.961635 0
M  V30 3063 H 289.9 -3.84777 -0.450073 0
M  V30 3064 H 290.314 -5.05279 1.40689 0
M  V30 3065 H 291.788 -5.51479 -0.239718 0
M  V30 3066 H 292.265 -4.19396 -1.30397 0
M  V30 3067 H 292.871 -4.23708 0.367677 0
M  V30 3068 N 291.186 -0.45159 -1.50991 0
M  V30 3069 C 292.434 0.109857 -2.01801 0
M  V30 3070 C 292.755 1.41958 -1.3369 0
M  V30 3071 O 292.025 1.9003 -0.475951 0
M  V30 3072 H 290.605 0.0435884 -0.745727 0
M  V30 3073 H 293.267 -0.597557 -1.85514 0
M  V30 3074 H 292.363 0.275489 -3.10882 0
M  V30 3075 N 292.664 1.56529 -0.183458 0
M  V30 3076 C 293.574 2.22144 0.754272 0
M  V30 3077 C 294.59 1.21684 1.24374 0
M  V30 3078 O 295.766 1.54385 1.29333 0
M  V30 3079 C 292.831 2.85884 1.96141 0
M  V30 3080 C 291.892 4.01579 1.51765 0
M  V30 3081 C 291.125 4.6227 2.66725 0
M  V30 3082 O 291.348 4.21865 3.83909 0
M  V30 3083 O 290.282 5.51936 2.40104 0
M  V30 3084 H 294.108 3.02861 0.225527 0
M  V30 3085 H 291.693 1.49331 0.0453032 0
M  V30 3086 H 293.575 3.26253 2.66715 0
M  V30 3087 H 292.25 2.08154 2.47899 0
M  V30 3088 H 291.157 3.65856 0.781049 0
M  V30 3089 H 292.49 4.80938 1.04686 0
M  V30 3090 N 294.142 -0.090211 1.57342 0
M  V30 3091 C 295.367 -0.810082 1.90925 0
M  V30 3092 C 295.792 -1.71248 0.778187 0
M  V30 3093 O 295.15 -1.79278 -0.269991 0
M  V30 3094 C 295.198 -1.59529 3.23393 0
M  V30 3095 O 294.302 -2.70461 3.11327 0
M  V30 3096 H 293.643 -0.222231 0.625707 0
M  V30 3097 H 296.173 -0.0639716 2.045 0
M  V30 3098 H 296.183 -1.97847 3.5682 0
M  V30 3099 H 294.858 -0.933055 4.05299 0
M  V30 3100 H 293.435 -2.35135 2.89423 0
M  V30 3101 N 295.62 -1.53406 -0.361157 0
M  V30 3102 C 296.868 -1.69467 -1.10115 0
M  V30 3103 C 297.189 -0.451352 -1.89705 0
M  V30 3104 O 296.459 0.534636 -1.88463 0
M  V30 3105 H 295.039 -0.624749 -0.409508 0
M  V30 3106 H 297.701 -1.90609 -0.406699 0
M  V30 3107 H 296.797 -2.55774 -1.78847 0
M  V30 3108 N 297.098 0.621204 -1.44841 0
M  V30 3109 C 298.061 1.71459 -1.521 0
M  V30 3110 C 299.061 1.55696 -0.401933 0
M  V30 3111 O 300.251 1.61011 -0.664925 0
M  V30 3112 C 297.383 3.10624 -1.40447 0
M  V30 3113 H 298.576 1.66394 -2.49506 0
M  V30 3114 H 296.129 0.835745 -1.3208 0
M  V30 3115 H 296.864 3.21277 -0.441737 0
M  V30 3116 H 296.649 3.23473 -2.21602 0
M  V30 3117 H 298.139 3.90293 -1.4853 0
M  V30 3118 N 298.576 1.31904 0.862503 0
M  V30 3119 C 299.824 1.21776 1.61292 0
M  V30 3120 C 300.145 -0.222413 1.93727 0
M  V30 3121 O 299.415 -1.1451 1.58947 0
M  V30 3122 H 297.995 0.447717 0.597962 0
M  V30 3123 H 300.657 1.65326 1.03215 0
M  V30 3124 H 299.753 1.7948 2.5533 0
M  V30 3125 N 300.054 -1.07777 1.14986 0
M  V30 3126 C 301.001 -2.14867 0.842672 0
M  V30 3127 C 301.971 -1.6486 -0.202552 0
M  V30 3128 O 303.156 -1.90668 -0.0710568 0
M  V30 3129 C 300.296 -3.43486 0.333363 0
M  V30 3130 C 299.409 -4.07306 1.43965 0
M  V30 3131 C 298.544 -5.23744 0.886914 0
M  V30 3132 C 297.583 -5.79517 1.97043 0
M  V30 3133 N 296.72 -6.87291 1.4344 0
M  V30 3134 H 301.56 -2.40485 1.75986 0
M  V30 3135 H 299.097 -1.1801 0.878179 0
M  V30 3136 H 301.055 -4.17195 0.0198163 0
M  V30 3137 H 299.685 -3.18133 -0.546916 0
M  V30 3138 H 298.737 -3.31293 1.86946 0
M  V30 3139 H 300.049 -4.44771 2.25788 0
M  V30 3140 H 299.203 -6.04419 0.525651 0
M  V30 3141 H 297.942 -4.87685 0.0377957 0
M  V30 3142 H 296.947 -4.97491 2.34057 0
M  V30 3143 H 298.172 -6.17632 2.82325 0
M  V30 3144 H 296.118 -6.5318 0.607567 0
M  V30 3145 H 296.035 -7.23617 2.18895 0
M  V30 3146 H 297.303 -7.71682 1.10124 0
M  V30 3147 N 301.532 -0.945985 -1.26051 0
M  V30 3148 C 302.76 -0.613025 -1.9761 0
M  V30 3149 C 303.175 0.813035 -1.70397 0
M  V30 3150 O 302.532 1.54274 -0.974979 0
M  V30 3151 C 302.583 -0.85159 -3.51326 0
M  V30 3152 O 302.304 -2.22157 -3.77595 0
M  V30 3153 C 303.805 -0.529831 -4.40122 0
M  V30 3154 H 301.025 -0.230593 -0.630133 0
M  V30 3155 H 303.569 -1.268 -1.60443 0
M  V30 3156 H 301.724 -0.243151 -3.86636 0
M  V30 3157 H 302.138 -2.2852 -4.721 0
M  V30 3158 H 303.612 -0.747348 -5.46917 0
M  V30 3159 H 304.089 0.535341 -4.35925 0
M  V30 3160 H 304.695 -1.11721 -4.10364 0
M  V30 3161 N 303.011 1.40521 -0.713556 0
M  V30 3162 C 303.921 2.34522 -0.0606667 0
M  V30 3163 C 304.937 1.57193 0.74607 0
M  V30 3164 O 306.113 1.89591 0.679493 0
M  V30 3165 C 303.178 3.36081 0.851491 0
M  V30 3166 C 302.239 4.29286 0.0349339 0
M  V30 3167 C 301.472 5.25994 0.903649 0
M  V30 3168 O 301.695 5.28616 2.14292 0
M  V30 3169 O 300.629 6.00918 0.343723 0
M  V30 3170 H 304.455 2.91968 -0.835972 0
M  V30 3171 H 302.04 1.41681 -0.47402 0
M  V30 3172 H 303.922 3.98369 1.37404 0
M  V30 3173 H 302.597 2.81052 1.60598 0
M  V30 3174 H 301.504 3.70289 -0.532633 0
M  V30 3175 H 302.837 4.87462 -0.681287 0
M  V30 3176 N 304.489 0.459591 1.5075 0
M  V30 3177 C 305.437 -0.354678 2.2988 0
M  V30 3178 C 306.431 -1.00086 1.36672 0
M  V30 3179 O 307.637 -0.933277 1.53915 0
M  V30 3180 H 304.012 -0.13321 0.740107 0
M  V30 3181 H 305.983 0.333269 2.96533 0
M  V30 3182 C 304.732 -1.43073 3.169 0
M  V30 3183 H 304.055 -0.942882 3.88523 0
M  V30 3184 H 305.495 -1.97328 3.75284 0
M  V30 3185 C 303.954 -2.42633 2.33732 0
M  V30 3186 O 304.484 -3.47658 2.01238 0
M  V30 3187 N 302.69 -2.14066 1.9653 0
M  V30 3188 H 302.237 -1.28685 2.23155 0
M  V30 3189 H 302.195 -2.80917 1.41185 0
M  V30 3190 N 305.967 -1.56429 0.191757 0
M  V30 3191 C 307.195 -2.01867 -0.453586 0
M  V30 3192 C 307.61 -1.07191 -1.5542 0
M  V30 3193 O 306.967 -0.0762108 -1.82341 0
M  V30 3194 C 307.018 -3.47017 -1.013 0
M  V30 3195 O 306.739 -4.38078 0.0437005 0
M  V30 3196 C 308.24 -4.07956 -1.73456 0
M  V30 3197 H 305.46 -0.661211 -0.114199 0
M  V30 3198 H 308.004 -2.02295 0.299483 0
M  V30 3199 H 306.159 -3.47298 -1.71647 0
M  V30 3200 H 306.573 -5.23178 -0.372212 0
M  V30 3201 H 308.047 -5.1138 -2.07833 0
M  V30 3202 H 308.524 -3.51222 -2.63704 0
M  V30 3203 H 309.13 -4.11437 -1.07702 0
M  V30 3204 N 307.445 0.0818655 -1.57387 0
M  V30 3205 C 308.392 1.09834 -2.0299 0
M  V30 3206 C 309.362 1.39043 -0.908639 0
M  V30 3207 O 310.547 1.50282 -1.17559 0
M  V30 3208 C 307.687 2.40971 -2.47037 0
M  V30 3209 C 306.8 2.18379 -3.7274 0
M  V30 3210 C 305.935 3.43008 -4.0561 0
M  V30 3211 C 304.974 3.15736 -5.24383 0
M  V30 3212 N 304.111 4.32667 -5.52941 0
M  V30 3213 H 308.951 0.702472 -2.89602 0
M  V30 3214 H 306.488 0.33531 -1.43227 0
M  V30 3215 H 308.446 3.1752 -2.70623 0
M  V30 3216 H 307.076 2.78379 -1.63417 0
M  V30 3217 H 306.128 1.32569 -3.56552 0
M  V30 3218 H 307.44 1.94227 -4.59431 0
M  V30 3219 H 306.594 4.27958 -4.30043 0
M  V30 3220 H 305.333 3.70225 -3.17466 0
M  V30 3221 H 304.338 2.2918 -4.99757 0
M  V30 3222 H 305.563 2.8985 -6.14136 0
M  V30 3223 H 303.509 4.59935 -4.67756 0
M  V30 3224 H 303.426 4.11753 -6.34031 0
M  V30 3225 H 304.694 5.18644 -5.81918 0
M  V30 3226 N 308.923 1.53595 0.353017 0
M  V30 3227 C 309.87 1.80919 1.43308 0
M  V30 3228 C 310.84 0.654288 1.5267 0
M  V30 3229 O 312.025 0.897759 1.6836 0
M  V30 3230 C 309.165 2.01605 2.80089 0
M  V30 3231 C 308.278 3.29321 2.79593 0
M  V30 3232 C 307.413 3.40125 4.0803 0
M  V30 3233 C 306.452 4.61826 4.01725 0
M  V30 3234 N 305.589 4.69716 5.21834 0
M  V30 3235 H 310.429 2.73074 1.19308 0
M  V30 3236 H 307.966 1.35263 0.578131 0
M  V30 3237 H 309.924 2.11586 3.59565 0
M  V30 3238 H 308.554 1.12772 3.0246 0
M  V30 3239 H 307.606 3.28229 1.92276 0
M  V30 3240 H 308.918 4.18884 2.70809 0
M  V30 3241 H 308.072 3.49488 4.95927 0
M  V30 3242 H 306.811 2.48601 4.19582 0
M  V30 3243 H 305.816 4.52552 3.12213 0
M  V30 3244 H 307.041 5.54705 3.91764 0
M  V30 3245 H 304.987 3.81097 5.33948 0
M  V30 3246 H 304.904 5.53202 5.1527 0
M  V30 3247 H 306.172 4.83376 6.11529 0
M  V30 3248 N 310.401 -0.613514 1.45168 0
M  V30 3249 C 311.647 -1.37471 1.49096 0
M  V30 3250 C 311.98 -1.93765 0.129901 0
M  V30 3251 O 311.255 -1.74707 -0.854858 0
M  V30 3252 C 311.538 -2.52701 2.56542 0
M  V30 3253 C 311.391 -2.01643 4.0207 0
M  V30 3254 C 312.71 -3.54849 2.60327 0
M  V30 3255 H 309.829 -0.498502 0.54283 0
M  V30 3256 H 312.471 -0.692125 1.76945 0
M  V30 3257 H 310.621 -3.10931 2.32926 0
M  V30 3258 H 312.293 -1.48108 4.36877 0
M  V30 3259 H 310.536 -1.32688 4.13009 0
M  V30 3260 H 311.207 -2.84681 4.72928 0
M  V30 3261 H 313.683 -3.0645 2.81474 0
M  V30 3262 H 312.559 -4.32973 3.37381 0
M  V30 3263 H 312.82 -4.10079 1.6519 0
M  V30 3264 N 311.879 -1.3236 -0.855495 0
M  V30 3265 C 313.128 -1.22226 -1.60448 0
M  V30 3266 C 313.441 0.214733 -1.94418 0
M  V30 3267 O 314.647 0.437917 -2.67945 0
M  V30 3268 C 313.103 -2.14063 -2.89318 0
M  V30 3269 C 312.711 -3.62839 -2.62777 0
M  V30 3270 C 314.455 -2.12764 -3.67331 0
M  V30 3271 C 312.362 -4.4664 -3.87643 0
M  V30 3272 H 311.292 -0.453904 -0.602069 0
M  V30 3273 H 313.943 -1.57314 -0.944698 0
M  V30 3274 H 312.325 -1.71889 -3.5675 0
M  V30 3275 H 313.499 -4.1335 -2.03662 0
M  V30 3276 H 311.814 -3.66261 -1.98096 0
M  V30 3277 H 314.411 -2.72611 -4.59987 0
M  V30 3278 H 314.754 -1.11841 -4.00995 0
M  V30 3279 H 315.287 -2.53214 -3.06802 0
M  V30 3280 H 312.026 -5.48373 -3.5912 0
M  V30 3281 H 311.546 -4.0088 -4.46156 0
M  V30 3282 H 313.225 -4.59597 -4.55389 0
M  V30 3283 N 313.357 1.07166 -1.15556 0
M  V30 3284 C 314.289 2.14341 -0.811815 0
M  V30 3285 C 315.302 1.61835 0.177015 0
M  V30 3286 O 316.491 1.78439 -0.0464996 0
M  V30 3287 C 313.591 3.38387 -0.186481 0
M  V30 3288 C 312.764 4.20238 -1.21321 0
M  V30 3289 C 311.823 5.2266 -0.609302 0
M  V30 3290 O 310.849 5.54719 -1.27576 0
M  V30 3291 N 312.051 5.77306 0.608099 0
M  V30 3292 H 314.816 2.44431 -1.73417 0
M  V30 3293 H 312.377 1.23089 -1.0517 0
M  V30 3294 H 314.369 4.04044 0.230339 0
M  V30 3295 H 312.939 3.05994 0.639249 0
M  V30 3296 H 312.159 3.50369 -1.80652 0
M  V30 3297 H 313.447 4.71736 -1.90638 0
M  V30 3298 H 312.845 5.53513 1.1679 0
M  V30 3299 H 311.402 6.44583 0.96725 0
M  V30 3300 N 314.835 0.952656 1.25548 0
M  V30 3301 C 316.065 0.622592 1.96996 0
M  V30 3302 C 316.473 -0.809112 1.71026 0
M  V30 3303 O 315.816 -1.55258 0.981861 0
M  V30 3304 C 315.878 0.798946 3.5051 0
M  V30 3305 C 315.542 2.20744 4.00151 0
M  V30 3306 C 316.539 3.18394 4.11001 0
M  V30 3307 C 314.224 2.5311 4.33867 0
M  V30 3308 C 316.218 4.46504 4.54877 0
M  V30 3309 C 313.905 3.8145 4.7743 0
M  V30 3310 C 314.903 4.77959 4.87897 0
M  V30 3311 O 314.591 6.04012 5.30494 0
M  V30 3312 H 314.323 0.232503 0.634758 0
M  V30 3313 H 316.877 1.2789 1.60728 0
M  V30 3314 H 315.107 0.0854903 3.86605 0
M  V30 3315 H 316.796 0.47023 4.03167 0
M  V30 3316 H 317.562 2.94715 3.85186 0
M  V30 3317 H 313.441 1.78719 4.24948 0
M  V30 3318 H 316.985 5.21835 4.62962 0
M  V30 3319 H 312.882 4.04936 5.0269 0
M  V30 3320 H 313.65 6.0736 5.48685 0
M  V30 3321 N 316.313 -1.40141 0.720998 0
M  V30 3322 C 317.243 -2.33339 0.0867621 0
M  V30 3323 C 318.224 -1.53178 -0.739622 0
M  V30 3324 O 319.409 -1.81625 -0.687449 0
M  V30 3325 C 316.539 -3.37194 -0.831728 0
M  V30 3326 C 315.493 -4.27857 -0.110558 0
M  V30 3327 C 314.819 -5.22294 -1.14513 0
M  V30 3328 C 316.119 -5.11872 1.0385 0
M  V30 3329 H 317.813 -2.86626 0.865219 0
M  V30 3330 H 315.359 -1.37814 0.417516 0
M  V30 3331 H 317.312 -4.01335 -1.28485 0
M  V30 3332 H 316.036 -2.82314 -1.64214 0
M  V30 3333 H 314.695 -3.65176 0.322797 0
M  V30 3334 H 314.343 -4.63717 -1.94874 0
M  V30 3335 H 314.043 -5.83797 -0.667446 0
M  V30 3336 H 315.567 -5.89312 -1.59824 0
M  V30 3337 H 316.981 -5.69436 0.664482 0
M  V30 3338 H 315.378 -5.82445 1.4449 0
M  V30 3339 H 316.448 -4.4753 1.86668 0
M  V30 3340 N 317.792 -0.46758 -1.50504 0
M  V30 3341 C 318.755 0.317059 -2.26996 0
M  V30 3342 C 319.755 0.923513 -1.31635 0
M  V30 3343 O 320.945 0.793239 -1.55091 0
M  V30 3344 C 318.077 1.45134 -3.08462 0
M  V30 3345 H 319.27 -0.353723 -2.97807 0
M  V30 3346 H 316.823 -0.221545 -1.54722 0
M  V30 3347 H 317.558 2.15728 -2.4214 0
M  V30 3348 H 317.343 1.02232 -3.78538 0
M  V30 3349 H 318.833 2.00493 -3.66323 0
M  V30 3350 N 319.27 1.56325 -0.20005 0
M  V30 3351 C 320.22 2.15939 0.731743 0
M  V30 3352 C 321.204 1.10154 1.17281 0
M  V30 3353 O 322.396 1.36203 1.13038 0
M  V30 3354 C 319.525 2.82614 1.94895 0
M  V30 3355 C 318.611 3.95596 1.52855 0
M  V30 3356 N 319.002 4.99118 0.819418 0
M  V30 3357 C 317.3 4.07288 1.81748 0
M  V30 3358 C 318.001 5.78513 0.608053 0
M  V30 3359 N 316.977 5.31117 1.15828 0
M  V30 3360 H 320.779 2.9334 0.181285 0
M  V30 3361 H 318.293 1.624 -0.000452172 0
M  V30 3362 H 320.29 3.23718 2.62702 0
M  V30 3363 H 318.95 2.06702 2.50408 0
M  V30 3364 H 319.961 5.15723 0.47436 0
M  V30 3365 H 316.638 3.42509 2.38734 0
M  V30 3366 H 318.028 6.71885 0.0451619 0
M  V30 3367 N 320.748 -0.0735177 1.57428 0
M  V30 3368 C 321.994 -0.774145 1.87443 0
M  V30 3369 C 322.327 -1.77311 0.792103 0
M  V30 3370 O 321.602 -1.93492 -0.197793 0
M  V30 3371 C 321.885 -1.48367 3.28115 0
M  V30 3372 C 321.738 -0.501227 4.46999 0
M  V30 3373 C 323.057 -2.429 3.66998 0
M  V30 3374 H 320.176 -0.279971 0.681752 0
M  V30 3375 H 322.818 -0.0373616 1.89963 0
M  V30 3376 H 320.968 -2.11171 3.26097 0
M  V30 3377 H 322.64 0.121468 4.6114 0
M  V30 3378 H 320.883 0.183593 4.33411 0
M  V30 3379 H 321.554 -1.03526 5.42205 0
M  V30 3380 H 324.03 -1.90175 3.70098 0
M  V30 3381 H 322.906 -2.89549 4.66318 0
M  V30 3382 H 323.167 -3.27628 2.96837 0
M  V30 3383 N 322.226 -1.5378 -0.344866 0
M  V30 3384 C 323.189 -1.80981 -1.40637 0
M  V30 3385 C 324.189 -0.680816 -1.45676 0
M  V30 3386 O 325.379 -0.949095 -1.46075 0
M  V30 3387 C 322.511 -1.95063 -2.79577 0
M  V30 3388 H 323.704 -2.75803 -1.17783 0
M  V30 3389 H 321.257 -1.45173 -0.579181 0
M  V30 3390 H 321.992 -1.02379 -3.07716 0
M  V30 3391 H 321.777 -2.77198 -2.77315 0
M  V30 3392 H 323.267 -2.17629 -3.56409 0
M  V30 3393 N 323.704 0.605807 -1.45491 0
M  V30 3394 C 324.929 1.39625 -1.53361 0
M  V30 3395 C 325.354 1.87351 -0.167645 0
M  V30 3396 O 324.712 1.60243 0.848051 0
M  V30 3397 C 324.76 2.57559 -2.5238 0
M  V30 3398 O 323.864 3.58248 -2.04285 0
M  V30 3399 H 323.205 0.416771 -0.516912 0
M  V30 3400 H 325.735 0.737103 -1.90861 0
M  V30 3401 H 325.745 3.0478 -2.71244 0
M  V30 3402 H 324.42 2.22171 -3.51586 0
M  V30 3403 H 322.997 3.17664 -1.95305 0
M  V30 3404 N 325.182 1.32811 0.848464 0
M  V30 3405 C 326.407 1.26882 1.6406 0
M  V30 3406 C 326.832 -0.15913 1.87426 0
M  V30 3407 O 326.19 -1.11258 1.43148 0
M  V30 3408 C 326.238 2.03997 2.97351 0
M  V30 3409 O 325.342 1.39201 3.88197 0
M  V30 3410 H 324.683 0.436982 0.499943 0
M  V30 3411 H 327.213 1.75224 1.0563 0
M  V30 3412 H 327.223 2.14403 3.47124 0
M  V30 3413 H 325.898 3.0783 2.79666 0
M  V30 3414 H 324.475 1.37381 3.46671 0
M  V30 3415 N 326.66 -1.06551 1.16123 0
M  V30 3416 C 328.071 -1.60768 0.949232 0
M  V30 3417 C 328.422 -1.89523 -0.507508 0
M  V30 3418 O 327.547 -1.66671 -1.38021 0
M  V30 3419 C 328.142 -2.92086 1.71671 0
M  V30 3420 C 326.701 -3.43015 1.54977 0
M  V30 3421 C 325.848 -2.16947 1.72711 0
M  V30 3422 H 328.799 -0.895354 1.31031 0
M  V30 3423 H 328.82 -3.6138 1.19099 0
M  V30 3424 H 328.332 -2.71127 2.7769 0
M  V30 3425 H 326.433 -3.69039 0.513873 0
M  V30 3426 H 326.546 -4.18516 2.33198 0
M  V30 3427 H 324.91 -2.27041 1.15431 0
M  V30 3428 H 325.693 -1.98473 2.80113 0
M  V30 3429 N 328.138 -0.959301 -1.25041 0
M  V30 3430 C 329.085 -0.482057 -2.2571 0
M  V30 3431 C 330.055 0.467939 -1.59372 0
M  V30 3432 O 331.24 0.380159 -1.86974 0
M  V30 3433 C 328.38 0.229623 -3.44335 0
M  V30 3434 C 327.493 -0.758156 -4.25295 0
M  V30 3435 C 326.628 -0.0234403 -5.31195 0
M  V30 3436 C 325.667 -1.00184 -6.03846 0
M  V30 3437 N 324.804 -0.29769 -7.01469 0
M  V30 3438 H 329.644 -1.34538 -2.65901 0
M  V30 3439 H 327.181 -0.674592 -1.3072 0
M  V30 3440 H 329.139 0.658856 -4.11965 0
M  V30 3441 H 327.769 1.05696 -3.05005 0
M  V30 3442 H 326.821 -1.30586 -3.57284 0
M  V30 3443 H 328.133 -1.50458 -4.75567 0
M  V30 3444 H 327.287 0.464201 -6.04922 0
M  V30 3445 H 326.026 0.755741 -4.81809 0
M  V30 3446 H 325.031 -1.50044 -5.2893 0
M  V30 3447 H 326.256 -1.78133 -6.55321 0
M  V30 3448 H 324.202 0.462668 -6.54366 0
M  V30 3449 H 324.119 -0.983128 -7.4958 0
M  V30 3450 H 325.387 0.16826 -7.79318 0
M  V30 3451 N 329.616 1.39756 -0.72842 0
M  V30 3452 C 330.864 2.00248 -0.272946 0
M  V30 3453 C 331.185 1.58077 1.14178 0
M  V30 3454 O 330.455 0.826014 1.77634 0
M  V30 3455 H 329.035 0.740554 -0.0979247 0
M  V30 3456 H 331.697 1.70903 -0.936912 0
M  V30 3457 H 330.793 3.10495 -0.316142 0
M  V30 3458 N 331.094 0.475555 1.50254 0
M  V30 3459 C 332.51 0.12997 1.5907 0
M  V30 3460 C 332.71 -1.36385 1.48328 0
M  V30 3461 O 331.766 -2.13754 1.34407 0
M  V30 3462 C 333.079 0.684139 2.92814 0
M  V30 3463 C 334.627 0.647965 3.0622 0
M  V30 3464 C 335.102 1.17975 4.42545 0
M  V30 3465 N 336.593 1.13936 4.48969 0
M  V30 3466 C 337.328 1.52129 5.52851 0
M  V30 3467 N 336.824 1.97793 6.63965 0
M  V30 3468 N 338.617 1.43704 5.4342 0
M  V30 3469 H 330.768 1.44706 1.55479 0
M  V30 3470 H 333.031 0.598691 0.735033 0
M  V30 3471 H 332.737 1.73079 3.06164 0
M  V30 3472 H 332.611 0.130204 3.76975 0
M  V30 3473 H 334.998 -0.38979 2.92514 0
M  V30 3474 H 335.079 1.23876 2.23805 0
M  V30 3475 H 334.723 2.21616 4.57 0
M  V30 3476 H 334.653 0.565138 5.23559 0
M  V30 3477 H 337.144 0.804488 3.69238 0
M  V30 3478 H 337.457 2.25072 7.39299 0
M  V30 3479 H 335.802 2.01749 6.65073 0
M  V30 3480 H 338.993 1.07867 4.55502 0
M  V30 3481 H 339.166 1.73794 6.24259 0
M  V30 3482 N 332.573 -1.56217 0.208337 0
M  V30 3483 C 333.52 -2.19699 -0.707192 0
M  V30 3484 C 334.49 -1.14836 -1.20008 0
M  V30 3485 O 335.675 -1.4314 -1.26157 0
M  V30 3486 C 332.815 -2.87061 -1.91546 0
M  V30 3487 C 331.928 -4.06483 -1.46271 0
M  V30 3488 C 331.063 -4.61665 -2.62752 0
M  V30 3489 C 330.102 -5.73417 -2.14147 0
M  V30 3490 N 329.239 -6.22948 -3.23853 0
M  V30 3491 H 334.079 -2.97575 -0.159111 0
M  V30 3492 H 331.616 -1.46948 -0.0667874 0
M  V30 3493 H 333.574 -3.24294 -2.62468 0
M  V30 3494 H 332.204 -2.11725 -2.43664 0
M  V30 3495 H 331.256 -3.74825 -0.648886 0
M  V30 3496 H 332.568 -4.87271 -1.06622 0
M  V30 3497 H 331.722 -5.01272 -3.41776 0
M  V30 3498 H 330.461 -3.80013 -3.05682 0
M  V30 3499 H 329.466 -5.33326 -1.33581 0
M  V30 3500 H 330.691 -6.56897 -1.72232 0
M  V30 3501 H 328.637 -5.44213 -3.6629 0
M  V30 3502 H 328.554 -6.98823 -2.88414 0
M  V30 3503 H 329.822 -6.6721 -4.03052 0
M  V30 3504 N 334.051 0.0651679 -1.57465 0
M  V30 3505 C 334.961 1.09448 -2.07505 0
M  V30 3506 C 335.977 1.41974 -1.00595 0
M  V30 3507 O 337.153 1.52018 -1.32107 0
M  V30 3508 C 334.218 2.38689 -2.51453 0
M  V30 3509 C 333.279 2.13073 -3.72691 0
M  V30 3510 C 332.512 3.36152 -4.14533 0
M  V30 3511 O 332.735 4.45517 -3.56189 0
M  V30 3512 O 331.669 3.23974 -5.07272 0
M  V30 3513 H 335.495 0.69935 -2.95538 0
M  V30 3514 H 333.08 0.279752 -1.46757 0
M  V30 3515 H 334.962 3.14736 -2.80212 0
M  V30 3516 H 333.637 2.77568 -1.66546 0
M  V30 3517 H 332.544 1.34709 -3.49005 0
M  V30 3518 H 333.877 1.79071 -4.5847 0
M  V30 3519 N 335.529 1.53961 0.336706 0
M  V30 3520 C 336.94 1.62914 0.911925 0
M  V30 3521 C 337.291 0.514795 1.89326 0
M  V30 3522 O 336.416 -0.354395 2.13478 0
M  V30 3523 C 337.011 2.95304 1.66076 0
M  V30 3524 C 335.57 3.06496 2.18489 0
M  V30 3525 C 334.717 2.58403 1.00613 0
M  V30 3526 H 337.668 1.58285 0.114649 0
M  V30 3527 H 337.689 2.84727 2.5241 0
M  V30 3528 H 337.201 3.76387 0.946276 0
M  V30 3529 H 335.302 2.3006 2.93092 0
M  V30 3530 H 335.415 4.1208 2.44391 0
M  V30 3531 H 333.779 2.13977 1.38152 0
M  V30 3532 H 334.562 3.41932 0.306179 0
M  V30 3533 N 337.007 -0.598083 1.45811 0
M  V30 3534 C 338.255 -1.35413 1.50026 0
M  V30 3535 C 338.576 -1.94444 0.147177 0
M  V30 3536 O 337.846 -1.77701 -0.824571 0
M  V30 3537 H 336.426 -0.502727 0.552517 0
M  V30 3538 H 339.088 -0.701606 1.81834 0
M  V30 3539 H 338.184 -2.16871 2.2444 0
M  V30 3540 N 338.485 -1.33259 -0.841409 0
M  V30 3541 C 339.731 -1.24757 -1.59886 0
M  V30 3542 C 340.064 0.186913 -1.93298 0
M  V30 3543 O 339.339 1.12757 -1.5848 0
M  V30 3544 C 339.622 -2.12036 -2.91055 0
M  V30 3545 C 339.475 -3.63929 -2.6434 0
M  V30 3546 C 340.794 -1.9916 -3.92458 0
M  V30 3547 H 337.913 -0.454542 -0.580138 0
M  V30 3548 H 340.555 -1.63335 -0.970647 0
M  V30 3549 H 338.705 -1.79265 -3.44669 0
M  V30 3550 H 340.377 -4.06978 -2.17178 0
M  V30 3551 H 338.62 -3.85935 -1.98082 0
M  V30 3552 H 339.291 -4.20341 -3.57796 0
M  V30 3553 H 341.767 -2.27895 -3.48143 0
M  V30 3554 H 340.643 -2.62484 -4.82072 0
M  V30 3555 H 340.904 -0.963082 -4.31482 0
M  V30 3556 N 339.963 1.05934 -1.16686 0
M  V30 3557 C 341.374 1.60263 -0.957745 0
M  V30 3558 C 341.725 1.89789 0.49745 0
M  V30 3559 O 340.85 1.67401 1.37135 0
M  V30 3560 C 341.445 2.91172 -1.73218 0
M  V30 3561 C 340.004 3.42188 -1.56794 0
M  V30 3562 C 339.151 2.16028 -1.73859 0
M  V30 3563 H 342.102 0.888392 -1.31504 0
M  V30 3564 H 342.123 3.60744 -1.21014 0
M  V30 3565 H 341.635 2.6965 -2.79124 0
M  V30 3566 H 339.736 3.68762 -0.533437 0
M  V30 3567 H 339.849 4.17273 -2.35414 0
M  V30 3568 H 338.213 2.26426 -1.16633 0
M  V30 3569 H 338.996 1.96985 -2.81161 0
M  V30 3570 N 341.441 0.965919 1.2453 0
M  V30 3571 C 342.689 0.625593 1.92174 0
M  V30 3572 C 343.01 -0.841652 1.75901 0
M  V30 3573 O 342.28 -1.60061 1.12948 0
M  V30 3574 H 340.86 0.228388 0.71123 0
M  V30 3575 H 343.522 1.2266 1.51461 0
M  V30 3576 H 342.618 0.864653 2.99884 0
M  V30 3577 N 342.919 -1.39368 0.735821 0
M  V30 3578 C 343.829 -2.34395 0.0979693 0
M  V30 3579 C 344.845 -1.58361 -0.720968 0
M  V30 3580 O 346.021 -1.90648 -0.649245 0
M  V30 3581 C 343.086 -3.37393 -0.797916 0
M  V30 3582 C 342.147 -4.29287 0.0333662 0
M  V30 3583 C 341.38 -5.27365 -0.819854 0
M  V30 3584 O 341.603 -5.31959 -2.05855 0
M  V30 3585 O 340.537 -6.01389 -0.248079 0
M  V30 3586 H 344.363 -2.90601 0.882315 0
M  V30 3587 H 341.948 -1.40909 0.4965 0
M  V30 3588 H 343.83 -4.00505 -1.31048 0
M  V30 3589 H 342.505 -2.83571 -1.56106 0
M  V30 3590 H 341.412 -3.69395 0.591475 0
M  V30 3591 H 342.745 -4.86317 0.758752 0
M  V30 3592 N 344.397 -0.483516 -1.5 0
M  V30 3593 C 345.327 0.293829 -2.31644 0
M  V30 3594 C 346.308 0.978864 -1.39112 0
M  V30 3595 O 347.493 0.973644 -1.68029 0
M  V30 3596 C 344.623 1.36897 -3.19181 0
M  V30 3597 C 343.577 0.804833 -4.20365 0
M  V30 3598 C 342.903 1.9792 -4.96721 0
M  V30 3599 C 344.203 -0.192313 -5.21946 0
M  V30 3600 H 345.897 -0.387616 -2.9688 0
M  V30 3601 H 343.443 -0.187856 -1.42769 0
M  V30 3602 H 345.396 1.92037 -3.751 0
M  V30 3603 H 344.12 2.07936 -2.51853 0
M  V30 3604 H 342.779 0.275319 -3.65565 0
M  V30 3605 H 342.427 2.67686 -4.25856 0
M  V30 3606 H 342.127 1.60789 -5.65173 0
M  V30 3607 H 343.651 2.53526 -5.55479 0
M  V30 3608 H 345.065 0.270333 -5.72662 0
M  V30 3609 H 343.462 -0.478543 -5.98189 0
M  V30 3610 H 344.532 -1.11409 -4.71928 0
M  V30 3611 N 345.875 1.56104 -0.216619 0
M  V30 3612 C 346.785 2.23694 0.706982 0
M  V30 3613 C 347.801 1.24295 1.21765 0
M  V30 3614 O 348.977 1.57094 1.2603 0
M  V30 3615 C 346.042 2.8998 1.90033 0
M  V30 3616 C 345.103 4.04708 1.43213 0
M  V30 3617 C 344.336 4.67824 2.56859 0
M  V30 3618 O 344.559 4.29913 3.74874 0
M  V30 3619 O 343.493 5.56905 2.28343 0
M  V30 3620 H 347.319 3.03272 0.161235 0
M  V30 3621 H 344.904 1.49394 0.0136177 0
M  V30 3622 H 346.786 3.31837 2.59735 0
M  V30 3623 H 345.461 2.13365 2.43428 0
M  V30 3624 H 344.368 3.6743 0.70327 0
M  V30 3625 H 345.701 4.83051 0.944615 0
M  V30 3626 N 347.353 -0.0568162 1.57498 0
M  V30 3627 C 348.769 -0.411933 1.54192 0
M  V30 3628 C 348.969 -1.78287 0.938942 0
M  V30 3629 O 348.025 -2.46483 0.547919 0
M  V30 3630 C 349.338 -0.339244 2.9878 0
M  V30 3631 C 350.886 -0.418348 3.10192 0
M  V30 3632 C 351.361 -0.375407 4.56459 0
M  V30 3633 N 352.852 -0.435038 4.61153 0
M  V30 3634 C 353.587 -0.424265 5.71828 0
M  V30 3635 N 353.083 -0.367418 6.91825 0
M  V30 3636 N 354.876 -0.471938 5.60115 0
M  V30 3637 H 347.027 0.840684 1.95055 0
M  V30 3638 H 349.29 0.316987 0.893433 0
M  V30 3639 H 348.996 0.601742 3.46514 0
M  V30 3640 H 348.87 -1.14371 3.59443 0
M  V30 3641 H 351.257 -1.34976 2.62422 0
M  V30 3642 H 351.338 0.414962 2.52412 0
M  V30 3643 H 350.982 0.552219 5.04889 0
M  V30 3644 H 350.912 -1.22645 5.12119 0
M  V30 3645 H 353.403 -0.482612 3.74806 0
M  V30 3646 H 353.716 -0.363535 7.71944 0
M  V30 3647 H 352.061 -0.333879 6.94198 0
M  V30 3648 H 355.252 -0.514145 4.65268 0
M  V30 3649 H 355.425 -0.460073 6.46365 0
M  V30 3650 N 348.832 -1.54138 -0.328536 0
M  V30 3651 C 349.764 -1.79509 -1.4251 0
M  V30 3652 C 350.777 -0.67688 -1.48061 0
M  V30 3653 O 351.966 -0.953898 -1.50874 0
M  V30 3654 C 349.066 -1.89337 -2.81078 0
M  V30 3655 C 348.239 -3.19443 -2.98789 0
M  V30 3656 C 347.298 -3.20036 -4.17688 0
M  V30 3657 O 346.324 -3.93697 -4.11086 0
M  V30 3658 N 347.526 -2.43467 -5.26976 0
M  V30 3659 H 350.291 -2.74139 -1.21111 0
M  V30 3660 H 347.852 -1.53373 -0.518499 0
M  V30 3661 H 349.844 -1.87167 -3.58818 0
M  V30 3662 H 348.414 -1.01826 -2.95551 0
M  V30 3663 H 347.634 -3.34614 -2.08391 0
M  V30 3664 H 348.922 -4.05354 -3.07515 0
M  V30 3665 H 348.32 -1.83201 -5.35214 0
M  V30 3666 H 346.877 -2.4708 -6.03154 0
M  V30 3667 N 350.31 0.590341 -1.46126 0
M  V30 3668 C 351.24 1.71032 -1.58966 0
M  V30 3669 C 352.221 1.64302 -0.440335 0
M  V30 3670 O 353.406 1.82436 -0.665634 0
M  V30 3671 C 350.536 3.09665 -1.57241 0
M  V30 3672 C 349.49 3.31221 -2.71066 0
M  V30 3673 C 348.816 4.70303 -2.54399 0
M  V30 3674 C 350.116 3.19796 -4.1295 0
M  V30 3675 H 351.81 1.60543 -2.52718 0
M  V30 3676 H 349.356 0.770933 -1.21625 0
M  V30 3677 H 351.309 3.87831 -1.64819 0
M  V30 3678 H 350.033 3.21036 -0.600289 0
M  V30 3679 H 348.692 2.55452 -2.62944 0
M  V30 3680 H 348.34 4.78429 -1.55288 0
M  V30 3681 H 348.04 4.85679 -3.30741 0
M  V30 3682 H 349.564 5.50647 -2.63857 0
M  V30 3683 H 350.978 3.87815 -4.22223 0
M  V30 3684 H 349.375 3.46696 -4.89818 0
M  V30 3685 H 350.445 2.16983 -4.33643 0
M  V30 3686 N 351.788 1.33704 0.83433 0
M  V30 3687 C 352.718 1.26967 1.95963 0
M  V30 3688 C 353.699 0.149337 1.69443 0
M  V30 3689 O 354.884 0.339852 1.91203 0
M  V30 3690 C 352.014 1.01275 3.32206 0
M  V30 3691 C 350.968 2.09652 3.73136 0
M  V30 3692 C 350.294 1.69166 5.07235 0
M  V30 3693 C 351.594 3.51372 3.86439 0
M  V30 3694 H 353.288 2.2112 2.01857 0
M  V30 3695 H 350.834 1.06447 0.969793 0
M  V30 3696 H 352.787 0.952106 4.10503 0
M  V30 3697 H 351.511 0.0356203 3.26581 0
M  V30 3698 H 350.17 2.14766 2.97104 0
M  V30 3699 H 349.818 0.701437 4.98085 0
M  V30 3700 H 349.518 2.41694 5.35591 0
M  V30 3701 H 351.042 1.64576 5.88003 0
M  V30 3702 H 352.456 3.48734 4.55036 0
M  V30 3703 H 350.853 4.22425 4.26236 0
M  V30 3704 H 351.923 3.89546 2.88759 0
M  V30 3705 N 353.266 -1.05314 1.17247 0
M  V30 3706 C 354.198 -2.13023 0.845812 0
M  V30 3707 C 355.211 -1.62096 -0.151246 0
M  V30 3708 O 356.4 -1.78343 0.0748818 0
M  V30 3709 C 353.5 -3.38047 0.240292 0
M  V30 3710 C 352.673 -4.18255 1.27991 0
M  V30 3711 C 351.732 -5.21625 0.692375 0
M  V30 3712 O 350.758 -5.52619 1.36385 0
M  V30 3713 N 351.96 -5.78201 -0.516178 0
M  V30 3714 H 354.725 -2.41642 1.77283 0
M  V30 3715 H 352.286 -1.21401 1.07115 0
M  V30 3716 H 354.278 -4.04359 -0.16603 0
M  V30 3717 H 352.848 -3.06972 -0.590487 0
M  V30 3718 H 352.068 -3.47451 1.86203 0
M  V30 3719 H 353.356 -4.68643 1.98119 0
M  V30 3720 H 352.754 -5.55301 -1.07969 0
M  V30 3721 H 351.311 -6.4604 -0.86458 0
M  V30 3722 N 354.744 -0.972509 -1.24016 0
M  V30 3723 C 355.707 -0.511403 -2.23422 0
M  V30 3724 C 356.707 0.394679 -1.55881 0
M  V30 3725 O 357.897 0.189469 -1.73167 0
M  V30 3726 C 355.029 0.258769 -3.39916 0
M  V30 3727 H 356.222 -1.39024 -2.6573 0
M  V30 3728 H 353.775 -0.757585 -1.36713 0
M  V30 3729 H 354.51 1.1545 -3.03054 0
M  V30 3730 H 354.295 -0.391522 -3.9014 0
M  V30 3731 H 355.785 0.570244 -4.13688 0
M  V30 3732 N 356.222 1.38976 -0.743202 0
M  V30 3733 C 357.17 2.32394 -0.0978389 0
M  V30 3734 C 358.164 1.53486 0.716824 0
M  V30 3735 O 359.37 1.69092 0.617088 0
M  V30 3736 H 355.745 0.75189 -0.0128402 0
M  V30 3737 H 357.716 2.84441 -0.901981 0
M  V30 3738 C 356.465 3.38629 0.789036 0
M  V30 3739 H 355.788 3.99432 0.171559 0
M  V30 3740 H 357.228 4.06426 1.20807 0
M  V30 3741 C 355.687 2.76347 1.92702 0
M  V30 3742 O 356.217 2.64836 3.02034 0
M  V30 3743 N 354.423 2.34311 1.71891 0
M  V30 3744 H 353.97 2.43873 0.829675 0
M  V30 3745 H 353.928 1.9298 2.48205 0
M  V30 3746 N 357.7 0.491464 1.49741 0
M  V30 3747 C 359.111 0.0413169 1.86654 0
M  V30 3748 C 359.462 -1.36985 1.40462 0
M  V30 3749 O 358.587 -2.01917 0.778354 0
M  V30 3750 C 359.182 0.0682023 3.38731 0
M  V30 3751 C 357.741 -0.32656 3.74981 0
M  V30 3752 C 356.888 0.444888 2.73708 0
M  V30 3753 H 359.839 0.704733 1.42194 0
M  V30 3754 H 359.86 -0.729322 3.73445 0
M  V30 3755 H 359.372 1.09539 3.72321 0
M  V30 3756 H 357.473 -1.35734 3.46997 0
M  V30 3757 H 357.586 -0.013741 4.79098 0
M  V30 3758 H 355.95 -0.104062 2.54487 0
M  V30 3759 H 356.733 1.47197 3.10142 0
M  V30 3760 N 359.178 -1.55987 0.224894 0
M  V30 3761 C 360.427 -1.97566 -0.406273 0
M  V30 3762 C 360.74 -1.11569 -1.6066 0
M  V30 3763 O 361.946 -1.43062 -2.3075 0
M  V30 3764 C 360.402 -3.51474 -0.774207 0
M  V30 3765 C 360.01 -4.46179 0.403496 0
M  V30 3766 C 361.754 -4.01758 -1.37079 0
M  V30 3767 C 359.661 -5.91399 0.0129412 0
M  V30 3768 H 358.591 -0.737777 -0.155565 0
M  V30 3769 H 361.242 -1.80659 0.321635 0
M  V30 3770 H 359.624 -3.63994 -1.55963 0
M  V30 3771 H 360.798 -4.45409 1.18101 0
M  V30 3772 H 359.113 -4.06255 0.913536 0
M  V30 3773 H 361.71 -5.07756 -1.67596 0
M  V30 3774 H 362.053 -3.47805 -2.28773 0
M  V30 3775 H 362.586 -3.92475 -0.648733 0
M  V30 3776 H 359.325 -6.49341 0.896451 0
M  V30 3777 H 358.845 -5.95356 -0.728821 0
M  V30 3778 H 360.524 -6.45683 -0.412582 0
M  V30 3779 N 360.656 0.0484629 -1.57525 0
M  V30 3780 C 361.586 1.0549 -2.08313 0
M  V30 3781 C 362.567 1.38929 -0.981463 0
M  V30 3782 O 363.752 1.48151 -1.25558 0
M  V30 3783 C 360.882 2.36162 -2.54646 0
M  V30 3784 C 359.836 2.17016 -3.68901 0
M  V30 3785 C 359.162 3.53278 -4.01371 0
M  V30 3786 C 360.462 1.57219 -4.98076 0
M  V30 3787 H 362.156 0.632195 -2.92649 0
M  V30 3788 H 359.702 0.302654 -1.40784 0
M  V30 3789 H 361.655 3.06882 -2.88793 0
M  V30 3790 H 360.379 2.80456 -1.67368 0
M  V30 3791 H 359.038 1.48733 -3.35073 0
M  V30 3792 H 358.686 3.95185 -3.11188 0
M  V30 3793 H 358.386 3.41299 -4.78318 0
M  V30 3794 H 359.91 4.25391 -4.38035 0
M  V30 3795 H 361.324 2.17832 -5.30304 0
M  V30 3796 H 359.721 1.55871 -5.79503 0
M  V30 3797 H 360.791 0.535956 -4.81929 0
M  V30 3798 N 362.134 1.5431 0.320358 0
M  V30 3799 C 363.044 1.86946 1.41734 0
M  V30 3800 C 364.06 0.761689 1.56443 0
M  V30 3801 O 365.236 1.05629 1.71477 0
M  V30 3802 C 362.301 2.09293 2.76401 0
M  V30 3803 C 361.362 3.33082 2.70841 0
M  V30 3804 C 360.595 3.54353 3.99086 0
M  V30 3805 O 360.818 2.79002 4.97508 0
M  V30 3806 O 359.752 4.47838 4.0215 0
M  V30 3807 H 363.578 2.80232 1.17062 0
M  V30 3808 H 361.163 1.40255 0.514673 0
M  V30 3809 H 363.045 2.25303 3.56113 0
M  V30 3810 H 361.72 1.19194 3.00956 0
M  V30 3811 H 360.627 3.22454 1.89668 0
M  V30 3812 H 361.96 4.23249 2.5124 0
M  V30 3813 N 363.613 -0.582584 1.46437 0
M  V30 3814 C 364.576 -1.67366 1.56592 0
M  V30 3815 C 365.576 -1.54575 0.443072 0
M  V30 3816 O 366.766 -1.59191 0.707381 0
M  V30 3817 C 363.898 -3.06791 1.48634 0
M  V30 3818 H 365.091 -1.5972 2.5383 0
M  V30 3819 H 362.644 -0.800432 1.34249 0
M  V30 3820 H 363.379 -3.19993 0.526763 0
M  V30 3821 H 363.164 -3.17484 2.30101 0
M  V30 3822 H 364.654 -3.86218 1.58826 0
M  V30 3823 N 365.091 -1.34144 -0.827227 0
M  V30 3824 C 366.338 -1.26258 -1.58319 0
M  V30 3825 C 366.666 0.168595 -1.93768 0
M  V30 3826 O 365.921 1.12877 -1.59866 0
M  V30 3827 C 366.22 -2.09464 -2.89585 0
M  V30 3828 C 365.886 -3.58521 -2.73448 0
M  V30 3829 C 364.548 -3.99155 -2.68754 0
M  V30 3830 C 366.9 -4.53189 -2.57428 0
M  V30 3831 C 364.228 -5.32656 -2.45957 0
M  V30 3832 C 366.58 -5.86864 -2.36163 0
M  V30 3833 C 365.244 -6.26667 -2.29879 0
M  V30 3834 H 364.514 -0.462013 -0.579332 0
M  V30 3835 H 367.161 -1.65845 -0.95748 0
M  V30 3836 H 365.466 -1.62692 -3.56425 0
M  V30 3837 H 367.163 -2.00712 -3.47154 0
M  V30 3838 H 363.753 -3.26264 -2.77939 0
M  V30 3839 H 367.937 -4.22696 -2.60081 0
M  V30 3840 H 363.193 -5.62519 -2.39546 0
M  V30 3841 H 367.367 -6.59813 -2.22754 0
M  V30 3842 H 364.994 -7.30049 -2.11975 0
M  V30 3843 N 366.569 1.04691 -1.17803 0
M  V30 3844 C 367.817 1.7743 -0.967617 0
M  V30 3845 C 368.138 1.88359 0.504574 0
M  V30 3846 O 367.408 1.40402 1.36617 0
M  V30 3847 H 365.988 0.657242 -0.355024 0
M  V30 3848 H 368.65 1.2638 -1.48371 0
M  V30 3849 H 367.746 2.78924 -1.40027 0
M  V30 3850 N 368.047 0.979072 1.23499 0
M  V30 3851 C 368.995 0.510604 2.26926 0
M  V30 3852 C 369.989 -0.431691 1.63807 0
M  V30 3853 O 371.195 -0.30573 1.77385 0
M  V30 3854 H 367.57 0.146688 0.737554 0
M  V30 3855 H 369.541 1.39466 2.63803 0
M  V30 3856 C 368.29 -0.172658 3.47271 0
M  V30 3857 H 367.613 0.543331 3.96091 0
M  V30 3858 H 369.053 -0.464101 4.21452 0
M  V30 3859 C 367.512 -1.40345 3.06276 0
M  V30 3860 O 368.042 -2.49978 3.14442 0
M  V30 3861 N 366.248 -1.27362 2.61203 0
M  V30 3862 H 365.795 -0.381584 2.54758 0
M  V30 3863 H 365.753 -2.09822 2.34141 0
M  V30 3864 N 369.525 -1.3858 0.750561 0
M  V30 3865 C 370.488 -2.28836 0.129152 0
M  V30 3866 C 371.488 -1.47045 -0.650714 0
M  V30 3867 O 372.678 -1.6753 -0.477428 0
M  V30 3868 C 369.81 -3.30751 -0.825622 0
M  V30 3869 H 371.003 -2.85294 0.924516 0
M  V30 3870 H 368.556 -1.47489 0.517376 0
M  V30 3871 H 369.291 -2.79378 -1.64677 0
M  V30 3872 H 369.076 -3.91177 -0.268852 0
M  V30 3873 H 370.566 -3.98249 -1.2565 0
M  V30 3874 N 371.003 -0.499398 -1.49478 0
M  V30 3875 C 371.95 0.279881 -2.29097 0
M  V30 3876 C 372.92 0.961805 -1.3542 0
M  V30 3877 O 374.105 0.968777 -1.64376 0
M  V30 3878 C 371.245 1.33932 -3.18051 0
M  V30 3879 C 370.358 0.669333 -4.26783 0
M  V30 3880 C 369.493 1.70907 -5.02955 0
M  V30 3881 C 368.532 1.02087 -6.03527 0
M  V30 3882 N 367.669 2.00474 -6.7287 0
M  V30 3883 H 372.509 -0.405317 -2.95231 0
M  V30 3884 H 370.046 -0.211726 -1.45568 0
M  V30 3885 H 372.004 1.96553 -3.67998 0
M  V30 3886 H 370.634 1.9933 -2.53904 0
M  V30 3887 H 369.686 -0.0701234 -3.80335 0
M  V30 3888 H 370.998 0.127503 -4.98637 0
M  V30 3889 H 370.152 2.41037 -5.56764 0
M  V30 3890 H 368.891 2.28476 -4.30871 0
M  V30 3891 H 367.896 0.305338 -5.48951 0
M  V30 3892 H 369.121 0.451708 -6.77596 0
M  V30 3893 H 367.067 2.57007 -6.03559 0
M  V30 3894 H 366.984 1.51353 -7.40694 0
M  V30 3895 H 368.252 2.69897 -7.31284 0
M  V30 3896 N 372.481 1.55866 -0.233164 0
M  V30 3897 C 373.709 2.02998 0.399905 0
M  V30 3898 C 374.124 1.11274 1.52524 0
M  V30 3899 O 373.481 0.124528 1.82075 0
M  V30 3900 C 373.532 3.4958 0.920639 0
M  V30 3901 O 373.253 4.37808 -0.159834 0
M  V30 3902 C 374.754 4.12411 1.62578 0
M  V30 3903 H 371.974 0.664006 0.0966281 0
M  V30 3904 H 374.518 2.0143 -0.353013 0
M  V30 3905 H 372.673 3.51727 1.62379 0
M  V30 3906 H 373.087 5.23981 0.23337 0
M  V30 3907 H 374.561 5.16711 1.94201 0
M  V30 3908 H 375.038 3.5809 2.54299 0
M  V30 3909 H 375.644 4.14148 0.967553 0
M  V30 3910 N 373.959 -0.0401083 1.57549 0
M  V30 3911 C 375.205 -0.734211 1.89043 0
M  V30 3912 C 375.538 -1.75591 0.829535 0
M  V30 3913 O 374.813 -1.93868 -0.156706 0
M  V30 3914 C 375.096 -1.41374 3.31188 0
M  V30 3915 C 374.949 -0.406299 4.47961 0
M  V30 3916 C 376.268 -2.35061 3.72068 0
M  V30 3917 H 373.387 -0.265447 0.687537 0
M  V30 3918 H 376.029 0.00294087 1.9 0
M  V30 3919 H 374.179 -2.04206 3.30503 0
M  V30 3920 H 375.851 0.219255 4.60779 0
M  V30 3921 H 374.094 0.275485 4.32924 0
M  V30 3922 H 374.765 -0.920022 5.44279 0
M  V30 3923 H 377.241 -1.82282 3.74049 0
M  V30 3924 H 376.117 -2.79593 4.72355 0
M  V30 3925 H 376.378 -3.21258 3.0372 0
M  V30 3926 N 375.437 -1.54477 -0.31217 0
M  V30 3927 C 376.384 -1.84655 -1.38461 0
M  V30 3928 C 377.354 -0.694536 -1.50882 0
M  V30 3929 O 378.539 -0.942081 -1.6592 0
M  V30 3930 C 375.679 -2.0896 -2.74645 0
M  V30 3931 C 374.792 -3.36618 -2.70763 0
M  V30 3932 C 373.927 -3.50824 -3.98868 0
M  V30 3933 C 372.966 -4.72315 -3.89339 0
M  V30 3934 N 372.103 -4.83387 -5.09197 0
M  V30 3935 H 376.943 -2.76142 -1.12026 0
M  V30 3936 H 374.48 -1.36748 -0.542065 0
M  V30 3937 H 376.438 -2.21045 -3.53829 0
M  V30 3938 H 375.068 -1.20752 -2.99364 0
M  V30 3939 H 374.12 -3.33211 -1.83506 0
M  V30 3940 H 375.432 -4.25917 -2.59608 0
M  V30 3941 H 374.586 -3.62513 -4.86486 0
M  V30 3942 H 373.325 -2.59638 -4.12843 0
M  V30 3943 H 372.33 -4.6067 -3.00105 0
M  V30 3944 H 373.555 -5.64897 -3.76919 0
M  V30 3945 H 371.501 -3.9512 -5.23657 0
M  V30 3946 H 371.418 -5.66669 -5.00422 0
M  V30 3947 H 372.686 -4.9942 -5.98498 0
M  V30 3948 N 376.915 0.57481 -1.46744 0
M  V30 3949 C 377.863 1.70435 -1.58286 0
M  V30 3950 C 378.857 1.63287 -0.450956 0
M  V30 3951 O 380.063 1.68685 -0.628121 0
M  V30 3952 H 376.438 0.56364 -0.497809 0
M  V30 3953 H 378.409 1.57833 -2.53242 0
M  V30 3954 C 377.158 3.08815 -1.59776 0
M  V30 3955 H 376.481 3.1499 -2.46214 0
M  V30 3956 H 377.921 3.87588 -1.71905 0
M  V30 3957 C 376.38 3.35301 -0.327812 0
M  V30 3958 O 376.91 3.97511 0.57861 0
M  V30 3959 N 375.116 2.89816 -0.213274 0
M  V30 3960 H 374.663 2.39371 -0.951798 0
M  V30 3961 H 374.621 3.0791 0.63553 0
M  V30 3962 N 378.394 1.34581 0.820102 0
M  V30 3963 C 379.671 1.17675 1.56244 0
M  V30 3964 C 380.051 -0.249541 2.0962 0
M  V30 3965 O 379.399 -1.25125 1.91196 0
M  V30 3966 C 379.609 2.23364 2.6816 0
M  V30 3967 C 380.957 2.58485 3.36854 0
M  V30 3968 O 381.981 2.22175 2.78418 0
M  V30 3969 O 380.84 3.20868 4.42386 0
M  V30 3970 H 377.934 0.456333 0.689702 0
M  V30 3971 H 380.48 1.46222 0.861231 0
M  V30 3972 H 379.252 3.19087 2.26493 0
M  V30 3973 H 378.875 1.96009 3.45928 0
M  V30 3974 N 379.872 -1.04064 1.18357 0
M  V30 3975 C 380.82 -2.14187 0.907007 0
M  V30 3976 C 381.814 -1.68879 -0.132725 0
M  V30 3977 O 383.02 -1.79993 0.0154248 0
M  V30 3978 H 379.395 -0.699585 0.275835 0
M  V30 3979 H 381.366 -2.34711 1.84264 0
M  V30 3980 C 380.115 -3.44785 0.449254 0
M  V30 3981 H 379.438 -3.80058 1.24081 0
M  V30 3982 H 380.878 -4.22974 0.294737 0
M  V30 3983 C 379.337 -3.26391 -0.834909 0
M  V30 3984 O 379.867 -3.53973 -1.89911 0
M  V30 3985 N 378.073 -2.79726 -0.787523 0
M  V30 3986 H 377.62 -2.5748 0.0787347 0
M  V30 3987 H 377.578 -2.67798 -1.64716 0
M  V30 3988 N 381.35 -0.985608 -1.22978 0
M  V30 3989 C 382.575 -0.675254 -1.961 0
M  V30 3990 C 383 0.752154 -1.72407 0
M  V30 3991 O 382.358 1.5131 -0.998751 0
M  V30 3992 C 382.406 -0.977899 -3.47087 0
M  V30 3993 O 381.51 -0.072685 -4.12336 0
M  V30 3994 H 380.851 -0.253443 -0.613728 0
M  V30 3995 H 383.381 -1.32061 -1.56272 0
M  V30 3996 H 383.391 -0.916739 -3.97567 0
M  V30 3997 H 382.066 -2.01807 -3.63657 0
M  V30 3998 H 380.643 -0.188703 -3.72422 0
M  V30 3999 N 382.828 1.3818 -0.7579 0
M  V30 4000 C 384.053 2.04827 -0.325679 0
M  V30 4001 C 384.478 1.56788 1.03919 0
M  V30 4002 O 383.836 0.721811 1.66312 0
M  V30 4003 C 383.884 3.58774 -0.362447 0
M  V30 4004 O 382.988 4.07372 0.642033 0
M  V30 4005 H 382.329 0.64833 -0.143402 0
M  V30 4006 H 384.859 1.7677 -1.03023 0
M  V30 4007 H 384.869 4.07434 -0.214844 0
M  V30 4008 H 383.544 3.93096 -1.35824 0
M  V30 4009 H 382.121 3.70068 0.458688 0
M  V30 4010 N 384.306 0.507319 1.49211 0
M  V30 4011 C 385.722 0.163682 1.58758 0
M  V30 4012 C 385.922 -1.33208 1.51188 0
M  V30 4013 O 384.978 -2.10855 1.38911 0
M  V30 4014 C 386.291 0.746095 2.91297 0
M  V30 4015 C 387.839 0.712773 3.04776 0
M  V30 4016 C 388.314 1.27336 4.39943 0
M  V30 4017 N 389.805 1.23433 4.46451 0
M  V30 4018 C 390.54 1.63821 5.495 0
M  V30 4019 N 390.036 2.11832 6.5962 0
M  V30 4020 N 391.829 1.55198 5.4025 0
M  V30 4021 H 383.98 1.47972 1.52375 0
M  V30 4022 H 386.243 0.614147 0.722168 0
M  V30 4023 H 385.949 1.79534 3.02424 0
M  V30 4024 H 385.823 0.210137 3.76614 0
M  V30 4025 H 388.21 -0.327656 2.93275 0
M  V30 4026 H 388.291 1.28595 2.21127 0
M  V30 4027 H 387.935 2.3126 4.52196 0
M  V30 4028 H 387.865 0.676066 5.22242 0
M  V30 4029 H 390.356 0.882627 3.67448 0
M  V30 4030 H 390.669 2.40703 7.34358 0
M  V30 4031 H 389.014 2.1581 6.60644 0
M  V30 4032 H 392.205 1.17505 4.53112 0
M  V30 4033 H 392.378 1.86997 6.20432 0
M  V30 4034 N 385.784 -1.5574 0.241426 0
M  V30 4035 C 387.031 -1.9881 -0.384836 0
M  V30 4036 C 387.359 -1.12947 -1.58346 0
M  V30 4037 O 386.614 -0.178993 -1.9488 0
M  V30 4038 C 386.913 -3.47308 -0.843317 0
M  V30 4039 C 386.579 -4.50223 0.246946 0
M  V30 4040 C 385.241 -4.78088 0.546399 0
M  V30 4041 C 387.593 -5.11841 0.983282 0
M  V30 4042 C 384.921 -5.64846 1.58636 0
M  V30 4043 C 387.273 -5.99727 2.01272 0
M  V30 4044 C 385.937 -6.25927 2.31888 0
M  V30 4045 H 385.207 -0.727496 -0.140821 0
M  V30 4046 H 387.854 -1.8831 0.348106 0
M  V30 4047 H 386.159 -3.55112 -1.65537 0
M  V30 4048 H 387.856 -3.78017 -1.33806 0
M  V30 4049 H 384.446 -4.286 0.00340639 0
M  V30 4050 H 388.63 -4.90366 0.765182 0
M  V30 4051 H 383.886 -5.83403 1.82896 0
M  V30 4052 H 388.06 -6.46517 2.58823 0
M  V30 4053 H 385.687 -6.92949 3.12611 0
M  V30 4054 N 387.262 0.0317525 -1.57568 0
M  V30 4055 C 388.51 0.721676 -1.88776 0
M  V30 4056 C 388.831 1.76039 -0.838772 0
M  V30 4057 O 388.101 1.95482 0.127935 0
M  V30 4058 H 386.681 0.269534 -0.696678 0
M  V30 4059 H 389.343 -0.00165879 -1.949 0
M  V30 4060 H 388.439 1.21293 -2.87566 0
M  V30 4061 N 388.74 1.54641 0.303973 0
M  V30 4062 C 389.687 1.85386 1.37479 0
M  V30 4063 C 390.657 0.702528 1.50512 0
M  V30 4064 O 391.842 0.950867 1.65418 0
M  V30 4065 C 388.982 2.10413 2.73533 0
M  V30 4066 C 388.095 3.38049 2.68974 0
M  V30 4067 C 387.23 3.52934 3.97002 0
M  V30 4068 C 386.269 4.74373 3.86829 0
M  V30 4069 N 385.406 4.8608 5.06627 0
M  V30 4070 H 390.246 2.76732 1.1056 0
M  V30 4071 H 387.783 1.37034 0.534805 0
M  V30 4072 H 389.741 2.22919 3.52652 0
M  V30 4073 H 388.371 1.22338 2.98719 0
M  V30 4074 H 387.423 3.3418 1.81736 0
M  V30 4075 H 388.735 4.27288 2.57346 0
M  V30 4076 H 387.889 3.65088 4.84557 0
M  V30 4077 H 386.628 2.61824 4.1146 0
M  V30 4078 H 385.633 4.62255 2.97658 0
M  V30 4079 H 386.858 5.66888 3.73918 0
M  V30 4080 H 384.804 3.97891 5.21554 0
M  V30 4081 H 384.721 5.69315 4.9741 0
M  V30 4082 H 385.989 5.02587 5.95841 0
M  V30 4083 N 390.218 -0.567019 1.47046 0
M  V30 4084 C 391.465 -1.32462 1.53167 0
M  V30 4085 C 391.793 -1.93571 0.189841 0
M  V30 4086 O 391.048 -1.77865 -0.816243 0
M  V30 4087 C 391.347 -2.4623 2.59047 0
M  V30 4088 C 391.013 -2.03014 4.02612 0
M  V30 4089 C 389.675 -1.90944 4.41694 0
M  V30 4090 C 392.027 -1.69895 4.92732 0
M  V30 4091 C 389.355 -1.44035 5.68745 0
M  V30 4092 C 391.707 -1.2446 6.20236 0
M  V30 4093 C 390.371 -1.10979 6.5821 0
M  V30 4094 H 389.641 -0.484713 0.560477 0
M  V30 4095 H 392.288 -0.636888 1.80599 0
M  V30 4096 H 390.593 -3.20517 2.25335 0
M  V30 4097 H 392.29 -3.04427 2.61008 0
M  V30 4098 H 388.88 -2.13348 3.71726 0
M  V30 4099 H 393.064 -1.78098 4.63244 0
M  V30 4100 H 388.32 -1.32254 5.96925 0
M  V30 4101 H 392.494 -0.978924 6.89485 0
M  V30 4102 H 390.121 -0.744078 7.5655 0
M  V30 4103 N 391.696 -1.35014 -0.812953 0
M  V30 4104 C 392.945 -1.27269 -1.56479 0
M  V30 4105 C 393.258 0.152771 -1.95002 0
M  V30 4106 O 394.464 0.352451 -2.69203 0
M  V30 4107 C 392.92 -2.23159 -2.82362 0
M  V30 4108 C 392.528 -3.71016 -2.511 0
M  V30 4109 C 394.272 -2.24342 -3.60376 0
M  V30 4110 C 392.179 -4.58746 -3.73237 0
M  V30 4111 H 391.109 -0.472829 -0.587324 0
M  V30 4112 H 393.76 -1.6024 -0.894171 0
M  V30 4113 H 392.142 -1.83151 -3.51101 0
M  V30 4114 H 393.316 -4.1962 -1.90409 0
M  V30 4115 H 391.631 -3.72378 -1.86343 0
M  V30 4116 H 394.228 -2.87107 -4.51081 0
M  V30 4117 H 394.571 -1.24542 -3.97234 0
M  V30 4118 H 395.104 -2.62846 -2.98591 0
M  V30 4119 H 391.843 -5.59521 -3.41492 0
M  V30 4120 H 391.363 -4.14871 -4.33176 0
M  V30 4121 H 393.042 -4.73852 -4.40537 0
M  V30 4122 N 393.175 1.03435 -1.18907 0
M  V30 4123 C 394.591 1.28973 -0.940111 0
M  V30 4124 C 394.791 1.97676 0.390691 0
M  V30 4125 O 393.847 2.26127 1.12352 0
M  V30 4126 C 395.16 2.14221 -2.11021 0
M  V30 4127 C 396.708 2.27547 -2.14922 0
M  V30 4128 C 397.183 3.16164 -3.31367 0
M  V30 4129 N 398.674 3.23752 -3.31269 0
M  V30 4130 C 399.409 3.92495 -4.18014 0
M  V30 4131 N 398.905 4.63515 -5.14904 0
M  V30 4132 N 400.698 3.88838 -4.05908 0
M  V30 4133 H 392.849 0.57252 -2.04538 0
M  V30 4134 H 395.112 0.315184 -0.894071 0
M  V30 4135 H 394.818 1.71054 -3.073 0
M  V30 4136 H 394.692 3.14919 -2.0762 0
M  V30 4137 H 397.079 2.69947 -1.19217 0
M  V30 4138 H 397.16 1.26418 -2.22378 0
M  V30 4139 H 396.804 2.74474 -4.27348 0
M  V30 4140 H 396.734 4.17339 -3.21148 0
M  V30 4141 H 399.225 2.73167 -2.61129 0
M  V30 4142 H 399.538 5.13583 -5.77453 0
M  V30 4143 H 397.883 4.62398 -5.18857 0
M  V30 4144 H 401.074 3.32491 -3.29495 0
M  V30 4145 H 401.247 4.4214 -4.73726 0
M  V30 4146 N 394.653 0.992116 1.22453 0
M  V30 4147 C 395.902 0.662992 1.90492 0
M  V30 4148 C 396.215 -0.808407 1.78113 0
M  V30 4149 O 397.421 -1.24908 2.41061 0
M  V30 4150 C 395.877 1.1353 3.41524 0
M  V30 4151 C 395.485 2.63187 3.62542 0
M  V30 4152 C 397.229 0.880465 4.15269 0
M  V30 4153 C 395.136 3.04024 5.0727 0
M  V30 4154 H 394.066 0.244278 0.713333 0
M  V30 4155 H 396.717 1.20157 1.38688 0
M  V30 4156 H 395.099 0.52485 3.92506 0
M  V30 4157 H 396.273 3.2957 3.22056 0
M  V30 4158 H 394.588 2.86543 3.02129 0
M  V30 4159 H 397.185 1.16128 5.21937 0
M  V30 4160 H 397.528 -0.183408 4.15896 0
M  V30 4161 H 398.061 1.45307 3.70312 0
M  V30 4162 H 394.8 4.09584 5.11782 0
M  V30 4163 H 394.32 2.42343 5.48662 0
M  V30 4164 H 395.999 2.95282 5.75689 0
M  V30 4165 N 396.131 -1.37776 0.765217 0
M  V30 4166 C 397.079 -2.32209 0.134798 0
M  V30 4167 C 398.073 -1.54607 -0.692315 0
M  V30 4168 O 399.279 -1.70052 -0.590109 0
M  V30 4169 H 395.654 -0.751591 0.0248005 0
M  V30 4170 H 397.625 -2.8297 0.947119 0
M  V30 4171 C 396.374 -3.39841 -0.735063 0
M  V30 4172 H 395.697 -3.99654 -0.107991 0
M  V30 4173 H 397.137 -4.08296 -1.14326 0
M  V30 4174 C 395.596 -2.79378 -1.88281 0
M  V30 4175 O 396.126 -2.69608 -2.97783 0
M  V30 4176 N 394.332 -2.37016 -1.68142 0
M  V30 4177 H 393.879 -2.45162 -0.790772 0
M  V30 4178 H 393.837 -1.96905 -2.45104 0
M  V30 4179 N 397.609 -0.515225 -1.4894 0
M  V30 4180 C 398.856 0.024215 -2.02486 0
M  V30 4181 C 399.184 1.35671 -1.39368 0
M  V30 4182 O 398.439 1.88566 -0.523574 0
M  V30 4183 C 398.738 0.210595 -3.56779 0
M  V30 4184 C 398.404 -1.04569 -4.38607 0
M  V30 4185 C 397.066 -1.39002 -4.60686 0
M  V30 4186 C 399.418 -1.88008 -4.86109 0
M  V30 4187 C 396.746 -2.568 -5.27514 0
M  V30 4188 C 399.098 -3.04972 -5.54234 0
M  V30 4189 C 397.762 -3.39768 -5.74555 0
M  V30 4190 H 397.032 0.00886088 -0.740947 0
M  V30 4191 H 399.679 -0.678263 -1.79086 0
M  V30 4192 H 397.984 0.99572 -3.78936 0
M  V30 4193 H 399.681 0.642659 -3.95817 0
M  V30 4194 H 396.271 -0.767497 -4.21672 0
M  V30 4195 H 400.455 -1.62719 -4.68867 0
M  V30 4196 H 395.711 -2.8398 -5.41447 0
M  V30 4197 H 399.885 -3.69943 -5.90013 0
M  V30 4198 H 397.512 -4.31148 -6.26112 0
M  V30 4199 N 399.087 1.5561 -0.249682 0
M  V30 4200 C 400.364 1.90932 0.424761 0
M  V30 4201 C 400.744 1.17078 1.75658 0
M  V30 4202 O 400.092 0.289176 2.26663 0
M  V30 4203 C 400.302 3.43975 0.590109 0
M  V30 4204 C 401.65 4.15281 0.884714 0
M  V30 4205 O 402.674 3.49729 0.67587 0
M  V30 4206 O 401.533 5.31236 1.28259 0
M  V30 4207 H 398.627 0.794815 0.228468 0
M  V30 4208 H 401.173 1.67135 -0.293954 0
M  V30 4209 H 399.945 3.89748 -0.34818 0
M  V30 4210 H 399.568 3.73644 1.35926 0
M  V30 4211 N 400.565 -0.0233959 1.57583 0
M  V30 4212 C 401.811 -0.714119 1.89811 0
M  V30 4213 C 402.144 -1.74702 0.848113 0
M  V30 4214 O 401.419 -1.94023 -0.136135 0
M  V30 4215 C 401.702 -1.37853 3.32669 0
M  V30 4216 C 401.555 -0.358764 4.48367 0
M  V30 4217 C 402.874 -2.31101 3.7454 0
M  V30 4218 H 399.993 -0.25814 0.690314 0
M  V30 4219 H 402.635 0.0230927 1.89986 0
M  V30 4220 H 400.785 -2.00689 3.3265 0
M  V30 4221 H 402.457 0.268115 4.6052 0
M  V30 4222 H 400.7 0.321387 4.32608 0
M  V30 4223 H 401.371 -0.862242 5.45224 0
M  V30 4224 H 403.847 -1.78304 3.75961 0
M  V30 4225 H 402.723 -2.74567 4.75294 0
M  V30 4226 H 402.984 -3.18018 3.0711 0
M  V30 4227 N 402.043 -1.548 -0.295768 0
M  V30 4228 C 403.006 -1.85363 -1.34808 0
M  V30 4229 C 404.006 -0.726817 -1.43436 0
M  V30 4230 O 405.196 -0.995088 -1.42981 0
M  V30 4231 C 402.328 -2.03859 -2.73229 0
M  V30 4232 H 403.521 -2.7941 -1.08949 0
M  V30 4233 H 401.074 -1.46942 -0.532702 0
M  V30 4234 H 401.809 -1.12117 -3.04303 0
M  V30 4235 H 401.594 -2.8588 -2.68356 0
M  V30 4236 H 403.084 -2.28857 -3.49305 0
M  V30 4237 N 403.521 0.559213 -1.47345 0
M  V30 4238 C 404.769 1.31388 -1.53563 0
M  V30 4239 C 405.09 1.93985 -0.198678 0
M  V30 4240 O 404.36 1.79825 0.777167 0
M  V30 4241 H 402.94 0.487901 -0.565652 0
M  V30 4242 H 405.602 0.65315 -1.8363 0
M  V30 4243 H 404.698 2.10844 -2.30111 0
M  V30 4244 N 404.999 1.35443 0.805782 0
M  V30 4245 C 406.229 1.31687 1.59192 0
M  V30 4246 C 406.637 -0.10756 1.88894 0
M  V30 4247 O 405.98 -1.07017 1.49309 0
M  V30 4248 C 406.042 2.05686 2.94845 0
M  V30 4249 C 405.706 3.54868 2.87954 0
M  V30 4250 C 406.703 4.49444 2.61335 0
M  V30 4251 C 404.388 3.97528 3.07046 0
M  V30 4252 C 406.382 5.84655 2.53885 0
M  V30 4253 C 404.069 5.32833 2.99219 0
M  V30 4254 C 405.067 6.26209 2.72674 0
M  V30 4255 O 404.755 7.59032 2.64811 0
M  V30 4256 H 404.487 0.453878 0.50097 0
M  V30 4257 H 407.041 1.78892 1.0093 0
M  V30 4258 H 405.271 1.5312 3.55093 0
M  V30 4259 H 406.96 1.94998 3.55993 0
M  V30 4260 H 407.726 4.17804 2.46303 0
M  V30 4261 H 403.605 3.25233 3.26718 0
M  V30 4262 H 407.149 6.57508 2.33086 0
M  V30 4263 H 403.046 5.64087 3.13809 0
M  V30 4264 H 403.814 7.68967 2.80413 0
M  V30 4265 N 406.477 -1.02803 1.19454 0
M  V30 4266 C 407.726 -1.7562 0.991996 0
M  V30 4267 C 408.039 -1.89672 -0.477901 0
M  V30 4268 O 409.245 -2.59468 -0.799287 0
M  V30 4269 C 407.701 -3.15812 1.72601 0
M  V30 4270 C 407.309 -3.0981 3.23607 0
M  V30 4271 C 409.053 -3.92918 1.60674 0
M  V30 4272 C 406.96 -4.44939 3.89594 0
M  V30 4273 H 405.89 -0.658352 0.367543 0
M  V30 4274 H 408.541 -1.15044 1.42959 0
M  V30 4275 H 406.923 -3.7686 1.21624 0
M  V30 4276 H 408.097 -2.58138 3.81709 0
M  V30 4277 H 406.412 -2.46201 3.35819 0
M  V30 4278 H 409.009 -4.9287 2.07323 0
M  V30 4279 H 409.352 -4.12502 0.561025 0
M  V30 4280 H 409.885 -3.38472 2.09001 0
M  V30 4281 H 406.624 -4.30559 4.94267 0
M  V30 4282 H 406.144 -4.96664 3.36281 0
M  V30 4283 H 407.823 -5.1382 3.93189 0
M  V30 4284 N 407.956 -0.998596 -1.21925 0
M  V30 4285 C 409.202 -0.678667 -1.91107 0
M  V30 4286 C 409.535 0.78791 -1.77498 0
M  V30 4287 O 408.81 1.57043 -1.1475 0
M  V30 4288 C 409.093 -1.09245 -3.43129 0
M  V30 4289 C 408.946 -2.61801 -3.6576 0
M  V30 4290 C 410.265 -0.649984 -4.35274 0
M  V30 4291 H 407.384 -0.248025 -0.694012 0
M  V30 4292 H 410.026 -1.24314 -1.43688 0
M  V30 4293 H 408.176 -0.612171 -3.83647 0
M  V30 4294 H 409.848 -3.17543 -3.34611 0
M  V30 4295 H 408.091 -3.03609 -3.09845 0
M  V30 4296 H 408.762 -2.85804 -4.7225 0
M  V30 4297 H 411.238 -1.0626 -4.02303 0
M  V30 4298 H 410.114 -0.967743 -5.40302 0
M  V30 4299 H 410.375 0.449139 -4.39813 0
M  V30 4300 N 409.434 1.37368 -0.772513 0
M  V30 4301 C 410.682 1.99279 -0.336516 0
M  V30 4302 C 411.003 1.6163 1.09091 0
M  V30 4303 O 410.273 0.882109 1.74916 0
M  V30 4304 H 408.853 0.737063 -0.121435 0
M  V30 4305 H 411.515 1.67836 -0.990809 0
M  V30 4306 H 410.611 3.09332 -0.414763 0
M  V30 4307 N 410.912 0.523116 1.48665 0
M  V30 4308 C 411.875 -0.232592 2.28017 0
M  V30 4309 C 412.875 -0.874021 1.34972 0
M  V30 4310 O 414.065 -0.735132 1.57929 0
M  V30 4311 C 411.197 -1.33586 3.13636 0
M  V30 4312 H 412.39 0.464008 2.96289 0
M  V30 4313 H 409.943 0.278816 1.53793 0
M  V30 4314 H 410.678 -2.06593 2.4998 0
M  V30 4315 H 410.463 -0.881125 3.82071 0
M  V30 4316 H 411.953 -1.86759 3.73511 0
M  V30 4317 N 412.39 -1.55475 0.257931 0
M  V30 4318 C 413.338 -2.23244 -0.653076 0
M  V30 4319 C 414.332 -1.22366 -1.17144 0
M  V30 4320 O 415.538 -1.40347 -1.12706 0
M  V30 4321 H 411.913 -0.716247 -0.229117 0
M  V30 4322 H 413.884 -2.98343 -0.0584788 0
M  V30 4323 C 412.633 -2.95401 -1.83395 0
M  V30 4324 H 411.956 -3.72802 -1.44424 0
M  V30 4325 H 413.396 -3.46165 -2.44838 0
M  V30 4326 C 411.855 -1.99895 -2.71189 0
M  V30 4327 O 412.385 -1.53909 -3.71046 0
M  V30 4328 N 410.591 -1.6676 -2.3799 0
M  V30 4329 H 410.138 -2.04352 -1.56837 0
M  V30 4330 H 410.096 -1.03127 -2.97005 0
M  V30 4331 N 413.868 0.0150385 -1.57593 0
M  V30 4332 C 415.117 0.702115 -1.89085 0
M  V30 4333 C 415.43 1.75764 -0.858277 0
M  V30 4334 O 416.636 2.49829 -1.0629 0
M  V30 4335 C 415.092 1.29992 -3.35604 0
M  V30 4336 C 414.7 0.280007 -4.47124 0
M  V30 4337 C 416.444 1.96606 -3.76227 0
M  V30 4338 C 414.351 0.886949 -5.84711 0
M  V30 4339 H 413.281 0.265997 -0.705522 0
M  V30 4340 H 415.932 -0.0430408 -1.8345 0
M  V30 4341 H 414.314 2.09525 -3.36029 0
M  V30 4342 H 415.488 -0.489631 -4.58191 0
M  V30 4343 H 413.803 -0.284835 -4.15425 0
M  V30 4344 H 416.4 2.42893 -4.76347 0
M  V30 4345 H 416.743 2.79024 -3.08952 0
M  V30 4346 H 417.276 1.23828 -3.78036 0
M  V30 4347 H 414.015 0.101876 -6.55421 0
M  V30 4348 H 413.535 1.6261 -5.77337 0
M  V30 4349 H 415.214 1.39011 -6.3189 0
M  V30 4350 N 415.346 1.54954 0.287554 0
M  V30 4351 C 416.256 1.8991 1.37736 0
M  V30 4352 C 417.272 0.794701 1.54792 0
M  V30 4353 O 418.448 1.09243 1.69198 0
M  V30 4354 C 415.513 2.15108 2.71899 0
M  V30 4355 C 414.574 3.38752 2.63715 0
M  V30 4356 C 413.807 3.62739 3.91479 0
M  V30 4357 O 414.03 2.89492 4.91478 0
M  V30 4358 O 412.964 4.56267 3.92561 0
M  V30 4359 H 416.79 2.82652 1.11092 0
M  V30 4360 H 414.375 1.41315 0.484807 0
M  V30 4361 H 416.257 2.32806 3.51254 0
M  V30 4362 H 414.932 1.25551 2.9836 0
M  V30 4363 H 413.839 3.26405 1.82786 0
M  V30 4364 H 415.172 4.28483 2.42205 0
M  V30 4365 N 416.824 -0.551391 1.4764 0
M  V30 4366 C 418.052 -1.33357 1.58189 0
M  V30 4367 C 418.467 -1.87342 0.234199 0
M  V30 4368 O 417.824 -1.65301 -0.77343 0
M  V30 4369 C 417.875 -2.49942 2.61173 0
M  V30 4370 O 417.596 -1.98187 3.90709 0
M  V30 4371 C 419.097 -3.42072 2.8196 0
M  V30 4372 H 416.317 -0.40631 0.533998 0
M  V30 4373 H 418.861 -0.667367 1.93304 0
M  V30 4374 H 417.016 -3.12489 2.28975 0
M  V30 4375 H 417.43 -2.74342 4.47031 0
M  V30 4376 H 418.904 -4.20278 3.57869 0
M  V30 4377 H 419.381 -3.95978 1.89995 0
M  V30 4378 H 419.987 -2.85336 3.15378 0
M  V30 4379 N 418.302 -1.35869 -0.798587 0
M  V30 4380 C 419.532 -1.32529 -1.58491 0
M  V30 4381 C 419.94 0.0975405 -1.88948 0
M  V30 4382 O 419.283 1.06224 -1.49874 0
M  V30 4383 C 419.345 -2.07247 -2.9375 0
M  V30 4384 C 419.009 -3.56391 -2.86068 0
M  V30 4385 C 420.006 -4.50824 -2.58947 0
M  V30 4386 C 417.691 -3.9915 -3.04933 0
M  V30 4387 C 419.685 -5.85993 -2.5078 0
M  V30 4388 C 417.372 -5.34413 -2.96389 0
M  V30 4389 C 418.37 -6.27646 -2.69349 0
M  V30 4390 O 418.058 -7.60426 -2.60782 0
M  V30 4391 H 417.79 -0.456529 -0.498556 0
M  V30 4392 H 420.344 -1.79425 -0.999799 0
M  V30 4393 H 418.574 -1.55001 -3.54276 0
M  V30 4394 H 420.263 -1.96883 -3.54954 0
M  V30 4395 H 421.029 -4.19104 -2.44084 0
M  V30 4396 H 416.908 -3.26961 -3.24989 0
M  V30 4397 H 420.452 -6.58735 -2.29595 0
M  V30 4398 H 416.349 -5.65743 -3.10813 0
M  V30 4399 H 417.117 -7.70444 -2.76331 0
M  V30 4400 N 419.78 1.02168 -1.19998 0
M  V30 4401 C 420.71 2.12488 -0.96804 0
M  V30 4402 C 421.691 1.69799 0.101185 0
M  V30 4403 O 422.876 1.94121 -0.0552993 0
M  V30 4404 C 420.006 3.43479 -0.513776 0
M  V30 4405 C 418.96 3.99884 -1.52566 0
M  V30 4406 C 418.286 5.26582 -0.928214 0
M  V30 4407 C 419.586 4.33861 -2.90795 0
M  V30 4408 H 421.28 2.32149 -1.89069 0
M  V30 4409 H 418.826 1.11564 -0.910468 0
M  V30 4410 H 420.779 4.20036 -0.338774 0
M  V30 4411 H 419.503 3.23561 0.444493 0
M  V30 4412 H 418.162 3.25429 -1.68794 0
M  V30 4413 H 417.81 5.02986 0.0378289 0
M  V30 4414 H 417.51 5.65284 -1.60397 0
M  V30 4415 H 419.034 6.05799 -0.764167 0
M  V30 4416 H 420.448 5.01327 -2.78109 0
M  V30 4417 H 418.845 4.83664 -3.55231 0
M  V30 4418 H 419.915 3.42848 -3.42904 0
M  V30 4419 N 421.258 1.00505 1.21394 0
M  V30 4420 C 422.188 0.585684 2.26035 0
M  V30 4421 C 423.169 -0.393525 1.65485 0
M  V30 4422 O 424.354 -0.281497 1.92149 0
M  V30 4423 C 421.484 -0.0884283 3.47187 0
M  V30 4424 C 420.438 0.810567 4.20254 0
M  V30 4425 C 419.764 0.00286382 5.347 0
M  V30 4426 C 421.064 2.1132 4.77641 0
M  V30 4427 H 422.758 1.46039 2.61368 0
M  V30 4428 H 420.304 0.703648 1.25638 0
M  V30 4429 H 422.257 -0.393286 4.19561 0
M  V30 4430 H 420.981 -0.997766 3.10986 0
M  V30 4431 H 419.64 1.09925 3.49731 0
M  V30 4432 H 419.288 -0.907765 4.94741 0
M  V30 4433 H 418.988 0.601444 5.84514 0
M  V30 4434 H 420.512 -0.295808 6.09883 0
M  V30 4435 H 421.926 1.87148 5.41893 0
M  V30 4436 H 420.323 2.66164 5.37845 0
M  V30 4437 H 421.393 2.78393 3.9702 0
M  V30 4438 N 422.737 -1.36956 0.779787 0
M  V30 4439 C 423.647 -2.33965 0.172491 0
M  V30 4440 C 424.663 -1.60574 -0.670222 0
M  V30 4441 O 425.839 -1.92617 -0.588263 0
M  V30 4442 C 422.904 -3.39761 -0.690173 0
M  V30 4443 C 421.965 -4.28964 0.169924 0
M  V30 4444 C 421.198 -5.29707 -0.651662 0
M  V30 4445 O 421.421 -5.38238 -1.88827 0
M  V30 4446 O 420.355 -6.01873 -0.0566264 0
M  V30 4447 H 424.181 -2.87647 0.974321 0
M  V30 4448 H 421.766 -1.39258 0.541078 0
M  V30 4449 H 423.648 -4.04471 -1.1824 0
M  V30 4450 H 422.323 -2.88394 -1.47006 0
M  V30 4451 H 421.23 -3.67326 0.708696 0
M  V30 4452 H 422.563 -4.83656 0.913085 0
M  V30 4453 N 424.215 -0.530993 -1.48385 0
M  V30 4454 C 425.162 0.231223 -2.29639 0
M  V30 4455 C 426.132 0.932864 -1.37429 0
M  V30 4456 O 427.317 0.933692 -1.66394 0
M  V30 4457 C 424.457 1.27155 -3.2082 0
M  V30 4458 C 423.57 0.578655 -4.28107 0
M  V30 4459 C 422.705 1.602 -5.06467 0
M  V30 4460 C 421.744 0.892625 -6.05556 0
M  V30 4461 N 420.881 1.86157 -6.76971 0
M  V30 4462 H 425.721 -0.467848 -2.94305 0
M  V30 4463 H 423.258 -0.242556 -1.45086 0
M  V30 4464 H 425.216 1.88703 -3.72085 0
M  V30 4465 H 423.846 1.939 -2.58075 0
M  V30 4466 H 422.898 -0.150782 -3.80101 0
M  V30 4467 H 424.21 0.0217065 -4.98795 0
M  V30 4468 H 423.364 2.29173 -5.61751 0
M  V30 4469 H 422.103 2.19285 -4.35621 0
M  V30 4470 H 421.108 0.188829 -5.49476 0
M  V30 4471 H 422.333 0.307878 -6.78402 0
M  V30 4472 H 420.279 2.44147 -6.08875 0
M  V30 4473 H 420.196 1.35608 -7.43738 0
M  V30 4474 H 421.464 2.54325 -7.36844 0
M  V30 4475 N 425.693 1.55336 -0.266172 0
M  V30 4476 C 426.918 2.04258 0.359661 0
M  V30 4477 C 427.343 1.14359 1.49344 0
M  V30 4478 O 426.701 0.140369 1.80756 0
M  V30 4479 C 426.749 3.50997 0.826635 0
M  V30 4480 O 425.853 3.64204 1.93466 0
M  V30 4481 H 425.194 0.659668 0.075727 0
M  V30 4482 H 427.724 2.00694 -0.39786 0
M  V30 4483 H 427.734 3.9219 1.12477 0
M  V30 4484 H 426.409 4.159 -0.00293032 0
M  V30 4485 H 424.986 3.34913 1.63974 0
M  V30 4486 N 427.171 -0.0066808 1.57599 0
M  V30 4487 C 428.587 -0.36267 1.55425 0
M  V30 4488 C 428.787 -1.75209 0.995187 0
M  V30 4489 O 427.843 -2.44616 0.626058 0
M  V30 4490 C 429.156 -0.244017 2.99708 0
M  V30 4491 C 430.704 -0.319451 3.11366 0
M  V30 4492 C 431.179 -0.229998 4.57422 0
M  V30 4493 N 432.67 -0.288105 4.62303 0
M  V30 4494 C 433.405 -0.242127 5.72889 0
M  V30 4495 N 432.901 -0.147133 6.92644 0
M  V30 4496 N 434.694 -0.293502 5.61333 0
M  V30 4497 H 426.845 0.902314 1.92281 0
M  V30 4498 H 429.108 0.34525 0.882896 0
M  V30 4499 H 428.814 0.711678 3.44424 0
M  V30 4500 H 428.688 -1.02877 3.629 0
M  V30 4501 H 431.075 -1.26559 2.66584 0
M  V30 4502 H 431.156 0.495055 2.50964 0
M  V30 4503 H 430.8 0.712566 5.02877 0
M  V30 4504 H 430.73 -1.0629 5.15761 0
M  V30 4505 H 433.221 -0.363126 3.76151 0
M  V30 4506 H 433.534 -0.117763 7.7271 0
M  V30 4507 H 431.879 -0.112857 6.94908 0
M  V30 4508 H 435.07 -0.365864 4.66668 0
M  V30 4509 H 435.243 -0.254204 6.47501 0
M  V30 4510 N 428.649 -1.55105 -0.279332 0
M  V30 4511 C 429.612 -1.86783 -1.32834 0
M  V30 4512 C 430.612 -0.74199 -1.42657 0
M  V30 4513 O 431.802 -1.0102 -1.41918 0
M  V30 4514 C 428.934 -2.06746 -2.71052 0
M  V30 4515 H 430.127 -2.8055 -1.05979 0
M  V30 4516 H 427.68 -1.47499 -0.517087 0
M  V30 4517 H 428.415 -1.15339 -3.03097 0
M  V30 4518 H 428.2 -2.88711 -2.65309 0
M  V30 4519 H 429.69 -2.32549 -3.46858 0
M  V30 4520 N 430.127 0.543554 -1.4793 0
M  V30 4521 C 431.376 1.29649 -1.54512 0
M  V30 4522 C 431.689 1.94382 -0.217973 0
M  V30 4523 O 432.895 2.71017 -0.161908 0
M  V30 4524 C 431.351 2.35175 -2.72435 0
M  V30 4525 C 430.959 1.76572 -4.11736 0
M  V30 4526 C 432.703 3.11564 -2.8832 0
M  V30 4527 C 430.61 2.79958 -5.20939 0
M  V30 4528 H 429.54 0.487541 -0.57517 0
M  V30 4529 H 432.191 0.575708 -1.74235 0
M  V30 4530 H 430.573 3.10229 -2.46118 0
M  V30 4531 H 431.747 1.07799 -4.48013 0
M  V30 4532 H 430.062 1.12722 -4.00852 0
M  V30 4533 H 432.659 3.88794 -3.67074 0
M  V30 4534 H 433.002 3.66594 -1.97268 0
M  V30 4535 H 433.535 2.43623 -3.14472 0
M  V30 4536 H 430.274 2.29766 -6.13912 0
M  V30 4537 H 429.794 3.47101 -4.89164 0
M  V30 4538 H 431.473 3.43198 -5.48474 0
M  V30 4539 N 431.605 1.3629 0.791371 0
M  V30 4540 C 433.021 1.16661 1.08914 0
M  V30 4541 C 433.221 -0.0106266 2.01497 0
M  V30 4542 O 432.277 -0.676596 2.43266 0
M  V30 4543 C 433.59 2.47656 1.70549 0
M  V30 4544 C 435.138 2.54002 1.82899 0
M  V30 4545 C 435.613 3.85078 2.47949 0
M  V30 4546 N 437.104 3.86413 2.5542 0
M  V30 4547 C 437.839 4.84572 3.06557 0
M  V30 4548 N 437.335 5.93124 3.58016 0
M  V30 4549 N 439.128 4.71994 3.05251 0
M  V30 4550 H 431.279 2.11668 0.176238 0
M  V30 4551 H 433.542 0.937486 0.140796 0
M  V30 4552 H 433.248 3.34059 1.09989 0
M  V30 4553 H 433.122 2.63319 2.70079 0
M  V30 4554 H 435.509 1.68018 2.42598 0
M  V30 4555 H 435.59 2.42239 0.821808 0
M  V30 4556 H 435.234 4.71467 1.88895 0
M  V30 4557 H 435.164 3.94135 3.49235 0
M  V30 4558 H 437.655 3.07988 2.18979 0
M  V30 4559 H 437.968 6.63999 3.95381 0
M  V30 4560 H 436.313 5.96796 3.56173 0
M  V30 4561 H 439.504 3.86321 2.64336 0
M  V30 4562 H 439.677 5.48653 3.44796 0
M  V30 4563 N 433.083 -1.0153 1.20538 0
M  V30 4564 C 434.015 -2.10224 0.913155 0
M  V30 4565 C 435.028 -1.62495 -0.0995998 0
M  V30 4566 O 436.217 -1.78014 0.131582 0
M  V30 4567 C 433.317 -3.37111 0.347717 0
M  V30 4568 C 432.49 -4.13971 1.41233 0
M  V30 4569 C 431.549 -5.19158 0.857976 0
M  V30 4570 O 430.575 -5.48 1.53897 0
M  V30 4571 N 431.777 -5.7955 -0.331966 0
M  V30 4572 H 434.542 -2.35879 1.84881 0
M  V30 4573 H 432.103 -1.17931 1.10923 0
M  V30 4574 H 434.095 -4.04683 -0.0373026 0
M  V30 4575 H 432.665 -3.08696 -0.492527 0
M  V30 4576 H 431.885 -3.41351 1.97163 0
M  V30 4577 H 433.173 -4.62103 2.12928 0
M  V30 4578 H 432.571 -5.58455 -0.902478 0
M  V30 4579 H 431.128 -6.48464 -0.65861 0
M  V30 4580 N 434.561 -1.01147 -1.20859 0
M  V30 4581 C 435.524 -0.582224 -2.21682 0
M  V30 4582 C 436.524 0.344887 -1.57058 0
M  V30 4583 O 437.714 0.134281 -1.73682 0
M  V30 4584 C 434.846 0.150496 -3.40568 0
M  V30 4585 H 436.039 -1.47408 -2.61172 0
M  V30 4586 H 433.592 -0.800695 -1.34233 0
M  V30 4587 H 434.327 1.0575 -3.06574 0
M  V30 4588 H 434.112 -0.515444 -3.88697 0
M  V30 4589 H 435.602 0.438344 -4.15293 0
M  V30 4590 N 436.039 1.36541 -0.78704 0
M  V30 4591 C 436.986 2.30082 -0.181901 0
M  V30 4592 C 437.956 1.5186 0.672896 0
M  V30 4593 O 439.141 1.80374 0.622072 0
M  V30 4594 C 436.281 3.3835 0.679197 0
M  V30 4595 C 435.394 4.31565 -0.193882 0
M  V30 4596 C 434.529 5.26915 0.673364 0
M  V30 4597 C 433.568 6.11769 -0.201315 0
M  V30 4598 N 432.705 6.99315 0.624777 0
M  V30 4599 H 437.545 2.81248 -0.985064 0
M  V30 4600 H 435.082 1.38437 -0.497342 0
M  V30 4601 H 437.04 3.99767 1.19341 0
M  V30 4602 H 435.67 2.8851 1.44781 0
M  V30 4603 H 434.722 3.71323 -0.826044 0
M  V30 4604 H 436.034 4.91191 -0.867937 0
M  V30 4605 H 435.188 5.9361 1.25348 0
M  V30 4606 H 433.927 4.67737 1.38105 0
M  V30 4607 H 432.932 5.44039 -0.793849 0
M  V30 4608 H 434.157 6.73022 -0.906568 0
M  V30 4609 H 432.103 6.42648 1.3168 0
M  V30 4610 H 432.02 7.56 0.00835237 0
M  V30 4611 H 433.288 7.70382 1.18879 0
M  V30 4612 N 437.518 0.538854 1.48102 0
M  V30 4613 C 438.795 -0.0568108 1.95517 0
M  V30 4614 C 439.175 -1.50408 1.48124 0
M  V30 4615 O 438.523 -2.17133 0.711727 0
M  V30 4616 C 438.733 0.0696262 3.48931 0
M  V30 4617 C 440.081 -0.0851202 4.24515 0
M  V30 4618 O 441.105 -0.0037347 3.562 0
M  V30 4619 O 439.964 -0.257025 5.45895 0
M  V30 4620 H 437.058 -0.0743695 0.823649 0
M  V30 4621 H 439.604 0.604081 1.58584 0
M  V30 4622 H 438.376 1.07744 3.76174 0
M  V30 4623 H 437.999 -0.629714 3.92582 0
M  V30 4624 N 438.996 -1.55193 0.274407 0
M  V30 4625 C 439.906 -2.26164 -0.623473 0
M  V30 4626 C 440.922 -1.28729 -1.17068 0
M  V30 4627 O 442.098 -1.61663 -1.20112 0
M  V30 4628 C 439.163 -2.96833 -1.7914 0
M  V30 4629 C 438.224 -4.09745 -1.28093 0
M  V30 4630 C 437.457 -4.77034 -2.3932 0
M  V30 4631 O 437.68 -4.4353 -3.5866 0
M  V30 4632 O 436.614 -5.64996 -2.07516 0
M  V30 4633 H 440.44 -3.03661 -0.0485661 0
M  V30 4634 H 438.025 -1.49341 0.0418382 0
M  V30 4635 H 439.907 -3.41248 -2.4724 0
M  V30 4636 H 438.582 -2.22253 -2.35341 0
M  V30 4637 H 437.489 -3.69787 -0.566416 0
M  V30 4638 H 438.822 -4.86224 -0.764683 0
M  V30 4639 N 440.474 -0.00167713 -1.576 0
M  V30 4640 C 441.714 0.687302 -1.92498 0
M  V30 4641 C 442.078 1.70844 -0.876144 0
M  V30 4642 O 443.279 2.44792 -1.11043 0
M  V30 4643 C 441.55 1.31217 -3.32441 0
M  V30 4644 S 443.109 2.02604 -3.89226 0
M  V30 4645 H 439.927 0.226985 -0.673794 0
M  V30 4646 H 442.529 -0.0587666 -1.95412 0
M  V30 4647 H 441.233 0.556164 -4.06614 0
M  V30 4648 H 440.764 2.09613 -3.32905 0
M  V30 4649 H 442.779 3.30137 -3.70438 0
M  V30 4650 N 441.952 1.55251 0.271103 0
M  V30 4651 C 443.177 1.80306 1.02491 0
M  V30 4652 C 443.602 0.575457 1.79081 0
M  V30 4653 O 442.96 -0.474987 1.74967 0
M  V30 4654 C 443.008 3.02832 1.95768 0
M  V30 4655 O 442.112 2.78051 3.04568 0
M  V30 4656 H 441.453 0.595896 0.292923 0
M  V30 4657 H 443.983 2.02397 0.299436 0
M  V30 4658 H 443.993 3.31616 2.37686 0
M  V30 4659 H 442.668 3.9183 1.39434 0
M  V30 4660 H 441.245 2.60369 2.66951 0
M  V30 4661 N 443.43 -0.535701 1.48216 0
M  V30 4662 C 444.677 -1.29183 1.55942 0
M  V30 4663 C 445.005 -1.93125 0.230857 0
M  V30 4664 O 444.26 -1.79556 -0.778331 0
M  V30 4665 C 444.559 -2.4068 2.64212 0
M  V30 4666 C 444.225 -1.94428 4.06827 0
M  V30 4667 C 442.887 -1.81532 4.45645 0
M  V30 4668 C 445.239 -1.59405 4.96225 0
M  V30 4669 C 442.567 -1.31939 5.71672 0
M  V30 4670 C 444.919 -1.11276 6.22736 0
M  V30 4671 C 443.583 -0.969924 6.60416 0
M  V30 4672 H 442.853 -0.472715 0.570632 0
M  V30 4673 H 445.5 -0.598437 1.81909 0
M  V30 4674 H 443.805 -3.15666 2.32083 0
M  V30 4675 H 445.502 -2.98822 2.67407 0
M  V30 4676 H 442.092 -2.05415 3.76168 0
M  V30 4677 H 446.276 -1.68231 4.66917 0
M  V30 4678 H 441.532 -1.19562 5.99596 0
M  V30 4679 H 445.706 -0.832453 6.91407 0
M  V30 4680 H 443.333 -0.583436 7.57958 0
M  V30 4681 N 444.908 -1.36708 -0.784132 0
M  V30 4682 C 445.858 -1.2799 -1.88686 0
M  V30 4683 C 446.842 -0.170282 -1.59996 0
M  V30 4684 O 448.034 -0.403571 -1.72338 0
M  V30 4685 C 445.163 -1.07674 -3.25977 0
M  V30 4686 C 444.249 -2.23127 -3.60659 0
M  V30 4687 N 444.64 -3.48467 -3.66612 0
M  V30 4688 C 442.938 -2.15009 -3.90752 0
M  V30 4689 C 443.639 -4.24525 -3.97685 0
M  V30 4690 N 442.615 -3.53524 -4.12943 0
M  V30 4691 H 446.417 -2.22927 -1.91522 0
M  V30 4692 H 443.931 -1.29503 -0.979933 0
M  V30 4693 H 445.928 -0.995151 -4.04849 0
M  V30 4694 H 444.588 -0.13643 -3.24413 0
M  V30 4695 H 445.599 -3.82534 -3.49125 0
M  V30 4696 H 442.276 -1.28963 -3.97083 0
M  V30 4697 H 443.666 -5.32944 -4.0917 0
M  V30 4698 N 446.386 1.0089 -1.21074 0
M  V30 4699 C 447.635 1.74019 -1.01981 0
M  V30 4700 C 447.948 1.90408 0.447665 0
M  V30 4701 O 449.154 2.60707 0.757906 0
M  V30 4702 C 447.61 3.13026 -1.77603 0
M  V30 4703 C 447.218 3.04623 -3.28495 0
M  V30 4704 C 448.962 3.90312 -1.66904 0
M  V30 4705 C 446.869 4.38685 -3.96623 0
M  V30 4706 H 445.799 0.652422 -0.377971 0
M  V30 4707 H 448.45 1.12755 -1.44771 0
M  V30 4708 H 446.832 3.74878 -1.27604 0
M  V30 4709 H 448.006 2.52032 -3.85767 0
M  V30 4710 H 446.321 2.40827 -3.39693 0
M  V30 4711 H 448.918 4.8951 -2.15138 0
M  V30 4712 H 449.261 4.11558 -0.62658 0
M  V30 4713 H 449.794 3.35104 -2.14359 0
M  V30 4714 H 446.533 4.22641 -5.01054 0
M  V30 4715 H 446.053 4.91252 -3.4414 0
M  V30 4716 H 447.732 5.075 -4.01314 0
M  V30 4717 N 447.864 1.01787 1.20321 0
M  V30 4718 C 449.111 0.707936 1.89722 0
M  V30 4719 C 449.439 -0.762535 1.78929 0
M  V30 4720 O 448.694 -1.56977 1.16861 0
M  V30 4721 C 448.993 1.09076 3.40349 0
M  V30 4722 C 448.659 2.55765 3.71342 0
M  V30 4723 C 447.321 2.95845 3.79511 0
M  V30 4724 C 449.673 3.50723 3.85542 0
M  V30 4725 C 447.001 4.2982 3.99339 0
M  V30 4726 C 449.353 4.84387 4.06881 0
M  V30 4727 C 448.017 5.24172 4.1328 0
M  V30 4728 H 447.287 0.259052 0.694243 0
M  V30 4729 H 449.934 1.27868 1.42555 0
M  V30 4730 H 448.239 0.438453 3.89339 0
M  V30 4731 H 449.936 0.828636 3.92345 0
M  V30 4732 H 446.526 2.2371 3.65584 0
M  V30 4733 H 450.71 3.20916 3.78585 0
M  V30 4734 H 445.966 4.60196 4.02529 0
M  V30 4735 H 450.14 5.57891 4.1681 0
M  V30 4736 H 447.767 6.27997 4.28396 0
M  V30 4737 N 449.342 -1.36122 0.79427 0
M  V30 4738 C 450.572 -2.03067 0.380437 0
M  V30 4739 C 450.98 -1.60018 -1.00949 0
M  V30 4740 O 450.323 -0.787425 -1.65968 0
M  V30 4741 C 450.385 -3.57587 0.37034 0
M  V30 4742 C 450.049 -4.23855 1.70867 0
M  V30 4743 C 451.046 -4.46404 2.66496 0
M  V30 4744 C 448.731 -4.61229 1.9893 0
M  V30 4745 C 450.725 -5.05412 3.88378 0
M  V30 4746 C 448.412 -5.19953 3.21079 0
M  V30 4747 C 449.41 -5.41985 4.15621 0
M  V30 4748 O 449.098 -5.99475 5.35616 0
M  V30 4749 H 448.83 -0.658168 0.154243 0
M  V30 4750 H 451.384 -1.7498 1.0757 0
M  V30 4751 H 449.614 -3.84814 -0.381444 0
M  V30 4752 H 451.303 -4.05895 -0.0194894 0
M  V30 4753 H 452.069 -4.17921 2.46103 0
M  V30 4754 H 447.948 -4.43402 1.26158 0
M  V30 4755 H 451.492 -5.22524 4.62185 0
M  V30 4756 H 447.389 -5.47862 3.41347 0
M  V30 4757 H 448.157 -6.17937 5.36745 0
M  V30 4758 N 450.82 -0.546701 -1.47814 0
M  V30 4759 C 451.752 0.244196 -2.27895 0
M  V30 4760 C 452.765 0.88911 -1.36377 0
M  V30 4761 O 453.954 0.764733 -1.61289 0
M  V30 4762 C 451.054 1.36252 -3.10304 0
M  V30 4763 C 450.227 0.816382 -4.29714 0
M  V30 4764 C 449.286 1.81789 -4.93801 0
M  V30 4765 O 448.312 1.36818 -5.52512 0
M  V30 4766 N 449.514 3.15085 -4.87547 0
M  V30 4767 H 452.279 -0.442694 -2.96412 0
M  V30 4768 H 449.84 -0.382095 -1.57327 0
M  V30 4769 H 451.832 2.03102 -3.50045 0
M  V30 4770 H 450.402 1.95281 -2.44099 0
M  V30 4771 H 449.622 -0.0285981 -3.9419 0
M  V30 4772 H 450.91 0.430668 -5.06974 0
M  V30 4773 H 450.308 3.54275 -4.41028 0
M  V30 4774 H 448.865 3.77522 -5.31339 0
M  V30 4775 N 452.299 1.55045 -0.282633 0
M  V30 4776 C 453.229 2.2579 0.595066 0
M  V30 4777 C 454.21 1.25074 1.15284 0
M  V30 4778 O 455.395 1.5381 1.18559 0
M  V30 4779 C 452.525 2.98472 1.77572 0
M  V30 4780 C 451.479 4.0618 1.34914 0
M  V30 4781 C 450.805 4.66477 2.6135 0
M  V30 4782 C 452.105 5.1996 0.493821 0
M  V30 4783 H 453.799 2.994 0.00505653 0
M  V30 4784 H 451.345 1.44 0.000992001 0
M  V30 4785 H 453.298 3.46677 2.39568 0
M  V30 4786 H 452.022 2.2241 2.39168 0
M  V30 4787 H 450.681 3.58797 0.752338 0
M  V30 4788 H 450.329 3.87074 3.2122 0
M  V30 4789 H 450.029 5.39207 2.33516 0
M  V30 4790 H 451.553 5.17435 3.24181 0
M  V30 4791 H 452.967 5.64172 1.01898 0
M  V30 4792 H 451.364 5.99299 0.310047 0
M  V30 4793 H 452.434 4.82462 -0.485593 0
M  V30 4794 N 453.777 0.010035 1.57597 0
M  V30 4795 C 454.707 -0.976857 2.12084 0
M  V30 4796 C 455.688 -1.35191 1.03235 0
M  V30 4797 O 456.873 -1.43389 1.3097 0
M  V30 4798 C 454.003 -2.26548 2.63236 0
M  V30 4799 C 452.957 -2.03175 3.76701 0
M  V30 4800 C 452.283 -3.38138 4.14206 0
M  V30 4801 C 453.583 -1.38625 5.03568 0
M  V30 4802 H 455.277 -0.523145 2.94794 0
M  V30 4803 H 452.823 -0.250195 1.4181 0
M  V30 4804 H 454.776 -2.95952 2.99984 0
M  V30 4805 H 453.5 -2.74051 1.77661 0
M  V30 4806 H 452.159 -1.36195 3.40362 0
M  V30 4807 H 451.807 -3.83363 3.25641 0
M  V30 4808 H 451.507 -3.23312 4.90656 0
M  V30 4809 H 453.031 -4.08841 4.53521 0
M  V30 4810 H 454.445 -1.98 5.38023 0
M  V30 4811 H 452.842 -1.34256 5.84889 0
M  V30 4812 H 453.912 -0.356722 4.83586 0
M  V30 4813 N 455.255 -1.55392 -0.262866 0
M  V30 4814 C 456.503 -1.76127 -0.991147 0
M  V30 4815 C 456.824 -0.571083 -1.8645 0
M  V30 4816 O 456.094 0.413698 -1.91482 0
M  V30 4817 H 454.674 -0.649528 -0.368948 0
M  V30 4818 H 457.336 -1.9281 -0.284655 0
M  V30 4819 H 456.432 -2.6663 -1.62219 0
M  V30 4820 N 456.733 0.527833 -1.48498 0
M  V30 4821 C 457.981 1.28101 -1.56316 0
M  V30 4822 C 458.302 1.9352 -0.239781 0
M  V30 4823 O 457.572 1.81433 0.738849 0
M  V30 4824 H 456.152 0.475793 -0.575873 0
M  V30 4825 H 458.814 0.614052 -1.84974 0
M  V30 4826 H 457.91 2.05916 -2.34532 0
M  V30 4827 N 458.211 1.37122 0.776871 0
M  V30 4828 C 459.174 1.32301 1.8716 0
M  V30 4829 C 460.174 0.228099 1.59174 0
M  V30 4830 O 461.364 0.483642 1.67352 0
M  V30 4831 C 458.496 1.054 3.24197 0
M  V30 4832 H 459.689 2.29673 1.92848 0
M  V30 4833 H 457.242 1.22077 0.97606 0
M  V30 4834 H 457.977 0.0853872 3.24188 0
M  V30 4835 H 457.762 1.84648 3.45901 0
M  V30 4836 H 459.252 1.04664 4.04271 0
M  V30 4837 N 459.689 -1.00246 1.21608 0
M  V30 4838 C 460.937 -1.73717 1.0328 0
M  V30 4839 C 461.258 -1.90102 -0.434318 0
M  V30 4840 O 460.528 -1.45376 -1.31311 0
M  V30 4841 H 459.108 -0.643613 0.379172 0
M  V30 4842 H 461.77 -1.20787 1.52959 0
M  V30 4843 H 460.866 -2.73535 1.50283 0
M  V30 4844 N 461.167 -1.02423 -1.1978 0
M  V30 4845 C 462.077 -0.610919 -2.26506 0
M  V30 4846 C 463.093 0.355152 -1.70337 0
M  V30 4847 O 464.269 0.214195 -2.00258 0
M  V30 4848 C 461.334 0.0365921 -3.46681 0
M  V30 4849 C 460.395 -0.976389 -4.18049 0
M  V30 4850 C 459.628 -0.359683 -5.32487 0
M  V30 4851 O 459.851 0.838601 -5.64202 0
M  V30 4852 O 458.785 -1.08022 -5.92127 0
M  V30 4853 H 462.611 -1.49965 -2.64091 0
M  V30 4854 H 460.196 -0.794156 -1.26545 0
M  V30 4855 H 462.078 0.39786 -4.19518 0
M  V30 4856 H 460.753 0.899398 -3.10954 0
M  V30 4857 H 459.66 -1.38916 -3.47352 0
M  V30 4858 H 460.993 -1.80941 -4.57735 0
M  V30 4859 N 462.645 1.35699 -0.801477 0
M  V30 4860 C 463.577 2.28598 -0.166028 0
M  V30 4861 C 464.59 1.50044 0.631721 0
M  V30 4862 O 465.779 1.72339 0.464921 0
M  V30 4863 C 462.879 3.29625 0.787451 0
M  V30 4864 C 462.052 4.37384 0.037171 0
M  V30 4865 C 461.111 5.183 0.908375 0
M  V30 4866 O 460.137 5.68053 0.361189 0
M  V30 4867 N 461.339 5.35912 2.23112 0
M  V30 4868 H 464.104 2.83771 -0.964071 0
M  V30 4869 H 461.665 1.47994 -0.656469 0
M  V30 4870 H 463.657 3.80648 1.37439 0
M  V30 4871 H 462.227 2.75004 1.48632 0
M  V30 4872 H 461.447 3.87364 -0.730935 0
M  V30 4873 H 462.735 5.0653 -0.480109 0
M  V30 4874 H 462.133 4.97125 2.69968 0
M  V30 4875 H 460.69 5.90133 2.76741 0
M  V30 4876 N 464.123 0.554532 1.47522 0
M  V30 4877 C 465.053 -0.182974 2.32782 0
M  V30 4878 C 466.034 -0.911377 1.43624 0
M  V30 4879 O 467.219 -0.892366 1.72483 0
M  V30 4880 C 464.349 -1.21513 3.25349 0
M  V30 4881 C 463.303 -0.603355 4.23726 0
M  V30 4882 C 462.629 -1.73995 5.05598 0
M  V30 4883 C 463.929 0.441121 5.20434 0
M  V30 4884 H 465.623 0.52882 2.94693 0
M  V30 4885 H 463.169 0.255759 1.41711 0
M  V30 4886 H 465.122 -1.73922 3.83835 0
M  V30 4887 H 463.846 -1.95683 2.61487 0
M  V30 4888 H 462.505 -0.10059 3.66462 0
M  V30 4889 H 462.153 -2.47063 4.38143 0
M  V30 4890 H 461.853 -1.3364 5.72201 0
M  V30 4891 H 463.377 -2.26735 5.66942 0
M  V30 4892 H 464.791 0.00319931 5.733 0
M  V30 4893 H 463.188 0.763402 5.95224 0
M  V30 4894 H 464.258 1.33799 4.66075 0
M  V30 4895 N 465.601 -1.54893 0.290851 0
M  V30 4896 C 466.548 -2.23138 -0.58974 0
M  V30 4897 C 467.518 -1.21036 -1.13752 0
M  V30 4898 O 468.703 -1.49626 -1.18392 0
M  V30 4899 C 465.843 -2.96811 -1.76061 0
M  V30 4900 C 464.956 -4.13665 -1.24519 0
M  V30 4901 C 464.091 -4.74944 -2.3791 0
M  V30 4902 C 463.13 -5.83963 -1.83451 0
M  V30 4903 N 462.267 -6.39239 -2.90376 0
M  V30 4904 H 467.107 -2.98 -0.00114915 0
M  V30 4905 H 464.644 -1.47096 0.0112006 0
M  V30 4906 H 466.602 -3.37751 -2.44909 0
M  V30 4907 H 465.232 -2.24344 -2.32098 0
M  V30 4908 H 464.284 -3.77737 -0.449288 0
M  V30 4909 H 465.596 -4.92238 -0.806424 0
M  V30 4910 H 464.75 -5.18684 -3.14724 0
M  V30 4911 H 463.489 -3.95682 -2.85109 0
M  V30 4912 H 462.494 -5.39657 -1.05122 0
M  V30 4913 H 463.719 -6.65103 -1.37169 0
M  V30 4914 H 461.665 -5.62864 -3.36927 0
M  V30 4915 H 461.582 -7.13129 -2.50965 0
M  V30 4916 H 462.85 -6.87637 -3.67118 0
M  V30 4917 N 467.08 -0.0183926 -1.57589 0
M  V30 4918 C 468.043 0.951986 -2.08494 0
M  V30 4919 C 469.043 1.26092 -0.997874 0
M  V30 4920 O 470.233 1.20304 -1.25987 0
M  V30 4921 C 467.365 2.27165 -2.54182 0
M  V30 4922 H 468.558 0.511307 -2.95509 0
M  V30 4923 H 466.111 0.229444 -1.54607 0
M  V30 4924 H 466.846 2.75884 -1.70465 0
M  V30 4925 H 466.631 2.06057 -3.33591 0
M  V30 4926 H 468.121 2.9674 -2.93828 0
M  V30 4927 N 468.558 1.5553 0.254621 0
M  V30 4928 C 469.835 1.6774 1.00611 0
M  V30 4929 C 470.215 0.555993 2.03647 0
M  V30 4930 O 469.563 -0.441583 2.24193 0
M  V30 4931 C 469.773 3.07725 1.6464 0
M  V30 4932 C 471.121 3.66074 2.15116 0
M  V30 4933 O 472.145 3.10476 1.74595 0
M  V30 4934 O 471.004 4.63526 2.89493 0
M  V30 4935 H 468.098 0.681958 0.467828 0
M  V30 4936 H 470.644 1.67863 0.24902 0
M  V30 4937 H 469.416 3.80792 0.900734 0
M  V30 4938 H 469.039 3.1158 2.46989 0
M  V30 4939 N 470.036 -0.519951 1.48776 0
M  V30 4940 C 470.966 -1.63253 1.66945 0
M  V30 4941 C 471.947 -1.62014 0.518224 0
M  V30 4942 O 473.132 -1.79053 0.751919 0
M  V30 4943 C 470.262 -3.0181 1.71836 0
M  V30 4944 C 469.216 -3.17911 2.8656 0
M  V30 4945 C 468.542 -4.5763 2.76548 0
M  V30 4946 C 469.842 -2.99729 4.27738 0
M  V30 4947 H 471.536 -1.48302 2.6009 0
M  V30 4948 H 469.082 -0.712026 1.25165 0
M  V30 4949 H 471.035 -3.79525 1.83135 0
M  V30 4950 H 469.759 -3.17806 0.752775 0
M  V30 4951 H 468.418 -2.42616 2.74833 0
M  V30 4952 H 468.066 -4.70476 1.77937 0
M  V30 4953 H 467.766 -4.69346 3.53536 0
M  V30 4954 H 469.29 -5.37431 2.89828 0
M  V30 4955 H 470.704 -3.67228 4.40246 0
M  V30 4956 H 469.101 -3.22932 5.05801 0
M  V30 4957 H 470.171 -1.96047 4.43502 0
M  V30 4958 N 471.514 -1.37532 -0.769588 0
M  V30 4959 C 472.444 -1.36172 -1.89682 0
M  V30 4960 C 473.425 -0.23001 -1.68538 0
M  V30 4961 O 474.61 -0.43069 -1.89364 0
M  V30 4962 C 471.74 -1.1701 -3.26995 0
M  V30 4963 C 470.694 -2.27216 -3.62708 0
M  V30 4964 C 470.02 -1.93174 -4.98586 0
M  V30 4965 C 471.32 -3.6941 -3.69234 0
M  V30 4966 H 473.014 -2.30499 -1.91078 0
M  V30 4967 H 470.56 -1.10953 -0.917902 0
M  V30 4968 H 472.513 -1.14688 -4.05493 0
M  V30 4969 H 471.237 -0.191395 -3.26039 0
M  V30 4970 H 469.896 -2.28697 -2.86519 0
M  V30 4971 H 469.544 -0.938281 -4.94171 0
M  V30 4972 H 469.244 -2.66973 -5.23449 0
M  V30 4973 H 470.768 -1.92443 -5.79481 0
M  V30 4974 H 472.182 -3.70047 -4.37879 0
M  V30 4975 H 470.579 -4.4228 -4.05597 0
M  V30 4976 H 471.649 -4.0288 -2.69844 0
M  V30 4977 N 472.992 0.995999 -1.22138 0
M  V30 4978 C 473.922 2.10387 -1.01289 0
M  V30 4979 C 474.903 1.69975 0.0651454 0
M  V30 4980 O 476.088 1.9396 -0.0964628 0
M  V30 4981 C 473.218 3.42312 -0.586517 0
M  V30 4982 C 472.172 3.96558 -1.61014 0
M  V30 4983 C 471.498 5.24494 -1.0397 0
M  V30 4984 C 472.798 4.27595 -2.99933 0
M  V30 4985 H 474.492 2.28086 -1.93951 0
M  V30 4986 H 472.038 1.09607 -0.933928 0
M  V30 4987 H 473.991 4.19223 -0.427793 0
M  V30 4988 H 472.715 3.24431 0.375761 0
M  V30 4989 H 471.374 3.21776 -1.75658 0
M  V30 4990 H 471.022 5.02953 -0.0688703 0
M  V30 4991 H 470.722 5.61755 -1.72352 0
M  V30 4992 H 472.246 6.04042 -0.892494 0
M  V30 4993 H 473.66 4.95315 -2.8868 0
M  V30 4994 H 472.057 4.76021 -3.6541 0
M  V30 4995 H 473.127 3.35498 -3.50099 0
M  V30 4996 N 474.47 1.03057 1.19235 0
M  V30 4997 C 475.38 0.622922 2.26179 0
M  V30 4998 C 476.396 -0.346113 1.70523 0
M  V30 4999 O 477.572 -0.203572 2.00369 0
M  V30 5000 C 474.637 -0.0182063 3.46695 0
M  V30 5001 C 473.698 0.998546 4.17526 0
M  V30 5002 C 472.931 0.387917 5.32288 0
M  V30 5003 O 473.154 -0.808668 5.64639 0
M  V30 5004 O 472.088 1.1116 5.91546 0
M  V30 5005 H 475.914 1.51363 2.63292 0
M  V30 5006 H 473.499 0.800856 1.26122 0
M  V30 5007 H 475.381 -0.375606 4.19723 0
M  V30 5008 H 474.056 -0.882895 3.11427 0
M  V30 5009 H 472.963 1.40756 3.4661 0
M  V30 5010 H 474.296 1.83366 4.56769 0
M  V30 5011 N 475.948 -1.35272 0.808662 0
M  V30 5012 C 477.359 -1.81179 0.450688 0
M  V30 5013 C 477.71 -1.67143 -1.02751 0
M  V30 5014 O 476.835 -1.20325 -1.79864 0
M  V30 5015 C 477.43 -3.28943 0.811275 0
M  V30 5016 C 475.989 -3.72985 0.505871 0
M  V30 5017 C 475.136 -2.57229 1.03578 0
M  V30 5018 H 478.087 -1.2322 1.00012 0
M  V30 5019 H 478.108 -3.80342 0.109588 0
M  V30 5020 H 477.62 -3.39127 1.88718 0
M  V30 5021 H 475.721 -3.68349 -0.561209 0
M  V30 5022 H 475.834 -4.67677 1.03995 0
M  V30 5023 H 474.198 -2.50548 0.458005 0
M  V30 5024 H 474.981 -2.7019 2.11784 0
M  V30 5025 N 477.426 -0.562348 -1.47226 0
M  V30 5026 C 478.666 -0.0426374 -2.04356 0
M  V30 5027 C 479.03 1.28487 -1.42671 0
M  V30 5028 O 480.231 1.89259 -1.90878 0
M  V30 5029 C 478.502 0.0433826 -3.57374 0
M  V30 5030 S 480.061 0.508472 -4.35844 0
M  V30 5031 H 476.879 -0.0276234 -0.710463 0
M  V30 5032 H 479.481 -0.750245 -1.80531 0
M  V30 5033 H 478.185 -0.927072 -3.99792 0
M  V30 5034 H 477.716 0.774387 -3.85703 0
M  V30 5035 H 479.731 1.76719 -4.63665 0
M  V30 5036 N 478.904 1.54736 -0.299062 0
M  V30 5037 C 480.129 2.04975 0.316254 0
M  V30 5038 C 480.554 1.17501 1.46885 0
M  V30 5039 O 479.912 0.178678 1.80417 0
M  V30 5040 C 479.96 3.52672 0.751997 0
M  V30 5041 O 479.064 3.68226 1.85697 0
M  V30 5042 H 478.405 0.661126 0.0617175 0
M  V30 5043 H 480.935 1.99805 -0.440341 0
M  V30 5044 H 480.945 3.94488 1.04133 0
M  V30 5045 H 479.62 4.158 -0.0911482 0
M  V30 5046 H 478.197 3.38316 1.56834 0
M  V30 5047 N 480.382 0.0267497 1.57577 0
M  V30 5048 C 481.332 -0.965003 2.06571 0
M  V30 5049 C 482.316 -1.28694 0.965746 0
M  V30 5050 O 483.508 -1.27345 1.22932 0
M  V30 5051 C 480.637 -2.24821 2.59443 0
M  V30 5052 C 479.723 -1.95474 3.76365 0
M  V30 5053 N 480.114 -1.36387 4.87065 0
M  V30 5054 C 478.412 -2.25478 3.84806 0
M  V30 5055 C 479.113 -1.24119 5.68304 0
M  V30 5056 N 478.089 -1.7359 5.15138 0
M  V30 5057 H 481.891 -0.503095 2.89562 0
M  V30 5058 H 479.405 -0.178322 1.61418 0
M  V30 5059 H 481.402 -2.9674 2.92833 0
M  V30 5060 H 480.062 -2.7164 1.77881 0
M  V30 5061 H 481.073 -1.03919 5.07367 0
M  V30 5062 H 477.75 -2.74987 3.14147 0
M  V30 5063 H 479.14 -0.784504 6.67304 0
M  V30 5064 N 481.861 -1.55662 -0.24637 0
M  V30 5065 C 483.091 -1.81312 -0.990438 0
M  V30 5066 C 483.499 -0.600234 -1.79426 0
M  V30 5067 O 482.842 0.440537 -1.78339 0
M  V30 5068 C 482.904 -3.0032 -1.97607 0
M  V30 5069 C 482.568 -4.36322 -1.35912 0
M  V30 5070 C 483.565 -5.14295 -0.761348 0
M  V30 5071 C 481.25 -4.83019 -1.37833 0
M  V30 5072 C 483.244 -6.37114 -0.190998 0
M  V30 5073 C 480.931 -6.05786 -0.804128 0
M  V30 5074 C 481.929 -6.82672 -0.211489 0
M  V30 5075 O 481.617 -8.03121 0.353845 0
M  V30 5076 H 481.349 -0.607233 -0.297058 0
M  V30 5077 H 483.903 -2.0356 -0.274351 0
M  V30 5078 H 482.133 -2.73829 -2.73047 0
M  V30 5079 H 483.822 -3.13057 -2.58361 0
M  V30 5080 H 484.588 -4.79337 -0.739013 0
M  V30 5081 H 480.467 -4.23165 -1.829 0
M  V30 5082 H 484.011 -6.97069 0.272206 0
M  V30 5083 H 479.908 -6.40222 -0.823792 0
M  V30 5084 H 480.676 -8.18131 0.245761 0
M  V30 5085 N 483.339 0.512053 -1.4905 0
M  V30 5086 C 484.755 0.84224 -1.35567 0
M  V30 5087 C 484.955 1.97878 -0.380319 0
M  V30 5088 O 484.011 2.51769 0.19201 0
M  V30 5089 C 485.324 1.19286 -2.76028 0
M  V30 5090 C 486.872 1.30171 -2.84648 0
M  V30 5091 C 487.347 1.68568 -4.25851 0
M  V30 5092 N 488.838 1.75638 -4.28609 0
M  V30 5093 C 489.573 2.06769 -5.34821 0
M  V30 5094 N 489.069 2.36201 -6.51292 0
M  V30 5095 N 490.862 2.07927 -5.22229 0
M  V30 5096 H 483.013 -0.237574 -2.11067 0
M  V30 5097 H 485.276 -0.0436747 -0.946993 0
M  V30 5098 H 484.982 0.431199 -3.49047 0
M  V30 5099 H 484.856 2.13889 -3.10695 0
M  V30 5100 H 487.243 2.05411 -2.11873 0
M  V30 5101 H 487.324 0.336457 -2.53578 0
M  V30 5102 H 486.968 0.938824 -4.99148 0
M  V30 5103 H 486.898 2.66174 -4.54377 0
M  V30 5104 H 489.389 1.55097 -3.44606 0
M  V30 5105 H 489.702 2.59112 -7.28066 0
M  V30 5106 H 488.047 2.33681 -6.54536 0
M  V30 5107 H 491.238 1.84403 -4.30248 0
M  V30 5108 H 491.411 2.31856 -6.05101 0
M  V30 5109 N 484.817 1.37938 0.762283 0
M  V30 5110 C 486.064 1.33668 1.52115 0
M  V30 5111 C 486.392 -0.0759538 1.94352 0
M  V30 5112 O 485.647 -1.05121 1.6507 0
M  V30 5113 C 485.946 2.23042 2.79261 0
M  V30 5114 C 485.612 3.71159 2.56031 0
M  V30 5115 C 484.274 4.11523 2.49404 0
M  V30 5116 C 486.626 4.64955 2.35513 0
M  V30 5117 C 483.954 5.43784 2.20263 0
M  V30 5118 C 486.306 5.97464 2.07894 0
M  V30 5119 C 484.97 6.36922 1.99718 0
M  V30 5120 H 484.24 0.489127 0.556629 0
M  V30 5121 H 486.887 1.70224 0.877262 0
M  V30 5122 H 485.192 1.79512 3.48256 0
M  V30 5123 H 486.889 2.17047 3.37182 0
M  V30 5124 H 483.479 3.39153 2.62056 0
M  V30 5125 H 487.663 4.34623 2.39617 0
M  V30 5126 H 482.919 5.73307 2.12435 0
M  V30 5127 H 487.093 6.6969 1.91019 0
M  V30 5128 H 484.72 7.39331 1.76902 0
M  V30 5129 N 486.295 -0.989507 1.22664 0
M  V30 5130 C 487.225 -2.09847 1.02404 0
M  V30 5131 C 488.206 -1.70007 -0.0561303 0
M  V30 5132 O 489.391 -1.93906 0.106748 0
M  V30 5133 C 486.521 -3.41996 0.604663 0
M  V30 5134 C 485.475 -3.95699 1.63115 0
M  V30 5135 C 484.801 -5.23936 1.0675 0
M  V30 5136 C 486.101 -4.25999 3.02196 0
M  V30 5137 H 487.795 -2.27054 1.95158 0
M  V30 5138 H 485.341 -1.09111 0.939727 0
M  V30 5139 H 487.294 -4.1899 0.45002 0
M  V30 5140 H 486.018 -3.24626 -0.35855 0
M  V30 5141 H 484.677 -3.2084 1.77362 0
M  V30 5142 H 484.325 -5.02909 0.0955422 0
M  V30 5143 H 484.025 -5.60833 1.75328 0
M  V30 5144 H 485.549 -6.0356 0.924516 0
M  V30 5145 H 486.963 -4.93777 2.91303 0
M  V30 5146 H 485.36 -4.74076 3.67929 0
M  V30 5147 H 486.43 -3.33636 3.51873 0
M  V30 5148 N 487.773 -1.03688 -1.18687 0
M  V30 5149 C 489.001 -0.757918 -1.92518 0
M  V30 5150 C 489.416 0.684398 -1.75959 0
M  V30 5151 O 488.773 1.46617 -1.08673 0
M  V30 5152 C 488.824 -1.10985 -3.44042 0
M  V30 5153 O 488.545 -2.49554 -3.60076 0
M  V30 5154 C 490.046 -0.854844 -4.3498 0
M  V30 5155 H 487.266 -0.276699 -0.611293 0
M  V30 5156 H 489.81 -1.38352 -1.50595 0
M  V30 5157 H 487.965 -0.529279 -3.83767 0
M  V30 5158 H 488.379 -2.6291 -4.53849 0
M  V30 5159 H 489.853 -1.15098 -5.39867 0
M  V30 5160 H 490.33 0.210507 -4.38695 0
M  V30 5161 H 490.936 -1.41853 -4.00946 0
M  V30 5162 N 489.251 1.34841 -0.815825 0
M  V30 5163 C 490.199 2.31549 -0.220888 0
M  V30 5164 C 491.193 1.5707 0.634457 0
M  V30 5165 O 492.399 1.72125 0.526589 0
M  V30 5166 H 488.774 0.750153 -0.0526782 0
M  V30 5167 H 490.745 2.7926 -1.05149 0
M  V30 5168 C 489.494 3.42335 0.608427 0
M  V30 5169 H 488.817 3.9978 -0.0404121 0
M  V30 5170 H 490.257 4.12258 0.990931 0
M  V30 5171 C 488.716 2.86173 1.77782 0
M  V30 5172 O 489.246 2.80474 2.87571 0
M  V30 5173 N 487.452 2.43093 1.59229 0
M  V30 5174 H 486.999 2.47928 0.699237 0
M  V30 5175 H 486.957 2.05866 2.37627 0
M  V30 5176 N 490.729 0.570148 1.46925 0
M  V30 5177 C 491.977 0.0508523 2.02036 0
M  V30 5178 C 492.298 -1.30885 1.44548 0
M  V30 5179 O 491.568 -1.85647 0.625453 0
M  V30 5180 H 490.148 0.0158088 0.746833 0
M  V30 5181 H 492.81 0.743086 1.80178 0
M  V30 5182 H 491.906 -0.027575 3.12088 0
M  V30 5183 N 492.207 -1.54576 0.307264 0
M  V30 5184 C 493.618 -1.8579 -0.184121 0
M  V30 5185 C 493.969 -1.22914 -1.52927 0
M  V30 5186 O 493.094 -0.529126 -2.09831 0
M  V30 5187 C 493.689 -3.37081 -0.340862 0
M  V30 5188 C 492.248 -3.68304 -0.776465 0
M  V30 5189 C 491.395 -2.77076 0.111503 0
M  V30 5190 H 494.346 -1.49656 0.528078 0
M  V30 5191 H 494.367 -3.61922 -1.17443 0
M  V30 5192 H 493.879 -3.82815 0.638309 0
M  V30 5193 H 491.98 -3.28092 -1.76596 0
M  V30 5194 H 492.093 -4.75434 -0.591512 0
M  V30 5195 H 490.457 -2.51374 -0.410256 0
M  V30 5196 H 491.24 -3.25632 1.08714 0
M  V30 5197 N 493.685 -0.035106 -1.57561 0
M  V30 5198 C 494.91 0.655802 -1.96759 0
M  V30 5199 C 495.335 1.64523 -0.911809 0
M  V30 5200 O 494.693 1.80857 0.126673 0
M  V30 5201 C 494.741 1.33326 -3.35047 0
M  V30 5202 O 493.845 2.44866 -3.31835 0
M  V30 5203 H 493.186 0.171807 -0.641388 0
M  V30 5204 H 495.716 -0.0987369 -2.04362 0
M  V30 5205 H 495.726 1.68867 -3.71413 0
M  V30 5206 H 494.401 0.608033 -4.11431 0
M  V30 5207 H 492.978 2.11392 -3.07193 0
M  V30 5208 N 495.163 1.55791 0.238111 0
M  V30 5209 C 496.388 1.8244 0.986432 0
M  V30 5210 C 496.813 0.613314 1.7782 0
M  V30 5211 O 496.171 -0.437767 1.75935 0
M  V30 5212 C 496.219 3.06917 1.893 0
M  V30 5213 O 495.323 2.84449 2.98601 0
M  V30 5214 H 494.664 0.601975 0.280218 0
M  V30 5215 H 497.194 2.02987 0.256437 0
M  V30 5216 H 497.204 3.36583 2.30598 0
M  V30 5217 H 495.879 3.947 1.31091 0
M  V30 5218 H 494.456 2.65972 2.61368 0
M  V30 5219 N 496.642 -0.504142 1.49319 0
M  V30 5220 C 497.867 -1.28729 1.62615 0
M  V30 5221 C 498.292 -1.85752 0.296309 0
M  V30 5222 O 497.65 -1.65704 -0.735649 0
M  V30 5223 C 497.698 -2.39561 2.69524 0
M  V30 5224 O 496.802 -3.43324 2.28478 0
M  V30 5225 H 496.143 -0.380172 0.544395 0
M  V30 5226 H 498.673 -0.603872 1.95485 0
M  V30 5227 H 498.683 -2.8537 2.91595 0
M  V30 5228 H 497.358 -1.97423 3.66056 0
M  V30 5229 H 495.935 -3.03455 2.16725 0
M  V30 5230 N 498.12 -1.38341 -0.754957 0
M  V30 5231 C 499.531 -1.30803 -1.3322 0
M  V30 5232 C 499.882 0.0368 -1.96165 0
M  V30 5233 O 499.007 0.938844 -1.94974 0
M  V30 5234 C 499.602 -2.3688 -2.42225 0
M  V30 5235 C 498.161 -2.32925 -2.95674 0
M  V30 5236 C 497.308 -2.19819 -1.69042 0
M  V30 5237 H 500.259 -1.48719 -0.553937 0
M  V30 5238 H 500.28 -2.02517 -3.22129 0
M  V30 5239 H 499.792 -3.34747 -1.96383 0
M  V30 5240 H 497.893 -1.38635 -3.45848 0
M  V30 5241 H 498.006 -3.27008 -3.50146 0
M  V30 5242 H 496.37 -1.66648 -1.92615 0
M  V30 5243 H 497.153 -3.19625 -1.25279 0
M  V30 5244 N 499.598 0.982988 -1.23187 0
M  V30 5245 C 500.846 1.72052 -1.06031 0
M  V30 5246 C 501.167 1.90769 0.404019 0
M  V30 5247 O 500.437 1.47446 1.28982 0
M  V30 5248 H 499.017 0.637499 -0.389363 0
M  V30 5249 H 501.679 1.18338 -1.54862 0
M  V30 5250 H 500.775 2.7111 -1.54615 0
M  V30 5251 N 501.076 1.04316 1.18135 0
M  V30 5252 C 502.008 0.594444 2.21357 0
M  V30 5253 C 503.021 -0.337215 1.59269 0
M  V30 5254 O 504.21 -0.131337 1.78016 0
M  V30 5255 C 501.31 -0.151251 3.38562 0
M  V30 5256 C 500.483 0.788907 4.30227 0
M  V30 5257 C 499.542 0.0860572 5.2613 0
M  V30 5258 O 498.568 0.717302 5.64662 0
M  V30 5259 N 499.77 -1.17969 5.68387 0
M  V30 5260 H 502.535 1.48227 2.60478 0
M  V30 5261 H 500.096 0.92396 1.32946 0
M  V30 5262 H 502.088 -0.631352 3.99745 0
M  V30 5263 H 500.658 -0.940639 2.98112 0
M  V30 5264 H 499.878 1.44882 3.6661 0
M  V30 5265 H 501.166 1.42738 4.88368 0
M  V30 5266 H 500.564 -1.71302 5.3914 0
M  V30 5267 H 499.121 -1.60402 6.31755 0
M  V30 5268 N 502.554 -1.34406 0.822964 0
M  V30 5269 C 503.464 -2.33298 0.246838 0
M  V30 5270 C 504.48 -1.62625 -0.618797 0
M  V30 5271 O 505.656 -1.94391 -0.526685 0
M  V30 5272 C 502.721 -3.41785 -0.581731 0
M  V30 5273 C 501.782 -4.28206 0.306309 0
M  V30 5274 C 501.015 -5.31512 -0.48281 0
M  V30 5275 O 501.238 -5.43973 -1.71607 0
M  V30 5276 O 500.172 -6.01749 0.134884 0
M  V30 5277 H 503.998 -2.84401 1.06534 0
M  V30 5278 H 501.583 -1.37466 0.585108 0
M  V30 5279 H 503.465 -4.08028 -1.05313 0
M  V30 5280 H 502.14 -2.92925 -1.37756 0
M  V30 5281 H 501.047 -3.64885 0.825199 0
M  V30 5282 H 502.38 -4.80507 1.06649 0
M  V30 5283 N 504.032 -0.577932 -1.46621 0
M  V30 5284 C 505.448 -0.239242 -1.57797 0
M  V30 5285 C 505.648 1.25843 -1.57371 0
M  V30 5286 O 504.704 2.03988 -1.48813 0
M  V30 5287 C 506.017 -0.884227 -2.87405 0
M  V30 5288 C 507.565 -0.857373 -3.01028 0
M  V30 5289 C 508.04 -1.48181 -4.33366 0
M  V30 5290 N 509.531 -1.44593 -4.40053 0
M  V30 5291 C 510.266 -1.89852 -5.41058 0
M  V30 5292 N 509.762 -2.43062 -6.48762 0
M  V30 5293 N 511.555 -1.80797 -5.3223 0
M  V30 5294 H 503.706 -1.55073 -1.45142 0
M  V30 5295 H 505.969 -0.647903 -0.692044 0
M  V30 5296 H 505.675 -1.93759 -2.93514 0
M  V30 5297 H 505.549 -0.389585 -3.75183 0
M  V30 5298 H 507.936 0.187357 -2.94505 0
M  V30 5299 H 508.017 -1.38999 -2.14739 0
M  V30 5300 H 507.661 -2.52572 -4.40647 0
M  V30 5301 H 507.591 -0.924464 -5.18422 0
M  V30 5302 H 510.082 -1.05694 -3.62819 0
M  V30 5303 H 510.395 -2.75466 -7.22038 0
M  V30 5304 H 508.74 -2.47085 -6.49595 0
M  V30 5305 H 511.931 -1.38989 -4.46989 0
M  V30 5306 H 512.104 -2.16385 -6.10804 0
M  V30 5307 N 505.51 1.54411 -0.315457 0
M  V30 5308 C 506.42 2.27737 0.56329 0
M  V30 5309 C 507.436 1.31787 1.13614 0
M  V30 5310 O 508.612 1.64791 1.15784 0
M  V30 5311 C 505.677 3.01478 1.71207 0
M  V30 5312 C 504.738 4.12997 1.17185 0
M  V30 5313 C 503.971 4.83212 2.26588 0
M  V30 5314 O 504.194 4.52884 3.46775 0
M  V30 5315 O 503.128 5.70299 1.92463 0
M  V30 5316 H 506.954 3.03683 -0.0319614 0
M  V30 5317 H 504.539 1.49178 -0.0814188 0
M  V30 5318 H 506.421 3.47683 2.38106 0
M  V30 5319 H 505.096 2.28414 2.29366 0
M  V30 5320 H 504.003 3.71159 0.468174 0
M  V30 5321 H 505.336 4.8808 0.635501 0
M  V30 5322 N 506.988 0.0434614 1.5754 0
M  V30 5323 C 507.918 -0.931651 2.14109 0
M  V30 5324 C 508.899 -1.32971 1.06079 0
M  V30 5325 O 510.084 -1.40579 1.33982 0
M  V30 5326 C 507.214 -2.20914 2.67982 0
M  V30 5327 C 506.168 -1.95139 3.80926 0
M  V30 5328 C 505.494 -3.29276 4.21285 0
M  V30 5329 C 506.794 -1.27913 5.06395 0
M  V30 5330 H 508.488 -0.460497 2.95837 0
M  V30 5331 H 506.034 -0.220058 1.42309 0
M  V30 5332 H 507.987 -2.89522 3.06194 0
M  V30 5333 H 506.711 -2.70221 1.83434 0
M  V30 5334 H 505.37 -1.28945 3.43175 0
M  V30 5335 H 505.018 -3.76369 3.33699 0
M  V30 5336 H 504.718 -3.12831 4.97404 0
M  V30 5337 H 506.242 -3.99129 4.62091 0
M  V30 5338 H 507.656 -1.86544 5.42102 0
M  V30 5339 H 506.053 -1.2182 5.87605 0
M  V30 5340 H 507.123 -0.254066 4.84234 0
M  V30 5341 N 508.466 -1.55915 -0.229846 0
M  V30 5342 C 509.713 -1.78542 -0.955452 0
M  V30 5343 C 510.041 -0.610785 -1.84661 0
M  V30 5344 O 509.296 0.405213 -1.91459 0
M  V30 5345 C 509.595 -3.06845 -1.8325 0
M  V30 5346 C 509.261 -4.37395 -1.09528 0
M  V30 5347 C 507.923 -4.72868 -0.891598 0
M  V30 5348 C 510.275 -5.18029 -0.574046 0
M  V30 5349 C 507.603 -5.86496 -0.154655 0
M  V30 5350 C 509.955 -6.32423 0.149513 0
M  V30 5351 C 508.619 -6.66504 0.364519 0
M  V30 5352 H 507.889 -0.653333 -0.349625 0
M  V30 5353 H 510.536 -1.90183 -0.224235 0
M  V30 5354 H 508.841 -2.90291 -2.63132 0
M  V30 5355 H 510.538 -3.21553 -2.39592 0
M  V30 5356 H 507.128 -4.09538 -1.26399 0
M  V30 5357 H 511.312 -4.91066 -0.718899 0
M  V30 5358 H 506.568 -6.11396 0.0222356 0
M  V30 5359 H 510.742 -6.94137 0.560947 0
M  V30 5360 H 508.369 -7.54397 0.937495 0
M  V30 5361 N 509.944 0.496216 -1.49584 0
M  V30 5362 C 510.876 1.61404 -1.62731 0
M  V30 5363 C 511.889 1.54613 -0.50978 0
M  V30 5364 O 513.078 1.60458 -0.782017 0
M  V30 5365 C 510.178 3.00212 -1.57245 0
M  V30 5366 C 509.351 3.32138 -2.84611 0
M  V30 5367 C 508.41 4.5038 -2.72112 0
M  V30 5368 O 507.436 4.51926 -3.46051 0
M  V30 5369 N 508.638 5.50575 -1.83977 0
M  V30 5370 H 511.403 1.50552 -2.59141 0
M  V30 5371 H 508.964 0.684182 -1.46733 0
M  V30 5372 H 510.956 3.77241 -1.4653 0
M  V30 5373 H 509.526 3.04964 -0.686729 0
M  V30 5374 H 508.746 2.4396 -3.09641 0
M  V30 5375 H 510.034 3.50268 -3.69039 0
M  V30 5376 H 509.432 5.52128 -1.23171 0
M  V30 5377 H 507.989 6.26687 -1.79182 0
M  V30 5378 N 511.423 1.38739 0.74761 0
M  V30 5379 C 512.333 1.38696 1.89211 0
M  V30 5380 C 513.349 0.283303 1.71678 0
M  V30 5381 O 514.525 0.522713 1.94498 0
M  V30 5382 C 511.59 1.21662 3.24653 0
M  V30 5383 C 510.651 2.41886 3.54669 0
M  V30 5384 C 509.884 2.25655 4.83648 0
M  V30 5385 O 510.107 1.25339 5.56459 0
M  V30 5386 O 509.041 3.14372 5.13277 0
M  V30 5387 H 512.867 2.35143 1.92202 0
M  V30 5388 H 510.452 1.19721 0.893708 0
M  V30 5389 H 512.334 1.14246 4.05618 0
M  V30 5390 H 511.009 0.283024 3.2246 0
M  V30 5391 H 509.916 2.54877 2.73841 0
M  V30 5392 H 511.249 3.33895 3.61628 0
M  V30 5393 N 512.901 -0.976442 1.23707 0
M  V30 5394 C 514.129 -1.75341 1.09833 0
M  V30 5395 C 514.544 -1.8553 -0.349885 0
M  V30 5396 O 513.901 -1.33732 -1.24185 0
M  V30 5397 C 513.952 -3.17833 1.72233 0
M  V30 5398 O 513.673 -3.08167 3.11391 0
M  V30 5399 C 515.174 -4.11906 1.63853 0
M  V30 5400 H 512.394 -0.550137 0.384175 0
M  V30 5401 H 514.938 -1.2265 1.63638 0
M  V30 5402 H 513.093 -3.67538 1.22452 0
M  V30 5403 H 513.507 -3.97897 3.41729 0
M  V30 5404 H 514.981 -5.09579 2.12211 0
M  V30 5405 H 515.458 -4.35109 0.598092 0
M  V30 5406 H 516.064 -3.68107 2.13019 0
M  V30 5407 N 514.379 -1.04941 -1.1758 0
M  V30 5408 C 515.309 -0.669172 -2.23706 0
M  V30 5409 C 516.29 0.331835 -1.66832 0
M  V30 5410 O 517.475 0.209988 -1.93061 0
M  V30 5411 C 514.605 -0.0404889 -3.47276 0
M  V30 5412 C 513.559 -0.965983 -4.16957 0
M  V30 5413 C 512.885 -0.201312 -5.34321 0
M  V30 5414 C 514.185 -2.28902 -4.69469 0
M  V30 5415 H 515.879 -1.55639 -2.55767 0
M  V30 5416 H 513.425 -0.749793 -1.22939 0
M  V30 5417 H 515.378 0.237298 -4.20731 0
M  V30 5418 H 514.102 0.881658 -3.14475 0
M  V30 5419 H 512.761 -1.22829 -3.45411 0
M  V30 5420 H 512.409 0.723519 -4.97769 0
M  V30 5421 H 512.109 -0.817968 -5.81879 0
M  V30 5422 H 513.633 0.0692499 -6.10561 0
M  V30 5423 H 515.047 -2.07132 -5.34574 0
M  V30 5424 H 513.444 -2.85942 -5.27596 0
M  V30 5425 H 514.514 -2.92937 -3.86414 0
M  V30 5426 N 515.857 1.33968 -0.830081 0
M  V30 5427 C 516.767 2.33164 -0.259207 0
M  V30 5428 C 517.783 1.62951 0.610164 0
M  V30 5429 O 518.959 1.94668 0.516369 0
M  V30 5430 C 516.024 3.42088 0.563598 0
M  V30 5431 C 515.085 4.28037 -0.329014 0
M  V30 5432 C 514.318 5.3176 0.454616 0
M  V30 5433 O 514.541 5.44876 1.6872 0
M  V30 5434 O 513.475 6.01669 -0.166794 0
M  V30 5435 H 517.301 2.83832 -1.08041 0
M  V30 5436 H 514.886 1.37154 -0.59239 0
M  V30 5437 H 516.768 4.08581 1.03147 0
M  V30 5438 H 515.443 2.93651 1.36201 0
M  V30 5439 H 514.35 3.64443 -0.844538 0
M  V30 5440 H 515.683 4.79934 -1.09196 0
M  V30 5441 N 517.335 0.585699 1.46312 0
M  V30 5442 C 518.56 0.0762461 2.0726 0
M  V30 5443 C 518.985 -1.22071 1.43109 0
M  V30 5444 O 518.343 -1.73804 0.515942 0
M  V30 5445 C 518.391 -0.0729404 3.60526 0
M  V30 5446 O 517.495 -1.1287 3.96654 0
M  V30 5447 H 516.836 0.0641558 0.660893 0
M  V30 5448 H 519.366 0.809492 1.87905 0
M  V30 5449 H 519.376 -0.278158 4.07051 0
M  V30 5450 H 518.051 0.874188 4.06609 0
M  V30 5451 H 516.628 -0.901703 3.61834 0
M  V30 5452 N 518.813 -1.54241 0.323641 0
M  V30 5453 C 519.743 -2.27289 -0.534993 0
M  V30 5454 C 520.724 -1.28087 -1.11927 0
M  V30 5455 O 521.909 -1.56899 -1.14439 0
M  V30 5456 C 519.039 -3.03075 -1.69596 0
M  V30 5457 C 517.993 -4.09614 -1.24098 0
M  V30 5458 C 517.319 -4.73242 -2.4889 0
M  V30 5459 C 518.619 -5.21087 -0.355789 0
M  V30 5460 H 520.313 -2.99308 0.0743257 0
M  V30 5461 H 517.859 -1.43952 0.0371874 0
M  V30 5462 H 519.812 -3.52907 -2.30293 0
M  V30 5463 H 518.536 -2.28673 -2.33187 0
M  V30 5464 H 517.195 -3.60666 -0.656945 0
M  V30 5465 H 516.843 -3.95455 -3.10845 0
M  V30 5466 H 516.543 -5.45209 -2.19138 0
M  V30 5467 H 518.067 -5.25848 -3.10348 0
M  V30 5468 H 519.481 -5.66675 -0.869042 0
M  V30 5469 H 517.878 -5.9991 -0.151045 0
M  V30 5470 H 518.948 -4.81005 0.613339 0
M  V30 5471 N 520.291 -0.0518155 -1.57515 0
M  V30 5472 C 521.707 0.304735 -1.56664 0
M  V30 5473 C 521.907 1.71395 -1.05953 0
M  V30 5474 O 520.963 2.42123 -0.716414 0
M  V30 5475 C 522.276 0.132614 -3.00407 0
M  V30 5476 C 523.824 0.20367 -3.12337 0
M  V30 5477 C 524.299 0.0600706 -4.57961 0
M  V30 5478 N 525.79 0.116326 -4.63054 0
M  V30 5479 C 526.525 0.0293363 -5.73392 0
M  V30 5480 N 526.021 -0.110038 -6.92713 0
M  V30 5481 N 527.814 0.0849651 -5.62036 0
M  V30 5482 H 519.965 -0.973056 -1.888 0
M  V30 5483 H 522.228 -0.377781 -0.869474 0
M  V30 5484 H 521.934 -0.839019 -3.41546 0
M  V30 5485 H 521.808 0.893376 -3.66468 0
M  V30 5486 H 524.195 1.16578 -2.71097 0
M  V30 5487 H 524.276 -0.587857 -2.48954 0
M  V30 5488 H 523.92 -0.898715 -4.99886 0
M  V30 5489 H 523.85 0.87075 -5.19351 0
M  V30 5490 H 526.341 0.22327 -3.7724 0
M  V30 5491 H 526.654 -0.169104 -7.72615 0
M  V30 5492 H 524.999 -0.145132 -6.94848 0
M  V30 5493 H 528.19 0.192411 -4.67704 0
M  V30 5494 H 528.363 0.0137131 -6.47999 0
M  V30 5495 N 521.769 1.56035 0.221574 0
M  V30 5496 C 523.015 1.79312 0.947372 0
M  V30 5497 C 523.348 0.621453 1.83988 0
M  V30 5498 O 522.623 -0.379287 1.90766 0
M  V30 5499 C 522.906 3.1267 1.78633 0
M  V30 5500 C 522.759 4.40284 0.920312 0
M  V30 5501 C 524.078 3.4247 2.7641 0
M  V30 5502 H 521.197 0.652328 0.342982 0
M  V30 5503 H 523.839 1.88765 0.216244 0
M  V30 5504 H 521.989 3.04741 2.40967 0
M  V30 5505 H 523.661 4.60232 0.313718 0
M  V30 5506 H 521.904 4.33212 0.225734 0
M  V30 5507 H 522.575 5.30033 1.54171 0
M  V30 5508 H 525.051 3.50526 2.24211 0
M  V30 5509 H 523.927 4.3695 3.32213 0
M  V30 5510 H 524.188 2.64635 3.54148 0
M  V30 5511 N 523.247 -0.488276 1.49845 0
M  V30 5512 C 524.177 -1.59675 1.70371 0
M  V30 5513 C 525.158 -1.60878 0.552473 0
M  V30 5514 O 526.343 -1.77417 0.78973 0
M  V30 5515 C 523.473 -2.98098 1.782 0
M  V30 5516 C 522.427 -3.11761 2.93239 0
M  V30 5517 C 521.753 -4.51661 2.86193 0
M  V30 5518 C 523.053 -2.90589 4.33999 0
M  V30 5519 H 524.747 -1.42752 2.63177 0
M  V30 5520 H 522.293 -0.685317 1.26647 0
M  V30 5521 H 524.246 -3.75555 1.91144 0
M  V30 5522 H 522.97 -3.16138 0.820018 0
M  V30 5523 H 521.629 -2.36732 2.79917 0
M  V30 5524 H 521.277 -4.66595 1.87877 0
M  V30 5525 H 520.977 -4.61742 3.63412 0
M  V30 5526 H 522.501 -5.31162 3.01163 0
M  V30 5527 H 523.915 -3.57807 4.47936 0
M  V30 5528 H 522.312 -3.1213 5.12538 0
M  V30 5529 H 523.382 -1.86595 4.4756 0
M  V30 5530 N 524.725 -1.39134 -0.740242 0
M  V30 5531 C 525.973 -1.35803 -1.49673 0
M  V30 5532 C 526.294 0.0470897 -1.94943 0
M  V30 5533 O 525.564 0.997347 -1.68611 0
M  V30 5534 H 524.144 -0.499736 -0.555224 0
M  V30 5535 H 526.806 -1.73947 -0.879107 0
M  V30 5536 H 525.902 -2.0174 -2.38133 0
M  V30 5537 N 526.204 0.969867 -1.24223 0
M  V30 5538 C 527.451 1.71256 -1.08063 0
M  V30 5539 C 527.779 1.90734 0.380872 0
M  V30 5540 O 527.034 1.46469 1.29789 0
M  V30 5541 C 527.333 3.10883 -1.76314 0
M  V30 5542 C 526.999 3.11252 -3.26241 0
M  V30 5543 C 525.661 3.1106 -3.67144 0
M  V30 5544 C 528.013 3.05751 -4.22097 0
M  V30 5545 C 525.341 3.03097 -5.02344 0
M  V30 5546 C 527.693 2.9933 -5.57301 0
M  V30 5547 C 526.357 2.97466 -5.97554 0
M  V30 5548 H 525.627 0.62667 -0.395431 0
M  V30 5549 H 528.274 1.13422 -1.54297 0
M  V30 5550 H 526.579 3.72168 -1.22468 0
M  V30 5551 H 528.276 3.67138 -1.61277 0
M  V30 5552 H 524.866 3.12165 -2.93685 0
M  V30 5553 H 529.05 3.05031 -3.91497 0
M  V30 5554 H 524.306 3.00013 -5.32731 0
M  V30 5555 H 528.48 2.94033 -6.31283 0
M  V30 5556 H 526.107 2.91051 -7.02277 0
M  V30 5557 N 527.682 1.05563 1.17022 0
M  V30 5558 C 528.907 0.788437 1.91829 0
M  V30 5559 C 529.332 -0.650356 1.76499 0
M  V30 5560 O 528.69 -1.45229 1.08527 0
M  V30 5561 C 528.738 1.1786 3.40795 0
M  V30 5562 O 527.842 0.312965 4.11211 0
M  V30 5563 H 527.183 0.288794 0.597908 0
M  V30 5564 H 529.713 1.40948 1.48307 0
M  V30 5565 H 529.723 1.14697 3.91546 0
M  V30 5566 H 528.398 2.22666 3.51273 0
M  V30 5567 H 526.975 0.405515 3.70689 0
M  V30 5568 N 529.16 -1.33526 0.837174 0
M  V30 5569 C 530.11 -2.2672 0.241269 0
M  V30 5570 C 531.094 -1.49183 -0.602756 0
M  V30 5571 O 532.286 -1.71052 -0.455002 0
M  V30 5572 C 529.415 -3.38294 -0.584125 0
M  V30 5573 C 528.501 -4.23231 0.271315 0
M  V30 5574 N 528.892 -4.87473 1.34922 0
M  V30 5575 C 527.19 -4.45962 0.0580589 0
M  V30 5576 C 527.891 -5.50685 1.87405 0
M  V30 5577 N 526.867 -5.30732 1.17578 0
M  V30 5578 H 530.669 -2.73903 1.06558 0
M  V30 5579 H 528.183 -1.47411 0.68145 0
M  V30 5580 H 530.18 -4.04044 -1.02731 0
M  V30 5581 H 528.84 -2.9266 -1.40643 0
M  V30 5582 H 529.851 -4.88077 1.7321 0
M  V30 5583 H 526.528 -4.11052 -0.730938 0
M  V30 5584 H 527.918 -6.11845 2.77661 0
M  V30 5585 N 530.638 -0.59345 -1.46 0
M  V30 5586 C 531.548 0.135817 -2.34207 0
M  V30 5587 C 532.564 0.875008 -1.50398 0
M  V30 5588 O 533.74 0.835778 -1.83239 0
M  V30 5589 C 530.805 1.12977 -3.27776 0
M  V30 5590 C 529.866 0.394081 -4.27487 0
M  V30 5591 C 529.099 1.34068 -5.16586 0
M  V30 5592 O 529.322 2.5778 -5.08828 0
M  V30 5593 O 528.256 0.845426 -5.95933 0
M  V30 5594 H 532.082 -0.588691 -2.9794 0
M  V30 5595 H 529.667 -0.353784 -1.45151 0
M  V30 5596 H 531.549 1.70261 -3.85473 0
M  V30 5597 H 530.224 1.83556 -2.66625 0
M  V30 5598 H 529.131 -0.220869 -3.73447 0
M  V30 5599 H 530.464 -0.270939 -4.91454 0
M  V30 5600 N 532.116 1.54067 -0.331816 0
M  V30 5601 C 533.026 2.28322 0.539104 0
M  V30 5602 C 534.042 1.32985 1.1221 0
M  V30 5603 O 535.218 1.6601 1.1403 0
M  V30 5604 C 532.283 3.03277 1.68 0
M  V30 5605 C 531.344 4.14216 1.12798 0
M  V30 5606 C 530.577 4.85588 2.2145 0
M  V30 5607 O 530.8 4.56536 3.41952 0
M  V30 5608 O 529.734 5.72309 1.86404 0
M  V30 5609 H 533.56 3.03632 -0.0641692 0
M  V30 5610 H 531.145 1.49083 -0.0972365 0
M  V30 5611 H 533.027 3.50189 2.34405 0
M  V30 5612 H 531.702 2.30834 2.2693 0
M  V30 5613 H 530.609 3.71635 0.428782 0
M  V30 5614 H 531.942 4.88727 0.583698 0
M  V30 5615 N 533.594 0.0601682 1.57485 0
M  V30 5616 C 534.843 -0.611101 1.9222 0
M  V30 5617 C 535.156 -1.71469 0.941159 0
M  V30 5618 O 536.362 -2.44473 1.18089 0
M  V30 5619 C 534.818 -1.13832 3.41424 0
M  V30 5620 C 534.426 -0.0663596 4.47951 0
M  V30 5621 C 536.17 -1.78432 3.85178 0
M  V30 5622 C 534.077 -0.606965 5.88277 0
M  V30 5623 H 533.007 -0.232033 0.71741 0
M  V30 5624 H 535.658 0.130518 1.83035 0
M  V30 5625 H 534.04 -1.93254 3.45643 0
M  V30 5626 H 535.214 0.707682 4.55333 0
M  V30 5627 H 533.529 0.482715 4.13593 0
M  V30 5628 H 536.126 -2.1989 4.87394 0
M  V30 5629 H 536.469 -2.63966 3.21913 0
M  V30 5630 H 537.002 -1.05651 3.83514 0
M  V30 5631 H 533.741 0.21095 6.5516 0
M  V30 5632 H 533.261 -1.34879 5.84438 0
M  V30 5633 H 534.94 -1.08704 6.37803 0
M  V30 5634 N 535.072 -1.5615 -0.213296 0
M  V30 5635 C 536.321 -1.78743 -0.93455 0
M  V30 5636 C 536.634 -0.630199 -1.8517 0
M  V30 5637 O 537.84 -0.739966 -2.61222 0
M  V30 5638 C 536.296 -3.16571 -1.71203 0
M  V30 5639 C 535.904 -4.40043 -0.840617 0
M  V30 5640 C 537.648 -3.48485 -2.42401 0
M  V30 5641 C 535.555 -5.68895 -1.61592 0
M  V30 5642 H 534.485 -0.666426 -0.352692 0
M  V30 5643 H 537.136 -1.82532 -0.188227 0
M  V30 5644 H 535.518 -3.06981 -2.50157 0
M  V30 5645 H 536.692 -4.6071 -0.0910326 0
M  V30 5646 H 535.007 -4.15706 -0.240365 0
M  V30 5647 H 537.604 -4.41983 -3.00924 0
M  V30 5648 H 537.947 -2.71371 -3.15695 0
M  V30 5649 H 538.48 -3.59442 -1.7043 0
M  V30 5650 H 535.219 -6.48925 -0.926106 0
M  V30 5651 H 534.739 -5.52275 -2.33991 0
M  V30 5652 H 536.418 -6.09365 -2.17447 0
M  V30 5653 N 536.55 0.480323 -1.50102 0
M  V30 5654 C 537.775 1.26126 -1.64642 0
M  V30 5655 C 538.2 1.85257 -0.325823 0
M  V30 5656 O 537.558 1.66854 0.709194 0
M  V30 5657 C 537.606 2.35243 -2.73301 0
M  V30 5658 O 536.71 3.39646 -2.33911 0
M  V30 5659 H 536.051 0.371463 -0.550374 0
M  V30 5660 H 538.581 0.572696 -1.96421 0
M  V30 5661 H 538.591 2.80695 -2.96098 0
M  V30 5662 H 537.266 1.91574 -3.6915 0
M  V30 5663 H 535.843 2.99969 -2.21525 0
M  V30 5664 N 538.028 1.39524 0.732853 0
M  V30 5665 C 538.961 1.32806 1.85574 0
M  V30 5666 C 539.939 0.201354 1.61348 0
M  V30 5667 O 541.123 0.38216 1.84585 0
M  V30 5668 C 538.25 1.06271 3.21596 0
M  V30 5669 C 537.296 2.21161 3.64678 0
M  V30 5670 S 538.129 3.83454 3.73796 0
M  V30 5671 C 539.285 3.59149 5.12604 0
M  V30 5672 H 539.518 2.27838 1.9099 0
M  V30 5673 H 537.051 1.25605 0.897927 0
M  V30 5674 H 539.009 0.916461 4.00139 0
M  V30 5675 H 537.67 0.129223 3.13834 0
M  V30 5676 H 536.863 1.98193 4.63396 0
M  V30 5677 H 536.465 2.32 2.93346 0
M  V30 5678 H 538.757 3.16547 5.99003 0
M  V30 5679 H 539.7 4.57335 5.40602 0
M  V30 5680 H 540.108 2.93203 4.82382 0
M  V30 5681 N 539.506 -0.963266 1.24736 0
M  V30 5682 C 540.436 -2.07628 1.06832 0
M  V30 5683 C 541.417 -1.70088 -0.0200566 0
M  V30 5684 O 542.602 -1.93636 0.147854 0
M  V30 5685 C 539.732 -3.40636 0.677069 0
M  V30 5686 C 538.686 -3.9215 1.71471 0
M  V30 5687 C 538.012 -5.21553 1.1784 0
M  V30 5688 C 539.312 -4.19493 3.11164 0
M  V30 5689 H 541.006 -2.22864 1.9993 0
M  V30 5690 H 538.552 -1.07093 0.96266 0
M  V30 5691 H 540.505 -4.17941 0.538792 0
M  V30 5692 H 539.229 -3.25313 -0.289612 0
M  V30 5693 H 537.888 -3.17005 1.84128 0
M  V30 5694 H 537.536 -5.02593 0.202195 0
M  V30 5695 H 537.236 -5.56988 1.87185 0
M  V30 5696 H 538.76 -6.01463 1.05233 0
M  V30 5697 H 540.174 -4.87487 3.01711 0
M  V30 5698 H 538.571 -4.66165 3.77902 0
M  V30 5699 H 539.641 -3.26097 3.58871 0
M  V30 5700 N 540.985 -1.06182 -1.16461 0
M  V30 5701 C 542.401 -0.785065 -1.38956 0
M  V30 5702 C 542.601 0.616103 -1.9185 0
M  V30 5703 O 541.657 1.37686 -2.11657 0
M  V30 5704 C 542.97 -1.84902 -2.37132 0
M  V30 5705 C 544.518 -1.8724 -2.50819 0
M  V30 5706 C 544.993 -2.92686 -3.52277 0
M  V30 5707 N 546.484 -2.91712 -3.59803 0
M  V30 5708 C 547.219 -3.69949 -4.38093 0
M  V30 5709 N 546.715 -4.58 -5.19815 0
M  V30 5710 N 548.508 -3.58346 -4.33064 0
M  V30 5711 H 540.659 -1.96569 -0.804634 0
M  V30 5712 H 542.922 -0.851747 -0.416211 0
M  V30 5713 H 542.628 -2.85518 -2.0536 0
M  V30 5714 H 542.502 -1.69908 -3.36766 0
M  V30 5715 H 544.889 -0.872827 -2.81897 0
M  V30 5716 H 544.97 -2.06311 -1.51226 0
M  V30 5717 H 544.614 -3.92835 -3.21937 0
M  V30 5718 H 544.544 -2.70864 -4.51598 0
M  V30 5719 H 547.035 -2.27876 -3.01464 0
M  V30 5720 H 547.348 -5.14357 -5.76764 0
M  V30 5721 H 545.693 -4.62056 -5.19162 0
M  V30 5722 H 548.884 -2.88943 -3.68279 0
M  V30 5723 H 549.057 -4.19563 -4.93833 0
M  V30 5724 N 542.463 1.3308 -0.844243 0
M  V30 5725 C 543.396 2.27075 -0.226279 0
M  V30 5726 C 544.374 1.49911 0.629716 0
M  V30 5727 O 545.558 1.79068 0.588803 0
M  V30 5728 C 542.685 3.31767 0.681782 0
M  V30 5729 C 541.731 4.26384 -0.0994565 0
M  V30 5730 S 542.564 5.15186 -1.46094 0
M  V30 5731 C 543.72 6.23405 -0.558319 0
M  V30 5732 H 543.953 2.79141 -1.02312 0
M  V30 5733 H 541.486 1.40452 -0.641292 0
M  V30 5734 H 543.444 3.92566 1.20008 0
M  V30 5735 H 542.105 2.78507 1.45234 0
M  V30 5736 H 541.298 5.00514 0.591733 0
M  V30 5737 H 540.9 3.69949 -0.548991 0
M  V30 5738 H 543.192 6.77069 0.241672 0
M  V30 5739 H 544.135 6.96619 -1.26995 0
M  V30 5740 H 544.543 5.64333 -0.13728 0
M  V30 5741 N 543.941 0.601185 1.45683 0
M  V30 5742 C 545.187 0.0940202 2.02582 0
M  V30 5743 C 545.52 -1.26972 1.46941 0
M  V30 5744 O 544.795 -1.83613 0.641612 0
M  V30 5745 C 545.078 0.0481715 3.60068 0
M  V30 5746 C 544.931 1.44212 4.26055 0
M  V30 5747 C 546.25 -0.642975 4.35378 0
M  V30 5748 H 543.369 0.0356404 0.736138 0
M  V30 5749 H 546.011 0.771929 1.73612 0
M  V30 5750 H 544.161 -0.529128 3.8488 0
M  V30 5751 H 545.833 2.06601 4.12449 0
M  V30 5752 H 544.076 2.00465 3.84703 0
M  V30 5753 H 544.747 1.36234 5.34925 0
M  V30 5754 H 547.223 -0.152351 4.15821 0
M  V30 5755 H 546.099 -0.644141 5.45107 0
M  V30 5756 H 546.36 -1.70785 4.0778 0
M  V30 5757 N 545.419 -1.53889 0.339982 0
M  V30 5758 C 546.644 -2.05741 -0.261798 0
M  V30 5759 C 547.069 -1.21354 -1.43718 0
M  V30 5760 O 546.427 -0.22645 -1.7988 0
M  V30 5761 C 546.475 -3.54542 -0.658228 0
M  V30 5762 O 545.579 -3.7302 -1.75869 0
M  V30 5763 H 544.92 -0.662529 -0.0441672 0
M  V30 5764 H 547.45 -1.98568 0.493161 0
M  V30 5765 H 547.46 -3.9711 -0.936368 0
M  V30 5766 H 546.135 -4.15412 0.201358 0
M  V30 5767 H 544.712 -3.42355 -1.47809 0
M  V30 5768 N 546.897 -0.0685191 -1.57451 0
M  V30 5769 C 547.86 0.885173 -2.11417 0
M  V30 5770 C 548.86 1.22853 -1.03748 0
M  V30 5771 O 550.05 1.16235 -1.2975 0
M  V30 5772 C 547.182 2.18964 -2.61281 0
M  V30 5773 H 548.375 0.417034 -2.96986 0
M  V30 5774 H 545.928 0.18014 -1.55258 0
M  V30 5775 H 546.663 2.70321 -1.79156 0
M  V30 5776 H 546.448 1.9534 -3.39977 0
M  V30 5777 H 547.938 2.87242 -3.0312 0
M  V30 5778 N 548.375 1.56261 0.205012 0
M  V30 5779 C 549.621 1.80306 0.9283 0
M  V30 5780 C 549.954 0.640932 1.83319 0
M  V30 5781 O 549.229 -0.359032 1.91158 0
M  V30 5782 C 549.512 3.14547 1.75306 0
M  V30 5783 C 549.365 4.41236 0.873562 0
M  V30 5784 C 550.684 3.45382 2.72762 0
M  V30 5785 H 547.803 0.655929 0.336044 0
M  V30 5786 H 550.445 1.88984 0.196211 0
M  V30 5787 H 548.595 3.0728 2.37721 0
M  V30 5788 H 550.267 4.60539 0.264887 0
M  V30 5789 H 548.51 4.33427 0.179773 0
M  V30 5790 H 549.181 5.31639 1.48541 0
M  V30 5791 H 551.657 3.52884 2.20481 0
M  V30 5792 H 550.533 4.40449 3.2756 0
M  V30 5793 H 550.794 2.68377 3.51321 0
M  V30 5794 N 549.853 -0.472356 1.50355 0
M  V30 5795 C 550.783 -1.57859 1.72055 0
M  V30 5796 C 551.764 -1.60283 0.569505 0
M  V30 5797 O 552.949 -1.7657 0.808503 0
M  V30 5798 C 550.079 -2.96191 1.81351 0
M  V30 5799 C 549.033 -3.08633 2.96529 0
M  V30 5800 C 548.359 -4.486 2.90968 0
M  V30 5801 C 549.659 -2.85969 4.37057 0
M  V30 5802 H 551.353 -1.39953 2.64676 0
M  V30 5803 H 548.899 -0.671846 1.27367 0
M  V30 5804 H 550.852 -3.73507 1.95117 0
M  V30 5805 H 549.576 -3.15251 0.853502 0
M  V30 5806 H 548.235 -2.33749 2.82413 0
M  V30 5807 H 547.883 -4.64577 1.92815 0
M  V30 5808 H 547.583 -4.57861 3.68289 0
M  V30 5809 H 549.107 -5.27938 3.0678 0
M  V30 5810 H 550.521 -3.53036 4.51706 0
M  V30 5811 H 548.918 -3.06677 5.15819 0
M  V30 5812 H 549.988 -1.81838 4.49514 0
M  V30 5813 N 551.331 -1.39911 -0.725443 0
M  V30 5814 C 552.263 -1.35301 -1.85003 0
M  V30 5815 C 553.276 -0.260102 -1.60709 0
M  V30 5816 O 554.465 -0.519749 -1.70766 0
M  V30 5817 C 551.565 -1.08039 -3.21218 0
M  V30 5818 C 550.738 -2.28793 -3.7279 0
M  V30 5819 C 549.797 -1.97841 -4.87591 0
M  V30 5820 O 548.823 -2.70616 -5.00755 0
M  V30 5821 N 550.025 -0.950367 -5.72668 0
M  V30 5822 H 552.79 -2.32218 -1.89459 0
M  V30 5823 H 550.351 -1.34137 -0.90658 0
M  V30 5824 H 552.343 -0.853354 -3.95601 0
M  V30 5825 H 550.913 -0.198229 -3.11971 0
M  V30 5826 H 550.133 -2.67388 -2.8965 0
M  V30 5827 H 551.421 -3.09317 -4.03981 0
M  V30 5828 H 550.819 -0.347436 -5.64632 0
M  V30 5829 H 549.376 -0.783232 -6.47077 0
M  V30 5830 N 552.809 0.956637 -1.25245 0
M  V30 5831 C 554.056 1.701 -1.09874 0
M  V30 5832 C 554.384 1.91128 0.36062 0
M  V30 5833 O 553.639 1.47837 1.28229 0
M  V30 5834 C 553.938 3.08996 -1.79601 0
M  V30 5835 C 553.604 3.07774 -3.29523 0
M  V30 5836 C 552.266 3.07149 -3.70423 0
M  V30 5837 C 554.618 3.01257 -4.25316 0
M  V30 5838 C 551.946 2.97752 -5.0553 0
M  V30 5839 C 554.298 2.93403 -5.60444 0
M  V30 5840 C 552.962 2.91111 -6.00675 0
M  V30 5841 H 552.232 0.62244 -0.402056 0
M  V30 5842 H 554.879 1.1178 -1.55491 0
M  V30 5843 H 553.184 3.70848 -1.26408 0
M  V30 5844 H 554.881 3.65407 -1.65162 0
M  V30 5845 H 551.471 3.09032 -2.9698 0
M  V30 5846 H 555.655 3.00861 -3.9471 0
M  V30 5847 H 550.911 2.94346 -5.35883 0
M  V30 5848 H 555.085 2.87321 -6.34366 0
M  V30 5849 H 552.712 2.83586 -7.05325 0
M  V30 5850 N 554.287 1.06798 1.15896 0
M  V30 5851 C 555.535 0.786211 1.8618 0
M  V30 5852 C 555.856 -0.689547 1.82401 0
M  V30 5853 O 555.126 -1.49913 1.26107 0
M  V30 5854 H 553.706 0.287843 0.689315 0
M  V30 5855 H 556.368 1.35055 1.40521 0
M  V30 5856 H 555.464 1.1157 2.91477 0
M  V30 5857 N 555.766 -1.3263 0.851289 0
M  V30 5858 C 556.714 -2.30882 0.282202 0
M  V30 5859 C 557.708 -1.58697 -0.592589 0
M  V30 5860 O 558.914 -1.73461 -0.480768 0
M  V30 5861 H 555.289 -0.748492 0.0725487 0
M  V30 5862 H 557.26 -2.76374 1.12516 0
M  V30 5863 C 556.009 -3.43828 -0.517449 0
M  V30 5864 H 555.332 -3.99532 0.146392 0
M  V30 5865 H 556.772 -4.1474 -0.88128 0
M  V30 5866 C 555.231 -2.90786 -1.70133 0
M  V30 5867 O 555.761 -2.88 -2.80034 0
M  V30 5868 N 553.967 -2.4723 -1.52728 0
M  V30 5869 H 553.514 -2.49695 -0.633257 0
M  V30 5870 H 553.472 -2.12094 -2.32085 0
M  V30 5871 N 557.244 -0.608902 -1.45362 0
M  V30 5872 C 558.493 -0.10218 -2.01441 0
M  V30 5873 C 558.806 1.27546 -1.48295 0
M  V30 5874 O 560.012 1.87498 -1.96359 0
M  V30 5875 C 558.468 -0.131985 -3.59658 0
M  V30 5876 C 558.076 -1.50956 -4.21801 0
M  V30 5877 C 559.82 0.319427 -4.23296 0
M  V30 5878 C 557.727 -1.49568 -5.72174 0
M  V30 5879 H 556.657 -0.0344314 -0.753213 0
M  V30 5880 H 559.308 -0.764426 -1.6682 0
M  V30 5881 H 557.69 0.596939 -3.91475 0
M  V30 5882 H 558.864 -2.26029 -4.01556 0
M  V30 5883 H 557.179 -1.90318 -3.70362 0
M  V30 5884 H 559.776 0.349013 -5.3356 0
M  V30 5885 H 560.119 1.34237 -3.94064 0
M  V30 5886 H 560.652 -0.356273 -3.96201 0
M  V30 5887 H 557.391 -2.49626 -6.06108 0
M  V30 5888 H 556.911 -0.787542 -5.94607 0
M  V30 5889 H 558.59 -1.21989 -6.35396 0
M  V30 5890 N 558.722 1.53707 -0.348139 0
M  V30 5891 C 559.685 2.23812 0.494058 0
M  V30 5892 C 560.685 1.23989 1.02388 0
M  V30 5893 O 561.875 1.48395 0.912396 0
M  V30 5894 C 559.007 2.96133 1.68872 0
M  V30 5895 H 560.2 2.99663 -0.119141 0
M  V30 5896 H 557.753 1.55983 -0.0995539 0
M  V30 5897 H 558.488 2.24481 2.34049 0
M  V30 5898 H 558.273 3.69357 1.31596 0
M  V30 5899 H 559.763 3.49475 2.28597 0
M  V30 5900 N 560.2 0.0768682 1.57412 0
M  V30 5901 C 561.13 -0.886026 2.16037 0
M  V30 5902 C 562.111 -1.30691 1.08876 0
M  V30 5903 O 563.296 -1.37705 1.36934 0
M  V30 5904 C 560.426 -2.1518 2.72608 0
M  V30 5905 C 559.38 -1.87015 3.8498 0
M  V30 5906 C 558.706 -3.20266 4.28175 0
M  V30 5907 C 560.006 -1.17143 5.08994 0
M  V30 5908 H 561.7 -0.397642 2.96748 0
M  V30 5909 H 559.246 -0.189823 1.42743 0
M  V30 5910 H 561.199 -2.82962 3.12266 0
M  V30 5911 H 559.923 -2.66269 1.89125 0
M  V30 5912 H 558.582 -1.21636 3.45833 0
M  V30 5913 H 558.23 -3.69207 3.41607 0
M  V30 5914 H 557.93 -3.0221 5.03927 0
M  V30 5915 H 559.454 -3.89237 4.70454 0
M  V30 5916 H 560.868 -1.75003 5.45937 0
M  V30 5917 H 559.265 -1.09328 5.90057 0
M  V30 5918 H 560.335 -0.151295 4.84664 0
M  V30 5919 N 561.678 -1.56367 -0.196722 0
M  V30 5920 C 562.625 -1.94417 -1.24382 0
M  V30 5921 C 563.595 -0.804543 -1.45315 0
M  V30 5922 O 564.78 -1.06256 -1.58475 0
M  V30 5923 C 561.92 -2.28757 -2.58388 0
M  V30 5924 C 561.033 -3.55775 -2.45047 0
M  V30 5925 C 560.168 -3.79445 -3.71746 0
M  V30 5926 C 559.207 -4.99894 -3.53231 0
M  V30 5927 N 558.344 -5.19826 -4.71938 0
M  V30 5928 H 563.184 -2.83691 -0.912338 0
M  V30 5929 H 560.721 -1.40392 -0.439135 0
M  V30 5930 H 562.679 -2.46682 -3.36457 0
M  V30 5931 H 561.309 -1.42625 -2.89582 0
M  V30 5932 H 560.361 -3.45905 -1.58284 0
M  V30 5933 H 561.673 -4.44 -2.27299 0
M  V30 5934 H 560.827 -3.97601 -4.58256 0
M  V30 5935 H 559.566 -2.89546 -3.92446 0
M  V30 5936 H 558.571 -4.81662 -2.65107 0
M  V30 5937 H 559.796 -5.913 -3.33978 0
M  V30 5938 H 557.742 -4.32875 -4.92905 0
M  V30 5939 H 557.659 -6.02228 -4.57009 0
M  V30 5940 H 558.927 -5.42439 -5.59803 0
M  V30 5941 N 563.156 0.464375 -1.50603 0
M  V30 5942 C 564.572 0.798684 -1.38178 0
M  V30 5943 C 564.772 1.96568 -0.44308 0
M  V30 5944 O 563.828 2.52252 0.111814 0
M  V30 5945 C 565.141 1.10444 -2.79683 0
M  V30 5946 C 566.689 1.2105 -2.88645 0
M  V30 5947 C 567.164 1.54934 -4.30998 0
M  V30 5948 N 568.655 1.61913 -4.3398 0
M  V30 5949 C 569.39 1.8965 -5.41129 0
M  V30 5950 N 568.886 2.15361 -6.58477 0
M  V30 5951 N 570.679 1.91207 -5.28579 0
M  V30 5952 H 562.83 -0.304603 -2.10204 0
M  V30 5953 H 565.093 -0.0737804 -0.945125 0
M  V30 5954 H 564.799 0.319934 -3.50242 0
M  V30 5955 H 564.673 2.03896 -3.17342 0
M  V30 5956 H 567.06 1.98567 -2.18301 0
M  V30 5957 H 567.141 0.255613 -2.5452 0
M  V30 5958 H 566.785 0.779549 -5.01882 0
M  V30 5959 H 566.715 2.51584 -4.62615 0
M  V30 5960 H 569.206 1.44055 -3.49366 0
M  V30 5961 H 569.519 2.35818 -7.35941 0
M  V30 5962 H 567.864 2.1274 -6.6164 0
M  V30 5963 H 571.055 1.70622 -4.35897 0
M  V30 5964 H 571.228 2.12488 -6.12171 0
M  V30 5965 N 564.634 1.40294 0.718013 0
M  V30 5966 C 565.544 1.42678 1.86226 0
M  V30 5967 C 566.56 0.319655 1.71039 0
M  V30 5968 O 567.736 0.563852 1.93346 0
M  V30 5969 C 564.801 1.2852 3.21999 0
M  V30 5970 C 563.862 2.49354 3.49458 0
M  V30 5971 C 563.095 2.35863 4.78753 0
M  V30 5972 O 563.318 1.37114 5.53675 0
M  V30 5973 O 562.252 3.25189 5.06494 0
M  V30 5974 H 566.078 2.39167 1.87171 0
M  V30 5975 H 563.663 1.2159 0.868112 0
M  V30 5976 H 565.545 1.22824 4.03103 0
M  V30 5977 H 564.22 0.351359 3.21787 0
M  V30 5978 H 563.127 2.60628 2.68373 0
M  V30 5979 H 564.46 3.41491 3.54464 0
M  V30 5980 N 566.112 -0.949982 1.2575 0
M  V30 5981 C 567.528 -1.22191 1.02672 0
M  V30 5982 C 567.728 -1.99898 -0.253588 0
M  V30 5983 O 566.784 -2.33329 -0.965076 0
M  V30 5984 C 568.097 -1.99175 2.25277 0
M  V30 5985 C 569.645 -2.12201 2.30087 0
M  V30 5986 C 570.12 -2.92586 3.5236 0
M  V30 5987 N 571.611 -3.00163 3.52784 0
M  V30 5988 C 572.346 -3.62766 4.44059 0
M  V30 5989 N 571.842 -4.26943 5.45611 0
M  V30 5990 N 573.635 -3.59953 4.3173 0
M  V30 5991 H 565.786 -0.430258 2.07996 0
M  V30 5992 H 568.049 -0.252844 0.91366 0
M  V30 5993 H 567.755 -1.49479 3.18354 0
M  V30 5994 H 567.629 -2.99868 2.28821 0
M  V30 5995 H 570.016 -2.61093 1.3753 0
M  V30 5996 H 570.097 -1.10799 2.30559 0
M  V30 5997 H 569.741 -2.44383 4.45241 0
M  V30 5998 H 569.671 -3.94224 3.49134 0
M  V30 5999 H 572.162 -2.54529 2.79327 0
M  V30 6000 H 572.475 -4.72583 6.11461 0
M  V30 6001 H 570.82 -4.25557 5.49478 0
M  V30 6002 H 574.011 -3.09003 3.51617 0
M  V30 6003 H 574.184 -4.08455 5.03059 0
M  V30 6004 N 567.59 -1.07411 -1.15328 0
M  V30 6005 C 568.538 -0.689316 -2.22151 0
M  V30 6006 C 569.532 0.300156 -1.6672 0
M  V30 6007 O 570.738 0.163804 -1.79253 0
M  V30 6008 H 567.113 -0.204834 -0.723566 0
M  V30 6009 H 569.084 -1.59988 -2.51886 0
M  V30 6010 C 567.833 -0.103848 -3.47545 0
M  V30 6011 H 567.156 -0.856367 -3.90521 0
M  V30 6012 H 568.596 0.127725 -4.23808 0
M  V30 6013 C 567.055 1.15563 -3.1646 0
M  V30 6014 O 567.585 2.242 -3.33312 0
M  V30 6015 N 565.791 1.06203 -2.70498 0
M  V30 6016 H 565.338 0.177933 -2.56985 0
M  V30 6017 H 565.296 1.90553 -2.50074 0
M  V30 6018 N 569.068 1.32177 -0.85831 0
M  V30 6019 C 570.296 2.01313 -0.477582 0
M  V30 6020 C 570.711 1.6449 0.926736 0
M  V30 6021 O 570.068 0.868096 1.60531 0
M  V30 6022 C 570.119 3.56293 -0.611337 0
M  V30 6023 O 569.84 3.91794 -1.96034 0
M  V30 6024 C 571.341 4.42702 -0.230093 0
M  V30 6025 H 568.561 0.644323 -0.187322 0
M  V30 6026 H 571.105 1.68674 -1.15626 0
M  V30 6027 H 569.26 3.87395 0.0196494 0
M  V30 6028 H 569.674 4.86513 -1.95973 0
M  V30 6029 H 571.148 5.50727 -0.374674 0
M  V30 6030 H 571.625 4.3129 0.829779 0
M  V30 6031 H 572.231 4.16997 -0.836302 0
M  V30 6032 N 570.547 0.616602 1.45037 0
M  V30 6033 C 571.824 0.0469086 1.95544 0
M  V30 6034 C 572.204 -1.42345 1.55888 0
M  V30 6035 O 571.552 -2.13055 0.825824 0
M  V30 6036 C 571.762 0.254489 3.48071 0
M  V30 6037 C 573.11 0.140025 4.24369 0
M  V30 6038 O 574.134 0.185084 3.55719 0
M  V30 6039 O 572.993 0.0327034 5.4649 0
M  V30 6040 H 570.087 -0.0306051 0.826433 0
M  V30 6041 H 572.633 0.687293 1.55159 0
M  V30 6042 H 571.405 1.27532 3.69934 0
M  V30 6043 H 571.028 -0.42073 3.95368 0
M  V30 6044 N 572.025 -1.5352 0.356285 0
M  V30 6045 C 572.957 -2.23009 -0.529127 0
M  V30 6046 C 573.97 -1.241 -1.05371 0
M  V30 6047 O 575.159 -1.50379 -0.961679 0
M  V30 6048 C 572.259 -2.90685 -1.74229 0
M  V30 6049 C 571.432 -4.16019 -1.35081 0
M  V30 6050 C 570.491 -4.66989 -2.42502 0
M  V30 6051 O 569.517 -5.30895 -2.05279 0
M  V30 6052 N 570.719 -4.44006 -3.7395 0
M  V30 6053 H 573.484 -2.99627 0.0660501 0
M  V30 6054 H 571.045 -1.60885 0.181014 0
M  V30 6055 H 573.037 -3.21695 -2.4555 0
M  V30 6056 H 571.607 -2.17575 -2.24454 0
M  V30 6057 H 570.827 -3.91414 -0.467833 0
M  V30 6058 H 572.115 -4.9752 -1.06542 0
M  V30 6059 H 571.513 -3.92924 -4.06973 0
M  V30 6060 H 570.07 -4.7959 -4.41403 0
M  V30 6061 N 573.503 -0.0852151 -1.57369 0
M  V30 6062 C 574.466 0.8627 -2.12344 0
M  V30 6063 C 575.466 1.21746 -1.05046 0
M  V30 6064 O 576.656 1.14852 -1.30976 0
M  V30 6065 C 573.788 2.1618 -2.63589 0
M  V30 6066 H 574.981 0.385511 -2.97412 0
M  V30 6067 H 572.534 0.163663 -1.55441 0
M  V30 6068 H 573.269 2.68406 -1.82013 0
M  V30 6069 H 573.054 1.91723 -3.4203 0
M  V30 6070 H 574.544 2.84011 -3.06149 0
M  V30 6071 N 574.981 1.5647 0.188427 0
M  V30 6072 C 576.209 1.85131 0.923803 0
M  V30 6073 C 576.624 0.668537 1.76567 0
M  V30 6074 O 575.981 -0.362662 1.7886 0
M  V30 6075 C 576.032 3.12661 1.81453 0
M  V30 6076 O 575.753 4.26378 1.00665 0
M  V30 6077 C 577.254 3.54548 2.66103 0
M  V30 6078 H 574.474 0.614624 0.269218 0
M  V30 6079 H 577.018 2.03581 0.193671 0
M  V30 6080 H 575.173 2.96088 2.49821 0
M  V30 6081 H 575.587 4.99041 1.61425 0
M  V30 6082 H 577.061 4.4673 3.24247 0
M  V30 6083 H 577.538 2.77853 3.40139 0
M  V30 6084 H 578.144 3.73674 2.03096 0
M  V30 6085 N 576.459 -0.456382 1.50847 0
M  V30 6086 C 577.392 -1.57177 1.65441 0
M  V30 6087 C 578.37 -1.54649 0.502224 0
M  V30 6088 O 579.554 -1.74057 0.723633 0
M  V30 6089 C 576.681 -2.95763 1.65052 0
M  V30 6090 C 575.727 -3.16389 2.86007 0
M  V30 6091 S 576.56 -2.94716 4.47105 0
M  V30 6092 C 577.716 -4.35617 4.49432 0
M  V30 6093 H 577.949 -1.44561 2.59787 0
M  V30 6094 H 575.482 -0.644758 1.40293 0
M  V30 6095 H 577.44 -3.75654 1.65512 0
M  V30 6096 H 576.101 -3.05756 0.719153 0
M  V30 6097 H 575.294 -4.17667 2.82081 0
M  V30 6098 H 574.896 -2.44293 2.8319 0
M  V30 6099 H 577.188 -5.28503 4.239 0
M  V30 6100 H 578.131 -4.44582 5.51137 0
M  V30 6101 H 578.539 -4.18382 3.78967 0
M  V30 6102 N 577.937 -1.40673 -0.710563 0
M  V30 6103 C 579.348 -1.34975 -1.28991 0
M  V30 6104 C 579.699 -0.0256272 -1.96183 0
M  V30 6105 O 578.824 0.876339 -1.97862 0
M  V30 6106 C 579.419 -2.44467 -2.34567 0
M  V30 6107 C 577.978 -2.42213 -2.88114 0
M  V30 6108 C 577.125 -2.25085 -1.61963 0
M  V30 6109 H 580.076 -1.50406 -0.506343 0
M  V30 6110 H 580.097 -2.12663 -3.15523 0
M  V30 6111 H 579.609 -3.40825 -1.85634 0
M  V30 6112 H 577.71 -1.49568 -3.41263 0
M  V30 6113 H 577.823 -3.37983 -3.39565 0
M  V30 6114 H 576.187 -1.72691 -1.87216 0
M  V30 6115 H 576.97 -3.23449 -1.15047 0
M  V30 6116 N 579.415 0.9433 -1.26252 0
M  V30 6117 C 580.692 1.66639 -1.02424 0
M  V30 6118 C 581.072 2.06335 0.446006 0
M  V30 6119 O 580.42 1.78551 1.42589 0
M  V30 6120 C 580.63 2.88019 -1.97094 0
M  V30 6121 C 581.978 3.59718 -2.25584 0
M  V30 6122 O 583.002 2.9812 -1.94943 0
M  V30 6123 O 581.861 4.7066 -2.77743 0
M  V30 6124 H 578.955 0.729643 -0.389294 0
M  V30 6125 H 581.501 0.995218 -1.37454 0
M  V30 6126 H 580.273 2.5556 -2.96319 0
M  V30 6127 H 579.896 3.62863 -1.62532 0
M  V30 6128 N 580.893 1.08022 1.14757 0
M  V30 6129 C 581.841 0.701088 2.21783 0
M  V30 6130 C 582.835 -0.291311 1.66876 0
M  V30 6131 O 584.041 -0.154296 1.79337 0
M  V30 6132 H 580.416 0.208668 0.722469 0
M  V30 6133 H 582.387 1.61321 2.51034 0
M  V30 6134 C 581.136 0.122278 3.47485 0
M  V30 6135 H 580.459 0.877065 3.90061 0
M  V30 6136 H 581.899 -0.105248 4.23869 0
M  V30 6137 C 580.358 -1.13883 3.17068 0
M  V30 6138 O 580.888 -2.22429 3.34497 0
M  V30 6139 N 579.094 -1.04767 2.71058 0
M  V30 6140 H 578.641 -0.164302 2.57075 0
M  V30 6141 H 578.599 -1.89224 2.51081 0
M  V30 6142 N 582.371 -1.3172 0.865308 0
M  V30 6143 C 583.599 -2.01057 0.488251 0
M  V30 6144 C 584.014 -1.64979 -0.918 0
M  V30 6145 O 583.371 -0.876597 -1.60069 0
M  V30 6146 C 583.422 -3.55964 0.630224 0
M  V30 6147 O 583.143 -3.90749 1.98109 0
M  V30 6148 C 584.644 -4.42574 0.253567 0
M  V30 6149 H 581.864 -0.64332 0.190736 0
M  V30 6150 H 584.408 -1.68058 1.16519 0
M  V30 6151 H 582.563 -3.874 0.000895422 0
M  V30 6152 H 582.977 -4.85467 1.9855 0
M  V30 6153 H 584.451 -5.50521 0.403875 0
M  V30 6154 H 584.928 -4.31724 -0.806895 0
M  V30 6155 H 585.534 -4.16547 0.858404 0
M  V30 6156 N 583.85 -0.624285 -1.44708 0
M  V30 6157 C 584.812 0.0749638 -2.29077 0
M  V30 6158 C 585.812 0.778965 -1.40673 0
M  V30 6159 O 587.003 0.624591 -1.62618 0
M  V30 6160 C 584.135 1.11663 -3.22094 0
M  V30 6161 H 585.327 -0.667013 -2.92388 0
M  V30 6162 H 582.88 -0.384098 -1.51507 0
M  V30 6163 H 583.615 1.88881 -2.63618 0
M  V30 6164 H 583.401 0.61583 -3.87234 0
M  V30 6165 H 584.891 1.60585 -3.8549 0
M  V30 6166 N 585.328 1.53329 -0.364422 0
M  V30 6167 C 586.291 2.24323 0.470292 0
M  V30 6168 C 587.291 1.25068 1.01067 0
M  V30 6169 O 588.481 1.49354 0.896605 0
M  V30 6170 C 585.613 2.97908 1.65722 0
M  V30 6171 H 586.806 2.9952 -0.150917 0
M  V30 6172 H 584.359 1.55868 -0.116092 0
M  V30 6173 H 585.094 2.2695 2.31655 0
M  V30 6174 H 584.879 3.70732 1.27671 0
M  V30 6175 H 586.369 3.5188 2.24878 0
M  V30 6176 N 586.806 0.0935595 1.57322 0
M  V30 6177 C 587.738 -0.895923 2.10964 0
M  V30 6178 C 588.751 -1.24705 1.04654 0
M  V30 6179 O 589.94 -1.20044 1.32105 0
M  V30 6180 C 587.04 -2.20546 2.57318 0
M  V30 6181 C 586.213 -2.0299 3.87445 0
M  V30 6182 C 585.272 -3.17443 4.19662 0
M  V30 6183 O 584.298 -2.91474 4.88909 0
M  V30 6184 N 585.5 -4.43168 3.74943 0
M  V30 6185 H 588.265 -0.437788 2.96485 0
M  V30 6186 H 585.826 -0.0915863 1.61641 0
M  V30 6187 H 587.818 -2.9606 2.75917 0
M  V30 6188 H 586.388 -2.57789 1.76816 0
M  V30 6189 H 585.608 -1.11815 3.78009 0
M  V30 6190 H 586.896 -1.88535 4.7258 0
M  V30 6191 H 586.294 -4.67149 3.19043 0
M  V30 6192 H 584.851 -5.15637 3.987 0
M  V30 6193 N 588.284 -1.56567 -0.180126 0
M  V30 6194 C 589.231 -1.95725 -1.22313 0
M  V30 6195 C 590.201 -0.819911 -1.44453 0
M  V30 6196 O 591.386 -1.07931 -1.57339 0
M  V30 6197 C 588.526 -2.31484 -2.55947 0
M  V30 6198 C 587.639 -3.58354 -2.4126 0
M  V30 6199 C 586.774 -3.83366 -3.67701 0
M  V30 6200 C 585.813 -5.03612 -3.47909 0
M  V30 6201 N 584.95 -5.24802 -4.66398 0
M  V30 6202 H 589.79 -2.84642 -0.882198 0
M  V30 6203 H 587.327 -1.4085 -0.42422 0
M  V30 6204 H 589.285 -2.50237 -3.33822 0
M  V30 6205 H 587.915 -1.45689 -2.88053 0
M  V30 6206 H 586.967 -3.47565 -1.54606 0
M  V30 6207 H 588.279 -4.46386 -2.22577 0
M  V30 6208 H 587.433 -4.02439 -4.54013 0
M  V30 6209 H 586.172 -2.93692 -3.89353 0
M  V30 6210 H 585.177 -4.84447 -2.59983 0
M  V30 6211 H 586.402 -5.94809 -3.27688 0
M  V30 6212 H 584.348 -4.38079 -4.88286 0
M  V30 6213 H 584.265 -6.07041 -4.50596 0
M  V30 6214 H 585.533 -5.48346 -5.54019 0
M  V30 6215 N 589.762 0.448376 -1.51087 0
M  V30 6216 C 590.692 1.55102 -1.74544 0
M  V30 6217 C 591.673 1.59357 -0.594932 0
M  V30 6218 O 592.858 1.75261 -0.836491 0
M  V30 6219 C 589.988 2.93268 -1.86041 0
M  V30 6220 C 588.942 3.03877 -3.01402 0
M  V30 6221 C 588.268 4.43914 -2.98068 0
M  V30 6222 C 589.568 2.7898 -4.41551 0
M  V30 6223 H 591.262 1.35724 -2.66869 0
M  V30 6224 H 588.808 0.651498 -1.28419 0
M  V30 6225 H 590.761 3.70356 -2.01034 0
M  V30 6226 H 589.485 3.13853 -0.903548 0
M  V30 6227 H 588.144 2.29227 -2.86096 0
M  V30 6228 H 587.792 4.6145 -2.00182 0
M  V30 6229 H 587.492 4.51944 -3.75527 0
M  V30 6230 H 589.016 5.22991 -3.1514 0
M  V30 6231 H 590.43 3.45805 -4.57265 0
M  V30 6232 H 588.827 2.98431 -5.20633 0
M  V30 6233 H 589.897 1.74663 -4.5235 0
M  V30 6234 N 591.24 1.41047 0.703093 0
M  V30 6235 C 592.48 1.41461 1.4754 0
M  V30 6236 C 592.844 0.0199013 1.9199 0
M  V30 6237 O 594.045 -0.101138 2.6861 0
M  V30 6238 C 592.316 2.38703 2.66 0
M  V30 6239 S 593.875 2.57582 3.55242 0
M  V30 6240 H 590.693 0.501226 0.504275 0
M  V30 6241 H 593.295 1.77422 0.821074 0
M  V30 6242 H 591.999 3.3885 2.31536 0
M  V30 6243 H 591.53 2.04069 3.36333 0
M  V30 6244 H 593.545 1.83758 4.6092 0
M  V30 6245 N 592.718 -0.936591 1.26751 0
M  V30 6246 C 594.134 -1.21095 1.03963 0
M  V30 6247 C 594.334 -2.00156 -0.232372 0
M  V30 6248 O 593.39 -2.3434 -0.940274 0
M  V30 6249 C 594.703 -1.96775 2.27377 0
M  V30 6250 C 596.251 -2.09749 2.32324 0
M  V30 6251 C 596.726 -2.88832 3.55443 0
M  V30 6252 N 598.217 -2.96404 3.55948 0
M  V30 6253 C 598.952 -3.58036 4.47881 0
M  V30 6254 N 598.448 -4.21132 5.50109 0
M  V30 6255 N 600.241 -3.55353 4.35523 0
M  V30 6256 H 592.392 -0.408173 2.08441 0
M  V30 6257 H 594.655 -0.243139 0.91629 0
M  V30 6258 H 594.361 -1.46094 3.19921 0
M  V30 6259 H 594.235 -2.97424 2.31989 0
M  V30 6260 H 596.622 -2.5962 1.40291 0
M  V30 6261 H 596.703 -1.08347 2.31721 0
M  V30 6262 H 596.347 -2.39647 4.47808 0
M  V30 6263 H 596.277 -3.90499 3.53296 0
M  V30 6264 H 598.768 -2.51552 2.82011 0
M  V30 6265 H 599.081 -4.66071 6.16439 0
M  V30 6266 H 597.426 -4.19705 5.53961 0
M  V30 6267 H 600.617 -3.05256 3.54875 0
M  V30 6268 H 600.79 -4.03097 5.07363 0
M  V30 6269 N 594.196 -1.08629 -1.14182 0
M  V30 6270 C 595.126 -0.740003 -2.21464 0
M  V30 6271 C 596.107 0.278591 -1.67803 0
M  V30 6272 O 597.292 0.148461 -1.93632 0
M  V30 6273 C 594.422 -0.150952 -3.46972 0
M  V30 6274 C 593.376 -1.09815 -4.13672 0
M  V30 6275 C 592.702 -0.3712 -5.3341 0
M  V30 6276 C 594.002 -2.43722 -4.61949 0
M  V30 6277 H 595.696 -1.63697 -2.50686 0
M  V30 6278 H 593.242 -0.788526 -1.20492 0
M  V30 6279 H 595.195 0.103325 -4.21273 0
M  V30 6280 H 593.919 0.781164 -3.1712 0
M  V30 6281 H 592.578 -1.33756 -3.41328 0
M  V30 6282 H 592.226 0.564792 -4.99819 0
M  V30 6283 H 591.926 -1.00267 -5.78982 0
M  V30 6284 H 593.45 -0.12503 -6.10472 0
M  V30 6285 H 594.864 -2.24034 -5.27714 0
M  V30 6286 H 593.261 -3.02582 -5.18232 0
M  V30 6287 H 594.331 -3.05082 -3.76899 0
M  V30 6288 N 595.674 1.31259 -0.872281 0
M  V30 6289 C 596.604 2.30929 -0.345554 0
M  V30 6290 C 597.585 1.60449 0.5648 0
M  V30 6291 O 598.77 1.8814 0.481335 0
M  V30 6292 C 595.9 3.44348 0.451823 0
M  V30 6293 C 594.854 4.26435 -0.365641 0
M  V30 6294 C 594.18 5.31785 0.557562 0
M  V30 6295 C 595.48 4.97159 -1.60095 0
M  V30 6296 H 597.174 2.75234 -1.17841 0
M  V30 6297 H 594.72 1.3232 -0.568094 0
M  V30 6298 H 596.673 4.13128 0.830854 0
M  V30 6299 H 595.397 2.98816 1.31821 0
M  V30 6300 H 594.056 3.59326 -0.726649 0
M  V30 6301 H 593.704 4.82502 1.4213 0
M  V30 6302 H 593.404 5.87598 0.0144878 0
M  V30 6303 H 594.928 6.03424 0.933387 0
M  V30 6304 H 596.342 5.58523 -1.29323 0
M  V30 6305 H 594.739 5.62779 -2.08327 0
M  V30 6306 H 595.809 4.24012 -2.35249 0
M  V30 6307 N 597.152 0.631951 1.44375 0
M  V30 6308 C 598.4 0.136497 2.01639 0
M  V30 6309 C 598.721 -1.24637 1.49969 0
M  V30 6310 O 597.991 -1.82827 0.70363 0
M  V30 6311 H 596.571 0.0474703 0.74549 0
M  V30 6312 H 599.233 0.818837 1.76865 0
M  V30 6313 H 598.329 0.104817 3.11924 0
M  V30 6314 N 598.631 -1.53133 0.372548 0
M  V30 6315 C 599.561 -2.28876 -0.462412 0
M  V30 6316 C 600.542 -1.31583 -1.07796 0
M  V30 6317 O 601.727 -1.60461 -1.09389 0
M  V30 6318 C 598.857 -3.08317 -1.59868 0
M  V30 6319 C 597.811 -4.13355 -1.11003 0
M  V30 6320 C 597.137 -4.8092 -2.33708 0
M  V30 6321 C 598.437 -5.21955 -0.18983 0
M  V30 6322 H 600.131 -2.9892 0.169511 0
M  V30 6323 H 597.677 -1.43761 0.0829658 0
M  V30 6324 H 599.63 -3.60055 -2.18949 0
M  V30 6325 H 598.354 -2.35976 -2.25794 0
M  V30 6326 H 597.013 -3.62573 -0.541869 0
M  V30 6327 H 596.661 -4.05144 -2.98106 0
M  V30 6328 H 596.361 -5.51904 -2.01682 0
M  V30 6329 H 597.885 -5.35455 -2.93462 0
M  V30 6330 H 599.299 -5.69153 -0.688319 0
M  V30 6331 H 597.696 -6.00087 0.0398887 0
M  V30 6332 H 598.766 -4.78811 0.766057 0
M  V30 6333 N 600.109 -0.101901 -1.5727 0
M  V30 6334 C 601.357 0.559091 -1.94213 0
M  V30 6335 C 601.678 1.68297 -0.984948 0
M  V30 6336 O 600.948 1.95863 -0.0381975 0
M  V30 6337 H 599.528 0.20952 -0.717015 0
M  V30 6338 H 602.19 -0.166831 -1.94185 0
M  V30 6339 H 601.286 0.96485 -2.96811 0
M  V30 6340 N 601.587 1.56661 0.17182 0
M  V30 6341 C 602.833 1.82235 0.889845 0
M  V30 6342 C 603.166 0.679673 1.81918 0
M  V30 6343 O 602.441 -0.318404 1.91876 0
M  V30 6344 C 602.724 3.18195 1.68595 0
M  V30 6345 C 602.577 4.42989 0.779773 0
M  V30 6346 C 603.896 3.5109 2.65375 0
M  V30 6347 H 601.015 0.66291 0.322056 0
M  V30 6348 H 603.657 1.89358 0.15608 0
M  V30 6349 H 601.807 3.12253 2.3115 0
M  V30 6350 H 603.479 4.60997 0.16714 0
M  V30 6351 H 601.722 4.33711 0.0877964 0
M  V30 6352 H 602.393 5.3467 1.3723 0
M  V30 6353 H 604.869 3.57482 2.12946 0
M  V30 6354 H 603.745 4.47298 3.18144 0
M  V30 6355 H 604.006 2.75768 3.45549 0
M  V30 6356 N 603.065 -0.440357 1.51323 0
M  V30 6357 C 604.293 -1.21255 1.67645 0
M  V30 6358 C 604.708 -1.85088 0.37252 0
M  V30 6359 O 604.065 -1.70582 -0.648683 0
M  V30 6360 C 604.116 -2.29881 2.78993 0
M  V30 6361 O 603.837 -1.68659 4.04334 0
M  V30 6362 C 605.338 -3.20214 3.06558 0
M  V30 6363 H 602.558 -0.36558 0.562666 0
M  V30 6364 H 605.102 -0.52214 1.97722 0
M  V30 6365 H 603.257 -2.94643 2.51524 0
M  V30 6366 H 603.671 -2.40426 4.6615 0
M  V30 6367 H 605.145 -3.92575 3.88058 0
M  V30 6368 H 605.622 -3.80794 2.18844 0
M  V30 6369 H 606.228 -2.61156 3.35675 0
M  V30 6370 N 604.543 -1.41418 -0.695603 0
M  V30 6371 C 605.82 -1.31264 -1.45014 0
M  V30 6372 C 606.2 0.0597994 -2.11015 0
M  V30 6373 O 605.548 1.07403 -2.01685 0
M  V30 6374 C 605.758 -2.466 -2.4696 0
M  V30 6375 C 607.106 -2.87763 -3.12214 0
M  V30 6376 O 608.13 -2.46339 -2.57285 0
M  V30 6377 O 606.989 -3.59395 -4.11701 0
M  V30 6378 H 604.083 -0.516576 -0.645816 0
M  V30 6379 H 606.629 -1.53382 -0.726084 0
M  V30 6380 H 605.401 -3.38183 -1.96845 0
M  V30 6381 H 605.024 -2.26358 -3.26876 0
M  V30 6382 N 606.021 0.929856 -1.27246 0
M  V30 6383 C 607.268 1.67731 -1.13457 0
M  V30 6384 C 607.596 1.9185 0.319998 0
M  V30 6385 O 606.851 1.50524 1.25064 0
M  V30 6386 C 607.15 3.05116 -1.86115 0
M  V30 6387 C 606.816 3.00715 -3.35978 0
M  V30 6388 C 605.478 2.99222 -3.76855 0
M  V30 6389 C 607.83 2.92168 -4.3161 0
M  V30 6390 C 605.158 2.86962 -5.11732 0
M  V30 6391 C 607.51 2.81449 -5.66542 0
M  V30 6392 C 606.174 2.78305 -6.06715 0
M  V30 6393 H 605.444 0.613772 -0.415168 0
M  V30 6394 H 608.091 1.08456 -1.57827 0
M  V30 6395 H 606.396 3.68083 -1.34246 0
M  V30 6396 H 608.093 3.61822 -1.72876 0
M  V30 6397 H 604.683 3.02664 -3.03468 0
M  V30 6398 H 608.867 2.92421 -4.01003 0
M  V30 6399 H 604.123 2.82913 -5.42006 0
M  V30 6400 H 608.297 2.738 -6.40317 0
M  V30 6401 H 605.924 2.68561 -7.11181 0
M  V30 6402 N 607.499 1.09233 1.13605 0
M  V30 6403 C 608.724 0.849067 1.89224 0
M  V30 6404 C 609.149 -0.593875 1.78479 0
M  V30 6405 O 608.507 -1.41703 1.13092 0
M  V30 6406 C 608.555 1.28642 3.36873 0
M  V30 6407 O 607.659 0.44363 4.10007 0
M  V30 6408 H 607 0.30767 0.588417 0
M  V30 6409 H 609.53 1.45595 1.43748 0
M  V30 6410 H 609.54 1.27096 3.87699 0
M  V30 6411 H 608.215 2.33729 3.44011 0
M  V30 6412 H 606.792 0.523241 3.69211 0
M  V30 6413 N 608.977 -1.30795 0.87923 0
M  V30 6414 C 610.393 -1.48981 0.57243 0
M  V30 6415 C 610.593 -1.80719 -0.891236 0
M  V30 6416 O 609.649 -1.89136 -1.67283 0
M  V30 6417 C 610.962 -2.61721 1.48063 0
M  V30 6418 C 612.51 -2.75603 1.48365 0
M  V30 6419 C 612.985 -3.91449 2.37763 0
M  V30 6420 N 614.476 -3.98751 2.35695 0
M  V30 6421 C 615.211 -4.87684 3.01583 0
M  V30 6422 N 614.707 -5.81454 3.76674 0
M  V30 6423 N 616.5 -4.81005 2.90844 0
M  V30 6424 H 608.651 -1.08465 1.82617 0
M  V30 6425 H 610.914 -0.536813 0.781368 0
M  V30 6426 H 610.62 -2.45073 2.52254 0
M  V30 6427 H 610.494 -3.58071 1.18596 0
M  V30 6428 H 612.881 -2.9166 0.44927 0
M  V30 6429 H 612.962 -1.79891 1.81859 0
M  V30 6430 H 612.606 -3.76149 3.41283 0
M  V30 6431 H 612.536 -4.86487 2.01589 0
M  V30 6432 H 615.027 -3.31668 1.81121 0
M  V30 6433 H 615.34 -6.46063 4.24054 0
M  V30 6434 H 613.685 -5.81403 3.80782 0
M  V30 6435 H 616.876 -4.06728 2.31711 0
M  V30 6436 H 617.049 -5.50107 3.42471 0
M  V30 6437 N 610.455 -0.639598 -1.44038 0
M  V30 6438 C 611.418 0.0506628 -2.29144 0
M  V30 6439 C 612.418 0.764001 -1.41491 0
M  V30 6440 O 613.608 0.607309 -1.63271 0
M  V30 6441 C 610.74 1.0824 -3.2326 0
M  V30 6442 H 611.933 -0.697987 -2.91664 0
M  V30 6443 H 609.486 -0.400146 -1.51091 0
M  V30 6444 H 610.221 1.86075 -2.65606 0
M  V30 6445 H 610.006 0.574725 -3.87865 0
M  V30 6446 H 611.496 1.56487 -3.87171 0
M  V30 6447 N 611.933 1.52934 -0.380664 0
M  V30 6448 C 612.863 2.29118 0.450268 0
M  V30 6449 C 613.844 1.32153 1.07096 0
M  V30 6450 O 615.029 1.61038 1.08537 0
M  V30 6451 C 612.159 3.09161 1.58231 0
M  V30 6452 C 611.113 4.13938 1.0881 0
M  V30 6453 C 610.439 4.82153 2.31155 0
M  V30 6454 C 611.739 5.22048 0.162146 0
M  V30 6455 H 613.433 2.98826 -0.185361 0
M  V30 6456 H 610.979 1.43715 -0.0905886 0
M  V30 6457 H 612.932 3.61211 2.17036 0
M  V30 6458 H 611.656 2.3717 2.2454 0
M  V30 6459 H 610.315 3.62855 0.522633 0
M  V30 6460 H 609.963 4.06719 2.95953 0
M  V30 6461 H 609.663 5.52966 1.98752 0
M  V30 6462 H 611.187 5.37004 2.90618 0
M  V30 6463 H 612.601 5.6951 0.658126 0
M  V30 6464 H 610.998 6.00057 -0.0717122 0
M  V30 6465 H 612.068 4.78398 -0.791438 0
M  V30 6466 N 613.412 0.11024 1.57214 0
M  V30 6467 C 614.342 -0.840002 2.17867 0
M  V30 6468 C 615.323 -1.28352 1.11624 0
M  V30 6469 O 616.508 -1.3477 1.39824 0
M  V30 6470 C 613.638 -2.09349 2.77111 0
M  V30 6471 C 612.592 -1.78807 3.8886 0
M  V30 6472 C 611.918 -3.11112 4.34872 0
M  V30 6473 C 613.218 -1.0632 5.11364 0
M  V30 6474 H 614.912 -0.334608 2.97524 0
M  V30 6475 H 612.458 -0.159502 1.43114 0
M  V30 6476 H 614.411 -2.76275 3.18198 0
M  V30 6477 H 613.135 -2.62198 1.9473 0
M  V30 6478 H 611.794 -1.14273 3.48335 0
M  V30 6479 H 611.442 -3.61877 3.49362 0
M  V30 6480 H 611.142 -2.91453 5.10224 0
M  V30 6481 H 612.666 -3.79171 4.78604 0
M  V30 6482 H 614.08 -1.63383 5.49526 0
M  V30 6483 H 612.477 -0.967876 5.92243 0
M  V30 6484 H 613.547 -0.0484569 4.84876 0
M  V30 6485 N 614.89 -1.56749 -0.16351 0
M  V30 6486 C 616.118 -1.86577 -0.894233 0
M  V30 6487 C 616.533 -0.696543 -1.75481 0
M  V30 6488 O 615.89 0.334161 -1.79415 0
M  V30 6489 C 615.941 -3.15508 -1.76456 0
M  V30 6490 O 615.662 -4.27926 -0.938685 0
M  V30 6491 C 617.163 -3.58737 -2.60428 0
M  V30 6492 H 614.383 -0.618829 -0.259405 0
M  V30 6493 H 616.927 -2.03863 -0.161259 0
M  V30 6494 H 615.082 -3.00025 -2.45079 0
M  V30 6495 H 615.496 -5.01546 -1.53465 0
M  V30 6496 H 616.97 -4.51832 -3.17099 0
M  V30 6497 H 617.447 -2.83229 -3.35675 0
M  V30 6498 H 618.053 -3.76858 -1.97125 0
M  V30 6499 N 616.368 0.432326 -1.51554 0
M  V30 6500 C 617.779 1.01202 -1.56892 0
M  V30 6501 C 618.13 1.92175 -0.395394 0
M  V30 6502 O 617.255 2.10844 0.487198 0
M  V30 6503 C 617.85 1.84217 -2.8434 0
M  V30 6504 C 616.409 2.37228 -2.92233 0
M  V30 6505 C 615.556 1.16576 -2.51606 0
M  V30 6506 H 618.507 0.213407 -1.57259 0
M  V30 6507 H 618.528 2.69721 -2.68385 0
M  V30 6508 H 618.04 1.17979 -3.69733 0
M  V30 6509 H 616.141 3.06905 -2.11282 0
M  V30 6510 H 616.254 2.69682 -3.95991 0
M  V30 6511 H 614.618 1.51263 -2.04919 0
M  V30 6512 H 615.401 0.519404 -3.39348 0
M  V30 6513 N 617.846 1.41785 0.688094 0
M  V30 6514 C 619.262 1.24419 0.999608 0
M  V30 6515 C 619.462 0.138868 2.01021 0
M  V30 6516 O 618.518 -0.494283 2.47615 0
M  V30 6517 C 619.831 2.59625 1.51709 0
M  V30 6518 C 621.379 2.66869 1.63554 0
M  V30 6519 C 621.854 4.0241 2.18702 0
M  V30 6520 N 623.345 4.04295 2.26053 0
M  V30 6521 C 624.08 5.05977 2.69768 0
M  V30 6522 N 623.576 6.18047 3.13033 0
M  V30 6523 N 625.369 4.93336 2.69398 0
M  V30 6524 H 617.52 2.12392 0.0187427 0
M  V30 6525 H 619.783 0.945347 0.0708673 0
M  V30 6526 H 619.489 3.41297 0.849059 0
M  V30 6527 H 619.363 2.82628 2.49803 0
M  V30 6528 H 621.75 1.8555 2.29467 0
M  V30 6529 H 621.831 2.47668 0.639857 0
M  V30 6530 H 621.475 4.8418 1.53402 0
M  V30 6531 H 621.405 4.18955 3.19037 0
M  V30 6532 H 623.896 3.23383 1.9553 0
M  V30 6533 H 624.209 6.91498 3.45038 0
M  V30 6534 H 622.554 6.21572 3.10923 0
M  V30 6535 H 625.745 4.04865 2.34952 0
M  V30 6536 H 625.918 5.72717 3.03148 0
M  V30 6537 N 619.324 -0.923095 1.27737 0
M  V30 6538 C 620.573 -1.66581 1.13727 0
M  V30 6539 C 620.886 -1.9304 -0.315433 0
M  V30 6540 O 622.092 -2.65309 -0.57651 0
M  V30 6541 C 620.548 -3.00047 1.98745 0
M  V30 6542 C 620.156 -2.8127 3.48699 0
M  V30 6543 C 621.9 -3.77887 1.93395 0
M  V30 6544 C 619.807 -4.1032 4.25901 0
M  V30 6545 H 618.737 -0.624834 0.422017 0
M  V30 6546 H 621.388 -1.02514 1.52194 0
M  V30 6547 H 619.77 -3.65197 1.53125 0
M  V30 6548 H 620.944 -2.24859 4.02213 0
M  V30 6549 H 619.259 -2.16854 3.55476 0
M  V30 6550 H 621.856 -4.73526 2.48348 0
M  V30 6551 H 622.199 -4.06264 0.908605 0
M  V30 6552 H 622.732 -3.19541 2.36935 0
M  V30 6553 H 619.471 -3.8712 5.28978 0
M  V30 6554 H 618.991 -4.66377 3.77163 0
M  V30 6555 H 620.67 -4.78648 4.35321 0
M  V30 6556 N 620.802 -1.09834 -1.13024 0
M  V30 6557 C 621.749 -0.741522 -2.18564 0
M  V30 6558 C 622.719 0.279236 -1.63736 0
M  V30 6559 O 623.904 0.159923 -1.90129 0
M  V30 6560 C 621.044 -0.17277 -3.44667 0
M  V30 6561 C 620.157 -1.24808 -4.13578 0
M  V30 6562 C 619.292 -0.641631 -5.27311 0
M  V30 6563 C 618.331 -1.69795 -5.88078 0
M  V30 6564 N 617.468 -1.11223 -6.93234 0
M  V30 6565 H 622.308 -1.64576 -2.48432 0
M  V30 6566 H 619.845 -0.822174 -1.21978 0
M  V30 6567 H 621.803 0.17482 -4.16834 0
M  V30 6568 H 620.433 0.694725 -3.15235 0
M  V30 6569 H 619.485 -1.71288 -3.39653 0
M  V30 6570 H 620.797 -2.04795 -4.54819 0
M  V30 6571 H 619.951 -0.243128 -6.06213 0
M  V30 6572 H 618.69 0.189742 -4.87331 0
M  V30 6573 H 617.695 -2.10595 -5.07868 0
M  V30 6574 H 618.92 -2.53206 -6.3013 0
M  V30 6575 H 616.866 -0.302208 -6.55304 0
M  V30 6576 H 616.783 -1.84901 -7.3304 0
M  V30 6577 H 618.051 -0.740068 -7.75979 0
M  V30 6578 N 622.28 1.30327 -0.886154 0
M  V30 6579 C 623.526 1.96388 -0.505941 0
M  V30 6580 C 623.859 1.69784 0.942712 0
M  V30 6581 O 623.134 1.00322 1.6663 0
M  V30 6582 C 623.417 3.51488 -0.782826 0
M  V30 6583 C 623.27 3.87603 -2.28219 0
M  V30 6584 C 624.589 4.39331 -0.260128 0
M  V30 6585 H 621.708 0.713327 -0.185292 0
M  V30 6586 H 624.35 1.54178 -1.11036 0
M  V30 6587 H 622.5 3.87572 -0.268399 0
M  V30 6588 H 624.172 3.61537 -2.86512 0
M  V30 6589 H 622.415 3.3563 -2.74837 0
M  V30 6590 H 623.086 4.95806 -2.42653 0
M  V30 6591 H 625.562 4.10162 -0.700444 0
M  V30 6592 H 624.438 5.46769 -0.483179 0
M  V30 6593 H 624.699 4.34072 0.838674 0
M  V30 6594 N 623.758 0.647228 1.43697 0
M  V30 6595 C 625.006 0.157876 2.01482 0
M  V30 6596 C 625.327 -1.23039 1.51282 0
M  V30 6597 O 624.597 -1.82071 0.722982 0
M  V30 6598 H 623.177 0.0553745 0.744945 0
M  V30 6599 H 625.839 0.83755 1.75986 0
M  V30 6600 H 624.935 0.137895 3.11795 0
M  V30 6601 N 625.236 -1.5273 0.388769 0
M  V30 6602 C 626.652 -1.59553 0.0387049 0
M  V30 6603 C 626.852 -1.40278 -1.44652 0
M  V30 6604 O 625.908 -1.21951 -2.21098 0
M  V30 6605 C 627.221 -2.9625 0.515409 0
M  V30 6606 C 628.769 -3.09426 0.471621 0
M  V30 6607 C 629.244 -4.48572 0.924505 0
M  V30 6608 N 630.735 -4.54754 0.880496 0
M  V30 6609 C 631.47 -5.60653 1.20234 0
M  V30 6610 N 630.966 -6.74198 1.59463 0
M  V30 6611 N 632.759 -5.50755 1.12363 0
M  V30 6612 H 624.91 -1.63508 1.35569 0
M  V30 6613 H 627.173 -0.768097 0.555636 0
M  V30 6614 H 626.879 -3.15569 1.5527 0
M  V30 6615 H 626.753 -3.77102 -0.085792 0
M  V30 6616 H 629.14 -2.89804 -0.556588 0
M  V30 6617 H 629.221 -2.30528 1.10862 0
M  V30 6618 H 628.865 -4.68936 1.95094 0
M  V30 6619 H 628.795 -5.25935 0.264524 0
M  V30 6620 H 631.286 -3.73237 0.591815 0
M  V30 6621 H 631.599 -7.5097 1.82385 0
M  V30 6622 H 629.944 -6.75531 1.63349 0
M  V30 6623 H 633.135 -4.6093 0.816169 0
M  V30 6624 H 633.308 -6.33184 1.37777 0
M  V30 6625 N 626.714 -0.118576 -1.57153 0
M  V30 6626 C 627.991 0.583062 -1.86708 0
M  V30 6627 C 628.371 1.84841 -1.01967 0
M  V30 6628 O 627.719 2.28288 -0.0984673 0
M  V30 6629 C 627.929 0.875912 -3.3783 0
M  V30 6630 C 629.277 1.22916 -4.0642 0
M  V30 6631 O 630.301 0.966188 -3.42846 0
M  V30 6632 O 629.16 1.72269 -5.18638 0
M  V30 6633 H 626.254 0.294185 -0.772906 0
M  V30 6634 H 628.8 -0.153048 -1.69008 0
M  V30 6635 H 627.572 -0.0207776 -3.91294 0
M  V30 6636 H 627.195 1.66719 -3.60958 0
M  V30 6637 N 628.193 1.56834 0.155195 0
M  V30 6638 C 629.423 1.86778 0.883044 0
M  V30 6639 C 629.831 0.703824 1.75622 0
M  V30 6640 O 629.174 -0.33581 1.80605 0
M  V30 6641 C 629.236 3.1133 1.79761 0
M  V30 6642 C 628.9 4.43504 1.10242 0
M  V30 6643 C 629.897 5.17859 0.460204 0
M  V30 6644 C 627.582 4.90233 1.09437 0
M  V30 6645 C 629.576 6.37144 -0.180782 0
M  V30 6646 C 627.263 6.09444 0.449569 0
M  V30 6647 C 628.261 6.82744 -0.186888 0
M  V30 6648 O 627.949 7.99692 -0.821486 0
M  V30 6649 H 627.681 0.62352 0.261149 0
M  V30 6650 H 630.235 2.04813 0.155204 0
M  V30 6651 H 628.465 2.89282 2.56618 0
M  V30 6652 H 630.154 3.27587 2.39669 0
M  V30 6653 H 630.92 4.8283 0.458289 0
M  V30 6654 H 626.799 4.33109 1.57917 0
M  V30 6655 H 630.343 6.94296 -0.678154 0
M  V30 6656 H 626.24 6.43936 0.449123 0
M  V30 6657 H 627.008 8.15306 -0.722337 0
M  V30 6658 N 629.671 -0.424282 1.51781 0
M  V30 6659 C 630.917 -1.17434 1.6534 0
M  V30 6660 C 631.25 -1.90549 0.374806 0
M  V30 6661 O 630.525 -1.84145 -0.626179 0
M  V30 6662 C 630.808 -2.18093 2.86544 0
M  V30 6663 C 630.661 -1.48975 4.24413 0
M  V30 6664 C 631.98 -3.18934 3.03264 0
M  V30 6665 H 629.099 -0.425566 0.601716 0
M  V30 6666 H 631.741 -0.461921 1.84299 0
M  V30 6667 H 629.891 -2.78849 2.7051 0
M  V30 6668 H 631.563 -0.914551 4.52143 0
M  V30 6669 H 629.806 -0.791893 4.26511 0
M  V30 6670 H 630.477 -2.22347 5.05238 0
M  V30 6671 H 632.953 -2.68243 3.18096 0
M  V30 6672 H 631.829 -3.86645 3.89611 0
M  V30 6673 H 632.09 -3.85793 2.15908 0
M  V30 6674 N 631.149 -1.42148 -0.680565 0
M  V30 6675 C 632.081 -1.41119 -1.80605 0
M  V30 6676 C 633.094 -0.311099 -1.598 0
M  V30 6677 O 634.283 -0.573813 -1.69026 0
M  V30 6678 C 631.383 -1.18204 -3.17618 0
M  V30 6679 C 630.556 -2.40537 -3.65322 0
M  V30 6680 C 629.615 -2.13254 -4.8105 0
M  V30 6681 O 628.641 -2.8641 -4.91892 0
M  V30 6682 N 629.843 -1.13208 -5.69354 0
M  V30 6683 H 632.608 -2.38128 -1.81975 0
M  V30 6684 H 630.169 -1.36953 -0.863446 0
M  V30 6685 H 632.161 -0.97878 -3.92686 0
M  V30 6686 H 630.731 -0.29738 -3.11182 0
M  V30 6687 H 629.951 -2.76468 -2.80996 0
M  V30 6688 H 631.239 -3.22012 -3.93936 0
M  V30 6689 H 630.637 -0.526893 -5.63241 0
M  V30 6690 H 629.194 -0.988699 -6.44258 0
M  V30 6691 N 632.627 0.916307 -1.28225 0
M  V30 6692 C 633.574 2.01841 -1.11932 0
M  V30 6693 C 634.544 1.66091 -0.0171604 0
M  V30 6694 O 635.729 1.89934 -0.181617 0
M  V30 6695 C 632.869 3.36065 -0.784504 0
M  V30 6696 C 631.982 3.847 -1.96544 0
M  V30 6697 C 631.117 5.07423 -1.57149 0
M  V30 6698 C 630.156 5.48384 -2.71922 0
M  V30 6699 N 629.293 6.62298 -2.33037 0
M  V30 6700 H 634.133 2.1511 -2.06232 0
M  V30 6701 H 631.67 1.05366 -1.02647 0
M  V30 6702 H 633.628 4.13272 -0.571148 0
M  V30 6703 H 632.258 3.22571 0.121565 0
M  V30 6704 H 631.31 3.03673 -2.291 0
M  V30 6705 H 632.622 4.1102 -2.82603 0
M  V30 6706 H 631.776 5.92165 -1.32004 0
M  V30 6707 H 630.515 4.82906 -0.682153 0
M  V30 6708 H 629.52 4.62184 -2.97768 0
M  V30 6709 H 630.745 5.7489 -3.61494 0
M  V30 6710 H 628.691 6.39416 -1.4657 0
M  V30 6711 H 628.608 6.8833 -3.12631 0
M  V30 6712 H 629.876 7.50352 -2.11169 0
M  V30 6713 N 634.105 1.10431 1.1244 0
M  V30 6714 C 635.068 0.756542 2.16354 0
M  V30 6715 C 636.068 -0.21899 1.59302 0
M  V30 6716 O 637.258 0.00415969 1.742 0
M  V30 6717 C 634.39 0.120612 3.40687 0
M  V30 6718 H 635.583 1.67696 2.48632 0
M  V30 6719 H 633.136 0.904832 1.27446 0
M  V30 6720 H 633.871 -0.810536 3.14008 0
M  V30 6721 H 633.656 0.822693 3.83372 0
M  V30 6722 H 635.146 -0.106945 4.17463 0
M  V30 6723 N 635.583 -1.29855 0.893053 0
M  V30 6724 C 636.515 -2.26911 0.32311 0
M  V30 6725 C 637.528 -1.54039 -0.526858 0
M  V30 6726 O 638.717 -1.75132 -0.345095 0
M  V30 6727 C 635.817 -3.34266 -0.558509 0
M  V30 6728 C 634.99 -4.36601 0.264222 0
M  V30 6729 C 634.049 -5.23326 -0.549171 0
M  V30 6730 O 633.075 -5.69192 0.0309883 0
M  V30 6731 N 634.277 -5.50008 -1.85664 0
M  V30 6732 H 637.042 -2.76455 1.15726 0
M  V30 6733 H 634.603 -1.4312 0.756859 0
M  V30 6734 H 636.595 -3.89211 -1.1089 0
M  V30 6735 H 635.165 -2.8459 -1.29334 0
M  V30 6736 H 634.385 -3.81409 0.996046 0
M  V30 6737 H 635.673 -5.02019 0.827906 0
M  V30 6738 H 635.071 -5.14542 -2.35081 0
M  V30 6739 H 633.628 -6.07796 -2.35431 0
M  V30 6740 N 637.061 -0.65484 -1.43351 0
M  V30 6741 C 638.289 -0.176685 -2.06144 0
M  V30 6742 C 638.704 1.15831 -1.49093 0
M  V30 6743 O 638.061 1.71542 -0.622868 0
M  V30 6744 C 638.112 -0.0813326 -3.61408 0
M  V30 6745 O 637.833 -1.36355 -4.1634 0
M  V30 6746 C 639.334 0.422706 -4.4128 0
M  V30 6747 H 636.554 -0.0906429 -0.66485 0
M  V30 6748 H 639.098 -0.895945 -1.83829 0
M  V30 6749 H 637.253 0.588496 -3.82904 0
M  V30 6750 H 637.667 -1.22381 -5.10023 0
M  V30 6751 H 639.141 0.438375 -5.50257 0
M  V30 6752 H 639.618 1.45432 -4.14423 0
M  V30 6753 H 640.224 -0.214687 -4.24758 0
M  V30 6754 N 638.539 1.52521 -0.396863 0
M  V30 6755 C 639.486 2.26671 0.434624 0
M  V30 6756 C 640.456 1.28584 1.05144 0
M  V30 6757 O 641.641 1.57426 1.07804 0
M  V30 6758 C 638.781 3.08234 1.55196 0
M  V30 6759 C 637.894 4.21261 0.957262 0
M  V30 6760 C 637.029 4.90205 2.04627 0
M  V30 6761 C 636.068 5.95213 1.42787 0
M  V30 6762 N 635.205 6.57723 2.45651 0
M  V30 6763 H 640.045 2.973 -0.204139 0
M  V30 6764 H 637.582 1.46669 -0.112505 0
M  V30 6765 H 639.54 3.53819 2.2106 0
M  V30 6766 H 638.17 2.398 2.16092 0
M  V30 6767 H 637.222 3.79935 0.188005 0
M  V30 6768 H 638.534 4.96624 0.465416 0
M  V30 6769 H 637.688 5.39133 2.78246 0
M  V30 6770 H 636.427 4.14383 2.57174 0
M  V30 6771 H 635.432 5.45616 0.676968 0
M  V30 6772 H 636.657 6.72972 0.910255 0
M  V30 6773 H 634.603 5.84737 2.97353 0
M  V30 6774 H 634.52 7.28723 2.01243 0
M  V30 6775 H 635.788 7.11293 3.18876 0
M  V30 6776 N 640.017 0.126909 1.57088 0
M  V30 6777 C 640.927 -0.833867 2.1928 0
M  V30 6778 C 641.943 -1.2868 1.17122 0
M  V30 6779 O 643.119 -1.34815 1.49622 0
M  V30 6780 C 640.184 -2.0632 2.78627 0
M  V30 6781 C 639.245 -1.66143 3.95847 0
M  V30 6782 C 638.478 -2.83217 4.52354 0
M  V30 6783 O 638.701 -3.98868 4.0775 0
M  V30 6784 O 637.635 -2.59846 5.42922 0
M  V30 6785 H 641.461 -0.334564 3.01852 0
M  V30 6786 H 639.046 -0.0991091 1.49071 0
M  V30 6787 H 640.928 -2.78304 3.16425 0
M  V30 6788 H 639.603 -2.55242 1.99082 0
M  V30 6789 H 638.51 -0.912435 3.62802 0
M  V30 6790 H 639.843 -1.21957 4.76852 0
M  V30 6791 N 641.495 -1.56914 -0.146875 0
M  V30 6792 C 642.427 -1.94878 -1.20645 0
M  V30 6793 C 643.44 -0.844633 -1.39175 0
M  V30 6794 O 644.629 -1.12304 -1.38744 0
M  V30 6795 C 641.729 -2.20769 -2.57127 0
M  V30 6796 C 640.902 -3.52053 -2.59572 0
M  V30 6797 C 639.961 -3.66482 -3.77594 0
M  V30 6798 O 638.987 -4.38873 -3.62462 0
M  V30 6799 N 640.189 -3.03156 -4.95052 0
M  V30 6800 H 642.954 -2.86374 -0.883757 0
M  V30 6801 H 640.515 -1.58366 -0.336436 0
M  V30 6802 H 642.507 -2.27664 -3.34591 0
M  V30 6803 H 641.077 -1.35538 -2.81688 0
M  V30 6804 H 640.297 -3.56598 -1.68023 0
M  V30 6805 H 641.585 -4.38396 -2.58238 0
M  V30 6806 H 640.983 -2.44258 -5.10249 0
M  V30 6807 H 639.54 -3.15611 -5.70292 0
M  V30 6808 N 642.974 0.416227 -1.52004 0
M  V30 6809 C 643.937 1.48926 -1.74223 0
M  V30 6810 C 644.937 1.48693 -0.612119 0
M  V30 6811 O 646.127 1.50343 -0.879921 0
M  V30 6812 C 643.259 2.88372 -1.81809 0
M  V30 6813 H 644.452 1.3052 -2.70008 0
M  V30 6814 H 642.005 0.646271 -1.42313 0
M  V30 6815 H 642.74 3.12157 -0.879135 0
M  V30 6816 H 642.525 2.89944 -2.6396 0
M  V30 6817 H 644.015 3.66173 -2.00766 0
M  V30 6818 N 644.452 1.42507 0.673017 0
M  V30 6819 C 645.729 1.33554 1.42908 0
M  V30 6820 C 646.109 -0.0262211 2.11084 0
M  V30 6821 O 645.457 -1.04181 2.03368 0
M  V30 6822 C 645.667 2.50498 2.43006 0
M  V30 6823 C 647.015 2.92694 3.07596 0
M  V30 6824 O 648.039 2.50401 2.53333 0
M  V30 6825 O 646.898 3.65899 4.05931 0
M  V30 6826 H 643.992 0.526785 0.637516 0
M  V30 6827 H 646.538 1.54518 0.701591 0
M  V30 6828 H 645.31 3.41272 1.9144 0
M  V30 6829 H 644.933 2.3153 3.23233 0
M  V30 6830 N 645.93 -0.909495 1.28709 0
M  V30 6831 C 647.177 -1.65905 1.16111 0
M  V30 6832 C 647.505 -1.92334 -0.289436 0
M  V30 6833 O 646.76 -1.52495 -1.22653 0
M  V30 6834 C 647.059 -3.02117 1.90945 0
M  V30 6835 C 646.725 -2.95332 3.40719 0
M  V30 6836 C 645.387 -2.93189 3.81567 0
M  V30 6837 C 647.739 -2.85264 4.36204 0
M  V30 6838 C 645.067 -2.78784 5.16233 0
M  V30 6839 C 647.419 -2.724 5.70948 0
M  V30 6840 C 646.083 -2.68617 6.11066 0
M  V30 6841 H 645.353 -0.60709 0.42488 0
M  V30 6842 H 648 -1.05932 1.59533 0
M  V30 6843 H 646.305 -3.65901 1.40085 0
M  V30 6844 H 648.002 -3.59026 1.7861 0
M  V30 6845 H 644.592 -2.97797 3.08245 0
M  V30 6846 H 648.776 -2.86005 4.05605 0
M  V30 6847 H 644.032 -2.74254 5.46438 0
M  V30 6848 H 648.206 -2.63579 6.44592 0
M  V30 6849 H 645.833 -2.57213 7.15364 0
M  V30 6850 N 647.408 -1.11026 -1.11852 0
M  V30 6851 C 648.371 -0.768006 -2.1595 0
M  V30 6852 C 649.371 0.210538 -1.59416 0
M  V30 6853 O 650.561 -0.0133978 -1.74195 0
M  V30 6854 C 647.693 -0.138678 -3.40618 0
M  V30 6855 H 648.886 -1.69012 -2.4774 0
M  V30 6856 H 646.439 -0.911578 -1.26964 0
M  V30 6857 H 647.174 0.793872 -3.14433 0
M  V30 6858 H 646.959 -0.843012 -3.8293 0
M  V30 6859 H 648.449 0.0848039 -4.17514 0
M  V30 6860 N 648.886 1.2938 -0.899927 0
M  V30 6861 C 649.816 2.30144 -0.39446 0
M  V30 6862 C 650.797 1.61611 0.530639 0
M  V30 6863 O 651.982 1.89119 0.441319 0
M  V30 6864 C 649.112 3.45229 0.37868 0
M  V30 6865 C 648.066 4.25564 -0.456012 0
M  V30 6866 C 647.392 5.32848 0.444637 0
M  V30 6867 C 648.692 4.93651 -1.70605 0
M  V30 6868 H 650.386 2.72673 -1.23653 0
M  V30 6869 H 647.932 1.31086 -0.596034 0
M  V30 6870 H 649.885 4.14797 0.743037 0
M  V30 6871 H 648.609 3.01545 1.25453 0
M  V30 6872 H 647.268 3.57704 -0.802704 0
M  V30 6873 H 646.916 4.85408 1.31863 0
M  V30 6874 H 646.616 5.87497 -0.110154 0
M  V30 6875 H 648.14 6.05268 0.805182 0
M  V30 6876 H 649.554 5.55655 -1.41141 0
M  V30 6877 H 647.951 5.58233 -2.20217 0
M  V30 6878 H 649.021 4.18926 -2.4419 0
M  V30 6879 N 650.364 0.662433 1.43002 0
M  V30 6880 C 651.274 -0.0239199 2.34588 0
M  V30 6881 C 652.29 -0.802255 1.54402 0
M  V30 6882 O 653.466 -0.747401 1.87018 0
M  V30 6883 C 650.531 -0.972098 3.32793 0
M  V30 6884 C 649.592 -0.189673 4.28881 0
M  V30 6885 C 648.825 -1.09269 5.22395 0
M  V30 6886 O 649.048 -2.33209 5.20547 0
M  V30 6887 O 647.982 -0.560136 5.99288 0
M  V30 6888 H 651.808 0.730171 2.94792 0
M  V30 6889 H 649.393 0.422635 1.43297 0
M  V30 6890 H 651.275 -1.51676 3.93157 0
M  V30 6891 H 649.95 -1.70626 2.75079 0
M  V30 6892 H 648.857 0.398794 3.71968 0
M  V30 6893 H 650.19 0.50511 4.89601 0
M  V30 6894 N 651.842 -1.52309 0.404946 0
M  V30 6895 C 652.805 -2.25491 -0.410651 0
M  V30 6896 C 653.805 -1.27704 -0.977154 0
M  V30 6897 O 654.995 -1.51679 -0.856691 0
M  V30 6898 C 652.127 -3.02197 -1.57765 0
M  V30 6899 H 653.32 -2.99015 0.230277 0
M  V30 6900 H 650.873 -1.55506 0.157377 0
M  V30 6901 H 651.608 -2.33013 -2.25556 0
M  V30 6902 H 651.393 -3.73987 -1.17797 0
M  V30 6903 H 652.883 -3.57719 -2.15469 0
M  V30 6904 N 653.32 -0.135238 -1.57019 0
M  V30 6905 C 654.25 0.805235 -2.19176 0
M  V30 6906 C 655.231 1.2656 -1.13651 0
M  V30 6907 O 656.416 1.32528 -1.4195 0
M  V30 6908 C 653.546 2.04914 -2.80406 0
M  V30 6909 C 652.5 1.72598 -3.91655 0
M  V30 6910 C 651.826 3.04154 -4.39766 0
M  V30 6911 C 653.126 0.981709 -5.12991 0
M  V30 6912 H 654.82 0.287232 -2.98019 0
M  V30 6913 H 652.366 0.136714 -1.4335 0
M  V30 6914 H 654.319 2.71178 -3.22553 0
M  V30 6915 H 653.043 2.59067 -1.98877 0
M  V30 6916 H 651.702 1.08717 -3.50109 0
M  V30 6917 H 651.35 3.56274 -3.55075 0
M  V30 6918 H 651.05 2.83299 -5.14796 0
M  V30 6919 H 652.574 3.71509 -4.84576 0
M  V30 6920 H 653.988 1.5462 -5.52056 0
M  V30 6921 H 652.385 0.873533 -5.93708 0
M  V30 6922 H 653.455 -0.0286887 -4.84892 0
M  V30 6923 N 654.798 1.5699 0.138552 0
M  V30 6924 C 655.761 1.97984 1.15478 0
M  V30 6925 C 656.761 0.867416 1.35398 0
M  V30 6926 O 657.951 1.13387 1.32246 0
M  V30 6927 C 655.083 2.3031 2.51337 0
M  V30 6928 H 656.276 2.88953 0.802896 0
M  V30 6929 H 653.829 1.51555 0.382189 0
M  V30 6930 H 654.564 1.42159 2.91481 0
M  V30 6931 H 654.349 3.11425 2.38237 0
M  V30 6932 H 655.839 2.62834 3.24512 0
M  V30 6933 N 656.276 -0.40816 1.52223 0
M  V30 6934 C 657.223 -1.49737 1.75635 0
M  V30 6935 C 658.193 -1.5493 0.598824 0
M  V30 6936 O 659.378 -1.71487 0.83648 0
M  V30 6937 C 656.518 -2.87174 1.91376 0
M  V30 6938 C 655.631 -2.91283 3.19027 0
M  V30 6939 C 654.766 -4.20026 3.25195 0
M  V30 6940 C 653.805 -4.18113 4.47044 0
M  V30 6941 N 652.942 -5.38429 4.50598 0
M  V30 6942 H 657.782 -1.29075 2.68596 0
M  V30 6943 H 655.319 -0.626518 1.33091 0
M  V30 6944 H 657.277 -3.66959 1.98486 0
M  V30 6945 H 655.907 -3.06329 1.01795 0
M  V30 6946 H 654.959 -2.03984 3.21084 0
M  V30 6947 H 656.271 -2.85734 4.08849 0
M  V30 6948 H 655.425 -5.08204 3.31382 0
M  V30 6949 H 654.164 -4.28271 2.33313 0
M  V30 6950 H 653.169 -3.28325 4.41002 0
M  V30 6951 H 654.394 -4.11507 5.40221 0
M  V30 6952 H 652.34 -5.4734 3.616 0
M  V30 6953 H 652.257 -5.34879 5.34266 0
M  V30 6954 H 653.525 -6.28557 4.61016 0
M  V30 6955 N 657.755 -1.42862 -0.66545 0
M  V30 6956 C 658.718 -1.46756 -1.76055 0
M  V30 6957 C 659.718 -0.353866 -1.56858 0
M  V30 6958 O 660.908 -0.615099 -1.62979 0
M  V30 6959 C 658.04 -1.30829 -3.14796 0
M  V30 6960 H 659.233 -2.44271 -1.73987 0
M  V30 6961 H 656.786 -1.29447 -0.875965 0
M  V30 6962 H 657.521 -0.342733 -3.22484 0
M  V30 6963 H 657.306 -2.11551 -3.30134 0
M  V30 6964 H 658.796 -1.36458 -3.94676 0
M  V30 6965 N 659.233 0.902656 -1.29189 0
M  V30 6966 C 660.461 1.68639 -1.19869 0
M  V30 6967 C 660.876 1.87254 0.241121 0
M  V30 6968 O 660.233 1.40745 1.16177 0
M  V30 6969 C 660.284 3.07251 -1.90471 0
M  V30 6970 O 660.005 2.89488 -3.28829 0
M  V30 6971 C 661.506 4.01653 -1.8759 0
M  V30 6972 H 658.726 0.526802 -0.415596 0
M  V30 6973 H 661.27 1.12901 -1.7051 0
M  V30 6974 H 659.425 3.59774 -1.43672 0
M  V30 6975 H 659.839 3.77296 -3.64346 0
M  V30 6976 H 661.313 4.96339 -2.4156 0
M  V30 6977 H 661.79 4.30881 -0.850756 0
M  V30 6978 H 662.396 3.55061 -2.34119 0
M  V30 6979 N 660.711 1.11618 1.11262 0
M  V30 6980 C 661.941 0.88745 1.86569 0
M  V30 6981 C 662.349 -0.56636 1.80524 0
M  V30 6982 O 661.692 -1.40289 1.18594 0
M  V30 6983 C 661.754 1.27313 3.36202 0
M  V30 6984 C 661.418 2.73649 3.66013 0
M  V30 6985 C 662.415 3.71863 3.63337 0
M  V30 6986 C 660.1 3.10342 3.9496 0
M  V30 6987 C 662.094 5.04788 3.89188 0
M  V30 6988 C 659.781 4.43451 4.20469 0
M  V30 6989 C 660.779 5.40484 4.17572 0
M  V30 6990 O 660.467 6.71195 4.42439 0
M  V30 6991 H 660.199 0.317543 0.596777 0
M  V30 6992 H 662.753 1.48768 1.41624 0
M  V30 6993 H 660.983 0.616062 3.81761 0
M  V30 6994 H 662.672 1.01991 3.92877 0
M  V30 6995 H 663.438 3.44861 3.41022 0
M  V30 6996 H 659.317 2.35431 3.9635 0
M  V30 6997 H 662.861 5.80516 3.86842 0
M  V30 6998 H 658.758 4.70187 4.42261 0
M  V30 6999 H 659.526 6.77012 4.59997 0
M  V30 7000 N 662.189 -1.289 0.906776 0
M  V30 7001 C 663.099 -2.31256 0.394707 0
M  V30 7002 C 664.115 -1.66231 -0.514121 0
M  V30 7003 O 665.291 -1.97347 -0.401994 0
M  V30 7004 C 662.356 -3.44792 -0.363191 0
M  V30 7005 C 661.417 -4.25391 0.578012 0
M  V30 7006 C 660.65 -5.33506 -0.143811 0
M  V30 7007 O 660.873 -5.53786 -1.36665 0
M  V30 7008 O 659.807 -5.99673 0.5173 0
M  V30 7009 H 663.633 -2.77051 1.24405 0
M  V30 7010 H 661.218 -1.33466 0.671346 0
M  V30 7011 H 663.1 -4.139 -0.791503 0
M  V30 7012 H 661.775 -3.01093 -1.18848 0
M  V30 7013 H 660.682 -3.58899 1.05558 0
M  V30 7014 H 662.015 -4.72752 1.36992 0
M  V30 7015 N 663.667 -0.670007 -1.42649 0
M  V30 7016 C 665.083 -0.33911 -1.55956 0
M  V30 7017 C 665.283 1.1558 -1.65056 0
M  V30 7018 O 664.339 1.94111 -1.61485 0
M  V30 7019 C 665.652 -1.06522 -2.812 0
M  V30 7020 C 667.2 -1.04708 -2.94966 0
M  V30 7021 C 667.675 -1.75442 -4.23065 0
M  V30 7022 N 669.166 -1.72286 -4.29967 0
M  V30 7023 C 669.901 -2.23877 -5.27889 0
M  V30 7024 N 669.397 -2.83829 -6.31991 0
M  V30 7025 N 671.19 -2.14279 -5.19654 0
M  V30 7026 H 663.341 -1.6399 -1.34986 0
M  V30 7027 H 665.604 -0.690603 -0.649439 0
M  V30 7028 H 665.31 -2.12033 -2.80597 0
M  V30 7029 H 665.184 -0.627398 -3.71946 0
M  V30 7030 H 667.571 -0.000315966 -2.951 0
M  V30 7031 H 667.652 -1.52374 -2.05465 0
M  V30 7032 H 667.296 -2.80084 -4.23693 0
M  V30 7033 H 667.226 -1.25229 -5.11493 0
M  V30 7034 H 669.717 -1.28554 -3.55362 0
M  V30 7035 H 670.03 -3.20827 -7.03057 0
M  V30 7036 H 668.375 -2.87896 -6.32567 0
M  V30 7037 H 671.566 -1.67135 -4.37245 0
M  V30 7038 H 671.739 -2.54792 -5.95806 0
M  V30 7039 N 665.145 1.52092 -0.413018 0
M  V30 7040 C 666.075 2.30021 0.401567 0
M  V30 7041 C 667.056 1.34395 1.04269 0
M  V30 7042 O 668.241 1.63304 1.05097 0
M  V30 7043 C 665.371 3.12447 1.51638 0
M  V30 7044 C 664.325 4.16153 1.00005 0
M  V30 7045 C 663.651 4.86948 2.20875 0
M  V30 7046 C 664.951 5.22275 0.0513757 0
M  V30 7047 H 666.645 2.98365 -0.248704 0
M  V30 7048 H 664.191 1.4349 -0.121052 0
M  V30 7049 H 666.144 3.65733 2.09326 0
M  V30 7050 H 664.868 2.41879 2.19458 0
M  V30 7051 H 663.527 3.63882 0.445549 0
M  V30 7052 H 663.175 4.12905 2.8726 0
M  V30 7053 H 662.875 5.57057 1.86978 0
M  V30 7054 H 664.399 5.43048 2.79162 0
M  V30 7055 H 665.813 5.70778 0.537176 0
M  V30 7056 H 664.21 5.9977 -0.198977 0
M  V30 7057 H 665.28 4.76611 -0.892736 0
M  V30 7058 N 666.623 0.143563 1.56945 0
M  V30 7059 C 667.87 -0.508407 1.96014 0
M  V30 7060 C 668.198 -1.65099 1.02824 0
M  V30 7061 O 667.453 -1.95618 0.0567764 0
M  V30 7062 C 667.752 -1.05885 3.41355 0
M  V30 7063 C 667.418 -0.0350809 4.50886 0
M  V30 7064 C 666.08 0.246362 4.80569 0
M  V30 7065 C 668.432 0.661282 5.16988 0
M  V30 7066 C 665.76 1.23003 5.73661 0
M  V30 7067 C 668.112 1.63375 6.11139 0
M  V30 7068 C 666.776 1.92292 6.39203 0
M  V30 7069 H 666.046 -0.186039 0.717266 0
M  V30 7070 H 668.693 0.229667 1.90118 0
M  V30 7071 H 666.998 -1.87419 3.44066 0
M  V30 7072 H 668.695 -1.57183 3.6891 0
M  V30 7073 H 665.285 -0.264622 4.27782 0
M  V30 7074 H 669.469 0.457038 4.94191 0
M  V30 7075 H 664.725 1.46056 5.93698 0
M  V30 7076 H 668.899 2.17887 6.61436 0
M  V30 7077 H 666.526 2.68666 7.11142 0
M  V30 7078 N 668.101 -1.57061 -0.130224 0
M  V30 7079 C 669.517 -1.52103 -0.483413 0
M  V30 7080 C 669.717 -0.854752 -1.82473 0
M  V30 7081 O 668.773 -0.432342 -2.48771 0
M  V30 7082 C 670.086 -2.96872 -0.47825 0
M  V30 7083 C 671.634 -3.07902 -0.562592 0
M  V30 7084 C 672.109 -4.54211 -0.587929 0
M  V30 7085 N 673.6 -4.58621 -0.649684 0
M  V30 7086 C 674.335 -5.69227 -0.690551 0
M  V30 7087 N 673.831 -6.89358 -0.689743 0
M  V30 7088 N 675.624 -5.57304 -0.732708 0
M  V30 7089 H 667.775 -1.98764 0.748779 0
M  V30 7090 H 670.038 -0.907248 0.274965 0
M  V30 7091 H 669.744 -3.48944 0.439444 0
M  V30 7092 H 669.618 -3.53716 -1.31013 0
M  V30 7093 H 672.005 -2.5584 -1.47071 0
M  V30 7094 H 672.086 -2.54073 0.296764 0
M  V30 7095 H 671.73 -5.06915 0.316096 0
M  V30 7096 H 671.66 -5.0584 -1.46401 0
M  V30 7097 H 674.151 -3.72146 -0.656927 0
M  V30 7098 H 674.464 -7.69408 -0.723239 0
M  V30 7099 H 672.809 -6.91884 -0.657347 0
M  V30 7100 H 676 -4.62363 -0.730625 0
M  V30 7101 H 676.173 -6.43515 -0.76109 0
M  V30 7102 N 669.579 0.400081 -1.52437 0
M  V30 7103 C 670.825 1.14456 -1.68141 0
M  V30 7104 C 671.18 1.87965 -0.410722 0
M  V30 7105 O 670.473 1.82121 0.595195 0
M  V30 7106 C 670.667 2.15914 -2.84808 0
M  V30 7107 C 670.496 1.5237 -4.231 0
M  V30 7108 C 669.266 1.29252 -4.8849 0
M  V30 7109 C 671.464 0.979722 -5.04882 0
M  V30 7110 N 669.446 0.616955 -6.10792 0
M  V30 7111 C 670.817 0.43159 -6.18496 0
M  V30 7112 C 672.872 0.875059 -4.9015 0
M  V30 7113 C 671.575 -0.210958 -7.18991 0
M  V30 7114 C 673.601 0.246351 -5.90887 0
M  V30 7115 C 672.963 -0.291062 -7.03798 0
M  V30 7116 H 669.062 0.405181 -0.668844 0
M  V30 7117 H 671.646 0.435655 -1.89763 0
M  V30 7118 H 669.817 2.84154 -2.64785 0
M  V30 7119 H 671.549 2.8279 -2.89503 0
M  V30 7120 H 668.304 1.56451 -4.47012 0
M  V30 7121 H 668.728 0.295536 -6.76355 0
M  V30 7122 H 673.37 1.27636 -4.03074 0
M  V30 7123 H 671.088 -0.6243 -8.05685 0
M  V30 7124 H 674.674 0.166765 -5.81561 0
M  V30 7125 H 673.554 -0.76988 -7.80412 0
M  V30 7126 N 671.057 1.43213 0.657864 0
M  V30 7127 C 671.987 1.50815 1.78262 0
M  V30 7128 C 672.968 0.363211 1.66177 0
M  V30 7129 O 674.153 0.579806 1.85343 0
M  V30 7130 C 671.283 1.42625 3.16663 0
M  V30 7131 C 670.237 2.5532 3.43505 0
M  V30 7132 C 669.563 2.32184 4.81658 0
M  V30 7133 C 670.863 3.97583 3.38711 0
M  V30 7134 H 672.557 2.44954 1.72157 0
M  V30 7135 H 670.103 1.17896 0.82683 0
M  V30 7136 H 672.056 1.46548 3.95097 0
M  V30 7137 H 670.78 0.449877 3.23487 0
M  V30 7138 H 669.439 2.50742 2.6744 0
M  V30 7139 H 669.087 1.32801 4.85153 0
M  V30 7140 H 668.787 3.07724 5.00579 0
M  V30 7141 H 670.311 2.37883 5.62356 0
M  V30 7142 H 671.725 4.03673 4.07089 0
M  V30 7143 H 670.122 4.73112 3.69168 0
M  V30 7144 H 671.192 4.23049 2.36976 0
M  V30 7145 N 672.536 -0.895792 1.29666 0
M  V30 7146 C 673.782 -1.64908 1.18039 0
M  V30 7147 C 674.115 -1.9236 -0.266682 0
M  V30 7148 O 673.39 -1.53682 -1.19214 0
M  V30 7149 C 673.673 -2.99574 1.99819 0
M  V30 7150 C 673.526 -2.79163 3.52687 0
M  V30 7151 C 674.845 -4.00358 1.82761 0
M  V30 7152 H 671.964 -0.598437 0.430165 0
M  V30 7153 H 674.606 -1.03736 1.59182 0
M  V30 7154 H 672.756 -3.51786 1.64859 0
M  V30 7155 H 674.428 -2.33821 3.9765 0
M  V30 7156 H 672.671 -2.13871 3.77414 0
M  V30 7157 H 673.342 -3.74871 4.05186 0
M  V30 7158 H 675.818 -3.57268 2.13304 0
M  V30 7159 H 674.694 -4.92514 2.42325 0
M  V30 7160 H 674.955 -4.35096 0.783839 0
M  V30 7161 N 674.014 -1.12206 -1.10668 0
M  V30 7162 C 674.944 -0.810086 -2.18997 0
M  V30 7163 C 675.925 0.225065 -1.68604 0
M  V30 7164 O 677.11 0.086783 -1.94006 0
M  V30 7165 C 674.24 -0.261262 -3.46316 0
M  V30 7166 C 673.194 -1.2292 -4.09969 0
M  V30 7167 C 672.52 -0.540713 -5.31959 0
M  V30 7168 C 673.82 -2.58295 -4.53962 0
M  V30 7169 H 675.514 -1.7159 -2.45352 0
M  V30 7170 H 673.06 -0.82646 -1.17922 0
M  V30 7171 H 675.013 -0.0307522 -4.21389 0
M  V30 7172 H 673.737 0.679879 -3.19445 0
M  V30 7173 H 672.396 -1.44548 -3.369 0
M  V30 7174 H 672.044 0.405492 -5.01363 0
M  V30 7175 H 671.744 -1.18637 -5.75499 0
M  V30 7176 H 673.268 -0.319184 -6.09765 0
M  V30 7177 H 674.682 -2.40709 -5.20319 0
M  V30 7178 H 673.079 -3.18916 -5.08343 0
M  V30 7179 H 674.149 -3.16918 -3.67002 0
M  V30 7180 N 675.492 1.28418 -0.913599 0
M  V30 7181 C 676.908 1.47411 -0.611728 0
M  V30 7182 C 677.108 1.83018 0.843008 0
M  V30 7183 O 676.164 1.93505 1.6221 0
M  V30 7184 C 677.477 2.57703 -1.5495 0
M  V30 7185 C 679.025 2.71572 -1.5562 0
M  V30 7186 C 679.5 3.85008 -2.48058 0
M  V30 7187 N 680.991 3.92361 -2.46184 0
M  V30 7188 C 681.726 4.79516 -3.14407 0
M  V30 7189 N 681.222 5.71262 -3.91958 0
M  V30 7190 N 683.015 4.73125 -3.03495 0
M  V30 7191 H 675.166 1.03585 -1.85429 0
M  V30 7192 H 677.429 0.515907 -0.795326 0
M  V30 7193 H 677.135 2.38298 -2.58663 0
M  V30 7194 H 677.009 3.54801 -1.28048 0
M  V30 7195 H 679.396 2.90366 -0.526441 0
M  V30 7196 H 679.477 1.75006 -1.86565 0
M  V30 7197 H 679.121 3.66969 -3.51136 0
M  V30 7198 H 679.051 4.80971 -2.14416 0
M  V30 7199 H 681.542 3.26749 -1.89851 0
M  V30 7200 H 681.855 6.34593 -4.41034 0
M  V30 7201 H 680.2 5.71103 -3.96063 0
M  V30 7202 H 683.391 4.00442 -2.42413 0
M  V30 7203 H 683.564 5.40834 -3.56935 0
M  V30 7204 N 676.97 0.677563 1.42291 0
M  V30 7205 C 677.9 0.014968 2.33495 0
M  V30 7206 C 678.881 -0.786376 1.50831 0
M  V30 7207 O 680.066 -0.742975 1.79426 0
M  V30 7208 C 677.196 -0.935023 3.34477 0
M  V30 7209 C 676.15 -0.242074 4.27315 0
M  V30 7210 C 675.476 -1.30519 5.18526 0
M  V30 7211 C 676.776 0.880604 5.14823 0
M  V30 7212 H 678.47 0.776671 2.89151 0
M  V30 7213 H 676.016 0.37494 1.39033 0
M  V30 7214 H 677.969 -1.40766 3.97194 0
M  V30 7215 H 676.693 -1.72818 2.77131 0
M  V30 7216 H 675.352 0.210351 3.65996 0
M  V30 7217 H 675 -2.09041 4.57505 0
M  V30 7218 H 674.7 -0.846652 5.81468 0
M  V30 7219 H 676.224 -1.7787 5.84119 0
M  V30 7220 H 677.638 0.489062 5.7121 0
M  V30 7221 H 676.035 1.26511 5.86613 0
M  V30 7222 H 677.105 1.72818 4.53059 0
M  V30 7223 N 678.448 -1.51871 0.421078 0
M  V30 7224 C 679.396 -2.28903 -0.413066 0
M  V30 7225 C 680.39 -1.3408 -1.03532 0
M  V30 7226 O 681.596 -1.5149 -0.972146 0
M  V30 7227 H 677.971 -0.736478 -0.152003 0
M  V30 7228 H 679.942 -2.97285 0.257695 0
M  V30 7229 C 678.691 -3.13156 -1.51091 0
M  V30 7230 H 678.014 -3.85997 -1.04145 0
M  V30 7231 H 679.454 -3.7014 -2.06814 0
M  V30 7232 C 677.913 -2.27482 -2.48503 0
M  V30 7233 O 678.443 -1.92325 -3.52667 0
M  V30 7234 N 676.649 -1.91019 -2.18998 0
M  V30 7235 H 676.196 -2.19808 -1.34322 0
M  V30 7236 H 676.154 -1.3399 -2.84419 0
M  V30 7237 N 679.926 -0.151884 -1.56866 0
M  V30 7238 C 681.342 0.204486 -1.58285 0
M  V30 7239 C 681.542 1.6431 -1.16639 0
M  V30 7240 O 680.598 2.37077 -0.868946 0
M  V30 7241 C 681.911 -0.0587019 -3.00643 0
M  V30 7242 C 683.459 0.00462303 -3.13 0
M  V30 7243 C 683.934 -0.231297 -4.57416 0
M  V30 7244 N 685.425 -0.178394 -4.62856 0
M  V30 7245 C 686.16 -0.335379 -5.72418 0
M  V30 7246 N 685.656 -0.550355 -6.90611 0
M  V30 7247 N 687.449 -0.272641 -5.61438 0
M  V30 7248 H 679.6 -1.09116 -1.82229 0
M  V30 7249 H 681.863 -0.432311 -0.843689 0
M  V30 7250 H 681.569 -1.05453 -3.35518 0
M  V30 7251 H 681.443 0.658508 -3.71407 0
M  V30 7252 H 683.83 0.991009 -2.77962 0
M  V30 7253 H 683.911 -0.744992 -2.44711 0
M  V30 7254 H 683.555 -1.2148 -4.93158 0
M  V30 7255 H 683.485 0.5387 -5.23837 0
M  V30 7256 H 685.976 -0.0170923 -3.77896 0
M  V30 7257 H 686.289 -0.660116 -7.69976 0
M  V30 7258 H 684.634 -0.586736 -6.92519 0
M  V30 7259 H 687.825 -0.105421 -4.67981 0
M  V30 7260 H 687.998 -0.398418 -6.46774 0
M  V30 7261 N 681.404 1.57128 0.121893 0
M  V30 7262 C 682.367 1.99197 1.13372 0
M  V30 7263 C 683.367 0.881728 1.3447 0
M  V30 7264 O 684.557 1.14783 1.31036 0
M  V30 7265 C 681.689 2.32963 2.4888 0
M  V30 7266 H 682.882 2.89788 0.772204 0
M  V30 7267 H 680.435 1.51952 0.366093 0
M  V30 7268 H 681.17 1.45243 2.89957 0
M  V30 7269 H 680.955 3.13934 2.34921 0
M  V30 7270 H 682.445 2.66261 3.21706 0
M  V30 7271 N 682.882 -0.391992 1.52647 0
M  V30 7272 C 683.812 -1.48517 1.8018 0
M  V30 7273 C 684.793 -1.57039 0.653667 0
M  V30 7274 O 685.978 -1.72036 0.900962 0
M  V30 7275 C 683.108 -2.86161 1.96797 0
M  V30 7276 C 682.062 -2.92481 3.12472 0
M  V30 7277 C 681.388 -4.32546 3.14338 0
M  V30 7278 C 682.688 -2.624 4.51601 0
M  V30 7279 H 684.382 -1.25726 2.71723 0
M  V30 7280 H 681.928 -0.603387 1.30749 0
M  V30 7281 H 683.881 -3.62639 2.14641 0
M  V30 7282 H 682.605 -3.10283 1.01941 0
M  V30 7283 H 681.264 -2.18451 2.94406 0
M  V30 7284 H 680.912 -4.53703 2.1717 0
M  V30 7285 H 680.612 -4.37695 3.92042 0
M  V30 7286 H 682.136 -5.10934 3.34333 0
M  V30 7287 H 683.55 -3.28596 4.69785 0
M  V30 7288 H 681.947 -2.78903 5.3135 0
M  V30 7289 H 683.017 -1.57754 4.58521 0
M  V30 7290 N 684.36 -1.4356 -0.65026 0
M  V30 7291 C 685.637 -1.35811 -1.40765 0
M  V30 7292 C 686.017 -0.00736379 -2.11099 0
M  V30 7293 O 685.365 1.00932 -2.05 0
M  V30 7294 C 685.575 -2.54332 -2.3899 0
M  V30 7295 C 686.923 -2.97551 -3.02901 0
M  V30 7296 O 687.947 -2.544 -2.49317 0
M  V30 7297 O 686.806 -3.72311 -4.00059 0
M  V30 7298 H 683.9 -0.536861 -0.629054 0
M  V30 7299 H 686.446 -1.55615 -0.676919 0
M  V30 7300 H 685.218 -3.44274 -1.85986 0
M  V30 7301 H 684.841 -2.36643 -3.19509 0
M  V30 7302 N 685.838 0.888903 -1.30139 0
M  V30 7303 C 687.254 1.17153 -1.08385 0
M  V30 7304 C 687.454 2.0088 0.157925 0
M  V30 7305 O 686.51 2.37668 0.852652 0
M  V30 7306 C 687.823 1.882 -2.34523 0
M  V30 7307 C 689.371 2.00981 -2.39949 0
M  V30 7308 C 689.846 2.75441 -3.65918 0
M  V30 7309 N 691.337 2.82989 -3.66704 0
M  V30 7310 C 692.072 3.41167 -4.60861 0
M  V30 7311 N 691.568 4.00425 -5.6536 0
M  V30 7312 N 693.361 3.38944 -4.48412 0
M  V30 7313 H 685.512 0.33053 -2.09812 0
M  V30 7314 H 687.775 0.208964 -0.924683 0
M  V30 7315 H 687.481 1.34119 -3.25123 0
M  V30 7316 H 687.355 2.88609 -2.42868 0
M  V30 7317 H 689.742 2.54234 -1.4983 0
M  V30 7318 H 689.823 0.996725 -2.35582 0
M  V30 7319 H 689.467 2.22861 -4.56394 0
M  V30 7320 H 689.397 3.77118 -3.67546 0
M  V30 7321 H 691.888 2.40912 -2.91153 0
M  V30 7322 H 692.201 4.42871 -6.33313 0
M  V30 7323 H 690.546 3.98856 -5.69157 0
M  V30 7324 H 693.737 2.91875 -3.6596 0
M  V30 7325 H 693.91 3.83989 -5.21974 0
M  V30 7326 N 687.317 1.12792 1.10072 0
M  V30 7327 C 688.542 0.908838 1.86427 0
M  V30 7328 C 688.967 -0.536793 1.80278 0
M  V30 7329 O 688.325 -1.38033 1.17543 0
M  V30 7330 C 688.373 1.39295 3.3261 0
M  V30 7331 O 687.477 0.573846 4.08388 0
M  V30 7332 H 686.818 0.326234 0.578331 0
M  V30 7333 H 689.348 1.50094 1.39043 0
M  V30 7334 H 689.358 1.39366 3.83459 0
M  V30 7335 H 688.033 2.44555 3.36401 0
M  V30 7336 H 686.61 0.640438 3.67359 0
M  V30 7337 N 688.795 -1.27931 0.920396 0
M  V30 7338 C 690.206 -1.76707 0.602616 0
M  V30 7339 C 690.557 -1.75249 -0.882159 0
M  V30 7340 O 689.682 -1.35135 -1.69019 0
M  V30 7341 C 690.277 -3.20884 1.08714 0
M  V30 7342 C 688.836 -3.67356 0.820157 0
M  V30 7343 C 687.983 -2.47525 1.25006 0
M  V30 7344 H 690.934 -1.14301 1.10095 0
M  V30 7345 H 690.955 -3.78045 0.431535 0
M  V30 7346 H 690.467 -3.21913 2.1678 0
M  V30 7347 H 688.568 -3.7178 -0.247012 0
M  V30 7348 H 688.681 -4.57181 1.43257 0
M  V30 7349 H 687.045 -2.45765 0.668698 0
M  V30 7350 H 687.828 -2.51269 2.3392 0
M  V30 7351 N 690.273 -0.685099 -1.4193 0
M  V30 7352 C 691.689 -0.355632 -1.55587 0
M  V30 7353 C 691.889 1.13823 -1.66273 0
M  V30 7354 O 690.945 1.92387 -1.63534 0
M  V30 7355 C 692.258 -1.09498 -2.80055 0
M  V30 7356 C 693.806 -1.07831 -2.93839 0
M  V30 7357 C 694.281 -1.79919 -4.21181 0
M  V30 7358 N 695.772 -1.76837 -4.28115 0
M  V30 7359 C 696.507 -2.29463 -5.25485 0
M  V30 7360 N 696.003 -2.90516 -6.28945 0
M  V30 7361 N 697.796 -2.19779 -5.17353 0
M  V30 7362 H 689.947 -1.65412 -1.33239 0
M  V30 7363 H 692.21 -0.697453 -0.642078 0
M  V30 7364 H 691.916 -2.14997 -2.78333 0
M  V30 7365 H 691.79 -0.666813 -3.71259 0
M  V30 7366 H 694.177 -0.0316152 -2.95083 0
M  V30 7367 H 694.258 -1.54545 -2.03837 0
M  V30 7368 H 693.902 -2.84562 -4.20698 0
M  V30 7369 H 693.832 -1.30647 -5.10136 0
M  V30 7370 H 696.323 -1.32315 -3.53979 0
M  V30 7371 H 696.636 -3.28266 -6.99615 0
M  V30 7372 H 694.981 -2.94589 -6.29478 0
M  V30 7373 H 698.172 -1.71763 -4.35448 0
M  V30 7374 H 698.345 -2.61097 -5.9307 0
M  V30 7375 N 691.751 1.51645 -0.429126 0
M  V30 7376 C 692.683 2.25279 0.422124 0
M  V30 7377 C 693.696 1.28986 0.993299 0
M  V30 7378 O 694.885 1.54797 0.888836 0
M  V30 7379 C 691.985 2.98666 1.60162 0
M  V30 7380 C 691.158 4.2199 1.15078 0
M  V30 7381 C 690.217 4.78028 2.19946 0
M  V30 7382 O 689.243 5.40084 1.79716 0
M  V30 7383 N 690.445 4.61342 3.5234 0
M  V30 7384 H 693.21 2.98971 -0.208931 0
M  V30 7385 H 690.771 1.59838 -0.257568 0
M  V30 7386 H 692.763 3.33044 2.29922 0
M  V30 7387 H 691.333 2.28036 2.13818 0
M  V30 7388 H 690.553 3.932 0.280552 0
M  V30 7389 H 691.841 5.02037 0.826831 0
M  V30 7390 H 691.239 4.11894 3.87763 0
M  V30 7391 H 689.796 5.00104 4.18019 0
M  V30 7392 N 693.229 0.160201 1.56784 0
M  V30 7393 C 694.477 -0.486625 1.96154 0
M  V30 7394 C 694.798 -1.64525 1.04673 0
M  V30 7395 O 694.068 -1.95586 0.110864 0
M  V30 7396 H 692.648 -0.182764 0.724297 0
M  V30 7397 H 695.31 0.238787 1.93432 0
M  V30 7398 H 694.406 -0.854025 3.00188 0
M  V30 7399 N 694.707 -1.5719 -0.113559 0
M  V30 7400 C 695.67 -1.99796 -1.12314 0
M  V30 7401 C 696.67 -0.888847 -1.34001 0
M  V30 7402 O 697.86 -1.15476 -1.30426 0
M  V30 7403 C 694.992 -2.34279 -2.47641 0
M  V30 7404 H 696.185 -2.90193 -0.756825 0
M  V30 7405 H 693.738 -1.52144 -0.358029 0
M  V30 7406 H 694.473 -1.46778 -2.89183 0
M  V30 7407 H 694.258 -3.15175 -2.33253 0
M  V30 7408 H 695.748 -2.67963 -3.2029 0
M  V30 7409 N 696.185 0.383891 -1.52853 0
M  V30 7410 C 697.41 1.154 -1.7233 0
M  V30 7411 C 697.835 1.82809 -0.44298 0
M  V30 7412 O 697.193 1.71026 0.601645 0
M  V30 7413 C 697.241 2.17386 -2.87708 0
M  V30 7414 O 696.345 3.24082 -2.55038 0
M  V30 7415 H 695.686 0.335709 -0.572883 0
M  V30 7416 H 698.216 0.44662 -1.99666 0
M  V30 7417 H 698.226 2.61296 -3.1335 0
M  V30 7418 H 696.901 1.6771 -3.80587 0
M  V30 7419 H 695.478 2.85273 -2.40153 0
M  V30 7420 N 697.663 1.43903 0.642637 0
M  V30 7421 C 698.91 1.46079 1.40239 0
M  V30 7422 C 699.238 0.0890335 1.94296 0
M  V30 7423 O 698.493 -0.907533 1.73385 0
M  V30 7424 C 698.792 2.45907 2.59354 0
M  V30 7425 C 698.458 3.91522 2.23654 0
M  V30 7426 C 697.12 4.31179 2.1363 0
M  V30 7427 C 699.472 4.83242 1.95261 0
M  V30 7428 C 696.8 5.60495 1.73384 0
M  V30 7429 C 699.152 6.12933 1.56511 0
M  V30 7430 C 697.816 6.51556 1.4502 0
M  V30 7431 H 697.086 0.534542 0.513172 0
M  V30 7432 H 699.733 1.77047 0.72984 0
M  V30 7433 H 698.038 2.08381 3.3179 0
M  V30 7434 H 699.735 2.44842 3.17574 0
M  V30 7435 H 696.325 3.60142 2.32369 0
M  V30 7436 H 700.509 4.53367 2.0192 0
M  V30 7437 H 695.765 5.89249 1.63082 0
M  V30 7438 H 699.939 6.83469 1.33576 0
M  V30 7439 H 697.566 7.51663 1.13606 0
M  V30 7440 N 699.141 -0.881989 1.30609 0
M  V30 7441 C 700.071 -2.00413 1.1982 0
M  V30 7442 C 701.052 -1.69871 0.0881538 0
M  V30 7443 O 702.237 -1.92304 0.2707 0
M  V30 7444 C 699.367 -3.35641 0.89233 0
M  V30 7445 C 698.321 -3.80451 1.96064 0
M  V30 7446 C 697.647 -5.13003 1.5077 0
M  V30 7447 C 698.947 -3.98855 3.37213 0
M  V30 7448 H 700.641 -2.09698 2.13699 0
M  V30 7449 H 698.187 -1.00754 1.02882 0
M  V30 7450 H 700.14 -4.13669 0.803497 0
M  V30 7451 H 698.864 -3.26497 -0.0821381 0
M  V30 7452 H 697.523 -3.04654 2.03916 0
M  V30 7453 H 697.171 -5.0029 0.521417 0
M  V30 7454 H 696.871 -5.43956 2.22229 0
M  V30 7455 H 698.395 -5.93554 1.43271 0
M  V30 7456 H 699.809 -4.67312 3.32103 0
M  V30 7457 H 698.206 -4.41188 4.06784 0
M  V30 7458 H 699.276 -3.02614 3.78883 0
M  V30 7459 N 700.619 -1.13374 -1.09472 0
M  V30 7460 C 701.867 -0.893422 -1.8128 0
M  V30 7461 C 702.188 0.582029 -1.86111 0
M  V30 7462 O 701.458 1.42305 -1.34633 0
M  V30 7463 H 700.038 -0.327543 -0.67136 0
M  V30 7464 H 702.7 -1.43018 -1.32408 0
M  V30 7465 H 701.796 -1.28374 -2.84476 0
M  V30 7466 N 702.098 1.27442 -0.927168 0
M  V30 7467 C 703.347 1.93679 -0.563146 0
M  V30 7468 C 703.66 1.73673 0.899837 0
M  V30 7469 O 704.866 2.34247 1.37262 0
M  V30 7470 C 703.322 3.46961 -0.95636 0
M  V30 7471 C 702.93 3.75724 -2.43999 0
M  V30 7472 C 704.674 4.19282 -0.663565 0
M  V30 7473 C 702.581 5.22378 -2.77263 0
M  V30 7474 H 701.511 0.725059 -0.206894 0
M  V30 7475 H 704.162 1.44743 -1.12791 0
M  V30 7476 H 702.544 3.94703 -0.320254 0
M  V30 7477 H 703.718 3.38741 -3.12396 0
M  V30 7478 H 702.033 3.16605 -2.70463 0
M  V30 7479 H 704.63 5.27265 -0.888596 0
M  V30 7480 H 704.973 4.14382 0.399198 0
M  V30 7481 H 705.506 3.7736 -1.25875 0
M  V30 7482 H 702.245 5.32367 -3.82446 0
M  V30 7483 H 701.765 5.6051 -2.13516 0
M  V30 7484 H 703.444 5.9025 -2.64979 0
M  V30 7485 N 703.576 0.692616 1.41565 0
M  V30 7486 C 704.506 0.0397325 2.33466 0
M  V30 7487 C 705.487 -0.770334 1.51657 0
M  V30 7488 O 706.672 -0.723903 1.80203 0
M  V30 7489 C 703.802 -0.899495 3.3545 0
M  V30 7490 C 702.756 -0.196738 4.27548 0
M  V30 7491 C 702.082 -1.25012 5.19881 0
M  V30 7492 C 703.382 0.935158 5.1386 0
M  V30 7493 H 705.076 0.807296 2.88311 0
M  V30 7494 H 702.622 0.389665 1.38628 0
M  V30 7495 H 704.575 -1.36545 3.98665 0
M  V30 7496 H 703.299 -1.69869 2.78948 0
M  V30 7497 H 701.958 0.249158 3.65752 0
M  V30 7498 H 701.606 -2.04177 4.59696 0
M  V30 7499 H 701.306 -0.784931 5.82334 0
M  V30 7500 H 702.83 -1.71665 5.85972 0
M  V30 7501 H 704.244 0.549619 5.70659 0
M  V30 7502 H 702.641 1.32726 5.85238 0
M  V30 7503 H 703.711 1.77613 4.512 0
M  V30 7504 N 705.054 -1.51416 0.437162 0
M  V30 7505 C 706.331 -1.94682 -0.189292 0
M  V30 7506 C 706.711 -1.37581 -1.60108 0
M  V30 7507 O 706.059 -0.562815 -2.2146 0
M  V30 7508 C 706.269 -3.48599 -0.167201 0
M  V30 7509 C 707.617 -4.2296 -0.372856 0
M  V30 7510 O 708.641 -3.55354 -0.245323 0
M  V30 7511 O 707.5 -5.42895 -0.626693 0
M  V30 7512 H 704.594 -0.816708 -0.130063 0
M  V30 7513 H 707.14 -1.62316 0.495128 0
M  V30 7514 H 705.912 -3.82616 0.81981 0
M  V30 7515 H 705.535 -3.87406 -0.894537 0
M  V30 7516 N 706.532 -0.168513 -1.56696 0
M  V30 7517 C 707.781 0.477233 -1.95973 0
M  V30 7518 C 708.094 1.64578 -1.05704 0
M  V30 7519 O 709.3 2.35758 -1.3465 0
M  V30 7520 C 707.756 0.900413 -3.48455 0
M  V30 7521 C 707.364 -0.242382 -4.47344 0
M  V30 7522 C 709.108 1.51474 -3.96555 0
M  V30 7523 C 707.015 0.200272 -5.91061 0
M  V30 7524 H 705.945 0.182061 -0.73169 0
M  V30 7525 H 708.596 -0.256297 -1.81701 0
M  V30 7526 H 706.978 1.68984 -3.58135 0
M  V30 7527 H 708.152 -1.01967 -4.49377 0
M  V30 7528 H 706.467 -0.766484 -4.09285 0
M  V30 7529 H 709.064 1.85792 -5.01384 0
M  V30 7530 H 709.407 2.41163 -3.39332 0
M  V30 7531 H 709.94 0.789802 -3.89881 0
M  V30 7532 H 706.679 -0.661775 -6.52151 0
M  V30 7533 H 706.199 0.942979 -5.92341 0
M  V30 7534 H 707.878 0.645088 -6.43776 0
M  V30 7535 N 708.01 1.57248 0.105221 0
M  V30 7536 C 708.973 2.00388 1.11252 0
M  V30 7537 C 709.973 0.89594 1.33527 0
M  V30 7538 O 711.163 1.16166 1.29811 0
M  V30 7539 C 708.295 2.35589 2.46395 0
M  V30 7540 H 709.488 2.90591 0.741424 0
M  V30 7541 H 707.041 1.52332 0.349956 0
M  V30 7542 H 707.776 1.4831 2.884 0
M  V30 7543 H 707.561 3.16408 2.31578 0
M  V30 7544 H 709.051 2.69658 3.18864 0
M  V30 7545 N 709.488 -0.375779 1.53054 0
M  V30 7546 C 710.736 -1.11727 1.68409 0
M  V30 7547 C 711.057 -1.90127 0.43323 0
M  V30 7548 O 710.327 -1.87945 -0.552595 0
M  V30 7549 H 708.907 -0.415451 0.620813 0
M  V30 7550 H 711.569 -0.424869 1.90213 0
M  V30 7551 H 710.665 -1.8128 2.54055 0
M  V30 7552 N 710.966 -1.44241 -0.634997 0
M  V30 7553 C 712.213 -1.46821 -1.39463 0
M  V30 7554 C 712.541 -0.0993362 -1.94246 0
M  V30 7555 O 711.796 0.898325 -1.73864 0
M  V30 7556 C 712.095 -2.47279 -2.58046 0
M  V30 7557 C 711.761 -3.92703 -2.21574 0
M  V30 7558 C 710.423 -4.32306 -2.1134 0
M  V30 7559 C 712.775 -4.84271 -1.92695 0
M  V30 7560 C 710.103 -5.61407 -1.70409 0
M  V30 7561 C 712.455 -6.13755 -1.53258 0
M  V30 7562 C 711.119 -6.52316 -1.41562 0
M  V30 7563 H 710.389 -0.537256 -0.51033 0
M  V30 7564 H 713.036 -1.77431 -0.720441 0
M  V30 7565 H 711.341 -2.10138 -3.3068 0
M  V30 7566 H 713.038 -2.46523 -3.16271 0
M  V30 7567 H 709.628 -3.61369 -2.30456 0
M  V30 7568 H 713.812 -4.54432 -1.99513 0
M  V30 7569 H 709.068 -5.90105 -1.59955 0
M  V30 7570 H 713.242 -6.84168 -1.29949 0
M  V30 7571 H 710.869 -7.52255 -1.09619 0
M  V30 7572 N 712.444 0.87505 -1.31075 0
M  V30 7573 C 713.354 2.01441 -1.20244 0
M  V30 7574 C 714.37 1.73584 -0.120227 0
M  V30 7575 O 715.546 1.98559 -0.337063 0
M  V30 7576 C 712.611 3.34675 -0.905199 0
M  V30 7577 C 711.672 3.75889 -2.0738 0
M  V30 7578 C 710.905 5.02764 -1.79064 0
M  V30 7579 O 711.128 5.65795 -0.723318 0
M  V30 7580 O 710.062 5.40623 -2.64594 0
M  V30 7581 H 713.888 2.13509 -2.1598 0
M  V30 7582 H 711.473 1.00257 -1.10765 0
M  V30 7583 H 713.355 4.1458 -0.755057 0
M  V30 7584 H 712.03 3.23692 0.0221695 0
M  V30 7585 H 710.937 2.96645 -2.27931 0
M  V30 7586 H 712.27 3.91489 -2.98324 0
M  V30 7587 N 713.922 1.13953 1.08869 0
M  V30 7588 C 715.171 0.899431 1.80536 0
M  V30 7589 C 715.484 -0.575781 1.86933 0
M  V30 7590 O 716.69 -0.932988 2.54966 0
M  V30 7591 C 715.146 1.55963 3.24351 0
M  V30 7592 C 714.754 3.07077 3.26202 0
M  V30 7593 C 716.498 1.40046 4.00733 0
M  V30 7594 C 714.405 3.65955 4.64576 0
M  V30 7595 H 713.335 0.332849 0.676556 0
M  V30 7596 H 715.986 1.3679 1.22314 0
M  V30 7597 H 714.368 1.01883 3.82669 0
M  V30 7598 H 715.542 3.67785 2.77617 0
M  V30 7599 H 713.857 3.22576 2.63312 0
M  V30 7600 H 716.454 1.81441 5.02974 0
M  V30 7601 H 716.797 0.345993 4.1486 0
M  V30 7602 H 717.33 1.91137 3.48872 0
M  V30 7603 H 714.069 4.71234 4.55652 0
M  V30 7604 H 713.589 3.10027 5.13462 0
M  V30 7605 H 715.268 3.65968 5.33551 0
M  V30 7606 N 715.4 -1.26948 0.933913 0
M  V30 7607 C 716.647 -1.94087 0.577625 0
M  V30 7608 C 716.975 -1.73345 -0.88214 0
M  V30 7609 O 716.23 -1.05945 -1.64542 0
M  V30 7610 C 716.529 -3.46963 0.857406 0
M  V30 7611 C 716.195 -3.87834 2.2999 0
M  V30 7612 C 714.857 -3.98704 2.69423 0
M  V30 7613 C 717.209 -4.08442 3.23766 0
M  V30 7614 C 714.537 -4.27573 4.01744 0
M  V30 7615 C 716.889 -4.38798 4.55675 0
M  V30 7616 C 715.553 -4.47881 4.94934 0
M  V30 7617 H 714.823 -0.710215 0.211368 0
M  V30 7618 H 717.47 -1.50899 1.17905 0
M  V30 7619 H 715.775 -3.91416 0.173369 0
M  V30 7620 H 717.472 -3.97062 0.560615 0
M  V30 7621 H 714.062 -3.79916 1.98399 0
M  V30 7622 H 718.246 -3.99479 2.94499 0
M  V30 7623 H 713.502 -4.32815 4.31834 0
M  V30 7624 H 717.676 -4.5369 5.28335 0
M  V30 7625 H 715.303 -4.70005 5.97495 0
M  V30 7626 N 716.879 -0.700114 -1.41195 0
M  V30 7627 C 717.811 0.00155823 -2.292 0
M  V30 7628 C 718.824 0.739736 -1.45023 0
M  V30 7629 O 720.013 0.589684 -1.68478 0
M  V30 7630 C 717.113 1.02635 -3.22985 0
M  V30 7631 C 716.286 0.356871 -4.35942 0
M  V30 7632 C 715.345 1.28491 -5.10271 0
M  V30 7633 O 714.371 0.775562 -5.63892 0
M  V30 7634 N 715.573 2.61699 -5.18164 0
M  V30 7635 H 718.338 -0.754008 -2.9006 0
M  V30 7636 H 715.899 -0.546504 -1.52397 0
M  V30 7637 H 717.891 1.64902 -3.6958 0
M  V30 7638 H 716.461 1.68341 -2.63401 0
M  V30 7639 H 715.681 -0.445753 -3.91672 0
M  V30 7640 H 716.969 -0.108469 -5.08684 0
M  V30 7641 H 716.367 3.05594 -4.76056 0
M  V30 7642 H 714.924 3.19149 -5.6832 0
M  V30 7643 N 718.357 1.51182 -0.445186 0
M  V30 7644 C 719.287 2.30821 0.352686 0
M  V30 7645 C 720.268 1.36576 1.01395 0
M  V30 7646 O 721.453 1.65497 1.01609 0
M  V30 7647 C 718.583 3.15593 1.44976 0
M  V30 7648 C 717.537 4.1818 0.911553 0
M  V30 7649 C 716.863 4.91523 2.10497 0
M  V30 7650 C 718.163 5.22266 -0.059418 0
M  V30 7651 H 719.857 2.97771 -0.311936 0
M  V30 7652 H 717.403 1.43201 -0.151461 0
M  V30 7653 H 719.356 3.70091 2.01521 0
M  V30 7654 H 718.08 2.4648 2.14278 0
M  V30 7655 H 716.739 3.64746 0.368264 0
M  V30 7656 H 716.387 4.18906 2.78437 0
M  V30 7657 H 716.087 5.60898 1.7512 0
M  V30 7658 H 717.611 5.48847 2.6758 0
M  V30 7659 H 719.025 5.71789 0.415985 0
M  V30 7660 H 717.422 5.99213 -0.326152 0
M  V30 7661 H 718.492 4.7461 -0.993631 0
M  V30 7662 N 719.835 0.176821 1.56605 0
M  V30 7663 C 720.783 -0.768159 2.1955 0
M  V30 7664 C 721.777 -1.23343 1.16116 0
M  V30 7665 O 722.983 -1.19844 1.34303 0
M  V30 7666 H 719.358 -0.266013 0.703378 0
M  V30 7667 H 721.329 -0.213374 2.97636 0
M  V30 7668 C 720.078 -1.98492 2.85475 0
M  V30 7669 H 719.401 -1.63595 3.64797 0
M  V30 7670 H 720.841 -2.62489 3.3298 0
M  V30 7671 C 719.3 -2.81207 1.85538 0
M  V30 7672 O 719.83 -3.7854 1.34427 0
M  V30 7673 N 718.036 -2.46331 1.54173 0
M  V30 7674 H 717.583 -1.67241 1.95929 0
M  V30 7675 H 717.541 -3.01961 0.875595 0
M  V30 7676 N 721.313 -1.57302 -0.09688 0
M  V30 7677 C 722.538 -1.9058 -0.818169 0
M  V30 7678 C 722.963 -0.770921 -1.71576 0
M  V30 7679 O 722.321 0.277588 -1.79162 0
M  V30 7680 C 722.369 -3.22714 -1.60898 0
M  V30 7681 O 721.473 -3.10178 -2.71779 0
M  V30 7682 H 720.814 -0.624759 -0.224882 0
M  V30 7683 H 723.344 -2.04471 -0.07264 0
M  V30 7684 H 723.354 -3.55978 -1.99358 0
M  V30 7685 H 722.029 -4.04899 -0.950227 0
M  V30 7686 H 720.606 -2.88424 -2.3636 0
M  V30 7687 N 722.791 0.367657 -1.53252 0
M  V30 7688 C 724.038 1.11052 -1.69333 0
M  V30 7689 C 724.366 1.89363 -0.444064 0
M  V30 7690 O 723.621 1.87094 0.573953 0
M  V30 7691 C 723.92 2.09825 -2.89324 0
M  V30 7692 C 723.586 1.4801 -4.25915 0
M  V30 7693 C 722.248 1.30879 -4.6306 0
M  V30 7694 C 724.6 1.03268 -5.10867 0
M  V30 7695 C 721.928 0.675868 -5.82794 0
M  V30 7696 C 724.28 0.41377 -6.31245 0
M  V30 7697 C 722.944 0.229939 -6.67104 0
M  V30 7698 H 722.214 0.406367 -0.619634 0
M  V30 7699 H 724.861 0.392558 -1.87433 0
M  V30 7700 H 723.166 2.87917 -2.65728 0
M  V30 7701 H 724.863 2.67252 -2.98961 0
M  V30 7702 H 721.453 1.62336 -3.96667 0
M  V30 7703 H 725.637 1.15297 -4.82722 0
M  V30 7704 H 720.893 0.521833 -6.09169 0
M  V30 7705 H 725.067 0.0588768 -6.96375 0
M  V30 7706 H 722.694 -0.262562 -7.59746 0
M  V30 7707 N 724.269 1.44576 0.627338 0
M  V30 7708 C 725.179 1.54232 1.76776 0
M  V30 7709 C 726.195 0.427782 1.6866 0
M  V30 7710 O 727.371 0.685671 1.89369 0
M  V30 7711 C 724.436 1.48738 3.13174 0
M  V30 7712 C 723.497 2.71074 3.32893 0
M  V30 7713 C 722.73 2.65832 4.62784 0
M  V30 7714 O 722.953 1.72048 5.43834 0
M  V30 7715 O 721.887 3.56742 4.84787 0
M  V30 7716 H 725.713 2.50586 1.71582 0
M  V30 7717 H 723.298 1.26865 0.789028 0
M  V30 7718 H 725.18 1.48211 3.94476 0
M  V30 7719 H 723.855 0.555292 3.18902 0
M  V30 7720 H 722.762 2.77168 2.51254 0
M  V30 7721 H 724.095 3.63342 3.32029 0
M  V30 7722 N 725.747 -0.868086 1.31537 0
M  V30 7723 C 726.679 -1.98165 1.15166 0
M  V30 7724 C 727.692 -1.6255 0.0902335 0
M  V30 7725 O 728.881 -1.75272 0.33791 0
M  V30 7726 C 725.981 -3.30772 0.737776 0
M  V30 7727 C 725.154 -3.94716 1.88462 0
M  V30 7728 C 724.213 -5.05641 1.45648 0
M  V30 7729 O 723.239 -5.2636 2.16642 0
M  V30 7730 N 724.441 -5.79474 0.34493 0
M  V30 7731 H 727.206 -2.12754 2.11083 0
M  V30 7732 H 724.767 -1.04217 1.23897 0
M  V30 7733 H 726.759 -4.02366 0.434032 0
M  V30 7734 H 725.329 -3.1233 -0.129834 0
M  V30 7735 H 724.549 -3.16079 2.35558 0
M  V30 7736 H 725.837 -4.34175 2.65273 0
M  V30 7737 H 725.235 -5.65164 -0.246259 0
M  V30 7738 H 723.792 -6.51722 0.100728 0
M  V30 7739 N 727.225 -1.14528 -1.08264 0
M  V30 7740 C 728.155 -0.856356 -2.1723 0
M  V30 7741 C 729.136 0.189251 -1.69044 0
M  V30 7742 O 730.321 0.0456119 -1.94146 0
M  V30 7743 C 727.451 -0.334662 -3.45684 0
M  V30 7744 C 726.405 -1.31588 -4.0727 0
M  V30 7745 C 725.731 -0.653428 -5.30692 0
M  V30 7746 C 727.031 -2.67866 -4.48381 0
M  V30 7747 H 728.725 -1.76755 -2.41657 0
M  V30 7748 H 726.271 -0.851287 -1.16143 0
M  V30 7749 H 728.224 -0.120128 -4.21229 0
M  V30 7750 H 726.948 0.611967 -3.20815 0
M  V30 7751 H 725.607 -1.51661 -3.33758 0
M  V30 7752 H 725.255 0.299054 -5.0211 0
M  V30 7753 H 724.955 -1.30817 -5.72853 0
M  V30 7754 H 726.479 -0.448453 -6.08951 0
M  V30 7755 H 727.893 -2.51692 -5.15096 0
M  V30 7756 H 726.29 -3.29627 -5.01464 0
M  V30 7757 H 727.36 -3.24632 -3.60198 0
M  V30 7758 N 728.703 1.26451 -0.940633 0
M  V30 7759 C 729.943 1.95537 -0.595381 0
M  V30 7760 C 730.307 1.72175 0.849683 0
M  V30 7761 O 731.508 2.3506 1.30384 0
M  V30 7762 C 729.779 3.45151 -0.927669 0
M  V30 7763 S 731.338 4.33295 -0.69288 0
M  V30 7764 H 728.156 0.676331 -0.219311 0
M  V30 7765 H 730.758 1.53411 -1.21183 0
M  V30 7766 H 729.462 3.59654 -1.9768 0
M  V30 7767 H 728.993 3.92247 -0.300921 0
M  V30 7768 H 731.008 4.94217 0.443175 0
M  V30 7769 N 730.181 0.707592 1.40822 0
M  V30 7770 C 731.43 0.240705 2.00259 0
M  V30 7771 C 731.743 -1.17027 1.56729 0
M  V30 7772 O 732.949 -1.73526 2.08809 0
M  V30 7773 C 731.405 0.379432 3.57894 0
M  V30 7774 C 731.013 1.79654 4.104 0
M  V30 7775 C 732.757 -0.0270684 4.24491 0
M  V30 7776 C 730.664 1.88628 5.60512 0
M  V30 7777 H 729.594 0.0862369 0.749052 0
M  V30 7778 H 732.245 0.877528 1.61157 0
M  V30 7779 H 730.627 -0.325842 3.94657 0
M  V30 7780 H 731.801 2.53155 3.85032 0
M  V30 7781 H 730.116 2.15379 3.56372 0
M  V30 7782 H 732.713 0.0193743 5.34696 0
M  V30 7783 H 733.056 -1.06772 4.02375 0
M  V30 7784 H 733.589 0.628361 3.92806 0
M  V30 7785 H 730.328 2.90787 5.87472 0
M  V30 7786 H 729.848 1.19528 5.8777 0
M  V30 7787 H 731.527 1.6547 6.25483 0
M  V30 7788 N 731.66 -1.50943 0.453197 0
M  V30 7789 C 732.608 -2.29728 -0.364419 0
M  V30 7790 C 733.602 -1.36246 -1.00664 0
M  V30 7791 O 734.808 -1.53518 -0.939794 0
M  V30 7792 H 731.183 -0.739536 -0.136347 0
M  V30 7793 H 733.154 -2.96672 0.320696 0
M  V30 7794 C 731.903 -3.1629 -1.44415 0
M  V30 7795 H 731.226 -3.88119 -0.959343 0
M  V30 7796 H 732.666 -3.74444 -1.98917 0
M  V30 7797 C 731.125 -2.32702 -2.43622 0
M  V30 7798 O 731.655 -1.99763 -3.48508 0
M  V30 7799 N 729.861 -1.95621 -2.14897 0
M  V30 7800 H 729.408 -2.22607 -1.29629 0
M  V30 7801 H 729.366 -1.39993 -2.81513 0
M  V30 7802 N 733.138 -0.185124 -1.56509 0
M  V30 7803 C 734.368 0.461469 -2.0138 0
M  V30 7804 C 734.776 1.56417 -1.06445 0
M  V30 7805 O 734.119 1.83603 -0.0597515 0
M  V30 7806 C 734.181 1.08731 -3.42663 0
M  V30 7807 C 733.845 0.124581 -4.5683 0
M  V30 7808 C 734.842 -0.662295 -5.15664 0
M  V30 7809 C 732.527 0.0163947 -5.02297 0
M  V30 7810 C 734.521 -1.54442 -6.18406 0
M  V30 7811 C 732.208 -0.869301 -6.04885 0
M  V30 7812 C 733.206 -1.64828 -6.62813 0
M  V30 7813 O 732.894 -2.51915 -7.63409 0
M  V30 7814 H 732.626 0.1212 -0.665046 0
M  V30 7815 H 735.18 -0.288119 -2.03369 0
M  V30 7816 H 733.41 1.8853 -3.37629 0
M  V30 7817 H 735.099 1.63753 -3.71403 0
M  V30 7818 H 735.865 -0.588963 -4.81411 0
M  V30 7819 H 731.744 0.61253 -4.56913 0
M  V30 7820 H 735.288 -2.15289 -6.63548 0
M  V30 7821 H 731.185 -0.943786 -6.38563 0
M  V30 7822 H 731.953 -2.45584 -7.80789 0
M  V30 7823 N 734.616 1.57351 0.0885366 0
M  V30 7824 C 735.844 1.90631 0.804196 0
M  V30 7825 C 736.259 0.779474 1.71958 0
M  V30 7826 O 735.616 -0.248179 1.80805 0
M  V30 7827 C 735.667 3.23568 1.61202 0
M  V30 7828 O 735.388 4.31917 0.733447 0
M  V30 7829 C 736.889 3.70753 2.43016 0
M  V30 7830 H 734.109 0.630501 0.229585 0
M  V30 7831 H 736.653 2.044 0.0638092 0
M  V30 7832 H 734.808 3.11377 2.30485 0
M  V30 7833 H 735.222 5.08297 1.29361 0
M  V30 7834 H 736.696 4.66447 2.9518 0
M  V30 7835 H 737.173 2.98922 3.2178 0
M  V30 7836 H 737.779 3.85834 1.7892 0
M  V30 7837 N 736.094 -0.359525 1.53444 0
M  V30 7838 C 737.042 -1.46104 1.80987 0
M  V30 7839 C 738.036 -1.55181 0.679351 0
M  V30 7840 O 739.242 -1.57995 0.862405 0
M  V30 7841 H 735.617 -0.486835 0.573145 0
M  V30 7842 H 737.588 -1.2008 2.73173 0
M  V30 7843 C 736.337 -2.82855 2.02208 0
M  V30 7844 H 735.66 -2.76631 2.88644 0
M  V30 7845 H 737.1 -3.59091 2.25455 0
M  V30 7846 C 735.559 -3.27192 0.802931 0
M  V30 7847 O 736.089 -4.017 -0.00544286 0
M  V30 7848 N 734.295 -2.83807 0.624657 0
M  V30 7849 H 733.842 -2.23339 1.28364 0
M  V30 7850 H 733.8 -3.13828 -0.189641 0
M  V30 7851 N 737.572 -1.44907 -0.619662 0
M  V30 7852 C 738.482 -1.55168 -1.75955 0
M  V30 7853 C 739.498 -0.43672 -1.6843 0
M  V30 7854 O 740.674 -0.695704 -1.89002 0
M  V30 7855 C 737.739 -1.50397 -3.12381 0
M  V30 7856 C 736.8 -2.72835 -3.31451 0
M  V30 7857 C 736.033 -2.68283 -4.61368 0
M  V30 7858 O 736.256 -1.74929 -5.42914 0
M  V30 7859 O 735.19 -3.59308 -4.82889 0
M  V30 7860 H 739.016 -2.51493 -1.7025 0
M  V30 7861 H 736.601 -1.27282 -0.782289 0
M  V30 7862 H 738.483 -1.50301 -3.93685 0
M  V30 7863 H 737.158 -0.572197 -3.18603 0
M  V30 7864 H 736.065 -2.78496 -2.49781 0
M  V30 7865 H 737.398 -3.65098 -3.30098 0
M  V30 7866 N 739.05 0.861098 -1.31996 0
M  V30 7867 C 739.997 1.96912 -1.20392 0
M  V30 7868 C 740.967 1.65869 -0.0875899 0
M  V30 7869 O 742.152 1.88992 -0.262011 0
M  V30 7870 C 739.292 3.32435 -0.926335 0
M  V30 7871 C 738.405 3.76018 -2.12684 0
M  V30 7872 C 737.54 5.00301 -1.78529 0
M  V30 7873 C 736.579 5.36357 -2.94937 0
M  V30 7874 N 735.716 6.51818 -2.60917 0
M  V30 7875 H 740.556 2.06169 -2.1517 0
M  V30 7876 H 738.093 1.00917 -1.07024 0
M  V30 7877 H 740.051 4.10478 -0.745917 0
M  V30 7878 H 738.681 3.22796 -0.0153578 0
M  V30 7879 H 737.733 2.93683 -2.41774 0
M  V30 7880 H 739.045 3.98664 -2.99781 0
M  V30 7881 H 738.199 5.86034 -1.57001 0
M  V30 7882 H 736.938 4.79578 -0.886356 0
M  V30 7883 H 735.943 4.49139 -3.17103 0
M  V30 7884 H 737.168 5.59041 -3.85552 0
M  V30 7885 H 735.114 6.32624 -1.73558 0
M  V30 7886 H 735.031 6.7445 -3.41544 0
M  V30 7887 H 736.299 7.4072 -2.42804 0
M  V30 7888 N 740.528 1.15101 1.07655 0
M  V30 7889 C 741.458 0.867864 2.16773 0
M  V30 7890 C 742.439 -0.180283 1.69142 0
M  V30 7891 O 743.624 -0.0353152 1.94168 0
M  V30 7892 C 740.754 0.35299 3.45501 0
M  V30 7893 C 739.708 1.33746 4.06566 0
M  V30 7894 C 739.034 0.681562 5.30338 0
M  V30 7895 C 740.334 2.7024 4.46954 0
M  V30 7896 H 742.028 1.78034 2.40716 0
M  V30 7897 H 739.574 0.857435 1.15689 0
M  V30 7898 H 741.527 0.142465 4.21159 0
M  V30 7899 H 740.251 -0.594945 3.21135 0
M  V30 7900 H 738.91 1.53429 3.32949 0
M  V30 7901 H 738.558 -0.272422 5.02262 0
M  V30 7902 H 738.258 1.33853 5.72151 0
M  V30 7903 H 739.782 0.48074 6.08705 0
M  V30 7904 H 741.196 2.5442 5.13754 0
M  V30 7905 H 739.593 3.32282 4.99709 0
M  V30 7906 H 740.663 3.26537 3.58471 0
M  V30 7907 N 742.006 -1.2595 0.947325 0
M  V30 7908 C 742.938 -2.25336 0.41906 0
M  V30 7909 C 743.951 -1.56135 -0.461051 0
M  V30 7910 O 745.14 -1.76438 -0.270505 0
M  V30 7911 C 742.24 -3.36334 -0.416233 0
M  V30 7912 C 741.413 -4.35088 0.449162 0
M  V30 7913 C 740.472 -5.25185 -0.326716 0
M  V30 7914 O 739.498 -5.68548 0.272374 0
M  V30 7915 N 740.7 -5.57388 -1.6217 0
M  V30 7916 H 743.465 -2.71298 1.27348 0
M  V30 7917 H 741.026 -1.39781 0.81688 0
M  V30 7918 H 743.018 -3.93564 -0.942826 0
M  V30 7919 H 741.588 -2.89819 -1.17148 0
M  V30 7920 H 740.808 -3.76841 1.15692 0
M  V30 7921 H 742.096 -4.98056 1.04008 0
M  V30 7922 H 741.494 -5.2405 -2.13046 0
M  V30 7923 H 740.051 -6.17234 -2.0944 0
M  V30 7924 N 743.484 -0.715051 -1.40445 0
M  V30 7925 C 744.416 -0.0227516 -2.29189 0
M  V30 7926 C 745.429 0.724313 -1.458 0
M  V30 7927 O 746.618 0.571781 -1.69094 0
M  V30 7928 C 743.718 0.992038 -3.24055 0
M  V30 7929 C 742.891 0.310613 -4.36296 0
M  V30 7930 C 741.95 1.23071 -5.11605 0
M  V30 7931 O 740.976 0.71571 -5.64682 0
M  V30 7932 N 742.178 2.56188 -5.2091 0
M  V30 7933 H 744.943 -0.78473 -2.89244 0
M  V30 7934 H 742.504 -0.562637 -1.51809 0
M  V30 7935 H 744.496 1.60973 -3.71308 0
M  V30 7936 H 743.066 1.65538 -2.65171 0
M  V30 7937 H 742.286 -0.487269 -3.91177 0
M  V30 7938 H 743.574 -0.162415 -5.08541 0
M  V30 7939 H 742.972 3.00527 -4.7927 0
M  V30 7940 H 741.529 3.13103 -5.71673 0
M  V30 7941 N 744.962 1.50701 -0.461195 0
M  V30 7942 C 745.892 2.31182 0.328184 0
M  V30 7943 C 746.873 1.37644 0.999408 0
M  V30 7944 O 748.058 1.66565 0.99848 0
M  V30 7945 C 745.188 3.17113 1.41621 0
M  V30 7946 C 744.142 4.19124 0.867148 0
M  V30 7947 C 743.468 4.93728 2.05272 0
M  V30 7948 C 744.768 5.22174 -0.114808 0
M  V30 7949 H 746.462 2.97423 -0.343501 0
M  V30 7950 H 744.008 1.43033 -0.166641 0
M  V30 7951 H 745.961 3.72208 1.97584 0
M  V30 7952 H 744.685 2.48739 2.11652 0
M  V30 7953 H 743.344 3.65116 0.329557 0
M  V30 7954 H 742.992 4.21835 2.73978 0
M  V30 7955 H 742.692 5.62724 1.69161 0
M  V30 7956 H 744.216 5.51654 2.61744 0
M  V30 7957 H 745.63 5.72198 0.355316 0
M  V30 7958 H 744.027 5.98833 -0.389689 0
M  V30 7959 H 745.097 4.7353 -1.04391 0
M  V30 7960 N 746.441 0.193421 1.56409 0
M  V30 7961 C 747.688 -0.445789 1.97532 0
M  V30 7962 C 748.016 -1.61744 1.08024 0
M  V30 7963 O 747.271 -1.95338 0.118982 0
M  V30 7964 C 747.57 -0.949718 3.44551 0
M  V30 7965 C 747.236 0.108383 4.5077 0
M  V30 7966 C 745.898 0.399126 4.79542 0
M  V30 7967 C 748.25 0.825423 5.14622 0
M  V30 7968 C 745.578 1.41192 5.69457 0
M  V30 7969 C 747.93 1.82735 6.05632 0
M  V30 7970 C 746.594 2.12531 6.32761 0
M  V30 7971 H 745.864 -0.163126 0.722822 0
M  V30 7972 H 748.511 0.290035 1.89291 0
M  V30 7973 H 746.816 -1.76378 3.49854 0
M  V30 7974 H 748.513 -1.45367 3.73724 0
M  V30 7975 H 745.103 -0.128392 4.28408 0
M  V30 7976 H 749.287 0.61403 4.92487 0
M  V30 7977 H 744.543 1.6487 5.88751 0
M  V30 7978 H 748.717 2.3882 6.5417 0
M  V30 7979 H 746.344 2.91155 7.02234 0
M  V30 7980 N 747.919 -1.57396 -0.0801906 0
M  V30 7981 C 748.867 -2.04136 -1.11495 0
M  V30 7982 C 749.861 -0.945137 -1.40583 0
M  V30 7983 O 751.067 -1.13028 -1.40088 0
M  V30 7984 H 747.442 -0.65076 -0.37685 0
M  V30 7985 H 749.413 -2.90205 -0.694526 0
M  V30 7986 C 748.162 -2.49399 -2.42272 0
M  V30 7987 H 747.485 -3.33339 -2.20737 0
M  V30 7988 H 748.925 -2.85864 -3.13142 0
M  V30 7989 C 747.384 -1.37341 -3.07635 0
M  V30 7990 O 747.914 -0.710829 -3.95361 0
M  V30 7991 N 746.12 -1.12064 -2.68123 0
M  V30 7992 H 745.667 -1.66126 -1.96875 0
M  V30 7993 H 745.625 -0.372916 -3.12181 0
M  V30 7994 N 749.397 0.351382 -1.53633 0
M  V30 7995 C 750.347 1.4316 -1.77452 0
M  V30 7996 C 751.331 1.48076 -0.62946 0
M  V30 7997 O 752.523 1.53078 -0.888599 0
M  V30 7998 C 749.652 2.80409 -1.98055 0
M  V30 7999 C 748.738 2.79915 -3.18604 0
M  V30 8000 N 749.129 2.49057 -4.40232 0
M  V30 8001 C 747.427 3.11067 -3.19614 0
M  V30 8002 C 748.128 2.566 -5.22045 0
M  V30 8003 N 747.104 2.919 -4.5858 0
M  V30 8004 H 750.906 1.18188 -2.69089 0
M  V30 8005 H 748.42 0.559684 -1.52451 0
M  V30 8006 H 750.417 3.58231 -2.13251 0
M  V30 8007 H 749.077 3.06334 -1.07655 0
M  V30 8008 H 750.088 2.22395 -4.67719 0
M  V30 8009 H 746.765 3.42215 -2.39154 0
M  V30 8010 H 748.155 2.35968 -6.29101 0
M  V30 8011 N 750.875 1.45233 0.611969 0
M  V30 8012 C 752.103 1.52539 1.39784 0
M  V30 8013 C 752.518 0.156533 1.8815 0
M  V30 8014 O 751.875 -0.84112 1.61961 0
M  V30 8015 C 751.926 2.50614 2.60528 0
M  V30 8016 O 751.647 3.8218 2.14173 0
M  V30 8017 C 753.148 2.67574 3.53439 0
M  V30 8018 H 750.368 0.51674 0.428043 0
M  V30 8019 H 752.912 1.90379 0.746727 0
M  V30 8020 H 751.067 2.15858 3.2169 0
M  V30 8021 H 751.481 4.35305 2.92592 0
M  V30 8022 H 752.955 3.40184 4.34717 0
M  V30 8023 H 753.432 1.73458 4.03496 0
M  V30 8024 H 754.038 3.0331 2.98133 0
M  V30 8025 N 752.353 -0.854086 1.3245 0
M  V30 8026 C 753.286 -1.96654 1.15768 0
M  V30 8027 C 754.264 -1.625 0.0569975 0
M  V30 8028 O 755.448 -1.87254 0.216412 0
M  V30 8029 C 752.575 -3.29776 0.772361 0
M  V30 8030 C 751.621 -3.82909 1.87837 0
M  V30 8031 S 752.454 -4.0643 3.48675 0
M  V30 8032 C 753.61 -5.42526 3.12116 0
M  V30 8033 H 753.843 -2.10504 2.09942 0
M  V30 8034 H 751.376 -1.00612 1.17118 0
M  V30 8035 H 753.334 -4.06706 0.556809 0
M  V30 8036 H 751.995 -3.13739 -0.150519 0
M  V30 8037 H 751.188 -4.79192 1.56177 0
M  V30 8038 H 750.79 -3.12825 2.0498 0
M  V30 8039 H 753.082 -6.24792 2.61996 0
M  V30 8040 H 754.025 -5.79148 4.07422 0
M  V30 8041 H 754.433 -5.06556 2.49121 0
M  V30 8042 N 753.831 -1.1567 -1.07043 0
M  V30 8043 C 755.078 -0.933517 -1.79699 0
M  V30 8044 C 755.406 0.539162 -1.86878 0
M  V30 8045 O 754.661 1.41592 -1.35093 0
M  V30 8046 C 754.96 -1.49677 -3.24548 0
M  V30 8047 C 754.626 -2.99047 -3.37463 0
M  V30 8048 C 753.288 -3.39824 -3.40695 0
M  V30 8049 C 755.64 -3.95027 -3.40004 0
M  V30 8050 C 752.968 -4.75215 -3.44075 0
M  V30 8051 C 755.32 -5.30295 -3.44921 0
M  V30 8052 C 753.984 -5.70562 -3.46432 0
M  V30 8053 H 753.254 -0.341598 -0.657565 0
M  V30 8054 H 755.901 -1.44263 -1.25938 0
M  V30 8055 H 754.206 -0.908915 -3.81111 0
M  V30 8056 H 755.903 -1.29986 -3.79348 0
M  V30 8057 H 752.493 -2.6653 -3.35648 0
M  V30 8058 H 756.677 -3.64596 -3.36725 0
M  V30 8059 H 751.933 -5.05754 -3.43545 0
M  V30 8060 H 756.107 -6.0446 -3.45833 0
M  V30 8061 H 753.734 -6.75456 -3.48803 0
M  V30 8062 N 755.309 1.25446 -0.953992 0
M  V30 8063 C 756.555 1.9343 -0.60933 0
M  V30 8064 C 756.888 1.74542 0.851388 0
M  V30 8065 O 756.163 1.09014 1.61078 0
M  V30 8066 C 756.446 3.46844 -0.968041 0
M  V30 8067 C 756.299 3.74961 -2.48444 0
M  V30 8068 C 757.618 4.37334 -0.492641 0
M  V30 8069 H 754.737 0.702502 -0.222844 0
M  V30 8070 H 757.379 1.48076 -1.19053 0
M  V30 8071 H 755.529 3.85604 -0.473465 0
M  V30 8072 H 757.201 3.45841 -3.05273 0
M  V30 8073 H 755.444 3.20589 -2.92241 0
M  V30 8074 H 756.115 4.82246 -2.68594 0
M  V30 8075 H 758.591 4.05873 -0.916878 0
M  V30 8076 H 757.467 5.43439 -0.772331 0
M  V30 8077 H 757.728 4.37908 0.607403 0
M  V30 8078 N 756.787 0.722489 1.40064 0
M  V30 8079 C 757.717 0.0892452 2.33329 0
M  V30 8080 C 758.698 -0.737992 1.53257 0
M  V30 8081 O 759.883 -0.685516 1.81698 0
M  V30 8082 C 757.013 -0.828139 3.37282 0
M  V30 8083 C 755.967 -0.106005 4.27869 0
M  V30 8084 C 755.293 -1.13957 5.22415 0
M  V30 8085 C 756.593 1.04395 5.11761 0
M  V30 8086 H 758.287 0.868269 2.86534 0
M  V30 8087 H 755.833 0.418982 1.3777 0
M  V30 8088 H 757.786 -1.28058 4.01471 0
M  V30 8089 H 756.51 -1.63914 2.82489 0
M  V30 8090 H 755.169 0.326683 3.65142 0
M  V30 8091 H 754.817 -1.9438 4.63924 0
M  V30 8092 H 754.517 -0.661233 5.83868 0
M  V30 8093 H 756.041 -1.59197 5.89482 0
M  V30 8094 H 757.455 0.670541 5.69365 0
M  V30 8095 H 755.852 1.4511 5.82291 0
M  V30 8096 H 756.922 1.87144 4.47331 0
M  V30 8097 N 758.265 -1.50454 0.469181 0
M  V30 8098 C 759.175 -2.32248 -0.331349 0
M  V30 8099 C 760.191 -1.42548 -0.997807 0
M  V30 8100 O 761.367 -1.75602 -0.9862 0
M  V30 8101 C 758.432 -3.17171 -1.40012 0
M  V30 8102 C 757.493 -4.2269 -0.750463 0
M  V30 8103 C 756.726 -5.03554 -1.76831 0
M  V30 8104 O 756.949 -4.85469 -2.99459 0
M  V30 8105 O 755.883 -5.86767 -1.3412 0
M  V30 8106 H 759.709 -3.01821 0.337279 0
M  V30 8107 H 757.294 -1.47602 0.231066 0
M  V30 8108 H 759.176 -3.69871 -2.01924 0
M  V30 8109 H 757.851 -2.50328 -2.05226 0
M  V30 8110 H 756.758 -3.73986 -0.0924446 0
M  V30 8111 H 758.091 -4.91997 -0.14131 0
M  V30 8112 N 759.743 -0.201713 -1.56304 0
M  V30 8113 C 760.675 0.748466 -2.16635 0
M  V30 8114 C 761.688 1.172 -1.12996 0
M  V30 8115 O 762.877 1.10658 -1.40061 0
M  V30 8116 C 759.977 2.02296 -2.719 0
M  V30 8117 C 759.15 1.75818 -4.00508 0
M  V30 8118 C 758.209 2.87779 -4.40533 0
M  V30 8119 O 757.235 2.57101 -5.07826 0
M  V30 8120 N 758.437 4.16287 -4.04581 0
M  V30 8121 H 761.202 0.232505 -2.98797 0
M  V30 8122 H 758.763 -0.0199822 -1.61888 0
M  V30 8123 H 760.755 2.7635 -2.95657 0
M  V30 8124 H 759.325 2.44996 -1.94154 0
M  V30 8125 H 758.545 0.855095 -3.84814 0
M  V30 8126 H 759.833 1.55532 -4.84445 0
M  V30 8127 H 759.231 4.44061 -3.50466 0
M  V30 8128 H 757.788 4.86946 -4.33274 0
M  V30 8129 N 761.222 1.57436 0.0718424 0
M  V30 8130 C 762.132 2.07039 1.10326 0
M  V30 8131 C 763.148 0.999918 1.424 0
M  V30 8132 O 764.324 1.31462 1.52577 0
M  V30 8133 C 761.389 2.50439 2.39752 0
M  V30 8134 C 760.45 3.71784 2.14651 0
M  V30 8135 C 759.683 4.13104 3.37906 0
M  V30 8136 O 759.906 3.54298 4.47023 0
M  V30 8137 O 758.84 5.05894 3.26121 0
M  V30 8138 H 762.666 2.95239 0.711872 0
M  V30 8139 H 760.251 1.46638 0.28597 0
M  V30 8140 H 762.133 2.78876 3.15921 0
M  V30 8141 H 760.808 1.65368 2.78271 0
M  V30 8142 H 759.715 3.48431 1.36187 0
M  V30 8143 H 761.048 4.57707 1.81012 0
M  V30 8144 N 762.7 -0.34323 1.53817 0
M  V30 8145 C 763.61 -1.44493 1.84821 0
M  V30 8146 C 764.626 -1.57556 0.738381 0
M  V30 8147 O 765.802 -1.73026 1.03072 0
M  V30 8148 C 762.867 -2.79478 2.05166 0
M  V30 8149 C 761.928 -2.75756 3.29025 0
M  V30 8150 C 761.161 -4.04302 3.4839 0
M  V30 8151 O 761.384 -5.01595 2.71586 0
M  V30 8152 O 760.318 -4.08754 4.41819 0
M  V30 8153 H 764.144 -1.21209 2.78464 0
M  V30 8154 H 761.729 -0.535437 1.39476 0
M  V30 8155 H 763.611 -3.59419 2.19991 0
M  V30 8156 H 762.286 -3.02692 1.14713 0
M  V30 8157 H 761.193 -1.94434 3.19603 0
M  V30 8158 H 762.526 -2.57495 4.19472 0
M  V30 8159 N 764.178 -1.45556 -0.604258 0
M  V30 8160 C 765.408 -1.53056 -1.38771 0
M  V30 8161 C 765.816 -0.163092 -1.88496 0
M  V30 8162 O 765.159 0.846157 -1.63052 0
M  V30 8163 C 765.221 -2.45656 -2.62476 0
M  V30 8164 C 764.885 -3.92328 -2.34367 0
M  V30 8165 C 765.882 -4.82137 -1.94525 0
M  V30 8166 C 763.567 -4.37275 -2.47177 0
M  V30 8167 C 765.561 -6.14901 -1.67856 0
M  V30 8168 C 763.248 -5.70079 -2.20122 0
M  V30 8169 C 764.246 -6.58711 -1.80524 0
M  V30 8170 O 763.934 -7.89053 -1.53788 0
M  V30 8171 H 763.666 -0.520721 -0.431075 0
M  V30 8172 H 766.22 -1.91464 -0.743693 0
M  V30 8173 H 764.45 -2.02225 -3.29609 0
M  V30 8174 H 766.139 -2.43802 -3.24523 0
M  V30 8175 H 766.905 -4.48675 -1.84162 0
M  V30 8176 H 762.784 -3.68527 -2.76964 0
M  V30 8177 H 766.328 -6.8404 -1.36874 0
M  V30 8178 H 762.225 -6.03095 -2.30102 0
M  V30 8179 H 762.993 -8.01113 -1.67812 0
M  V30 8180 N 765.656 0.84705 -1.32902 0
M  V30 8181 C 766.588 1.96308 -1.18304 0
M  V30 8182 C 767.601 1.62386 -0.116082 0
M  V30 8183 O 768.79 1.74713 -0.365751 0
M  V30 8184 C 765.89 3.29556 -0.790305 0
M  V30 8185 C 765.063 3.91668 -1.94717 0
M  V30 8186 C 764.122 5.0326 -1.53674 0
M  V30 8187 O 763.148 5.22847 -2.24989 0
M  V30 8188 N 764.35 5.78852 -0.437075 0
M  V30 8189 H 767.115 2.09369 -2.14441 0
M  V30 8190 H 764.676 1.02233 -1.25539 0
M  V30 8191 H 766.668 4.01624 -0.49799 0
M  V30 8192 H 765.238 3.12497 0.0801286 0
M  V30 8193 H 764.458 3.12292 -2.40557 0
M  V30 8194 H 765.746 4.299 -2.72146 0
M  V30 8195 H 765.144 5.65484 0.156316 0
M  V30 8196 H 763.701 6.51479 -0.204399 0
M  V30 8197 N 767.134 1.16236 1.06428 0
M  V30 8198 C 768.55 0.906983 1.31324 0
M  V30 8199 C 768.75 -0.440872 1.96618 0
M  V30 8200 O 767.806 -1.1807 2.23194 0
M  V30 8201 C 769.119 2.05501 2.19522 0
M  V30 8202 C 770.667 2.09061 2.32943 0
M  V30 8203 C 771.142 3.23214 3.24495 0
M  V30 8204 N 772.633 3.22922 3.32078 0
M  V30 8205 C 773.368 4.07889 4.03006 0
M  V30 8206 N 772.864 5.02941 4.76469 0
M  V30 8207 N 774.657 3.95881 3.99043 0
M  V30 8208 H 766.808 2.03015 0.624388 0
M  V30 8209 H 769.071 0.88576 0.337835 0
M  V30 8210 H 768.777 3.02847 1.78819 0
M  V30 8211 H 768.651 1.99538 3.201 0
M  V30 8212 H 771.038 1.12308 2.72893 0
M  V30 8213 H 771.119 2.19089 1.32037 0
M  V30 8214 H 770.763 4.20225 2.85261 0
M  V30 8215 H 770.693 3.10423 4.25377 0
M  V30 8216 H 773.184 2.54093 2.79724 0
M  V30 8217 H 773.497 5.64196 5.28112 0
M  V30 8218 H 771.842 5.06922 4.75453 0
M  V30 8219 H 775.033 3.20927 3.40769 0
M  V30 8220 H 775.206 4.62321 4.54052 0
M  V30 8221 N 768.612 -1.24939 0.960631 0
M  V30 8222 C 769.522 -2.29374 0.492435 0
M  V30 8223 C 770.538 -1.68262 -0.443154 0
M  V30 8224 O 771.714 -1.98875 -0.31793 0
M  V30 8225 C 768.779 -3.46023 -0.216626 0
M  V30 8226 C 767.84 -4.22557 0.757915 0
M  V30 8227 C 767.073 -5.33636 0.0825969 0
M  V30 8228 O 767.296 -5.59084 -1.13054 0
M  V30 8229 O 766.23 -5.96939 0.771177 0
M  V30 8230 H 770.056 -2.71525 1.36044 0
M  V30 8231 H 767.641 -1.30499 0.72735 0
M  V30 8232 H 769.523 -4.16885 -0.615241 0
M  V30 8233 H 768.198 -3.05862 -1.05971 0
M  V30 8234 H 767.105 -3.54099 1.20685 0
M  V30 8235 H 768.438 -4.66516 1.5692 0
M  V30 8236 N 770.09 -0.729906 -1.39679 0
M  V30 8237 C 771.338 -0.275077 -2.00219 0
M  V30 8238 C 771.659 1.1401 -1.58199 0
M  V30 8239 O 770.929 1.77546 -0.827904 0
M  V30 8240 H 769.509 -0.0987127 -0.740449 0
M  V30 8241 H 772.171 -0.93873 -1.70804 0
M  V30 8242 H 771.267 -0.319446 -3.10461 0
M  V30 8243 N 771.568 1.50203 -0.477153 0
M  V30 8244 C 772.817 2.01551 0.0774548 0
M  V30 8245 C 773.13 1.36359 1.40234 0
M  V30 8246 O 774.336 1.78898 2.04225 0
M  V30 8247 C 772.792 3.59406 0.188539 0
M  V30 8248 C 772.4 4.3356 -1.12828 0
M  V30 8249 C 774.144 4.18776 0.694782 0
M  V30 8250 C 772.051 5.83213 -0.98066 0
M  V30 8251 H 770.981 0.75329 0.0327212 0
M  V30 8252 H 773.632 1.72959 -0.612969 0
M  V30 8253 H 772.014 3.84611 0.942881 0
M  V30 8254 H 773.188 4.20074 -1.89405 0
M  V30 8255 H 771.503 3.85827 -1.5661 0
M  V30 8256 H 774.1 5.28338 0.822356 0
M  V30 8257 H 774.443 3.80557 1.68766 0
M  V30 8258 H 774.976 3.978 -0.00234519 0
M  V30 8259 H 771.715 6.25914 -1.94709 0
M  V30 8260 H 771.235 5.99256 -0.255375 0
M  V30 8261 H 772.914 6.4373 -0.649717 0
M  V30 8262 N 773.046 0.209999 1.56195 0
M  V30 8263 C 774.457 -0.299943 1.84275 0
M  V30 8264 C 774.808 -1.60314 1.1311 0
M  V30 8265 O 773.933 -2.1273 0.396874 0
M  V30 8266 C 774.528 -0.550986 3.3429 0
M  V30 8267 C 773.087 -1.00526 3.62728 0
M  V30 8268 C 772.234 -0.0619828 2.77231 0
M  V30 8269 H 775.185 0.433458 1.52666 0
M  V30 8270 H 775.206 -1.39846 3.53869 0
M  V30 8271 H 774.718 0.397669 3.86057 0
M  V30 8272 H 772.819 -1.96768 3.16407 0
M  V30 8273 H 772.932 -0.887664 4.70805 0
M  V30 8274 H 771.296 -0.566648 2.48317 0
M  V30 8275 H 772.079 0.881383 3.31793 0
M  V30 8276 N 774.524 -1.57472 -0.0634922 0
M  V30 8277 C 775.77 -1.88792 -0.756903 0
M  V30 8278 C 776.125 -0.804679 -1.74765 0
M  V30 8279 O 775.418 0.19033 -1.90652 0
M  V30 8280 C 775.612 -3.24521 -1.49736 0
M  V30 8281 C 775.441 -4.45946 -0.579833 0
M  V30 8282 C 774.211 -5.04848 -0.213667 0
M  V30 8283 C 776.409 -5.14143 0.12703 0
M  V30 8284 N 774.391 -6.09795 0.708712 0
M  V30 8285 C 775.762 -6.1334 0.906295 0
M  V30 8286 C 777.817 -4.97508 0.197625 0
M  V30 8287 C 776.52 -6.97697 1.74961 0
M  V30 8288 C 778.546 -5.82398 1.02794 0
M  V30 8289 C 777.908 -6.81139 1.79523 0
M  V30 8290 H 774.007 -0.740235 -0.252142 0
M  V30 8291 H 776.591 -1.94692 -0.0181026 0
M  V30 8292 H 774.762 -3.19615 -2.20683 0
M  V30 8293 H 776.494 -3.43464 -2.14044 0
M  V30 8294 H 773.249 -4.70177 -0.568357 0
M  V30 8295 H 773.673 -6.66929 1.16339 0
M  V30 8296 H 778.315 -4.21077 -0.381261 0
M  V30 8297 H 776.033 -7.73496 2.33943 0
M  V30 8298 H 779.619 -5.71581 1.08565 0
M  V30 8299 H 778.499 -7.45687 2.42736 0
M  V30 8300 N 776.003 0.335068 -1.53997 0
M  V30 8301 C 777.231 1.09418 -1.756 0
M  V30 8302 C 777.646 1.82083 -0.499138 0
M  V30 8303 O 777.003 1.74646 0.529631 0
M  V30 8304 C 777.054 2.10115 -2.94166 0
M  V30 8305 O 776.775 1.40404 -4.14992 0
M  V30 8306 C 778.276 2.98336 -3.27888 0
M  V30 8307 H 775.496 0.32595 -0.586513 0
M  V30 8308 H 778.04 0.384693 -2.00849 0
M  V30 8309 H 776.195 2.76616 -2.71224 0
M  V30 8310 H 776.609 2.07743 -4.81605 0
M  V30 8311 H 778.083 3.6491 -4.1418 0
M  V30 8312 H 778.56 3.64814 -2.44556 0
M  V30 8313 H 779.166 2.37412 -3.52868 0
M  V30 8314 N 777.481 1.45874 0.596531 0
M  V30 8315 C 778.728 1.50467 1.35521 0
M  V30 8316 C 779.056 0.150802 1.93915 0
M  V30 8317 O 778.311 -0.851913 1.76184 0
M  V30 8318 C 778.61 2.54034 2.51399 0
M  V30 8319 C 778.276 3.9844 2.11085 0
M  V30 8320 C 776.938 4.37758 1.99804 0
M  V30 8321 C 779.29 4.89209 1.79788 0
M  V30 8322 C 776.618 5.65727 1.55465 0
M  V30 8323 C 778.97 6.17602 1.36931 0
M  V30 8324 C 777.634 6.5584 1.24218 0
M  V30 8325 H 776.904 0.550597 0.495907 0
M  V30 8326 H 779.551 1.79279 0.673145 0
M  V30 8327 H 777.856 2.18832 3.24992 0
M  V30 8328 H 779.553 2.54822 3.09624 0
M  V30 8329 H 776.143 3.67353 2.20794 0
M  V30 8330 H 780.327 4.59562 1.87395 0
M  V30 8331 H 775.583 5.94139 1.44253 0
M  V30 8332 H 779.757 6.87373 1.11764 0
M  V30 8333 H 777.384 7.54897 0.896353 0
M  V30 8334 N 778.959 -0.83999 1.33349 0
M  V30 8335 C 779.889 -1.965 1.26135 0
M  V30 8336 C 780.87 -1.69505 0.142152 0
M  V30 8337 O 782.055 -1.91346 0.331743 0
M  V30 8338 C 779.185 -3.32632 0.99866 0
M  V30 8339 C 778.139 -3.74021 2.08068 0
M  V30 8340 C 777.465 -5.07947 1.67014 0
M  V30 8341 C 778.765 -3.87925 3.49731 0
M  V30 8342 H 780.459 -2.02793 2.20262 0
M  V30 8343 H 778.005 -0.974297 1.06035 0
M  V30 8344 H 779.958 -4.10903 0.934696 0
M  V30 8345 H 778.682 -3.26593 0.0217759 0
M  V30 8346 H 777.341 -2.98012 2.13505 0
M  V30 8347 H 776.989 -4.98378 0.680316 0
M  V30 8348 H 776.689 -5.36611 2.39422 0
M  V30 8349 H 778.213 -5.88695 1.62082 0
M  V30 8350 H 779.627 -4.5651 3.46802 0
M  V30 8351 H 778.024 -4.28023 4.20614 0
M  V30 8352 H 779.094 -2.90407 3.88319 0
M  V30 8353 N 780.437 -1.16799 -1.0581 0
M  V30 8354 C 781.714 -0.862616 -1.75551 0
M  V30 8355 C 782.094 0.6385 -2.01212 0
M  V30 8356 O 781.442 1.58784 -1.64317 0
M  V30 8357 C 781.652 -1.6907 -3.05314 0
M  V30 8358 C 783 -1.90675 -3.79379 0
M  V30 8359 O 784.024 -1.65976 -3.15167 0
M  V30 8360 O 782.883 -2.32145 -4.94743 0
M  V30 8361 H 779.977 -0.318789 -0.763088 0
M  V30 8362 H 782.523 -1.27461 -1.12034 0
M  V30 8363 H 781.295 -2.70912 -2.82352 0
M  V30 8364 H 780.918 -1.27606 -3.76567 0
M  V30 8365 N 781.915 1.24427 -0.967243 0
M  V30 8366 C 783.162 1.92487 -0.62888 0
M  V30 8367 C 783.49 1.75623 0.835871 0
M  V30 8368 O 782.745 1.1027 1.61675 0
M  V30 8369 C 783.044 3.44568 -0.949096 0
M  V30 8370 C 782.71 3.816 -2.40192 0
M  V30 8371 C 781.372 3.9142 -2.799 0
M  V30 8372 C 783.724 3.99715 -3.34481 0
M  V30 8373 C 781.052 4.16771 -4.12939 0
M  V30 8374 C 783.404 4.26562 -4.67148 0
M  V30 8375 C 782.068 4.34601 -5.06634 0
M  V30 8376 H 781.338 0.704361 -0.230124 0
M  V30 8377 H 783.985 1.4772 -1.21864 0
M  V30 8378 H 782.29 3.90819 -0.277085 0
M  V30 8379 H 783.987 3.95436 -0.665692 0
M  V30 8380 H 780.577 3.74522 -2.08402 0
M  V30 8381 H 784.761 3.91531 -3.04987 0
M  V30 8382 H 780.017 4.21214 -4.43158 0
M  V30 8383 H 784.191 4.39523 -5.40178 0
M  V30 8384 H 781.818 4.53998 -6.09746 0
M  V30 8385 N 783.393 0.737304 1.3929 0
M  V30 8386 C 784.641 0.285691 2.00071 0
M  V30 8387 C 784.962 -1.13169 1.58801 0
M  V30 8388 O 784.232 -1.77104 0.837308 0
M  V30 8389 H 782.812 0.102638 0.739915 0
M  V30 8390 H 785.474 0.947775 1.70303 0
M  V30 8391 H 784.57 0.335906 3.10287 0
M  V30 8392 N 784.871 -1.49948 0.485112 0
M  V30 8393 C 785.801 -2.31675 -0.291364 0
M  V30 8394 C 786.782 -1.39216 -0.977383 0
M  V30 8395 O 787.967 -1.68133 -0.971855 0
M  V30 8396 C 785.097 -3.19326 -1.36558 0
M  V30 8397 C 784.051 -4.2045 -0.800359 0
M  V30 8398 C 783.377 -4.96931 -1.97391 0
M  V30 8399 C 784.677 -5.21925 0.197867 0
M  V30 8400 H 786.371 -2.96839 0.390775 0
M  V30 8401 H 783.917 -1.42749 0.189375 0
M  V30 8402 H 785.87 -3.75304 -1.91638 0
M  V30 8403 H 784.594 -2.52074 -2.07668 0
M  V30 8404 H 783.253 -3.65594 -0.271428 0
M  V30 8405 H 782.901 -4.26141 -2.67232 0
M  V30 8406 H 782.601 -5.65344 -1.60187 0
M  V30 8407 H 784.125 -5.55749 -2.52935 0
M  V30 8408 H 785.539 -5.72691 -0.264239 0
M  V30 8409 H 783.936 -5.98138 0.484908 0
M  V30 8410 H 785.006 -4.71809 1.11912 0
M  V30 8411 N 786.349 -0.21828 -1.56081 0
M  V30 8412 C 787.626 0.463143 -1.90038 0
M  V30 8413 C 788.006 1.77982 -1.13515 0
M  V30 8414 O 787.354 2.27199 -0.24345 0
M  V30 8415 C 787.564 0.659292 -3.42716 0
M  V30 8416 C 788.912 0.968203 -4.13414 0
M  V30 8417 O 789.936 0.746195 -3.48296 0
M  V30 8418 O 788.795 1.38936 -5.28544 0
M  V30 8419 H 785.889 0.244435 -0.790051 0
M  V30 8420 H 788.435 -0.260221 -1.67693 0
M  V30 8421 H 787.207 -0.269584 -3.9037 0
M  V30 8422 H 786.83 1.43426 -3.7083 0
M  V30 8423 N 787.827 1.57504 0.0551401 0
M  V30 8424 C 788.757 2.07864 1.06372 0
M  V30 8425 C 789.738 0.975565 1.39344 0
M  V30 8426 O 790.923 1.24929 1.48682 0
M  V30 8427 C 788.053 2.53643 2.3724 0
M  V30 8428 C 787.007 3.67978 2.18578 0
M  V30 8429 C 786.333 3.9987 3.54976 0
M  V30 8430 C 787.633 4.97405 1.59329 0
M  V30 8431 H 789.327 2.92379 0.644595 0
M  V30 8432 H 786.873 1.40654 0.308619 0
M  V30 8433 H 788.826 2.8749 3.08103 0
M  V30 8434 H 787.55 1.66177 2.81163 0
M  V30 8435 H 786.209 3.3444 1.50152 0
M  V30 8436 H 785.857 3.0951 3.965 0
M  V30 8437 H 785.557 4.76867 3.43324 0
M  V30 8438 H 787.081 4.36228 4.27244 0
M  V30 8439 H 788.495 5.29375 2.20078 0
M  V30 8440 H 786.892 5.78837 1.58327 0
M  V30 8441 H 787.962 4.81697 0.55638 0
M  V30 8442 N 789.305 -0.326896 1.54172 0
M  V30 8443 C 790.237 -1.42319 1.79661 0
M  V30 8444 C 791.25 -1.47989 0.678456 0
M  V30 8445 O 792.439 -1.50773 0.955503 0
M  V30 8446 C 789.539 -2.80876 1.89636 0
M  V30 8447 C 788.712 -2.98449 3.19761 0
M  V30 8448 C 787.771 -4.17347 3.2048 0
M  V30 8449 O 786.797 -4.10667 3.94134 0
M  V30 8450 N 787.999 -5.26717 2.44027 0
M  V30 8451 H 790.764 -1.20819 2.74268 0
M  V30 8452 H 788.325 -0.516866 1.53428 0
M  V30 8453 H 790.317 -3.58619 1.87549 0
M  V30 8454 H 788.887 -2.95442 1.02141 0
M  V30 8455 H 788.107 -2.08035 3.34836 0
M  V30 8456 H 789.395 -3.07083 4.05681 0
M  V30 8457 H 788.793 -5.35019 1.8377 0
M  V30 8458 H 787.35 -6.02891 2.47721 0
M  V30 8459 N 790.784 -1.46188 -0.588786 0
M  V30 8460 C 792.195 -1.45421 -1.17088 0
M  V30 8461 C 792.546 -0.191801 -1.9526 0
M  V30 8462 O 791.671 0.705497 -2.04577 0
M  V30 8463 C 792.266 -2.63467 -2.13004 0
M  V30 8464 C 790.825 -2.6576 -2.6655 0
M  V30 8465 C 789.972 -2.38002 -1.42304 0
M  V30 8466 H 792.923 -1.54156 -0.377052 0
M  V30 8467 H 792.944 -2.38638 -2.96365 0
M  V30 8468 H 792.456 -3.55331 -1.56081 0
M  V30 8469 H 790.557 -1.77952 -3.27359 0
M  V30 8470 H 790.67 -3.65545 -3.09699 0
M  V30 8471 H 789.034 -1.87936 -1.71907 0
M  V30 8472 H 789.817 -3.32035 -0.872209 0
M  V30 8473 N 792.262 0.832906 -1.33792 0
M  V30 8474 C 793.502 1.60217 -1.26925 0
M  V30 8475 C 793.866 1.91323 0.161146 0
M  V30 8476 O 795.067 2.66461 0.353864 0
M  V30 8477 C 793.338 2.87314 -2.12568 0
M  V30 8478 S 794.897 3.77939 -2.22952 0
M  V30 8479 H 791.715 0.549273 -0.451464 0
M  V30 8480 H 794.317 0.984648 -1.68893 0
M  V30 8481 H 793.021 2.62444 -3.15518 0
M  V30 8482 H 792.552 3.5407 -1.71459 0
M  V30 8483 H 794.567 4.76188 -1.39496 0
M  V30 8484 N 793.74 1.17359 1.05189 0
M  V30 8485 C 794.989 0.956412 1.77583 0
M  V30 8486 C 795.302 -0.516018 1.88671 0
M  V30 8487 O 796.508 -0.851401 2.57805 0
M  V30 8488 C 794.964 1.66203 3.19225 0
M  V30 8489 C 794.572 3.17299 3.16267 0
M  V30 8490 C 796.316 1.52725 3.96075 0
M  V30 8491 C 794.223 3.8055 4.52698 0
M  V30 8492 H 793.153 0.354204 0.665624 0
M  V30 8493 H 795.804 1.40612 1.17901 0
M  V30 8494 H 794.186 1.14006 3.79234 0
M  V30 8495 H 795.36 3.76431 2.65776 0
M  V30 8496 H 793.675 3.3079 2.52917 0
M  V30 8497 H 796.272 1.97351 4.96947 0
M  V30 8498 H 796.615 0.477803 4.13549 0
M  V30 8499 H 797.148 2.02139 3.42614 0
M  V30 8500 H 793.887 4.85492 4.4043 0
M  V30 8501 H 793.407 3.26206 5.03339 0
M  V30 8502 H 795.086 3.82757 5.21638 0
M  V30 8503 N 795.218 -1.23913 0.973828 0
M  V30 8504 C 796.495 -1.87539 0.555729 0
M  V30 8505 C 796.875 -1.87641 -0.967162 0
M  V30 8506 O 796.223 -1.35335 -1.84111 0
M  V30 8507 C 796.433 -3.29359 1.15427 0
M  V30 8508 C 797.781 -4.06 1.24294 0
M  V30 8509 O 798.805 -3.38554 1.10723 0
M  V30 8510 O 797.664 -5.26689 1.45813 0
M  V30 8511 H 794.758 -0.805769 0.186188 0
M  V30 8512 H 797.304 -1.31838 1.06849 0
M  V30 8513 H 796.076 -3.23817 2.19678 0
M  V30 8514 H 795.699 -3.92642 0.625925 0
M  V30 8515 N 796.696 -0.74468 -1.38897 0
M  V30 8516 C 797.626 -0.126355 -2.33158 0
M  V30 8517 C 798.607 0.713517 -1.54412 0
M  V30 8518 O 799.792 0.656523 -1.82766 0
M  V30 8519 C 796.922 0.774375 -3.38557 0
M  V30 8520 C 795.876 0.0379214 -4.27983 0
M  V30 8521 C 795.202 1.05631 -5.24162 0
M  V30 8522 C 796.502 -1.12523 -5.10035 0
M  V30 8523 H 798.196 -0.913744 -2.85116 0
M  V30 8524 H 795.742 -0.440847 -1.37086 0
M  V30 8525 H 797.695 1.21655 -4.03458 0
M  V30 8526 H 796.419 1.59399 -2.85061 0
M  V30 8527 H 795.078 -0.384733 -3.64576 0
M  V30 8528 H 794.726 1.86975 -4.66958 0
M  V30 8529 H 794.426 0.568261 -5.84846 0
M  V30 8530 H 795.95 1.49799 -5.9194 0
M  V30 8531 H 797.364 -0.761037 -5.68226 0
M  V30 8532 H 795.761 -1.54355 -5.79909 0
M  V30 8533 H 796.831 -1.94237 -4.44297 0
M  V30 8534 N 798.174 1.49689 -0.493057 0
M  V30 8535 C 799.423 2.01622 0.0560733 0
M  V30 8536 C 799.736 1.37838 1.3878 0
M  V30 8537 O 800.942 1.81054 2.02316 0
M  V30 8538 C 799.398 3.59586 0.150409 0
M  V30 8539 C 799.006 4.32338 -1.1742 0
M  V30 8540 C 800.75 4.19489 0.650327 0
M  V30 8541 C 798.657 5.8214 -1.04246 0
M  V30 8542 H 797.587 0.753594 0.0247297 0
M  V30 8543 H 800.238 1.723 -0.631279 0
M  V30 8544 H 798.62 3.8559 0.902035 0
M  V30 8545 H 799.794 4.18042 -1.9385 0
M  V30 8546 H 798.109 3.84144 -1.60694 0
M  V30 8547 H 800.706 5.29181 0.766272 0
M  V30 8548 H 801.049 3.82326 1.6472 0
M  V30 8549 H 801.582 3.97775 -0.0445371 0
M  V30 8550 H 798.321 6.23814 -2.01336 0
M  V30 8551 H 797.841 5.98952 -0.31892 0
M  V30 8552 H 799.52 6.43004 -0.717957 0
M  V30 8553 N 799.652 0.226554 1.55963 0
M  V30 8554 C 800.562 -0.692725 2.24139 0
M  V30 8555 C 801.578 -1.20971 1.25068 0
M  V30 8556 O 802.754 -1.25027 1.57893 0
M  V30 8557 C 799.819 -1.88183 2.91184 0
M  V30 8558 C 798.88 -1.40633 4.05612 0
M  V30 8559 C 798.113 -2.53875 4.6945 0
M  V30 8560 O 798.336 -3.72129 4.32292 0
M  V30 8561 O 797.27 -2.24792 5.58348 0
M  V30 8562 H 801.096 -0.141921 3.03368 0
M  V30 8563 H 798.681 -0.0041049 1.49399 0
M  V30 8564 H 800.563 -2.57617 3.33484 0
M  V30 8565 H 799.238 -2.42064 2.14911 0
M  V30 8566 H 798.145 -0.67986 3.67871 0
M  V30 8567 H 799.478 -0.913838 4.83642 0
M  V30 8568 N 801.13 -1.57531 -0.0467866 0
M  V30 8569 C 802.546 -1.54451 -0.402107 0
M  V30 8570 C 802.746 -0.950275 -1.77685 0
M  V30 8571 O 801.802 -0.563602 -2.4613 0
M  V30 8572 C 803.115 -2.9899 -0.320212 0
M  V30 8573 C 804.663 -3.10452 -0.398588 0
M  V30 8574 C 805.138 -4.56689 -0.346335 0
M  V30 8575 N 806.629 -4.6142 -0.405666 0
M  V30 8576 C 807.364 -5.72087 -0.387845 0
M  V30 8577 N 806.86 -6.92045 -0.32336 0
M  V30 8578 N 808.653 -5.60404 -0.436263 0
M  V30 8579 H 800.804 -1.94515 0.853087 0
M  V30 8580 H 803.067 -0.891397 0.322669 0
M  V30 8581 H 802.773 -3.46124 0.623794 0
M  V30 8582 H 802.647 -3.60164 -1.1208 0
M  V30 8583 H 805.034 -2.63276 -1.33302 0
M  V30 8584 H 805.115 -2.52142 0.431026 0
M  V30 8585 H 804.759 -5.04527 0.584356 0
M  V30 8586 H 804.689 -5.12889 -1.19382 0
M  V30 8587 H 807.18 -3.75105 -0.458737 0
M  V30 8588 H 807.493 -7.7216 -0.314375 0
M  V30 8589 H 805.838 -6.94396 -0.28967 0
M  V30 8590 H 809.029 -4.65586 -0.48451 0
M  V30 8591 H 809.202 -6.46645 -0.418907 0
M  V30 8592 N 802.608 0.318715 -1.54344 0
M  V30 8593 C 804.019 0.89285 -1.63967 0
M  V30 8594 C 804.37 1.88712 -0.536855 0
M  V30 8595 O 803.495 2.13877 0.329457 0
M  V30 8596 C 804.09 1.62618 -2.97222 0
M  V30 8597 C 802.649 2.14897 -3.09025 0
M  V30 8598 C 801.796 0.975909 -2.5956 0
M  V30 8599 H 804.747 0.0961687 -1.58408 0
M  V30 8600 H 804.768 2.4907 -2.87653 0
M  V30 8601 H 804.28 0.902286 -3.77466 0
M  V30 8602 H 802.381 2.90387 -2.33465 0
M  V30 8603 H 802.494 2.39565 -4.14904 0
M  V30 8604 H 800.858 1.35646 -2.15574 0
M  V30 8605 H 801.641 0.266253 -3.42266 0
M  V30 8606 N 804.086 1.46499 0.581025 0
M  V30 8607 C 805.049 1.5677 1.672 0
M  V30 8608 C 806.049 0.444716 1.54528 0
M  V30 8609 O 807.239 0.709074 1.59116 0
M  V30 8610 C 804.371 1.4896 3.06633 0
M  V30 8611 H 805.564 2.54 1.5945 0
M  V30 8612 H 803.117 1.34334 0.799003 0
M  V30 8613 H 803.852 0.530168 3.19937 0
M  V30 8614 H 803.637 2.30439 3.17239 0
M  V30 8615 H 805.127 1.59237 3.86048 0
M  V30 8616 N 805.565 -0.825799 1.34232 0
M  V30 8617 C 806.513 -1.95792 1.25572 0
M  V30 8618 C 807.507 -1.68695 0.154404 0
M  V30 8619 O 808.713 -1.77147 0.319196 0
M  V30 8620 H 805.088 -0.642949 0.390027 0
M  V30 8621 H 807.059 -2.00219 2.21258 0
M  V30 8622 C 805.808 -3.32245 1.02511 0
M  V30 8623 H 805.131 -3.53642 1.86487 0
M  V30 8624 H 806.571 -4.1192 1.00487 0
M  V30 8625 C 805.03 -3.35803 -0.27167 0
M  V30 8626 O 805.56 -3.80962 -1.274 0
M  V30 8627 N 803.766 -2.89008 -0.303778 0
M  V30 8628 H 803.313 -2.52451 0.512464 0
M  V30 8629 H 803.271 -2.9177 -1.17121 0
M  V30 8630 N 807.043 -1.17915 -1.04565 0
M  V30 8631 C 808.454 -0.976383 -1.59134 0
M  V30 8632 C 808.805 0.475267 -1.90357 0
M  V30 8633 O 807.93 1.35172 -1.6899 0
M  V30 8634 C 808.525 -1.76604 -2.89131 0
M  V30 8635 C 807.084 -1.60777 -3.40335 0
M  V30 8636 C 806.231 -1.76369 -2.13985 0
M  V30 8637 H 809.182 -1.32532 -0.872985 0
M  V30 8638 H 809.203 -1.25215 -3.59307 0
M  V30 8639 H 808.715 -2.82252 -2.66375 0
M  V30 8640 H 806.816 -0.576436 -3.68114 0
M  V30 8641 H 806.929 -2.40268 -4.14497 0
M  V30 8642 H 805.293 -1.19268 -2.25049 0
M  V30 8643 H 806.076 -2.83441 -1.9369 0
M  V30 8644 N 808.521 1.23394 -0.980386 0
M  V30 8645 C 809.932 1.73631 -0.686239 0
M  V30 8646 C 810.283 1.79259 0.797541 0
M  V30 8647 O 809.408 1.43046 1.62379 0
M  V30 8648 C 810.003 3.15332 -1.239 0
M  V30 8649 C 808.562 3.63024 -0.994494 0
M  V30 8650 C 807.709 2.41279 -1.36673 0
M  V30 8651 H 810.66 1.08918 -1.15423 0
M  V30 8652 H 810.681 3.75556 -0.611414 0
M  V30 8653 H 810.193 3.11204 -2.31892 0
M  V30 8654 H 808.294 3.72535 0.0693492 0
M  V30 8655 H 808.407 4.49825 -1.64906 0
M  V30 8656 H 806.771 2.42295 -0.785195 0
M  V30 8657 H 807.554 2.39822 -2.45642 0
M  V30 8658 N 809.999 0.752036 1.385 0
M  V30 8659 C 811.247 0.306895 1.99756 0
M  V30 8660 C 811.568 -1.11478 1.59992 0
M  V30 8661 O 810.838 -1.76206 0.856045 0
M  V30 8662 H 809.418 0.11048 0.738785 0
M  V30 8663 H 812.08 0.965785 1.69289 0
M  V30 8664 H 811.176 0.368797 3.09913 0
M  V30 8665 N 811.477 -1.49425 0.500989 0
M  V30 8666 C 812.407 -2.31971 -0.266775 0
M  V30 8667 C 813.388 -1.40245 -0.962563 0
M  V30 8668 O 814.573 -1.69154 -0.953968 0
M  V30 8669 C 811.703 -3.20757 -1.33163 0
M  V30 8670 C 810.657 -4.21275 -0.75572 0
M  V30 8671 C 809.983 -4.98997 -1.92109 0
M  V30 8672 C 811.283 -5.21686 0.253213 0
M  V30 8673 H 812.977 -2.96408 0.422237 0
M  V30 8674 H 810.523 -1.4254 0.204505 0
M  V30 8675 H 812.476 -3.77315 -1.87646 0
M  V30 8676 H 811.2 -2.54263 -2.04983 0
M  V30 8677 H 809.859 -3.65861 -0.232637 0
M  V30 8678 H 809.507 -4.28951 -2.62698 0
M  V30 8679 H 809.207 -5.67011 -1.54182 0
M  V30 8680 H 810.731 -5.584 -2.47026 0
M  V30 8681 H 812.145 -5.72939 -0.203483 0
M  V30 8682 H 810.542 -5.9759 0.548322 0
M  V30 8683 H 811.612 -4.70596 1.16909 0
M  V30 8684 N 812.955 -0.234822 -1.55841 0
M  V30 8685 C 813.885 0.664217 -2.23854 0
M  V30 8686 C 814.866 1.19076 -1.2147 0
M  V30 8687 O 816.051 1.23232 -1.50091 0
M  V30 8688 C 813.181 1.86666 -2.9287 0
M  V30 8689 C 812.135 1.47341 -4.01839 0
M  V30 8690 C 811.461 2.75571 -4.58219 0
M  V30 8691 C 812.761 0.653479 -5.18196 0
M  V30 8692 H 814.455 0.0971213 -2.99242 0
M  V30 8693 H 812.001 0.0452724 -1.43929 0
M  V30 8694 H 813.954 2.50116 -3.39146 0
M  V30 8695 H 812.678 2.45894 -2.1495 0
M  V30 8696 H 811.337 0.862314 -3.56314 0
M  V30 8697 H 810.985 3.32971 -3.77014 0
M  V30 8698 H 810.685 2.49987 -5.31771 0
M  V30 8699 H 812.209 3.39939 -5.07221 0
M  V30 8700 H 813.623 1.19198 -5.60771 0
M  V30 8701 H 812.02 0.494188 -5.98062 0
M  V30 8702 H 813.09 -0.337004 -4.83728 0
M  V30 8703 N 814.433 1.57553 0.0384317 0
M  V30 8704 C 815.396 2.04927 1.02653 0
M  V30 8705 C 816.396 0.951768 1.29607 0
M  V30 8706 O 817.586 1.21568 1.24768 0
M  V30 8707 C 814.718 2.45828 2.36181 0
M  V30 8708 H 815.911 2.93474 0.617508 0
M  V30 8709 H 813.464 1.53679 0.285031 0
M  V30 8710 H 814.199 1.60408 2.8185 0
M  V30 8711 H 813.984 3.25945 2.1795 0
M  V30 8712 H 815.474 2.82939 3.0714 0
M  V30 8713 N 815.911 -0.310526 1.54511 0
M  V30 8714 C 816.841 -1.38757 1.878 0
M  V30 8715 C 817.822 -1.53353 0.735991 0
M  V30 8716 O 819.007 -1.67018 0.990887 0
M  V30 8717 C 816.137 -2.75327 2.11689 0
M  V30 8718 C 815.091 -2.75506 3.27537 0
M  V30 8719 C 814.417 -4.15275 3.36824 0
M  V30 8720 C 815.717 -2.38093 4.64875 0
M  V30 8721 H 817.411 -1.11146 2.78005 0
M  V30 8722 H 814.957 -0.533232 1.33763 0
M  V30 8723 H 816.91 -3.50752 2.33562 0
M  V30 8724 H 815.634 -3.04443 1.18245 0
M  V30 8725 H 814.293 -2.02538 3.05572 0
M  V30 8726 H 813.941 -4.41553 2.40915 0
M  V30 8727 H 813.641 -4.16299 4.14692 0
M  V30 8728 H 815.165 -4.92493 3.60947 0
M  V30 8729 H 816.579 -3.03232 4.86542 0
M  V30 8730 H 814.976 -2.50345 5.45387 0
M  V30 8731 H 816.046 -1.33227 4.66239 0
M  V30 8732 N 817.389 -1.46805 -0.573248 0
M  V30 8733 C 818.319 -1.60951 -1.69165 0
M  V30 8734 C 819.3 -0.45948 -1.63777 0
M  V30 8735 O 820.485 -0.68688 -1.81647 0
M  V30 8736 C 817.615 -1.60844 -3.07809 0
M  V30 8737 C 816.569 -2.74913 -3.28035 0
M  V30 8738 C 815.895 -2.59871 -4.67302 0
M  V30 8739 C 817.195 -4.16654 -3.14955 0
M  V30 8740 H 818.889 -2.54574 -1.57582 0
M  V30 8741 H 816.435 -1.22516 -0.756686 0
M  V30 8742 H 818.388 -1.69334 -3.85881 0
M  V30 8743 H 817.112 -0.637714 -3.20314 0
M  V30 8744 H 815.771 -2.65908 -2.52366 0
M  V30 8745 H 815.419 -1.60861 -4.76585 0
M  V30 8746 H 815.119 -3.36386 -4.81786 0
M  V30 8747 H 816.643 -2.70265 -5.4753 0
M  V30 8748 H 818.057 -4.26721 -3.82861 0
M  V30 8749 H 816.454 -4.93831 -3.40956 0
M  V30 8750 H 817.524 -4.36146 -2.11908 0
M  V30 8751 N 818.867 0.818669 -1.34668 0
M  V30 8752 C 820.144 1.56118 -1.17841 0
M  V30 8753 C 820.524 2.09646 0.24731 0
M  V30 8754 O 819.872 1.91329 1.24922 0
M  V30 8755 C 820.082 2.67922 -2.23649 0
M  V30 8756 C 821.43 3.36579 -2.58843 0
M  V30 8757 O 822.454 2.78182 -2.22471 0
M  V30 8758 O 821.313 4.42045 -3.21339 0
M  V30 8759 H 818.407 0.689216 -0.457067 0
M  V30 8760 H 820.953 0.859674 -1.46314 0
M  V30 8761 H 819.725 2.26153 -3.19328 0
M  V30 8762 H 819.348 3.45719 -1.96377 0
M  V30 8763 N 820.346 1.18468 1.03938 0
M  V30 8764 C 821.256 0.927889 2.1547 0
M  V30 8765 C 822.272 -0.108447 1.73662 0
M  V30 8766 O 823.448 0.0737636 2.01265 0
M  V30 8767 C 820.513 0.458494 3.43655 0
M  V30 8768 C 819.574 1.56295 3.99838 0
M  V30 8769 C 818.807 1.11586 5.21904 0
M  V30 8770 O 819.03 -0.0249057 5.70395 0
M  V30 8771 O 817.964 1.91412 5.70653 0
M  V30 8772 H 821.79 1.86116 2.39989 0
M  V30 8773 H 819.375 0.966607 1.13917 0
M  V30 8774 H 821.257 0.204861 4.20902 0
M  V30 8775 H 819.932 -0.446464 3.20606 0
M  V30 8776 H 818.839 1.87061 3.23974 0
M  V30 8777 H 820.172 2.44408 4.2723 0
M  V30 8778 N 821.824 -1.22873 0.986916 0
M  V30 8779 C 822.734 -2.28277 0.540978 0
M  V30 8780 C 823.75 -1.69164 -0.407363 0
M  V30 8781 O 824.926 -1.99504 -0.275674 0
M  V30 8782 C 821.991 -3.46404 -0.143181 0
M  V30 8783 C 821.052 -4.20854 0.847375 0
M  V30 8784 C 820.285 -5.33341 0.19577 0
M  V30 8785 O 820.508 -5.61356 -1.0117 0
M  V30 8786 O 819.442 -5.95169 0.897623 0
M  V30 8787 H 823.268 -2.68578 1.41773 0
M  V30 8788 H 820.853 -1.28927 0.754867 0
M  V30 8789 H 822.735 -4.18096 -0.526676 0
M  V30 8790 H 821.41 -3.08041 -0.994593 0
M  V30 8791 H 820.317 -3.51459 1.28169 0
M  V30 8792 H 821.65 -4.63082 1.6678 0
M  V30 8793 N 823.302 -0.75937 -1.38099 0
M  V30 8794 C 824.542 -0.323116 -2.0183 0
M  V30 8795 C 824.906 1.07658 -1.58977 0
M  V30 8796 O 826.107 1.61227 -2.1508 0
M  V30 8797 C 824.378 -0.448234 -3.54578 0
M  V30 8798 S 825.937 -0.0954152 -4.38696 0
M  V30 8799 H 822.755 -0.125013 -0.699923 0
M  V30 8800 H 825.357 -0.991262 -1.68506 0
M  V30 8801 H 824.061 -1.46778 -3.83255 0
M  V30 8802 H 823.592 0.236895 -3.92686 0
M  V30 8803 H 825.607 1.11312 -4.83554 0
M  V30 8804 N 824.78 1.49157 -0.508906 0
M  V30 8805 C 826.026 2.03385 0.0248089 0
M  V30 8806 C 826.381 1.381 1.33964 0
M  V30 8807 O 825.674 0.510317 1.84679 0
M  V30 8808 C 825.868 3.56687 0.225717 0
M  V30 8809 C 825.697 4.36832 -1.06809 0
M  V30 8810 C 824.467 4.78556 -1.6221 0
M  V30 8811 C 826.665 4.74934 -1.97338 0
M  V30 8812 N 824.647 5.43158 -2.86098 0
M  V30 8813 C 826.018 5.39336 -3.05805 0
M  V30 8814 C 828.073 4.56872 -1.97921 0
M  V30 8815 C 826.776 5.87587 -4.1489 0
M  V30 8816 C 828.802 5.06089 -3.05987 0
M  V30 8817 C 828.164 5.70499 -4.13172 0
M  V30 8818 H 824.263 0.781349 -0.0318988 0
M  V30 8819 H 826.847 1.82233 -0.685518 0
M  V30 8820 H 825.018 3.77707 0.905108 0
M  V30 8821 H 826.75 3.97554 0.757147 0
M  V30 8822 H 823.505 4.59017 -1.16621 0
M  V30 8823 H 823.929 5.8004 -3.49116 0
M  V30 8824 H 828.571 4.06474 -1.16357 0
M  V30 8825 H 826.289 6.37002 -4.97247 0
M  V30 8826 H 829.875 4.93919 -3.07466 0
M  V30 8827 H 828.755 6.07893 -4.95415 0
M  V30 8828 N 826.258 0.243083 1.55714 0
M  V30 8829 C 827.505 -0.38272 1.9885 0
M  V30 8830 C 827.833 -1.58225 1.13115 0
M  V30 8831 O 827.088 -1.94861 0.181067 0
M  V30 8832 C 827.387 -0.839621 3.47398 0
M  V30 8833 C 827.053 0.251737 4.50197 0
M  V30 8834 C 825.715 0.551487 4.78029 0
M  V30 8835 C 828.067 0.988728 5.11736 0
M  V30 8836 C 825.395 1.59237 5.64677 0
M  V30 8837 C 827.747 2.0191 5.99512 0
M  V30 8838 C 826.411 2.32554 6.2568 0
M  V30 8839 H 825.681 -0.140047 0.727645 0
M  V30 8840 H 828.328 0.35011 1.88272 0
M  V30 8841 H 826.633 -1.65159 3.55288 0
M  V30 8842 H 828.33 -1.33404 3.78159 0
M  V30 8843 H 824.92 0.00796741 4.28599 0
M  V30 8844 H 829.104 0.7704 4.90284 0
M  V30 8845 H 824.36 1.83517 5.83208 0
M  V30 8846 H 828.534 2.59511 6.46241 0
M  V30 8847 H 826.161 3.13349 6.92616 0
M  V30 8848 N 827.736 -1.57571 -0.0300757 0
M  V30 8849 C 829.147 -1.77567 -0.576802 0
M  V30 8850 C 829.498 -0.874034 -1.75656 0
M  V30 8851 O 828.623 -0.0686124 -2.16291 0
M  V30 8852 C 829.218 -3.22016 -1.05315 0
M  V30 8853 C 827.777 -3.43212 -1.5454 0
M  V30 8854 C 826.924 -2.73061 -0.483033 0
M  V30 8855 H 829.875 -1.57483 0.196151 0
M  V30 8856 H 829.896 -3.28474 -1.92055 0
M  V30 8857 H 829.408 -3.87613 -0.194298 0
M  V30 8858 H 827.509 -2.82788 -2.42615 0
M  V30 8859 H 827.622 -4.5182 -1.5936 0
M  V30 8860 H 825.986 -2.36805 -0.937835 0
M  V30 8861 H 826.769 -3.4134 0.366341 0
M  V30 8862 N 829.214 0.302327 -1.54673 0
M  V30 8863 C 830.161 1.37282 -1.85532 0
M  V30 8864 C 831.131 1.50437 -0.704129 0
M  V30 8865 O 832.316 1.65317 -0.952627 0
M  V30 8866 C 829.456 2.73309 -2.10704 0
M  V30 8867 C 828.569 2.68614 -3.38335 0
M  V30 8868 C 827.704 3.96626 -3.53357 0
M  V30 8869 C 826.743 3.86324 -4.74784 0
M  V30 8870 N 825.88 5.06109 -4.86619 0
M  V30 8871 H 830.72 1.10265 -2.76849 0
M  V30 8872 H 828.257 0.533346 -1.37091 0
M  V30 8873 H 830.215 3.52414 -2.23294 0
M  V30 8874 H 828.845 2.98589 -1.22656 0
M  V30 8875 H 827.897 1.81381 -3.34373 0
M  V30 8876 H 829.209 2.56891 -4.27561 0
M  V30 8877 H 828.363 4.84168 -3.65604 0
M  V30 8878 H 827.102 4.11182 -2.62261 0
M  V30 8879 H 826.107 2.97166 -4.62572 0
M  V30 8880 H 827.332 3.73315 -5.67286 0
M  V30 8881 H 825.278 5.2113 -3.98446 0
M  V30 8882 H 825.195 4.96804 -5.69844 0
M  V30 8883 H 826.463 5.95306 -5.03221 0
M  V30 8884 N 830.692 1.47107 0.565454 0
M  V30 8885 C 831.655 1.58535 1.65527 0
M  V30 8886 C 832.655 0.461081 1.54048 0
M  V30 8887 O 833.845 0.725911 1.58355 0
M  V30 8888 C 830.977 1.52204 3.05036 0
M  V30 8889 H 832.17 2.55676 1.56747 0
M  V30 8890 H 829.723 1.35174 0.78471 0
M  V30 8891 H 830.458 0.564071 3.19357 0
M  V30 8892 H 830.243 2.3379 3.14777 0
M  V30 8893 H 831.733 1.63322 3.84338 0
M  V30 8894 N 832.17 -0.811516 1.35101 0
M  V30 8895 C 833.398 -1.59981 1.31201 0
M  V30 8896 C 833.813 -1.8847 -0.111552 0
M  V30 8897 O 833.17 -1.48414 -1.06205 0
M  V30 8898 C 833.221 -2.934 2.11184 0
M  V30 8899 O 832.942 -2.66148 3.4799 0
M  V30 8900 C 834.443 -3.87776 2.14813 0
M  V30 8901 H 831.663 -0.496921 0.450899 0
M  V30 8902 H 834.207 -1.00886 1.77883 0
M  V30 8903 H 832.362 -3.49022 1.68115 0
M  V30 8904 H 832.776 -3.51301 3.89471 0
M  V30 8905 H 834.25 -4.7852 2.75178 0
M  V30 8906 H 834.727 -4.23997 1.14556 0
M  V30 8907 H 835.333 -3.3809 2.58022 0
M  V30 8908 N 833.648 -1.19017 -1.03309 0
M  V30 8909 C 834.925 -0.899659 -1.73682 0
M  V30 8910 C 835.305 0.595677 -2.02521 0
M  V30 8911 O 834.653 1.55263 -1.67648 0
M  V30 8912 C 834.863 -1.75508 -3.01659 0
M  V30 8913 C 836.211 -1.98679 -3.75249 0
M  V30 8914 O 837.235 -1.72624 -3.11576 0
M  V30 8915 O 836.094 -2.42587 -4.89708 0
M  V30 8916 H 833.188 -0.334903 -0.756154 0
M  V30 8917 H 835.734 -1.29809 -1.09305 0
M  V30 8918 H 834.506 -2.7684 -2.76542 0
M  V30 8919 H 834.129 -1.35565 -3.73775 0
M  V30 8920 N 835.127 1.22348 -0.993418 0
M  V30 8921 C 836.074 2.24294 -0.544118 0
M  V30 8922 C 837.044 1.60602 0.42381 0
M  V30 8923 O 838.229 1.87952 0.328453 0
M  V30 8924 C 835.369 3.44837 0.134578 0
M  V30 8925 C 834.482 4.23043 -0.875151 0
M  V30 8926 C 833.617 5.30928 -0.169919 0
M  V30 8927 C 832.656 6.00853 -1.16798 0
M  V30 8928 N 831.793 7.00381 -0.491021 0
M  V30 8929 H 836.633 2.6209 -1.4182 0
M  V30 8930 H 834.17 1.2881 -0.710384 0
M  V30 8931 H 836.128 4.13625 0.544998 0
M  V30 8932 H 834.758 3.07804 0.972446 0
M  V30 8933 H 833.81 3.53546 -1.40389 0
M  V30 8934 H 835.122 4.71237 -1.63516 0
M  V30 8935 H 834.276 6.05972 0.297205 0
M  V30 8936 H 833.015 4.8371 0.622586 0
M  V30 8937 H 832.02 5.24591 -1.64573 0
M  V30 8938 H 833.245 6.50159 -1.96137 0
M  V30 8939 H 831.191 6.55393 0.282037 0
M  V30 8940 H 831.108 7.46584 -1.18947 0
M  V30 8941 H 832.376 7.79486 -0.0467169 0
M  V30 8942 N 836.605 0.766683 1.37694 0
M  V30 8943 C 837.83 0.338715 2.04615 0
M  V30 8944 C 838.255 -1.02918 1.57447 0
M  V30 8945 O 837.613 -1.65849 0.732386 0
M  V30 8946 C 837.661 0.385284 3.58536 0
M  V30 8947 O 836.765 -0.616081 4.07772 0
M  V30 8948 H 836.106 0.147527 0.647404 0
M  V30 8949 H 838.636 1.04146 1.7611 0
M  V30 8950 H 838.646 0.240782 4.07289 0
M  V30 8951 H 837.321 1.38325 3.92223 0
M  V30 8952 H 835.898 -0.435115 3.70353 0
M  V30 8953 N 838.083 -1.48885 0.516809 0
M  V30 8954 C 839.33 -2.02488 -0.0220602 0
M  V30 8955 C 839.658 -1.39513 -1.35523 0
M  V30 8956 O 838.913 -0.52558 -1.8851 0
M  V30 8957 C 839.212 -3.56801 -0.206798 0
M  V30 8958 C 838.878 -4.38496 1.05035 0
M  V30 8959 C 837.54 -4.60538 1.39492 0
M  V30 8960 C 839.892 -4.85909 1.88525 0
M  V30 8961 C 837.22 -5.2724 2.57361 0
M  V30 8962 C 839.572 -5.53909 3.05561 0
M  V30 8963 C 838.236 -5.74193 3.4038 0
M  V30 8964 H 837.506 -0.740956 -0.00807238 0
M  V30 8965 H 840.153 -1.79014 0.680168 0
M  V30 8966 H 838.458 -3.79042 -0.991687 0
M  V30 8967 H 840.155 -3.95885 -0.638447 0
M  V30 8968 H 836.745 -4.2159 0.771984 0
M  V30 8969 H 840.929 -4.68694 1.63218 0
M  V30 8970 H 836.185 -5.41145 2.84556 0
M  V30 8971 H 840.359 -5.89619 3.7057 0
M  V30 8972 H 837.986 -6.25652 4.31814 0
M  V30 8973 N 839.561 -0.251338 -1.55583 0
M  V30 8974 C 840.807 0.37272 -1.99346 0
M  V30 8975 C 841.14 1.57266 -1.13934 0
M  V30 8976 O 840.415 1.9343 -0.20377 0
M  V30 8977 C 840.698 0.778245 -3.5159 0
M  V30 8978 C 840.551 -0.427394 -4.47765 0
M  V30 8979 C 841.87 1.62358 -4.09057 0
M  V30 8980 H 838.989 0.134002 -0.724715 0
M  V30 8981 H 841.631 -0.353536 -1.86682 0
M  V30 8982 H 839.781 1.39704 -3.62512 0
M  V30 8983 H 841.453 -1.06586 -4.48818 0
M  V30 8984 H 839.696 -1.06972 -4.20404 0
M  V30 8985 H 840.367 -0.10025 -5.51909 0
M  V30 8986 H 842.843 1.1012 -4.01264 0
M  V30 8987 H 841.719 1.87617 -5.1584 0
M  V30 8988 H 841.98 2.59688 -3.57791 0
M  V30 8989 N 841.039 1.57585 0.0217189 0
M  V30 8990 C 841.949 2.10444 1.03684 0
M  V30 8991 C 842.965 1.04472 1.39146 0
M  V30 8992 O 844.141 1.36249 1.48317 0
M  V30 8993 C 841.206 2.5794 2.31664 0
M  V30 8994 C 840.267 3.78425 2.02714 0
M  V30 8995 C 839.5 4.23646 3.24592 0
M  V30 8996 O 839.723 3.6834 4.35525 0
M  V30 8997 O 838.657 5.16013 3.09862 0
M  V30 8998 H 842.483 2.97354 0.617584 0
M  V30 8999 H 840.068 1.47473 0.239174 0
M  V30 9000 H 841.95 2.88785 3.06889 0
M  V30 9001 H 840.625 1.74138 2.7287 0
M  V30 9002 H 839.532 3.52587 1.25033 0
M  V30 9003 H 840.865 4.63234 1.66359 0
M  V30 9004 N 842.517 -0.29412 1.54831 0
M  V30 9005 C 843.464 -1.36296 1.86258 0
M  V30 9006 C 844.434 -1.50061 0.712097 0
M  V30 9007 O 845.619 -1.64809 0.961381 0
M  V30 9008 C 842.759 -2.72187 2.12151 0
M  V30 9009 C 841.872 -2.66816 3.39755 0
M  V30 9010 C 841.007 -3.94747 3.55455 0
M  V30 9011 C 840.046 -3.838 4.76827 0
M  V30 9012 N 839.183 -5.03521 4.89296 0
M  V30 9013 H 844.023 -1.08796 2.7743 0
M  V30 9014 H 841.56 -0.526069 1.37371 0
M  V30 9015 H 843.518 -3.51225 2.25159 0
M  V30 9016 H 842.148 -2.97934 1.24237 0
M  V30 9017 H 841.2 -1.79605 3.3533 0
M  V30 9018 H 842.512 -2.5462 4.28917 0
M  V30 9019 H 841.666 -4.82223 3.68166 0
M  V30 9020 H 840.405 -4.09785 2.64438 0
M  V30 9021 H 839.41 -2.94708 4.64141 0
M  V30 9022 H 840.635 -3.70301 5.69258 0
M  V30 9023 H 838.581 -5.1901 4.01204 0
M  V30 9024 H 838.498 -4.93775 5.72471 0
M  V30 9025 H 839.766 -5.92629 5.06371 0
M  V30 9026 N 843.995 -1.47404 -0.557645 0
M  V30 9027 C 845.241 -1.54235 -1.31679 0
M  V30 9028 C 845.574 -0.203782 -1.93128 0
M  V30 9029 O 844.849 0.787536 -1.77843 0
M  V30 9030 C 845.132 -2.66003 -2.42723 0
M  V30 9031 C 844.985 -4.09475 -1.86145 0
M  V30 9032 C 846.304 -2.73685 -3.44652 0
M  V30 9033 H 843.423 -0.561466 -0.477415 0
M  V30 9034 H 846.065 -1.79459 -0.624067 0
M  V30 9035 H 844.215 -2.44627 -3.01811 0
M  V30 9036 H 845.887 -4.42213 -1.31321 0
M  V30 9037 H 844.13 -4.17774 -1.16823 0
M  V30 9038 H 844.801 -4.83451 -2.66418 0
M  V30 9039 H 847.277 -2.92968 -2.95481 0
M  V30 9040 H 846.153 -3.53665 -4.19777 0
M  V30 9041 H 846.414 -1.80726 -4.03473 0
M  V30 9042 N 845.473 0.80434 -1.35529 0
M  V30 9043 C 846.436 1.89788 -1.28503 0
M  V30 9044 C 847.436 1.59601 -0.195983 0
M  V30 9045 O 848.626 1.68292 -0.449827 0
M  V30 9046 C 845.758 3.26255 -0.98847 0
M  V30 9047 H 846.951 1.97436 -2.25741 0
M  V30 9048 H 844.504 1.00046 -1.20086 0
M  V30 9049 H 845.239 3.24294 -0.0200541 0
M  V30 9050 H 845.024 3.49551 -1.77641 0
M  V30 9051 H 846.514 4.06298 -0.964975 0
M  V30 9052 N 846.951 1.19563 1.02676 0
M  V30 9053 C 847.883 0.893054 2.11086 0
M  V30 9054 C 848.896 -0.115101 1.62393 0
M  V30 9055 O 850.085 0.11459 1.78132 0
M  V30 9056 C 847.185 0.315533 3.37428 0
M  V30 9057 C 846.358 1.37276 4.153 0
M  V30 9058 C 845.417 0.808398 5.19953 0
M  V30 9059 O 844.443 1.48661 5.49444 0
M  V30 9060 N 845.645 -0.387253 5.79207 0
M  V30 9061 H 848.41 1.82622 2.37633 0
M  V30 9062 H 845.971 1.09792 1.18984 0
M  V30 9063 H 847.963 -0.0759166 4.04629 0
M  V30 9064 H 846.533 -0.521961 3.08211 0
M  V30 9065 H 845.753 1.93897 3.43217 0
M  V30 9066 H 847.041 2.08509 4.64114 0
M  V30 9067 H 846.439 -0.955725 5.57568 0
M  V30 9068 H 844.996 -0.720457 6.47806 0
M  V30 9069 N 848.429 -1.21819 0.999893 0
M  V30 9070 C 849.339 -2.27691 0.565159 0
M  V30 9071 C 850.355 -1.69587 -0.389398 0
M  V30 9072 O 851.531 -1.99786 -0.254499 0
M  V30 9073 C 848.596 -3.46537 -0.106432 0
M  V30 9074 C 847.657 -4.19932 0.891964 0
M  V30 9075 C 846.89 -5.33103 0.252327 0
M  V30 9076 O 847.113 -5.62398 -0.952103 0
M  V30 9077 O 846.047 -5.94184 0.960698 0
M  V30 9078 H 849.873 -2.67059 1.44613 0
M  V30 9079 H 847.458 -1.28119 0.768499 0
M  V30 9080 H 849.34 -4.18631 -0.482301 0
M  V30 9081 H 848.015 -3.09079 -0.961865 0
M  V30 9082 H 846.922 -3.5008 1.3189 0
M  V30 9083 H 848.255 -4.61287 1.71682 0
M  V30 9084 N 849.908 -0.773975 -1.37286 0
M  V30 9085 C 850.84 -0.119938 -2.28886 0
M  V30 9086 C 851.853 0.661822 -1.48741 0
M  V30 9087 O 853.042 0.499548 -1.71367 0
M  V30 9088 C 850.142 0.853703 -3.27971 0
M  V30 9089 C 849.315 0.125286 -4.37221 0
M  V30 9090 C 848.374 1.01261 -5.16365 0
M  V30 9091 O 847.4 0.475565 -5.6721 0
M  V30 9092 N 848.602 2.33864 -5.31308 0
M  V30 9093 H 851.367 -0.906702 -2.85655 0
M  V30 9094 H 848.928 -0.626519 -1.49286 0
M  V30 9095 H 850.92 1.4508 -3.77801 0
M  V30 9096 H 849.49 1.54142 -2.71954 0
M  V30 9097 H 848.71 -0.652742 -3.88758 0
M  V30 9098 H 849.998 -0.377959 -5.07394 0
M  V30 9099 H 849.396 2.79929 -4.91585 0
M  V30 9100 H 847.953 2.88575 -5.84438 0
M  V30 9101 N 851.386 1.48609 -0.524698 0
M  V30 9102 C 852.634 2.02097 0.0112991 0
M  V30 9103 C 852.955 1.40455 1.35268 0
M  V30 9104 O 852.225 0.56807 1.87483 0
M  V30 9105 H 850.805 0.746966 0.00716426 0
M  V30 9106 H 853.467 1.82378 -0.687329 0
M  V30 9107 H 852.563 3.11855 0.123531 0
M  V30 9108 N 852.864 0.259585 1.55447 0
M  V30 9109 C 854.112 -0.360893 1.98852 0
M  V30 9110 C 854.433 -1.57535 1.14924 0
M  V30 9111 O 853.703 -1.94485 0.235025 0
M  V30 9112 H 852.283 -0.136332 0.734454 0
M  V30 9113 H 854.945 0.361319 1.91522 0
M  V30 9114 H 854.041 -0.661388 3.05012 0
M  V30 9115 N 854.342 -1.57594 -0.0133615 0
M  V30 9116 C 855.292 -2.04048 -1.01726 0
M  V30 9117 C 856.276 -0.932682 -1.3111 0
M  V30 9118 O 857.468 -1.19652 -1.30432 0
M  V30 9119 C 854.597 -2.53637 -2.31351 0
M  V30 9120 C 853.683 -3.71269 -2.04989 0
M  V30 9121 N 854.074 -4.83436 -1.48739 0
M  V30 9122 C 852.372 -3.78943 -2.35198 0
M  V30 9123 C 853.073 -5.64961 -1.38542 0
M  V30 9124 N 852.049 -5.10554 -1.86643 0
M  V30 9125 H 855.851 -2.88188 -0.576623 0
M  V30 9126 H 853.365 -1.60912 -0.219344 0
M  V30 9127 H 855.362 -2.85186 -3.04096 0
M  V30 9128 H 854.022 -1.7091 -2.76079 0
M  V30 9129 H 855.033 -5.04558 -1.16798 0
M  V30 9130 H 851.71 -3.07047 -2.82893 0
M  V30 9131 H 853.1 -6.65092 -0.954075 0
M  V30 9132 N 855.82 0.285905 -1.54985 0
M  V30 9133 C 857.231 0.857869 -1.65824 0
M  V30 9134 C 857.582 1.87531 -0.576763 0
M  V30 9135 O 856.707 2.14528 0.284016 0
M  V30 9136 C 857.302 1.56277 -3.00604 0
M  V30 9137 C 855.861 2.08294 -3.13513 0
M  V30 9138 C 855.008 0.920633 -2.61571 0
M  V30 9139 H 857.959 0.0625463 -1.58577 0
M  V30 9140 H 857.98 2.42912 -2.92872 0
M  V30 9141 H 857.492 0.822017 -3.79295 0
M  V30 9142 H 855.593 2.8537 -2.39572 0
M  V30 9143 H 855.706 2.3071 -4.19892 0
M  V30 9144 H 854.07 1.31043 -2.18403 0
M  V30 9145 H 854.853 0.193594 -3.42754 0
M  V30 9146 N 857.298 1.47698 0.54982 0
M  V30 9147 C 858.245 1.60739 1.65625 0
M  V30 9148 C 859.215 0.450129 1.59884 0
M  V30 9149 O 860.4 0.671123 1.78607 0
M  V30 9150 C 857.54 1.63457 3.03934 0
M  V30 9151 C 856.653 2.90152 3.20056 0
M  V30 9152 C 855.788 2.84157 4.48807 0
M  V30 9153 C 854.827 4.05644 4.58387 0
M  V30 9154 N 853.964 3.97843 5.78503 0
M  V30 9155 H 858.804 2.55234 1.53817 0
M  V30 9156 H 856.341 1.26593 0.749173 0
M  V30 9157 H 858.299 1.63015 3.84034 0
M  V30 9158 H 856.929 0.724689 3.1456 0
M  V30 9159 H 855.981 3.00428 2.33339 0
M  V30 9160 H 857.293 3.80097 3.22998 0
M  V30 9161 H 856.447 2.82006 5.37175 0
M  V30 9162 H 855.186 1.91908 4.48356 0
M  V30 9163 H 854.191 4.08092 3.6843 0
M  V30 9164 H 855.416 4.9903 4.60593 0
M  V30 9165 H 853.362 3.08401 5.78986 0
M  V30 9166 H 853.279 4.81473 5.82855 0
M  V30 9167 H 854.547 3.99719 6.69212 0
M  V30 9168 N 858.776 -0.797141 1.35954 0
M  V30 9169 C 860.023 -1.55468 1.29754 0
M  V30 9170 C 860.351 -1.94095 -0.125391 0
M  V30 9171 O 859.606 -1.62341 -1.09288 0
M  V30 9172 C 859.905 -2.84847 2.15863 0
M  V30 9173 C 859.571 -2.65394 3.64523 0
M  V30 9174 C 858.233 -2.59796 4.05042 0
M  V30 9175 C 860.585 -2.4727 4.58811 0
M  V30 9176 C 857.913 -2.3403 5.38002 0
M  V30 9177 C 860.265 -2.23032 5.91979 0
M  V30 9178 C 858.929 -2.15862 6.31633 0
M  V30 9179 H 858.199 -0.568897 0.474803 0
M  V30 9180 H 860.846 -0.920299 1.67937 0
M  V30 9181 H 859.151 -3.52712 1.70591 0
M  V30 9182 H 860.848 -3.42597 2.08395 0
M  V30 9183 H 857.438 -2.70602 3.32374 0
M  V30 9184 H 861.622 -2.506 4.28384 0
M  V30 9185 H 856.878 -2.26956 5.67715 0
M  V30 9186 H 861.052 -2.08001 6.64612 0
M  V30 9187 H 858.679 -1.9566 7.34589 0
M  V30 9188 N 860.254 -1.20106 -1.0204 0
M  V30 9189 C 861.186 -0.904236 -2.10609 0
M  V30 9190 C 862.199 0.106487 -1.62451 0
M  V30 9191 O 863.388 -0.124035 -1.78069 0
M  V30 9192 C 860.488 -0.333423 -3.37256 0
M  V30 9193 C 859.661 -1.39476 -4.14566 0
M  V30 9194 C 858.72 -0.835961 -5.19517 0
M  V30 9195 O 857.746 -1.51573 -5.48648 0
M  V30 9196 N 858.948 0.356531 -5.79404 0
M  V30 9197 H 861.713 -1.8388 -2.36661 0
M  V30 9198 H 859.274 -1.10422 -1.184 0
M  V30 9199 H 861.266 0.0544571 -4.04663 0
M  V30 9200 H 859.836 0.505608 -3.08484 0
M  V30 9201 H 859.056 -1.95714 -3.42184 0
M  V30 9202 H 860.344 -2.10967 -4.63001 0
M  V30 9203 H 859.742 0.926143 -5.58067 0
M  V30 9204 H 858.299 0.686093 -6.48179 0
M  V30 9205 N 861.732 1.21287 -1.00634 0
M  V30 9206 C 863.148 1.42467 -0.719389 0
M  V30 9207 C 863.348 1.88767 0.704927 0
M  V30 9208 O 862.404 2.05004 1.47409 0
M  V30 9209 C 863.717 2.455 -1.73639 0
M  V30 9210 C 865.265 2.59281 -1.75335 0
M  V30 9211 C 865.74 3.65547 -2.75934 0
M  V30 9212 N 867.231 3.73019 -2.74611 0
M  V30 9213 C 867.966 4.54873 -3.4911 0
M  V30 9214 N 867.462 5.40614 -4.33253 0
M  V30 9215 N 869.255 4.49309 -3.37754 0
M  V30 9216 H 861.406 0.895454 -1.92602 0
M  V30 9217 H 863.669 0.455491 -0.831404 0
M  V30 9218 H 863.375 2.18455 -2.75627 0
M  V30 9219 H 863.249 3.44325 -1.54014 0
M  V30 9220 H 865.636 2.85661 -0.740377 0
M  V30 9221 H 865.717 1.60685 -1.99032 0
M  V30 9222 H 865.361 3.39911 -3.77389 0
M  V30 9223 H 865.291 4.63741 -2.49503 0
M  V30 9224 H 867.782 3.11766 -2.13565 0
M  V30 9225 H 868.095 6.0013 -4.86892 0
M  V30 9226 H 866.44 5.40151 -4.37335 0
M  V30 9227 H 869.631 3.81357 -2.71449 0
M  V30 9228 H 869.804 5.12867 -3.9607 0
M  V30 9229 N 863.21 0.781244 1.36873 0
M  V30 9230 C 864.621 0.414093 1.8205 0
M  V30 9231 C 864.972 -1.06098 1.65039 0
M  V30 9232 O 864.097 -1.82251 1.16677 0
M  V30 9233 C 864.692 0.744837 3.30511 0
M  V30 9234 C 863.251 0.430621 3.73929 0
M  V30 9235 C 862.398 0.983746 2.59264 0
M  V30 9236 H 865.349 0.975091 1.2521 0
M  V30 9237 H 865.37 0.032936 3.80486 0
M  V30 9238 H 864.882 1.81847 3.42861 0
M  V30 9239 H 862.983 -0.635308 3.67144 0
M  V30 9240 H 863.096 0.945514 4.69677 0
M  V30 9241 H 861.46 0.407433 2.5142 0
M  V30 9242 H 862.243 2.06297 2.74402 0
M  V30 9243 N 864.689 -1.48329 0.532571 0
M  V30 9244 C 866.105 -1.58458 0.190605 0
M  V30 9245 C 866.305 -1.53427 -1.30623 0
M  V30 9246 O 865.361 -1.4247 -2.08467 0
M  V30 9247 C 866.674 -2.89989 0.79543 0
M  V30 9248 C 868.222 -3.03523 0.7644 0
M  V30 9249 C 868.697 -4.37718 1.34785 0
M  V30 9250 N 870.188 -4.44292 1.30993 0
M  V30 9251 C 870.923 -5.4664 1.73124 0
M  V30 9252 N 870.419 -6.5593 2.22997 0
M  V30 9253 N 872.212 -5.37538 1.64346 0
M  V30 9254 H 864.363 -1.49842 1.50537 0
M  V30 9255 H 866.626 -0.71164 0.626316 0
M  V30 9256 H 866.332 -2.99333 1.84642 0
M  V30 9257 H 866.206 -3.76203 0.27403 0
M  V30 9258 H 868.593 -2.93789 -0.277831 0
M  V30 9259 H 868.674 -2.18912 1.3233 0
M  V30 9260 H 868.318 -4.48206 2.38902 0
M  V30 9261 H 868.248 -5.21019 0.764609 0
M  V30 9262 H 870.739 -3.65897 0.944868 0
M  V30 9263 H 871.052 -7.30167 2.53133 0
M  V30 9264 H 869.397 -6.56886 2.26992 0
M  V30 9265 H 872.588 -4.51052 1.25178 0
M  V30 9266 H 872.761 -6.17169 1.97501 0
M  V30 9267 N 866.167 -0.267825 -1.55308 0
M  V30 9268 C 867.117 0.637168 -2.18916 0
M  V30 9269 C 868.101 1.12381 -1.15149 0
M  V30 9270 O 869.293 1.0701 -1.40989 0
M  V30 9271 C 866.422 1.82423 -2.90821 0
M  V30 9272 C 865.508 1.35512 -4.01867 0
M  V30 9273 N 865.899 0.601644 -5.02209 0
M  V30 9274 C 864.197 1.63868 -4.14805 0
M  V30 9275 C 864.898 0.35596 -5.8061 0
M  V30 9276 N 863.874 0.926271 -5.3565 0
M  V30 9277 H 867.676 0.0535787 -2.93851 0
M  V30 9278 H 865.19 -0.0710577 -1.62244 0
M  V30 9279 H 867.187 2.48379 -3.34834 0
M  V30 9280 H 865.847 2.41185 -2.17394 0
M  V30 9281 H 866.858 0.249693 -5.17298 0
M  V30 9282 H 863.535 2.23618 -3.52564 0
M  V30 9283 H 864.925 -0.246994 -6.71446 0
M  V30 9284 N 867.645 1.57599 0.00500368 0
M  V30 9285 C 868.575 2.11143 0.99705 0
M  V30 9286 C 869.556 1.0194 1.3617 0
M  V30 9287 O 870.741 1.29596 1.44632 0
M  V30 9288 C 867.871 2.61062 2.2905 0
M  V30 9289 C 866.825 3.74745 2.0676 0
M  V30 9290 C 866.151 4.10961 3.42075 0
M  V30 9291 C 867.451 5.02222 1.43424 0
M  V30 9292 H 869.145 2.94281 0.551251 0
M  V30 9293 H 866.691 1.41565 0.263715 0
M  V30 9294 H 868.644 2.97146 2.98801 0
M  V30 9295 H 867.368 1.75038 2.75734 0
M  V30 9296 H 866.027 3.39047 1.39436 0
M  V30 9297 H 865.675 3.21968 3.86453 0
M  V30 9298 H 865.375 4.87549 3.27979 0
M  V30 9299 H 866.899 4.49599 4.1315 0
M  V30 9300 H 868.313 5.36109 2.03125 0
M  V30 9301 H 866.71 5.83581 1.39831 0
M  V30 9302 H 867.78 4.83224 0.40285 0
M  V30 9303 N 869.123 -0.277682 1.55134 0
M  V30 9304 C 870.539 -0.624625 1.46869 0
M  V30 9305 C 870.739 -1.89717 0.678958 0
M  V30 9306 O 869.795 -2.51739 0.195939 0
M  V30 9307 C 871.108 -0.755937 2.91043 0
M  V30 9308 C 872.656 -0.850299 3.01229 0
M  V30 9309 C 873.131 -1.01343 4.46647 0
M  V30 9310 N 874.622 -1.07906 4.50456 0
M  V30 9311 C 875.357 -1.224 5.60184 0
M  V30 9312 N 874.853 -1.33642 6.79788 0
M  V30 9313 N 876.646 -1.25473 5.47917 0
M  V30 9314 H 868.797 0.558102 2.04937 0
M  V30 9315 H 871.06 0.188228 0.929125 0
M  V30 9316 H 870.766 0.108593 3.51532 0
M  V30 9317 H 870.64 -1.6377 3.39793 0
M  V30 9318 H 873.027 -1.7053 2.40839 0
M  V30 9319 H 873.108 0.0559681 2.55739 0
M  V30 9320 H 872.752 -0.163102 5.07638 0
M  V30 9321 H 872.682 -1.93427 4.89789 0
M  V30 9322 H 875.173 -1.00477 3.64298 0
M  V30 9323 H 875.486 -1.44522 7.59166 0
M  V30 9324 H 873.831 -1.30655 6.82608 0
M  V30 9325 H 877.022 -1.16317 4.53418 0
M  V30 9326 H 877.195 -1.36424 6.33476 0
M  V30 9327 N 870.601 -1.47988 -0.541979 0
M  V30 9328 C 871.878 -1.45878 -1.30303 0
M  V30 9329 C 872.258 -0.163931 -2.10463 0
M  V30 9330 O 871.606 0.854479 -2.11922 0
M  V30 9331 C 871.816 -2.71359 -2.19466 0
M  V30 9332 C 873.164 -3.19199 -2.79995 0
M  V30 9333 O 874.188 -2.72193 -2.2976 0
M  V30 9334 O 873.047 -4.00961 -3.71339 0
M  V30 9335 H 870.141 -0.582043 -0.587498 0
M  V30 9336 H 872.687 -1.60207 -0.559623 0
M  V30 9337 H 871.459 -3.57122 -1.59936 0
M  V30 9338 H 871.082 -2.59692 -3.01075 0
M  V30 9339 N 872.079 0.78992 -1.36375 0
M  V30 9340 C 873.011 1.91113 -1.26524 0
M  V30 9341 C 874.024 1.61747 -0.184851 0
M  V30 9342 O 875.213 1.73004 -0.439524 0
M  V30 9343 C 872.313 3.25908 -0.92937 0
M  V30 9344 C 871.486 3.83057 -2.11154 0
M  V30 9345 C 870.545 4.96289 -1.74881 0
M  V30 9346 O 869.571 5.12834 -2.46962 0
M  V30 9347 N 870.773 5.76478 -0.682193 0
M  V30 9348 H 873.538 2.00085 -2.23128 0
M  V30 9349 H 871.099 0.968165 -1.29762 0
M  V30 9350 H 873.091 3.99151 -0.667884 0
M  V30 9351 H 871.661 3.12556 -0.0524843 0
M  V30 9352 H 870.881 3.01808 -2.53586 0
M  V30 9353 H 872.169 4.1797 -2.90135 0
M  V30 9354 H 871.567 5.65638 -0.0836661 0
M  V30 9355 H 870.124 6.50026 -0.480529 0
M  V30 9356 N 873.557 1.20646 1.01402 0
M  V30 9357 C 874.52 0.959314 2.08158 0
M  V30 9358 C 875.52 -0.0661558 1.60664 0
M  V30 9359 O 876.71 0.170177 1.73367 0
M  V30 9360 C 873.842 0.444785 3.37986 0
M  V30 9361 H 875.035 1.90631 2.31517 0
M  V30 9362 H 872.588 1.02219 1.18241 0
M  V30 9363 H 873.323 -0.507553 3.20304 0
M  V30 9364 H 873.108 1.18435 3.73785 0
M  V30 9365 H 874.598 0.291443 4.16582 0
M  V30 9366 N 875.035 -1.20752 1.01276 0
M  V30 9367 C 876.312 -1.85676 0.615112 0
M  V30 9368 C 876.692 -1.90623 -0.906976 0
M  V30 9369 O 876.04 -1.41124 -1.79712 0
M  V30 9370 C 876.25 -3.2552 1.25847 0
M  V30 9371 C 877.598 -4.0184 1.37148 0
M  V30 9372 O 878.622 -3.3486 1.21438 0
M  V30 9373 O 877.481 -5.21783 1.62495 0
M  V30 9374 H 874.575 -0.799437 0.211729 0
M  V30 9375 H 877.121 -1.28372 1.10989 0
M  V30 9376 H 875.893 -3.16664 2.29869 0
M  V30 9377 H 875.516 -3.90452 0.750524 0
M  V30 9378 N 876.513 -0.788492 -1.36457 0
M  V30 9379 C 877.76 -0.360461 -1.99266 0
M  V30 9380 C 878.088 1.0676 -1.62581 0
M  V30 9381 O 877.343 1.75205 -0.871884 0
M  V30 9382 C 877.642 -0.470255 -3.54293 0
M  V30 9383 C 877.308 -1.85899 -4.10795 0
M  V30 9384 C 875.97 -2.23896 -4.25939 0
M  V30 9385 C 878.322 -2.76836 -4.41601 0
M  V30 9386 C 875.65 -3.52235 -4.69199 0
M  V30 9387 C 878.002 -4.04602 -4.86292 0
M  V30 9388 C 876.666 -4.42623 -4.99641 0
M  V30 9389 H 875.936 -0.131902 -0.729166 0
M  V30 9390 H 878.583 -1.00577 -1.62962 0
M  V30 9391 H 876.888 0.258559 -3.90946 0
M  V30 9392 H 878.585 -0.120119 -4.0082 0
M  V30 9393 H 875.175 -1.55372 -3.99447 0
M  V30 9394 H 879.359 -2.48735 -4.2947 0
M  V30 9395 H 874.615 -3.81565 -4.77722 0
M  V30 9396 H 878.789 -4.75182 -5.09092 0
M  V30 9397 H 876.416 -5.42125 -5.32921 0
M  V30 9398 N 877.991 1.48044 -0.54043 0
M  V30 9399 C 879.216 2.07396 -0.0124765 0
M  V30 9400 C 879.641 1.39288 1.26414 0
M  V30 9401 O 878.999 0.462252 1.75308 0
M  V30 9402 C 879.047 3.60131 0.18377 0
M  V30 9403 O 878.151 3.92995 1.25014 0
M  V30 9404 H 877.492 0.662554 -0.0438026 0
M  V30 9405 H 880.022 1.90306 -0.751327 0
M  V30 9406 H 880.032 4.06003 0.403197 0
M  V30 9407 H 878.707 4.09105 -0.74874 0
M  V30 9408 H 877.284 3.5889 1.01254 0
M  V30 9409 N 879.47 0.276058 1.55163 0
M  V30 9410 C 880.716 -0.340959 1.99913 0
M  V30 9411 C 881.049 -1.55434 1.16422 0
M  V30 9412 O 880.324 -1.93081 0.234517 0
M  V30 9413 C 880.607 -0.722211 3.52783 0
M  V30 9414 C 880.46 0.498575 4.47028 0
M  V30 9415 C 881.779 -1.5583 4.11589 0
M  V30 9416 H 878.898 -0.122455 0.726756 0
M  V30 9417 H 881.54 0.38319 1.86096 0
M  V30 9418 H 879.69 -1.33919 3.64689 0
M  V30 9419 H 881.362 1.13713 4.47065 0
M  V30 9420 H 879.605 1.13646 4.18649 0
M  V30 9421 H 880.276 0.188041 5.5168 0
M  V30 9422 H 882.752 -1.03722 4.02965 0
M  V30 9423 H 881.628 -1.79387 5.1876 0
M  V30 9424 H 881.889 -2.53963 3.61877 0
M  V30 9425 N 880.948 -1.576 0.00335426 0
M  V30 9426 C 881.878 -2.11668 -0.985839 0
M  V30 9427 C 882.859 -1.02661 -1.35627 0
M  V30 9428 O 884.044 -1.30361 -1.43943 0
M  V30 9429 C 881.174 -2.62273 -2.27662 0
M  V30 9430 C 880.128 -3.75837 -2.0477 0
M  V30 9431 C 879.454 -4.12769 -3.39891 0
M  V30 9432 C 880.754 -5.02975 -1.40759 0
M  V30 9433 H 882.448 -2.9457 -0.535637 0
M  V30 9434 H 879.994 -1.41702 -0.256204 0
M  V30 9435 H 881.947 -2.98727 -2.97221 0
M  V30 9436 H 880.671 -1.76498 -2.74802 0
M  V30 9437 H 879.33 -3.39782 -1.37636 0
M  V30 9438 H 878.978 -3.24013 -3.8474 0
M  V30 9439 H 878.678 -4.89281 -3.25389 0
M  V30 9440 H 880.202 -4.51784 -4.1076 0
M  V30 9441 H 881.616 -5.37179 -2.00279 0
M  V30 9442 H 880.013 -5.84315 -1.36734 0
M  V30 9443 H 881.083 -4.83431 -0.377218 0
M  V30 9444 N 882.426 0.269451 -1.5528 0
M  V30 9445 C 883.376 1.33553 -1.84791 0
M  V30 9446 C 884.36 1.44532 -0.707067 0
M  V30 9447 O 885.552 1.48153 -0.968493 0
M  V30 9448 C 882.681 2.69516 -2.12641 0
M  V30 9449 C 881.767 2.62633 -3.32993 0
M  V30 9450 N 882.158 2.25371 -4.52815 0
M  V30 9451 C 880.456 2.93688 -3.35654 0
M  V30 9452 C 881.157 2.28567 -5.34913 0
M  V30 9453 N 880.133 2.67181 -4.73408 0
M  V30 9454 H 883.935 1.03758 -2.74976 0
M  V30 9455 H 881.449 0.478087 -1.55203 0
M  V30 9456 H 883.446 3.46424 -2.3194 0
M  V30 9457 H 882.106 3.00197 -1.23742 0
M  V30 9458 H 883.117 1.9729 -4.7885 0
M  V30 9459 H 879.794 3.29057 -2.56958 0
M  V30 9460 H 881.184 2.02289 -6.40725 0
M  V30 9461 N 883.904 1.48273 0.534124 0
M  V30 9462 C 885.134 1.59503 1.31311 0
M  V30 9463 C 885.542 0.25284 1.87503 0
M  V30 9464 O 884.885 -0.767399 1.66903 0
M  V30 9465 C 884.947 2.57899 2.50456 0
M  V30 9466 C 884.611 4.03063 2.15382 0
M  V30 9467 C 885.608 4.90869 1.713 0
M  V30 9468 C 883.293 4.4857 2.26032 0
M  V30 9469 C 885.287 6.22209 1.38328 0
M  V30 9470 C 882.974 5.79932 1.92672 0
M  V30 9471 C 883.972 6.66574 1.4889 0
M  V30 9472 O 883.66 7.95492 1.15966 0
M  V30 9473 H 883.392 0.540695 0.405739 0
M  V30 9474 H 885.946 1.94794 0.651497 0
M  V30 9475 H 884.176 2.1772 3.19585 0
M  V30 9476 H 885.865 2.59008 3.12522 0
M  V30 9477 H 886.631 4.56951 1.62545 0
M  V30 9478 H 882.51 3.81321 2.59066 0
M  V30 9479 H 886.054 6.89792 1.04082 0
M  V30 9480 H 881.951 6.13386 2.01066 0
M  V30 9481 H 882.719 8.08207 1.29399 0
M  V30 9482 N 885.382 -0.782676 1.36792 0
M  V30 9483 C 886.345 -1.8772 1.31507 0
M  V30 9484 C 887.345 -1.59269 0.221349 0
M  V30 9485 O 888.535 -1.67555 0.476544 0
M  V30 9486 C 885.667 -3.24641 1.04025 0
M  V30 9487 H 886.86 -1.9382 2.28853 0
M  V30 9488 H 884.413 -0.981226 1.21662 0
M  V30 9489 H 885.148 -3.24221 0.0716439 0
M  V30 9490 H 884.933 -3.46681 1.8318 0
M  V30 9491 H 886.423 -4.04711 1.02949 0
M  V30 9492 N 886.86 -1.21182 -1.00761 0
M  V30 9493 C 888.108 -1.02543 -1.74153 0
M  V30 9494 C 888.429 0.442372 -1.89916 0
M  V30 9495 O 887.699 1.31927 -1.44818 0
M  V30 9496 H 886.279 -0.37644 -0.645214 0
M  V30 9497 H 888.941 -1.52446 -1.21434 0
M  V30 9498 H 888.037 -1.49122 -2.7417 0
M  V30 9499 N 888.338 1.20213 -1.01915 0
M  V30 9500 C 889.285 2.2309 -0.591571 0
M  V30 9501 C 890.255 1.61465 0.389649 0
M  V30 9502 O 891.44 1.88606 0.288511 0
M  V30 9503 C 888.58 3.45045 0.0614028 0
M  V30 9504 C 887.693 4.21091 -0.964688 0
M  V30 9505 C 886.828 5.30448 -0.282499 0
M  V30 9506 C 885.867 5.98241 -1.29517 0
M  V30 9507 N 885.004 6.99182 -0.639472 0
M  V30 9508 H 889.844 2.59023 -1.47347 0
M  V30 9509 H 887.381 1.27274 -0.737547 0
M  V30 9510 H 889.339 4.14688 0.45714 0
M  V30 9511 H 887.969 3.09797 0.906937 0
M  V30 9512 H 887.021 3.50489 -1.47857 0
M  V30 9513 H 888.333 4.67662 -1.73475 0
M  V30 9514 H 887.487 6.06466 0.168603 0
M  V30 9515 H 886.226 4.84922 0.519843 0
M  V30 9516 H 885.231 5.20982 -1.75663 0
M  V30 9517 H 886.456 6.45853 -2.09884 0
M  V30 9518 H 884.402 6.55844 0.142955 0
M  V30 9519 H 884.319 7.43893 -1.34756 0
M  V30 9520 H 885.587 7.79212 -0.212047 0
M  V30 9521 N 889.816 0.795718 1.36037 0
M  V30 9522 C 891.062 0.371574 1.99367 0
M  V30 9523 C 891.395 -1.0557 1.62999 0
M  V30 9524 O 890.67 -1.73051 0.887895 0
M  V30 9525 C 890.953 0.542622 3.55988 0
M  V30 9526 C 890.806 2.01404 4.0219 0
M  V30 9527 C 892.125 -0.0384527 4.40083 0
M  V30 9528 H 889.244 0.136483 0.724252 0
M  V30 9529 H 891.886 1.00323 1.61355 0
M  V30 9530 H 890.036 0.0049053 3.885 0
M  V30 9531 H 891.708 2.6133 3.80137 0
M  V30 9532 H 889.951 2.51439 3.53498 0
M  V30 9533 H 890.622 2.08466 5.11122 0
M  V30 9534 H 893.098 0.420634 4.13968 0
M  V30 9535 H 891.974 0.111214 5.48787 0
M  V30 9536 H 892.235 -1.13116 4.27384 0
M  V30 9537 N 891.294 -1.47756 0.548274 0
M  V30 9538 C 892.571 -1.9555 -0.0443603 0
M  V30 9539 C 892.951 -1.49079 -1.49462 0
M  V30 9540 O 892.299 -0.725538 -2.16675 0
M  V30 9541 C 892.509 -3.48879 0.0918425 0
M  V30 9542 C 893.857 -4.2456 -0.0580879 0
M  V30 9543 O 894.881 -3.56195 0.018946 0
M  V30 9544 O 893.74 -5.46048 -0.222261 0
M  V30 9545 H 890.834 -0.824106 -0.0691235 0
M  V30 9546 H 893.38 -1.58196 0.614166 0
M  V30 9547 H 892.152 -3.7548 1.10137 0
M  V30 9548 H 891.775 -3.92975 -0.604704 0
M  V30 9549 N 892.772 -0.284283 -1.55015 0
M  V30 9550 C 894.002 0.332465 -2.03907 0
M  V30 9551 C 894.41 1.49331 -1.16177 0
M  V30 9552 O 893.753 1.82851 -0.176395 0
M  V30 9553 C 893.815 0.867193 -3.48884 0
M  V30 9554 C 893.479 -0.166198 -4.56698 0
M  V30 9555 C 894.476 -0.988898 -5.10408 0
M  V30 9556 C 892.161 -0.303081 -5.01385 0
M  V30 9557 C 894.155 -1.93458 -6.07333 0
M  V30 9558 C 891.842 -1.25223 -5.98133 0
M  V30 9559 C 892.84 -2.06647 -6.50988 0
M  V30 9560 O 892.528 -2.99955 -7.45843 0
M  V30 9561 H 892.26 0.0786597 -0.671408 0
M  V30 9562 H 894.814 -0.416871 -2.01125 0
M  V30 9563 H 893.044 1.66676 -3.48935 0
M  V30 9564 H 894.733 1.39802 -3.81065 0
M  V30 9565 H 895.499 -0.89393 -4.76691 0
M  V30 9566 H 891.378 0.320711 -4.59883 0
M  V30 9567 H 894.922 -2.57053 -6.48513 0
M  V30 9568 H 890.819 -1.34798 -6.31268 0
M  V30 9569 H 891.587 -2.94742 -7.6359 0
M  V30 9570 N 894.251 1.57596 -0.0117121 0
M  V30 9571 C 895.198 2.09153 0.975897 0
M  V30 9572 C 896.168 0.989579 1.33404 0
M  V30 9573 O 897.353 1.26273 1.43038 0
M  V30 9574 C 894.493 2.60906 2.2588 0
M  V30 9575 C 893.606 3.85046 1.95866 0
M  V30 9576 C 892.741 4.25257 3.18323 0
M  V30 9577 C 891.78 5.42202 2.84049 0
M  V30 9578 N 890.917 5.77651 3.99079 0
M  V30 9579 H 895.757 2.93261 0.52931 0
M  V30 9580 H 893.294 1.44965 0.249691 0
M  V30 9581 H 895.252 2.88995 3.00895 0
M  V30 9582 H 893.882 1.79654 2.68187 0
M  V30 9583 H 892.934 3.63794 1.11168 0
M  V30 9584 H 894.246 4.70151 1.66611 0
M  V30 9585 H 893.4 4.5469 4.01674 0
M  V30 9586 H 892.139 3.38884 3.50726 0
M  V30 9587 H 891.144 5.1248 1.99107 0
M  V30 9588 H 892.369 6.3026 2.52881 0
M  V30 9589 H 890.315 4.94235 4.31356 0
M  V30 9590 H 890.232 6.57356 3.73388 0
M  V30 9591 H 891.5 6.11681 4.83183 0
M  V30 9592 N 895.729 -0.261212 1.5542 0
M  V30 9593 C 896.692 -1.30645 1.8832 0
M  V30 9594 C 897.692 -1.41782 0.758588 0
M  V30 9595 O 898.882 -1.40729 1.02669 0
M  V30 9596 C 896.014 -2.6862 2.09895 0
M  V30 9597 H 897.207 -1.02698 2.81768 0
M  V30 9598 H 894.76 -0.499838 1.48092 0
M  V30 9599 H 895.495 -3.0173 1.18868 0
M  V30 9600 H 895.28 -2.61921 2.91787 0
M  V30 9601 H 896.77 -3.44121 2.36581 0
M  V30 9602 N 897.207 -1.48554 -0.526253 0
M  V30 9603 C 898.155 -1.63804 -1.65139 0
M  V30 9604 C 899.149 -0.504398 -1.61716 0
M  V30 9605 O 900.355 -0.683241 -1.66529 0
M  V30 9606 H 896.73 -0.516071 -0.546969 0
M  V30 9607 H 898.701 -2.58294 -1.49421 0
M  V30 9608 C 897.45 -1.69843 -3.03395 0
M  V30 9609 H 896.773 -2.56438 -3.06724 0
M  V30 9610 H 898.213 -1.84555 -3.81727 0
M  V30 9611 C 896.672 -0.437875 -3.34042 0
M  V30 9612 O 897.202 0.447604 -3.99198 0
M  V30 9613 N 895.408 -0.308444 -2.88958 0
M  V30 9614 H 894.955 -1.02998 -2.36112 0
M  V30 9615 H 894.913 0.533952 -3.09833 0
M  V30 9616 N 898.685 0.775411 -1.37205 0
M  V30 9617 C 899.595 1.91967 -1.34855 0
M  V30 9618 C 900.611 1.72214 -0.248656 0
M  V30 9619 O 901.787 1.95512 -0.483421 0
M  V30 9620 C 898.852 3.27038 -1.15096 0
M  V30 9621 C 897.913 3.5947 -2.34691 0
M  V30 9622 C 897.146 4.88097 -2.15865 0
M  V30 9623 O 897.369 5.58871 -1.14102 0
M  V30 9624 O 896.303 5.19507 -3.03967 0
M  V30 9625 H 900.129 1.969 -2.31223 0
M  V30 9626 H 897.714 0.917647 -1.17897 0
M  V30 9627 H 899.596 4.07837 -1.0605 0
M  V30 9628 H 898.271 3.22965 -0.217999 0
M  V30 9629 H 897.178 2.7892 -2.49308 0
M  V30 9630 H 898.511 3.68282 -3.26541 0
M  V30 9631 N 900.163 1.21714 1.00117 0
M  V30 9632 C 901.409 1.04829 1.74306 0
M  V30 9633 C 901.764 -0.413387 1.87907 0
M  V30 9634 O 901.057 -1.30258 1.40512 0
M  V30 9635 C 901.251 1.68345 3.15269 0
M  V30 9636 C 901.08 3.20537 3.15414 0
M  V30 9637 C 899.85 3.896 3.21776 0
M  V30 9638 C 902.048 4.17576 3.00224 0
M  V30 9639 N 900.03 5.28949 3.11587 0
M  V30 9640 C 901.401 5.43701 2.97974 0
M  V30 9641 C 903.456 4.08575 2.84554 0
M  V30 9642 C 902.159 6.61861 2.8166 0
M  V30 9643 C 904.185 5.26375 2.69598 0
M  V30 9644 C 903.547 6.51414 2.68028 0
M  V30 9645 H 899.646 0.437964 0.647852 0
M  V30 9646 H 902.23 1.54128 1.18965 0
M  V30 9647 H 900.401 1.21607 3.68872 0
M  V30 9648 H 902.133 1.44629 3.77974 0
M  V30 9649 H 898.888 3.40548 3.29126 0
M  V30 9650 H 899.312 6.01945 3.09825 0
M  V30 9651 H 903.954 3.12696 2.84571 0
M  V30 9652 H 901.672 7.57896 2.8039 0
M  V30 9653 H 905.258 5.21235 2.58468 0
M  V30 9654 H 904.138 7.41033 2.56593 0
M  V30 9655 N 901.641 -1.19671 1.02551 0
M  V30 9656 C 902.571 -2.25009 0.623965 0
M  V30 9657 C 903.552 -1.66129 -0.36538 0
M  V30 9658 O 904.737 -1.92599 -0.248842 0
M  V30 9659 C 901.867 -3.47287 -0.0294869 0
M  V30 9660 C 900.821 -4.18818 0.881781 0
M  V30 9661 C 900.147 -5.34618 0.0936189 0
M  V30 9662 C 901.447 -4.73986 2.19396 0
M  V30 9663 H 903.141 -2.58851 1.50454 0
M  V30 9664 H 900.687 -1.24425 0.724872 0
M  V30 9665 H 902.64 -4.20168 -0.322016 0
M  V30 9666 H 901.364 -3.12635 -0.944838 0
M  V30 9667 H 900.023 -3.47815 1.15845 0
M  V30 9668 H 899.671 -4.9621 -0.823661 0
M  V30 9669 H 899.371 -5.83409 0.700568 0
M  V30 9670 H 900.895 -6.10297 -0.192249 0
M  V30 9671 H 902.309 -5.38639 1.96319 0
M  V30 9672 H 900.706 -5.3325 2.75254 0
M  V30 9673 H 901.776 -3.92238 2.85092 0
M  V30 9674 N 903.119 -0.802921 -1.35613 0
M  V30 9675 C 904.052 -0.156345 -2.27664 0
M  V30 9676 C 905.03 0.675517 -1.47904 0
M  V30 9677 O 906.214 0.643589 -1.77173 0
M  V30 9678 C 903.341 0.78348 -3.29514 0
M  V30 9679 C 902.387 0.0317062 -4.26488 0
M  V30 9680 S 903.22 -1.30183 -5.19435 0
M  V30 9681 C 904.376 -0.366354 -6.24827 0
M  V30 9682 H 904.609 -0.936803 -2.82155 0
M  V30 9683 H 902.142 -0.597799 -1.42358 0
M  V30 9684 H 904.1 1.32023 -3.8869 0
M  V30 9685 H 902.761 1.53729 -2.73909 0
M  V30 9686 H 901.954 0.745364 -4.98458 0
M  V30 9687 H 901.556 -0.43497 -3.71462 0
M  V30 9688 H 903.848 0.44976 -6.76005 0
M  V30 9689 H 904.791 -1.05513 -7.00195 0
M  V30 9690 H 905.199 0.0363203 -5.64488 0
M  V30 9691 N 904.597 1.47463 -0.556102 0
M  V30 9692 C 905.544 2.29998 0.192213 0
M  V30 9693 C 906.514 1.38993 0.909403 0
M  V30 9694 O 907.699 1.67954 0.905316 0
M  V30 9695 C 904.839 3.22932 1.21692 0
M  V30 9696 C 903.952 4.29027 0.505908 0
M  V30 9697 C 903.087 5.09114 1.51581 0
M  V30 9698 C 902.126 6.06984 0.789714 0
M  V30 9699 N 901.263 6.80033 1.74639 0
M  V30 9700 H 906.103 2.93468 -0.517734 0
M  V30 9701 H 903.64 1.44654 -0.267147 0
M  V30 9702 H 905.598 3.75234 1.8236 0
M  V30 9703 H 904.228 2.61329 1.89491 0
M  V30 9704 H 903.28 3.7979 -0.215276 0
M  V30 9705 H 904.592 4.9876 -0.062958 0
M  V30 9706 H 903.746 5.6556 2.19606 0
M  V30 9707 H 902.485 4.3928 2.11859 0
M  V30 9708 H 901.49 5.49717 0.0955382 0
M  V30 9709 H 902.715 6.78827 0.192688 0
M  V30 9710 H 900.661 6.12931 2.33777 0
M  V30 9711 H 900.578 7.45933 1.22965 0
M  V30 9712 H 901.846 7.41054 2.41782 0
M  V30 9713 N 906.075 0.2925 1.54862 0
M  V30 9714 C 907.023 -0.603186 2.24643 0
M  V30 9715 C 908.017 -1.1439 1.24946 0
M  V30 9716 O 909.223 -1.09552 1.42823 0
M  V30 9717 H 905.598 -0.213105 0.721173 0
M  V30 9718 H 907.569 0.00799278 2.98399 0
M  V30 9719 C 906.318 -1.76769 2.99413 0
M  V30 9720 H 905.641 -1.36084 3.75927 0
M  V30 9721 H 907.081 -2.37066 3.51533 0
M  V30 9722 C 905.54 -2.66669 2.05886 0
M  V30 9723 O 906.07 -3.67525 1.62136 0
M  V30 9724 N 904.276 -2.34216 1.7202 0
M  V30 9725 H 903.823 -1.52246 2.07795 0
M  V30 9726 H 903.781 -2.94635 1.09717 0
M  V30 9727 N 907.553 -1.57587 0.0200696 0
M  V30 9728 C 908.486 -2.05157 -0.999295 0
M  V30 9729 C 909.464 -0.945466 -1.32286 0
M  V30 9730 O 910.648 -1.21512 -1.44108 0
M  V30 9731 C 907.775 -2.46604 -2.32173 0
M  V30 9732 C 906.821 -3.68146 -2.15339 0
M  V30 9733 S 907.654 -5.15194 -1.46065 0
M  V30 9734 C 908.81 -5.59929 -2.79697 0
M  V30 9735 H 909.043 -2.91299 -0.59433 0
M  V30 9736 H 906.576 -1.53209 -0.191372 0
M  V30 9737 H 908.534 -2.7115 -3.08201 0
M  V30 9738 H 907.195 -1.60825 -2.69804 0
M  V30 9739 H 906.388 -3.94963 -3.13082 0
M  V30 9740 H 905.99 -3.43705 -1.47454 0
M  V30 9741 H 908.282 -5.63615 -3.75957 0
M  V30 9742 H 909.225 -6.59599 -2.57555 0
M  V30 9743 H 909.633 -4.87549 -2.84528 0
M  V30 9744 N 909.032 0.252966 -1.55557 0
M  V30 9745 C 910.309 1.00432 -1.67847 0
M  V30 9746 C 910.689 2.03587 -0.55816 0
M  V30 9747 O 910.037 2.24239 0.439197 0
M  V30 9748 C 910.247 1.64313 -3.079 0
M  V30 9749 C 911.595 2.14726 -3.66303 0
M  V30 9750 O 912.619 1.74264 -3.10661 0
M  V30 9751 O 911.478 2.89 -4.63833 0
M  V30 9752 H 908.572 0.467102 -0.682455 0
M  V30 9753 H 911.118 0.247233 -1.67889 0
M  V30 9754 H 909.89 0.896681 -3.80888 0
M  V30 9755 H 909.513 2.46657 -3.11843 0
M  V30 9756 N 910.51 1.48831 0.518367 0
M  V30 9757 C 911.921 1.50842 1.10016 0
M  V30 9758 C 912.272 0.284744 1.94123 0
M  V30 9759 O 911.397 -0.607088 2.0771 0
M  V30 9760 C 911.992 2.73329 2.00191 0
M  V30 9761 C 910.551 2.78175 2.53566 0
M  V30 9762 C 909.698 2.4452 1.30786 0
M  V30 9763 H 912.649 1.55779 0.303073 0
M  V30 9764 H 912.67 2.52506 2.84642 0
M  V30 9765 H 912.182 3.62374 1.3895 0
M  V30 9766 H 910.283 1.93368 3.18496 0
M  V30 9767 H 910.396 3.79905 2.91906 0
M  V30 9768 H 908.76 1.95924 1.62744 0
M  V30 9769 H 909.543 3.35819 0.712797 0
M  V30 9770 N 911.988 -0.768124 1.37614 0
M  V30 9771 C 912.918 -1.89537 1.36374 0
M  V30 9772 C 913.899 -1.68513 0.231803 0
M  V30 9773 O 915.084 -1.89318 0.432705 0
M  V30 9774 C 912.214 -3.26871 1.17358 0
M  V30 9775 C 911.168 -3.62466 2.27602 0
M  V30 9776 C 910.494 -4.9838 1.93705 0
M  V30 9777 C 911.794 -3.68841 3.69802 0
M  V30 9778 H 913.488 -1.90832 2.30702 0
M  V30 9779 H 911.034 -0.91672 1.11051 0
M  V30 9780 H 912.987 -4.05371 1.15119 0
M  V30 9781 H 911.711 -3.26018 0.194865 0
M  V30 9782 H 910.37 -2.86276 2.29002 0
M  V30 9783 H 910.018 -4.94071 0.943539 0
M  V30 9784 H 909.718 -5.23165 2.6753 0
M  V30 9785 H 911.242 -5.79276 1.93059 0
M  V30 9786 H 912.656 -4.37485 3.70513 0
M  V30 9787 H 911.053 -4.05126 4.42711 0
M  V30 9788 H 912.123 -2.69415 4.03167 0
M  V30 9789 N 913.466 -1.22244 -0.994698 0
M  V30 9790 C 914.414 -0.988118 -2.10568 0
M  V30 9791 C 915.408 0.0681541 -1.69263 0
M  V30 9792 O 916.614 -0.0841311 -1.79803 0
M  V30 9793 H 912.989 -0.302343 -0.688544 0
M  V30 9794 H 914.96 -1.93091 -2.27505 0
M  V30 9795 C 913.709 -0.580557 -3.42819 0
M  V30 9796 H 913.032 -1.385 -3.75044 0
M  V30 9797 H 914.472 -0.456004 -4.21541 0
M  V30 9798 C 912.931 0.709692 -3.2934 0
M  V30 9799 O 913.461 1.76259 -3.60965 0
M  V30 9800 N 911.667 0.680155 -2.82528 0
M  V30 9801 H 911.214 -0.176977 -2.56991 0
M  V30 9802 H 911.172 1.54372 -2.73892 0
M  V30 9803 N 914.944 1.19125 -1.03184 0
M  V30 9804 C 916.221 1.84674 -0.644574 0
M  V30 9805 C 916.601 1.92042 0.876534 0
M  V30 9806 O 915.949 1.43965 1.77444 0
M  V30 9807 C 916.159 3.23477 -1.3101 0
M  V30 9808 C 917.507 3.99608 -1.43524 0
M  V30 9809 O 918.531 3.32886 -1.2675 0
M  V30 9810 O 917.39 5.19132 -1.70776 0
M  V30 9811 H 914.484 0.795968 -0.22442 0
M  V30 9812 H 917.03 1.2659 -1.13018 0
M  V30 9813 H 915.802 3.12967 -2.34878 0
M  V30 9814 H 915.425 3.89209 -0.812547 0
M  V30 9815 N 916.422 0.810101 1.35185 0
M  V30 9816 C 917.37 0.211071 2.3164 0
M  V30 9817 C 918.364 -0.641109 1.568 0
M  V30 9818 O 919.57 -0.533881 1.719 0
M  V30 9819 H 915.945 0.0494978 0.750369 0
M  V30 9820 H 917.916 1.03964 2.79703 0
M  V30 9821 C 916.665 -0.622933 3.42074 0
M  V30 9822 H 915.988 0.0234648 3.99793 0
M  V30 9823 H 917.428 -1.0084 4.11834 0
M  V30 9824 C 915.887 -1.78994 2.85417 0
M  V30 9825 O 916.417 -2.88758 2.79252 0
M  V30 9826 N 914.623 -1.60259 2.42416 0
M  V30 9827 H 914.17 -0.70974 2.4763 0
M  V30 9828 H 914.128 -2.38498 2.04857 0
M  V30 9829 N 917.9 -1.47166 0.563914 0
M  V30 9830 C 919.146 -2.02756 0.0424338 0
M  V30 9831 C 919.479 -1.43662 -1.3067 0
M  V30 9832 O 918.754 -0.594676 -1.85186 0
M  V30 9833 C 919.037 -3.60074 -0.0434793 0
M  V30 9834 C 918.89 -4.29587 1.33323 0
M  V30 9835 C 920.209 -4.336 -0.753568 0
M  V30 9836 H 917.328 -0.736806 0.0168946 0
M  V30 9837 H 919.97 -1.75521 0.727496 0
M  V30 9838 H 918.12 -3.83409 -0.626906 0
M  V30 9839 H 919.792 -4.17573 1.96037 0
M  V30 9840 H 918.035 -3.8968 1.9061 0
M  V30 9841 H 918.706 -5.38218 1.22576 0
M  V30 9842 H 921.182 -4.15299 -0.258126 0
M  V30 9843 H 920.058 -5.43291 -0.782659 0
M  V30 9844 H 920.319 -4.03302 -1.81108 0
M  V30 9845 N 919.378 -0.300708 -1.54705 0
M  V30 9846 C 920.341 0.562648 -2.22187 0
M  V30 9847 C 921.341 1.06152 -1.20782 0
M  V30 9848 O 922.531 0.957596 -1.45519 0
M  V30 9849 C 919.663 1.77899 -2.908 0
M  V30 9850 H 920.856 -0.0269361 -2.99888 0
M  V30 9851 H 918.409 -0.0515412 -1.56215 0
M  V30 9852 H 919.144 2.40841 -2.17177 0
M  V30 9853 H 918.929 1.42892 -3.65136 0
M  V30 9854 H 920.419 2.39236 -3.42281 0
M  V30 9855 N 920.856 1.57574 -0.0284266 0
M  V30 9856 C 921.819 2.09096 0.938691 0
M  V30 9857 C 922.819 1.00588 1.25454 0
M  V30 9858 O 924.009 1.2675 1.19499 0
M  V30 9859 C 921.141 2.55624 2.25542 0
M  V30 9860 H 922.334 2.95829 0.49248 0
M  V30 9861 H 919.887 1.5475 0.219594 0
M  V30 9862 H 920.622 1.72218 2.74793 0
M  V30 9863 H 920.407 3.34896 2.03929 0
M  V30 9864 H 921.897 2.95712 2.94863 0
M  V30 9865 N 922.334 -0.244713 1.55689 0
M  V30 9866 C 923.264 -1.30667 1.93516 0
M  V30 9867 C 924.245 -1.50094 0.800371 0
M  V30 9868 O 925.43 -1.62665 1.06083 0
M  V30 9869 C 922.56 -2.66101 2.23176 0
M  V30 9870 C 921.514 -2.61366 3.38927 0
M  V30 9871 C 920.84 -4.00616 3.54134 0
M  V30 9872 C 922.14 -2.18161 4.74555 0
M  V30 9873 H 923.834 -0.992546 2.82469 0
M  V30 9874 H 921.38 -0.476018 1.35905 0
M  V30 9875 H 923.333 -3.4053 2.48228 0
M  V30 9876 H 922.057 -2.99154 1.31051 0
M  V30 9877 H 920.716 -1.89395 3.13887 0
M  V30 9878 H 920.364 -4.30938 2.59426 0
M  V30 9879 H 920.064 -3.98335 4.31975 0
M  V30 9880 H 921.588 -4.76741 3.8151 0
M  V30 9881 H 923.002 -2.82323 4.98965 0
M  V30 9882 H 921.399 -2.26988 5.55515 0
M  V30 9883 H 922.469 -1.13333 4.7147 0
M  V30 9884 N 923.813 -1.49104 -0.510467 0
M  V30 9885 C 924.743 -1.67981 -1.62187 0
M  V30 9886 C 925.724 -0.528529 -1.6168 0
M  V30 9887 O 926.909 -0.763305 -1.7857 0
M  V30 9888 C 924.039 -1.73755 -3.0071 0
M  V30 9889 C 922.993 -2.88579 -3.1608 0
M  V30 9890 C 922.319 -2.79457 -4.5586 0
M  V30 9891 C 923.619 -4.29638 -2.97 0
M  V30 9892 H 925.313 -2.61029 -1.46643 0
M  V30 9893 H 922.859 -1.25615 -0.704042 0
M  V30 9894 H 924.812 -1.85548 -3.78352 0
M  V30 9895 H 923.536 -0.772996 -3.17321 0
M  V30 9896 H 922.195 -2.76372 -2.40861 0
M  V30 9897 H 921.843 -1.80929 -4.69333 0
M  V30 9898 H 921.543 -3.56518 -4.67086 0
M  V30 9899 H 923.067 -2.93245 -5.35574 0
M  V30 9900 H 924.481 -4.42575 -3.64418 0
M  V30 9901 H 922.878 -5.07847 -3.19704 0
M  V30 9902 H 923.948 -4.44741 -1.93219 0
M  V30 9903 N 925.291 0.760815 -1.38019 0
M  V30 9904 C 926.241 1.86487 -1.31174 0
M  V30 9905 C 927.225 1.59684 -0.197414 0
M  V30 9906 O 928.417 1.71628 -0.432764 0
M  V30 9907 C 925.546 3.24103 -1.13192 0
M  V30 9908 C 924.632 3.5682 -2.29216 0
M  V30 9909 N 925.023 3.60644 -3.5464 0
M  V30 9910 C 923.321 3.87047 -2.2161 0
M  V30 9911 C 924.022 3.90423 -4.31214 0
M  V30 9912 N 922.998 4.06883 -3.60482 0
M  V30 9913 H 926.8 1.87711 -2.26146 0
M  V30 9914 H 924.314 0.957811 -1.31148 0
M  V30 9915 H 926.311 4.03101 -1.06372 0
M  V30 9916 H 924.971 3.24135 -0.191473 0
M  V30 9917 H 925.982 3.42581 -3.88405 0
M  V30 9918 H 922.659 3.94837 -1.35684 0
M  V30 9919 H 924.049 4.00065 -5.39812 0
M  V30 9920 N 926.769 1.22769 0.988202 0
M  V30 9921 C 927.701 0.959757 2.08138 0
M  V30 9922 C 928.714 -0.0633787 1.62677 0
M  V30 9923 O 929.903 0.171203 1.77677 0
M  V30 9924 C 927.003 0.422724 3.36253 0
M  V30 9925 C 926.176 1.50419 4.10722 0
M  V30 9926 C 925.235 0.973407 5.17118 0
M  V30 9927 O 924.261 1.66066 5.44436 0
M  V30 9928 N 925.463 -0.202787 5.80146 0
M  V30 9929 H 928.228 1.9009 2.31702 0
M  V30 9930 H 925.789 1.13522 1.15431 0
M  V30 9931 H 927.781 0.0528514 4.04665 0
M  V30 9932 H 926.351 -0.423642 3.09716 0
M  V30 9933 H 925.571 2.04718 3.36874 0
M  V30 9934 H 926.859 2.23169 4.57245 0
M  V30 9935 H 926.257 -0.777856 5.60327 0
M  V30 9936 H 924.814 -0.513998 6.4977 0
M  V30 9937 N 928.247 -1.18576 1.03814 0
M  V30 9938 C 929.472 -1.92978 0.759873 0
M  V30 9939 C 929.897 -1.75514 -0.676486 0
M  V30 9940 O 929.255 -1.06359 -1.46824 0
M  V30 9941 C 929.303 -3.42507 1.12788 0
M  V30 9942 O 928.407 -4.1163 0.251886 0
M  V30 9943 H 927.748 -0.602129 0.279886 0
M  V30 9944 H 930.278 -1.50383 1.3873 0
M  V30 9945 H 930.288 -3.93206 1.08872 0
M  V30 9946 H 928.963 -3.5454 2.17427 0
M  V30 9947 H 927.54 -3.7125 0.350441 0
M  V30 9948 N 929.725 -0.817259 -1.34754 0
M  V30 9949 C 930.953 -0.415451 -2.02686 0
M  V30 9950 C 931.368 0.97688 -1.61563 0
M  V30 9951 O 930.725 1.63125 -0.818321 0
M  V30 9952 C 930.776 -0.501486 -3.58005 0
M  V30 9953 O 930.497 -1.83893 -3.97637 0
M  V30 9954 C 931.998 -0.0938504 -4.43201 0
M  V30 9955 H 929.218 -0.16742 -0.649778 0
M  V30 9956 H 931.762 -1.10384 -1.7215 0
M  V30 9957 H 929.917 0.138766 -3.87151 0
M  V30 9958 H 930.331 -1.8092 -4.92309 0
M  V30 9959 H 931.805 -0.205145 -5.51619 0
M  V30 9960 H 932.282 0.962011 -4.28535 0
M  V30 9961 H 932.888 -0.707677 -4.19371 0
M  V30 9962 N 931.203 1.46865 -0.571711 0
M  V30 9963 C 932.48 1.95596 0.0132445 0
M  V30 9964 C 932.86 1.51438 1.47071 0
M  V30 9965 O 932.208 0.759917 2.15494 0
M  V30 9966 C 932.418 3.48689 -0.147335 0
M  V30 9967 C 933.766 4.24599 -0.00946329 0
M  V30 9968 O 934.79 3.5612 -0.0756112 0
M  V30 9969 O 933.649 5.46332 0.135361 0
M  V30 9970 H 930.743 0.825102 0.0560039 0
M  V30 9971 H 933.289 1.57199 -0.639256 0
M  V30 9972 H 932.061 3.73681 -1.16096 0
M  V30 9973 H 931.684 3.93887 0.542109 0
M  V30 9974 N 932.681 0.308908 1.54543 0
M  V30 9975 C 934.097 -0.0442273 1.59539 0
M  V30 9976 C 934.297 -1.51743 1.32575 0
M  V30 9977 O 933.353 -2.27134 1.10302 0
M  V30 9978 C 934.666 0.360826 2.98527 0
M  V30 9979 C 936.214 0.310252 3.11459 0
M  V30 9980 C 936.689 0.690246 4.52769 0
M  V30 9981 N 938.18 0.643084 4.58714 0
M  V30 9982 C 938.915 0.909483 5.66141 0
M  V30 9983 N 938.411 1.24226 6.81572 0
M  V30 9984 N 940.204 0.836018 5.55848 0
M  V30 9985 H 932.355 1.26893 1.70329 0
M  V30 9986 H 934.618 0.514986 0.795923 0
M  V30 9987 H 934.324 1.38669 3.23209 0
M  V30 9988 H 934.198 -0.281563 3.76148 0
M  V30 9989 H 936.585 -0.706375 2.86521 0
M  V30 9990 H 936.666 0.987373 2.35976 0
M  V30 9991 H 936.31 1.70472 4.78437 0
M  V30 9992 H 936.24 -0.00903075 5.26599 0
M  V30 9993 H 938.731 0.397138 3.75807 0
M  V30 9994 H 939.044 1.4313 7.5943 0
M  V30 9995 H 937.389 1.28038 6.83104 0
M  V30 9996 H 940.58 0.575637 4.64547 0
M  V30 9997 H 940.753 1.047 6.39486 0
M  V30 9998 N 934.159 -1.57557 0.0367827 0
M  V30 9999 C 935.089 -2.13712 -0.940719 0
M  V30 10000 C 936.07 -1.05515 -1.33419 0
M  V30 10001 O 937.255 -1.33385 -1.41146 0
M  V30 10002 C 934.385 -2.67043 -2.22048 0
M  V30 10003 C 933.339 -3.80096 -1.96752 0
M  V30 10004 C 932.665 -4.19886 -3.31059 0
M  V30 10005 C 933.965 -5.05848 -1.30058 0
M  V30 10006 H 935.659 -2.9564 -0.473033 0
M  V30 10007 H 933.205 -1.42214 -0.226089 0
M  V30 10008 H 935.158 -3.04964 -2.90818 0
M  V30 10009 H 933.882 -1.82287 -2.70996 0
M  V30 10010 H 932.541 -3.42625 -1.30398 0
M  V30 10011 H 932.189 -3.32101 -3.77781 0
M  V30 10012 H 931.889 -4.96073 -3.14937 0
M  V30 10013 H 933.413 -4.60395 -4.01084 0
M  V30 10014 H 934.827 -5.41306 -1.8884 0
M  V30 10015 H 933.224 -5.87084 -1.24309 0
M  V30 10016 H 934.294 -4.84122 -0.274591 0
M  V30 10017 N 935.637 0.236453 -1.55816 0
M  V30 10018 C 936.865 0.980295 -1.82203 0
M  V30 10019 C 937.28 1.7854 -0.613926 0
M  V30 10020 O 936.637 1.77661 0.417491 0
M  V30 10021 C 936.688 1.90982 -3.06933 0
M  V30 10022 O 936.409 1.13728 -4.23081 0
M  V30 10023 C 937.91 2.76879 -3.46198 0
M  V30 10024 H 935.13 0.28799 -0.606055 0
M  V30 10025 H 937.674 0.256182 -2.02889 0
M  V30 10026 H 935.829 2.58808 -2.88266 0
M  V30 10027 H 936.243 1.76694 -4.93842 0
M  V30 10028 H 937.717 3.37831 -4.36548 0
M  V30 10029 H 938.194 3.48522 -2.67262 0
M  V30 10030 H 938.8 2.1449 -3.67252 0
M  V30 10031 N 937.115 1.49373 0.502552 0
M  V30 10032 C 938.078 1.65413 1.58654 0
M  V30 10033 C 939.078 0.526003 1.51953 0
M  V30 10034 O 940.268 0.792421 1.55133 0
M  V30 10035 C 937.4 1.65005 2.98306 0
M  V30 10036 H 938.593 2.62095 1.45762 0
M  V30 10037 H 936.146 1.38381 0.726672 0
M  V30 10038 H 936.881 0.699014 3.16677 0
M  V30 10039 H 936.666 2.46931 3.04578 0
M  V30 10040 H 938.156 1.79477 3.77065 0
M  V30 10041 N 938.594 -0.753485 1.38421 0
M  V30 10042 C 939.504 -1.89797 1.37892 0
M  V30 10043 C 940.52 -1.71797 0.276023 0
M  V30 10044 O 941.696 -1.94718 0.514464 0
M  V30 10045 C 938.761 -3.25166 1.20284 0
M  V30 10046 C 937.822 -3.55691 2.4038 0
M  V30 10047 C 937.055 -4.84601 2.23602 0
M  V30 10048 O 937.278 -5.56985 1.22979 0
M  V30 10049 O 936.212 -5.14605 3.12194 0
M  V30 10050 H 940.038 -1.93197 2.34326 0
M  V30 10051 H 937.623 -0.898775 1.19342 0
M  V30 10052 H 939.505 -4.06099 1.12525 0
M  V30 10053 H 938.18 -3.22577 0.269352 0
M  V30 10054 H 937.087 -2.74919 2.53714 0
M  V30 10055 H 938.42 -3.6304 3.32359 0
M  V30 10056 N 940.072 -1.23292 -0.981677 0
M  V30 10057 C 941.321 -1.05832 -1.71705 0
M  V30 10058 C 941.634 0.40514 -1.91358 0
M  V30 10059 O 942.84 0.699645 -2.6233 0
M  V30 10060 C 941.296 -1.84532 -3.08992 0
M  V30 10061 C 940.904 -3.35199 -2.9723 0
M  V30 10062 C 942.648 -1.75557 -3.86497 0
M  V30 10063 C 940.555 -4.06296 -4.29741 0
M  V30 10064 H 939.485 -0.39241 -0.64384 0
M  V30 10065 H 942.136 -1.47247 -1.09502 0
M  V30 10066 H 940.518 -1.35923 -3.71942 0
M  V30 10067 H 941.692 -3.91286 -2.43377 0
M  V30 10068 H 940.007 -3.44973 -2.332 0
M  V30 10069 H 942.604 -2.25989 -4.84596 0
M  V30 10070 H 942.947 -0.718101 -4.1006 0
M  V30 10071 H 943.48 -2.21771 -3.30246 0
M  V30 10072 H 940.219 -5.10344 -4.11375 0
M  V30 10073 H 939.739 -3.54997 -4.83464 0
M  V30 10074 H 941.418 -4.12519 -4.98434 0
M  V30 10075 N 941.55 1.18024 -1.04442 0
M  V30 10076 C 942.796 1.88631 -0.760907 0
M  V30 10077 C 943.151 1.79059 0.703957 0
M  V30 10078 O 942.444 1.18261 1.50748 0
M  V30 10079 C 942.638 3.37834 -1.16631 0
M  V30 10080 C 942.467 3.61929 -2.66904 0
M  V30 10081 C 941.237 3.7908 -3.34105 0
M  V30 10082 C 943.435 3.622 -3.65124 0
M  V30 10083 N 941.417 3.90949 -4.73321 0
M  V30 10084 C 942.788 3.79827 -4.90032 0
M  V30 10085 C 944.843 3.45308 -3.58701 0
M  V30 10086 C 943.546 3.82312 -6.09287 0
M  V30 10087 C 945.572 3.49078 -4.77387 0
M  V30 10088 C 944.934 3.67206 -6.01115 0
M  V30 10089 H 941.033 0.708704 -0.330549 0
M  V30 10090 H 943.617 1.41739 -1.33485 0
M  V30 10091 H 941.788 3.83413 -0.6204 0
M  V30 10092 H 943.52 3.96026 -0.83342 0
M  V30 10093 H 940.275 3.78619 -2.84508 0
M  V30 10094 H 940.699 4.00696 -5.45685 0
M  V30 10095 H 945.341 3.30236 -2.64015 0
M  V30 10096 H 943.059 3.96171 -7.04325 0
M  V30 10097 H 946.645 3.37277 -4.74063 0
M  V30 10098 H 945.525 3.70017 -6.91417 0
M  V30 10099 N 943.028 0.824394 1.34319 0
M  V30 10100 C 943.975 0.245282 2.29493 0
M  V30 10101 C 944.945 -0.630762 1.53657 0
M  V30 10102 O 946.13 -0.572094 1.82021 0
M  V30 10103 C 943.27 -0.585631 3.40095 0
M  V30 10104 C 942.383 0.312821 4.30866 0
M  V30 10105 C 941.518 -0.527801 5.28571 0
M  V30 10106 C 940.557 0.369946 6.10981 0
M  V30 10107 N 939.694 -0.43169 7.00772 0
M  V30 10108 H 944.534 1.06225 2.78425 0
M  V30 10109 H 942.071 0.53533 1.37013 0
M  V30 10110 H 944.029 -1.08271 4.02906 0
M  V30 10111 H 942.659 -1.3677 2.92393 0
M  V30 10112 H 941.711 0.928129 3.68904 0
M  V30 10113 H 943.023 1.00306 4.8861 0
M  V30 10114 H 942.177 -1.0893 5.96841 0
M  V30 10115 H 940.916 -1.25154 4.71368 0
M  V30 10116 H 939.921 0.943577 5.41643 0
M  V30 10117 H 941.146 1.09182 6.70266 0
M  V30 10118 H 939.092 -1.13908 6.46035 0
M  V30 10119 H 939.009 0.200133 7.55735 0
M  V30 10120 H 940.277 -0.975894 7.73367 0
M  V30 10121 N 944.506 -1.46559 0.579492 0
M  V30 10122 C 945.783 -1.956 -0.00287136 0
M  V30 10123 C 946.163 -1.52215 -1.46266 0
M  V30 10124 O 945.511 -0.771335 -2.15088 0
M  V30 10125 C 945.721 -3.48606 0.165824 0
M  V30 10126 C 947.069 -4.24588 0.0319807 0
M  V30 10127 O 948.093 -3.56075 0.094496 0
M  V30 10128 O 946.952 -5.46396 -0.106386 0
M  V30 10129 H 944.046 -0.825387 -0.0516274 0
M  V30 10130 H 946.592 -1.56858 0.647584 0
M  V30 10131 H 945.364 -3.7306 1.18076 0
M  V30 10132 H 944.987 -3.94169 -0.521212 0
M  V30 10133 N 945.984 -0.3171 -1.54377 0
M  V30 10134 C 947.23 0.287836 -2.00747 0
M  V30 10135 C 947.563 1.52292 -1.20502 0
M  V30 10136 O 946.838 1.92391 -0.285626 0
M  V30 10137 C 947.121 0.628423 -3.54574 0
M  V30 10138 C 946.974 -0.616922 -4.45549 0
M  V30 10139 C 948.293 1.44862 -4.15575 0
M  V30 10140 H 945.412 0.103144 -0.729747 0
M  V30 10141 H 948.054 -0.432396 -1.85014 0
M  V30 10142 H 946.204 1.24203 -3.68111 0
M  V30 10143 H 947.876 -1.25526 -4.43893 0
M  V30 10144 H 946.119 -1.24706 -4.15489 0
M  V30 10145 H 946.79 -0.334243 -5.50987 0
M  V30 10146 H 949.266 0.930015 -4.05574 0
M  V30 10147 H 948.142 1.6557 -5.23333 0
M  V30 10148 H 948.403 2.44279 -3.68484 0
M  V30 10149 N 947.462 1.57535 -0.0451378 0
M  V30 10150 C 948.372 2.14653 0.946646 0
M  V30 10151 C 949.388 1.10279 1.3459 0
M  V30 10152 O 950.564 1.42417 1.42405 0
M  V30 10153 C 947.629 2.67533 2.20515 0
M  V30 10154 C 946.69 3.86682 1.86481 0
M  V30 10155 C 945.923 4.37031 3.06332 0
M  V30 10156 O 946.146 3.86481 4.1951 0
M  V30 10157 O 945.08 5.28691 2.87697 0
M  V30 10158 H 948.906 2.99706 0.49091 0
M  V30 10159 H 946.491 1.48355 0.17641 0
M  V30 10160 H 948.373 3.01542 2.94365 0
M  V30 10161 H 947.048 1.85554 2.65238 0
M  V30 10162 H 945.955 3.57573 1.09966 0
M  V30 10163 H 947.288 4.69873 1.46562 0
M  V30 10164 N 948.94 -0.228186 1.55939 0
M  V30 10165 C 950.188 -0.951668 1.78291 0
M  V30 10166 C 950.509 -1.85132 0.612474 0
M  V30 10167 O 949.779 -1.92356 -0.370942 0
M  V30 10168 H 948.359 -0.354388 0.657585 0
M  V30 10169 H 951.021 -0.241635 1.93396 0
M  V30 10170 H 950.117 -1.56239 2.70177 0
M  V30 10171 N 950.418 -1.49637 -0.494624 0
M  V30 10172 C 951.667 -1.58691 -1.24499 0
M  V30 10173 C 951.98 -0.281763 -1.9356 0
M  V30 10174 O 953.186 -0.250925 -2.70338 0
M  V30 10175 C 951.642 -2.8002 -2.26091 0
M  V30 10176 C 951.25 -4.17318 -1.6294 0
M  V30 10177 C 952.994 -2.98407 -3.01916 0
M  V30 10178 C 950.901 -5.29862 -2.62679 0
M  V30 10179 H 949.831 -0.590888 -0.468367 0
M  V30 10180 H 952.482 -1.76034 -0.518112 0
M  V30 10181 H 950.864 -2.56185 -3.01969 0
M  V30 10182 H 952.038 -4.51315 -0.930108 0
M  V30 10183 H 950.353 -4.04342 -0.994819 0
M  V30 10184 H 952.95 -3.79658 -3.76516 0
M  V30 10185 H 953.293 -2.09214 -3.5991 0
M  V30 10186 H 953.826 -3.22312 -2.33152 0
M  V30 10187 H 950.565 -6.21134 -2.09458 0
M  V30 10188 H 950.085 -5.00311 -3.3083 0
M  V30 10189 H 951.764 -5.59461 -3.2498 0
M  V30 10190 N 951.896 0.746133 -1.38819 0
M  V30 10191 C 953.142 1.50768 -1.35635 0
M  V30 10192 C 953.475 1.94132 0.0512435 0
M  V30 10193 O 952.75 1.65979 1.01396 0
M  V30 10194 C 953.033 2.7551 -2.31875 0
M  V30 10195 C 952.886 2.38236 -3.81528 0
M  V30 10196 C 954.205 3.77566 -2.26124 0
M  V30 10197 H 951.324 0.546922 -0.494009 0
M  V30 10198 H 953.966 0.854017 -1.69725 0
M  V30 10199 H 952.116 3.31285 -2.02935 0
M  V30 10200 H 953.788 1.88178 -4.21173 0
M  V30 10201 H 952.031 1.70601 -3.98846 0
M  V30 10202 H 952.702 3.27517 -4.44339 0
M  V30 10203 H 955.178 3.31349 -2.51689 0
M  V30 10204 H 954.054 4.62531 -2.95561 0
M  V30 10205 H 954.315 4.23689 -1.26254 0
M  V30 10206 N 953.375 1.23811 0.975125 0
M  V30 10207 C 954.623 1.07124 1.71373 0
M  V30 10208 C 954.944 -0.391864 1.91022 0
M  V30 10209 O 954.214 -1.28041 1.48265 0
M  V30 10210 H 952.794 0.393415 0.635007 0
M  V30 10211 H 955.456 1.55612 1.17349 0
M  V30 10212 H 954.552 1.56338 2.7012 0
M  V30 10213 N 954.853 -1.17469 1.05066 0
M  V30 10214 C 955.783 -2.23635 0.671552 0
M  V30 10215 C 956.764 -1.66867 -0.33006 0
M  V30 10216 O 957.949 -1.93084 -0.207933 0
M  V30 10217 C 955.079 -3.47272 0.0441845 0
M  V30 10218 C 954.033 -4.16854 0.97042 0
M  V30 10219 C 953.359 -5.34299 0.206998 0
M  V30 10220 C 954.659 -4.69225 2.29401 0
M  V30 10221 H 956.353 -2.55602 1.55911 0
M  V30 10222 H 953.899 -1.2286 0.751101 0
M  V30 10223 H 955.852 -4.20756 -0.23282 0
M  V30 10224 H 954.576 -3.14568 -0.878311 0
M  V30 10225 H 953.235 -3.4528 1.23197 0
M  V30 10226 H 952.883 -4.97846 -0.718222 0
M  V30 10227 H 952.583 -5.81792 0.82416 0
M  V30 10228 H 954.107 -6.10568 -0.0627525 0
M  V30 10229 H 955.521 -5.34353 2.077 0
M  V30 10230 H 953.918 -5.27291 2.86503 0
M  V30 10231 H 954.988 -3.86102 2.93348 0
M  V30 10232 N 956.331 -0.831506 -1.3388 0
M  V30 10233 C 957.241 -0.261688 -2.33136 0
M  V30 10234 C 958.257 0.608429 -1.63016 0
M  V30 10235 O 959.433 0.514297 -1.94723 0
M  V30 10236 C 956.498 0.559957 -3.42148 0
M  V30 10237 C 955.559 -0.333569 -4.28002 0
M  V30 10238 C 954.792 0.448956 -5.31808 0
M  V30 10239 O 955.015 1.6814 -5.45055 0
M  V30 10240 O 953.949 -0.173197 -6.01651 0
M  V30 10241 H 957.775 -1.08343 -2.83717 0
M  V30 10242 H 955.36 -0.593849 -1.3709 0
M  V30 10243 H 957.242 1.02712 -4.08691 0
M  V30 10244 H 955.917 1.35888 -2.93796 0
M  V30 10245 H 954.824 -0.848416 -3.64352 0
M  V30 10246 H 956.157 -1.09707 -4.79818 0
M  V30 10247 N 957.809 1.4625 -0.587256 0
M  V30 10248 C 958.741 2.28482 0.181256 0
M  V30 10249 C 959.754 1.38777 0.851163 0
M  V30 10250 O 960.943 1.63336 0.719963 0
M  V30 10251 C 958.043 3.13944 1.27643 0
M  V30 10252 C 957.216 4.31802 0.697569 0
M  V30 10253 C 956.275 4.98626 1.68102 0
M  V30 10254 O 955.301 5.56075 1.21529 0
M  V30 10255 N 956.503 4.96051 3.0152 0
M  V30 10256 H 959.268 2.95079 -0.524267 0
M  V30 10257 H 956.829 1.56213 -0.425336 0
M  V30 10258 H 958.821 3.55513 1.93371 0
M  V30 10259 H 957.391 2.49391 1.88475 0
M  V30 10260 H 956.611 3.93961 -0.137293 0
M  V30 10261 H 957.899 5.07969 0.290696 0
M  V30 10262 H 957.297 4.5063 3.41978 0
M  V30 10263 H 955.854 5.41547 3.62725 0
M  V30 10264 N 959.287 0.325282 1.54207 0
M  V30 10265 C 960.533 -0.277185 2.00897 0
M  V30 10266 C 960.866 -1.51651 1.21308 0
M  V30 10267 O 960.141 -1.92237 0.295825 0
M  V30 10268 C 960.424 -0.60961 3.54902 0
M  V30 10269 C 960.277 0.640542 4.45216 0
M  V30 10270 C 961.596 -1.42656 4.16338 0
M  V30 10271 H 958.715 -0.0992722 0.730284 0
M  V30 10272 H 961.357 0.442201 1.84783 0
M  V30 10273 H 959.507 -1.22249 3.68765 0
M  V30 10274 H 961.179 1.27878 4.43221 0
M  V30 10275 H 959.422 1.26908 4.14821 0
M  V30 10276 H 960.093 0.363459 5.50802 0
M  V30 10277 H 962.569 -0.908494 4.06061 0
M  V30 10278 H 961.445 -1.62792 5.24204 0
M  V30 10279 H 961.706 -2.42321 3.69774 0
M  V30 10280 N 960.765 -1.57509 0.0534917 0
M  V30 10281 C 961.99 -1.97511 -0.632794 0
M  V30 10282 C 962.415 -0.930947 -1.63447 0
M  V30 10283 O 961.773 0.105558 -1.80992 0
M  V30 10284 C 961.821 -3.3658 -1.29407 0
M  V30 10285 O 960.925 -3.3467 -2.40977 0
M  V30 10286 H 960.266 -0.643349 -0.16431 0
M  V30 10287 H 962.796 -2.04232 0.12258 0
M  V30 10288 H 962.806 -3.73359 -1.64521 0
M  V30 10289 H 961.481 -4.12113 -0.559976 0
M  V30 10290 H 960.058 -3.09639 -2.07793 0
M  V30 10291 N 962.243 0.219913 -1.56058 0
M  V30 10292 C 963.468 0.965073 -1.83579 0
M  V30 10293 C 963.893 1.77092 -0.634024 0
M  V30 10294 O 963.251 1.76434 0.417205 0
M  V30 10295 C 963.299 1.85705 -3.09105 0
M  V30 10296 O 962.403 2.95261 -2.87914 0
M  V30 10297 H 961.744 0.273173 -0.605204 0
M  V30 10298 H 964.274 0.23273 -2.03272 0
M  V30 10299 H 964.284 2.26655 -3.39252 0
M  V30 10300 H 962.959 1.26476 -3.96203 0
M  V30 10301 H 961.536 2.58246 -2.69005 0
M  V30 10302 N 963.721 1.49897 0.486681 0
M  V30 10303 C 964.651 1.7054 1.59494 0
M  V30 10304 C 965.632 0.554184 1.60819 0
M  V30 10305 O 966.817 0.791617 1.77333 0
M  V30 10306 C 963.947 1.78517 2.97908 0
M  V30 10307 C 962.901 2.93571 3.11449 0
M  V30 10308 C 962.227 2.86674 4.51356 0
M  V30 10309 C 963.527 4.34308 2.90127 0
M  V30 10310 H 965.221 2.63329 1.42472 0
M  V30 10311 H 962.767 1.2672 0.683969 0
M  V30 10312 H 964.72 1.91544 3.75352 0
M  V30 10313 H 963.444 0.823381 3.16051 0
M  V30 10314 H 962.103 2.80169 2.36433 0
M  V30 10315 H 961.751 1.88373 4.66395 0
M  V30 10316 H 961.451 3.63903 4.61355 0
M  V30 10317 H 962.975 3.01728 5.30841 0
M  V30 10318 H 964.389 4.48317 3.57331 0
M  V30 10319 H 962.786 5.12869 3.11585 0
M  V30 10320 H 963.856 4.47759 1.86119 0
M  V30 10321 N 965.199 -0.738761 1.39212 0
M  V30 10322 C 966.447 -1.49529 1.35962 0
M  V30 10323 C 966.768 -1.94948 -0.0450152 0
M  V30 10324 O 966.038 -1.68717 -0.995552 0
M  V30 10325 H 964.618 -0.554692 0.500326 0
M  V30 10326 H 967.28 -0.877255 1.74041 0
M  V30 10327 H 966.376 -2.37919 2.01993 0
M  V30 10328 N 966.677 -1.24326 -0.968545 0
M  V30 10329 C 967.954 -0.990459 -1.68669 0
M  V30 10330 C 968.334 0.487487 -2.05394 0
M  V30 10331 O 967.682 1.46158 -1.75642 0
M  V30 10332 C 967.892 -1.91251 -2.91931 0
M  V30 10333 C 969.24 -2.18291 -3.6419 0
M  V30 10334 O 970.264 -1.88897 -3.01987 0
M  V30 10335 O 969.123 -2.68204 -4.76161 0
M  V30 10336 H 966.217 -0.374515 -0.737338 0
M  V30 10337 H 968.763 -1.35421 -1.02271 0
M  V30 10338 H 967.535 -2.9111 -2.61478 0
M  V30 10339 H 967.158 -1.55188 -3.66064 0
M  V30 10340 N 968.156 1.1691 -1.05688 0
M  V30 10341 C 969.404 1.86922 -0.768409 0
M  V30 10342 C 969.725 1.81735 0.706921 0
M  V30 10343 O 968.995 1.24671 1.51109 0
M  V30 10344 H 967.575 0.69203 -0.281253 0
M  V30 10345 H 970.237 1.41803 -1.33708 0
M  V30 10346 H 969.333 2.92528 -1.08783 0
M  V30 10347 N 969.634 0.838594 1.33437 0
M  V30 10348 C 971.045 0.490934 1.8013 0
M  V30 10349 C 971.396 -0.990024 1.6939 0
M  V30 10350 O 970.521 -1.77139 1.24302 0
M  V30 10351 C 971.116 0.884347 3.27055 0
M  V30 10352 C 969.675 0.588829 3.71766 0
M  V30 10353 C 968.822 1.09282 2.54858 0
M  V30 10354 H 971.773 1.02732 1.20962 0
M  V30 10355 H 971.794 0.194283 3.80004 0
M  V30 10356 H 971.306 1.96225 3.34839 0
M  V30 10357 H 969.407 -0.479018 3.69508 0
M  V30 10358 H 969.52 1.14387 4.65245 0
M  V30 10359 H 967.884 0.513702 2.49466 0
M  V30 10360 H 968.667 2.1775 2.65405 0
M  V30 10361 N 971.112 -1.45937 0.595003 0
M  V30 10362 C 972.523 -1.85908 0.171779 0
M  V30 10363 C 972.874 -1.497 -1.26824 0
M  V30 10364 O 971.999 -0.917688 -1.95978 0
M  V30 10365 C 972.594 -3.37425 0.304976 0
M  V30 10366 C 971.153 -3.76346 -0.0634635 0
M  V30 10367 C 970.3 -2.69926 0.635255 0
M  V30 10368 H 973.251 -1.36916 0.802471 0
M  V30 10369 H 973.272 -3.77632 -0.466313 0
M  V30 10370 H 972.784 -3.63747 1.35314 0
M  V30 10371 H 970.885 -3.55642 -1.11129 0
M  V30 10372 H 970.998 -4.78021 0.321419 0
M  V30 10373 H 969.362 -2.54592 0.0742054 0
M  V30 10374 H 970.145 -2.99086 1.68531 0
M  V30 10375 N 972.59 -0.333456 -1.54032 0
M  V30 10376 C 973.838 0.265608 -2.00347 0
M  V30 10377 C 974.159 1.51873 -1.2231 0
M  V30 10378 O 973.429 1.93142 -0.327549 0
M  V30 10379 H 972.009 0.101135 -0.740122 0
M  V30 10380 H 974.671 -0.452285 -1.8958 0
M  V30 10381 H 973.767 0.51511 -3.0782 0
M  V30 10382 N 974.068 1.57479 -0.061844 0
M  V30 10383 C 975.316 1.92727 0.608336 0
M  V30 10384 C 975.637 0.941799 1.70749 0
M  V30 10385 O 974.907 -0.0116608 1.95897 0
M  V30 10386 H 973.487 0.71145 0.2277 0
M  V30 10387 H 976.149 1.94546 -0.117359 0
M  V30 10388 H 975.245 2.9426 1.04007 0
M  V30 10389 N 975.546 -0.211634 1.56173 0
M  V30 10390 C 976.962 -0.56177 1.49386 0
M  V30 10391 C 977.162 -1.86666 0.758813 0
M  V30 10392 O 976.218 -2.50681 0.302534 0
M  V30 10393 C 977.531 -0.631815 2.93987 0
M  V30 10394 C 979.079 -0.721773 3.04564 0
M  V30 10395 C 979.554 -0.823075 4.50544 0
M  V30 10396 N 981.045 -0.887038 4.54627 0
M  V30 10397 C 981.78 -0.985304 5.64871 0
M  V30 10398 N 981.276 -1.0469 6.84844 0
M  V30 10399 N 983.069 -1.02121 5.52746 0
M  V30 10400 H 975.22 0.64452 2.02385 0
M  V30 10401 H 977.483 0.227466 0.920306 0
M  V30 10402 H 977.189 0.257592 3.50755 0
M  V30 10403 H 977.063 -1.4921 3.46433 0
M  V30 10404 H 979.45 -1.60162 2.47855 0
M  V30 10405 H 979.531 0.164385 2.55271 0
M  V30 10406 H 979.175 0.0523511 5.07873 0
M  V30 10407 H 979.105 -1.72479 4.97552 0
M  V30 10408 H 981.596 -0.849352 3.68231 0
M  V30 10409 H 981.909 -1.12193 7.64613 0
M  V30 10410 H 980.254 -1.01586 6.87536 0
M  V30 10411 H 983.445 -0.969814 4.57943 0
M  V30 10412 H 983.618 -1.09434 6.38693 0
M  V30 10413 N 977.024 -1.50153 -0.478725 0
M  V30 10414 C 978.435 -1.53706 -1.05978 0
M  V30 10415 C 978.786 -0.336112 -1.933 0
M  V30 10416 O 977.911 0.551803 -2.09246 0
M  V30 10417 C 978.506 -2.78541 -1.92874 0
M  V30 10418 C 977.065 -2.848 -2.46102 0
M  V30 10419 C 976.212 -2.47902 -1.24257 0
M  V30 10420 H 979.163 -1.56528 -0.261664 0
M  V30 10421 H 979.184 -2.59964 -2.77847 0
M  V30 10422 H 978.696 -3.6593 -1.29293 0
M  V30 10423 H 976.797 -2.01744 -3.13257 0
M  V30 10424 H 976.91 -3.87511 -2.81731 0
M  V30 10425 H 975.274 -2.0017 -1.57493 0
M  V30 10426 H 976.057 -3.3759 -0.62351 0
M  V30 10427 N 978.502 0.731368 -1.39602 0
M  V30 10428 C 979.918 1.03739 -1.21286 0
M  V30 10429 C 980.118 2.01353 -0.0769875 0
M  V30 10430 O 979.174 2.45978 0.570193 0
M  V30 10431 C 980.487 1.59621 -2.54837 0
M  V30 10432 C 982.035 1.71683 -2.61713 0
M  V30 10433 C 982.51 2.30973 -3.95494 0
M  V30 10434 N 984.001 2.38378 -3.97153 0
M  V30 10435 C 984.736 2.852 -4.97442 0
M  V30 10436 N 984.232 3.31891 -6.08129 0
M  V30 10437 N 986.025 2.84441 -4.84819 0
M  V30 10438 H 978.176 0.0840456 -2.12234 0
M  V30 10439 H 980.439 0.0999038 -0.942721 0
M  V30 10440 H 980.145 0.953608 -3.38525 0
M  V30 10441 H 980.019 2.58375 -2.74813 0
M  V30 10442 H 982.406 2.35064 -1.78406 0
M  V30 10443 H 982.487 0.715714 -2.45583 0
M  V30 10444 H 982.131 1.68219 -4.79234 0
M  V30 10445 H 982.061 3.31769 -4.08946 0
M  V30 10446 H 984.552 2.05382 -3.17217 0
M  V30 10447 H 984.865 3.66138 -6.8056 0
M  V30 10448 H 983.21 3.2989 -6.11717 0
M  V30 10449 H 986.401 2.4729 -3.97448 0
M  V30 10450 H 986.574 3.20616 -5.63124 0
M  V30 10451 N 979.98 1.24838 0.961938 0
M  V30 10452 C 981.396 1.01502 1.23165 0
M  V30 10453 C 981.596 -0.272651 1.99647 0
M  V30 10454 O 980.652 -0.987297 2.32398 0
M  V30 10455 C 981.965 2.23366 2.01316 0
M  V30 10456 C 983.513 2.28051 2.14387 0
M  V30 10457 C 983.988 3.49552 2.95935 0
M  V30 10458 N 985.479 3.49904 3.03515 0
M  V30 10459 C 986.214 4.40577 3.66987 0
M  V30 10460 N 985.71 5.41512 4.3213 0
M  V30 10461 N 987.503 4.28275 3.64056 0
M  V30 10462 H 979.654 2.07576 0.450086 0
M  V30 10463 H 981.917 0.911205 0.261551 0
M  V30 10464 H 981.623 3.16913 1.5251 0
M  V30 10465 H 981.497 2.25949 3.02038 0
M  V30 10466 H 983.884 1.35032 2.62393 0
M  V30 10467 H 983.965 2.29491 1.12994 0
M  V30 10468 H 983.609 4.42889 2.4862 0
M  V30 10469 H 983.539 3.45357 3.97538 0
M  V30 10470 H 986.03 2.76885 2.57183 0
M  V30 10471 H 986.343 6.06924 4.78396 0
M  V30 10472 H 984.688 5.45393 4.3078 0
M  V30 10473 H 987.879 3.48653 3.12344 0
M  V30 10474 H 988.052 4.99138 4.13237 0
M  V30 10475 N 981.458 -1.16348 1.06306 0
M  V30 10476 C 982.706 -1.86512 0.778311 0
M  V30 10477 C 983.027 -1.82107 -0.697273 0
M  V30 10478 O 982.297 -1.2547 -1.50446 0
M  V30 10479 H 980.877 -0.690529 0.284919 0
M  V30 10480 H 983.539 -1.41092 1.34458 0
M  V30 10481 H 982.635 -2.91947 1.10333 0
M  V30 10482 N 982.937 -0.845659 -1.3299 0
M  V30 10483 C 983.87 -0.228695 -2.27051 0
M  V30 10484 C 984.848 0.62812 -1.49978 0
M  V30 10485 O 986.032 0.586897 -1.79131 0
M  V30 10486 C 983.159 0.678251 -3.31839 0
M  V30 10487 C 982.205 -0.103994 -4.26373 0
M  V30 10488 S 983.038 -1.46642 -5.1503 0
M  V30 10489 C 984.194 -0.564953 -6.23345 0
M  V30 10490 H 984.427 -1.02609 -2.79032 0
M  V30 10491 H 981.96 -0.642786 -1.40384 0
M  V30 10492 H 983.918 1.1959 -3.92694 0
M  V30 10493 H 982.579 1.44937 -2.78661 0
M  V30 10494 H 981.772 0.586406 -5.00577 0
M  V30 10495 H 981.374 -0.552927 -3.6989 0
M  V30 10496 H 983.666 0.234466 -6.77094 0
M  V30 10497 H 984.609 -1.27736 -6.96483 0
M  V30 10498 H 985.017 -0.143286 -5.64318 0
M  V30 10499 N 984.415 1.45619 -0.602734 0
M  V30 10500 C 985.662 2.02272 -0.0960337 0
M  V30 10501 C 985.99 1.47177 1.27159 0
M  V30 10502 O 985.245 0.634593 1.85125 0
M  V30 10503 C 985.544 3.574 -0.00157909 0
M  V30 10504 C 985.21 4.31626 -1.30422 0
M  V30 10505 C 983.872 4.51622 -1.66106 0
M  V30 10506 C 986.224 4.74091 -2.16535 0
M  V30 10507 C 983.552 5.11338 -2.87663 0
M  V30 10508 C 985.904 5.35151 -3.37336 0
M  V30 10509 C 984.568 5.53371 -3.73278 0
M  V30 10510 H 983.838 0.740166 -0.0351412 0
M  V30 10511 H 986.485 1.74744 -0.783382 0
M  V30 10512 H 984.79 3.84179 0.769008 0
M  V30 10513 H 986.487 3.98934 0.406549 0
M  V30 10514 H 983.077 4.16372 -1.01647 0
M  V30 10515 H 987.261 4.5838 -1.90266 0
M  V30 10516 H 982.517 5.23634 -3.15622 0
M  V30 10517 H 986.691 5.67011 -4.04316 0
M  V30 10518 H 984.318 5.99412 -4.67556 0
M  V30 10519 N 985.893 0.34162 1.53853 0
M  V30 10520 C 987.309 -0.0103769 1.59597 0
M  V30 10521 C 987.509 -1.48897 1.35764 0
M  V30 10522 O 986.565 -2.24743 1.15095 0
M  V30 10523 C 987.878 0.424067 2.97695 0
M  V30 10524 C 989.426 0.376247 3.1073 0
M  V30 10525 C 989.901 0.786129 4.51203 0
M  V30 10526 N 991.392 0.74024 4.57247 0
M  V30 10527 C 992.127 1.02937 5.64085 0
M  V30 10528 N 991.623 1.38655 6.78783 0
M  V30 10529 N 993.416 0.953734 5.5395 0
M  V30 10530 H 985.567 1.30477 1.67599 0
M  V30 10531 H 987.83 0.531753 0.78482 0
M  V30 10532 H 987.536 1.45493 3.20195 0
M  V30 10533 H 987.41 -0.201713 3.7666 0
M  V30 10534 H 989.797 -0.645441 2.87955 0
M  V30 10535 H 989.878 1.0372 2.33828 0
M  V30 10536 H 989.522 1.80582 4.74713 0
M  V30 10537 H 989.452 0.102671 5.265 0
M  V30 10538 H 991.943 0.476763 3.7488 0
M  V30 10539 H 992.256 1.59206 7.56223 0
M  V30 10540 H 990.601 1.42498 6.80235 0
M  V30 10541 H 993.792 0.674044 4.63222 0
M  V30 10542 H 993.965 1.18241 6.37121 0
M  V30 10543 N 987.371 -1.57444 0.0701946 0
M  V30 10544 C 988.599 -1.97754 -0.608358 0
M  V30 10545 C 989.014 -0.948496 -1.63245 0
M  V30 10546 O 988.371 0.065046 -1.82384 0
M  V30 10547 C 988.422 -3.38142 -1.27836 0
M  V30 10548 O 988.143 -4.37104 -0.295255 0
M  V30 10549 C 989.644 -3.93318 -2.04489 0
M  V30 10550 H 986.864 -0.650398 -0.164997 0
M  V30 10551 H 989.408 -2.04006 0.142124 0
M  V30 10552 H 987.563 -3.32982 -1.97994 0
M  V30 10553 H 987.977 -5.18732 -0.77574 0
M  V30 10554 H 989.451 -4.93774 -2.46762 0
M  V30 10555 H 989.928 -3.29774 -2.90079 0
M  V30 10556 H 990.534 -4.01875 -1.39201 0
M  V30 10557 N 988.849 0.203349 -1.56283 0
M  V30 10558 C 990.095 0.926381 -1.80405 0
M  V30 10559 C 990.428 1.8325 -0.642883 0
M  V30 10560 O 989.703 1.91196 0.356998 0
M  V30 10561 C 989.986 1.74972 -3.14733 0
M  V30 10562 C 989.839 0.868866 -4.41328 0
M  V30 10563 C 991.158 2.72394 -3.45672 0
M  V30 10564 H 988.277 0.335346 -0.656286 0
M  V30 10565 H 990.919 0.1942 -1.89005 0
M  V30 10566 H 989.069 2.37394 -3.07533 0
M  V30 10567 H 990.741 0.259986 -4.60567 0
M  V30 10568 H 988.984 0.175161 -4.33446 0
M  V30 10569 H 989.655 1.47975 -5.31796 0
M  V30 10570 H 992.131 2.20105 -3.53119 0
M  V30 10571 H 991.007 3.27091 -4.40798 0
M  V30 10572 H 991.268 3.51035 -2.6875 0
M  V30 10573 N 990.327 1.50405 0.470755 0
M  V30 10574 C 991.575 1.61092 1.2204 0
M  V30 10575 C 991.896 0.313487 1.92464 0
M  V30 10576 O 991.166 -0.669043 1.84121 0
M  V30 10577 H 989.746 0.593618 0.45346 0
M  V30 10578 H 992.408 1.87184 0.542985 0
M  V30 10579 H 991.504 2.42222 1.96812 0
M  V30 10580 N 991.805 -0.723954 1.39988 0
M  V30 10581 C 992.737 -1.84859 1.35498 0
M  V30 10582 C 993.75 -1.60681 0.261812 0
M  V30 10583 O 994.939 -1.7071 0.521566 0
M  V30 10584 C 992.039 -3.21103 1.08381 0
M  V30 10585 C 991.212 -3.72546 2.2919 0
M  V30 10586 C 990.271 -4.8738 1.9836 0
M  V30 10587 O 989.297 -5.00467 2.71149 0
M  V30 10588 N 990.499 -5.72566 0.956461 0
M  V30 10589 H 993.264 -1.89212 2.3242 0
M  V30 10590 H 990.825 -0.905152 1.34233 0
M  V30 10591 H 992.817 -3.9551 0.857564 0
M  V30 10592 H 991.387 -3.1195 0.201549 0
M  V30 10593 H 990.607 -2.89365 2.67697 0
M  V30 10594 H 991.895 -4.03652 3.09746 0
M  V30 10595 H 991.293 -5.64595 0.353444 0
M  V30 10596 H 989.85 -6.46993 0.790118 0
M  V30 10597 N 993.283 -1.25346 -0.955304 0
M  V30 10598 C 994.213 -1.08152 -2.06943 0
M  V30 10599 C 995.194 0.00922598 -1.70097 0
M  V30 10600 O 996.379 -0.160181 -1.93538 0
M  V30 10601 C 993.509 -0.698745 -3.40198 0
M  V30 10602 C 992.463 -1.73965 -3.9105 0
M  V30 10603 C 991.789 -1.21158 -5.20792 0
M  V30 10604 C 993.089 -3.13829 -4.17503 0
M  V30 10605 H 994.783 -2.01345 -2.21586 0
M  V30 10606 H 992.329 -0.969459 -1.06478 0
M  V30 10607 H 994.282 -0.565394 -4.1759 0
M  V30 10608 H 993.006 0.268892 -3.25491 0
M  V30 10609 H 991.665 -1.86143 -3.15827 0
M  V30 10610 H 991.313 -0.234193 -5.02455 0
M  V30 10611 H 991.013 -1.90728 -5.55785 0
M  V30 10612 H 992.537 -1.09061 -6.00781 0
M  V30 10613 H 993.951 -3.04809 -4.85556 0
M  V30 10614 H 992.348 -3.80863 -4.63749 0
M  V30 10615 H 993.418 -3.6094 -3.23806 0
M  V30 10616 N 994.761 1.15782 -1.06922 0
M  V30 10617 C 995.991 1.90079 -0.809545 0
M  V30 10618 C 996.399 1.78028 0.640523 0
M  V30 10619 O 995.742 1.12692 1.45073 0
M  V30 10620 C 995.804 3.41179 -1.13302 0
M  V30 10621 C 995.468 3.77015 -2.5828 0
M  V30 10622 C 996.465 3.78403 -3.56521 0
M  V30 10623 C 994.15 4.07455 -2.93745 0
M  V30 10624 C 996.144 4.09729 -4.88264 0
M  V30 10625 C 993.831 4.38446 -4.25686 0
M  V30 10626 C 994.829 4.39564 -5.22755 0
M  V30 10627 O 994.517 4.69814 -6.52326 0
M  V30 10628 H 994.249 0.609397 -0.292595 0
M  V30 10629 H 996.803 1.47654 -1.42784 0
M  V30 10630 H 995.033 3.83982 -0.457676 0
M  V30 10631 H 996.722 3.96759 -0.856586 0
M  V30 10632 H 997.488 3.54991 -3.30464 0
M  V30 10633 H 993.367 4.05746 -2.1884 0
M  V30 10634 H 996.911 4.10516 -5.64023 0
M  V30 10635 H 992.808 4.61325 -4.51497 0
M  V30 10636 H 993.576 4.87598 -6.57412 0
M  V30 10637 N 996.239 0.8527 1.3254 0
M  V30 10638 C 997.186 0.293905 2.28921 0
M  V30 10639 C 998.156 -0.598027 1.54961 0
M  V30 10640 O 999.341 -0.533355 1.83194 0
M  V30 10641 C 996.481 -0.513361 3.4126 0
M  V30 10642 C 995.594 0.404144 4.30105 0
M  V30 10643 C 994.729 -0.415564 5.29572 0
M  V30 10644 C 993.768 0.499461 6.10059 0
M  V30 10645 N 992.905 -0.282949 7.0153 0
M  V30 10646 H 997.745 1.12107 2.76109 0
M  V30 10647 H 995.282 0.564272 1.35847 0
M  V30 10648 H 997.24 -0.997008 4.05112 0
M  V30 10649 H 995.87 -1.30537 2.95229 0
M  V30 10650 H 994.922 1.00617 3.66852 0
M  V30 10651 H 996.234 1.10648 4.86373 0
M  V30 10652 H 995.388 -0.962458 5.99017 0
M  V30 10653 H 994.127 -1.15127 4.73917 0
M  V30 10654 H 993.132 1.05825 5.39519 0
M  V30 10655 H 994.357 1.23375 6.67799 0
M  V30 10656 H 992.303 -1.00179 6.48306 0
M  V30 10657 H 992.22 0.36039 7.55141 0
M  V30 10658 H 993.488 -0.811632 7.75263 0
M  V30 10659 N 997.718 -1.45297 0.610449 0
M  V30 10660 C 998.628 -2.34349 -0.108475 0
M  V30 10661 C 999.644 -1.51409 -0.857397 0
M  V30 10662 O 1000.82 -1.84202 -0.814337 0
M  V30 10663 C 997.885 -3.29072 -1.09144 0
M  V30 10664 C 996.946 -4.27918 -0.344165 0
M  V30 10665 C 996.179 -5.18116 -1.28031 0
M  V30 10666 O 996.402 -5.11802 -2.51824 0
M  V30 10667 O 995.336 -5.96879 -0.775821 0
M  V30 10668 H 999.162 -2.97232 0.623421 0
M  V30 10669 H 996.747 -1.44728 0.3707 0
M  V30 10670 H 998.629 -3.87433 -1.65751 0
M  V30 10671 H 997.304 -2.68749 -1.80431 0
M  V30 10672 H 996.211 -3.73164 0.264437 0
M  V30 10673 H 997.544 -4.91104 0.328275 0
M  V30 10674 N 999.196 -0.349774 -1.5367 0
M  V30 10675 C 1000.42 0.248692 -2.05904 0
M  V30 10676 C 1000.85 1.42942 -1.22267 0
M  V30 10677 O 1000.2 1.79732 -0.237899 0
M  V30 10678 C 1000.25 0.635639 -3.54953 0
M  V30 10679 O 999.356 1.7349 -3.74132 0
M  V30 10680 H 998.697 0.0399477 -0.662797 0
M  V30 10681 H 1001.23 -0.505795 -1.9825 0
M  V30 10682 H 1001.24 0.911064 -3.97698 0
M  V30 10683 H 999.912 -0.227805 -4.15276 0
M  V30 10684 H 998.489 1.45626 -3.43289 0
M  V30 10685 N 1000.67 1.57404 -0.0785433 0
M  V30 10686 C 1001.6 2.16131 0.883726 0
M  V30 10687 C 1002.58 1.09015 1.30575 0
M  V30 10688 O 1003.77 1.3708 1.37559 0
M  V30 10689 C 1000.9 2.72836 2.1489 0
M  V30 10690 C 999.854 3.85178 1.86605 0
M  V30 10691 C 999.18 4.28516 3.1981 0
M  V30 10692 C 1000.48 5.09118 1.16601 0
M  V30 10693 H 1002.17 2.9679 0.394484 0
M  V30 10694 H 999.72 1.42763 0.188304 0
M  V30 10695 H 1001.67 3.12567 2.8263 0
M  V30 10696 H 1000.4 1.89408 2.66068 0
M  V30 10697 H 999.056 3.45962 1.21268 0
M  V30 10698 H 998.704 3.42 3.68843 0
M  V30 10699 H 998.404 5.04249 3.01674 0
M  V30 10700 H 999.928 4.70868 3.88737 0
M  V30 10701 H 1001.34 5.46123 1.74422 0
M  V30 10702 H 999.739 5.90173 1.087 0
M  V30 10703 H 1000.81 4.8468 0.146138 0
M  V30 10704 N 1002.15 -0.195058 1.56388 0
M  V30 10705 C 1003.38 -0.935745 1.85091 0
M  V30 10706 C 1003.8 -1.76061 0.662118 0
M  V30 10707 O 1003.16 -1.77076 -0.389083 0
M  V30 10708 C 1003.21 -1.80764 3.1202 0
M  V30 10709 O 1002.31 -2.90643 2.92575 0
M  V30 10710 H 1001.65 -0.26351 0.609474 0
M  V30 10711 H 1004.18 -0.200362 2.03617 0
M  V30 10712 H 1004.19 -2.21229 3.42815 0
M  V30 10713 H 1002.87 -1.20157 3.98165 0
M  V30 10714 H 1001.44 -2.53934 2.73079 0
M  V30 10715 N 1003.63 -1.50653 -0.462772 0
M  V30 10716 C 1005.05 -1.38263 -0.797213 0
M  V30 10717 C 1005.25 -0.445172 -1.96521 0
M  V30 10718 O 1004.3 0.10913 -2.52264 0
M  V30 10719 C 1005.61 -2.798 -1.10146 0
M  V30 10720 C 1007.16 -2.88774 -1.20742 0
M  V30 10721 C 1007.64 -4.31163 -1.54476 0
M  V30 10722 N 1009.13 -4.34152 -1.61451 0
M  V30 10723 C 1009.86 -5.4133 -1.89074 0
M  V30 10724 N 1009.36 -6.58705 -2.1466 0
M  V30 10725 N 1011.15 -5.28783 -1.90645 0
M  V30 10726 H 1003.3 -2.10172 0.30684 0
M  V30 10727 H 1005.57 -0.945046 0.0747862 0
M  V30 10728 H 1005.27 -3.50276 -0.316207 0
M  V30 10729 H 1005.15 -3.17559 -2.03559 0
M  V30 10730 H 1007.53 -2.18512 -1.98334 0
M  V30 10731 H 1007.61 -2.54547 -0.252904 0
M  V30 10732 H 1007.26 -5.01965 -0.774207 0
M  V30 10733 H 1007.19 -4.62883 -2.51092 0
M  V30 10734 H 1009.68 -3.49519 -1.43684 0
M  V30 10735 H 1009.99 -7.36192 -2.35035 0
M  V30 10736 H 1008.34 -6.61866 -2.12035 0
M  V30 10737 H 1011.53 -4.36078 -1.70158 0
M  V30 10738 H 1011.7 -6.12396 -2.11836 0
M  V30 10739 N 1005.11 0.71652 -1.4037 0
M  V30 10740 C 1006.04 1.84345 -1.43315 0
M  V30 10741 C 1007.02 1.67537 -0.294186 0
M  V30 10742 O 1008.2 1.87582 -0.502671 0
M  V30 10743 C 1005.33 3.2229 -1.29408 0
M  V30 10744 C 1004.29 3.53769 -2.40897 0
M  V30 10745 C 1003.61 4.90847 -2.12068 0
M  V30 10746 C 1004.91 3.54862 -3.83237 0
M  V30 10747 H 1006.61 1.82138 -2.37626 0
M  V30 10748 H 1004.15 0.874873 -1.14376 0
M  V30 10749 H 1006.11 4.00819 -1.30085 0
M  V30 10750 H 1004.83 3.2507 -0.31573 0
M  V30 10751 H 1003.49 2.77579 -2.39469 0
M  V30 10752 H 1003.14 4.90229 -1.12626 0
M  V30 10753 H 1002.84 5.12875 -2.86762 0
M  V30 10754 H 1004.36 5.71711 -2.14426 0
M  V30 10755 H 1005.78 4.23432 -3.86494 0
M  V30 10756 H 1004.17 3.88416 -4.57442 0
M  V30 10757 H 1005.24 2.54266 -4.12888 0
M  V30 10758 N 1006.59 1.25851 0.948643 0
M  V30 10759 C 1007.52 1.0108 2.04593 0
M  V30 10760 C 1008.5 -0.0619691 1.62482 0
M  V30 10761 O 1009.68 0.0789196 1.88335 0
M  V30 10762 C 1006.81 0.529174 3.34541 0
M  V30 10763 C 1005.85 1.59337 3.95618 0
M  V30 10764 S 1006.69 3.18026 4.30836 0
M  V30 10765 C 1007.84 2.71613 5.63895 0
M  V30 10766 H 1008.08 1.93988 2.2529 0
M  V30 10767 H 1005.61 1.09448 1.08906 0
M  V30 10768 H 1007.57 0.25795 4.09689 0
M  V30 10769 H 1006.23 -0.37951 3.11799 0
M  V30 10770 H 1005.42 1.20722 4.89328 0
M  V30 10771 H 1005.02 1.81559 3.26975 0
M  V30 10772 H 1007.32 2.15612 6.42275 0
M  V30 10773 H 1008.26 3.63986 6.07387 0
M  V30 10774 H 1008.67 2.11417 5.23415 0
M  V30 10775 N 1008.06 -1.15214 1.07534 0
M  V30 10776 C 1009.03 -2.18209 0.701237 0
M  V30 10777 C 1010.03 -1.58693 -0.25946 0
M  V30 10778 O 1011.22 -1.74154 -0.0401744 0
M  V30 10779 C 1008.35 -3.40883 0.0338703 0
M  V30 10780 H 1009.54 -2.5282 1.61314 0
M  V30 10781 H 1007.1 -1.29707 0.872105 0
M  V30 10782 H 1007.83 -3.11843 -0.890187 0
M  V30 10783 H 1007.62 -3.85342 0.72486 0
M  V30 10784 H 1009.11 -4.17056 -0.213152 0
M  V30 10785 N 1009.54 -0.859717 -1.32086 0
M  V30 10786 C 1010.77 -0.479724 -2.01262 0
M  V30 10787 C 1011.19 0.924985 -1.64589 0
M  V30 10788 O 1010.54 1.60439 -0.869803 0
M  V30 10789 C 1010.59 -0.615128 -3.56228 0
M  V30 10790 O 1010.31 -1.96451 -3.91585 0
M  V30 10791 C 1011.82 -0.234804 -4.42678 0
M  V30 10792 H 1009.04 -0.188007 -0.644123 0
M  V30 10793 H 1011.58 -1.15805 -1.68551 0
M  V30 10794 H 1009.73 0.0155268 -3.87397 0
M  V30 10795 H 1010.15 -1.96491 -4.86304 0
M  V30 10796 H 1011.62 -0.380534 -5.50687 0
M  V30 10797 H 1012.1 0.825189 -4.31378 0
M  V30 10798 H 1012.71 -0.840739 -4.16907 0
M  V30 10799 N 1011.02 1.44971 -0.618145 0
M  V30 10800 C 1011.95 2.33357 0.0815955 0
M  V30 10801 C 1012.93 1.47451 0.848072 0
M  V30 10802 O 1014.12 1.762 0.816532 0
M  V30 10803 C 1011.25 3.30324 1.07253 0
M  V30 10804 C 1010.2 4.25948 0.418563 0
M  V30 10805 C 1009.53 5.12685 1.51849 0
M  V30 10806 C 1010.83 5.18024 -0.66697 0
M  V30 10807 H 1012.52 2.92115 -0.656442 0
M  V30 10808 H 1010.07 1.40465 -0.317129 0
M  V30 10809 H 1012.02 3.91033 1.57069 0
M  V30 10810 H 1010.74 2.69748 1.8413 0
M  V30 10811 H 1009.4 3.66553 -0.0588308 0
M  V30 10812 H 1009.05 4.4847 2.2778 0
M  V30 10813 H 1008.75 5.7747 1.08637 0
M  V30 10814 H 1010.27 5.76264 2.01871 0
M  V30 10815 H 1011.69 5.72744 -0.252448 0
M  V30 10816 H 1010.09 5.91343 -1.02146 0
M  V30 10817 H 1011.16 4.59817 -1.53936 0
M  V30 10818 N 1012.5 0.357919 1.53482 0
M  V30 10819 C 1013.72 -0.237769 2.06033 0
M  V30 10820 C 1014.15 -1.42292 1.23023 0
M  V30 10821 O 1013.51 -1.79604 0.247427 0
M  V30 10822 C 1013.55 -0.616806 3.55286 0
M  V30 10823 O 1012.66 -1.71503 3.75047 0
M  V30 10824 H 1012 -0.0364322 0.663 0
M  V30 10825 H 1014.53 0.516301 1.97979 0
M  V30 10826 H 1014.54 -0.88996 3.98175 0
M  V30 10827 H 1013.21 0.249825 4.15149 0
M  V30 10828 H 1011.79 -1.43803 3.44057 0
M  V30 10829 N 1013.98 -1.5736 0.0868897 0
M  V30 10830 C 1014.92 -2.14793 -0.892571 0
M  V30 10831 C 1015.92 -1.08866 -1.29787 0
M  V30 10832 O 1017.12 -1.27223 -1.27335 0
M  V30 10833 H 1013.5 -0.686998 -0.305838 0
M  V30 10834 H 1015.47 -2.95927 -0.383393 0
M  V30 10835 C 1014.22 -2.73646 -2.14507 0
M  V30 10836 H 1013.54 -3.54835 -1.84207 0
M  V30 10837 H 1014.98 -3.17409 -2.81118 0
M  V30 10838 C 1013.44 -1.69138 -2.91366 0
M  V30 10839 O 1013.97 -1.12539 -3.85614 0
M  V30 10840 N 1012.18 -1.3982 -2.54752 0
M  V30 10841 H 1011.72 -1.86035 -1.78182 0
M  V30 10842 H 1011.68 -0.701316 -3.06478 0
M  V30 10843 N 1015.45 0.186762 -1.56489 0
M  V30 10844 C 1016.68 0.921832 -1.85229 0
M  V30 10845 C 1017.1 1.76496 -0.670416 0
M  V30 10846 O 1016.45 1.78899 0.360758 0
M  V30 10847 C 1016.51 1.81121 -3.12854 0
M  V30 10848 O 1016.23 1.00211 -4.26485 0
M  V30 10849 C 1017.73 2.65725 -3.54831 0
M  V30 10850 H 1014.95 0.268563 -0.61491 0
M  V30 10851 H 1017.49 0.191505 -2.03601 0
M  V30 10852 H 1015.65 2.49506 -2.96354 0
M  V30 10853 H 1016.06 1.60893 -4.99213 0
M  V30 10854 H 1017.53 3.23771 -4.47075 0
M  V30 10855 H 1018.01 3.39843 -2.78215 0
M  V30 10856 H 1018.62 2.02698 -3.7389 0
M  V30 10857 N 1016.93 1.50896 0.454776 0
M  V30 10858 C 1017.88 1.71497 1.57136 0
M  V30 10859 C 1018.87 0.58098 1.59126 0
M  V30 10860 O 1020.08 0.761916 1.63079 0
M  V30 10861 H 1016.46 0.54158 0.521724 0
M  V30 10862 H 1018.43 2.65129 1.36928 0
M  V30 10863 C 1017.18 1.84125 2.94947 0
M  V30 10864 H 1016.5 2.7078 2.9414 0
M  V30 10865 H 1017.94 2.02558 3.72487 0
M  V30 10866 C 1016.4 0.596752 3.31573 0
M  V30 10867 O 1016.93 -0.256632 4.00879 0
M  V30 10868 N 1015.13 0.445958 2.87158 0
M  V30 10869 H 1014.68 1.14146 2.30929 0
M  V30 10870 H 1014.64 -0.385519 3.12027 0
M  V30 10871 N 1018.41 -0.709066 1.40748 0
M  V30 10872 C 1019.82 -1.28847 1.35112 0
M  V30 10873 C 1020.17 -1.9618 0.0277149 0
M  V30 10874 O 1019.3 -1.97955 -0.874233 0
M  V30 10875 C 1019.89 -2.34306 2.44716 0
M  V30 10876 C 1018.45 -2.87856 2.4252 0
M  V30 10877 C 1017.6 -1.61723 2.25257 0
M  V30 10878 H 1020.55 -0.504742 1.50459 0
M  V30 10879 H 1020.57 -3.15297 2.12998 0
M  V30 10880 H 1020.08 -1.85271 3.41022 0
M  V30 10881 H 1018.18 -3.41103 1.49931 0
M  V30 10882 H 1018.3 -3.39205 3.38344 0
M  V30 10883 H 1016.66 -1.87032 1.7289 0
M  V30 10884 H 1017.44 -1.14703 3.23571 0
M  V30 10885 N 1019.89 -1.26353 -0.941956 0
M  V30 10886 C 1021.11 -1.14731 -1.72776 0
M  V30 10887 C 1021.54 0.293766 -1.85792 0
M  V30 10888 O 1020.9 1.21284 -1.34759 0
M  V30 10889 C 1020.95 -1.82041 -3.11277 0
M  V30 10890 O 1020.05 -1.10867 -3.97218 0
M  V30 10891 H 1019.39 -0.399823 -0.53013 0
M  V30 10892 H 1021.92 -1.67157 -1.17981 0
M  V30 10893 H 1021.93 -1.88834 -3.61671 0
M  V30 10894 H 1020.61 -2.86879 -3.0112 0
M  V30 10895 H 1019.18 -1.12044 -3.55669 0
M  V30 10896 N 1021.37 1.14642 -1.08144 0
M  V30 10897 C 1022.61 1.85617 -0.809484 0
M  V30 10898 C 1022.94 1.8279 0.664672 0
M  V30 10899 O 1022.2 1.25178 1.50429 0
M  V30 10900 C 1022.5 3.33953 -1.2732 0
M  V30 10901 C 1022.16 3.56969 -2.7547 0
M  V30 10902 C 1020.82 3.6296 -3.15933 0
M  V30 10903 C 1023.18 3.66014 -3.71057 0
M  V30 10904 C 1020.5 3.75515 -4.50783 0
M  V30 10905 C 1022.86 3.80094 -5.05679 0
M  V30 10906 C 1021.52 3.84333 -5.45751 0
M  V30 10907 H 1020.79 0.67922 -0.296211 0
M  V30 10908 H 1023.44 1.35433 -1.35389 0
M  V30 10909 H 1021.74 3.86399 -0.648329 0
M  V30 10910 H 1023.44 3.87291 -1.03957 0
M  V30 10911 H 1020.03 3.52953 -2.4315 0
M  V30 10912 H 1024.21 3.60679 -3.40917 0
M  V30 10913 H 1019.47 3.77057 -4.81288 0
M  V30 10914 H 1023.64 3.86035 -5.79612 0
M  V30 10915 H 1021.27 3.93814 -6.50242 0
M  V30 10916 N 1022.85 0.866709 1.31628 0
M  V30 10917 C 1024.09 0.476731 1.97117 0
M  V30 10918 C 1024.42 -0.967813 1.68366 0
M  V30 10919 O 1023.7 -1.68101 0.978377 0
M  V30 10920 C 1023.98 0.730561 3.52611 0
M  V30 10921 C 1023.84 2.2244 3.90948 0
M  V30 10922 C 1025.15 0.19488 4.39668 0
M  V30 10923 H 1022.27 0.174682 0.715999 0
M  V30 10924 H 1024.92 1.08735 1.5581 0
M  V30 10925 H 1023.07 0.210834 3.87927 0
M  V30 10926 H 1024.74 2.81113 3.6575 0
M  V30 10927 H 1022.98 2.69824 3.39673 0
M  V30 10928 H 1023.65 2.35266 4.99353 0
M  V30 10929 H 1026.13 0.639478 4.11157 0
M  V30 10930 H 1025 0.401958 5.47426 0
M  V30 10931 H 1025.26 -0.90302 4.32779 0
M  V30 10932 N 1024.32 -1.44642 0.625825 0
M  V30 10933 C 1025.74 -1.56925 0.290992 0
M  V30 10934 C 1025.94 -1.61424 -1.20601 0
M  V30 10935 O 1025 -1.55439 -1.98985 0
M  V30 10936 C 1026.31 -2.84343 0.978242 0
M  V30 10937 C 1027.86 -2.98047 0.955882 0
M  V30 10938 C 1028.33 -4.2826 1.62349 0
M  V30 10939 N 1029.82 -4.35062 1.58983 0
M  V30 10940 C 1030.56 -5.34524 2.07538 0
M  V30 10941 N 1030.05 -6.4042 2.6426 0
M  V30 10942 N 1031.85 -5.25998 1.98198 0
M  V30 10943 H 1024 -1.39965 1.59761 0
M  V30 10944 H 1026.26 -0.670368 0.670306 0
M  V30 10945 H 1025.97 -2.86985 2.03304 0
M  V30 10946 H 1025.84 -3.73699 0.512726 0
M  V30 10947 H 1028.23 -2.94961 -0.0904292 0
M  V30 10948 H 1028.31 -2.10053 1.45984 0
M  V30 10949 H 1027.95 -4.32105 2.66923 0
M  V30 10950 H 1027.88 -5.15102 1.09441 0
M  V30 10951 H 1030.37 -3.59147 1.17565 0
M  V30 10952 H 1030.69 -7.1259 2.99056 0
M  V30 10953 H 1029.03 -6.41121 2.68308 0
M  V30 10954 H 1032.22 -4.42178 1.5361 0
M  V30 10955 H 1032.4 -6.03359 2.3635 0
M  V30 10956 N 1025.8 -0.366053 -1.5329 0
M  V30 10957 C 1027.04 0.223558 -2.03174 0
M  V30 10958 C 1027.41 1.45955 -1.24745 0
M  V30 10959 O 1028.61 2.12481 -1.64637 0
M  V30 10960 C 1026.88 0.507899 -3.53773 0
M  V30 10961 S 1028.44 1.07111 -4.25526 0
M  V30 10962 H 1025.25 0.0650309 -0.70802 0
M  V30 10963 H 1027.86 -0.509028 -1.88757 0
M  V30 10964 H 1026.56 -0.39913 -4.08455 0
M  V30 10965 H 1026.09 1.26954 -3.72352 0
M  V30 10966 H 1028.11 2.35533 -4.36737 0
M  V30 10967 N 1027.28 1.57312 -0.0952337 0
M  V30 10968 C 1028.53 1.93533 0.568131 0
M  V30 10969 C 1028.84 0.979121 1.6933 0
M  V30 10970 O 1030.05 1.23506 2.41782 0
M  V30 10971 C 1028.5 3.43875 1.06198 0
M  V30 10972 C 1028.11 4.47988 -0.0334397 0
M  V30 10973 C 1029.86 3.89057 1.69807 0
M  V30 10974 C 1027.76 5.89483 0.475774 0
M  V30 10975 H 1026.69 0.7224 0.215995 0
M  V30 10976 H 1029.34 1.82699 -0.171257 0
M  V30 10977 H 1027.73 3.49862 1.85506 0
M  V30 10978 H 1028.9 4.53644 -0.808934 0
M  V30 10979 H 1027.21 4.12415 -0.574725 0
M  V30 10980 H 1029.81 4.92171 2.08978 0
M  V30 10981 H 1030.15 3.27713 2.5673 0
M  V30 10982 H 1030.69 3.85772 0.970815 0
M  V30 10983 H 1027.43 6.54528 -0.356837 0
M  V30 10984 H 1026.95 5.87297 1.21827 0
M  V30 10985 H 1028.63 6.40066 0.944697 0
M  V30 10986 N 1028.76 -0.17846 1.56586 0
M  V30 10987 C 1030 -0.897562 1.81856 0
M  V30 10988 C 1030.34 -1.82204 0.671955 0
M  V30 10989 O 1029.61 -1.91739 -0.326535 0
M  V30 10990 C 1029.89 -1.69942 3.17477 0
M  V30 10991 C 1029.75 -0.798545 4.42655 0
M  V30 10992 C 1031.07 -2.66861 3.49962 0
M  V30 10993 H 1028.19 -0.324863 0.661539 0
M  V30 10994 H 1030.83 -0.164106 1.8929 0
M  V30 10995 H 1028.98 -2.32471 3.11271 0
M  V30 10996 H 1030.65 -0.18668 4.60922 0
M  V30 10997 H 1028.89 -0.106181 4.3367 0
M  V30 10998 H 1029.56 -1.39496 5.34083 0
M  V30 10999 H 1032.04 -2.1446 3.56576 0
M  V30 11000 H 1030.92 -3.20037 4.45946 0
M  V30 11001 H 1031.18 -3.46715 2.74301 0
M  V30 11002 N 1030.24 -1.51135 -0.446768 0
M  V30 11003 C 1031.65 -1.55919 -1.02694 0
M  V30 11004 C 1032 -0.377038 -1.92543 0
M  V30 11005 O 1031.12 0.507295 -2.1037 0
M  V30 11006 C 1031.72 -2.8257 -1.86922 0
M  V30 11007 C 1030.28 -2.89956 -2.40005 0
M  V30 11008 C 1029.42 -2.50482 -1.18971 0
M  V30 11009 H 1032.37 -1.57048 -0.228403 0
M  V30 11010 H 1032.4 -2.65799 -2.7227 0
M  V30 11011 H 1031.91 -3.6859 -1.21502 0
M  V30 11012 H 1030.01 -2.08343 -3.08907 0
M  V30 11013 H 1030.12 -3.93399 -2.73448 0
M  V30 11014 H 1028.49 -2.03466 -1.53211 0
M  V30 11015 H 1029.27 -3.38837 -0.551762 0
M  V30 11016 N 1031.71 0.701592 -1.41122 0
M  V30 11017 C 1032.66 1.83691 -1.4269 0
M  V30 11018 C 1033.66 1.6662 -0.305658 0
M  V30 11019 O 1034.86 1.73554 -0.477392 0
M  V30 11020 H 1031.24 0.605222 -0.44633 0
M  V30 11021 H 1033.21 1.79485 -2.38386 0
M  V30 11022 C 1031.96 3.21666 -1.32008 0
M  V30 11023 H 1031.28 3.35416 -2.17569 0
M  V30 11024 H 1032.72 4.012 -1.37165 0
M  V30 11025 C 1031.18 3.36885 -0.0317678 0
M  V30 11026 O 1031.71 3.90885 0.925836 0
M  V30 11027 N 1029.91 2.90569 0.0423401 0
M  V30 11028 H 1029.46 2.46812 -0.737673 0
M  V30 11029 H 1029.42 3.0113 0.903764 0
M  V30 11030 N 1033.19 1.2685 0.935242 0
M  V30 11031 C 1034.14 1.05586 2.02078 0
M  V30 11032 C 1035.13 -0.013699 1.60894 0
M  V30 11033 O 1036.32 0.203956 1.75821 0
M  V30 11034 C 1033.45 0.697118 3.36148 0
M  V30 11035 C 1032.53 1.80444 3.83798 0
M  V30 11036 N 1032.92 3.04283 4.04037 0
M  V30 11037 C 1031.22 1.68939 4.12766 0
M  V30 11038 C 1031.92 3.7629 4.436 0
M  V30 11039 N 1030.9 3.04011 4.50642 0
M  V30 11040 H 1034.7 1.99577 2.15746 0
M  V30 11041 H 1032.21 1.17455 1.12153 0
M  V30 11042 H 1034.21 0.525915 4.1357 0
M  V30 11043 H 1032.87 -0.235247 3.23847 0
M  V30 11044 H 1033.88 3.40125 3.90558 0
M  V30 11045 H 1030.56 0.827341 4.0922 0
M  V30 11046 H 1031.95 4.82687 4.67401 0
M  V30 11047 N 1034.67 -1.14067 1.0875 0
M  V30 11048 C 1035.58 -2.22871 0.732498 0
M  V30 11049 C 1036.6 -1.72008 -0.26253 0
M  V30 11050 O 1037.77 -2.01123 -0.105601 0
M  V30 11051 C 1034.84 -3.46371 0.150913 0
M  V30 11052 C 1033.9 -4.12158 1.201 0
M  V30 11053 C 1033.13 -5.29763 0.647075 0
M  V30 11054 O 1033.35 -5.67911 -0.532307 0
M  V30 11055 O 1032.29 -5.8542 1.3988 0
M  V30 11056 H 1036.11 -2.55596 1.64025 0
M  V30 11057 H 1033.7 -1.22065 0.861417 0
M  V30 11058 H 1035.58 -4.21055 -0.170442 0
M  V30 11059 H 1034.26 -3.15362 -0.729948 0
M  V30 11060 H 1033.16 -3.39332 1.57494 0
M  V30 11061 H 1034.5 -4.47282 2.05426 0
M  V30 11062 N 1036.15 -0.873678 -1.31166 0
M  V30 11063 C 1037.1 -0.330288 -2.28424 0
M  V30 11064 C 1038.07 0.573299 -1.55893 0
M  V30 11065 O 1039.25 0.504143 -1.84019 0
M  V30 11066 C 1036.39 0.459004 -3.42034 0
M  V30 11067 C 1035.5 -0.472519 -4.29408 0
M  V30 11068 C 1034.64 0.331261 -5.30166 0
M  V30 11069 C 1033.68 -0.596453 -6.09187 0
M  V30 11070 N 1032.81 0.171305 -7.01891 0
M  V30 11071 H 1037.65 -1.16485 -2.7429 0
M  V30 11072 H 1035.19 -0.585813 -1.34932 0
M  V30 11073 H 1037.15 0.932432 -4.06647 0
M  V30 11074 H 1035.78 1.25824 -2.97268 0
M  V30 11075 H 1034.83 -1.06441 -3.65205 0
M  V30 11076 H 1036.14 -1.18372 -4.84551 0
M  V30 11077 H 1035.3 0.867038 -6.00473 0
M  V30 11078 H 1034.04 1.07573 -4.75688 0
M  V30 11079 H 1033.04 -1.14395 -5.37767 0
M  V30 11080 H 1034.27 -1.33983 -6.65752 0
M  V30 11081 H 1032.21 0.89852 -6.49817 0
M  V30 11082 H 1032.13 -0.480481 -7.54472 0
M  V30 11083 H 1033.4 0.688192 -7.76456 0
M  V30 11084 N 1037.63 1.44308 -0.633487 0
M  V30 11085 C 1039.04 1.56768 -0.29931 0
M  V30 11086 C 1039.24 1.62061 1.19743 0
M  V30 11087 O 1038.3 1.56492 1.98158 0
M  V30 11088 C 1039.61 2.8382 -0.993307 0
M  V30 11089 C 1041.16 2.97536 -0.971674 0
M  V30 11090 C 1041.63 4.27393 -1.64618 0
M  V30 11091 N 1043.13 4.34212 -1.61288 0
M  V30 11092 C 1043.86 5.33415 -2.1037 0
M  V30 11093 N 1043.36 6.3901 -2.67653 0
M  V30 11094 N 1045.15 5.24939 -2.00985 0
M  V30 11095 H 1037.3 1.39115 -1.60501 0
M  V30 11096 H 1039.56 0.666804 -0.673852 0
M  V30 11097 H 1039.27 2.85902 -2.04823 0
M  V30 11098 H 1039.14 3.73422 -0.532537 0
M  V30 11099 H 1041.53 2.95005 0.0747854 0
M  V30 11100 H 1041.61 2.09276 -1.47096 0
M  V30 11101 H 1041.26 4.30683 -2.6921 0
M  V30 11102 H 1041.19 5.14515 -1.12171 0
M  V30 11103 H 1043.68 3.58519 -1.19468 0
M  V30 11104 H 1043.99 7.10994 -3.02831 0
M  V30 11105 H 1042.33 6.39689 -2.71705 0
M  V30 11106 H 1045.53 4.41357 -1.55953 0
M  V30 11107 H 1045.7 6.02097 -2.39547 0
M  V30 11108 N 1039.1 0.374177 1.53094 0
M  V30 11109 C 1040.07 -0.455999 2.24618 0
M  V30 11110 C 1041.07 -1.00269 1.25709 0
M  V30 11111 O 1042.26 -0.887077 1.49922 0
M  V30 11112 C 1039.39 -1.63822 2.98957 0
M  V30 11113 H 1040.58 0.169986 2.99418 0
M  V30 11114 H 1038.14 0.126015 1.55791 0
M  V30 11115 H 1038.87 -2.30205 2.28421 0
M  V30 11116 H 1038.66 -1.25308 3.71538 0
M  V30 11117 H 1040.15 -2.22633 3.53305 0
M  V30 11118 N 1040.58 -1.57259 0.103575 0
M  V30 11119 C 1041.83 -1.94272 -0.557024 0
M  V30 11120 C 1042.15 -0.986739 -1.68192 0
M  V30 11121 O 1041.42 -0.0402818 -1.95859 0
M  V30 11122 H 1040 -0.717237 -0.208757 0
M  V30 11123 H 1042.66 -1.94167 0.168898 0
M  V30 11124 H 1041.76 -2.96914 -0.961691 0
M  V30 11125 N 1042.06 0.170153 -1.56679 0
M  V30 11126 C 1043.01 1.21064 -1.965 0
M  V30 11127 C 1043.98 1.43928 -0.829092 0
M  V30 11128 O 1045.16 1.56649 -1.08931 0
M  V30 11129 C 1042.3 2.54468 -2.33109 0
M  V30 11130 C 1041.42 2.38974 -3.59883 0
M  V30 11131 C 1040.55 3.65252 -3.857 0
M  V30 11132 C 1039.59 3.44696 -5.05817 0
M  V30 11133 N 1038.73 4.63047 -5.27761 0
M  V30 11134 H 1043.57 0.864055 -2.85198 0
M  V30 11135 H 1041.1 0.415243 -1.41117 0
M  V30 11136 H 1043.06 3.32222 -2.52358 0
M  V30 11137 H 1041.69 2.8712 -1.4752 0
M  V30 11138 H 1040.74 1.5239 -3.48542 0
M  V30 11139 H 1042.06 2.19731 -4.47794 0
M  V30 11140 H 1041.21 4.51441 -4.05322 0
M  V30 11141 H 1039.95 3.87475 -2.96166 0
M  V30 11142 H 1038.95 2.56893 -4.86092 0
M  V30 11143 H 1040.18 3.23894 -5.96883 0
M  V30 11144 H 1038.12 4.85487 -4.41179 0
M  V30 11145 H 1038.04 4.46722 -6.09898 0
M  V30 11146 H 1039.31 5.50516 -5.51863 0
M  V30 11147 N 1043.54 1.5137 0.438746 0
M  V30 11148 C 1044.47 1.75528 1.53987 0
M  V30 11149 C 1045.45 0.605067 1.58975 0
M  V30 11150 O 1046.63 0.847634 1.74725 0
M  V30 11151 C 1043.76 1.87904 2.92078 0
M  V30 11152 C 1042.72 3.0333 3.01951 0
M  V30 11153 C 1042.04 3.00888 4.42007 0
M  V30 11154 C 1043.34 4.43319 2.76163 0
M  V30 11155 H 1045.04 2.67728 1.34022 0
M  V30 11156 H 1042.58 1.28831 0.643308 0
M  V30 11157 H 1044.54 2.03388 3.69068 0
M  V30 11158 H 1043.26 0.923514 3.13271 0
M  V30 11159 H 1041.92 2.87549 2.274 0
M  V30 11160 H 1041.57 2.03116 4.60166 0
M  V30 11161 H 1041.27 3.78397 4.49544 0
M  V30 11162 H 1042.79 3.18464 5.20973 0
M  V30 11163 H 1044.21 4.59458 3.42887 0
M  V30 11164 H 1042.6 5.22523 2.9511 0
M  V30 11165 H 1043.67 4.53453 1.71779 0
M  V30 11166 N 1045.02 -0.694098 1.41492 0
M  V30 11167 C 1045.93 -1.83778 1.45818 0
M  V30 11168 C 1046.94 -1.70471 0.348639 0
M  V30 11169 O 1048.12 -1.92361 0.596588 0
M  V30 11170 C 1045.18 -3.19771 1.33967 0
M  V30 11171 C 1044.24 -3.45175 2.5525 0
M  V30 11172 C 1043.48 -4.74681 2.43955 0
M  V30 11173 O 1043.7 -5.51268 1.46491 0
M  V30 11174 O 1042.63 -5.00901 3.33739 0
M  V30 11175 H 1046.46 -1.83084 2.42309 0
M  V30 11176 H 1044.05 -0.847349 1.23046 0
M  V30 11177 H 1045.93 -4.00961 1.29648 0
M  V30 11178 H 1044.6 -3.21145 0.405926 0
M  V30 11179 H 1043.51 -2.6391 2.65146 0
M  V30 11180 H 1044.84 -3.48617 3.47458 0
M  V30 11181 N 1046.49 -1.27344 -0.928501 0
M  V30 11182 C 1047.91 -1.12361 -1.49103 0
M  V30 11183 C 1048.26 0.291667 -1.9402 0
M  V30 11184 O 1047.38 1.18449 -1.81104 0
M  V30 11185 C 1047.98 -2.03358 -2.70981 0
M  V30 11186 C 1046.54 -1.92483 -3.23461 0
M  V30 11187 C 1045.68 -1.95961 -1.962 0
M  V30 11188 H 1048.63 -1.40249 -0.742689 0
M  V30 11189 H 1048.65 -1.58892 -3.45736 0
M  V30 11190 H 1048.17 -3.06356 -2.38259 0
M  V30 11191 H 1046.27 -0.924676 -3.60944 0
M  V30 11192 H 1046.38 -2.78682 -3.89709 0
M  V30 11193 H 1044.74 -1.40175 -2.12657 0
M  V30 11194 H 1045.53 -3.00612 -1.65793 0
M  V30 11195 N 1047.97 1.13488 -1.09353 0
M  V30 11196 C 1049.39 1.36739 -0.823086 0
M  V30 11197 C 1049.59 1.93476 0.562963 0
M  V30 11198 O 1048.64 2.15374 1.31796 0
M  V30 11199 C 1049.96 2.31943 -1.91371 0
M  V30 11200 C 1051.51 2.4556 -1.94085 0
M  V30 11201 C 1051.98 3.44072 -3.02289 0
M  V30 11202 N 1053.47 3.51622 -3.01524 0
M  V30 11203 C 1054.21 4.27724 -3.8189 0
M  V30 11204 N 1053.7 5.06987 -4.72161 0
M  V30 11205 N 1055.5 4.23018 -3.70152 0
M  V30 11206 H 1047.65 0.75012 -1.98713 0
M  V30 11207 H 1049.91 0.392564 -0.862901 0
M  V30 11208 H 1049.62 1.97408 -2.91072 0
M  V30 11209 H 1049.49 3.31952 -1.79131 0
M  V30 11210 H 1051.88 2.79382 -0.950234 0
M  V30 11211 H 1051.96 1.45479 -2.10403 0
M  V30 11212 H 1051.6 3.10981 -4.01564 0
M  V30 11213 H 1051.53 4.43956 -2.83214 0
M  V30 11214 H 1054.02 2.95066 -2.36103 0
M  V30 11215 H 1054.34 5.6236 -5.30067 0
M  V30 11216 H 1052.68 5.06222 -4.76197 0
M  V30 11217 H 1055.87 3.60171 -2.98989 0
M  V30 11218 H 1056.04 4.82075 -4.33022 0
M  V30 11219 N 1049.45 0.880621 1.30701 0
M  V30 11220 C 1050.38 0.360251 2.30704 0
M  V30 11221 C 1051.36 -0.554572 1.60806 0
M  V30 11222 O 1052.55 -0.469345 1.88443 0
M  V30 11223 C 1049.68 -0.429888 3.44629 0
M  V30 11224 C 1048.63 0.392786 4.26194 0
M  V30 11225 C 1047.96 -0.52369 5.32129 0
M  V30 11226 C 1049.26 1.63258 4.96129 0
M  V30 11227 H 1050.95 1.19591 2.74478 0
M  V30 11228 H 1048.5 0.576508 1.31956 0
M  V30 11229 H 1050.45 -0.804532 4.13649 0
M  V30 11230 H 1049.17 -1.29916 2.99649 0
M  V30 11231 H 1047.83 0.749514 3.58856 0
M  V30 11232 H 1047.48 -1.39054 4.83397 0
M  V30 11233 H 1047.18 0.0229272 5.87596 0
M  V30 11234 H 1048.71 -0.894946 6.04006 0
M  V30 11235 H 1050.12 1.32877 5.57689 0
M  V30 11236 H 1048.52 2.11906 5.61441 0
M  V30 11237 H 1049.59 2.37944 4.22505 0
M  V30 11238 N 1050.93 -1.4397 0.641131 0
M  V30 11239 C 1052.18 -2.02246 0.14985 0
M  V30 11240 C 1052.51 -1.50387 -1.22871 0
M  V30 11241 O 1051.78 -0.692003 -1.81773 0
M  V30 11242 C 1052.07 -3.59798 0.147449 0
M  V30 11243 C 1051.92 -4.21916 1.55907 0
M  V30 11244 C 1053.24 -4.36985 -0.522667 0
M  V30 11245 H 1050.36 -0.734875 0.0559274 0
M  V30 11246 H 1053 -1.71418 0.819513 0
M  V30 11247 H 1051.15 -3.86193 -0.422789 0
M  V30 11248 H 1052.82 -4.06594 2.17896 0
M  V30 11249 H 1051.06 -3.79028 2.10998 0
M  V30 11250 H 1051.74 -5.30964 1.50934 0
M  V30 11251 H 1054.21 -4.16083 -0.0376226 0
M  V30 11252 H 1053.09 -5.46676 -0.493572 0
M  V30 11253 H 1053.35 -4.12335 -1.59475 0
M  V30 11254 N 1052.41 -0.382291 -1.52893 0
M  V30 11255 C 1053.34 0.447829 -2.29165 0
M  V30 11256 C 1054.32 1.06956 -1.32267 0
M  V30 11257 O 1055.5 1.08365 -1.61154 0
M  V30 11258 C 1052.63 1.57902 -3.09329 0
M  V30 11259 C 1051.59 1.08369 -4.14053 0
M  V30 11260 C 1050.91 2.30641 -4.82399 0
M  V30 11261 C 1052.21 0.156591 -5.22065 0
M  V30 11262 H 1053.91 -0.188541 -2.98806 0
M  V30 11263 H 1051.45 -0.0921179 -1.43705 0
M  V30 11264 H 1053.41 2.16652 -3.61442 0
M  V30 11265 H 1052.13 2.24287 -2.37409 0
M  V30 11266 H 1050.79 0.518772 -3.62911 0
M  V30 11267 H 1050.44 2.9552 -4.07034 0
M  V30 11268 H 1050.14 1.98163 -5.53177 0
M  V30 11269 H 1051.66 2.90047 -5.37313 0
M  V30 11270 H 1053.08 0.652065 -5.6958 0
M  V30 11271 H 1051.47 -0.0780978 -6.00049 0
M  V30 11272 H 1052.54 -0.796529 -4.78313 0
M  V30 11273 N 1053.89 1.57202 -0.111913 0
M  V30 11274 C 1055.16 1.86459 0.590972 0
M  V30 11275 C 1055.54 1.01182 1.85271 0
M  V30 11276 O 1054.89 0.0887891 2.28327 0
M  V30 11277 C 1055.1 3.37455 0.890225 0
M  V30 11278 C 1056.45 4.05895 1.24638 0
M  V30 11279 O 1057.47 3.42433 0.980713 0
M  V30 11280 O 1056.33 5.17903 1.74466 0
M  V30 11281 H 1053.43 0.771652 0.297459 0
M  V30 11282 H 1055.97 1.69072 -0.145882 0
M  V30 11283 H 1054.74 3.913 -0.00419012 0
M  V30 11284 H 1054.37 3.60248 1.68248 0
M  V30 11285 N 1055.36 -0.161842 1.56767 0
M  V30 11286 C 1056.3 -1.22499 1.93718 0
M  V30 11287 C 1057.31 -1.39975 0.831314 0
M  V30 11288 O 1058.5 -1.3981 1.10975 0
M  V30 11289 C 1055.6 -2.59222 2.18306 0
M  V30 11290 C 1054.77 -2.6292 3.4956 0
M  V30 11291 C 1053.83 -3.81074 3.62863 0
M  V30 11292 O 1052.86 -3.66633 4.35395 0
M  V30 11293 N 1054.06 -4.97923 2.98418 0
M  V30 11294 H 1056.82 -0.911043 2.85517 0
M  V30 11295 H 1054.38 -0.351533 1.58038 0
M  V30 11296 H 1056.38 -3.36749 2.24461 0
M  V30 11297 H 1054.95 -2.82969 1.32844 0
M  V30 11298 H 1054.17 -1.71418 3.54978 0
M  V30 11299 H 1055.45 -2.62409 4.35911 0
M  V30 11300 H 1054.85 -5.12557 2.39378 0
M  V30 11301 H 1053.41 -5.73277 3.10155 0
M  V30 11302 N 1056.84 -1.516 -0.430713 0
M  V30 11303 C 1057.77 -1.76342 -1.53054 0
M  V30 11304 C 1058.75 -0.61349 -1.58652 0
M  V30 11305 O 1059.94 -0.856888 -1.74273 0
M  V30 11306 C 1057.07 -1.8945 -2.91077 0
M  V30 11307 C 1056.02 -3.04928 -3.00339 0
M  V30 11308 C 1055.35 -3.03228 -4.40405 0
M  V30 11309 C 1056.65 -4.44777 -2.73808 0
M  V30 11310 H 1058.34 -2.68435 -1.326 0
M  V30 11311 H 1055.89 -1.29171 -0.636466 0
M  V30 11312 H 1057.84 -2.05343 -3.67984 0
M  V30 11313 H 1056.56 -0.940114 -3.12777 0
M  V30 11314 H 1055.22 -2.88751 -2.25872 0
M  V30 11315 H 1054.87 -2.05553 -4.59083 0
M  V30 11316 H 1054.57 -3.80776 -4.47531 0
M  V30 11317 H 1056.1 -3.21222 -5.19277 0
M  V30 11318 H 1057.51 -4.6127 -3.40445 0
M  V30 11319 H 1055.91 -5.2408 -2.92335 0
M  V30 11320 H 1056.98 -4.54358 -1.69372 0
M  V30 11321 N 1058.32 0.686584 -1.41858 0
M  V30 11322 C 1059.74 0.998283 -1.24525 0
M  V30 11323 C 1059.94 2.01006 -0.141007 0
M  V30 11324 O 1058.99 2.47667 0.491648 0
M  V30 11325 C 1060.3 1.51432 -2.59786 0
M  V30 11326 C 1061.85 1.6327 -2.67043 0
M  V30 11327 C 1062.33 2.18274 -4.02642 0
M  V30 11328 N 1063.82 2.25622 -4.04535 0
M  V30 11329 C 1064.55 2.69229 -5.06264 0
M  V30 11330 N 1064.05 3.12375 -6.1838 0
M  V30 11331 N 1065.84 2.68873 -4.93623 0
M  V30 11332 H 1057.99 0.0164825 -2.12394 0
M  V30 11333 H 1060.26 0.0698613 -0.945422 0
M  V30 11334 H 1059.96 0.845426 -3.41388 0
M  V30 11335 H 1059.84 2.49502 -2.82894 0
M  V30 11336 H 1062.22 2.29269 -1.85794 0
M  V30 11337 H 1062.3 0.637221 -2.47736 0
M  V30 11338 H 1061.95 1.52887 -4.84343 0
M  V30 11339 H 1061.88 3.18591 -4.19294 0
M  V30 11340 H 1064.37 1.95186 -3.23591 0
M  V30 11341 H 1064.68 3.44301 -6.91864 0
M  V30 11342 H 1063.03 3.10262 -6.21902 0
M  V30 11343 H 1066.22 2.34521 -4.05114 0
M  V30 11344 H 1066.39 3.02539 -5.7304 0
M  V30 11345 N 1059.8 1.27835 0.921735 0
M  V30 11346 C 1061.04 1.15766 1.68457 0
M  V30 11347 C 1061.4 -0.290542 1.89789 0
M  V30 11348 O 1062.6 -0.53378 2.63447 0
M  V30 11349 C 1060.87 1.92591 3.0107 0
M  V30 11350 S 1062.43 1.96804 3.92191 0
M  V30 11351 H 1059.25 0.413169 0.578629 0
M  V30 11352 H 1061.85 1.61826 1.09693 0
M  V30 11353 H 1060.56 2.96991 2.8324 0
M  V30 11354 H 1060.09 1.47049 3.64884 0
M  V30 11355 H 1062.1 1.06877 4.84553 0
M  V30 11356 N 1061.28 -1.12907 1.09954 0
M  V30 11357 C 1062.22 -2.20561 0.73863 0
M  V30 11358 C 1063.22 -1.67347 -0.262944 0
M  V30 11359 O 1064.42 -1.79574 -0.123834 0
M  V30 11360 H 1060.8 -0.718823 0.220901 0
M  V30 11361 H 1062.77 -2.4826 1.65559 0
M  V30 11362 C 1061.52 -3.47227 0.181239 0
M  V30 11363 H 1060.84 -3.88516 0.943144 0
M  V30 11364 H 1062.28 -4.23987 -0.0332888 0
M  V30 11365 C 1060.74 -3.18956 -1.08485 0
M  V30 11366 O 1061.27 -3.38224 -2.1672 0
M  V30 11367 N 1059.48 -2.72797 -1.00151 0
M  V30 11368 H 1059.02 -2.57317 -0.120645 0
M  V30 11369 H 1058.98 -2.54256 -1.84935 0
M  V30 11370 N 1062.75 -0.88754 -1.30232 0
M  V30 11371 C 1064 -0.506277 -1.95656 0
M  V30 11372 C 1064.32 0.948191 -1.70395 0
M  V30 11373 O 1063.59 1.66701 -1.02895 0
M  V30 11374 H 1062.17 -0.184235 -0.723924 0
M  V30 11375 H 1064.83 -1.13118 -1.58715 0
M  V30 11376 H 1063.93 -0.678673 -3.04632 0
M  V30 11377 N 1064.23 1.43628 -0.648757 0
M  V30 11378 C 1065.48 2.02163 -0.160574 0
M  V30 11379 C 1065.81 1.51037 1.22072 0
M  V30 11380 O 1065.09 0.701633 1.81404 0
M  V30 11381 C 1065.37 3.59715 -0.166528 0
M  V30 11382 C 1065.22 4.21083 -1.58142 0
M  V30 11383 C 1066.54 4.37256 0.499485 0
M  V30 11384 H 1063.66 0.734568 -0.0598238 0
M  V30 11385 H 1066.3 1.70981 -0.828592 0
M  V30 11386 H 1064.45 3.86411 0.402302 0
M  V30 11387 H 1066.12 4.05433 -2.2005 0
M  V30 11388 H 1064.37 3.77904 -2.13005 0
M  V30 11389 H 1065.04 5.30156 -1.53748 0
M  V30 11390 H 1067.51 4.16097 0.0155561 0
M  V30 11391 H 1066.39 5.4693 0.464574 0
M  V30 11392 H 1066.65 4.13175 1.57286 0
M  V30 11393 N 1065.71 0.390394 1.52688 0
M  V30 11394 C 1066.64 -0.43567 2.294 0
M  V30 11395 C 1067.62 -1.06253 1.32832 0
M  V30 11396 O 1068.81 -1.07509 1.61726 0
M  V30 11397 C 1065.94 -1.56259 3.10162 0
M  V30 11398 C 1064.89 -1.06172 4.14622 0
M  V30 11399 C 1064.22 -2.2808 4.83615 0
M  V30 11400 C 1065.52 -0.128902 5.22141 0
M  V30 11401 H 1067.21 0.204384 2.98702 0
M  V30 11402 H 1064.76 0.0997377 1.43654 0
M  V30 11403 H 1066.71 -2.14732 3.62585 0
M  V30 11404 H 1065.43 -2.23025 2.38595 0
M  V30 11405 H 1064.09 -0.499518 3.63181 0
M  V30 11406 H 1063.74 -2.93358 4.08595 0
M  V30 11407 H 1063.44 -1.95227 5.5422 0
M  V30 11408 H 1064.96 -2.87193 5.38844 0
M  V30 11409 H 1066.38 -0.621849 5.69917 0
M  V30 11410 H 1064.78 0.109919 5.99999 0
M  V30 11411 H 1065.85 0.821884 4.77884 0
M  V30 11412 N 1067.19 -1.57141 0.120249 0
M  V30 11413 C 1068.1 -2.18925 -0.843155 0
M  V30 11414 C 1069.11 -1.16575 -1.29175 0
M  V30 11415 O 1070.29 -1.4905 -1.35448 0
M  V30 11416 C 1067.36 -2.7775 -2.075 0
M  V30 11417 C 1066.42 -3.95139 -1.6782 0
M  V30 11418 C 1065.65 -4.51149 -2.85132 0
M  V30 11419 O 1065.87 -4.06056 -4.00593 0
M  V30 11420 O 1064.81 -5.41815 -2.62145 0
M  V30 11421 H 1068.63 -3.01707 -0.347357 0
M  V30 11422 H 1066.22 -1.49028 -0.105427 0
M  V30 11423 H 1068.1 -3.15243 -2.79643 0
M  V30 11424 H 1066.77 -1.97998 -2.56083 0
M  V30 11425 H 1065.68 -3.62412 -0.927807 0
M  V30 11426 H 1067.01 -4.7633 -1.23977 0
M  V30 11427 N 1068.67 0.153526 -1.5685 0
M  V30 11428 C 1069.91 0.865519 -1.82629 0
M  V30 11429 C 1070.24 1.81999 -0.700105 0
M  V30 11430 O 1069.51 1.93907 0.278744 0
M  V30 11431 H 1068.09 0.32261 -0.673745 0
M  V30 11432 H 1070.75 0.149088 -1.94329 0
M  V30 11433 H 1069.84 1.43171 -2.77324 0
M  V30 11434 N 1070.14 1.51827 0.422667 0
M  V30 11435 C 1071.39 1.6445 1.16786 0
M  V30 11436 C 1071.71 0.373792 1.91995 0
M  V30 11437 O 1072.91 0.379621 2.68833 0
M  V30 11438 C 1071.37 2.90488 2.12473 0
M  V30 11439 C 1070.98 4.24617 1.42844 0
M  V30 11440 C 1072.72 3.12472 2.87335 0
M  V30 11441 C 1070.63 5.41791 2.371 0
M  V30 11442 H 1069.56 0.612561 0.439641 0
M  V30 11443 H 1072.21 1.78305 0.433534 0
M  V30 11444 H 1070.59 2.703 2.89402 0
M  V30 11445 H 1071.76 4.55239 0.71372 0
M  V30 11446 H 1070.08 4.08628 0.800769 0
M  V30 11447 H 1072.68 3.9719 3.57973 0
M  V30 11448 H 1073.02 2.26148 3.49518 0
M  V30 11449 H 1073.55 3.33069 2.17509 0
M  V30 11450 H 1070.29 6.3042 1.79584 0
M  V30 11451 H 1069.81 5.15526 3.06583 0
M  V30 11452 H 1071.49 5.74329 2.97918 0
M  V30 11453 N 1071.62 -0.679052 1.4222 0
M  V30 11454 C 1073.04 -0.991665 1.25053 0
M  V30 11455 C 1073.24 -2.00928 0.151665 0
M  V30 11456 O 1072.29 -2.47925 -0.478507 0
M  V30 11457 C 1073.61 -1.50053 2.60585 0
M  V30 11458 C 1075.16 -1.61852 2.67905 0
M  V30 11459 C 1075.63 -2.16135 4.03794 0
M  V30 11460 N 1077.12 -2.23474 4.05726 0
M  V30 11461 C 1077.86 -2.66541 5.07685 0
M  V30 11462 N 1077.35 -3.09092 6.20028 0
M  V30 11463 N 1079.15 -2.66252 4.95042 0
M  V30 11464 H 1071.3 -0.00521851 2.12399 0
M  V30 11465 H 1073.56 -0.0648465 0.94578 0
M  V30 11466 H 1073.27 -0.82731 3.41831 0
M  V30 11467 H 1073.14 -2.47998 2.84213 0
M  V30 11468 H 1075.53 -2.28281 1.87008 0
M  V30 11469 H 1075.61 -0.624074 2.4807 0
M  V30 11470 H 1075.25 -1.50316 4.85147 0
M  V30 11471 H 1075.18 -3.16363 4.20978 0
M  V30 11472 H 1077.67 -1.93467 3.24621 0
M  V30 11473 H 1077.99 -3.40627 6.93681 0
M  V30 11474 H 1076.33 -3.06959 6.23539 0
M  V30 11475 H 1079.52 -2.32369 4.06352 0
M  V30 11476 H 1079.69 -2.99496 5.74636 0
M  V30 11477 N 1073.1 -1.28322 -0.914942 0
M  V30 11478 C 1074.35 -1.14785 -1.65853 0
M  V30 11479 C 1074.66 0.303135 -1.93237 0
M  V30 11480 O 1075.87 0.559606 -2.6567 0
M  V30 11481 C 1074.32 -2.00652 -2.98776 0
M  V30 11482 C 1073.93 -3.50483 -2.79044 0
M  V30 11483 C 1075.68 -1.95798 -3.76648 0
M  V30 11484 C 1073.58 -4.28505 -4.076 0
M  V30 11485 H 1072.51 -0.425987 -0.622135 0
M  V30 11486 H 1075.16 -1.52844 -1.01543 0
M  V30 11487 H 1073.55 -1.55447 -3.64214 0
M  V30 11488 H 1074.72 -4.03636 -2.22293 0
M  V30 11489 H 1073.04 -3.5685 -2.14586 0
M  V30 11490 H 1075.63 -2.51359 -4.71935 0
M  V30 11491 H 1075.98 -0.934455 -4.05677 0
M  V30 11492 H 1076.51 -2.38965 -3.18026 0
M  V30 11493 H 1073.25 -5.31433 -3.83744 0
M  V30 11494 H 1072.77 -3.80125 -4.63966 0
M  V30 11495 H 1074.45 -4.3836 -4.75867 0
M  V30 11496 N 1074.58 1.12322 -1.10551 0
M  V30 11497 C 1075.82 1.85497 -0.858492 0
M  V30 11498 C 1076.18 1.8222 0.604966 0
M  V30 11499 O 1077.38 2.5075 0.968382 0
M  V30 11500 C 1075.65 3.29124 -1.39327 0
M  V30 11501 S 1077.21 4.19659 -1.28186 0
M  V30 11502 H 1074.03 0.639768 -0.31019 0
M  V30 11503 H 1076.63 1.35298 -1.41119 0
M  V30 11504 H 1075.34 3.29069 -2.45238 0
M  V30 11505 H 1074.87 3.84388 -0.837203 0
M  V30 11506 H 1076.88 4.95618 -0.240325 0
M  V30 11507 N 1076.06 0.894434 1.2976 0
M  V30 11508 C 1077.47 0.589778 1.48303 0
M  V30 11509 C 1077.67 -0.870085 1.81746 0
M  V30 11510 O 1076.73 -1.65065 1.91076 0
M  V30 11511 C 1078.04 1.51107 2.59975 0
M  V30 11512 C 1079.59 1.51571 2.73853 0
M  V30 11513 C 1080.06 2.42316 3.88648 0
M  V30 11514 N 1081.56 2.40333 3.95973 0
M  V30 11515 C 1082.29 3.07254 4.84131 0
M  V30 11516 N 1081.79 3.83435 5.77018 0
M  V30 11517 N 1083.58 2.96438 4.77578 0
M  V30 11518 H 1075.73 1.83871 1.06327 0
M  V30 11519 H 1077.99 0.78758 0.527657 0
M  V30 11520 H 1077.7 2.55097 2.42112 0
M  V30 11521 H 1077.57 1.22767 3.56662 0
M  V30 11522 H 1079.96 0.483277 2.91116 0
M  V30 11523 H 1080.04 1.83946 1.77757 0
M  V30 11524 H 1079.69 3.4565 3.72141 0
M  V30 11525 H 1079.62 2.07252 4.84101 0
M  V30 11526 H 1082.11 1.84979 3.29532 0
M  V30 11527 H 1082.42 4.31565 6.4107 0
M  V30 11528 H 1080.76 3.87542 5.7692 0
M  V30 11529 H 1083.96 2.36442 4.03996 0
M  V30 11530 H 1084.13 3.48867 5.46073 0
M  V30 11531 N 1077.53 -1.43282 0.656365 0
M  V30 11532 C 1078.47 -2.29087 -0.0720378 0
M  V30 11533 C 1079.48 -1.4268 -0.783982 0
M  V30 11534 O 1080.67 -1.66585 -0.641213 0
M  V30 11535 C 1077.77 -3.19676 -1.12519 0
M  V30 11536 C 1076.94 -4.34638 -0.490756 0
M  V30 11537 C 1076 -5.06079 -1.44121 0
M  V30 11538 O 1075.03 -5.6124 -0.948595 0
M  V30 11539 N 1076.23 -5.09872 -2.77509 0
M  V30 11540 H 1078.99 -2.92241 0.664456 0
M  V30 11541 H 1076.55 -1.54006 0.499383 0
M  V30 11542 H 1078.55 -3.64334 -1.76189 0
M  V30 11543 H 1077.12 -2.581 -1.76362 0
M  V30 11544 H 1076.34 -3.92857 0.3251 0
M  V30 11545 H 1077.62 -5.08777 -0.0480061 0
M  V30 11546 H 1077.02 -4.66433 -3.20088 0
M  V30 11547 H 1075.58 -5.58237 -3.36474 0
M  V30 11548 N 1079.01 -0.398486 -1.52479 0
M  V30 11549 C 1080.26 0.180394 -2.01293 0
M  V30 11550 C 1080.58 1.46548 -1.28641 0
M  V30 11551 O 1079.85 1.91579 -0.409173 0
M  V30 11552 H 1078.43 0.0696528 -0.743746 0
M  V30 11553 H 1081.09 -0.532285 -1.87491 0
M  V30 11554 H 1080.19 0.38409 -3.09728 0
M  V30 11555 N 1080.49 1.57075 -0.12858 0
M  V30 11556 C 1081.74 1.9552 0.527087 0
M  V30 11557 C 1082.07 1.01243 1.66072 0
M  V30 11558 O 1081.32 0.0381076 1.95663 0
M  V30 11559 C 1081.62 3.40329 1.09138 0
M  V30 11560 C 1081.29 4.50832 0.0781039 0
M  V30 11561 C 1079.95 4.80782 -0.200493 0
M  V30 11562 C 1082.3 5.17595 -0.61192 0
M  V30 11563 C 1079.63 5.74809 -1.17524 0
M  V30 11564 C 1081.98 6.12671 -1.57536 0
M  V30 11565 C 1080.64 6.41008 -1.86184 0
M  V30 11566 H 1079.91 0.715458 0.192875 0
M  V30 11567 H 1082.56 1.90328 -0.211515 0
M  V30 11568 H 1080.87 3.42262 1.90694 0
M  V30 11569 H 1082.56 3.67393 1.60696 0
M  V30 11570 H 1079.15 4.2751 0.30543 0
M  V30 11571 H 1083.34 4.94605 -0.40986 0
M  V30 11572 H 1078.59 5.95065 -1.40384 0
M  V30 11573 H 1082.77 6.63486 -2.11565 0
M  V30 11574 H 1080.39 7.13673 -2.61868 0
M  V30 11575 N 1081.97 -0.145205 1.5693 0
M  V30 11576 C 1083.38 -0.705089 1.72874 0
M  V30 11577 C 1083.73 -1.81577 0.743261 0
M  V30 11578 O 1082.86 -2.16214 -0.0897153 0
M  V30 11579 C 1083.45 -1.28578 3.13454 0
M  V30 11580 C 1082.01 -1.79221 3.30994 0
M  V30 11581 C 1081.16 -0.681392 2.68798 0
M  V30 11582 H 1084.11 0.0804798 1.58496 0
M  V30 11583 H 1084.13 -2.15558 3.13552 0
M  V30 11584 H 1083.64 -0.477186 3.85155 0
M  V30 11585 H 1081.74 -2.62642 2.64292 0
M  V30 11586 H 1081.86 -1.91969 4.38959 0
M  V30 11587 H 1080.22 -1.10847 2.29314 0
M  V30 11588 H 1081 0.115786 3.43105 0
M  V30 11589 N 1083.45 -1.52049 -0.414609 0
M  V30 11590 C 1084.4 -1.75603 -1.52533 0
M  V30 11591 C 1085.39 -0.622965 -1.57529 0
M  V30 11592 O 1086.6 -0.804886 -1.61002 0
M  V30 11593 H 1082.97 -0.555222 -0.507181 0
M  V30 11594 H 1084.94 -2.68666 -1.2985 0
M  V30 11595 C 1083.69 -1.9188 -2.89961 0
M  V30 11596 H 1083.01 -2.78483 -2.86857 0
M  V30 11597 H 1084.45 -2.12363 -3.66985 0
M  V30 11598 C 1082.91 -0.684453 -3.29874 0
M  V30 11599 O 1083.44 0.150256 -4.01419 0
M  V30 11600 N 1081.65 -0.521936 -2.85874 0
M  V30 11601 H 1081.2 -1.20229 -2.27822 0
M  V30 11602 H 1081.15 0.302655 -3.1294 0
M  V30 11603 N 1084.93 0.6715 -1.42579 0
M  V30 11604 C 1086.34 0.985019 -1.25577 0
M  V30 11605 C 1086.54 2.00845 -0.162319 0
M  V30 11606 O 1085.6 2.48175 0.465352 0
M  V30 11607 C 1086.91 1.48668 -2.61377 0
M  V30 11608 C 1088.46 1.60429 -2.68759 0
M  V30 11609 C 1088.93 2.13991 -4.04935 0
M  V30 11610 N 1090.42 2.21319 -4.06906 0
M  V30 11611 C 1091.16 2.63845 -5.09091 0
M  V30 11612 N 1090.66 3.05799 -6.21658 0
M  V30 11613 N 1092.45 2.63623 -4.96447 0
M  V30 11614 H 1084.6 -0.00604561 -2.12399 0
M  V30 11615 H 1086.86 0.0598299 -0.94611 0
M  V30 11616 H 1086.57 0.80917 -3.42265 0
M  V30 11617 H 1086.44 2.46487 -2.85524 0
M  V30 11618 H 1088.83 2.27286 -1.88216 0
M  V30 11619 H 1088.91 0.610909 -2.48398 0
M  V30 11620 H 1088.55 1.47741 -4.85937 0
M  V30 11621 H 1088.48 3.14126 -4.2265 0
M  V30 11622 H 1090.98 1.91743 -3.25643 0
M  V30 11623 H 1091.29 3.36944 -6.95477 0
M  V30 11624 H 1089.63 3.03648 -6.25158 0
M  V30 11625 H 1092.82 2.30211 -4.07579 0
M  V30 11626 H 1093 2.96444 -5.76216 0
M  V30 11627 N 1086.4 1.28806 0.908124 0
M  V30 11628 C 1087.65 1.15663 1.65242 0
M  V30 11629 C 1087.97 -0.292883 1.93395 0
M  V30 11630 O 1089.17 -0.545509 2.65963 0
M  V30 11631 C 1087.63 2.02233 2.97707 0
M  V30 11632 C 1087.24 3.51958 2.77181 0
M  V30 11633 C 1088.98 1.97792 3.75604 0
M  V30 11634 C 1086.89 4.3066 4.05322 0
M  V30 11635 H 1085.82 0.42928 0.619867 0
M  V30 11636 H 1088.47 1.5338 1.00731 0
M  V30 11637 H 1086.85 1.57377 3.63385 0
M  V30 11638 H 1088.02 4.0481 2.20149 0
M  V30 11639 H 1086.34 3.57983 2.12691 0
M  V30 11640 H 1088.94 2.53858 4.70596 0
M  V30 11641 H 1089.28 0.955956 4.05175 0
M  V30 11642 H 1089.81 2.40648 3.16755 0
M  V30 11643 H 1086.55 5.3346 3.8092 0
M  V30 11644 H 1086.07 3.8258 4.61944 0
M  V30 11645 H 1087.75 4.40878 4.73535 0
M  V30 11646 N 1087.88 -1.11734 1.11145 0
M  V30 11647 C 1088.81 -2.1976 0.789152 0
M  V30 11648 C 1089.79 -1.68382 -0.241143 0
M  V30 11649 O 1090.98 -1.93914 -0.105292 0
M  V30 11650 C 1088.11 -3.46549 0.228204 0
M  V30 11651 C 1087.06 -4.11123 1.19002 0
M  V30 11652 C 1086.39 -5.32451 0.489928 0
M  V30 11653 C 1087.69 -4.56406 2.53951 0
M  V30 11654 H 1089.38 -2.46978 1.69241 0
M  V30 11655 H 1086.93 -1.18705 0.81517 0
M  V30 11656 H 1088.88 -4.21399 -0.00945908 0
M  V30 11657 H 1087.6 -3.18782 -0.71033 0
M  V30 11658 H 1086.26 -3.38264 1.41326 0
M  V30 11659 H 1085.91 -5.00953 -0.453315 0
M  V30 11660 H 1085.61 -5.76605 1.1314 0
M  V30 11661 H 1087.14 -6.10042 0.260984 0
M  V30 11662 H 1088.55 -5.22592 2.35733 0
M  V30 11663 H 1086.95 -5.11363 3.14051 0
M  V30 11664 H 1088.02 -3.7001 3.13402 0
M  V30 11665 N 1089.36 -0.901303 -1.29284 0
M  V30 11666 C 1090.61 -0.528043 -1.95494 0
M  V30 11667 C 1090.93 0.92597 -1.71044 0
M  V30 11668 O 1090.19 1.67185 -1.01723 0
M  V30 11669 C 1090.49 -0.768828 -3.49033 0
M  V30 11670 C 1090.15 -2.20045 -3.93562 0
M  V30 11671 C 1088.82 -2.59189 -4.05431 0
M  V30 11672 C 1091.17 -3.13266 -4.1655 0
M  V30 11673 C 1088.5 -3.90733 -4.37658 0
M  V30 11674 C 1090.85 -4.4436 -4.50252 0
M  V30 11675 C 1089.51 -4.83375 -4.60331 0
M  V30 11676 H 1088.78 -0.193225 -0.715364 0
M  V30 11677 H 1091.43 -1.14027 -1.53851 0
M  V30 11678 H 1089.73 -0.0736997 -3.91731 0
M  V30 11679 H 1091.43 -0.459384 -3.9836 0
M  V30 11680 H 1088.02 -1.88666 -3.84842 0
M  V30 11681 H 1092.21 -2.84237 -4.06845 0
M  V30 11682 H 1087.46 -4.2068 -4.43665 0
M  V30 11683 H 1091.64 -5.16618 -4.66989 0
M  V30 11684 H 1089.26 -5.8534 -4.85058 0
M  V30 11685 N 1090.84 1.42931 -0.663954 0
M  V30 11686 C 1091.77 2.29122 0.0598878 0
M  V30 11687 C 1092.78 1.43094 0.776404 0
M  V30 11688 O 1093.97 1.66923 0.63237 0
M  V30 11689 C 1091.07 3.20268 1.10822 0
M  V30 11690 C 1090.24 4.34892 0.4677 0
M  V30 11691 C 1089.3 5.06836 1.41435 0
M  V30 11692 O 1088.33 5.61735 0.918818 0
M  V30 11693 N 1089.53 5.11336 2.74801 0
M  V30 11694 H 1092.3 2.91885 -0.679945 0
M  V30 11695 H 1089.86 1.53739 -0.507543 0
M  V30 11696 H 1091.85 3.65264 1.74255 0
M  V30 11697 H 1090.42 2.59031 1.7499 0
M  V30 11698 H 1089.64 3.92679 -0.34593 0
M  V30 11699 H 1090.93 5.08796 0.0210237 0
M  V30 11700 H 1090.33 4.68124 3.1761 0
M  V30 11701 H 1088.88 5.60013 3.33509 0
M  V30 11702 N 1092.32 0.406567 1.52266 0
M  V30 11703 C 1093.23 -0.4271 2.30679 0
M  V30 11704 C 1094.24 -1.0559 1.383 0
M  V30 11705 O 1095.42 -1.05797 1.71374 0
M  V30 11706 C 1092.48 -1.53008 3.1111 0
M  V30 11707 C 1091.54 -0.924604 4.19225 0
M  V30 11708 C 1090.78 -1.97502 4.95811 0
M  V30 11709 O 1091 -3.19277 4.72671 0
M  V30 11710 O 1089.93 -1.58268 5.80719 0
M  V30 11711 H 1093.76 0.212187 3.02958 0
M  V30 11712 H 1091.34 0.169835 1.48432 0
M  V30 11713 H 1093.23 -2.17046 3.61205 0
M  V30 11714 H 1091.9 -2.15401 2.41628 0
M  V30 11715 H 1090.81 -0.247009 3.73284 0
M  V30 11716 H 1092.14 -0.34463 4.90992 0
M  V30 11717 N 1093.79 -1.57004 0.136909 0
M  V30 11718 C 1095.04 -1.95797 -0.516711 0
M  V30 11719 C 1095.37 -1.02123 -1.65533 0
M  V30 11720 O 1094.62 -0.0484835 -1.9564 0
M  V30 11721 C 1094.92 -3.40903 -1.07331 0
M  V30 11722 C 1094.59 -4.50867 -0.0541941 0
M  V30 11723 C 1093.25 -4.80669 0.225988 0
M  V30 11724 C 1095.6 -5.17264 0.639361 0
M  V30 11725 C 1092.93 -5.74177 1.2057 0
M  V30 11726 C 1095.28 -6.11827 1.60783 0
M  V30 11727 C 1093.95 -6.40012 1.89581 0
M  V30 11728 H 1093.22 -0.716471 -0.189078 0
M  V30 11729 H 1095.86 -1.90213 0.221605 0
M  V30 11730 H 1094.17 -3.43268 -1.88876 0
M  V30 11731 H 1095.87 -3.6824 -1.58745 0
M  V30 11732 H 1092.46 -4.27666 -0.282754 0
M  V30 11733 H 1096.64 -4.9438 0.436085 0
M  V30 11734 H 1091.9 -5.94312 1.43538 0
M  V30 11735 H 1096.07 -6.62354 2.15081 0
M  V30 11736 H 1093.7 -7.12274 2.65649 0
M  V30 11737 N 1095.27 0.136881 -1.57004 0
M  V30 11738 C 1096.69 0.489856 -1.51897 0
M  V30 11739 C 1096.89 1.82833 -0.847009 0
M  V30 11740 O 1095.94 2.48952 -0.421792 0
M  V30 11741 C 1097.26 0.490831 -2.96667 0
M  V30 11742 C 1098.81 0.575639 -3.07661 0
M  V30 11743 C 1099.28 0.607178 -4.53957 0
M  V30 11744 N 1100.77 0.66912 -4.58342 0
M  V30 11745 C 1101.51 0.714675 -5.68929 0
M  V30 11746 N 1101 0.718959 -6.89059 0
M  V30 11747 N 1102.8 0.756326 -5.56988 0
M  V30 11748 H 1094.95 -0.740347 -1.99079 0
M  V30 11749 H 1097.21 -0.271116 -0.908405 0
M  V30 11750 H 1096.92 -0.424648 -3.49127 0
M  V30 11751 H 1096.79 1.32512 -3.53158 0
M  V30 11752 H 1099.18 1.48154 -2.55215 0
M  V30 11753 H 1099.26 -0.285991 -2.54196 0
M  V30 11754 H 1098.9 -0.294604 -5.07045 0
M  V30 11755 H 1098.83 1.48544 -5.05215 0
M  V30 11756 H 1101.32 0.672697 -3.71864 0
M  V30 11757 H 1101.64 0.755848 -7.69095 0
M  V30 11758 H 1099.98 0.686671 -6.91599 0
M  V30 11759 H 1103.17 0.750219 -4.62049 0
M  V30 11760 H 1103.34 0.788363 -6.43186 0
M  V30 11761 N 1096.75 1.52266 0.40654 0
M  V30 11762 C 1097.68 1.72025 1.51459 0
M  V30 11763 C 1098.7 0.600667 1.51314 0
M  V30 11764 O 1099.88 0.875894 1.55532 0
M  V30 11765 C 1096.98 1.7479 2.90348 0
M  V30 11766 C 1096.16 3.03826 3.14656 0
M  V30 11767 C 1095.22 2.98369 4.33431 0
M  V30 11768 O 1094.24 3.7227 4.30586 0
M  V30 11769 N 1095.44 2.16338 5.38682 0
M  V30 11770 H 1098.21 2.67622 1.34903 0
M  V30 11771 H 1095.77 1.50536 0.595867 0
M  V30 11772 H 1097.76 1.68667 3.67877 0
M  V30 11773 H 1096.33 0.86656 3.00349 0
M  V30 11774 H 1095.55 3.23577 2.25148 0
M  V30 11775 H 1096.84 3.89182 3.27742 0
M  V30 11776 H 1096.24 1.55731 5.43842 0
M  V30 11777 H 1094.8 2.1607 6.14945 0
M  V30 11778 N 1098.23 -0.663929 1.42933 0
M  V30 11779 C 1099.64 -0.978346 1.26097 0
M  V30 11780 C 1099.84 -2.00756 0.172968 0
M  V30 11781 O 1098.9 -2.48418 -0.452184 0
M  V30 11782 C 1100.21 -1.4728 2.62162 0
M  V30 11783 C 1101.76 -1.59001 2.69606 0
M  V30 11784 C 1102.24 -2.1184 4.06064 0
M  V30 11785 N 1103.73 -2.19158 4.08074 0
M  V30 11786 C 1104.46 -2.61141 5.10483 0
M  V30 11787 N 1103.96 -3.02498 6.23271 0
M  V30 11788 N 1105.75 -2.60986 4.97838 0
M  V30 11789 H 1097.9 0.0173096 2.12393 0
M  V30 11790 H 1100.17 -0.0548116 0.946414 0
M  V30 11791 H 1099.87 -0.791008 3.42689 0
M  V30 11792 H 1099.75 -2.4497 2.86827 0
M  V30 11793 H 1102.13 -2.26284 1.89418 0
M  V30 11794 H 1102.21 -0.597728 2.48718 0
M  V30 11795 H 1101.86 -1.45162 4.86714 0
M  V30 11796 H 1101.79 -3.1188 4.2431 0
M  V30 11797 H 1104.28 -1.90013 3.26655 0
M  V30 11798 H 1104.59 -3.33251 6.97254 0
M  V30 11799 H 1102.94 -3.00328 6.2676 0
M  V30 11800 H 1106.13 -2.28046 4.08794 0
M  V30 11801 H 1106.3 -2.93384 5.7778 0
M  V30 11802 N 1099.71 -1.29285 -0.901281 0
M  V30 11803 C 1100.94 -1.19874 -1.68267 0
M  V30 11804 C 1101.34 0.243387 -1.87628 0
M  V30 11805 O 1100.69 1.17497 -1.41209 0
M  V30 11806 C 1100.75 -1.83907 -3.08899 0
M  V30 11807 C 1100.41 -3.33198 -3.12775 0
M  V30 11808 C 1101.41 -4.29446 -2.9304 0
M  V30 11809 C 1099.1 -3.7437 -3.34892 0
M  V30 11810 C 1101.09 -5.64842 -2.95352 0
M  V30 11811 C 1098.78 -5.09888 -3.36834 0
M  V30 11812 C 1099.77 -6.04934 -3.17087 0
M  V30 11813 O 1099.46 -7.37979 -3.18815 0
M  V30 11814 H 1099.19 -0.416601 -0.532372 0
M  V30 11815 H 1101.75 -1.71154 -1.13558 0
M  V30 11816 H 1099.98 -1.27136 -3.65203 0
M  V30 11817 H 1101.67 -1.6884 -3.69118 0
M  V30 11818 H 1102.43 -3.9897 -2.75767 0
M  V30 11819 H 1098.31 -3.00846 -3.49303 0
M  V30 11820 H 1101.86 -6.39004 -2.79856 0
M  V30 11821 H 1097.75 -5.40009 -3.53638 0
M  V30 11822 H 1098.52 -7.46763 -3.35092 0
M  V30 11823 N 1101.18 1.11143 -1.11736 0
M  V30 11824 C 1102.09 2.20851 -0.791331 0
M  V30 11825 C 1103.11 1.72644 0.216833 0
M  V30 11826 O 1104.29 2.01332 0.0522401 0
M  V30 11827 C 1101.35 3.4585 -0.242694 0
M  V30 11828 C 1100.41 4.08829 -1.30986 0
M  V30 11829 C 1099.65 5.27861 -0.787305 0
M  V30 11830 O 1099.87 5.69122 0.381549 0
M  V30 11831 O 1098.8 5.81506 -1.55352 0
M  V30 11832 H 1102.63 2.51158 -1.70744 0
M  V30 11833 H 1100.21 1.19739 -0.893478 0
M  V30 11834 H 1102.1 4.21359 0.0587472 0
M  V30 11835 H 1100.77 3.17187 0.646079 0
M  V30 11836 H 1099.68 3.35037 -1.66436 0
M  V30 11837 H 1101.01 4.41678 -2.17213 0
M  V30 11838 N 1102.66 0.908147 1.28804 0
M  V30 11839 C 1103.91 0.534332 1.94494 0
M  V30 11840 C 1104.22 -0.92552 1.72318 0
M  V30 11841 O 1105.43 -1.40724 2.32183 0
M  V30 11842 C 1103.89 0.904748 3.48342 0
M  V30 11843 C 1103.49 2.38394 3.79305 0
M  V30 11844 C 1105.24 0.601249 4.2022 0
M  V30 11845 C 1103.15 2.69478 5.26437 0
M  V30 11846 H 1102.08 0.196107 0.728051 0
M  V30 11847 H 1104.73 1.1063 1.46401 0
M  V30 11848 H 1103.11 0.261624 3.95135 0
M  V30 11849 H 1104.28 3.07333 3.43341 0
M  V30 11850 H 1102.6 2.65733 3.20586 0
M  V30 11851 H 1105.19 0.810225 5.28526 0
M  V30 11852 H 1105.54 -0.460669 4.13743 0
M  V30 11853 H 1106.07 1.20259 3.79187 0
M  V30 11854 H 1102.81 3.74501 5.37986 0
M  V30 11855 H 1102.33 2.05171 5.63618 0
M  V30 11856 H 1104.01 2.56187 5.94119 0
M  V30 11857 N 1104.14 -1.42577 0.671525 0
M  V30 11858 C 1105.07 -2.33499 0.00506984 0
M  V30 11859 C 1106.05 -1.50497 -0.792763 0
M  V30 11860 O 1107.24 -1.79109 -0.750574 0
M  V30 11861 C 1104.37 -3.34077 -0.949194 0
M  V30 11862 C 1103.32 -4.27208 -0.260187 0
M  V30 11863 C 1102.65 -5.17968 -1.32716 0
M  V30 11864 C 1103.95 -5.15192 0.858772 0
M  V30 11865 H 1105.64 -2.89477 0.764407 0
M  V30 11866 H 1103.19 -1.39191 0.369043 0
M  V30 11867 H 1105.14 -3.96594 -1.42448 0
M  V30 11868 H 1103.86 -2.76396 -1.73991 0
M  V30 11869 H 1102.52 -3.66082 0.194834 0
M  V30 11870 H 1102.17 -4.56615 -2.10979 0
M  V30 11871 H 1101.87 -5.81104 -0.871293 0
M  V30 11872 H 1103.39 -5.83359 -1.80345 0
M  V30 11873 H 1104.81 -5.71412 0.464844 0
M  V30 11874 H 1103.21 -5.87144 1.24023 0
M  V30 11875 H 1104.28 -4.53787 1.70895 0
M  V30 11876 N 1105.62 -0.414636 -1.52048 0
M  V30 11877 C 1106.85 0.158686 -2.06291 0
M  V30 11878 C 1107.26 1.38397 -1.2842 0
M  V30 11879 O 1106.62 1.79351 -0.337539 0
M  V30 11880 C 1106.67 0.503634 -3.57975 0
M  V30 11881 O 1106.39 -0.672996 -4.329 0
M  V30 11882 C 1107.89 1.13009 -4.28653 0
M  V30 11883 H 1105.11 0.0179622 -0.67076 0
M  V30 11884 H 1107.66 -0.587177 -1.95889 0
M  V30 11885 H 1105.81 1.19939 -3.68366 0
M  V30 11886 H 1106.22 -0.383735 -5.23094 0
M  V30 11887 H 1107.7 1.32162 -5.35945 0
M  V30 11888 H 1108.18 2.10476 -3.85482 0
M  V30 11889 H 1108.78 0.474379 -4.22646 0
M  V30 11890 N 1107.1 1.56929 -0.145233 0
M  V30 11891 C 1108.51 1.82877 0.375884 0
M  V30 11892 C 1108.86 1.06384 1.64854 0
M  V30 11893 O 1107.98 0.30857 2.14189 0
M  V30 11894 C 1108.58 3.31725 0.688744 0
M  V30 11895 C 1107.14 3.58261 1.15439 0
M  V30 11896 C 1106.28 2.76737 0.176565 0
M  V30 11897 H 1109.24 1.54328 -0.36996 0
M  V30 11898 H 1109.26 3.47784 1.54359 0
M  V30 11899 H 1108.77 3.87371 -0.237694 0
M  V30 11900 H 1106.87 3.08 2.09683 0
M  V30 11901 H 1106.98 4.66732 1.08158 0
M  V30 11902 H 1105.35 2.45761 0.668843 0
M  V30 11903 H 1106.13 3.35154 -0.743432 0
M  V30 11904 N 1108.58 -0.128553 1.57075 0
M  V30 11905 C 1109.52 -1.17719 2.00611 0
M  V30 11906 C 1110.52 -1.43423 0.90146 0
M  V30 11907 O 1111.72 -1.43498 1.08666 0
M  V30 11908 H 1108.1 -0.396683 0.638864 0
M  V30 11909 H 1110.07 -0.783437 2.87932 0
M  V30 11910 C 1108.82 -2.49826 2.41831 0
M  V30 11911 H 1108.14 -2.30883 3.26394 0
M  V30 11912 H 1109.58 -3.21784 2.761 0
M  V30 11913 C 1108.04 -3.11712 1.27816 0
M  V30 11914 O 1108.57 -3.9736 0.588917 0
M  V30 11915 N 1106.78 -2.71442 1.03767 0
M  V30 11916 H 1106.32 -2.01891 1.59994 0
M  V30 11917 H 1106.28 -3.1318 0.276743 0
M  V30 11918 N 1110.05 -1.5248 -0.398459 0
M  V30 11919 C 1111.02 -1.75949 -1.46883 0
M  V30 11920 C 1112.02 -0.629431 -1.47969 0
M  V30 11921 O 1113.21 -0.897407 -1.49306 0
M  V30 11922 C 1110.34 -1.85162 -2.8623 0
M  V30 11923 H 1111.53 -2.71513 -1.2736 0
M  V30 11924 H 1109.08 -1.43058 -0.629619 0
M  V30 11925 H 1109.82 -0.915505 -3.11109 0
M  V30 11926 H 1109.6 -2.67326 -2.86844 0
M  V30 11927 H 1111.09 -2.05025 -3.63805 0
M  V30 11928 N 1111.53 0.65634 -1.43283 0
M  V30 11929 C 1112.78 1.41212 -1.44021 0
M  V30 11930 C 1113.09 1.95485 -0.0669783 0
M  V30 11931 O 1114.3 2.71457 0.0481909 0
M  V30 11932 C 1112.76 2.55541 -2.5343 0
M  V30 11933 C 1112.36 2.07889 -3.96845 0
M  V30 11934 C 1114.11 3.3293 -2.63359 0
M  V30 11935 C 1112.01 3.19411 -4.97726 0
M  V30 11936 H 1110.94 0.530566 -0.535739 0
M  V30 11937 H 1113.6 0.708743 -1.6926 0
M  V30 11938 H 1111.98 3.28335 -2.21387 0
M  V30 11939 H 1113.15 1.42127 -4.38334 0
M  V30 11940 H 1111.47 1.43388 -3.90933 0
M  V30 11941 H 1114.06 4.1602 -3.35903 0
M  V30 11942 H 1114.41 3.80753 -1.68324 0
M  V30 11943 H 1114.94 2.67216 -2.94687 0
M  V30 11944 H 1111.68 2.7656 -5.94302 0
M  V30 11945 H 1111.2 3.83895 -4.60853 0
M  V30 11946 H 1112.88 3.84591 -5.20287 0
M  V30 11947 N 1113.01 1.29761 0.894412 0
M  V30 11948 C 1114.42 1.16275 1.46072 0
M  V30 11949 C 1114.77 -0.240123 1.94725 0
M  V30 11950 O 1113.9 -1.13606 1.84181 0
M  V30 11951 C 1114.49 2.10471 2.65494 0
M  V30 11952 C 1113.05 2.00992 3.18244 0
M  V30 11953 C 1112.2 2.01094 1.90936 0
M  V30 11954 H 1115.15 1.42169 0.705243 0
M  V30 11955 H 1115.17 1.68003 3.41402 0
M  V30 11956 H 1114.68 3.12566 2.30053 0
M  V30 11957 H 1112.78 1.02005 3.58365 0
M  V30 11958 H 1112.9 2.88916 3.82184 0
M  V30 11959 H 1111.26 1.45764 2.08866 0
M  V30 11960 H 1112.04 3.04902 1.57764 0
M  V30 11961 N 1114.49 -1.10549 1.12324 0
M  V30 11962 C 1115.43 -2.16858 0.790024 0
M  V30 11963 C 1116.4 -1.64317 -0.242694 0
M  V30 11964 O 1117.59 -1.90438 -0.117531 0
M  V30 11965 C 1114.73 -3.44197 0.249503 0
M  V30 11966 C 1113.84 -4.10696 1.33989 0
M  V30 11967 C 1112.98 -5.25751 0.758932 0
M  V30 11968 C 1112.02 -5.8415 1.82853 0
M  V30 11969 N 1111.15 -6.90585 1.26637 0
M  V30 11970 H 1115.99 -2.44705 1.7007 0
M  V30 11971 H 1113.53 -1.20117 0.849141 0
M  V30 11972 H 1115.49 -4.1712 -0.0819251 0
M  V30 11973 H 1114.12 -3.16705 -0.624332 0
M  V30 11974 H 1113.17 -3.35754 1.78812 0
M  V30 11975 H 1114.48 -4.50144 2.14875 0
M  V30 11976 H 1113.64 -6.05521 0.378104 0
M  V30 11977 H 1112.38 -4.87632 -0.0811405 0
M  V30 11978 H 1111.38 -5.03051 2.21856 0
M  V30 11979 H 1112.61 -6.24333 2.6718 0
M  V30 11980 H 1110.55 -6.54468 0.448105 0
M  V30 11981 H 1110.47 -7.28739 2.01184 0
M  V30 11982 H 1111.74 -7.74138 0.912737 0
M  V30 11983 N 1115.97 -0.914965 -1.28321 0
M  V30 11984 C 1117.21 -0.547665 -1.94538 0
M  V30 11985 C 1117.53 0.911834 -1.72368 0
M  V30 11986 O 1116.8 1.64481 -1.06408 0
M  V30 11987 H 1115.38 -0.199549 -0.719853 0
M  V30 11988 H 1118.05 -1.16459 -1.5628 0
M  V30 11989 H 1117.14 -0.743138 -3.03124 0
M  V30 11990 N 1117.44 1.42219 -0.679077 0
M  V30 11991 C 1118.69 2.01479 -0.203119 0
M  V30 11992 C 1119.02 1.5371 1.19178 0
M  V30 11993 O 1118.27 0.731832 1.81501 0
M  V30 11994 C 1118.57 3.56889 -0.191027 0
M  V30 11995 C 1118.24 4.24106 -1.53118 0
M  V30 11996 C 1116.9 4.42182 -1.89812 0
M  V30 11997 C 1119.25 4.61946 -2.41361 0
M  V30 11998 C 1116.58 4.95371 -3.14364 0
M  V30 11999 C 1118.93 5.16518 -3.65229 0
M  V30 12000 C 1117.6 5.32807 -4.02086 0
M  V30 12001 H 1116.87 0.737263 -0.0743264 0
M  V30 12002 H 1119.51 1.70346 -0.874908 0
M  V30 12003 H 1117.82 3.87715 0.564282 0
M  V30 12004 H 1119.52 4.00528 0.194511 0
M  V30 12005 H 1116.11 4.10399 -1.23575 0
M  V30 12006 H 1120.29 4.4765 -2.14297 0
M  V30 12007 H 1115.55 5.06167 -3.42935 0
M  V30 12008 H 1119.72 5.44782 -4.33804 0
M  V30 12009 H 1117.35 5.73785 -4.98673 0
M  V30 12010 N 1118.92 0.422693 1.51826 0
M  V30 12011 C 1119.85 -0.440987 2.23899 0
M  V30 12012 C 1120.83 -1.03685 1.25252 0
M  V30 12013 O 1122.02 -1.08212 1.54345 0
M  V30 12014 C 1119.14 -1.61331 2.97809 0
M  V30 12015 C 1118.19 -1.13954 4.10995 0
M  V30 12016 S 1119.02 -0.0935426 5.35418 0
M  V30 12017 C 1120.18 -1.27087 6.12862 0
M  V30 12018 H 1120.41 0.170945 2.96808 0
M  V30 12019 H 1117.94 0.20709 1.53005 0
M  V30 12020 H 1119.9 -2.28546 3.40994 0
M  V30 12021 H 1118.56 -2.19662 2.24516 0
M  V30 12022 H 1117.76 -2.01578 4.61933 0
M  V30 12023 H 1117.36 -0.545838 3.69995 0
M  V30 12024 H 1119.65 -2.19199 6.4106 0
M  V30 12025 H 1120.59 -0.801752 7.03546 0
M  V30 12026 H 1121 -1.50281 5.44129 0
M  V30 12027 N 1120.4 -1.5685 0.153553 0
M  V30 12028 C 1121.68 -1.8796 -0.541328 0
M  V30 12029 C 1122.06 -1.06059 -1.82523 0
M  V30 12030 O 1121.4 -0.149295 -2.28012 0
M  V30 12031 C 1121.61 -3.39697 -0.800442 0
M  V30 12032 C 1122.96 -4.09057 -1.13832 0
M  V30 12033 O 1123.99 -3.44913 -0.889578 0
M  V30 12034 O 1122.85 -5.22347 -1.60673 0
M  V30 12035 H 1119.94 -0.779268 -0.276895 0
M  V30 12036 H 1122.49 -1.68626 0.190657 0
M  V30 12037 H 1121.26 -3.91151 0.107935 0
M  V30 12038 H 1120.88 -3.64582 -1.58638 0
M  V30 12039 N 1121.88 0.120221 -1.57141 0
M  V30 12040 C 1123.13 0.826586 -1.84423 0
M  V30 12041 C 1123.45 1.80473 -0.738553 0
M  V30 12042 O 1122.72 1.94454 0.23755 0
M  V30 12043 H 1121.3 0.308246 -0.680436 0
M  V30 12044 H 1123.96 0.107835 -1.94601 0
M  V30 12045 H 1123.05 1.37256 -2.80298 0
M  V30 12046 N 1123.36 1.52689 0.390367 0
M  V30 12047 C 1124.3 1.7737 1.47677 0
M  V30 12048 C 1125.27 0.616864 1.54221 0
M  V30 12049 O 1126.46 0.856437 1.70499 0
M  V30 12050 C 1123.6 1.94715 2.84921 0
M  V30 12051 C 1122.71 3.22405 2.8754 0
M  V30 12052 C 1121.85 3.30074 4.16202 0
M  V30 12053 C 1120.89 4.51893 4.12867 0
M  V30 12054 N 1120.02 4.56851 5.33134 0
M  V30 12055 H 1124.86 2.70084 1.25932 0
M  V30 12056 H 1122.4 1.33813 0.610943 0
M  V30 12057 H 1124.36 2.02755 3.64618 0
M  V30 12058 H 1122.99 1.05363 3.0512 0
M  V30 12059 H 1122.04 3.23442 2.00223 0
M  V30 12060 H 1123.35 4.12156 2.80943 0
M  V30 12061 H 1122.51 3.3729 5.04302 0
M  V30 12062 H 1121.24 2.38295 4.25519 0
M  V30 12063 H 1120.25 4.44803 3.23156 0
M  V30 12064 H 1121.47 5.44987 4.05174 0
M  V30 12065 H 1119.42 3.67963 5.43083 0
M  V30 12066 H 1119.34 5.40472 5.28607 0
M  V30 12067 H 1120.61 4.6832 6.23134 0
M  V30 12068 N 1124.83 -0.648732 1.43629 0
M  V30 12069 C 1125.77 -1.77417 1.45107 0
M  V30 12070 C 1126.78 -1.59067 0.346618 0
M  V30 12071 O 1127.97 -1.67705 0.611322 0
M  V30 12072 C 1125.07 -3.14906 1.25249 0
M  V30 12073 C 1124.24 -3.59874 2.48616 0
M  V30 12074 C 1123.3 -4.76181 2.23916 0
M  V30 12075 O 1122.33 -4.8539 2.97296 0
M  V30 12076 N 1123.53 -5.66691 1.25862 0
M  V30 12077 H 1126.29 -1.76626 2.42123 0
M  V30 12078 H 1123.85 -0.832725 1.38843 0
M  V30 12079 H 1125.85 -3.90408 1.06601 0
M  V30 12080 H 1124.42 -3.10443 0.366623 0
M  V30 12081 H 1123.64 -2.74768 2.82659 0
M  V30 12082 H 1124.92 -3.86665 3.30708 0
M  V30 12083 H 1124.32 -5.61927 0.652227 0
M  V30 12084 H 1122.88 -6.41895 1.13196 0
M  V30 12085 N 1126.31 -1.30234 -0.887518 0
M  V30 12086 C 1127.28 -1.16384 -1.97452 0
M  V30 12087 C 1128.28 -0.0957942 -1.60514 0
M  V30 12088 O 1129.47 -0.343706 -1.70776 0
M  V30 12089 C 1126.6 -0.782514 -3.31797 0
M  V30 12090 H 1127.79 -2.12952 -2.11167 0
M  V30 12091 H 1125.34 -1.13594 -1.07359 0
M  V30 12092 H 1126.08 0.18278 -3.23785 0
M  V30 12093 H 1125.86 -1.55434 -3.59976 0
M  V30 12094 H 1127.35 -0.709011 -4.11537 0
M  V30 12095 N 1127.79 1.09952 -1.12909 0
M  V30 12096 C 1129.03 1.83635 -0.897646 0
M  V30 12097 C 1129.39 1.83462 0.566179 0
M  V30 12098 O 1130.6 2.52748 0.914977 0
M  V30 12099 C 1128.87 3.26095 -1.46277 0
M  V30 12100 S 1130.43 4.16846 -1.37059 0
M  V30 12101 H 1127.24 0.633045 -0.32369 0
M  V30 12102 H 1129.85 1.32275 -1.43957 0
M  V30 12103 H 1128.55 3.23793 -2.52163 0
M  V30 12104 H 1128.08 3.82526 -0.918549 0
M  V30 12105 H 1130.1 4.94996 -0.345399 0
M  V30 12106 N 1129.27 0.921757 1.27833 0
M  V30 12107 C 1130.18 0.421668 2.30779 0
M  V30 12108 C 1131.19 -0.494686 1.6682 0
M  V30 12109 O 1132.37 -0.378935 1.97803 0
M  V30 12110 C 1129.44 -0.322928 3.45193 0
M  V30 12111 C 1128.5 0.627618 4.24687 0
M  V30 12112 C 1127.73 -0.0815385 5.33638 0
M  V30 12113 O 1127.95 -1.30193 5.55343 0
M  V30 12114 O 1126.89 0.58725 5.99028 0
M  V30 12115 H 1130.71 1.2763 2.7558 0
M  V30 12116 H 1128.3 0.686877 1.32674 0
M  V30 12117 H 1130.18 -0.743145 4.14796 0
M  V30 12118 H 1128.85 -1.15326 3.02459 0
M  V30 12119 H 1127.76 1.09739 3.57642 0
M  V30 12120 H 1129.09 1.425 4.71121 0
M  V30 12121 N 1130.75 -1.41857 0.686609 0
M  V30 12122 C 1131.69 -2.30795 0.015643 0
M  V30 12123 C 1132.66 -1.46616 -0.780569 0
M  V30 12124 O 1133.85 -1.75423 -0.750424 0
M  V30 12125 C 1130.99 -3.32577 -0.921229 0
M  V30 12126 C 1130.1 -4.3184 -0.117585 0
M  V30 12127 C 1129.24 -5.20693 -1.05128 0
M  V30 12128 C 1128.28 -6.11629 -0.240018 0
M  V30 12129 N 1127.41 -6.92995 -1.12704 0
M  V30 12130 H 1132.25 -2.87615 0.77985 0
M  V30 12131 H 1129.79 -1.41661 0.396298 0
M  V30 12132 H 1131.75 -3.90129 -1.47836 0
M  V30 12133 H 1130.38 -2.77328 -1.65193 0
M  V30 12134 H 1129.43 -3.7631 0.55634 0
M  V30 12135 H 1130.74 -4.96168 0.511753 0
M  V30 12136 H 1129.9 -5.83035 -1.67795 0
M  V30 12137 H 1128.63 -4.5657 -1.71449 0
M  V30 12138 H 1127.64 -5.48345 0.399779 0
M  V30 12139 H 1128.86 -6.77805 0.419266 0
M  V30 12140 H 1126.81 -6.31489 -1.77644 0
M  V30 12141 H 1126.73 -7.53974 -0.553065 0
M  V30 12142 H 1128 -7.59813 -1.7408 0
M  V30 12143 N 1132.22 -0.430739 -1.51599 0
M  V30 12144 C 1133.16 0.429107 -2.24129 0
M  V30 12145 C 1134.14 1.03019 -1.25801 0
M  V30 12146 O 1135.32 1.07392 -1.54917 0
M  V30 12147 C 1132.45 1.59749 -2.9866 0
M  V30 12148 C 1131.49 1.11773 -4.11593 0
M  V30 12149 S 1132.33 0.0651468 -5.3546 0
M  V30 12150 C 1133.48 1.23835 -6.13527 0
M  V30 12151 H 1133.71 -0.186683 -2.96713 0
M  V30 12152 H 1131.25 -0.215201 -1.52893 0
M  V30 12153 H 1133.21 2.26735 -3.42201 0
M  V30 12154 H 1131.87 2.18468 -2.25678 0
M  V30 12155 H 1131.06 1.99125 -4.62996 0
M  V30 12156 H 1130.66 0.526209 -3.7028 0
M  V30 12157 H 1132.95 2.15796 -6.42214 0
M  V30 12158 H 1133.9 0.76443 -7.03962 0
M  V30 12159 H 1134.3 1.47393 -5.44918 0
M  V30 12160 N 1133.7 1.56767 -0.161869 0
M  V30 12161 C 1134.95 1.95769 0.485536 0
M  V30 12162 C 1135.26 1.05006 1.65025 0
M  V30 12163 O 1136.47 1.33649 2.36326 0
M  V30 12164 C 1134.93 3.4807 0.915176 0
M  V30 12165 C 1134.53 4.47443 -0.223416 0
M  V30 12166 C 1136.28 3.95909 1.53153 0
M  V30 12167 C 1134.19 5.90971 0.225325 0
M  V30 12168 H 1133.12 0.730911 0.185161 0
M  V30 12169 H 1135.77 1.81808 -0.248592 0
M  V30 12170 H 1134.15 3.57415 1.705 0
M  V30 12171 H 1135.32 4.49805 -1.00061 0
M  V30 12172 H 1133.64 4.09606 -0.749127 0
M  V30 12173 H 1136.23 5.00592 1.87915 0
M  V30 12174 H 1136.58 3.38307 2.42599 0
M  V30 12175 H 1137.11 3.89542 0.806322 0
M  V30 12176 H 1133.85 6.52426 -0.634124 0
M  V30 12177 H 1133.37 5.91936 0.96808 0
M  V30 12178 H 1135.05 6.43497 0.672373 0
M  V30 12179 N 1135.18 -0.111886 1.57202 0
M  V30 12180 C 1136.11 -1.16274 1.97517 0
M  V30 12181 C 1137.13 -1.37259 0.875425 0
M  V30 12182 O 1138.31 -1.36208 1.15367 0
M  V30 12183 C 1135.41 -2.52145 2.26442 0
M  V30 12184 C 1134.59 -2.51666 3.57747 0
M  V30 12185 C 1133.65 -3.69337 3.74802 0
M  V30 12186 O 1132.67 -3.52596 4.46839 0
M  V30 12187 N 1133.87 -4.88177 3.14108 0
M  V30 12188 H 1136.64 -0.819747 2.88271 0
M  V30 12189 H 1134.2 -0.301076 1.59076 0
M  V30 12190 H 1136.19 -3.29437 2.3506 0
M  V30 12191 H 1134.76 -2.78599 1.41779 0
M  V30 12192 H 1133.98 -1.60038 3.60252 0
M  V30 12193 H 1135.27 -2.48408 4.44039 0
M  V30 12194 H 1134.67 -5.04682 2.55564 0
M  V30 12195 H 1133.23 -5.6312 3.28237 0
M  V30 12196 N 1136.66 -1.52894 -0.382264 0
M  V30 12197 C 1137.62 -1.77497 -1.45008 0
M  V30 12198 C 1138.62 -0.64509 -1.47293 0
M  V30 12199 O 1139.81 -0.913192 -1.48346 0
M  V30 12200 C 1136.94 -1.88188 -2.8425 0
M  V30 12201 H 1138.14 -2.72849 -1.24473 0
M  V30 12202 H 1135.69 -1.43717 -0.61441 0
M  V30 12203 H 1136.42 -0.948451 -3.10121 0
M  V30 12204 H 1136.21 -2.70353 -2.83992 0
M  V30 12205 H 1137.7 -2.08873 -3.6161 0
M  V30 12206 N 1138.14 0.641106 -1.43971 0
M  V30 12207 C 1139.07 1.76489 -1.52885 0
M  V30 12208 C 1140.05 1.65742 -0.38258 0
M  V30 12209 O 1141.23 1.84653 -0.601397 0
M  V30 12210 C 1138.36 3.14977 -1.4631 0
M  V30 12211 C 1137.32 3.40502 -2.59311 0
M  V30 12212 C 1136.64 4.78916 -2.37789 0
M  V30 12213 C 1137.94 3.34048 -4.01509 0
M  V30 12214 H 1139.64 1.69286 -2.46946 0
M  V30 12215 H 1137.18 0.813015 -1.18853 0
M  V30 12216 H 1139.14 3.9336 -1.51149 0
M  V30 12217 H 1137.86 3.2294 -0.487599 0
M  V30 12218 H 1136.52 2.64495 -2.53846 0
M  V30 12219 H 1136.17 4.8357 -1.38454 0
M  V30 12220 H 1135.87 4.96954 -3.13545 0
M  V30 12221 H 1137.39 5.59541 -2.4443 0
M  V30 12222 H 1138.81 4.0235 -4.08396 0
M  V30 12223 H 1137.2 3.63622 -4.77388 0
M  V30 12224 H 1138.27 2.32022 -4.25786 0
M  V30 12225 N 1139.62 1.30703 0.880598 0
M  V30 12226 C 1140.53 1.19389 2.01949 0
M  V30 12227 C 1141.54 0.112868 1.73634 0
M  V30 12228 O 1142.72 0.328643 1.98701 0
M  V30 12229 C 1139.78 0.891004 3.35055 0
M  V30 12230 C 1138.84 2.05784 3.76764 0
M  V30 12231 C 1138.08 1.76931 5.03519 0
M  V30 12232 O 1138.3 0.699326 5.66097 0
M  V30 12233 O 1137.23 2.623 5.4174 0
M  V30 12234 H 1141.06 2.15073 2.14423 0
M  V30 12235 H 1138.64 1.10339 1.00726 0
M  V30 12236 H 1140.53 0.737476 4.14897 0
M  V30 12237 H 1139.2 -0.0358909 3.2368 0
M  V30 12238 H 1138.11 2.26672 2.97608 0
M  V30 12239 H 1139.44 2.96661 3.9275 0
M  V30 12240 N 1141.09 -1.09351 1.1349 0
M  V30 12241 C 1142.02 -2.18037 0.835588 0
M  V30 12242 C 1143 -1.68856 -0.205373 0
M  V30 12243 O 1144.19 -1.94094 -0.0641357 0
M  V30 12244 C 1141.32 -3.45987 0.301661 0
M  V30 12245 C 1140.27 -4.08507 1.27696 0
M  V30 12246 C 1139.6 -5.31292 0.602758 0
M  V30 12247 C 1140.9 -4.50916 2.63575 0
M  V30 12248 H 1142.59 -2.43332 1.74441 0
M  V30 12249 H 1140.14 -1.1695 0.840166 0
M  V30 12250 H 1142.09 -4.21324 0.079928 0
M  V30 12251 H 1140.82 -3.20217 -0.642552 0
M  V30 12252 H 1139.48 -3.3519 1.4847 0
M  V30 12253 H 1139.12 -5.01802 -0.346953 0
M  V30 12254 H 1138.82 -5.74075 1.25345 0
M  V30 12255 H 1140.35 -6.09351 0.390325 0
M  V30 12256 H 1141.76 -5.17474 2.46765 0
M  V30 12257 H 1140.16 -5.04586 3.24827 0
M  V30 12258 H 1141.23 -3.63279 3.2118 0
M  V30 12259 N 1142.57 -0.928524 -1.27343 0
M  V30 12260 C 1143.85 -0.487758 -1.89421 0
M  V30 12261 C 1144.23 1.03418 -1.84032 0
M  V30 12262 O 1143.58 1.8887 -1.2861 0
M  V30 12263 C 1143.79 -1.03478 -3.33307 0
M  V30 12264 C 1145.13 -1.09577 -4.10217 0
M  V30 12265 O 1146.16 -0.984463 -3.42326 0
M  V30 12266 O 1145.02 -1.2673 -5.31603 0
M  V30 12267 H 1142.11 -0.157018 -0.811957 0
M  V30 12268 H 1144.66 -1.02027 -1.35605 0
M  V30 12269 H 1143.43 -2.07861 -3.31526 0
M  V30 12270 H 1143.05 -0.483967 -3.94644 0
M  V30 12271 N 1144.05 1.41491 -0.694123 0
M  V30 12272 C 1145.46 1.84283 -0.299439 0
M  V30 12273 C 1145.81 1.58081 1.16211 0
M  V30 12274 O 1144.94 1.05051 1.89191 0
M  V30 12275 C 1145.53 3.34522 -0.536696 0
M  V30 12276 C 1144.09 3.7589 -0.195944 0
M  V30 12277 C 1143.24 2.64908 -0.819692 0
M  V30 12278 H 1146.19 1.31063 -0.894884 0
M  V30 12279 H 1146.21 3.79947 0.205062 0
M  V30 12280 H 1145.72 3.53561 -1.6005 0
M  V30 12281 H 1143.82 3.62452 0.863655 0
M  V30 12282 H 1143.94 4.74671 -0.649954 0
M  V30 12283 H 1142.3 2.53476 -0.249412 0
M  V30 12284 H 1143.08 2.86765 -1.88734 0
M  V30 12285 N 1145.53 0.438773 1.51369 0
M  V30 12286 C 1146.48 -0.386324 2.29369 0
M  V30 12287 C 1147.47 -1.0196 1.3528 0
M  V30 12288 O 1148.68 -0.9544 1.52615 0
M  V30 12289 H 1145.05 -0.143397 0.738201 0
M  V30 12290 H 1147.02 0.292372 2.96964 0
M  V30 12291 C 1145.77 -1.47426 3.14898 0
M  V30 12292 H 1145.09 -0.996335 3.87186 0
M  V30 12293 H 1146.53 -2.02481 3.72529 0
M  V30 12294 C 1144.99 -2.45831 2.30366 0
M  V30 12295 O 1145.52 -3.50398 1.96428 0
M  V30 12296 N 1143.73 -2.16754 1.93561 0
M  V30 12297 H 1143.28 -1.31748 2.2136 0
M  V30 12298 H 1143.23 -2.82836 1.373 0
M  V30 12299 N 1147.01 -1.56678 0.170181 0
M  V30 12300 C 1147.94 -2.20916 -0.756213 0
M  V30 12301 C 1148.92 -1.16442 -1.23997 0
M  V30 12302 O 1150.1 -1.44867 -1.29333 0
M  V30 12303 C 1147.23 -2.84901 -1.98617 0
M  V30 12304 C 1146.19 -3.95403 -1.63831 0
M  V30 12305 C 1145.51 -4.46432 -2.94282 0
M  V30 12306 C 1146.81 -5.15051 -0.867195 0
M  V30 12307 H 1148.51 -2.98585 -0.220776 0
M  V30 12308 H 1146.05 -1.43619 -0.104748 0
M  V30 12309 H 1148 -3.28514 -2.63926 0
M  V30 12310 H 1146.73 -2.04598 -2.54572 0
M  V30 12311 H 1145.39 -3.52444 -1.00891 0
M  V30 12312 H 1145.04 -3.62923 -3.48276 0
M  V30 12313 H 1144.74 -5.20979 -2.71762 0
M  V30 12314 H 1146.26 -4.92731 -3.60622 0
M  V30 12315 H 1147.67 -5.55363 -1.42285 0
M  V30 12316 H 1146.07 -5.95507 -0.741065 0
M  V30 12317 H 1147.14 -4.84707 0.136693 0
M  V30 12318 N 1148.48 0.103547 -1.57259 0
M  V30 12319 C 1149.71 0.821158 -1.8958 0
M  V30 12320 C 1150.12 1.73213 -0.761184 0
M  V30 12321 O 1149.46 1.81611 0.27625 0
M  V30 12322 C 1149.53 1.69428 -3.17072 0
M  V30 12323 C 1149.19 0.956014 -4.46889 0
M  V30 12324 C 1150.19 0.289694 -5.19092 0
M  V30 12325 C 1147.87 0.932602 -4.93566 0
M  V30 12326 C 1149.87 -0.390164 -6.36205 0
M  V30 12327 C 1147.55 0.248954 -6.10593 0
M  V30 12328 C 1148.55 -0.411259 -6.81761 0
M  V30 12329 O 1148.24 -1.08396 -7.96559 0
M  V30 12330 H 1147.97 0.240508 -0.631769 0
M  V30 12331 H 1150.53 0.0877817 -2.05212 0
M  V30 12332 H 1148.76 2.46968 -2.97563 0
M  V30 12333 H 1150.44 2.28769 -3.3529 0
M  V30 12334 H 1151.21 0.299297 -4.84076 0
M  V30 12335 H 1147.09 1.43592 -4.38067 0
M  V30 12336 H 1150.63 -0.906057 -6.91691 0
M  V30 12337 H 1146.53 0.237168 -6.45064 0
M  V30 12338 H 1147.3 -0.990002 -8.12491 0
M  V30 12339 N 1149.96 1.53094 0.37415 0
M  V30 12340 C 1151.38 1.42676 0.715246 0
M  V30 12341 C 1151.58 0.558992 1.93591 0
M  V30 12342 O 1150.63 0.0381328 2.52471 0
M  V30 12343 C 1151.95 2.85746 0.936459 0
M  V30 12344 C 1153.49 2.95322 1.03701 0
M  V30 12345 C 1153.97 4.39436 1.29075 0
M  V30 12346 N 1155.46 4.42826 1.35864 0
M  V30 12347 C 1156.2 5.51433 1.57191 0
M  V30 12348 N 1155.69 6.701 1.75891 0
M  V30 12349 N 1157.48 5.38998 1.59491 0
M  V30 12350 H 1149.64 2.08025 -0.428854 0
M  V30 12351 H 1151.9 0.939078 -0.129758 0
M  V30 12352 H 1151.6 3.51523 0.111448 0
M  V30 12353 H 1151.48 3.28887 1.84698 0
M  V30 12354 H 1153.87 2.29704 1.85257 0
M  V30 12355 H 1153.95 2.55588 0.104066 0
M  V30 12356 H 1153.59 5.05625 0.480231 0
M  V30 12357 H 1153.52 4.76735 2.23677 0
M  V30 12358 H 1156.01 3.57301 1.23061 0
M  V30 12359 H 1156.32 7.48643 1.91713 0
M  V30 12360 H 1154.67 6.73102 1.73086 0
M  V30 12361 H 1157.86 4.45257 1.44444 0
M  V30 12362 H 1158.03 6.23705 1.75771 0
M  V30 12363 N 1151.44 -0.633461 1.44309 0
M  V30 12364 C 1152.69 -1.39513 1.47187 0
M  V30 12365 C 1153.02 -1.93926 0.103186 0
M  V30 12366 O 1152.29 -1.73512 -0.878853 0
M  V30 12367 C 1152.58 -2.56213 2.53036 0
M  V30 12368 C 1152.43 -2.07164 3.99253 0
M  V30 12369 C 1153.75 -3.58403 2.55412 0
M  V30 12370 H 1150.87 -0.505936 0.535908 0
M  V30 12371 H 1153.51 -0.716445 1.75975 0
M  V30 12372 H 1151.66 -3.14111 2.28619 0
M  V30 12373 H 1153.33 -1.54115 4.34795 0
M  V30 12374 H 1151.57 -1.38367 4.11141 0
M  V30 12375 H 1152.25 -2.91172 4.6896 0
M  V30 12376 H 1154.72 -3.103 2.77224 0
M  V30 12377 H 1153.6 -4.37581 3.31382 0
M  V30 12378 H 1153.86 -4.12316 1.59523 0
M  V30 12379 N 1152.92 -1.31168 -0.873655 0
M  V30 12380 C 1154.17 -1.20404 -1.62319 0
M  V30 12381 C 1154.49 0.238829 -1.93532 0
M  V30 12382 O 1153.76 1.15854 -1.57971 0
M  V30 12383 H 1152.34 -0.442632 -0.601736 0
M  V30 12384 H 1155 -1.64445 -1.04613 0
M  V30 12385 H 1154.1 -1.77309 -2.56842 0
M  V30 12386 N 1154.4 1.08748 -1.14068 0
M  V30 12387 C 1155.33 2.1544 -0.782199 0
M  V30 12388 C 1156.34 1.61575 0.199301 0
M  V30 12389 O 1157.53 1.78487 -0.0219044 0
M  V30 12390 C 1154.63 3.38611 -0.13983 0
M  V30 12391 C 1153.8 4.2187 -1.15518 0
M  V30 12392 C 1152.86 5.23451 -0.537216 0
M  V30 12393 O 1151.89 5.56424 -1.1992 0
M  V30 12394 N 1153.09 5.76413 0.6876 0
M  V30 12395 H 1155.86 2.46798 -1.70032 0
M  V30 12396 H 1153.42 1.24527 -1.03463 0
M  V30 12397 H 1155.41 4.03688 0.285999 0
M  V30 12398 H 1153.98 3.05084 0.681357 0
M  V30 12399 H 1153.2 3.52825 -1.75806 0
M  V30 12400 H 1154.49 4.74318 -1.84119 0
M  V30 12401 H 1153.88 5.51851 1.24406 0
M  V30 12402 H 1152.44 6.43189 1.05599 0
M  V30 12403 N 1155.87 0.935264 1.26849 0
M  V30 12404 C 1157.1 0.595704 1.98661 0
M  V30 12405 C 1157.52 -0.821001 1.69237 0
M  V30 12406 O 1156.88 -1.55211 0.936982 0
M  V30 12407 C 1156.93 0.837275 3.50745 0
M  V30 12408 O 1156.03 -0.0934914 4.12294 0
M  V30 12409 H 1155.38 0.228512 0.623441 0
M  V30 12410 H 1157.91 1.25658 1.61466 0
M  V30 12411 H 1157.92 0.755827 4.00938 0
M  V30 12412 H 1156.59 1.86993 3.71492 0
M  V30 12413 H 1155.17 0.0385124 3.7288 0
M  V30 12414 N 1157.35 -1.41121 0.701616 0
M  V30 12415 C 1158.3 -2.30765 0.040121 0
M  V30 12416 C 1159.27 -1.47436 -0.764975 0
M  V30 12417 O 1160.45 -1.76209 -0.731775 0
M  V30 12418 C 1157.59 -3.33535 -0.885903 0
M  V30 12419 C 1156.71 -4.3194 -0.0717765 0
M  V30 12420 C 1155.84 -5.21779 -0.995996 0
M  V30 12421 C 1154.88 -6.11849 -0.175133 0
M  V30 12422 N 1154.02 -6.94151 -1.05348 0
M  V30 12423 H 1158.86 -2.86772 0.810312 0
M  V30 12424 H 1156.4 -1.41233 0.411301 0
M  V30 12425 H 1158.35 -3.91675 -1.4369 0
M  V30 12426 H 1156.98 -2.79065 -1.62243 0
M  V30 12427 H 1156.04 -3.75698 0.596221 0
M  V30 12428 H 1157.35 -4.95597 0.56435 0
M  V30 12429 H 1156.5 -5.84782 -1.61601 0
M  V30 12430 H 1155.24 -4.58363 -1.66597 0
M  V30 12431 H 1154.25 -5.4789 0.457916 0
M  V30 12432 H 1155.47 -6.77322 0.491133 0
M  V30 12433 H 1153.42 -6.33338 -1.70936 0
M  V30 12434 H 1153.33 -7.54518 -0.473065 0
M  V30 12435 H 1154.6 -7.61617 -1.66012 0
M  V30 12436 N 1158.83 -0.446794 -1.51134 0
M  V30 12437 C 1160.08 0.118047 -2.01354 0
M  V30 12438 C 1160.39 1.42953 -1.33505 0
M  V30 12439 O 1161.6 2.07788 -1.74747 0
M  V30 12440 C 1160.05 0.260912 -3.58953 0
M  V30 12441 C 1159.66 -1.0407 -4.35745 0
M  V30 12442 C 1161.41 0.779014 -4.17291 0
M  V30 12443 C 1159.31 -0.862958 -5.8507 0
M  V30 12444 H 1158.24 0.0478915 -0.752478 0
M  V30 12445 H 1160.89 -0.577997 -1.74159 0
M  V30 12446 H 1159.28 1.02018 -3.82633 0
M  V30 12447 H 1160.45 -1.80903 -4.23805 0
M  V30 12448 H 1158.77 -1.48805 -3.88904 0
M  V30 12449 H 1161.36 0.928636 -5.26574 0
M  V30 12450 H 1161.71 1.76399 -3.7708 0
M  V30 12451 H 1162.24 0.0778022 -3.97724 0
M  V30 12452 H 1158.98 -1.82059 -6.2971 0
M  V30 12453 H 1158.5 -0.134588 -5.99649 0
M  V30 12454 H 1160.18 -0.51989 -6.44908 0
M  V30 12455 N 1160.31 1.56586 -0.178487 0
M  V30 12456 C 1161.56 1.97098 0.464617 0
M  V30 12457 C 1161.88 1.06476 1.62767 0
M  V30 12458 O 1161.14 0.100337 1.95443 0
M  V30 12459 C 1161.44 3.43629 0.982552 0
M  V30 12460 C 1161.1 4.50853 -0.0653645 0
M  V30 12461 C 1159.77 4.79901 -0.353349 0
M  V30 12462 C 1162.12 5.15387 -0.776279 0
M  V30 12463 C 1159.45 5.70779 -1.35751 0
M  V30 12464 C 1161.8 6.07349 -1.76948 0
M  V30 12465 C 1160.46 6.34761 -2.06483 0
M  V30 12466 H 1159.73 0.721232 0.170016 0
M  V30 12467 H 1162.38 1.89559 -0.271959 0
M  V30 12468 H 1160.68 3.48155 1.79709 0
M  V30 12469 H 1162.38 3.7232 1.48926 0
M  V30 12470 H 1158.97 4.28266 0.169266 0
M  V30 12471 H 1163.15 4.9305 -0.567008 0
M  V30 12472 H 1158.41 5.90298 -1.59244 0
M  V30 12473 H 1162.58 6.56419 -2.32567 0
M  V30 12474 H 1160.21 7.0498 -2.84441 0
M  V30 12475 N 1161.79 -0.095206 1.57312 0
M  V30 12476 C 1163.03 -0.798719 1.86083 0
M  V30 12477 C 1163.36 -1.78739 0.766991 0
M  V30 12478 O 1162.62 -1.9423 -0.239425 0
M  V30 12479 C 1162.92 -1.56244 3.21438 0
M  V30 12480 C 1162.58 -0.715903 4.4518 0
M  V30 12481 C 1161.24 -0.482537 4.78774 0
M  V30 12482 C 1163.6 -0.127404 5.21044 0
M  V30 12483 C 1160.92 0.349193 5.8566 0
M  V30 12484 C 1163.28 0.691649 6.28808 0
M  V30 12485 C 1161.94 0.935107 6.60918 0
M  V30 12486 H 1161.21 -0.292272 0.680924 0
M  V30 12487 H 1163.86 -0.0602105 1.91405 0
M  V30 12488 H 1162.16 -2.37251 3.118 0
M  V30 12489 H 1163.86 -2.11116 3.40927 0
M  V30 12490 H 1160.45 -0.907902 4.18874 0
M  V30 12491 H 1164.63 -0.29486 4.95423 0
M  V30 12492 H 1159.89 0.546797 6.0895 0
M  V30 12493 H 1164.06 1.15452 6.86763 0
M  V30 12494 H 1161.69 1.58139 7.4357 0
M  V30 12495 N 1163.26 -1.53291 -0.366026 0
M  V30 12496 C 1164.68 -1.43053 -0.707669 0
M  V30 12497 C 1164.88 -0.56925 -1.93292 0
M  V30 12498 O 1163.94 -0.0515214 -2.52447 0
M  V30 12499 C 1165.25 -2.86239 -0.921292 0
M  V30 12500 C 1166.8 -2.95868 -1.02133 0
M  V30 12501 C 1167.27 -4.40114 -1.26743 0
M  V30 12502 N 1168.76 -4.43541 -1.33514 0
M  V30 12503 C 1169.5 -5.52259 -1.54264 0
M  V30 12504 N 1168.99 -6.71024 -1.72335 0
M  V30 12505 N 1170.79 -5.39836 -1.5663 0
M  V30 12506 H 1162.94 -2.07795 0.43988 0
M  V30 12507 H 1165.2 -0.938376 0.134736 0
M  V30 12508 H 1164.91 -3.51578 -0.0928042 0
M  V30 12509 H 1164.78 -3.29862 -1.82951 0
M  V30 12510 H 1167.17 -2.30683 -1.84036 0
M  V30 12511 H 1167.25 -2.5564 -0.0905097 0
M  V30 12512 H 1166.89 -5.05872 -0.453409 0
M  V30 12513 H 1166.82 -4.77914 -2.21146 0
M  V30 12514 H 1169.31 -3.57949 -1.21165 0
M  V30 12515 H 1169.63 -7.49649 -1.8774 0
M  V30 12516 H 1167.97 -6.7401 -1.69514 0
M  V30 12517 H 1171.16 -4.46017 -1.4208 0
M  V30 12518 H 1171.34 -6.24629 -1.72461 0
M  V30 12519 N 1164.74 0.6258 -1.44643 0
M  V30 12520 C 1165.71 1.71941 -1.51555 0
M  V30 12521 C 1166.71 1.55822 -0.396988 0
M  V30 12522 O 1167.9 1.61221 -0.65981 0
M  V30 12523 C 1165.03 3.11068 -1.39461 0
M  V30 12524 H 1166.22 1.67185 -2.48976 0
M  V30 12525 H 1163.77 0.839934 -1.31814 0
M  V30 12526 H 1164.51 3.21416 -0.431534 0
M  V30 12527 H 1164.29 3.24175 -2.20574 0
M  V30 12528 H 1165.78 3.90762 -1.4729 0
M  V30 12529 N 1166.22 1.31629 0.866686 0
M  V30 12530 C 1167.47 1.21263 1.61678 0
M  V30 12531 C 1167.79 -0.228562 1.93656 0
M  V30 12532 O 1167.06 -1.15014 1.58583 0
M  V30 12533 H 1165.64 0.445817 0.59938 0
M  V30 12534 H 1168.3 1.64998 1.03739 0
M  V30 12535 H 1167.4 1.78669 2.55898 0
M  V30 12536 N 1167.7 -1.08142 1.14644 0
M  V30 12537 C 1168.95 -1.80849 0.917685 0
M  V30 12538 C 1169.28 -1.86123 -0.554249 0
M  V30 12539 O 1168.55 -1.33907 -1.41065 0
M  V30 12540 C 1168.84 -3.26325 1.52264 0
M  V30 12541 C 1168.69 -3.29244 3.06461 0
M  V30 12542 C 1170.01 -4.23375 1.20175 0
M  V30 12543 H 1167.13 -0.656559 0.334812 0
M  V30 12544 H 1169.77 -1.26595 1.41682 0
M  V30 12545 H 1167.92 -3.72656 1.09817 0
M  V30 12546 H 1169.59 -2.91216 3.57758 0
M  V30 12547 H 1167.83 -2.68438 3.40769 0
M  V30 12548 H 1168.51 -4.31785 3.43897 0
M  V30 12549 H 1170.98 -3.85394 1.56877 0
M  V30 12550 H 1169.86 -5.23472 1.65132 0
M  V30 12551 H 1170.12 -4.41944 0.117474 0
M  V30 12552 N 1169.18 -0.941978 -1.26351 0
M  V30 12553 C 1170.11 -0.469913 -2.28723 0
M  V30 12554 C 1171.09 0.477218 -1.63269 0
M  V30 12555 O 1172.27 0.378902 -1.90468 0
M  V30 12556 C 1169.4 0.264971 -3.46288 0
M  V30 12557 C 1168.36 -0.595682 -4.23834 0
M  V30 12558 C 1167.68 0.269208 -5.34022 0
M  V30 12559 C 1168.98 -1.86743 -4.87775 0
M  V30 12560 H 1170.68 -1.32551 -2.6846 0
M  V30 12561 H 1168.22 -0.638809 -1.29055 0
M  V30 12562 H 1170.18 0.606259 -4.17016 0
M  V30 12563 H 1168.9 1.15471 -3.05506 0
M  V30 12564 H 1167.56 -0.919875 -3.54872 0
M  V30 12565 H 1167.21 1.15832 -4.89481 0
M  V30 12566 H 1166.91 -0.30325 -5.86817 0
M  V30 12567 H 1168.43 0.605748 -6.07588 0
M  V30 12568 H 1169.85 -1.59333 -5.50714 0
M  V30 12569 H 1168.24 -2.38452 -5.50691 0
M  V30 12570 H 1169.31 -2.57831 -4.10671 0
M  V30 12571 N 1170.66 1.40747 -0.709091 0
M  V30 12572 C 1171.62 2.29118 -0.0611607 0
M  V30 12573 C 1172.62 1.45049 0.694081 0
M  V30 12574 O 1173.81 1.66039 0.526952 0
M  V30 12575 C 1170.94 3.28154 0.923447 0
M  V30 12576 H 1172.13 2.87913 -0.839413 0
M  V30 12577 H 1169.69 1.4896 -0.473363 0
M  V30 12578 H 1170.42 2.74366 1.72899 0
M  V30 12579 H 1170.21 3.90207 0.384862 0
M  V30 12580 H 1171.7 3.94343 1.37417 0
M  V30 12581 N 1172.13 0.454803 1.50895 0
M  V30 12582 C 1173.07 -0.383826 2.25963 0
M  V30 12583 C 1174.08 -0.971263 1.30653 0
M  V30 12584 O 1175.27 -0.862434 1.56283 0
M  V30 12585 C 1172.37 -1.55069 3.01342 0
M  V30 12586 C 1171.54 -1.07899 4.23883 0
M  V30 12587 C 1170.6 -2.118 4.81692 0
M  V30 12588 O 1169.63 -1.70523 5.43057 0
M  V30 12589 N 1170.83 -3.44459 4.67256 0
M  V30 12590 H 1173.59 0.259646 2.98573 0
M  V30 12591 H 1171.15 0.284661 1.59378 0
M  V30 12592 H 1173.15 -2.24236 3.36898 0
M  V30 12593 H 1171.72 -2.09917 2.31633 0
M  V30 12594 H 1170.94 -0.213773 3.9362 0
M  V30 12595 H 1172.22 -0.741501 5.03368 0
M  V30 12596 H 1171.62 -3.80716 4.18416 0
M  V30 12597 H 1170.18 -4.0947 5.07127 0
M  V30 12598 N 1173.61 -1.56489 0.186789 0
M  V30 12599 C 1174.54 -2.21705 -0.732739 0
M  V30 12600 C 1175.52 -1.17751 -1.22755 0
M  V30 12601 O 1176.71 -1.46231 -1.27789 0
M  V30 12602 C 1173.84 -2.86992 -1.95584 0
M  V30 12603 C 1172.79 -3.97118 -1.59628 0
M  V30 12604 C 1172.12 -4.49529 -2.89531 0
M  V30 12605 C 1173.42 -5.15941 -0.812518 0
M  V30 12606 H 1175.11 -2.98802 -0.189094 0
M  V30 12607 H 1172.66 -1.43722 -0.0895099 0
M  V30 12608 H 1174.61 -3.31295 -2.60426 0
M  V30 12609 H 1173.33 -2.07287 -2.52388 0
M  V30 12610 H 1171.99 -3.53494 -0.971475 0
M  V30 12611 H 1171.64 -3.66596 -3.44407 0
M  V30 12612 H 1171.34 -5.23832 -2.66221 0
M  V30 12613 H 1172.87 -4.96528 -3.55376 0
M  V30 12614 H 1174.28 -5.56841 -1.36386 0
M  V30 12615 H 1172.68 -5.96259 -0.677862 0
M  V30 12616 H 1173.75 -4.84535 0.188095 0
M  V30 12617 N 1175.09 0.086862 -1.5736 0
M  V30 12618 C 1176 1.12297 -2.05977 0
M  V30 12619 C 1177.02 1.43347 -0.986284 0
M  V30 12620 O 1178.19 1.53825 -1.3 0
M  V30 12621 C 1175.26 2.42131 -2.4814 0
M  V30 12622 C 1174.32 2.18189 -3.69719 0
M  V30 12623 C 1173.55 3.41833 -4.09861 0
M  V30 12624 O 1173.77 4.50383 -3.50016 0
M  V30 12625 O 1172.71 3.30934 -5.02759 0
M  V30 12626 H 1176.53 0.740012 -2.94546 0
M  V30 12627 H 1174.12 0.29995 -1.46358 0
M  V30 12628 H 1176 3.18568 -2.75848 0
M  V30 12629 H 1174.68 2.79837 -1.62705 0
M  V30 12630 H 1173.58 1.39506 -3.47115 0
M  V30 12631 H 1174.92 1.85372 -4.55959 0
M  V30 12632 N 1176.57 1.53483 0.357892 0
M  V30 12633 C 1177.48 1.83434 1.4625 0
M  V30 12634 C 1178.49 0.723313 1.58254 0
M  V30 12635 O 1179.67 1.01416 1.74002 0
M  V30 12636 C 1176.73 2.0249 2.81423 0
M  V30 12637 C 1175.8 3.26378 2.78883 0
M  V30 12638 C 1175.03 3.44516 4.07608 0
M  V30 12639 O 1175.25 2.66787 5.04163 0
M  V30 12640 O 1174.19 4.37898 4.12952 0
M  V30 12641 H 1178.01 2.77294 1.23861 0
M  V30 12642 H 1175.6 1.38958 0.548722 0
M  V30 12643 H 1177.48 2.16552 3.61501 0
M  V30 12644 H 1176.15 1.11819 3.03773 0
M  V30 12645 H 1175.06 3.17733 1.97475 0
M  V30 12646 H 1176.39 4.16996 2.61486 0
M  V30 12647 N 1178.05 -0.61812 1.44973 0
M  V30 12648 C 1178.96 -1.7579 1.55355 0
M  V30 12649 C 1179.97 -1.68384 0.438512 0
M  V30 12650 O 1181.15 -1.88928 0.697715 0
M  V30 12651 C 1178.21 -3.1222 1.50729 0
M  V30 12652 C 1177.27 -3.3116 2.73188 0
M  V30 12653 C 1176.51 -4.61082 2.68774 0
M  V30 12654 O 1176.73 -5.42728 1.75507 0
M  V30 12655 O 1175.66 -4.82506 3.59821 0
M  V30 12656 H 1179.49 -1.69983 2.51674 0
M  V30 12657 H 1177.07 -0.780934 1.27365 0
M  V30 12658 H 1178.96 -3.93524 1.5072 0
M  V30 12659 H 1177.63 -3.18541 0.575587 0
M  V30 12660 H 1176.54 -2.49485 2.78762 0
M  V30 12661 H 1177.87 -3.29709 3.65449 0
M  V30 12662 N 1179.52 -1.32087 -0.859693 0
M  V30 12663 C 1180.94 -1.10968 -1.14709 0
M  V30 12664 C 1181.14 0.113139 -2.01182 0
M  V30 12665 O 1180.2 0.799499 -2.39508 0
M  V30 12666 C 1181.51 -2.38657 -1.8293 0
M  V30 12667 C 1183.06 -2.44366 -1.95587 0
M  V30 12668 C 1183.53 -3.71963 -2.67222 0
M  V30 12669 N 1185.02 -3.72916 -2.7475 0
M  V30 12670 C 1185.76 -4.68346 -3.30816 0
M  V30 12671 N 1185.25 -5.74139 -3.87732 0
M  V30 12672 N 1187.05 -4.55851 -3.28872 0
M  V30 12673 H 1179.2 -2.10497 -0.283711 0
M  V30 12674 H 1181.46 -0.929108 -0.188315 0
M  V30 12675 H 1181.17 -3.2803 -1.26844 0
M  V30 12676 H 1181.04 -2.49236 -2.83128 0
M  V30 12677 H 1183.43 -1.55456 -2.50833 0
M  V30 12678 H 1183.51 -2.37744 -0.944001 0
M  V30 12679 H 1183.15 -4.61245 -2.1264 0
M  V30 12680 H 1183.08 -3.75855 -3.68837 0
M  V30 12681 H 1185.57 -2.96447 -2.34367 0
M  V30 12682 H 1185.89 -6.43021 -4.28654 0
M  V30 12683 H 1184.23 -5.779 -3.86078 0
M  V30 12684 H 1187.42 -3.72371 -2.83651 0
M  V30 12685 H 1187.6 -5.30398 -3.72266 0
M  V30 12686 N 1181 1.07532 -1.15215 0
M  V30 12687 C 1182.28 1.76813 -0.83646 0
M  V30 12688 C 1182.66 2.00242 0.6683 0
M  V30 12689 O 1182.01 1.61941 1.61206 0
M  V30 12690 C 1182.22 3.0779 -1.64519 0
M  V30 12691 C 1183.56 3.82168 -1.85022 0
M  V30 12692 O 1184.59 3.17596 -1.61279 0
M  V30 12693 O 1183.45 4.98135 -2.24775 0
M  V30 12694 H 1180.54 0.767736 -0.307426 0
M  V30 12695 H 1183.09 1.13914 -1.25784 0
M  V30 12696 H 1181.86 2.86342 -2.6669 0
M  V30 12697 H 1181.48 3.78419 -1.22002 0
M  V30 12698 N 1182.48 0.948665 1.2585 0
M  V30 12699 C 1183.41 0.482036 2.2847 0
M  V30 12700 C 1184.39 -0.468553 1.63519 0
M  V30 12701 O 1185.58 -0.368796 1.90666 0
M  V30 12702 C 1182.71 -0.246603 3.46423 0
M  V30 12703 C 1181.66 0.61815 4.23513 0
M  V30 12704 C 1180.99 -0.240884 5.34157 0
M  V30 12705 C 1182.29 1.89327 4.86778 0
M  V30 12706 H 1183.98 1.33973 2.67753 0
M  V30 12707 H 1181.53 0.645645 1.28715 0
M  V30 12708 H 1183.48 -0.584135 4.17332 0
M  V30 12709 H 1182.2 -1.13849 3.06114 0
M  V30 12710 H 1180.86 0.938682 3.54379 0
M  V30 12711 H 1180.51 -1.13235 4.90089 0
M  V30 12712 H 1180.21 0.334367 5.86648 0
M  V30 12713 H 1181.73 -0.573517 6.07901 0
M  V30 12714 H 1183.15 1.62252 5.49861 0
M  V30 12715 H 1181.55 2.41369 5.49419 0
M  V30 12716 H 1182.62 2.60006 4.09298 0
M  V30 12717 N 1183.96 -1.40369 0.716545 0
M  V30 12718 C 1184.91 -2.3071 0.0645944 0
M  V30 12719 C 1185.88 -1.48239 -0.749294 0
M  V30 12720 O 1187.06 -1.76975 -0.713045 0
M  V30 12721 C 1184.2 -3.34456 -0.850478 0
M  V30 12722 C 1183.31 -4.31992 -0.0259594 0
M  V30 12723 C 1182.45 -5.22806 -0.940599 0
M  V30 12724 C 1181.49 -6.12001 -0.110228 0
M  V30 12725 N 1180.62 -6.9523 -0.979796 0
M  V30 12726 H 1185.46 -2.85896 0.840682 0
M  V30 12727 H 1183 -1.40789 0.426258 0
M  V30 12728 H 1184.96 -3.93177 -1.39528 0
M  V30 12729 H 1183.59 -2.8077 -1.59274 0
M  V30 12730 H 1182.64 -3.75045 0.636036 0
M  V30 12731 H 1183.95 -4.94971 0.616883 0
M  V30 12732 H 1183.11 -5.86463 -1.5539 0
M  V30 12733 H 1181.85 -4.60104 -1.61726 0
M  V30 12734 H 1180.85 -5.47373 0.516001 0
M  V30 12735 H 1182.08 -6.76763 0.562944 0
M  V30 12736 H 1180.02 -6.35115 -1.64209 0
M  V30 12737 H 1179.94 -7.54978 -0.393012 0
M  V30 12738 H 1181.21 -7.63335 -1.57924 0
M  V30 12739 N 1185.44 -0.462799 -1.50652 0
M  V30 12740 C 1186.68 0.0951853 -2.02576 0
M  V30 12741 C 1187.02 1.40113 -1.34469 0
M  V30 12742 O 1186.29 1.88793 -0.467702 0
M  V30 12743 C 1186.57 0.287603 -3.5895 0
M  V30 12744 C 1186.43 -1.03878 -4.37641 0
M  V30 12745 C 1187.75 1.04593 -4.27491 0
M  V30 12746 H 1184.86 0.0331191 -0.736255 0
M  V30 12747 H 1187.51 -0.606772 -1.80051 0
M  V30 12748 H 1185.66 0.885514 -3.78274 0
M  V30 12749 H 1187.33 -1.67263 -4.29908 0
M  V30 12750 H 1185.57 -1.6374 -4.01711 0
M  V30 12751 H 1186.24 -0.857889 -5.45293 0
M  V30 12752 H 1188.72 0.539213 -4.12591 0
M  V30 12753 H 1187.59 1.14935 -5.36732 0
M  V30 12754 H 1187.86 2.08045 -3.90089 0
M  V30 12755 N 1186.91 1.56388 -0.195085 0
M  V30 12756 C 1188.14 2.01963 0.449289 0
M  V30 12757 C 1188.56 1.07522 1.55192 0
M  V30 12758 O 1187.91 0.0800915 1.82324 0
M  V30 12759 C 1187.97 3.47231 1.00561 0
M  V30 12760 O 1187.69 4.38068 -0.0530241 0
M  V30 12761 C 1189.19 4.08324 1.72587 0
M  V30 12762 H 1186.41 0.661452 0.112792 0
M  V30 12763 H 1188.95 2.02231 -0.303788 0
M  V30 12764 H 1187.11 3.47663 1.70907 0
M  V30 12765 H 1187.52 5.23256 0.361076 0
M  V30 12766 H 1188.99 5.11821 2.06744 0
M  V30 12767 H 1189.47 3.51782 2.62956 0
M  V30 12768 H 1190.08 4.11665 1.06826 0
M  V30 12769 N 1188.39 -0.0785156 1.57404 0
M  V30 12770 C 1189.67 -0.811557 1.77969 0
M  V30 12771 C 1190.05 -1.96123 0.780966 0
M  V30 12772 O 1189.4 -2.27731 -0.18726 0
M  V30 12773 C 1189.61 -1.29075 3.24254 0
M  V30 12774 C 1190.96 -1.72685 3.87898 0
M  V30 12775 O 1191.98 -1.38658 3.28104 0
M  V30 12776 O 1190.84 -2.3566 4.93079 0
M  V30 12777 H 1187.93 -0.388361 0.73014 0
M  V30 12778 H 1190.48 -0.0591118 1.69597 0
M  V30 12779 H 1189.25 -0.467813 3.88494 0
M  V30 12780 H 1188.87 -2.10472 3.37324 0
M  V30 12781 N 1189.87 -1.5367 -0.349747 0
M  V30 12782 C 1191.12 -1.69835 -1.08807 0
M  V30 12783 C 1191.43 -0.46497 -1.89993 0
M  V30 12784 O 1192.64 -0.507452 -2.66716 0
M  V30 12785 C 1191.09 -3.00294 -1.98372 0
M  V30 12786 C 1190.7 -4.30949 -1.22422 0
M  V30 12787 C 1192.45 -3.25826 -2.72099 0
M  V30 12788 C 1190.35 -5.52486 -2.1098 0
M  V30 12789 H 1189.28 -0.63284 -0.409915 0
M  V30 12790 H 1191.93 -1.80171 -0.347968 0
M  V30 12791 H 1190.32 -2.838 -2.76176 0
M  V30 12792 H 1191.49 -4.58126 -0.495707 0
M  V30 12793 H 1189.81 -4.11983 -0.604896 0
M  V30 12794 H 1192.4 -4.13817 -3.38615 0
M  V30 12795 H 1192.75 -2.42566 -3.3833 0
M  V30 12796 H 1193.28 -3.43067 -2.0137 0
M  V30 12797 H 1190.02 -6.38271 -1.49301 0
M  V30 12798 H 1189.54 -5.29566 -2.81638 0
M  V30 12799 H 1191.22 -5.87889 -2.70176 0
M  V30 12800 N 1191.35 0.610423 -1.45298 0
M  V30 12801 C 1192.6 1.36558 -1.48441 0
M  V30 12802 C 1192.91 1.95173 -0.129137 0
M  V30 12803 O 1194.12 2.71473 -0.0381956 0
M  V30 12804 C 1192.57 2.47349 -2.61431 0
M  V30 12805 C 1192.18 1.95158 -4.03258 0
M  V30 12806 C 1193.92 3.24383 -2.73817 0
M  V30 12807 C 1191.83 3.03414 -5.07635 0
M  V30 12808 H 1190.76 0.513253 -0.552347 0
M  V30 12809 H 1193.41 0.654535 -1.7143 0
M  V30 12810 H 1191.79 3.21125 -2.31721 0
M  V30 12811 H 1192.97 1.2811 -4.42634 0
M  V30 12812 H 1191.28 1.30878 -3.95297 0
M  V30 12813 H 1193.88 4.05123 -3.48969 0
M  V30 12814 H 1194.22 3.75205 -1.80352 0
M  V30 12815 H 1194.76 2.57705 -3.03039 0
M  V30 12816 H 1191.5 2.57512 -6.028 0
M  V30 12817 H 1191.02 3.69039 -4.72833 0
M  V30 12818 H 1192.69 3.67844 -5.32259 0
M  V30 12819 N 1192.83 1.32541 0.852676 0
M  V30 12820 C 1194.07 1.23397 1.60938 0
M  V30 12821 C 1194.41 -0.203294 1.93133 0
M  V30 12822 O 1193.68 -1.14097 1.57519 0
M  V30 12823 C 1193.96 2.0956 2.92842 0
M  V30 12824 C 1193.82 3.61675 2.67416 0
M  V30 12825 C 1195.14 1.95825 3.94133 0
M  V30 12826 H 1192.25 0.449608 0.583971 0
M  V30 12827 H 1194.9 1.62507 0.98446 0
M  V30 12828 H 1193.05 1.76336 3.46176 0
M  V30 12829 H 1194.72 4.05122 2.20621 0
M  V30 12830 H 1192.96 3.84242 2.01347 0
M  V30 12831 H 1193.63 4.17292 3.61347 0
M  V30 12832 H 1196.11 2.24935 3.50062 0
M  V30 12833 H 1194.98 2.58387 4.8428 0
M  V30 12834 H 1195.25 0.926466 4.32284 0
M  V30 12835 N 1194.3 -1.0692 1.15784 0
M  V30 12836 C 1195.53 -1.83849 0.959903 0
M  V30 12837 C 1195.95 -1.8169 -0.486873 0
M  V30 12838 O 1195.31 -1.21305 -1.34739 0
M  V30 12839 C 1195.36 -3.28642 1.48414 0
M  V30 12840 O 1194.46 -4.0665 0.686249 0
M  V30 12841 H 1193.81 -0.569115 0.342059 0
M  V30 12842 H 1196.34 -1.34851 1.53871 0
M  V30 12843 H 1196.35 -3.7947 1.49888 0
M  V30 12844 H 1195.02 -3.29529 2.53739 0
M  V30 12845 H 1193.6 -3.65453 0.741501 0
M  V30 12846 N 1195.78 -0.955326 -1.25345 0
M  V30 12847 C 1197.03 -0.610484 -1.93079 0
M  V30 12848 C 1197.36 0.852591 -1.74817 0
M  V30 12849 O 1196.61 1.6272 -1.08723 0
M  V30 12850 C 1196.91 -0.916173 -3.45458 0
M  V30 12851 C 1196.58 -2.36539 -3.83875 0
M  V30 12852 C 1195.24 -2.76152 -3.94073 0
M  V30 12853 C 1197.59 -3.30652 -4.02888 0
M  V30 12854 C 1194.92 -4.08944 -4.20692 0
M  V30 12855 C 1197.27 -4.63057 -4.31 0
M  V30 12856 C 1195.94 -5.02464 -4.39415 0
M  V30 12857 H 1195.21 -0.223392 -0.706525 0
M  V30 12858 H 1197.85 -1.20449 -1.48877 0
M  V30 12859 H 1196.16 -0.23978 -3.91066 0
M  V30 12860 H 1197.85 -0.627929 -3.96053 0
M  V30 12861 H 1194.44 -2.04819 -3.76493 0
M  V30 12862 H 1198.63 -3.01237 -3.94423 0
M  V30 12863 H 1193.88 -4.39118 -4.25423 0
M  V30 12864 H 1198.06 -5.3596 -4.44657 0
M  V30 12865 H 1195.69 -6.05386 -4.59795 0
M  V30 12866 N 1197.26 1.39987 -0.723979 0
M  V30 12867 C 1198.19 2.2917 -0.0373445 0
M  V30 12868 C 1199.21 1.46258 0.715015 0
M  V30 12869 O 1200.4 1.69455 0.561003 0
M  V30 12870 C 1197.5 3.2468 0.971384 0
M  V30 12871 C 1196.67 4.36485 0.282826 0
M  V30 12872 C 1195.73 5.12379 1.19811 0
M  V30 12873 O 1194.75 5.65127 0.67974 0
M  V30 12874 N 1195.96 5.22531 2.52866 0
M  V30 12875 H 1198.72 2.88738 -0.803131 0
M  V30 12876 H 1196.28 1.51448 -0.572292 0
M  V30 12877 H 1198.27 3.72326 1.58606 0
M  V30 12878 H 1196.84 2.6622 1.63846 0
M  V30 12879 H 1196.06 3.90859 -0.512167 0
M  V30 12880 H 1197.35 5.08427 -0.194793 0
M  V30 12881 H 1196.75 4.81174 2.97469 0
M  V30 12882 H 1195.31 5.73655 3.09457 0
M  V30 12883 N 1198.74 0.470782 1.50404 0
M  V30 12884 C 1199.7 -0.312227 2.27063 0
M  V30 12885 C 1200.7 -0.920709 1.31832 0
M  V30 12886 O 1201.89 -0.789937 1.5526 0
M  V30 12887 C 1199.02 -1.44477 3.0877 0
M  V30 12888 H 1200.22 0.36006 2.97731 0
M  V30 12889 H 1197.77 0.224837 1.54674 0
M  V30 12890 H 1198.51 -2.15212 2.42599 0
M  V30 12891 H 1198.29 -1.01426 3.78755 0
M  V30 12892 H 1199.78 -1.99713 3.66749 0
M  V30 12893 N 1200.22 -1.56282 0.203376 0
M  V30 12894 C 1201.18 -2.18233 -0.700489 0
M  V30 12895 C 1202.18 -1.13908 -1.13497 0
M  V30 12896 O 1203.37 -1.39246 -1.04672 0
M  V30 12897 C 1200.5 -2.79107 -1.95735 0
M  V30 12898 H 1201.7 -2.99469 -0.160649 0
M  V30 12899 H 1199.25 -1.56232 -0.0462475 0
M  V30 12900 H 1199.98 -2.01691 -2.53951 0
M  V30 12901 H 1199.77 -3.55486 -1.65446 0
M  V30 12902 H 1201.26 -3.2665 -2.60172 0
M  V30 12903 N 1201.7 0.070167 -1.57444 0
M  V30 12904 C 1202.66 1.06761 -2.02817 0
M  V30 12905 C 1203.66 1.31498 -0.925462 0
M  V30 12906 O 1204.85 1.27192 -1.19029 0
M  V30 12907 C 1201.98 2.41086 -2.41019 0
M  V30 12908 H 1203.17 0.67651 -2.9217 0
M  V30 12909 H 1200.73 0.315936 -1.53074 0
M  V30 12910 H 1201.46 2.85025 -1.54697 0
M  V30 12911 H 1201.25 2.24472 -3.21488 0
M  V30 12912 H 1202.74 3.12778 -2.76694 0
M  V30 12913 N 1203.17 1.53854 0.341593 0
M  V30 12914 C 1204.59 1.44161 0.684821 0
M  V30 12915 C 1204.79 0.599929 1.92362 0
M  V30 12916 O 1203.85 0.0916771 2.52334 0
M  V30 12917 C 1205.16 2.87668 0.875637 0
M  V30 12918 C 1206.71 2.97455 0.974131 0
M  V30 12919 C 1207.18 4.42075 1.19725 0
M  V30 12920 N 1208.67 4.45609 1.2644 0
M  V30 12921 C 1209.41 5.54643 1.45459 0
M  V30 12922 N 1208.9 6.7368 1.61637 0
M  V30 12923 N 1210.7 5.4226 1.48022 0
M  V30 12924 H 1202.85 2.07069 -0.472883 0
M  V30 12925 H 1205.11 0.936114 -0.149648 0
M  V30 12926 H 1204.82 3.51681 0.0368595 0
M  V30 12927 H 1204.69 3.32731 1.7768 0
M  V30 12928 H 1207.08 2.33582 1.80343 0
M  V30 12929 H 1207.16 2.55751 0.0498282 0
M  V30 12930 H 1206.8 5.06529 0.372872 0
M  V30 12931 H 1206.73 4.81372 2.13515 0
M  V30 12932 H 1209.22 3.59831 1.15455 0
M  V30 12933 H 1209.54 7.52541 1.7579 0
M  V30 12934 H 1207.88 6.76622 1.5877 0
M  V30 12935 H 1211.07 4.48221 1.34966 0
M  V30 12936 H 1211.25 6.27293 1.62502 0
M  V30 12937 N 1204.65 -0.602709 1.4562 0
M  V30 12938 C 1205.9 -1.35889 1.49595 0
M  V30 12939 C 1206.22 -1.9449 0.141002 0
M  V30 12940 O 1205.49 -1.77438 -0.830209 0
M  V30 12941 H 1204.07 -0.504478 0.550918 0
M  V30 12942 H 1206.73 -0.707376 1.8161 0
M  V30 12943 H 1205.83 -2.17583 2.2375 0
M  V30 12944 N 1206.13 -1.32992 -0.845635 0
M  V30 12945 C 1207.36 -1.26903 -1.63031 0
M  V30 12946 C 1207.77 0.163589 -1.88491 0
M  V30 12947 O 1207.11 1.11402 -1.46066 0
M  V30 12948 C 1207.17 -1.96843 -3.00821 0
M  V30 12949 C 1206.84 -3.46164 -2.98362 0
M  V30 12950 C 1207.83 -4.41488 -2.74562 0
M  V30 12951 C 1205.52 -3.88237 -3.18712 0
M  V30 12952 C 1207.51 -5.7686 -2.71129 0
M  V30 12953 C 1205.2 -5.23715 -3.14905 0
M  V30 12954 C 1206.2 -6.17838 -2.91144 0
M  V30 12955 O 1205.89 -7.50836 -2.87228 0
M  V30 12956 H 1205.62 -0.438806 -0.514223 0
M  V30 12957 H 1208.17 -1.75817 -1.06196 0
M  V30 12958 H 1206.4 -1.42511 -3.59482 0
M  V30 12959 H 1208.09 -1.84343 -3.61625 0
M  V30 12960 H 1208.86 -4.10308 -2.58598 0
M  V30 12961 H 1204.74 -3.1539 -3.36229 0
M  V30 12962 H 1208.28 -6.50299 -2.52502 0
M  V30 12963 H 1204.18 -5.54523 -3.30416 0
M  V30 12964 H 1204.94 -7.60304 -3.03118 0
M  V30 12965 N 1207.61 1.06304 -1.1635 0
M  V30 12966 C 1208.54 2.15745 -0.893103 0
M  V30 12967 C 1209.52 1.69341 0.160531 0
M  V30 12968 O 1210.7 1.94196 0.0126526 0
M  V30 12969 C 1207.83 3.45066 -0.393287 0
M  V30 12970 C 1206.79 4.04978 -1.38482 0
M  V30 12971 C 1206.11 5.29507 -0.743409 0
M  V30 12972 C 1207.41 4.4377 -2.75438 0
M  V30 12973 H 1209.11 2.38622 -1.80831 0
M  V30 12974 H 1206.65 1.14681 -0.870878 0
M  V30 12975 H 1208.61 4.20964 -0.191607 0
M  V30 12976 H 1207.33 3.21808 0.557426 0
M  V30 12977 H 1205.99 3.31136 -1.57304 0
M  V30 12978 H 1205.64 5.02545 0.213787 0
M  V30 12979 H 1205.34 5.7055 -1.40521 0
M  V30 12980 H 1206.86 6.08102 -0.551746 0
M  V30 12981 H 1208.28 5.1075 -2.60398 0
M  V30 12982 H 1206.67 4.95797 -3.38091 0
M  V30 12983 H 1207.74 3.54636 -3.30699 0
M  V30 12984 N 1209.09 0.96196 1.24836 0
M  V30 12985 C 1210.05 0.492443 2.23847 0
M  V30 12986 C 1211.05 -0.40788 1.55541 0
M  V30 12987 O 1212.24 -0.204143 1.73 0
M  V30 12988 C 1209.37 -0.287578 3.39685 0
M  V30 12989 H 1210.56 1.36767 2.66899 0
M  V30 12990 H 1208.12 0.745967 1.3735 0
M  V30 12991 H 1208.85 -1.18015 3.02064 0
M  V30 12992 H 1208.64 0.358431 3.90458 0
M  V30 12993 H 1210.13 -0.605297 4.1319 0
M  V30 12994 N 1210.56 -1.39601 0.731392 0
M  V30 12995 C 1211.98 -1.54334 0.406594 0
M  V30 12996 C 1212.18 -1.69925 -1.08295 0
M  V30 12997 O 1211.24 -1.69771 -1.86906 0
M  V30 12998 C 1212.55 -2.76303 1.18647 0
M  V30 12999 C 1214.1 -2.90135 1.17433 0
M  V30 13000 C 1214.57 -4.15038 1.93669 0
M  V30 13001 N 1216.06 -4.2207 1.90817 0
M  V30 13002 C 1216.8 -5.17656 2.46616 0
M  V30 13003 N 1216.29 -6.19054 3.11037 0
M  V30 13004 N 1218.09 -5.09847 2.3667 0
M  V30 13005 H 1210.24 -1.27728 1.69703 0
M  V30 13006 H 1212.5 -0.6188 0.718186 0
M  V30 13007 H 1212.21 -2.71113 2.24032 0
M  V30 13008 H 1212.08 -3.68866 0.788514 0
M  V30 13009 H 1214.47 -2.9482 0.128615 0
M  V30 13010 H 1214.55 -1.98646 1.61163 0
M  V30 13011 H 1214.19 -4.11115 2.9824 0
M  V30 13012 H 1214.12 -5.05565 1.47349 0
M  V30 13013 H 1216.61 -3.49437 1.43882 0
M  V30 13014 H 1216.93 -6.88444 3.51091 0
M  V30 13015 H 1215.27 -6.19452 3.15126 0
M  V30 13016 H 1218.46 -4.29566 1.85987 0
M  V30 13017 H 1218.64 -5.84165 2.80455 0
M  V30 13018 N 1212.04 -0.478751 -1.50152 0
M  V30 13019 C 1213.46 -0.133356 -1.59042 0
M  V30 13020 C 1213.66 1.36069 -1.48618 0
M  V30 13021 O 1212.71 2.13468 -1.34862 0
M  V30 13022 C 1214.03 -0.690369 -2.92668 0
M  V30 13023 C 1215.58 -0.654481 -3.06081 0
M  V30 13024 C 1216.05 -1.18917 -4.42293 0
M  V30 13025 N 1217.54 -1.14891 -4.48725 0
M  V30 13026 C 1218.28 -1.53305 -5.52526 0
M  V30 13027 N 1217.77 -1.99205 -6.63543 0
M  V30 13028 N 1219.57 -1.4486 -5.43113 0
M  V30 13029 H 1211.72 -1.45037 -1.55171 0
M  V30 13030 H 1213.98 -0.600254 -0.733757 0
M  V30 13031 H 1213.69 -1.7373 -3.05795 0
M  V30 13032 H 1213.56 -0.138227 -3.76947 0
M  V30 13033 H 1215.95 0.383564 -2.92597 0
M  V30 13034 H 1216.03 -1.24352 -2.2354 0
M  V30 13035 H 1215.67 -2.22588 -4.56527 0
M  V30 13036 H 1215.6 -0.57628 -5.23437 0
M  V30 13037 H 1218.09 -0.812344 -3.69066 0
M  V30 13038 H 1218.41 -2.26645 -7.38818 0
M  V30 13039 H 1216.75 -2.03164 -6.64642 0
M  V30 13040 H 1219.94 -1.08836 -4.55272 0
M  V30 13041 H 1220.11 -1.75123 -6.23888 0
M  V30 13042 N 1213.52 1.56172 -0.211661 0
M  V30 13043 C 1214.48 2.18602 0.688906 0
M  V30 13044 C 1215.48 1.14508 1.12892 0
M  V30 13045 O 1216.67 1.39799 1.03932 0
M  V30 13046 C 1213.81 2.80141 1.94253 0
M  V30 13047 H 1215 2.9955 0.144765 0
M  V30 13048 H 1212.55 1.56254 0.0379615 0
M  V30 13049 H 1213.29 2.03035 2.52878 0
M  V30 13050 H 1213.07 3.56358 1.63558 0
M  V30 13051 H 1214.56 3.28026 2.58436 0
M  V30 13052 N 1215 -0.0618163 1.57479 0
M  V30 13053 C 1216.25 -0.759069 1.87735 0
M  V30 13054 C 1216.57 -1.77071 0.804732 0
M  V30 13055 O 1215.83 -1.94694 -0.198173 0
M  V30 13056 C 1216.13 -1.4939 3.2468 0
M  V30 13057 C 1215.79 -0.621312 4.46599 0
M  V30 13058 C 1214.46 -0.380873 4.7969 0
M  V30 13059 C 1216.81 -0.0168537 5.21197 0
M  V30 13060 C 1214.14 0.473341 5.84787 0
M  V30 13061 C 1216.49 0.824872 6.27199 0
M  V30 13062 C 1215.15 1.07509 6.58785 0
M  V30 13063 H 1214.42 -0.277763 0.686971 0
M  V30 13064 H 1217.07 -0.0195971 1.9149 0
M  V30 13065 H 1215.37 -2.30584 3.16762 0
M  V30 13066 H 1217.07 -2.03837 3.45328 0
M  V30 13067 H 1213.66 -0.818848 4.20705 0
M  V30 13068 H 1217.84 -0.189707 4.95937 0
M  V30 13069 H 1213.1 0.675842 6.07653 0
M  V30 13070 H 1217.27 1.29993 6.8416 0
M  V30 13071 H 1214.9 1.73876 7.40048 0
M  V30 13072 N 1216.48 -1.54033 -0.333429 0
M  V30 13073 C 1217.41 -1.79056 -1.43079 0
M  V30 13074 C 1218.42 -0.672176 -1.48276 0
M  V30 13075 O 1219.61 -0.949103 -1.51176 0
M  V30 13076 C 1216.71 -1.88443 -2.81678 0
M  V30 13077 C 1215.88 -3.18493 -2.99802 0
M  V30 13078 C 1214.94 -3.18708 -4.18702 0
M  V30 13079 O 1213.97 -3.92389 -4.12334 0
M  V30 13080 N 1215.17 -2.41792 -5.27747 0
M  V30 13081 H 1217.94 -2.73753 -1.21981 0
M  V30 13082 H 1215.5 -1.53207 -0.523365 0
M  V30 13083 H 1217.49 -1.86027 -3.59411 0
M  V30 13084 H 1216.06 -1.00887 -2.95872 0
M  V30 13085 H 1215.28 -3.33951 -2.09453 0
M  V30 13086 H 1216.57 -4.04376 -3.088 0
M  V30 13087 H 1215.96 -1.81501 -5.35793 0
M  V30 13088 H 1214.52 -2.45163 -6.03936 0
M  V30 13089 N 1217.95 0.594978 -1.45938 0
M  V30 13090 C 1218.9 1.70489 -1.5557 0
M  V30 13091 C 1219.87 1.61193 -0.400751 0
M  V30 13092 O 1221.06 1.80587 -0.615882 0
M  V30 13093 C 1218.2 3.08817 -1.54033 0
M  V30 13094 C 1217.31 3.28827 -2.80173 0
M  V30 13095 C 1216.44 4.57333 -2.70222 0
M  V30 13096 C 1215.48 4.70644 -3.91357 0
M  V30 13097 N 1214.62 5.90463 -3.79865 0
M  V30 13098 H 1219.46 1.61593 -2.50383 0
M  V30 13099 H 1217 0.787747 -1.24229 0
M  V30 13100 H 1218.96 3.88865 -1.51129 0
M  V30 13101 H 1217.59 3.1664 -0.627617 0
M  V30 13102 H 1216.64 2.42467 -2.9311 0
M  V30 13103 H 1217.95 3.34534 -3.69985 0
M  V30 13104 H 1217.1 5.45593 -2.65354 0
M  V30 13105 H 1215.84 4.54045 -1.7803 0
M  V30 13106 H 1214.85 3.80805 -3.9657 0
M  V30 13107 H 1216.07 4.75721 -4.8463 0
M  V30 13108 H 1214.02 5.88196 -2.90451 0
M  V30 13109 H 1213.94 5.97385 -4.63322 0
M  V30 13110 H 1215.2 6.81187 -3.78952 0
M  V30 13111 N 1219.43 1.33438 0.838571 0
M  V30 13112 C 1220.85 1.12779 1.12929 0
M  V30 13113 C 1221.05 -0.0811188 2.01337 0
M  V30 13114 O 1220.1 -0.761294 2.4075 0
M  V30 13115 C 1221.42 2.41537 1.7911 0
M  V30 13116 C 1222.97 2.47447 1.91674 0
M  V30 13117 C 1223.44 3.76167 2.6127 0
M  V30 13118 N 1224.93 3.7724 2.68783 0
M  V30 13119 C 1225.67 4.7355 3.23323 0
M  V30 13120 N 1225.16 5.80235 3.78549 0
M  V30 13121 N 1226.96 4.61025 3.21578 0
M  V30 13122 H 1219.11 2.10921 0.250187 0
M  V30 13123 H 1221.37 0.931986 0.17351 0
M  V30 13124 H 1221.08 3.30006 1.21609 0
M  V30 13125 H 1220.95 2.53709 2.79127 0
M  V30 13126 H 1223.34 1.59427 2.48328 0
M  V30 13127 H 1223.42 2.39216 0.906058 0
M  V30 13128 H 1223.06 4.64569 2.05275 0
M  V30 13129 H 1222.99 3.81675 3.62811 0
M  V30 13130 H 1225.48 3.00138 2.29621 0
M  V30 13131 H 1225.8 6.49759 4.1837 0
M  V30 13132 H 1224.14 5.83969 3.76836 0
M  V30 13133 H 1227.33 3.76836 2.77691 0
M  V30 13134 H 1227.5 5.36253 3.63781 0
M  V30 13135 N 1220.91 -1.05686 1.16912 0
M  V30 13136 C 1221.84 -2.1329 0.839044 0
M  V30 13137 C 1222.86 -1.62047 -0.156392 0
M  V30 13138 O 1224.04 -1.78366 0.0692192 0
M  V30 13139 C 1221.14 -3.38122 0.229558 0
M  V30 13140 C 1220.32 -4.18659 1.26662 0
M  V30 13141 C 1219.38 -5.21842 0.675811 0
M  V30 13142 O 1218.4 -5.53049 1.3463 0
M  V30 13143 N 1219.6 -5.78034 -0.534532 0
M  V30 13144 H 1222.37 -2.42203 1.76515 0
M  V30 13145 H 1219.93 -1.2174 1.06729 0
M  V30 13146 H 1221.92 -4.04305 -0.178868 0
M  V30 13147 H 1220.49 -3.06783 -0.60023 0
M  V30 13148 H 1219.71 -3.4804 1.85099 0
M  V30 13149 H 1221 -4.6927 1.9663 0
M  V30 13150 H 1220.4 -5.54955 -1.09731 0
M  V30 13151 H 1218.96 -6.45763 -0.885087 0
M  V30 13152 N 1222.39 -0.968567 -1.24324 0
M  V30 13153 C 1223.32 -0.457247 -2.24593 0
M  V30 13154 C 1224.33 0.434483 -1.56895 0
M  V30 13155 O 1225.52 0.240519 -1.76872 0
M  V30 13156 C 1222.62 0.359086 -3.36992 0
M  V30 13157 C 1221.8 -0.522945 -4.34263 0
M  V30 13158 C 1220.85 0.237528 -5.25664 0
M  V30 13159 O 1219.88 -0.368835 -5.68004 0
M  V30 13160 N 1221.08 1.52686 -5.6006 0
M  V30 13161 H 1223.85 -1.31934 -2.69098 0
M  V30 13162 H 1221.41 -0.840488 -1.38374 0
M  V30 13163 H 1223.4 0.87589 -3.95108 0
M  V30 13164 H 1221.97 1.12212 -2.91766 0
M  V30 13165 H 1221.19 -1.22071 -3.74823 0
M  V30 13166 H 1222.48 -1.12447 -4.96219 0
M  V30 13167 H 1221.88 2.0412 -5.2759 0
M  V30 13168 H 1220.43 1.98934 -6.207 0
M  V30 13169 N 1223.87 1.39211 -0.738786 0
M  V30 13170 C 1224.8 2.29117 -0.0616489 0
M  V30 13171 C 1225.81 1.47008 0.699462 0
M  V30 13172 O 1227 1.70041 0.542998 0
M  V30 13173 C 1224.1 3.25692 0.936893 0
M  V30 13174 C 1223.27 4.3676 0.236515 0
M  V30 13175 C 1222.33 5.1362 1.1437 0
M  V30 13176 O 1221.36 5.65816 0.619762 0
M  V30 13177 N 1222.56 5.25184 2.4731 0
M  V30 13178 H 1225.33 2.8787 -0.833711 0
M  V30 13179 H 1222.89 1.50832 -0.588323 0
M  V30 13180 H 1224.88 3.73987 1.54648 0
M  V30 13181 H 1223.45 2.67943 1.61014 0
M  V30 13182 H 1222.67 3.90293 -0.553594 0
M  V30 13183 H 1223.96 5.08192 -0.248707 0
M  V30 13184 H 1223.35 4.84302 2.92349 0
M  V30 13185 H 1221.91 5.76905 3.03355 0
M  V30 13186 N 1225.34 0.486708 1.49896 0
M  V30 13187 C 1226.28 -0.335809 2.26727 0
M  V30 13188 C 1227.29 -0.94333 1.32684 0
M  V30 13189 O 1228.48 -0.82909 1.58077 0
M  V30 13190 C 1225.58 -1.48642 3.04563 0
M  V30 13191 C 1224.75 -0.988837 4.26076 0
M  V30 13192 C 1223.81 -2.01535 4.86076 0
M  V30 13193 O 1222.84 -1.58966 5.46552 0
M  V30 13194 N 1224.04 -3.34471 4.74457 0
M  V30 13195 H 1226.8 0.322919 2.97955 0
M  V30 13196 H 1224.36 0.318403 1.58738 0
M  V30 13197 H 1226.36 -2.17039 3.41579 0
M  V30 13198 H 1224.93 -2.04956 2.36033 0
M  V30 13199 H 1224.15 -0.130232 3.93985 0
M  V30 13200 H 1225.43 -0.634562 5.04827 0
M  V30 13201 H 1224.83 -3.71755 4.26398 0
M  V30 13202 H 1223.39 -3.98621 5.15698 0
M  V30 13203 N 1226.82 -1.56058 0.219941 0
M  V30 13204 C 1228.05 -2.031 -0.42014 0
M  V30 13205 C 1228.47 -1.09875 -1.52673 0
M  V30 13206 O 1227.83 -0.0866458 -1.81093 0
M  V30 13207 C 1227.88 -3.48389 -0.93047 0
M  V30 13208 O 1226.98 -3.583 -2.04192 0
M  V30 13209 H 1226.32 -0.657129 -0.0952772 0
M  V30 13210 H 1228.85 -2.01787 0.338105 0
M  V30 13211 H 1228.86 -3.88678 -1.2407 0
M  V30 13212 H 1227.54 -4.15725 -0.120539 0
M  V30 13213 H 1226.12 -3.29898 -1.73845 0
M  V30 13214 N 1228.3 0.053464 -1.57509 0
M  V30 13215 C 1229.26 1.04604 -2.03938 0
M  V30 13216 C 1230.26 1.30509 -0.939357 0
M  V30 13217 O 1231.45 1.25922 -1.20371 0
M  V30 13218 C 1228.59 2.38516 -2.43563 0
M  V30 13219 H 1229.78 0.645484 -2.92871 0
M  V30 13220 H 1227.33 0.299683 -1.534 0
M  V30 13221 H 1228.07 2.83368 -1.57712 0
M  V30 13222 H 1227.85 2.2105 -3.23851 0
M  V30 13223 H 1229.34 3.09826 -2.79996 0
M  V30 13224 N 1229.78 1.54207 0.325255 0
M  V30 13225 C 1230.71 1.86467 1.40543 0
M  V30 13226 C 1231.69 0.721324 1.54048 0
M  V30 13227 O 1232.88 0.974905 1.67956 0
M  V30 13228 C 1230.01 2.09052 2.77335 0
M  V30 13229 C 1228.96 3.24893 2.78619 0
M  V30 13230 C 1228.29 3.32846 4.1847 0
M  V30 13231 C 1229.59 4.62582 2.42518 0
M  V30 13232 H 1231.28 2.76932 1.13794 0
M  V30 13233 H 1228.83 1.33248 0.545971 0
M  V30 13234 H 1230.78 2.30204 3.52964 0
M  V30 13235 H 1229.5 1.15335 3.05558 0
M  V30 13236 H 1228.16 3.03625 2.05444 0
M  V30 13237 H 1227.81 2.3669 4.43832 0
M  V30 13238 H 1227.51 4.10701 4.20237 0
M  V30 13239 H 1229.03 3.56231 4.95915 0
M  V30 13240 H 1230.45 4.83627 3.07861 0
M  V30 13241 H 1228.84 5.42974 2.55538 0
M  V30 13242 H 1229.91 4.64946 1.3767 0
M  V30 13243 N 1231.26 -0.58723 1.46251 0
M  V30 13244 C 1232.67 -0.910129 1.31106 0
M  V30 13245 C 1232.87 -1.99557 0.279141 0
M  V30 13246 O 1231.93 -2.50466 -0.319867 0
M  V30 13247 C 1233.24 -1.33177 2.69601 0
M  V30 13248 C 1234.79 -1.44486 2.77656 0
M  V30 13249 C 1235.27 -1.90018 4.16722 0
M  V30 13250 N 1236.76 -1.97219 4.19117 0
M  V30 13251 C 1237.49 -2.33714 5.23608 0
M  V30 13252 N 1236.99 -2.69034 6.3843 0
M  V30 13253 N 1238.78 -2.3423 5.10972 0
M  V30 13254 H 1230.93 0.12987 2.12003 0
M  V30 13255 H 1233.19 -0.00456718 0.947989 0
M  V30 13256 H 1232.9 -0.608243 3.464 0
M  V30 13257 H 1232.77 -2.29421 2.99409 0
M  V30 13258 H 1235.16 -2.15926 2.01147 0
M  V30 13259 H 1235.24 -0.465047 2.51537 0
M  V30 13260 H 1234.89 -1.19159 4.93724 0
M  V30 13261 H 1234.82 -2.88949 4.40245 0
M  V30 13262 H 1237.31 -1.72431 3.36268 0
M  V30 13263 H 1237.62 -2.95822 7.13939 0
M  V30 13264 H 1235.97 -2.66683 6.41798 0
M  V30 13265 H 1239.16 -2.06056 4.20308 0
M  V30 13266 H 1239.33 -2.62345 5.92519 0
M  V30 13267 N 1232.74 -1.33881 -0.831482 0
M  V30 13268 C 1233.98 -1.25942 -1.58955 0
M  V30 13269 C 1234.31 0.172542 -1.93432 0
M  V30 13270 O 1233.59 1.11577 -1.59314 0
M  V30 13271 C 1233.87 -2.14193 -2.89471 0
M  V30 13272 C 1233.73 -3.65883 -2.61628 0
M  V30 13273 C 1235.04 -2.02071 -3.90967 0
M  V30 13274 H 1232.16 -0.458841 -0.576744 0
M  V30 13275 H 1234.81 -1.64052 -0.958482 0
M  V30 13276 H 1232.96 -1.81821 -3.43327 0
M  V30 13277 H 1234.63 -4.08581 -2.14148 0
M  V30 13278 H 1232.87 -3.87397 -1.95208 0
M  V30 13279 H 1233.54 -4.22988 -3.54662 0
M  V30 13280 H 1236.02 -2.30476 -3.46439 0
M  V30 13281 H 1234.89 -2.66059 -4.80108 0
M  V30 13282 H 1235.15 -0.995121 -4.30755 0
M  V30 13283 N 1234.21 1.05064 -1.1747 0
M  V30 13284 C 1235.15 2.12334 -0.836028 0
M  V30 13285 C 1236.12 1.61393 0.197733 0
M  V30 13286 O 1237.31 1.88334 0.0789748 0
M  V30 13287 C 1234.44 3.37796 -0.24734 0
M  V30 13288 C 1233.48 4.07565 -1.25669 0
M  V30 13289 S 1234.31 4.55941 -2.80853 0
M  V30 13290 C 1235.47 5.84648 -2.23468 0
M  V30 13291 H 1235.7 2.40735 -1.74453 0
M  V30 13292 H 1233.24 1.17684 -0.999495 0
M  V30 13293 H 1235.19 4.1041 0.0858241 0
M  V30 13294 H 1233.86 3.07529 0.639124 0
M  V30 13295 H 1233.05 4.97715 -0.793465 0
M  V30 13296 H 1232.65 3.41022 -1.53557 0
M  V30 13297 H 1234.94 6.58067 -1.61104 0
M  V30 13298 H 1235.89 6.35719 -3.11877 0
M  V30 13299 H 1236.29 5.39272 -1.6687 0
M  V30 13300 N 1235.69 0.975146 1.23809 0
M  V30 13301 C 1236.62 0.469151 2.24347 0
M  V30 13302 C 1237.64 -0.426156 1.57123 0
M  V30 13303 O 1238.83 -0.231136 1.76997 0
M  V30 13304 C 1235.93 -0.34121 3.37178 0
M  V30 13305 C 1235.1 0.545968 4.33979 0
M  V30 13306 C 1234.16 -0.209648 5.25782 0
M  V30 13307 O 1233.18 0.398953 5.678 0
M  V30 13308 N 1234.39 -1.49713 5.60862 0
M  V30 13309 H 1237.15 1.33359 2.68394 0
M  V30 13310 H 1234.71 0.847814 1.37927 0
M  V30 13311 H 1236.7 -0.854924 3.95567 0
M  V30 13312 H 1235.27 -1.10663 2.92357 0
M  V30 13313 H 1234.49 1.24057 3.7417 0
M  V30 13314 H 1235.78 1.15077 4.95615 0
M  V30 13315 H 1235.18 -2.0132 5.28665 0
M  V30 13316 H 1233.74 -1.95639 6.21746 0
M  V30 13317 N 1237.17 -1.38817 0.746158 0
M  V30 13318 C 1238.59 -1.53894 0.42294 0
M  V30 13319 C 1238.79 -1.71064 -1.06486 0
M  V30 13320 O 1237.84 -1.71744 -1.85095 0
M  V30 13321 C 1239.15 -2.75029 1.2157 0
M  V30 13322 C 1240.7 -2.88873 1.20504 0
M  V30 13323 C 1241.18 -4.1296 1.9806 0
M  V30 13324 N 1242.67 -4.20022 1.95283 0
M  V30 13325 C 1243.4 -5.15011 2.52093 0
M  V30 13326 N 1242.9 -6.1572 3.17586 0
M  V30 13327 N 1244.69 -5.07308 2.42064 0
M  V30 13328 H 1236.84 -1.25921 1.71049 0
M  V30 13329 H 1239.11 -0.611148 0.724708 0
M  V30 13330 H 1238.81 -2.68722 2.26895 0
M  V30 13331 H 1238.69 -3.68009 0.827593 0
M  V30 13332 H 1241.07 -2.94667 0.159877 0
M  V30 13333 H 1241.15 -1.96925 1.63261 0
M  V30 13334 H 1240.8 -4.07929 3.02583 0
M  V30 13335 H 1240.73 -5.03974 1.52702 0
M  V30 13336 H 1243.22 -3.47892 1.4758 0
M  V30 13337 H 1243.53 -6.84682 3.58373 0
M  V30 13338 H 1241.88 -6.16075 3.21678 0
M  V30 13339 H 1245.07 -4.27569 1.90532 0
M  V30 13340 H 1245.24 -5.81158 2.86635 0
M  V30 13341 N 1238.65 -0.49465 -1.49636 0
M  V30 13342 C 1239.6 0.300929 -2.30645 0
M  V30 13343 C 1240.59 0.968687 -1.38971 0
M  V30 13344 O 1241.8 0.897101 -1.56052 0
M  V30 13345 H 1238.17 0.1159 -0.743015 0
M  V30 13346 H 1240.14 -0.402387 -2.95674 0
M  V30 13347 C 1238.89 1.35638 -3.20153 0
M  V30 13348 H 1238.21 0.851946 -3.90617 0
M  V30 13349 H 1239.65 1.88515 -3.79787 0
M  V30 13350 C 1238.11 2.37112 -2.39331 0
M  V30 13351 O 1238.64 3.42867 -2.09298 0
M  V30 13352 N 1236.85 2.09421 -2.01473 0
M  V30 13353 H 1236.4 1.23441 -2.26097 0
M  V30 13354 H 1236.35 2.77545 -1.47703 0
M  V30 13355 N 1240.13 1.55939 -0.228214 0
M  V30 13356 C 1241.37 2.00379 0.403442 0
M  V30 13357 C 1241.73 1.11264 1.56475 0
M  V30 13358 O 1242.93 1.45079 2.26287 0
M  V30 13359 C 1241.2 3.47851 0.820649 0
M  V30 13360 S 1242.76 4.14309 1.44547 0
M  V30 13361 H 1239.58 0.699426 0.127768 0
M  V30 13362 H 1242.18 1.92537 -0.339066 0
M  V30 13363 H 1240.88 4.10386 -0.0341308 0
M  V30 13364 H 1240.42 3.5958 1.5958 0
M  V30 13365 H 1242.43 4.14048 2.73456 0
M  V30 13366 N 1241.6 -0.0451101 1.57535 0
M  V30 13367 C 1242.57 -1.03521 2.0449 0
M  V30 13368 C 1243.57 -1.30009 0.946265 0
M  V30 13369 O 1244.76 -1.25282 1.21038 0
M  V30 13370 C 1241.89 -2.37221 2.44824 0
M  V30 13371 H 1243.08 -0.629943 2.93209 0
M  V30 13372 H 1240.64 -0.291544 1.53557 0
M  V30 13373 H 1241.37 -2.82528 1.59212 0
M  V30 13374 H 1241.16 -2.19329 3.25018 0
M  V30 13375 H 1242.65 -3.08337 2.81635 0
M  V30 13376 N 1243.08 -1.54377 -0.317073 0
M  V30 13377 C 1244.05 -1.83488 -1.37349 0
M  V30 13378 C 1245.05 -0.706981 -1.44424 0
M  V30 13379 O 1246.24 -0.975289 -1.44339 0
M  V30 13380 C 1243.37 -2.00074 -2.76013 0
M  V30 13381 H 1244.56 -2.77883 -1.12789 0
M  V30 13382 H 1242.11 -1.46194 -0.552902 0
M  V30 13383 H 1242.85 -1.07913 -3.05819 0
M  V30 13384 H 1242.63 -2.82155 -2.7227 0
M  V30 13385 H 1244.12 -2.24022 -3.52426 0
M  V30 13386 N 1244.56 0.579466 -1.4656 0
M  V30 13387 C 1245.79 1.36153 -1.55389 0
M  V30 13388 C 1246.2 1.88192 -0.195062 0
M  V30 13389 O 1245.54 1.64464 0.81836 0
M  V30 13390 C 1245.6 2.58269 -2.50075 0
M  V30 13391 C 1245.27 2.27675 -3.96249 0
M  V30 13392 C 1246.26 1.86313 -4.85369 0
M  V30 13393 C 1243.95 2.39719 -4.41407 0
M  V30 13394 C 1245.94 1.57395 -6.17661 0
M  V30 13395 C 1243.63 2.10414 -5.73733 0
M  V30 13396 C 1244.63 1.69317 -6.6168 0
M  V30 13397 O 1244.32 1.40373 -7.9155 0
M  V30 13398 H 1244.05 0.422174 -0.527963 0
M  V30 13399 H 1246.6 0.711089 -1.92698 0
M  V30 13400 H 1244.83 3.26129 -2.0779 0
M  V30 13401 H 1246.52 3.20339 -2.49275 0
M  V30 13402 H 1247.29 1.7652 -4.51736 0
M  V30 13403 H 1243.17 2.70669 -3.73175 0
M  V30 13404 H 1246.71 1.25244 -6.86265 0
M  V30 13405 H 1242.61 2.19833 -6.06913 0
M  V30 13406 H 1243.38 1.54191 -8.03845 0
M  V30 13407 N 1246.04 1.3432 0.824371 0
M  V30 13408 C 1246.97 1.2842 1.95014 0
M  V30 13409 C 1247.95 0.161925 1.69328 0
M  V30 13410 O 1249.13 0.354052 1.90945 0
M  V30 13411 C 1246.26 1.03741 3.31444 0
M  V30 13412 C 1245.22 2.12419 3.71567 0
M  V30 13413 C 1244.54 1.72931 5.05963 0
M  V30 13414 C 1245.84 3.54235 3.83817 0
M  V30 13415 H 1247.54 2.22614 2.00209 0
M  V30 13416 H 1245.08 1.07165 0.961856 0
M  V30 13417 H 1247.04 0.982586 4.09784 0
M  V30 13418 H 1245.76 0.0598892 3.26545 0
M  V30 13419 H 1244.42 2.16968 2.955 0
M  V30 13420 H 1244.07 0.738433 4.9755 0
M  V30 13421 H 1243.77 2.45668 5.3378 0
M  V30 13422 H 1245.29 1.68941 5.86763 0
M  V30 13423 H 1246.71 3.52106 4.52432 0
M  V30 13424 H 1245.1 4.25581 4.23085 0
M  V30 13425 H 1246.17 3.91682 2.85856 0
M  V30 13426 N 1247.52 -1.0444 1.18026 0
M  V30 13427 C 1248.46 -2.12365 0.903865 0
M  V30 13428 C 1249.43 -1.65373 -0.155252 0
M  V30 13429 O 1250.62 -1.90793 -0.016419 0
M  V30 13430 C 1247.76 -3.4239 0.431603 0
M  V30 13431 C 1246.87 -4.03016 1.55571 0
M  V30 13432 C 1246.01 -5.20988 1.03655 0
M  V30 13433 C 1245.05 -5.73636 2.1356 0
M  V30 13434 N 1244.18 -6.82901 1.63066 0
M  V30 13435 H 1249.02 -2.35346 1.82802 0
M  V30 13436 H 1246.56 -1.15447 0.911618 0
M  V30 13437 H 1248.52 -4.16967 0.139296 0
M  V30 13438 H 1247.15 -3.19569 -0.455576 0
M  V30 13439 H 1246.2 -3.25803 1.96358 0
M  V30 13440 H 1247.51 -4.38122 2.38434 0
M  V30 13441 H 1246.67 -6.02665 0.698546 0
M  V30 13442 H 1245.4 -4.87377 0.177457 0
M  V30 13443 H 1244.41 -4.90583 2.4821 0
M  V30 13444 H 1245.63 -6.09293 2.99899 0
M  V30 13445 H 1243.58 -6.51172 0.794394 0
M  V30 13446 H 1243.5 -7.1705 2.3953 0
M  V30 13447 H 1244.77 -7.68211 1.32181 0
M  V30 13448 N 1248.99 -0.981699 -1.2329 0
M  V30 13449 C 1249.92 -0.542441 -2.27112 0
M  V30 13450 C 1250.91 0.425034 -1.64704 0
M  V30 13451 O 1252.09 0.318114 -1.91577 0
M  V30 13452 C 1249.22 0.154668 -3.46955 0
M  V30 13453 C 1248.17 -0.73022 -4.21725 0
M  V30 13454 C 1247.5 0.0991766 -5.34608 0
M  V30 13455 C 1248.8 -2.02166 -4.81587 0
M  V30 13456 H 1250.49 -1.41024 -2.64107 0
M  V30 13457 H 1248.04 -0.679544 -1.26957 0
M  V30 13458 H 1249.99 0.473281 -4.18734 0
M  V30 13459 H 1248.72 1.05693 -3.09025 0
M  V30 13460 H 1247.38 -1.03231 -3.51765 0
M  V30 13461 H 1247.02 1.00201 -4.92919 0
M  V30 13462 H 1246.72 -0.489788 -5.85555 0
M  V30 13463 H 1248.25 0.412141 -6.09207 0
M  V30 13464 H 1249.66 -1.76773 -5.45366 0
M  V30 13465 H 1248.06 -2.55851 -5.42826 0
M  V30 13466 H 1249.13 -2.70766 -4.02261 0
M  V30 13467 N 1250.47 1.3842 -0.753509 0
M  V30 13468 C 1251.89 1.53668 -0.431095 0
M  V30 13469 C 1252.09 1.71626 1.05578 0
M  V30 13470 O 1251.14 1.72723 1.84182 0
M  V30 13471 C 1252.46 2.74381 -1.23027 0
M  V30 13472 C 1254.01 2.8823 -1.22034 0
M  V30 13473 C 1254.48 4.11904 -2.00248 0
M  V30 13474 N 1255.97 4.18981 -1.97508 0
M  V30 13475 C 1256.71 5.13667 -2.5482 0
M  V30 13476 N 1256.2 6.14027 -3.20846 0
M  V30 13477 N 1258 5.06017 -2.44751 0
M  V30 13478 H 1250.15 1.25012 -1.71714 0
M  V30 13479 H 1252.41 0.607296 -0.727939 0
M  V30 13480 H 1252.12 2.67515 -2.28317 0
M  V30 13481 H 1251.99 3.67565 -0.847098 0
M  V30 13482 H 1254.38 2.94578 -0.175502 0
M  V30 13483 H 1254.46 1.96057 -1.64303 0
M  V30 13484 H 1254.1 4.06318 -3.04742 0
M  V30 13485 H 1254.03 5.03157 -1.55373 0
M  V30 13486 H 1256.52 3.47104 -1.49423 0
M  V30 13487 H 1256.84 6.82771 -3.61999 0
M  V30 13488 H 1255.18 6.1436 -3.24941 0
M  V30 13489 H 1258.37 4.26552 -1.92797 0
M  V30 13490 H 1258.54 5.7963 -2.89713 0
M  V30 13491 N 1251.95 0.502579 1.49372 0
M  V30 13492 C 1252.9 -0.294292 2.26093 0
M  V30 13493 C 1253.88 -0.934147 1.31006 0
M  V30 13494 O 1255.08 -0.841486 1.55718 0
M  V30 13495 C 1252.21 -1.3572 3.15333 0
M  V30 13496 C 1251.29 -0.723506 4.17883 0
M  V30 13497 N 1251.68 0.174787 5.05498 0
M  V30 13498 C 1249.98 -0.983906 4.35012 0
M  V30 13499 C 1250.68 0.537673 5.7921 0
M  V30 13500 N 1249.66 -0.0947799 5.43517 0
M  V30 13501 H 1253.46 0.397202 2.91204 0
M  V30 13502 H 1250.97 0.31876 1.59241 0
M  V30 13503 H 1252.97 -1.94154 3.6893 0
M  V30 13504 H 1251.63 -2.05036 2.51775 0
M  V30 13505 H 1252.64 0.545699 5.15017 0
M  V30 13506 H 1249.32 -1.66969 3.82658 0
M  V30 13507 H 1250.71 1.27266 6.59737 0
M  V30 13508 N 1253.43 -1.55816 0.23648 0
M  V30 13509 C 1254.67 -1.99725 -0.384898 0
M  V30 13510 C 1255.03 -1.12169 -1.5632 0
M  V30 13511 O 1254.32 -0.17491 -1.908 0
M  V30 13512 C 1254.52 -3.47039 -0.85434 0
M  V30 13513 C 1254.35 -4.48847 0.276929 0
M  V30 13514 C 1253.12 -4.9973 0.748215 0
M  V30 13515 C 1255.31 -5.02391 1.10036 0
M  V30 13516 N 1253.3 -5.85267 1.85298 0
M  V30 13517 C 1254.67 -5.84998 2.0537 0
M  V30 13518 C 1256.72 -4.84718 1.1381 0
M  V30 13519 C 1255.42 -6.5182 3.04177 0
M  V30 13520 C 1257.45 -5.5231 2.11442 0
M  V30 13521 C 1256.81 -6.34697 3.05514 0
M  V30 13522 H 1252.91 -0.774632 -0.107094 0
M  V30 13523 H 1255.5 -1.91498 0.351673 0
M  V30 13524 H 1253.67 -3.55684 -1.56023 0
M  V30 13525 H 1255.4 -3.7784 -1.44979 0
M  V30 13526 H 1252.15 -4.7242 0.334178 0
M  V30 13527 H 1252.58 -6.32735 2.40782 0
M  V30 13528 H 1257.22 -4.20662 0.424703 0
M  V30 13529 H 1254.94 -7.15049 3.76471 0
M  V30 13530 H 1258.52 -5.40594 2.15056 0
M  V30 13531 H 1257.4 -6.86077 3.79827 0
M  V30 13532 N 1254.91 0.036755 -1.57557 0
M  V30 13533 C 1255.84 1.06718 -2.0284 0
M  V30 13534 C 1256.85 1.32926 -0.939917 0
M  V30 13535 O 1258.04 1.30549 -1.21734 0
M  V30 13536 C 1255.14 2.41054 -2.38214 0
M  V30 13537 C 1254.31 2.3431 -3.69347 0
M  V30 13538 C 1253.37 3.51034 -3.91997 0
M  V30 13539 O 1252.4 3.30875 -4.63152 0
M  V30 13540 N 1253.6 4.72634 -3.37042 0
M  V30 13541 H 1256.37 0.681275 -2.91854 0
M  V30 13542 H 1253.93 0.224836 -1.60331 0
M  V30 13543 H 1255.92 3.17847 -2.5051 0
M  V30 13544 H 1254.49 2.71517 -1.5491 0
M  V30 13545 H 1253.71 1.42668 -3.67477 0
M  V30 13546 H 1255 2.2694 -4.55385 0
M  V30 13547 H 1254.39 4.91914 -2.79352 0
M  V30 13548 H 1252.95 5.46818 -3.5473 0
M  V30 13549 N 1256.39 1.54543 0.308881 0
M  V30 13550 C 1257.63 1.74639 1.04273 0
M  V30 13551 C 1257.99 0.521584 1.85195 0
M  V30 13552 O 1257.28 -0.486029 1.85333 0
M  V30 13553 C 1257.47 2.97124 1.98626 0
M  V30 13554 C 1257.3 4.31399 1.26983 0
M  V30 13555 C 1256.07 4.95301 1.00025 0
M  V30 13556 C 1258.27 5.09808 0.67827 0
M  V30 13557 N 1256.25 6.13377 0.253269 0
M  V30 13558 C 1257.62 6.19967 0.0636574 0
M  V30 13559 C 1259.68 4.9448 0.582538 0
M  V30 13560 C 1258.38 7.1647 -0.637416 0
M  V30 13561 C 1260.41 5.91307 -0.104864 0
M  V30 13562 C 1259.77 7.00829 -0.70836 0
M  V30 13563 H 1255.87 0.691718 0.36476 0
M  V30 13564 H 1258.45 1.92015 0.322233 0
M  V30 13565 H 1256.62 2.81187 2.67934 0
M  V30 13566 H 1258.36 3.05781 2.65104 0
M  V30 13567 H 1255.11 4.55512 1.29638 0
M  V30 13568 H 1255.53 6.76916 -0.106505 0
M  V30 13569 H 1260.18 4.0994 1.03483 0
M  V30 13570 H 1257.89 8.00558 -1.1015 0
M  V30 13571 H 1261.48 5.81525 -0.178774 0
M  V30 13572 H 1260.36 7.74465 -1.23182 0
M  V30 13573 N 1257.86 -0.571685 1.46866 0
M  V30 13574 C 1259.11 -1.32924 1.53957 0
M  V30 13575 C 1259.46 -1.91428 0.1932 0
M  V30 13576 O 1258.76 -1.74125 -0.799447 0
M  V30 13577 C 1258.95 -2.47051 2.58264 0
M  V30 13578 C 1258.78 -1.99729 4.02913 0
M  V30 13579 C 1257.55 -1.84236 4.70516 0
M  V30 13580 C 1259.75 -1.55035 4.90376 0
M  V30 13581 N 1257.73 -1.31101 5.99738 0
M  V30 13582 C 1259.1 -1.13566 6.0951 0
M  V30 13583 C 1261.16 -1.42953 4.76937 0
M  V30 13584 C 1259.86 -0.612183 7.1669 0
M  V30 13585 C 1261.89 -0.92008 5.84199 0
M  V30 13586 C 1261.25 -0.515239 7.02513 0
M  V30 13587 H 1257.35 -0.47897 0.618152 0
M  V30 13588 H 1259.93 -0.649687 1.83541 0
M  V30 13589 H 1258.1 -3.12555 2.30573 0
M  V30 13590 H 1259.83 -3.14025 2.55285 0
M  V30 13591 H 1256.59 -2.06516 4.26202 0
M  V30 13592 H 1257.01 -1.06663 6.68545 0
M  V30 13593 H 1261.65 -1.72869 3.85845 0
M  V30 13594 H 1259.37 -0.300634 8.07541 0
M  V30 13595 H 1262.96 -0.830357 5.75844 0
M  V30 13596 H 1261.84 -0.127122 7.84097 0
M  V30 13597 N 1259.34 -1.34755 -0.817236 0
M  V30 13598 C 1260.76 -1.14561 -1.11121 0
M  V30 13599 C 1260.96 0.0490776 -2.0144 0
M  V30 13600 O 1260.01 0.722897 -2.41931 0
M  V30 13601 C 1261.33 -2.44356 -1.75244 0
M  V30 13602 C 1262.87 -2.50465 -1.87713 0
M  V30 13603 C 1263.35 -3.80276 -2.55253 0
M  V30 13604 N 1264.84 -3.81468 -2.62747 0
M  V30 13605 C 1265.58 -4.78634 -3.15749 0
M  V30 13606 N 1265.07 -5.86184 -3.6927 0
M  V30 13607 N 1266.86 -4.66083 -3.14203 0
M  V30 13608 H 1259.02 -2.11293 -0.2166 0
M  V30 13609 H 1261.28 -0.934629 -0.158661 0
M  V30 13610 H 1260.98 -3.31899 -1.16344 0
M  V30 13611 H 1260.86 -2.58117 -2.75055 0
M  V30 13612 H 1263.25 -1.63358 -2.45761 0
M  V30 13613 H 1263.33 -2.40627 -0.867887 0
M  V30 13614 H 1262.97 -4.67776 -1.97858 0
M  V30 13615 H 1262.9 -3.87399 -3.56693 0
M  V30 13616 H 1265.39 -3.03753 -2.24817 0
M  V30 13617 H 1265.7 -6.56332 -4.0798 0
M  V30 13618 H 1264.05 -5.8989 -3.67498 0
M  V30 13619 H 1267.24 -3.81206 -2.7166 0
M  V30 13620 H 1267.41 -5.41973 -3.55203 0
M  V30 13621 N 1260.82 1.03812 -1.18578 0
M  V30 13622 C 1261.75 2.13802 -0.938665 0
M  V30 13623 C 1262.73 1.69643 0.124575 0
M  V30 13624 O 1263.92 1.94179 -0.0285421 0
M  V30 13625 C 1261.05 3.44154 -0.466392 0
M  V30 13626 C 1260 4.01949 -1.47041 0
M  V30 13627 C 1259.33 5.27811 -0.855558 0
M  V30 13628 C 1260.63 4.37827 -2.84789 0
M  V30 13629 H 1262.32 2.34732 -1.85852 0
M  V30 13630 H 1259.87 1.12808 -0.895007 0
M  V30 13631 H 1261.82 4.20463 -0.280856 0
M  V30 13632 H 1260.54 3.22918 0.489041 0
M  V30 13633 H 1259.2 3.27725 -1.64293 0
M  V30 13634 H 1258.85 5.02886 0.107142 0
M  V30 13635 H 1258.55 5.67441 -1.52592 0
M  V30 13636 H 1260.07 6.06795 -0.680609 0
M  V30 13637 H 1261.49 5.05112 -2.71173 0
M  V30 13638 H 1259.88 4.88514 -3.48532 0
M  V30 13639 H 1260.95 3.47541 -3.38147 0
M  V30 13640 N 1262.3 0.988223 1.22768 0
M  V30 13641 C 1263.54 0.661461 1.91392 0
M  V30 13642 C 1263.87 -0.805942 1.77016 0
M  V30 13643 O 1263.13 -1.5978 1.12999 0
M  V30 13644 C 1263.43 1.00744 3.42907 0
M  V30 13645 C 1263.09 2.46634 3.77469 0
M  V30 13646 C 1261.75 2.86503 3.86613 0
M  V30 13647 C 1264.11 3.41217 3.9398 0
M  V30 13648 C 1261.43 4.19954 4.09702 0
M  V30 13649 C 1263.79 4.74321 4.18572 0
M  V30 13650 C 1262.45 5.13938 4.25939 0
M  V30 13651 H 1261.72 0.242046 0.700353 0
M  V30 13652 H 1264.37 1.24354 1.45631 0
M  V30 13653 H 1262.67 0.34338 3.90292 0
M  V30 13654 H 1264.37 0.732714 3.94249 0
M  V30 13655 H 1260.96 2.14729 3.70931 0
M  V30 13656 H 1265.14 3.11589 3.86298 0
M  V30 13657 H 1260.4 4.50243 4.13631 0
M  V30 13658 H 1264.57 5.47561 4.30291 0
M  V30 13659 H 1262.2 6.17364 4.43583 0
M  V30 13660 N 1263.78 -1.38018 0.760839 0
M  V30 13661 C 1265 -2.04231 0.331285 0
M  V30 13662 C 1265.42 -1.57385 -1.04285 0
M  V30 13663 O 1264.78 -0.750168 -1.66369 0
M  V30 13664 C 1264.83 -3.59772 0.353021 0
M  V30 13665 O 1264.55 -4.049 1.67294 0
M  V30 13666 C 1266.05 -4.4321 -0.0894942 0
M  V30 13667 H 1263.27 -0.656145 0.140408 0
M  V30 13668 H 1265.81 -1.76567 1.03172 0
M  V30 13669 H 1263.97 -3.86246 -0.298735 0
M  V30 13670 H 1264.38 -4.99369 1.60408 0
M  V30 13671 H 1265.86 -5.51995 -0.0231262 0
M  V30 13672 H 1266.33 -4.2419 -1.13839 0
M  V30 13673 H 1266.94 -4.21939 0.533661 0
M  V30 13674 N 1265.25 -0.510493 -1.49103 0
M  V30 13675 C 1266.2 0.262848 -2.29298 0
M  V30 13676 C 1267.17 0.951714 -1.36131 0
M  V30 13677 O 1268.36 0.956534 -1.65091 0
M  V30 13678 C 1265.5 1.31565 -3.19037 0
M  V30 13679 C 1264.61 0.637598 -4.27269 0
M  V30 13680 C 1263.74 1.67165 -5.04212 0
M  V30 13681 C 1262.78 0.975992 -6.04269 0
M  V30 13682 N 1261.92 1.95468 -6.74342 0
M  V30 13683 H 1266.76 -0.427246 -2.94921 0
M  V30 13684 H 1264.3 -0.222538 -1.45407 0
M  V30 13685 H 1266.25 1.93813 -3.69449 0
M  V30 13686 H 1264.88 1.97438 -2.55379 0
M  V30 13687 H 1263.94 -0.0983863 -3.80273 0
M  V30 13688 H 1265.25 0.0904435 -4.98718 0
M  V30 13689 H 1264.4 2.36893 -5.5854 0
M  V30 13690 H 1263.14 2.25267 -4.32557 0
M  V30 13691 H 1262.15 0.264534 -5.49163 0
M  V30 13692 H 1263.37 0.40134 -6.77913 0
M  V30 13693 H 1261.32 2.52515 -6.05452 0
M  V30 13694 H 1261.23 1.45845 -7.41799 0
M  V30 13695 H 1262.5 2.64455 -7.33269 0
M  V30 13696 N 1266.73 1.55688 -0.24474 0
M  V30 13697 C 1267.98 1.99186 0.381167 0
M  V30 13698 C 1268.31 1.13266 1.57748 0
M  V30 13699 O 1267.59 0.195568 1.93514 0
M  V30 13700 C 1267.87 3.51257 0.793142 0
M  V30 13701 C 1267.72 4.47942 -0.408409 0
M  V30 13702 C 1269.04 4.08365 1.64091 0
M  V30 13703 H 1266.16 0.724141 0.137073 0
M  V30 13704 H 1268.8 1.8683 -0.345619 0
M  V30 13705 H 1266.95 3.61917 1.4124 0
M  V30 13706 H 1268.62 4.49265 -1.04682 0
M  V30 13707 H 1266.87 4.20854 -1.05189 0
M  V30 13708 H 1267.54 5.51946 -0.0768531 0
M  V30 13709 H 1270.01 4.00794 1.1182 0
M  V30 13710 H 1268.89 5.1504 1.89802 0
M  V30 13711 H 1269.15 3.56687 2.61202 0
M  V30 13712 N 1268.21 -0.0283989 1.57574 0
M  V30 13713 C 1269.16 -1.02881 2.06601 0
M  V30 13714 C 1270.13 -1.35879 0.955308 0
M  V30 13715 O 1271.31 -1.46205 1.22592 0
M  V30 13716 C 1268.45 -2.32447 2.55073 0
M  V30 13717 C 1267.56 -2.05602 3.79937 0
M  V30 13718 C 1266.7 -3.29043 4.17018 0
M  V30 13719 C 1265.74 -2.97755 5.34797 0
M  V30 13720 N 1264.88 -4.1365 5.67308 0
M  V30 13721 H 1269.72 -0.603772 2.91819 0
M  V30 13722 H 1267.25 -0.286503 1.44283 0
M  V30 13723 H 1269.21 -3.08152 2.81244 0
M  V30 13724 H 1267.84 -2.72672 1.72771 0
M  V30 13725 H 1266.89 -1.2039 3.60847 0
M  V30 13726 H 1268.2 -1.78522 4.65759 0
M  V30 13727 H 1267.36 -4.13115 4.4432 0
M  V30 13728 H 1266.1 -3.59237 3.29849 0
M  V30 13729 H 1265.1 -2.12085 5.07247 0
M  V30 13730 H 1266.33 -2.68839 6.23621 0
M  V30 13731 H 1264.27 -4.43794 4.83097 0
M  V30 13732 H 1264.19 -3.89996 6.47641 0
M  V30 13733 H 1265.46 -4.98594 5.99186 0
M  V30 13734 N 1269.69 -1.54705 -0.300681 0
M  V30 13735 C 1271.1 -1.64998 -0.873654 0
M  V30 13736 C 1271.45 -0.558842 -1.88073 0
M  V30 13737 O 1270.57 0.304474 -2.14247 0
M  V30 13738 C 1271.17 -2.99099 -1.59138 0
M  V30 13739 C 1269.73 -3.11512 -2.11276 0
M  V30 13740 C 1268.88 -2.60681 -0.945551 0
M  V30 13741 H 1271.83 -1.5851 -0.0776752 0
M  V30 13742 H 1271.85 -2.9054 -2.45696 0
M  V30 13743 H 1271.36 -3.78493 -0.858172 0
M  V30 13744 H 1269.46 -2.36838 -2.87643 0
M  V30 13745 H 1269.57 -4.17672 -2.34707 0
M  V30 13746 H 1267.94 -2.17143 -1.33121 0
M  V30 13747 H 1268.72 -3.42553 -0.226291 0
M  V30 13748 N 1271.17 0.563888 -1.47167 0
M  V30 13749 C 1272.1 1.68137 -1.62025 0
M  V30 13750 C 1273.08 1.63481 -0.469899 0
M  V30 13751 O 1274.26 1.81206 -0.698432 0
M  V30 13752 C 1271.39 3.06779 -1.62801 0
M  V30 13753 C 1270.35 3.26278 -2.76996 0
M  V30 13754 C 1269.67 4.65638 -2.62841 0
M  V30 13755 C 1270.97 3.12295 -4.18651 0
M  V30 13756 H 1272.67 1.55958 -2.55573 0
M  V30 13757 H 1270.21 0.74887 -1.22996 0
M  V30 13758 H 1272.17 3.84795 -1.71787 0
M  V30 13759 H 1270.89 3.19901 -0.658097 0
M  V30 13760 H 1269.55 2.50668 -2.67509 0
M  V30 13761 H 1269.2 4.75551 -1.63892 0
M  V30 13762 H 1268.9 4.79635 -3.39447 0
M  V30 13763 H 1270.42 5.45798 -2.73746 0
M  V30 13764 H 1271.83 3.80136 -4.2915 0
M  V30 13765 H 1270.23 3.37805 -4.95992 0
M  V30 13766 H 1271.3 2.09126 -4.37486 0
M  V30 13767 N 1272.64 1.35187 0.810078 0
M  V30 13768 C 1273.57 1.30481 1.93641 0
M  V30 13769 C 1274.56 0.179875 1.69146 0
M  V30 13770 O 1275.74 0.374284 1.90559 0
M  V30 13771 C 1272.87 1.07251 3.30325 0
M  V30 13772 C 1271.82 2.16348 3.69293 0
M  V30 13773 C 1271.15 1.78288 5.04101 0
M  V30 13774 C 1272.45 3.58285 3.80038 0
M  V30 13775 H 1274.14 2.24725 1.97836 0
M  V30 13776 H 1271.69 1.08179 0.950436 0
M  V30 13777 H 1273.64 1.02599 4.08719 0
M  V30 13778 H 1272.37 0.0945203 3.26463 0
M  V30 13779 H 1271.03 2.2009 2.93182 0
M  V30 13780 H 1270.67 0.791163 4.96739 0
M  V30 13781 H 1270.37 2.51315 5.31144 0
M  V30 13782 H 1271.9 1.75155 5.84938 0
M  V30 13783 H 1273.31 3.56884 4.48672 0
M  V30 13784 H 1271.71 4.30044 4.18548 0
M  V30 13785 H 1272.78 3.94691 2.81685 0
M  V30 13786 N 1274.12 -1.03182 1.19127 0
M  V30 13787 C 1275.05 -2.11462 0.884098 0
M  V30 13788 C 1276.07 -1.62342 -0.121984 0
M  V30 13789 O 1277.26 -1.78179 0.107038 0
M  V30 13790 C 1274.36 -3.37559 0.301227 0
M  V30 13791 C 1273.53 -4.15878 1.35514 0
M  V30 13792 C 1272.59 -5.20291 0.786349 0
M  V30 13793 O 1271.61 -5.50069 1.46331 0
M  V30 13794 N 1272.82 -5.79038 -0.411803 0
M  V30 13795 H 1275.58 -2.38405 1.81613 0
M  V30 13796 H 1273.14 -1.19449 1.09287 0
M  V30 13797 H 1275.13 -4.04593 -0.0930685 0
M  V30 13798 H 1273.7 -3.07987 -0.535022 0
M  V30 13799 H 1272.92 -3.44036 1.9244 0
M  V30 13800 H 1274.21 -4.64993 2.06539 0
M  V30 13801 H 1273.61 -5.57158 -0.979353 0
M  V30 13802 H 1272.17 -6.47495 -0.747912 0
M  V30 13803 N 1275.6 -0.99472 -1.22242 0
M  V30 13804 C 1276.85 -0.672596 -1.91322 0
M  V30 13805 C 1277.18 0.793542 -1.77247 0
M  V30 13806 O 1276.45 1.57407 -1.14251 0
M  V30 13807 C 1276.74 -1.08155 -3.43474 0
M  V30 13808 C 1276.59 -2.60638 -3.6659 0
M  V30 13809 C 1277.91 -0.636161 -4.35478 0
M  V30 13810 H 1275.03 -0.24582 -0.694796 0
M  V30 13811 H 1277.67 -1.23857 -1.44082 0
M  V30 13812 H 1275.82 -0.599987 -3.83839 0
M  V30 13813 H 1277.49 -3.16479 -3.35617 0
M  V30 13814 H 1275.74 -3.02624 -3.10808 0
M  V30 13815 H 1276.41 -2.84304 -4.73155 0
M  V30 13816 H 1278.88 -1.04982 -4.02639 0
M  V30 13817 H 1277.76 -0.950584 -5.40606 0
M  V30 13818 H 1278.02 0.4631 -4.39668 0
M  V30 13819 N 1277.08 1.37613 -0.768148 0
M  V30 13820 C 1278.31 2.04052 -0.342111 0
M  V30 13821 C 1278.72 1.57936 1.03449 0
M  V30 13822 O 1278.08 0.758981 1.65969 0
M  V30 13823 C 1278.13 3.5958 -0.372096 0
M  V30 13824 O 1277.85 4.04008 -1.69439 0
M  V30 13825 C 1279.35 4.43251 0.0659884 0
M  V30 13826 H 1276.57 0.655391 -0.143886 0
M  V30 13827 H 1279.12 1.76017 -1.04107 0
M  V30 13828 H 1277.27 3.86399 0.278248 0
M  V30 13829 H 1277.68 4.98511 -1.63054 0
M  V30 13830 H 1279.16 5.52 -0.00614775 0
M  V30 13831 H 1279.64 4.24788 1.11588 0
M  V30 13832 H 1280.24 4.2165 -0.55603 0
M  V30 13833 N 1278.56 0.518393 1.4883 0
M  V30 13834 C 1279.97 0.175476 1.58632 0
M  V30 13835 C 1280.17 -1.32081 1.52174 0
M  V30 13836 O 1279.23 -2.09817 1.40474 0
M  V30 13837 C 1280.54 0.767722 2.90734 0
M  V30 13838 C 1282.09 0.735402 3.04238 0
M  V30 13839 C 1282.56 1.30602 4.38984 0
M  V30 13840 N 1284.06 1.26748 4.45521 0
M  V30 13841 C 1284.79 1.679 5.48267 0
M  V30 13842 N 1284.29 2.16728 6.58028 0
M  V30 13843 N 1286.08 1.59209 5.39082 0
M  V30 13844 H 1278.23 1.491 1.51271 0
M  V30 13845 H 1280.49 0.619497 0.717584 0
M  V30 13846 H 1280.2 1.81777 3.01081 0
M  V30 13847 H 1280.07 0.238119 3.76448 0
M  V30 13848 H 1282.46 -0.305852 2.93511 0
M  V30 13849 H 1282.54 1.30235 2.20165 0
M  V30 13850 H 1282.19 2.34614 4.50465 0
M  V30 13851 H 1282.12 0.714858 5.21725 0
M  V30 13852 H 1284.61 0.90991 3.66782 0
M  V30 13853 H 1284.92 2.46154 7.32549 0
M  V30 13854 H 1283.26 2.20714 6.59022 0
M  V30 13855 H 1286.46 1.20869 4.52226 0
M  V30 13856 H 1286.63 1.91602 6.19025 0
M  V30 13857 N 1280.03 -1.55556 0.252993 0
M  V30 13858 C 1280.97 -2.18978 -0.676837 0
M  V30 13859 C 1281.98 -1.16788 -1.13421 0
M  V30 13860 O 1283.17 -1.43623 -1.05993 0
M  V30 13861 C 1280.27 -2.78404 -1.93248 0
M  V30 13862 C 1279.44 -4.06072 -1.62555 0
M  V30 13863 C 1278.5 -4.49757 -2.7314 0
M  V30 13864 O 1277.53 -5.16005 -2.40266 0
M  V30 13865 N 1278.73 -4.18049 -4.0276 0
M  V30 13866 H 1281.49 -2.994 -0.134142 0
M  V30 13867 H 1279.05 -1.61734 0.0731965 0
M  V30 13868 H 1281.05 -3.04583 -2.6648 0
M  V30 13869 H 1279.62 -2.02104 -2.3848 0
M  V30 13870 H 1278.84 -3.87417 -0.728115 0
M  V30 13871 H 1280.12 -4.89297 -1.39521 0
M  V30 13872 H 1279.52 -3.64876 -4.32298 0
M  V30 13873 H 1278.08 -4.4905 -4.72438 0
M  V30 13874 N 1281.51 0.0200419 -1.57587 0
M  V30 13875 C 1282.79 0.744946 -1.80859 0
M  V30 13876 C 1283.17 1.93089 -0.853218 0
M  V30 13877 O 1282.52 2.28269 0.10261 0
M  V30 13878 C 1282.73 1.16952 -3.28821 0
M  V30 13879 C 1284.08 1.5817 -3.9404 0
M  V30 13880 O 1285.1 1.26385 -3.33024 0
M  V30 13881 O 1283.96 2.17197 -5.01486 0
M  V30 13882 H 1281.05 0.360995 -0.744051 0
M  V30 13883 H 1283.6 -0.00387374 -1.697 0
M  V30 13884 H 1282.37 0.323304 -3.89962 0
M  V30 13885 H 1281.99 1.97807 -3.44903 0
M  V30 13886 N 1282.99 1.54862 0.292472 0
M  V30 13887 C 1283.9 1.89472 1.38339 0
M  V30 13888 C 1284.92 0.789783 1.55043 0
M  V30 13889 O 1286.09 1.08705 1.69544 0
M  V30 13890 C 1283.16 2.14244 2.72581 0
M  V30 13891 C 1282.22 3.37913 2.64789 0
M  V30 13892 C 1281.45 3.61494 3.92629 0
M  V30 13893 O 1281.67 2.87931 4.92394 0
M  V30 13894 O 1280.61 4.55019 3.94007 0
M  V30 13895 H 1284.43 2.82298 1.11989 0
M  V30 13896 H 1282.02 1.41161 0.489291 0
M  V30 13897 H 1283.9 2.31689 3.51991 0
M  V30 13898 H 1282.58 1.24603 2.98757 0
M  V30 13899 H 1281.48 3.25823 1.83821 0
M  V30 13900 H 1282.82 4.27711 2.43565 0
M  V30 13901 N 1284.47 -0.556076 1.47464 0
M  V30 13902 C 1285.71 -1.31515 1.54375 0
M  V30 13903 C 1286.05 -1.93106 0.205837 0
M  V30 13904 O 1285.32 -1.77927 -0.785643 0
M  V30 13905 C 1285.61 -2.4244 2.66261 0
M  V30 13906 C 1285.46 -1.8571 4.09673 0
M  V30 13907 C 1286.78 -3.4436 2.74051 0
M  V30 13908 H 1283.9 -0.476817 0.561974 0
M  V30 13909 H 1286.54 -0.622157 1.79525 0
M  V30 13910 H 1284.69 -3.01551 2.44948 0
M  V30 13911 H 1286.36 -1.30851 4.42353 0
M  V30 13912 H 1284.6 -1.16379 4.17898 0
M  V30 13913 H 1285.27 -2.65904 4.83735 0
M  V30 13914 H 1287.75 -2.95169 2.93282 0
M  V30 13915 H 1286.63 -4.194 3.54111 0
M  V30 13916 H 1286.89 -4.03281 1.81155 0
M  V30 13917 N 1285.95 -1.35615 -0.802897 0
M  V30 13918 C 1286.88 -1.31506 -1.92947 0
M  V30 13919 C 1287.86 -0.188843 -1.69048 0
M  V30 13920 O 1289.04 -0.384384 -1.90358 0
M  V30 13921 C 1286.17 -1.09001 -3.29752 0
M  V30 13922 C 1285.13 -2.18303 -3.68141 0
M  V30 13923 C 1284.45 -1.80959 -5.03148 0
M  V30 13924 C 1285.75 -3.60296 -3.78132 0
M  V30 13925 H 1287.45 -2.25771 -1.96642 0
M  V30 13926 H 1284.99 -1.08682 -0.944685 0
M  V30 13927 H 1286.95 -1.04766 -4.08169 0
M  V30 13928 H 1285.67 -0.111832 -3.26408 0
M  V30 13929 H 1284.33 -2.21642 -2.92011 0
M  V30 13930 H 1283.98 -0.817495 -4.96312 0
M  V30 13931 H 1283.68 -2.54129 -5.29804 0
M  V30 13932 H 1285.2 -1.78255 -5.84001 0
M  V30 13933 H 1286.62 -3.59259 -4.46773 0
M  V30 13934 H 1285.01 -4.32258 -4.16261 0
M  V30 13935 H 1286.08 -3.9618 -2.79588 0
M  V30 13936 N 1287.43 1.02549 -1.19673 0
M  V30 13937 C 1288.36 2.10991 -0.8953 0
M  V30 13938 C 1289.37 1.62405 0.113373 0
M  V30 13939 O 1290.56 1.7812 -0.116485 0
M  V30 13940 C 1287.66 3.37394 -0.319124 0
M  V30 13941 C 1286.83 4.15154 -1.37718 0
M  V30 13942 C 1285.89 5.19867 -0.81393 0
M  V30 13943 O 1284.92 5.49285 -1.49246 0
M  V30 13944 N 1286.12 5.79248 0.381089 0
M  V30 13945 H 1288.88 2.37438 -1.82875 0
M  V30 13946 H 1286.45 1.18867 -1.09919 0
M  V30 13947 H 1288.44 4.04637 0.0716106 0
M  V30 13948 H 1287.01 3.08267 0.518681 0
M  V30 13949 H 1286.23 3.4301 -1.94262 0
M  V30 13950 H 1287.52 4.63892 -2.09003 0
M  V30 13951 H 1286.91 5.5767 0.949791 0
M  V30 13952 H 1285.47 6.47882 0.713563 0
M  V30 13953 N 1288.9 1.00119 1.21713 0
M  V30 13954 C 1289.87 0.563409 2.22167 0
M  V30 13955 C 1290.87 -0.35819 1.5676 0
M  V30 13956 O 1292.06 -0.149001 1.73562 0
M  V30 13957 C 1289.19 -0.179365 3.40428 0
M  V30 13958 H 1290.38 1.45189 2.62412 0
M  V30 13959 H 1287.93 0.789286 1.34907 0
M  V30 13960 H 1288.67 -1.08345 3.05666 0
M  V30 13961 H 1288.45 0.482471 3.8912 0
M  V30 13962 H 1289.94 -0.473537 4.14906 0
M  V30 13963 N 1290.38 -1.37203 0.775435 0
M  V30 13964 C 1291.8 -1.52962 0.455488 0
M  V30 13965 C 1292 -1.73284 -1.02834 0
M  V30 13966 O 1291.05 -1.75631 -1.81411 0
M  V30 13967 C 1292.37 -2.72389 1.27377 0
M  V30 13968 C 1293.91 -2.86252 1.26604 0
M  V30 13969 C 1294.39 -4.08666 2.06775 0
M  V30 13970 N 1295.88 -4.15786 2.04148 0
M  V30 13971 C 1296.62 -5.09548 2.6296 0
M  V30 13972 N 1296.11 -6.08845 3.30574 0
M  V30 13973 N 1297.9 -5.02059 2.5277 0
M  V30 13974 H 1290.06 -1.22265 1.73681 0
M  V30 13975 H 1292.32 -0.595638 0.737509 0
M  V30 13976 H 1292.02 -2.63849 2.32544 0
M  V30 13977 H 1291.9 -3.66171 0.905467 0
M  V30 13978 H 1294.29 -2.94261 0.222345 0
M  V30 13979 H 1294.37 -1.93418 1.67401 0
M  V30 13980 H 1294.01 -4.01419 3.11168 0
M  V30 13981 H 1293.94 -5.00621 1.63358 0
M  V30 13982 H 1296.43 -3.44683 1.54926 0
M  V30 13983 H 1296.74 -6.76926 3.72815 0
M  V30 13984 H 1295.09 -6.09113 3.34674 0
M  V30 13985 H 1298.28 -4.23431 1.99559 0
M  V30 13986 H 1298.45 -5.74947 2.98898 0
M  V30 13987 N 1291.86 -0.526279 -1.48553 0
M  V30 13988 C 1292.82 0.227739 -2.28066 0
M  V30 13989 C 1293.82 0.871146 -1.35158 0
M  V30 13990 O 1295.01 0.731769 -1.58085 0
M  V30 13991 C 1292.14 1.32918 -3.1392 0
M  V30 13992 H 1293.34 -0.470313 -2.96189 0
M  V30 13993 H 1290.89 -0.282089 -1.53733 0
M  V30 13994 H 1291.63 2.0606 -2.50419 0
M  V30 13995 H 1291.41 0.872991 -3.82258 0
M  V30 13996 H 1292.9 1.85964 -3.73908 0
M  V30 13997 N 1293.34 1.5542 -0.261239 0
M  V30 13998 C 1294.27 2.19334 0.665214 0
M  V30 13999 C 1295.28 1.17388 1.128 0
M  V30 14000 O 1296.47 1.44183 1.0523 0
M  V30 14001 C 1293.57 2.79425 1.91768 0
M  V30 14002 C 1292.74 4.06929 1.60399 0
M  V30 14003 C 1291.8 4.51199 2.70751 0
M  V30 14004 O 1290.83 5.17272 2.37526 0
M  V30 14005 N 1292.03 4.20179 4.00537 0
M  V30 14006 H 1294.8 2.99467 0.118262 0
M  V30 14007 H 1292.36 1.61693 -0.0817727 0
M  V30 14008 H 1294.35 3.05992 2.64861 0
M  V30 14009 H 1292.92 2.03366 2.37405 0
M  V30 14010 H 1292.14 3.87798 0.707559 0
M  V30 14011 H 1293.43 4.9003 1.36924 0
M  V30 14012 H 1292.83 3.67164 4.30357 0
M  V30 14013 H 1291.38 4.51549 4.7005 0
M  V30 14014 N 1294.82 -0.0116844 1.57596 0
M  V30 14015 C 1295.73 -1.02342 2.111 0
M  V30 14016 C 1296.74 -1.38478 1.05355 0
M  V30 14017 O 1297.92 -1.47447 1.37191 0
M  V30 14018 C 1294.98 -2.30016 2.5941 0
M  V30 14019 C 1294.04 -2.003 3.79708 0
M  V30 14020 C 1293.28 -3.21888 4.25704 0
M  V30 14021 O 1293.5 -4.33171 3.71106 0
M  V30 14022 O 1292.43 -3.0657 5.17975 0
M  V30 14023 H 1296.26 -0.598637 2.97742 0
M  V30 14024 H 1293.84 -0.229779 1.47622 0
M  V30 14025 H 1295.73 -3.05044 2.90733 0
M  V30 14026 H 1294.4 -2.71755 1.75871 0
M  V30 14027 H 1293.31 -1.22785 3.53376 0
M  V30 14028 H 1294.64 -1.63406 4.64284 0
M  V30 14029 N 1296.29 -1.55015 -0.284256 0
M  V30 14030 C 1297.22 -1.90128 -1.3555 0
M  V30 14031 C 1298.2 -0.761914 -1.52082 0
M  V30 14032 O 1299.39 -1.01909 -1.65312 0
M  V30 14033 C 1296.52 -2.16332 -2.71695 0
M  V30 14034 C 1295.47 -3.32166 -2.69907 0
M  V30 14035 C 1294.8 -3.43824 -4.09498 0
M  V30 14036 C 1296.1 -4.6885 -2.30168 0
M  V30 14037 H 1297.79 -2.79852 -1.06411 0
M  V30 14038 H 1295.34 -1.34649 -0.510451 0
M  V30 14039 H 1297.29 -2.39482 -3.46737 0
M  V30 14040 H 1296.02 -1.23395 -3.02392 0
M  V30 14041 H 1294.68 -3.08965 -1.97322 0
M  V30 14042 H 1294.32 -2.48375 -4.374 0
M  V30 14043 H 1294.02 -4.21698 -4.092 0
M  V30 14044 H 1295.55 -3.69254 -4.86296 0
M  V30 14045 H 1296.96 -4.91619 -2.9493 0
M  V30 14046 H 1295.36 -5.49558 -2.41052 0
M  V30 14047 H 1296.43 -4.68433 -1.25294 0
M  V30 14048 N 1297.77 0.548248 -1.47757 0
M  V30 14049 C 1298.7 1.66999 -1.56984 0
M  V30 14050 C 1299.72 1.56302 -0.455372 0
M  V30 14051 O 1300.91 1.63096 -0.725399 0
M  V30 14052 C 1298.01 3.0553 -1.46645 0
M  V30 14053 C 1297.18 3.41892 -2.72816 0
M  V30 14054 C 1296.24 4.59624 -2.56187 0
M  V30 14055 O 1295.26 4.63757 -3.30028 0
M  V30 14056 N 1296.47 5.56675 -1.64601 0
M  V30 14057 H 1299.23 1.59527 -2.53715 0
M  V30 14058 H 1296.79 0.735101 -1.44249 0
M  V30 14059 H 1298.78 3.82137 -1.33242 0
M  V30 14060 H 1297.35 3.0718 -0.57961 0
M  V30 14061 H 1296.57 2.54644 -3.00916 0
M  V30 14062 H 1297.86 3.62965 -3.56559 0
M  V30 14063 H 1297.26 5.561 -1.03778 0
M  V30 14064 H 1295.82 6.32573 -1.57146 0
M  V30 14065 N 1299.25 1.36039 0.795694 0
M  V30 14066 C 1300.2 1.29853 1.90806 0
M  V30 14067 C 1301.17 0.168387 1.65244 0
M  V30 14068 O 1302.35 0.353879 1.8749 0
M  V30 14069 C 1299.49 1.08737 3.27521 0
M  V30 14070 C 1298.6 2.30771 3.65197 0
M  V30 14071 C 1297.74 2.02718 4.90998 0
M  V30 14072 C 1296.78 3.20746 5.21333 0
M  V30 14073 N 1295.92 2.92399 6.38316 0
M  V30 14074 H 1300.76 2.2497 1.95429 0
M  V30 14075 H 1298.29 1.11819 0.955771 0
M  V30 14076 H 1300.25 0.945236 4.06351 0
M  V30 14077 H 1298.88 0.172781 3.22337 0
M  V30 14078 H 1297.93 2.5581 2.81541 0
M  V30 14079 H 1299.24 3.18869 3.83568 0
M  V30 14080 H 1298.4 1.85398 5.77679 0
M  V30 14081 H 1297.14 1.11921 4.74684 0
M  V30 14082 H 1296.14 3.38632 4.33138 0
M  V30 14083 H 1297.37 4.1236 5.3957 0
M  V30 14084 H 1295.31 2.04207 6.23406 0
M  V30 14085 H 1295.23 3.74034 6.56989 0
M  V30 14086 H 1296.5 2.78643 7.27996 0
M  V30 14087 N 1300.73 -1.01913 1.20215 0
M  V30 14088 C 1301.97 -1.7573 1.01226 0
M  V30 14089 C 1302.31 -1.88799 -0.45481 0
M  V30 14090 O 1301.58 -1.41196 -1.33768 0
M  V30 14091 C 1301.87 -3.17795 1.69348 0
M  V30 14092 C 1301.72 -3.12536 3.23483 0
M  V30 14093 C 1303.04 -4.16409 1.42448 0
M  V30 14094 H 1300.16 -0.637889 0.369144 0
M  V30 14095 H 1302.8 -1.18907 1.48193 0
M  V30 14096 H 1300.95 -3.66311 1.29416 0
M  V30 14097 H 1302.62 -2.71843 3.72692 0
M  V30 14098 H 1300.86 -2.49997 3.54519 0
M  V30 14099 H 1301.53 -4.12949 3.66302 0
M  V30 14100 H 1304.01 -3.76537 1.77086 0
M  V30 14101 H 1302.89 -5.13983 1.92648 0
M  V30 14102 H 1303.15 -4.407 0.351574 0
M  V30 14103 N 1302.21 -1.00763 -1.2118 0
M  V30 14104 C 1303.14 -0.528468 -2.23024 0
M  V30 14105 C 1304.15 0.384348 -1.58198 0
M  V30 14106 O 1305.34 0.184127 -1.77548 0
M  V30 14107 C 1302.44 0.251693 -3.37964 0
M  V30 14108 C 1301.61 -0.660838 -4.32379 0
M  V30 14109 C 1300.67 0.0701723 -5.26153 0
M  V30 14110 O 1299.7 -0.549355 -5.66543 0
M  V30 14111 N 1300.9 1.34791 -5.64634 0
M  V30 14112 H 1303.67 -1.40428 -2.64764 0
M  V30 14113 H 1301.23 -0.884085 -1.3563 0
M  V30 14114 H 1303.22 0.749746 -3.97694 0
M  V30 14115 H 1301.79 1.02872 -2.95188 0
M  V30 14116 H 1301.01 -1.33934 -3.7075 0
M  V30 14117 H 1302.3 -1.28177 -4.9239 0
M  V30 14118 H 1301.69 1.87232 -5.33817 0
M  V30 14119 H 1300.25 1.79086 -6.26715 0
M  V30 14120 N 1303.68 1.3679 -0.7827 0
M  V30 14121 C 1304.59 2.33928 -0.17747 0
M  V30 14122 C 1305.61 1.60716 0.666802 0
M  V30 14123 O 1306.79 1.92742 0.584162 0
M  V30 14124 C 1303.85 3.39907 0.68294 0
M  V30 14125 C 1302.91 4.28926 -0.179053 0
M  V30 14126 C 1302.15 5.29844 0.640386 0
M  V30 14127 O 1302.37 5.38639 1.87681 0
M  V30 14128 O 1301.3 6.01884 0.0438164 0
M  V30 14129 H 1305.13 2.87439 -0.980441 0
M  V30 14130 H 1302.71 1.39142 -0.54404 0
M  V30 14131 H 1304.6 4.04722 1.17379 0
M  V30 14132 H 1303.27 2.88706 1.46391 0
M  V30 14133 H 1302.18 3.67174 -0.716512 0
M  V30 14134 H 1303.51 4.83461 -0.923377 0
M  V30 14135 N 1305.16 0.53415 1.48272 0
M  V30 14136 C 1306.09 -0.215037 2.32508 0
M  V30 14137 C 1307.07 -0.931083 1.42355 0
M  V30 14138 O 1308.26 -0.916051 1.71237 0
M  V30 14139 C 1305.39 -1.25985 3.23643 0
M  V30 14140 C 1304.34 -0.661692 4.22854 0
M  V30 14141 C 1303.67 -1.80946 5.03153 0
M  V30 14142 C 1304.97 0.369358 5.20992 0
M  V30 14143 H 1306.66 0.488158 2.95394 0
M  V30 14144 H 1304.21 0.236206 1.4205 0
M  V30 14145 H 1306.16 -1.79195 3.81402 0
M  V30 14146 H 1304.89 -1.99268 2.58766 0
M  V30 14147 H 1303.54 -0.151082 3.66289 0
M  V30 14148 H 1303.19 -2.53077 4.34696 0
M  V30 14149 H 1302.89 -1.41513 5.70305 0
M  V30 14150 H 1304.42 -2.34526 5.63764 0
M  V30 14151 H 1305.83 -0.0758076 5.7325 0
M  V30 14152 H 1304.23 0.681301 5.9622 0
M  V30 14153 H 1305.3 1.27363 4.67875 0
M  V30 14154 N 1306.64 -1.55279 0.269478 0
M  V30 14155 C 1307.57 -2.19684 -0.653573 0
M  V30 14156 C 1308.59 -1.17985 -1.12176 0
M  V30 14157 O 1309.77 -1.44739 -1.04464 0
M  V30 14158 C 1306.87 -2.80438 -1.90284 0
M  V30 14159 C 1306.05 -4.07774 -1.58239 0
M  V30 14160 C 1305.11 -4.52629 -2.68354 0
M  V30 14161 O 1304.13 -5.18524 -2.3478 0
M  V30 14162 N 1305.33 -4.22297 -3.98303 0
M  V30 14163 H 1308.1 -2.99525 -0.102379 0
M  V30 14164 H 1305.66 -1.61648 0.0903465 0
M  V30 14165 H 1307.65 -3.07392 -2.63234 0
M  V30 14166 H 1306.22 -2.04622 -2.36323 0
M  V30 14167 H 1305.44 -3.88168 -0.686983 0
M  V30 14168 H 1306.73 -4.90749 -1.34323 0
M  V30 14169 H 1306.13 -3.69441 -4.28404 0
M  V30 14170 H 1304.69 -4.54035 -4.67649 0
M  V30 14171 N 1308.12 0.00332656 -1.576 0
M  V30 14172 C 1309.05 1.02391 -2.05058 0
M  V30 14173 C 1310.06 1.30903 -0.967901 0
M  V30 14174 O 1311.25 1.27937 -1.24476 0
M  V30 14175 C 1308.35 2.35947 -2.43274 0
M  V30 14176 C 1307.53 2.26423 -3.74234 0
M  V30 14177 C 1306.58 3.4264 -3.99355 0
M  V30 14178 O 1305.61 3.20977 -4.70067 0
M  V30 14179 N 1306.81 4.65379 -3.46991 0
M  V30 14180 H 1309.58 0.619216 -2.93233 0
M  V30 14181 H 1307.14 0.190777 -1.60772 0
M  V30 14182 H 1309.13 3.12462 -2.57196 0
M  V30 14183 H 1307.7 2.6817 -1.60635 0
M  V30 14184 H 1306.92 1.34841 -3.70421 0
M  V30 14185 H 1308.21 2.17229 -4.60097 0
M  V30 14186 H 1307.61 4.85878 -2.89723 0
M  V30 14187 H 1306.16 5.39171 -3.66249 0
M  V30 14188 N 1309.6 1.55164 0.276031 0
M  V30 14189 C 1310.53 1.84243 1.36335 0
M  V30 14190 C 1311.54 0.726745 1.45679 0
M  V30 14191 O 1312.73 1.00456 1.4755 0
M  V30 14192 C 1309.83 1.98768 2.7449 0
M  V30 14193 C 1309 3.294 2.87775 0
M  V30 14194 C 1308.06 3.34029 4.06585 0
M  V30 14195 O 1307.09 4.07423 3.97486 0
M  V30 14196 N 1308.29 2.61213 5.18409 0
M  V30 14197 H 1311.06 2.78092 1.11736 0
M  V30 14198 H 1308.62 1.55044 0.466143 0
M  V30 14199 H 1310.61 1.99238 3.52259 0
M  V30 14200 H 1309.18 1.11799 2.91924 0
M  V30 14201 H 1308.4 3.41494 1.96914 0
M  V30 14202 H 1309.69 4.15558 2.93579 0
M  V30 14203 H 1309.08 2.01261 5.28687 0
M  V30 14204 H 1307.64 2.67409 5.9442 0
M  V30 14205 N 1311.07 -0.540404 1.48045 0
M  V30 14206 C 1312.3 -1.32656 1.59427 0
M  V30 14207 C 1312.72 -1.86419 0.250924 0
M  V30 14208 O 1312.08 -1.63861 -0.775838 0
M  V30 14209 C 1312.13 -2.46062 2.63602 0
M  V30 14210 O 1311.23 -3.48794 2.20038 0
M  V30 14211 H 1310.58 -0.393334 0.534962 0
M  V30 14212 H 1313.11 -0.651363 1.93955 0
M  V30 14213 H 1313.12 -2.92396 2.84549 0
M  V30 14214 H 1311.79 -2.06291 3.61133 0
M  V30 14215 H 1310.37 -3.0865 2.0926 0
M  V30 14216 N 1312.55 -1.36459 -0.788468 0
M  V30 14217 C 1313.52 -1.3071 -1.88275 0
M  V30 14218 C 1314.52 -0.214596 -1.59362 0
M  V30 14219 O 1315.71 -0.469437 -1.67756 0
M  V30 14220 C 1312.84 -1.02648 -3.25079 0
M  V30 14221 H 1314.03 -2.28029 -1.94788 0
M  V30 14222 H 1311.58 -1.21245 -0.986375 0
M  V30 14223 H 1312.32 -0.0578992 -3.24248 0
M  V30 14224 H 1312.1 -1.81708 -3.47454 0
M  V30 14225 H 1313.59 -1.01233 -4.05144 0
M  V30 14226 N 1314.03 1.01274 -1.20754 0
M  V30 14227 C 1315.45 1.27256 -0.963221 0
M  V30 14228 C 1315.65 1.98349 0.354972 0
M  V30 14229 O 1314.7 2.28116 1.08255 0
M  V30 14230 C 1316.02 2.1038 -2.14851 0
M  V30 14231 C 1317.56 2.23633 -2.18991 0
M  V30 14232 C 1318.04 3.10136 -3.37016 0
M  V30 14233 N 1319.53 3.17724 -3.37054 0
M  V30 14234 C 1320.26 3.84891 -4.25025 0
M  V30 14235 N 1319.76 4.54152 -5.23181 0
M  V30 14236 N 1321.55 3.81454 -4.12855 0
M  V30 14237 H 1313.7 0.535534 -2.05538 0
M  V30 14238 H 1315.97 0.299006 -0.899611 0
M  V30 14239 H 1315.67 1.65484 -3.10335 0
M  V30 14240 H 1315.55 3.11122 -2.13267 0
M  V30 14241 H 1317.93 2.67753 -1.24067 0
M  V30 14242 H 1318.02 1.22387 -2.24622 0
M  V30 14243 H 1317.66 2.66721 -4.32229 0
M  V30 14244 H 1317.59 4.11478 -3.28623 0
M  V30 14245 H 1320.08 2.68412 -2.66014 0
M  V30 14246 H 1320.39 5.03084 -5.86623 0
M  V30 14247 H 1318.74 4.52964 -5.27113 0
M  V30 14248 H 1321.93 3.26494 -3.35439 0
M  V30 14249 H 1322.1 4.33523 -4.81624 0
M  V30 14250 N 1315.51 1.01404 1.20644 0
M  V30 14251 C 1316.42 0.591693 2.27016 0
M  V30 14252 C 1317.44 -0.36958 1.7003 0
M  V30 14253 O 1318.61 -0.231165 2.00069 0
M  V30 14254 C 1315.68 -0.0659827 3.46637 0
M  V30 14255 C 1314.74 0.940911 4.18862 0
M  V30 14256 C 1313.97 0.314526 5.32772 0
M  V30 14257 O 1314.19 -0.886404 5.63471 0
M  V30 14258 O 1313.13 1.02998 5.93022 0
M  V30 14259 H 1316.95 1.4772 2.65353 0
M  V30 14260 H 1314.54 0.783399 1.27213 0
M  V30 14261 H 1316.42 -0.433412 4.19165 0
M  V30 14262 H 1315.1 -0.925729 3.10181 0
M  V30 14263 H 1314 1.35966 3.48517 0
M  V30 14264 H 1315.34 1.77054 4.59252 0
M  V30 14265 N 1316.99 -1.36373 0.789944 0
M  V30 14266 C 1318.23 -1.99523 0.363119 0
M  V30 14267 C 1318.57 -1.6255 -1.0626 0
M  V30 14268 O 1317.84 -0.880551 -1.73426 0
M  V30 14269 C 1318.12 -3.56215 0.527526 0
M  V30 14270 C 1317.98 -4.0304 1.99697 0
M  V30 14271 C 1319.3 -4.40063 -0.0571079 0
M  V30 14272 H 1316.42 -0.724824 0.133412 0
M  V30 14273 H 1319.06 -1.61778 0.996381 0
M  V30 14274 H 1317.21 -3.88498 -0.0115636 0
M  V30 14275 H 1318.88 -3.81241 2.59717 0
M  V30 14276 H 1317.12 -3.54561 2.49939 0
M  V30 14277 H 1317.79 -5.12001 2.06297 0
M  V30 14278 H 1320.27 -4.14143 0.403082 0
M  V30 14279 H 1319.15 -5.4883 0.0879494 0
M  V30 14280 H 1319.41 -4.26901 -1.14926 0
M  V30 14281 N 1318.47 -0.542005 -1.47987 0
M  V30 14282 C 1319.71 -0.0122873 -2.02096 0
M  V30 14283 C 1320.03 1.3362 -1.42024 0
M  V30 14284 O 1319.3 1.86807 -0.589911 0
M  V30 14285 H 1317.88 -0.00155365 -0.746998 0
M  V30 14286 H 1320.55 -0.708566 -1.81564 0
M  V30 14287 H 1319.64 0.0871275 -3.11978 0
M  V30 14288 N 1319.94 1.55134 -0.277709 0
M  V30 14289 C 1320.85 2.26296 0.618658 0
M  V30 14290 C 1321.87 1.28978 1.16794 0
M  V30 14291 O 1323.05 1.61918 1.19768 0
M  V30 14292 C 1320.11 2.97214 1.78508 0
M  V30 14293 C 1319.17 4.10016 1.27221 0
M  V30 14294 C 1318.4 4.77543 2.38304 0
M  V30 14295 O 1318.63 4.44293 3.57715 0
M  V30 14296 O 1317.56 5.65437 2.06313 0
M  V30 14297 H 1321.39 3.03671 0.0421031 0
M  V30 14298 H 1318.97 1.49332 -0.0450166 0
M  V30 14299 H 1320.85 3.41773 2.46513 0
M  V30 14300 H 1319.53 2.22753 2.34867 0
M  V30 14301 H 1318.44 3.69907 0.558544 0
M  V30 14302 H 1319.77 4.86385 0.754333 0
M  V30 14303 N 1321.42 0.00503138 1.57599 0
M  V30 14304 C 1322.35 -0.983586 2.11773 0
M  V30 14305 C 1323.33 -1.35518 1.02805 0
M  V30 14306 O 1324.52 -1.43804 1.30514 0
M  V30 14307 C 1321.65 -2.27383 2.62515 0
M  V30 14308 C 1320.6 -2.0437 3.76054 0
M  V30 14309 C 1319.93 -3.39451 4.1313 0
M  V30 14310 C 1321.23 -1.40223 5.03125 0
M  V30 14311 H 1322.92 -0.532501 2.94627 0
M  V30 14312 H 1320.47 -0.254696 1.4173 0
M  V30 14313 H 1322.42 -2.96903 2.99043 0
M  V30 14314 H 1321.14 -2.74614 1.7679 0
M  V30 14315 H 1319.8 -1.37275 3.39928 0
M  V30 14316 H 1319.45 -3.84395 3.24422 0
M  V30 14317 H 1319.15 -3.24868 4.89627 0
M  V30 14318 H 1320.68 -4.10279 4.52221 0
M  V30 14319 H 1322.09 -1.99708 5.37392 0
M  V30 14320 H 1320.49 -1.36112 5.8446 0
M  V30 14321 H 1321.56 -0.372073 4.8347 0
M  V30 14322 N 1322.9 -1.55308 -0.267798 0
M  V30 14323 C 1323.83 -1.84963 -1.35356 0
M  V30 14324 C 1324.84 -0.73446 -1.45291 0
M  V30 14325 O 1326.03 -1.01237 -1.47015 0
M  V30 14326 C 1323.13 -2.00221 -2.73432 0
M  V30 14327 C 1322.31 -3.30922 -2.86024 0
M  V30 14328 C 1321.37 -3.3618 -4.04808 0
M  V30 14329 O 1320.39 -4.09525 -3.9532 0
M  V30 14330 N 1321.59 -2.63958 -5.17017 0
M  V30 14331 H 1324.36 -2.7868 -1.1026 0
M  V30 14332 H 1321.92 -1.55289 -0.457914 0
M  V30 14333 H 1323.91 -2.01103 -3.51197 0
M  V30 14334 H 1322.48 -1.13346 -2.91327 0
M  V30 14335 H 1321.7 -3.42534 -1.951 0
M  V30 14336 H 1322.99 -4.17109 -2.91371 0
M  V30 14337 H 1322.39 -2.04062 -5.27613 0
M  V30 14338 H 1320.94 -2.70558 -5.92994 0
M  V30 14339 N 1324.38 0.532545 -1.4833 0
M  V30 14340 C 1325.63 1.28597 -1.55908 0
M  V30 14341 C 1325.95 1.93595 -0.233635 0
M  V30 14342 O 1325.22 1.81197 0.744605 0
M  V30 14343 H 1323.8 0.477619 -0.57436 0
M  V30 14344 H 1326.46 0.619922 -1.84778 0
M  V30 14345 H 1325.55 2.0666 -2.33877 0
M  V30 14346 N 1325.86 1.36875 0.78122 0
M  V30 14347 C 1327.27 1.17467 1.08044 0
M  V30 14348 C 1327.47 0.00434799 2.015 0
M  V30 14349 O 1326.53 -0.658499 2.43762 0
M  V30 14350 C 1327.84 2.48917 1.68704 0
M  V30 14351 C 1329.39 2.55354 1.81007 0
M  V30 14352 C 1329.86 3.8691 2.45081 0
M  V30 14353 N 1331.35 3.88301 2.52541 0
M  V30 14354 C 1332.09 4.86837 3.02947 0
M  V30 14355 N 1331.59 5.95768 3.53598 0
M  V30 14356 N 1333.38 4.74249 3.01735 0
M  V30 14357 H 1325.53 2.11793 0.160503 0
M  V30 14358 H 1327.79 0.938507 0.133825 0
M  V30 14359 H 1327.5 3.34867 1.07503 0
M  V30 14360 H 1327.37 2.65319 2.68115 0
M  V30 14361 H 1329.76 1.69816 2.41343 0
M  V30 14362 H 1329.84 2.42843 0.803783 0
M  V30 14363 H 1329.48 4.72858 1.85386 0
M  V30 14364 H 1329.41 3.9672 3.46296 0
M  V30 14365 H 1331.91 3.09607 2.16684 0
M  V30 14366 H 1332.22 6.66918 3.90435 0
M  V30 14367 H 1330.56 5.99426 3.51728 0
M  V30 14368 H 1333.75 3.88275 2.61458 0
M  V30 14369 H 1333.93 5.512 3.40709 0
M  V30 14370 N 1327.33 -1.00632 1.21289 0
M  V30 14371 C 1328.58 -1.74647 1.03084 0
M  V30 14372 C 1328.91 -1.89271 -0.43476 0
M  V30 14373 O 1328.19 -1.42607 -1.32263 0
M  V30 14374 C 1328.47 -3.15981 1.72709 0
M  V30 14375 C 1328.32 -3.09088 3.2678 0
M  V30 14376 C 1329.64 -4.14875 1.46857 0
M  V30 14377 H 1326.76 -0.633938 0.375889 0
M  V30 14378 H 1329.4 -1.17328 1.49446 0
M  V30 14379 H 1327.55 -3.64918 1.33294 0
M  V30 14380 H 1329.23 -2.67875 3.75554 0
M  V30 14381 H 1327.47 -2.46223 3.57151 0
M  V30 14382 H 1328.14 -4.09041 3.70661 0
M  V30 14383 H 1330.62 -3.74637 1.81069 0
M  V30 14384 H 1329.49 -5.1191 1.98088 0
M  V30 14385 H 1329.75 -4.40302 0.398296 0
M  V30 14386 N 1328.81 -1.02043 -1.20104 0
M  V30 14387 C 1329.77 -0.598682 -2.21243 0
M  V30 14388 C 1330.77 0.333205 -1.5731 0
M  V30 14389 O 1331.96 0.12137 -1.73777 0
M  V30 14390 C 1329.1 0.125183 -3.4067 0
M  V30 14391 H 1330.29 -1.49345 -2.60069 0
M  V30 14392 H 1327.84 -0.810649 -1.33634 0
M  V30 14393 H 1328.58 1.03469 -3.07351 0
M  V30 14394 H 1328.36 -0.544316 -3.88304 0
M  V30 14395 H 1329.85 0.407469 -4.15607 0
M  V30 14396 N 1330.29 1.35952 -0.797165 0
M  V30 14397 C 1331.22 2.28649 -0.15877 0
M  V30 14398 C 1332.24 1.49842 0.636481 0
M  V30 14399 O 1333.42 1.72191 0.47039 0
M  V30 14400 C 1330.52 3.29373 0.797913 0
M  V30 14401 C 1329.7 4.3737 0.0510574 0
M  V30 14402 C 1328.76 5.18009 0.924826 0
M  V30 14403 O 1327.78 5.67935 0.379223 0
M  V30 14404 N 1328.98 5.352 2.24813 0
M  V30 14405 H 1331.75 2.84075 -0.955056 0
M  V30 14406 H 1329.31 1.48201 -0.651767 0
M  V30 14407 H 1331.3 3.80209 1.38646 0
M  V30 14408 H 1329.87 2.74531 1.49504 0
M  V30 14409 H 1329.09 3.87594 -0.718633 0
M  V30 14410 H 1330.38 5.0668 -0.464025 0
M  V30 14411 H 1329.78 4.96266 2.71545 0
M  V30 14412 H 1328.34 5.89252 2.78614 0
M  V30 14413 N 1331.77 0.549846 1.47697 0
M  V30 14414 C 1332.7 -0.190364 2.32723 0
M  V30 14415 C 1333.68 -0.915933 1.43334 0
M  V30 14416 O 1334.86 -0.897838 1.72199 0
M  V30 14417 C 1331.99 -1.22545 3.24961 0
M  V30 14418 C 1330.95 -0.616805 4.23532 0
M  V30 14419 C 1330.27 -1.75599 5.05044 0
M  V30 14420 C 1331.57 0.424595 5.20571 0
M  V30 14421 H 1333.27 0.519461 2.94859 0
M  V30 14422 H 1330.81 0.251259 1.41791 0
M  V30 14423 H 1332.77 -1.75139 3.83281 0
M  V30 14424 H 1331.49 -1.96512 2.60865 0
M  V30 14425 H 1330.15 -0.112224 3.66428 0
M  V30 14426 H 1329.8 -2.48453 4.37356 0
M  V30 14427 H 1329.5 -1.35456 5.71774 0
M  V30 14428 H 1331.02 -2.28533 5.6622 0
M  V30 14429 H 1332.44 -0.0150025 5.73298 0
M  V30 14430 H 1330.83 0.7445 5.95464 0
M  V30 14431 H 1331.9 1.32318 4.66497 0
M  V30 14432 N 1333.25 -1.54984 0.285932 0
M  V30 14433 C 1334.16 -2.26621 -0.606648 0
M  V30 14434 C 1335.17 -1.29595 -1.16108 0
M  V30 14435 O 1336.35 -1.62551 -1.18908 0
M  V30 14436 C 1333.41 -2.98156 -1.76929 0
M  V30 14437 C 1332.47 -4.10685 -1.25045 0
M  V30 14438 C 1331.71 -4.788 -2.35768 0
M  V30 14439 O 1331.93 -4.46183 -3.55354 0
M  V30 14440 O 1330.86 -5.66523 -2.03312 0
M  V30 14441 H 1334.69 -3.03689 -0.0259981 0
M  V30 14442 H 1332.28 -1.49306 0.0529355 0
M  V30 14443 H 1334.16 -3.43076 -2.44697 0
M  V30 14444 H 1332.83 -2.23996 -2.33683 0
M  V30 14445 H 1331.74 -3.70198 -0.538919 0
M  V30 14446 H 1333.07 -4.86778 -0.728528 0
M  V30 14447 N 1334.72 -0.0133892 -1.57594 0
M  V30 14448 C 1335.63 0.989701 -2.12702 0
M  V30 14449 C 1336.65 1.36785 -1.07545 0
M  V30 14450 O 1337.83 1.45246 -1.39519 0
M  V30 14451 C 1334.89 2.2586 -2.63036 0
M  V30 14452 C 1333.95 1.94234 -3.82847 0
M  V30 14453 C 1333.19 3.15075 -4.30771 0
M  V30 14454 O 1333.41 4.27212 -3.7795 0
M  V30 14455 O 1332.34 2.98291 -5.22787 0
M  V30 14456 H 1336.17 0.551194 -2.98656 0
M  V30 14457 H 1333.75 0.206264 -1.47969 0
M  V30 14458 H 1335.64 3.0038 -2.9555 0
M  V30 14459 H 1334.31 2.68923 -1.80173 0
M  V30 14460 H 1333.22 1.17148 -3.55285 0
M  V30 14461 H 1334.55 1.55999 -4.66824 0
M  V30 14462 N 1336.2 1.55448 0.259558 0
M  V30 14463 C 1337.11 1.92364 1.34289 0
M  V30 14464 C 1338.13 0.822492 1.53333 0
M  V30 14465 O 1339.3 1.12277 1.672 0
M  V30 14466 C 1336.37 2.19978 2.67975 0
M  V30 14467 C 1335.43 3.43454 2.57562 0
M  V30 14468 C 1334.66 3.69741 3.84873 0
M  V30 14469 O 1334.89 2.9831 4.86176 0
M  V30 14470 O 1333.82 4.63274 3.84267 0
M  V30 14471 H 1337.65 2.8461 1.05975 0
M  V30 14472 H 1335.23 1.42167 0.459239 0
M  V30 14473 H 1337.11 2.39104 3.46998 0
M  V30 14474 H 1335.79 1.30912 2.96047 0
M  V30 14475 H 1334.7 3.29649 1.76869 0
M  V30 14476 H 1336.03 4.32782 2.34437 0
M  V30 14477 N 1337.68 -0.524672 1.4861 0
M  V30 14478 C 1339.1 -0.853703 1.34848 0
M  V30 14479 C 1339.3 -1.98194 0.363529 0
M  V30 14480 O 1338.35 -2.51597 -0.213348 0
M  V30 14481 C 1339.67 -1.21622 2.75006 0
M  V30 14482 C 1341.21 -1.3258 2.83534 0
M  V30 14483 C 1341.69 -1.72172 4.24406 0
M  V30 14484 N 1343.18 -1.79265 4.27105 0
M  V30 14485 C 1343.91 -2.11296 5.33049 0
M  V30 14486 N 1343.41 -2.41714 6.49266 0
M  V30 14487 N 1345.2 -2.12347 5.20447 0
M  V30 14488 H 1337.35 0.219671 2.11261 0
M  V30 14489 H 1339.62 0.0356444 0.94733 0
M  V30 14490 H 1339.32 -0.460776 3.48669 0
M  V30 14491 H 1339.2 -2.16516 3.0887 0
M  V30 14492 H 1341.58 -2.072 2.10124 0
M  V30 14493 H 1341.67 -0.357943 2.53283 0
M  V30 14494 H 1341.31 -0.981108 4.98334 0
M  V30 14495 H 1341.24 -2.70017 4.52104 0
M  V30 14496 H 1343.73 -1.58013 3.43279 0
M  V30 14497 H 1344.04 -2.65276 7.25843 0
M  V30 14498 H 1342.39 -2.39222 6.52532 0
M  V30 14499 H 1345.58 -1.88044 4.28669 0
M  V30 14500 H 1345.75 -2.36978 6.03113 0
M  V30 14501 N 1339.16 -1.37287 -0.77395 0
M  V30 14502 C 1340.12 -1.32699 -1.86878 0
M  V30 14503 C 1341.12 -0.231486 -1.59125 0
M  V30 14504 O 1342.31 -0.487203 -1.67248 0
M  V30 14505 C 1339.44 -1.0609 -3.23972 0
M  V30 14506 H 1340.64 -2.30083 -1.92359 0
M  V30 14507 H 1338.19 -1.22284 -0.973459 0
M  V30 14508 H 1338.92 -0.0922868 -3.24169 0
M  V30 14509 H 1338.71 -1.85383 -3.45508 0
M  V30 14510 H 1340.2 -1.05524 -4.04048 0
M  V30 14511 N 1340.64 0.999871 -1.21821 0
M  V30 14512 C 1342.05 1.26228 -0.976664 0
M  V30 14513 C 1342.25 1.98714 0.333915 0
M  V30 14514 O 1341.31 2.29252 1.05829 0
M  V30 14515 C 1342.62 2.08089 -2.1707 0
M  V30 14516 C 1344.17 2.21298 -2.21351 0
M  V30 14517 C 1344.64 3.06544 -3.40287 0
M  V30 14518 N 1346.14 3.14131 -3.40405 0
M  V30 14519 C 1346.87 3.80362 -4.29083 0
M  V30 14520 N 1346.37 4.48577 -5.27968 0
M  V30 14521 N 1348.16 3.77053 -4.16878 0
M  V30 14522 H 1340.31 0.513704 -2.06094 0
M  V30 14523 H 1342.57 0.289447 -0.902732 0
M  V30 14524 H 1342.28 1.62183 -3.12073 0
M  V30 14525 H 1342.15 3.08843 -2.16554 0
M  V30 14526 H 1344.54 2.66422 -1.269 0
M  V30 14527 H 1344.62 1.19997 -2.25908 0
M  V30 14528 H 1344.27 2.62122 -4.35034 0
M  V30 14529 H 1344.2 4.0797 -3.32969 0
M  V30 14530 H 1346.69 2.65576 -2.68846 0
M  V30 14531 H 1347 4.96833 -5.91926 0
M  V30 14532 H 1345.34 4.47348 -5.31888 0
M  V30 14533 H 1348.54 3.22918 -3.38883 0
M  V30 14534 H 1348.71 4.2839 -4.86195 0
M  V30 14535 N 1342.11 1.02678 1.19562 0
M  V30 14536 C 1343.04 0.626359 2.24942 0
M  V30 14537 C 1344.03 -0.363612 1.66168 0
M  V30 14538 O 1345.21 -0.246793 1.92625 0
M  V30 14539 C 1342.34 -0.0257912 3.4729 0
M  V30 14540 C 1341.29 0.886237 4.18724 0
M  V30 14541 C 1340.62 0.0993081 5.34608 0
M  V30 14542 C 1341.92 2.19901 4.73752 0
M  V30 14543 H 1343.61 1.50729 2.58691 0
M  V30 14544 H 1341.16 0.726195 1.24348 0
M  V30 14545 H 1343.11 -0.317545 4.20202 0
M  V30 14546 H 1341.84 -0.941511 3.12735 0
M  V30 14547 H 1340.5 1.16215 3.47692 0
M  V30 14548 H 1340.14 -0.81838 4.96298 0
M  V30 14549 H 1339.84 0.706776 5.83334 0
M  V30 14550 H 1341.37 -0.185754 6.10317 0
M  V30 14551 H 1342.78 1.96892 5.3843 0
M  V30 14552 H 1341.18 2.75821 5.32956 0
M  V30 14553 H 1342.25 2.85509 3.91934 0
M  V30 14554 N 1343.59 -1.35528 0.804364 0
M  V30 14555 C 1344.56 -2.28153 0.21885 0
M  V30 14556 C 1345.56 -1.49486 -0.592511 0
M  V30 14557 O 1346.75 -1.69274 -0.411319 0
M  V30 14558 C 1343.88 -3.33736 -0.695195 0
M  V30 14559 H 1345.07 -2.81446 1.03576 0
M  V30 14560 H 1342.62 -1.45345 0.574854 0
M  V30 14561 H 1343.36 -2.85625 -1.53587 0
M  V30 14562 H 1343.14 -3.91931 -0.115143 0
M  V30 14563 H 1344.63 -4.02872 -1.09925 0
M  V30 14564 N 1345.07 -0.557671 -1.47404 0
M  V30 14565 C 1345.98 0.19289 -2.33806 0
M  V30 14566 C 1347 0.911424 -1.4822 0
M  V30 14567 O 1348.17 0.880214 -1.81147 0
M  V30 14568 C 1345.24 1.20937 -3.24923 0
M  V30 14569 C 1344.3 0.498209 -4.26399 0
M  V30 14570 C 1343.53 1.46626 -5.13163 0
M  V30 14571 O 1343.76 2.70111 -5.0239 0
M  V30 14572 O 1342.69 0.990497 -5.93694 0
M  V30 14573 H 1346.52 -0.515861 -2.99287 0
M  V30 14574 H 1344.1 -0.318283 -1.4597 0
M  V30 14575 H 1345.98 1.7961 -3.81206 0
M  V30 14576 H 1344.66 1.90003 -2.6207 0
M  V30 14577 H 1343.56 -0.129736 -3.73875 0
M  V30 14578 H 1344.9 -0.151015 -4.91968 0
M  V30 14579 N 1346.55 1.54831 -0.294147 0
M  V30 14580 C 1347.48 2.20696 0.61854 0
M  V30 14581 C 1348.49 1.19754 1.10285 0
M  V30 14582 O 1349.68 1.46383 1.02148 0
M  V30 14583 C 1346.78 2.83429 1.85798 0
M  V30 14584 C 1345.96 4.10239 1.51731 0
M  V30 14585 C 1345.02 4.56841 2.61119 0
M  V30 14586 O 1344.04 5.22194 2.26501 0
M  V30 14587 N 1345.24 4.2858 3.91534 0
M  V30 14588 H 1348.01 2.9965 0.054714 0
M  V30 14589 H 1345.57 1.61484 -0.116052 0
M  V30 14590 H 1347.56 3.11541 2.5831 0
M  V30 14591 H 1346.13 2.08356 2.33038 0
M  V30 14592 H 1345.35 3.89212 0.625142 0
M  V30 14593 H 1346.64 4.92824 1.26499 0
M  V30 14594 H 1346.04 3.7621 4.22472 0
M  V30 14595 H 1344.59 4.61418 4.60366 0
M  V30 14596 N 1348.03 0.0217466 1.57585 0
M  V30 14597 C 1348.96 -0.961069 2.12804 0
M  V30 14598 C 1349.94 -1.3442 1.04237 0
M  V30 14599 O 1351.12 -1.42412 1.32032 0
M  V30 14600 C 1348.25 -2.24586 2.64912 0
M  V30 14601 C 1347.21 -2.0037 3.78201 0
M  V30 14602 C 1346.53 -3.35051 4.16708 0
M  V30 14603 C 1347.83 -1.34879 5.04584 0
M  V30 14604 H 1349.53 -0.501222 2.95175 0
M  V30 14605 H 1347.07 -0.239649 1.41992 0
M  V30 14606 H 1349.03 -2.93715 3.02175 0
M  V30 14607 H 1347.75 -2.72723 1.79693 0
M  V30 14608 H 1346.41 -1.33662 3.41365 0
M  V30 14609 H 1346.06 -3.80932 3.28481 0
M  V30 14610 H 1345.76 -3.19656 4.93045 0
M  V30 14611 H 1347.28 -4.05459 4.56547 0
M  V30 14612 H 1348.7 -1.93997 5.3948 0
M  V30 14613 H 1347.09 -1.29906 5.85871 0
M  V30 14614 H 1348.16 -0.320774 4.83838 0
M  V30 14615 N 1349.51 -1.55583 -0.251311 0
M  V30 14616 C 1350.92 -1.47908 -0.599606 0
M  V30 14617 C 1351.12 -0.711061 -1.88537 0
M  V30 14618 O 1350.18 -0.238639 -2.5137 0
M  V30 14619 C 1351.49 -2.92284 -0.706429 0
M  V30 14620 C 1353.04 -3.02629 -0.799049 0
M  V30 14621 C 1353.51 -4.48303 -0.93747 0
M  V30 14622 N 1355 -4.52222 -1.00245 0
M  V30 14623 C 1355.74 -5.62181 -1.12874 0
M  V30 14624 N 1355.24 -6.81958 -1.22085 0
M  V30 14625 N 1357.03 -5.49968 -1.16155 0
M  V30 14626 H 1349.18 -2.0396 0.592806 0
M  V30 14627 H 1351.44 -0.925797 0.203971 0
M  V30 14628 H 1351.15 -3.51297 0.168243 0
M  V30 14629 H 1351.02 -3.42524 -1.57979 0
M  V30 14630 H 1353.41 -2.43699 -1.66418 0
M  V30 14631 H 1353.49 -2.55607 0.099367 0
M  V30 14632 H 1353.13 -5.07842 -0.0769166 0
M  V30 14633 H 1353.06 -4.93002 -1.85086 0
M  V30 14634 H 1355.56 -3.65951 -0.94279 0
M  V30 14635 H 1355.87 -7.6151 -1.31616 0
M  V30 14636 H 1354.21 -6.84728 -1.1905 0
M  V30 14637 H 1357.4 -4.55327 -1.08604 0
M  V30 14638 H 1357.58 -6.35701 -1.25653 0
M  V30 14639 N 1350.98 0.516783 -1.48886 0
M  V30 14640 C 1351.95 1.60226 -1.63891 0
M  V30 14641 C 1352.95 1.52448 -0.511479 0
M  V30 14642 O 1354.14 1.55882 -0.777582 0
M  V30 14643 C 1351.27 2.99867 -1.62151 0
M  V30 14644 H 1352.46 1.48256 -2.60692 0
M  V30 14645 H 1350.01 0.739844 -1.37681 0
M  V30 14646 H 1350.75 3.1733 -0.668764 0
M  V30 14647 H 1350.53 3.0692 -2.44013 0
M  V30 14648 H 1352.02 3.7876 -1.7587 0
M  V30 14649 N 1352.46 1.37696 0.766659 0
M  V30 14650 C 1353.37 1.36075 1.91104 0
M  V30 14651 C 1354.39 0.259617 1.72052 0
M  V30 14652 O 1355.56 0.49586 1.952 0
M  V30 14653 C 1352.63 1.17176 3.26298 0
M  V30 14654 C 1351.69 2.36975 3.57968 0
M  V30 14655 C 1350.92 2.18968 4.86712 0
M  V30 14656 O 1351.15 1.17658 5.58133 0
M  V30 14657 O 1350.08 3.07269 5.17561 0
M  V30 14658 H 1353.91 2.32472 1.95424 0
M  V30 14659 H 1351.49 1.18478 0.910122 0
M  V30 14660 H 1353.37 1.08645 4.07154 0
M  V30 14661 H 1352.05 0.238559 3.2282 0
M  V30 14662 H 1350.95 2.51079 2.77327 0
M  V30 14663 H 1352.29 3.2888 3.66195 0
M  V30 14664 N 1353.94 -0.993397 1.22349 0
M  V30 14665 C 1354.9 -2.065 0.994506 0
M  V30 14666 C 1355.9 -1.60753 -0.0388766 0
M  V30 14667 O 1357.09 -1.73053 0.199578 0
M  V30 14668 C 1354.22 -3.37182 0.502088 0
M  V30 14669 H 1355.42 -2.28248 1.94533 0
M  V30 14670 H 1352.97 -1.16489 1.04211 0
M  V30 14671 H 1353.71 -3.21119 -0.453114 0
M  V30 14672 H 1353.49 -3.71721 1.24763 0
M  V30 14673 H 1354.98 -4.16027 0.362108 0
M  V30 14674 N 1355.42 -1.03311 -1.19015 0
M  V30 14675 C 1356.33 -0.627735 -2.26046 0
M  V30 14676 C 1357.34 0.342483 -1.70596 0
M  V30 14677 O 1358.52 0.199307 -2.00411 0
M  V30 14678 C 1355.58 0.0108274 -3.46698 0
M  V30 14679 C 1354.65 -1.00743 -4.17312 0
M  V30 14680 C 1353.88 -0.399245 -5.32205 0
M  V30 14681 O 1354.1 0.796649 -5.64809 0
M  V30 14682 O 1353.04 -1.12419 -5.91308 0
M  V30 14683 H 1356.86 -1.51923 -2.6297 0
M  V30 14684 H 1354.45 -0.803538 -1.25951 0
M  V30 14685 H 1356.33 0.366672 -4.19802 0
M  V30 14686 H 1355 0.876265 -3.11614 0
M  V30 14687 H 1353.91 -1.41494 -3.4631 0
M  V30 14688 H 1355.24 -1.84338 -4.56377 0
M  V30 14689 N 1356.9 1.35099 -0.81154 0
M  V30 14690 C 1357.83 2.32264 -0.239925 0
M  V30 14691 C 1358.81 1.57708 0.637354 0
M  V30 14692 O 1359.99 1.85751 0.566598 0
M  V30 14693 C 1357.12 3.41931 0.608325 0
M  V30 14694 C 1356.08 4.27659 -0.170869 0
M  V30 14695 C 1355.4 5.28691 0.799398 0
M  V30 14696 C 1356.7 5.0394 -1.37266 0
M  V30 14697 H 1358.4 2.8032 -1.05172 0
M  V30 14698 H 1355.94 1.34773 -0.507185 0
M  V30 14699 H 1357.89 4.08911 1.01832 0
M  V30 14700 H 1356.62 2.92496 1.45306 0
M  V30 14701 H 1355.28 3.62265 -0.562094 0
M  V30 14702 H 1354.93 4.75521 1.63977 0
M  V30 14703 H 1354.63 5.86921 0.282331 0
M  V30 14704 H 1356.15 5.98542 1.20749 0
M  V30 14705 H 1357.56 5.63838 -1.03728 0
M  V30 14706 H 1355.96 5.7169 -1.82456 0
M  V30 14707 H 1357.03 4.34295 -2.15676 0
M  V30 14708 N 1358.37 0.56548 1.47106 0
M  V30 14709 C 1359.61 0.0469867 2.04346 0
M  V30 14710 C 1359.98 -1.28183 1.42944 0
M  V30 14711 O 1361.18 -1.88852 1.91281 0
M  V30 14712 C 1359.45 -0.0357764 3.57382 0
M  V30 14713 S 1361.01 -0.499194 4.35951 0
M  V30 14714 H 1357.83 0.0291355 0.710403 0
M  V30 14715 H 1360.43 0.754085 1.80371 0
M  V30 14716 H 1359.13 0.935578 3.99594 0
M  V30 14717 H 1358.66 -0.766177 3.85867 0
M  V30 14718 H 1360.68 -1.75732 4.6404 0
M  V30 14719 N 1359.85 -1.54672 0.302354 0
M  V30 14720 C 1360.82 -2.22246 -0.560283 0
M  V30 14721 C 1361.82 -1.20895 -1.06023 0
M  V30 14722 O 1363.01 -1.45621 -0.956047 0
M  V30 14723 C 1360.14 -2.9099 -1.77589 0
M  V30 14724 H 1361.33 -2.99885 0.0301274 0
M  V30 14725 H 1358.88 -1.56209 0.0532036 0
M  V30 14726 H 1359.62 -2.17433 -2.4061 0
M  V30 14727 H 1359.4 -3.65288 -1.42503 0
M  V30 14728 H 1360.89 -3.42535 -2.38871 0
M  V30 14729 N 1361.33 -0.0301034 -1.57571 0
M  V30 14730 C 1362.24 0.967086 -2.1374 0
M  V30 14731 C 1363.26 1.35636 -1.0899 0
M  V30 14732 O 1364.43 1.43758 -1.41052 0
M  V30 14733 C 1361.5 2.23058 -2.65417 0
M  V30 14734 C 1360.56 1.90163 -3.84885 0
M  V30 14735 C 1359.79 3.10488 -4.34088 0
M  V30 14736 O 1360.01 4.23179 -3.8246 0
M  V30 14737 O 1358.95 2.92729 -5.25921 0
M  V30 14738 H 1362.77 0.519486 -2.99224 0
M  V30 14739 H 1360.36 0.190559 -1.4818 0
M  V30 14740 H 1362.24 2.97229 -2.98719 0
M  V30 14741 H 1360.92 2.66997 -1.83015 0
M  V30 14742 H 1359.82 1.13373 -3.56507 0
M  V30 14743 H 1361.16 1.51039 -4.68453 0
M  V30 14744 N 1362.81 1.55714 0.243056 0
M  V30 14745 C 1363.77 1.89832 1.28438 0
M  V30 14746 C 1364.77 0.775083 1.40887 0
M  V30 14747 O 1365.96 1.04304 1.39521 0
M  V30 14748 C 1363.09 2.13016 2.66153 0
M  V30 14749 H 1364.29 2.82947 0.994022 0
M  V30 14750 H 1361.84 1.48665 0.482521 0
M  V30 14751 H 1362.57 1.22381 3.00322 0
M  V30 14752 H 1362.36 2.94824 2.58498 0
M  V30 14753 H 1363.85 2.40581 3.41336 0
M  V30 14754 N 1364.29 -0.50888 1.49158 0
M  V30 14755 C 1365.2 -1.63782 1.67966 0
M  V30 14756 C 1366.21 -1.64667 0.562207 0
M  V30 14757 O 1367.39 -1.83232 0.835935 0
M  V30 14758 C 1364.45 -3.00179 1.73474 0
M  V30 14759 C 1363.51 -3.09983 2.97 0
M  V30 14760 C 1362.75 -4.39875 3.02235 0
M  V30 14761 O 1362.97 -5.28214 2.15282 0
M  V30 14762 O 1361.9 -4.54486 3.94621 0
M  V30 14763 H 1365.73 -1.50846 2.63589 0
M  V30 14764 H 1363.32 -0.684306 1.32807 0
M  V30 14765 H 1365.2 -3.8126 1.79495 0
M  V30 14766 H 1363.87 -3.13394 0.810287 0
M  V30 14767 H 1362.78 -2.28119 2.965 0
M  V30 14768 H 1364.11 -3.01693 3.88899 0
M  V30 14769 N 1365.76 -1.381 -0.759346 0
M  V30 14770 C 1366.67 -1.37086 -1.9038 0
M  V30 14771 C 1367.69 -0.268738 -1.71912 0
M  V30 14772 O 1368.87 -0.506205 -1.94935 0
M  V30 14773 C 1365.93 -1.18905 -3.25672 0
M  V30 14774 C 1364.99 -2.3887 -3.56707 0
M  V30 14775 C 1364.23 -2.21546 -4.85544 0
M  V30 14776 O 1364.45 -1.20616 -5.57501 0
M  V30 14777 O 1363.38 -3.10009 -5.15924 0
M  V30 14778 H 1367.21 -2.33505 -1.94188 0
M  V30 14779 H 1364.79 -1.18959 -0.903826 0
M  V30 14780 H 1366.68 -1.10803 -4.06572 0
M  V30 14781 H 1365.35 -0.255675 -3.22689 0
M  V30 14782 H 1364.26 -2.52546 -2.75992 0
M  V30 14783 H 1365.59 -3.30817 -3.64446 0
M  V30 14784 N 1367.24 0.986894 -1.22875 0
M  V30 14785 C 1368.47 1.76266 -1.08342 0
M  V30 14786 C 1368.89 1.85226 0.365602 0
M  V30 14787 O 1368.24 1.32675 1.25314 0
M  V30 14788 C 1368.29 3.19282 -1.69533 0
M  V30 14789 O 1368.01 3.10796 -3.08768 0
M  V30 14790 C 1369.52 4.13281 -1.60355 0
M  V30 14791 H 1366.74 0.553374 -0.379497 0
M  V30 14792 H 1369.28 1.24033 -1.62592 0
M  V30 14793 H 1367.43 3.68563 -1.19332 0
M  V30 14794 H 1367.85 4.0078 -3.38343 0
M  V30 14795 H 1369.32 5.11359 -2.07884 0
M  V30 14796 H 1369.8 4.356 -0.561182 0
M  V30 14797 H 1370.41 3.699 -2.09891 0
M  V30 14798 N 1368.72 1.0394 1.18466 0
M  V30 14799 C 1370.14 0.758404 1.40429 0
M  V30 14800 C 1370.34 -0.652603 1.90639 0
M  V30 14801 O 1369.39 -1.417 2.08991 0
M  V30 14802 C 1370.71 1.80343 2.40618 0
M  V30 14803 C 1372.25 1.82419 2.54347 0
M  V30 14804 C 1372.73 2.8591 3.57798 0
M  V30 14805 N 1374.22 2.84793 3.65304 0
M  V30 14806 C 1374.95 3.61521 4.45073 0
M  V30 14807 N 1374.45 4.47997 5.28461 0
M  V30 14808 N 1376.24 3.50016 4.39824 0
M  V30 14809 H 1368.39 1.94998 0.842 0
M  V30 14810 H 1370.66 0.843649 0.43239 0
M  V30 14811 H 1370.36 2.81547 2.10771 0
M  V30 14812 H 1370.24 1.63451 3.39947 0
M  V30 14813 H 1372.62 0.818872 2.83511 0
M  V30 14814 H 1372.71 2.03388 1.55136 0
M  V30 14815 H 1372.35 3.8662 3.29375 0
M  V30 14816 H 1372.28 2.62196 4.56684 0
M  V30 14817 H 1374.77 2.22082 3.05758 0
M  V30 14818 H 1375.08 5.03257 5.86475 0
M  V30 14819 H 1373.43 4.52065 5.27885 0
M  V30 14820 H 1376.62 2.81862 3.73726 0
M  V30 14821 H 1376.79 4.10063 5.0175 0
M  V30 14822 N 1370.2 -1.34667 0.818693 0
M  V30 14823 C 1371.45 -1.98022 0.40396 0
M  V30 14824 C 1371.77 -1.65239 -1.03542 0
M  V30 14825 O 1371.04 -0.94097 -1.71821 0
M  V30 14826 H 1369.62 -0.732517 0.146382 0
M  V30 14827 H 1372.28 -1.64377 1.0472 0
M  V30 14828 H 1371.38 -3.07746 0.519516 0
M  V30 14829 N 1371.68 -0.573274 -1.46804 0
M  V30 14830 C 1373.09 -0.23423 -1.57872 0
M  V30 14831 C 1373.29 1.26342 -1.56971 0
M  V30 14832 O 1372.35 2.04459 -1.48165 0
M  V30 14833 C 1373.66 -0.875097 -2.87685 0
M  V30 14834 C 1375.21 -0.847812 -3.01299 0
M  V30 14835 C 1375.68 -1.46804 -4.33835 0
M  V30 14836 N 1377.18 -1.43196 -4.4051 0
M  V30 14837 C 1377.91 -1.88133 -5.41658 0
M  V30 14838 N 1377.41 -2.41001 -6.49531 0
M  V30 14839 N 1379.2 -1.79107 -5.32801 0
M  V30 14840 H 1371.35 -1.54612 -1.45633 0
M  V30 14841 H 1373.61 -0.645703 -0.694098 0
M  V30 14842 H 1373.32 -1.92826 -2.94127 0
M  V30 14843 H 1373.19 -0.377671 -3.75305 0
M  V30 14844 H 1375.58 0.196707 -2.94444 0
M  V30 14845 H 1375.66 -1.38316 -2.1518 0
M  V30 14846 H 1375.31 -2.51171 -4.41447 0
M  V30 14847 H 1375.24 -0.908 -5.18713 0
M  V30 14848 H 1377.73 -1.04541 -3.63152 0
M  V30 14849 H 1378.04 -2.73172 -7.22908 0
M  V30 14850 H 1376.38 -2.45021 -6.50377 0
M  V30 14851 H 1379.58 -1.37569 -4.47429 0
M  V30 14852 H 1379.75 -2.14445 -6.11488 0
M  V30 14853 N 1373.15 1.5451 -0.310553 0
M  V30 14854 C 1374.08 2.26827 0.554243 0
M  V30 14855 C 1375.07 1.27133 1.13009 0
M  V30 14856 O 1376.25 1.55923 1.15765 0
M  V30 14857 C 1373.38 3.01626 1.7216 0
M  V30 14858 C 1372.33 4.08547 1.27566 0
M  V30 14859 C 1371.66 4.71115 2.52893 0
M  V30 14860 C 1372.96 5.20766 0.399955 0
M  V30 14861 H 1374.65 2.9936 -0.0489475 0
M  V30 14862 H 1372.2 1.43978 -0.0249817 0
M  V30 14863 H 1374.15 3.50942 2.33276 0
M  V30 14864 H 1372.88 2.26688 2.35118 0
M  V30 14865 H 1371.54 3.60096 0.687499 0
M  V30 14866 H 1371.18 3.92805 3.14186 0
M  V30 14867 H 1370.88 5.43331 2.23752 0
M  V30 14868 H 1372.41 5.23198 3.14796 0
M  V30 14869 H 1373.82 5.65918 0.917054 0
M  V30 14870 H 1372.22 5.9976 0.2019 0
M  V30 14871 H 1373.29 4.81508 -0.572537 0
M  V30 14872 N 1374.63 0.0384594 1.57553 0
M  V30 14873 C 1375.6 -0.925358 2.0969 0
M  V30 14874 C 1376.6 -1.24811 1.01385 0
M  V30 14875 O 1377.79 -1.1869 1.27508 0
M  V30 14876 C 1374.92 -2.2391 2.57055 0
M  V30 14877 H 1376.11 -0.473633 2.96136 0
M  V30 14878 H 1373.66 -0.209736 1.54886 0
M  V30 14879 H 1374.4 -2.73691 1.73964 0
M  V30 14880 H 1374.18 -2.01793 3.36188 0
M  V30 14881 H 1375.67 -2.92974 2.97583 0
M  V30 14882 N 1376.11 -1.55841 -0.234795 0
M  V30 14883 C 1377.07 -1.9051 -1.2743 0
M  V30 14884 C 1378.07 -0.782543 -1.40474 0
M  V30 14885 O 1379.26 -1.05043 -1.38966 0
M  V30 14886 C 1376.4 -2.14424 -2.65019 0
M  V30 14887 H 1377.59 -2.83471 -0.979003 0
M  V30 14888 H 1375.14 -1.48919 -0.47463 0
M  V30 14889 H 1375.88 -1.23972 -2.99669 0
M  V30 14890 H 1375.66 -2.96191 -2.56931 0
M  V30 14891 H 1377.15 -2.42388 -3.40056 0
M  V30 14892 N 1377.59 0.500963 -1.49426 0
M  V30 14893 C 1379.01 0.832142 -1.36189 0
M  V30 14894 C 1379.21 1.9759 -0.395014 0
M  V30 14895 O 1378.26 2.51905 0.173294 0
M  V30 14896 C 1379.57 1.17232 -2.76907 0
M  V30 14897 C 1381.12 1.28052 -2.85607 0
M  V30 14898 C 1381.6 1.65399 -4.27092 0
M  V30 14899 N 1383.09 1.72448 -4.29902 0
M  V30 14900 C 1383.82 2.02789 -5.36343 0
M  V30 14901 N 1383.32 2.31354 -6.53029 0
M  V30 14902 N 1385.11 2.0404 -5.23759 0
M  V30 14903 H 1377.26 -0.253253 -2.10885 0
M  V30 14904 H 1379.53 -0.0507111 -0.946643 0
M  V30 14905 H 1379.23 0.405247 -3.49357 0
M  V30 14906 H 1379.11 2.11574 -3.12276 0
M  V30 14907 H 1381.49 2.03831 -2.13394 0
M  V30 14908 H 1381.57 0.317603 -2.53821 0
M  V30 14909 H 1381.22 0.901704 -4.99832 0
M  V30 14910 H 1381.15 2.6279 -4.56343 0
M  V30 14911 H 1383.64 1.52532 -3.45749 0
M  V30 14912 H 1383.95 2.53695 -7.29972 0
M  V30 14913 H 1382.3 2.28811 -6.56255 0
M  V30 14914 H 1385.49 1.812 -4.31606 0
M  V30 14915 H 1385.66 2.27353 -6.06807 0
M  V30 14916 N 1379.07 1.38501 0.752011 0
M  V30 14917 C 1380.01 1.35857 1.86578 0
M  V30 14918 C 1380.98 0.220873 1.64625 0
M  V30 14919 O 1382.17 0.413348 1.86269 0
M  V30 14920 C 1379.31 1.19102 3.23896 0
M  V30 14921 C 1378.42 2.42272 3.5767 0
M  V30 14922 C 1377.56 2.18236 4.843 0
M  V30 14923 C 1376.6 3.37169 5.10865 0
M  V30 14924 N 1375.73 3.12558 6.28691 0
M  V30 14925 H 1380.57 2.31073 1.88173 0
M  V30 14926 H 1378.11 1.14803 0.919712 0
M  V30 14927 H 1380.07 1.07404 4.03138 0
M  V30 14928 H 1378.7 0.275243 3.21624 0
M  V30 14929 H 1377.75 2.64638 2.7326 0
M  V30 14930 H 1379.06 3.3091 3.73229 0
M  V30 14931 H 1378.22 2.03682 5.71488 0
M  V30 14932 H 1376.96 1.26966 4.70883 0
M  V30 14933 H 1375.96 3.52241 4.22145 0
M  V30 14934 H 1377.19 4.29317 5.26178 0
M  V30 14935 H 1375.13 2.23937 6.16594 0
M  V30 14936 H 1375.05 3.94746 6.44757 0
M  V30 14937 H 1376.32 3.01663 7.18763 0
M  V30 14938 N 1380.55 -0.980364 1.23396 0
M  V30 14939 C 1381.48 -2.07522 0.972991 0
M  V30 14940 C 1382.49 -1.62714 -0.0530191 0
M  V30 14941 O 1383.68 -1.77564 0.182513 0
M  V30 14942 C 1380.78 -3.35977 0.444126 0
M  V30 14943 C 1379.95 -4.09756 1.53031 0
M  V30 14944 C 1379.01 -5.16488 1.00631 0
M  V30 14945 O 1378.04 -5.43368 1.69529 0
M  V30 14946 N 1379.24 -5.80263 -0.165842 0
M  V30 14947 H 1382 -2.30487 1.91561 0
M  V30 14948 H 1379.57 -1.14706 1.14255 0
M  V30 14949 H 1381.56 -4.04624 0.078617 0
M  V30 14950 H 1380.13 -3.0998 -0.403912 0
M  V30 14951 H 1379.35 -3.35564 2.06858 0
M  V30 14952 H 1380.64 -4.55815 2.26076 0
M  V30 14953 H 1380.03 -5.60811 -0.742162 0
M  V30 14954 H 1378.59 -6.50084 -0.472614 0
M  V30 14955 N 1382.02 -1.04567 -1.17913 0
M  V30 14956 C 1382.93 -0.651674 -2.25367 0
M  V30 14957 C 1383.95 0.32437 -1.7095 0
M  V30 14958 O 1385.13 0.178039 -2.00612 0
M  V30 14959 C 1382.19 -0.0259452 -3.4669 0
M  V30 14960 C 1381.25 -1.05163 -4.1622 0
M  V30 14961 C 1380.48 -0.45567 -5.31751 0
M  V30 14962 O 1380.71 0.736698 -5.65623 0
M  V30 14963 O 1379.64 -1.18684 -5.90083 0
M  V30 14964 H 1383.47 -1.54704 -2.61344 0
M  V30 14965 H 1381.05 -0.816852 -1.25092 0
M  V30 14966 H 1382.93 0.322126 -4.20167 0
M  V30 14967 H 1381.61 0.843165 -3.12526 0
M  V30 14968 H 1380.52 -1.45159 -3.44789 0
M  V30 14969 H 1381.85 -1.89168 -4.54397 0
M  V30 14970 N 1383.5 1.34231 -0.825823 0
M  V30 14971 C 1384.43 2.31997 -0.264546 0
M  V30 14972 C 1385.41 1.58375 0.620592 0
M  V30 14973 O 1386.6 1.86341 0.546865 0
M  V30 14974 C 1383.73 3.42557 0.572025 0
M  V30 14975 C 1382.68 4.27454 -0.216219 0
M  V30 14976 C 1382.01 5.29509 0.743279 0
M  V30 14977 C 1383.31 5.02456 -1.42603 0
M  V30 14978 H 1385 2.79189 -1.08139 0
M  V30 14979 H 1382.55 1.34227 -0.521451 0
M  V30 14980 H 1384.5 4.09968 0.974889 0
M  V30 14981 H 1383.22 2.94021 1.42195 0
M  V30 14982 H 1381.88 3.61649 -0.600485 0
M  V30 14983 H 1381.53 4.77234 1.58924 0
M  V30 14984 H 1381.23 5.87188 0.220064 0
M  V30 14985 H 1382.76 5.99789 1.14394 0
M  V30 14986 H 1384.17 5.62706 -1.09702 0
M  V30 14987 H 1382.57 5.69723 -1.88509 0
M  V30 14988 H 1383.64 4.31983 -2.2027 0
M  V30 14989 N 1384.98 0.581051 1.46498 0
M  V30 14990 C 1385.89 -0.155669 2.34083 0
M  V30 14991 C 1386.91 -0.887728 1.49651 0
M  V30 14992 O 1388.08 -0.851284 1.82524 0
M  V30 14993 C 1385.15 -1.15752 3.26806 0
M  V30 14994 C 1384.21 -0.43031 4.27138 0
M  V30 14995 C 1383.44 -1.38443 5.15431 0
M  V30 14996 O 1383.66 -2.62084 5.06624 0
M  V30 14997 O 1382.6 -0.89592 5.95195 0
M  V30 14998 H 1386.42 0.56341 2.98428 0
M  V30 14999 H 1384.01 0.341466 1.45445 0
M  V30 15000 H 1385.89 -1.73523 3.84015 0
M  V30 15001 H 1384.57 -1.85809 2.65059 0
M  V30 15002 H 1383.47 0.1892 3.73621 0
M  V30 15003 H 1384.81 0.229263 4.91666 0
M  V30 15004 N 1386.46 -1.54343 0.318742 0
M  V30 15005 C 1387.39 -2.27118 -0.542206 0
M  V30 15006 C 1388.37 -1.27731 -1.12334 0
M  V30 15007 O 1389.55 -1.56535 -1.14937 0
M  V30 15008 C 1386.68 -3.02535 -1.70558 0
M  V30 15009 C 1385.64 -4.09218 -1.25398 0
M  V30 15010 C 1384.96 -4.72449 -2.50391 0
M  V30 15011 C 1386.26 -5.20971 -0.372332 0
M  V30 15012 H 1387.96 -2.9933 0.0648226 0
M  V30 15013 H 1385.5 -1.43963 0.0326168 0
M  V30 15014 H 1387.46 -3.52174 -2.31412 0
M  V30 15015 H 1386.18 -2.27931 -2.33912 0
M  V30 15016 H 1384.84 -3.60455 -0.668392 0
M  V30 15017 H 1384.49 -3.94466 -3.12099 0
M  V30 15018 H 1384.19 -5.4451 -2.20868 0
M  V30 15019 H 1385.71 -5.2486 -3.12016 0
M  V30 15020 H 1387.13 -5.66396 -0.887029 0
M  V30 15021 H 1385.52 -5.99859 -0.17009 0
M  V30 15022 H 1386.59 -4.81198 0.598064 0
M  V30 15023 N 1387.94 -0.0468143 -1.5753 0
M  V30 15024 C 1389.18 0.628869 -1.92803 0
M  V30 15025 C 1389.51 1.70751 -0.925083 0
M  V30 15026 O 1388.79 1.94437 0.0495821 0
M  V30 15027 C 1389.07 1.22899 -3.38479 0
M  V30 15028 C 1388.93 0.158707 -4.4952 0
M  V30 15029 C 1390.24 2.1419 -3.84461 0
M  V30 15030 H 1387.36 0.227137 -0.701126 0
M  V30 15031 H 1390.01 -0.107689 -1.89695 0
M  V30 15032 H 1388.16 1.85674 -3.41259 0
M  V30 15033 H 1389.83 -0.472963 -4.58869 0
M  V30 15034 H 1388.07 -0.51375 -4.30747 0
M  V30 15035 H 1388.74 0.618545 -5.48523 0
M  V30 15036 H 1391.22 1.61382 -3.8353 0
M  V30 15037 H 1390.09 2.53125 -4.87051 0
M  V30 15038 H 1390.35 3.04024 -3.2097 0
M  V30 15039 N 1389.41 1.55964 0.226527 0
M  V30 15040 C 1390.66 1.7901 0.95306 0
M  V30 15041 C 1390.99 0.615608 1.84184 0
M  V30 15042 O 1390.27 -0.385341 1.90645 0
M  V30 15043 C 1390.55 3.12101 1.79624 0
M  V30 15044 C 1390.4 4.3999 0.934286 0
M  V30 15045 C 1391.72 3.4159 2.77496 0
M  V30 15046 H 1388.84 0.651236 0.345052 0
M  V30 15047 H 1391.48 1.88696 0.222236 0
M  V30 15048 H 1389.63 3.03975 2.41933 0
M  V30 15049 H 1391.31 4.6013 0.328328 0
M  V30 15050 H 1389.55 4.33138 0.239487 0
M  V30 15051 H 1390.22 5.29541 1.55853 0
M  V30 15052 H 1392.7 3.49812 2.25323 0
M  V30 15053 H 1391.57 4.35894 3.33599 0
M  V30 15054 H 1391.83 2.6351 3.54986 0
M  V30 15055 N 1390.89 -0.493031 1.4969 0
M  V30 15056 C 1392.12 -1.27517 1.63567 0
M  V30 15057 C 1392.54 -1.85526 0.310105 0
M  V30 15058 O 1391.9 -1.66246 -0.723314 0
M  V30 15059 C 1391.95 -2.37551 2.71296 0
M  V30 15060 O 1391.05 -3.41617 2.31023 0
M  V30 15061 H 1390.39 -0.376116 0.547205 0
M  V30 15062 H 1392.92 -0.589328 1.95929 0
M  V30 15063 H 1392.93 -2.83196 2.93708 0
M  V30 15064 H 1391.61 -1.94697 3.67513 0
M  V30 15065 H 1390.19 -3.01836 2.18974 0
M  V30 15066 N 1392.37 -1.38898 -0.744656 0
M  V30 15067 C 1393.28 -1.39098 -1.88915 0
M  V30 15068 C 1394.3 -0.286956 -1.71617 0
M  V30 15069 O 1395.47 -0.526852 -1.94387 0
M  V30 15070 C 1392.54 -1.22352 -3.24393 0
M  V30 15071 C 1391.6 -2.4264 -3.54153 0
M  V30 15072 C 1390.83 -2.26683 -4.83167 0
M  V30 15073 O 1391.05 -1.26523 -5.56191 0
M  V30 15074 O 1389.99 -3.15464 -5.12607 0
M  V30 15075 H 1393.81 -2.35551 -1.91701 0
M  V30 15076 H 1391.4 -1.19911 -0.891158 0
M  V30 15077 H 1393.28 -1.15109 -4.05374 0
M  V30 15078 H 1391.96 -0.289886 -3.22399 0
M  V30 15079 H 1390.86 -2.55459 -2.73298 0
M  V30 15080 H 1392.2 -3.34664 -3.60917 0
M  V30 15081 N 1393.85 0.973806 -1.23914 0
M  V30 15082 C 1394.78 2.08526 -1.05068 0
M  V30 15083 C 1395.76 1.70065 0.0344761 0
M  V30 15084 O 1396.94 1.93755 -0.131432 0
M  V30 15085 C 1394.07 3.41198 -0.648165 0
M  V30 15086 C 1393.03 3.9359 -1.6814 0
M  V30 15087 C 1392.35 5.22534 -1.13414 0
M  V30 15088 C 1393.65 4.22116 -3.07597 0
M  V30 15089 H 1395.35 2.24551 -1.98034 0
M  V30 15090 H 1392.89 1.07905 -0.953546 0
M  V30 15091 H 1394.85 4.18383 -0.50334 0
M  V30 15092 H 1393.57 3.25056 0.317182 0
M  V30 15093 H 1392.23 3.18555 -1.81434 0
M  V30 15094 H 1391.88 5.02747 -0.159578 0
M  V30 15095 H 1391.58 5.58555 -1.82456 0
M  V30 15096 H 1393.1 6.02334 -1.0013 0
M  V30 15097 H 1394.52 4.90027 -2.97567 0
M  V30 15098 H 1392.91 4.69352 -3.73937 0
M  V30 15099 H 1393.98 3.29128 -3.56094 0
M  V30 15100 N 1395.33 1.05191 1.17357 0
M  V30 15101 C 1396.24 0.663617 2.25018 0
M  V30 15102 C 1397.25 -0.315299 1.71119 0
M  V30 15103 O 1398.43 -0.167398 2.00703 0
M  V30 15104 C 1395.49 0.0443307 3.46672 0
M  V30 15105 C 1394.55 1.07369 4.15656 0
M  V30 15106 C 1393.79 0.483864 5.31502 0
M  V30 15107 O 1394.01 -0.706692 5.66005 0
M  V30 15108 O 1392.94 1.21812 5.89445 0
M  V30 15109 H 1396.77 1.56088 2.60519 0
M  V30 15110 H 1394.36 0.823474 1.24657 0
M  V30 15111 H 1396.24 -0.299839 4.20332 0
M  V30 15112 H 1394.91 -0.826579 3.12969 0
M  V30 15113 H 1393.82 1.46985 3.44015 0
M  V30 15114 H 1395.15 1.91575 4.53387 0
M  V30 15115 N 1396.8 -1.33791 0.83293 0
M  V30 15116 C 1397.77 -2.27637 0.267196 0
M  V30 15117 C 1398.77 -1.50709 -0.560669 0
M  V30 15118 O 1399.96 -1.70109 -0.375321 0
M  V30 15119 C 1397.09 -3.35136 -0.624248 0
M  V30 15120 H 1398.28 -2.79186 1.09522 0
M  V30 15121 H 1395.84 -1.44093 0.605554 0
M  V30 15122 H 1396.57 -2.88818 -1.47494 0
M  V30 15123 H 1396.36 -3.92087 -0.0319827 0
M  V30 15124 H 1397.85 -4.05113 -1.01355 0
M  V30 15125 N 1398.28 -0.588812 -1.46187 0
M  V30 15126 C 1399.7 -0.250962 -1.57615 0
M  V30 15127 C 1399.9 1.2467 -1.58302 0
M  V30 15128 O 1398.95 2.02876 -1.50325 0
M  V30 15129 C 1400.27 -0.905561 -2.8674 0
M  V30 15130 C 1401.82 -0.879721 -3.00383 0
M  V30 15131 C 1402.29 -1.51398 -4.32253 0
M  V30 15132 N 1403.78 -1.4786 -4.38967 0
M  V30 15133 C 1404.52 -1.93868 -5.39632 0
M  V30 15134 N 1404.01 -2.47876 -6.46938 0
M  V30 15135 N 1405.81 -1.84748 -5.30872 0
M  V30 15136 H 1397.96 -1.56148 -1.43985 0
M  V30 15137 H 1400.22 -0.653028 -0.68721 0
M  V30 15138 H 1399.93 -1.95935 -2.92066 0
M  V30 15139 H 1399.8 -0.417456 -3.74883 0
M  V30 15140 H 1402.19 0.165466 -2.94636 0
M  V30 15141 H 1402.27 -1.40591 -2.137 0
M  V30 15142 H 1401.91 -2.55839 -4.38758 0
M  V30 15143 H 1401.84 -0.962965 -5.17721 0
M  V30 15144 H 1404.33 -1.08387 -3.62023 0
M  V30 15145 H 1404.65 -2.80824 -7.1997 0
M  V30 15146 H 1402.99 -2.51905 -6.47741 0
M  V30 15147 H 1406.18 -1.42307 -4.45944 0
M  V30 15148 H 1406.35 -2.20919 -6.09179 0
M  V30 15149 N 1399.76 1.54172 -0.326923 0
M  V30 15150 C 1401.01 2.00926 0.275047 0
M  V30 15151 C 1401.34 1.21469 1.51522 0
M  V30 15152 O 1400.61 0.297871 1.92206 0
M  V30 15153 C 1400.9 3.54967 0.605833 0
M  V30 15154 C 1400.75 4.45147 -0.645279 0
M  V30 15155 C 1402.07 4.16489 1.42213 0
M  V30 15156 H 1399.19 0.730389 0.098495 0
M  V30 15157 H 1401.83 1.84735 -0.444168 0
M  V30 15158 H 1399.98 3.68895 1.21857 0
M  V30 15159 H 1401.65 4.43085 -1.2835 0
M  V30 15160 H 1399.9 4.14686 -1.27349 0
M  V30 15161 H 1400.57 5.50763 -0.36932 0
M  V30 15162 H 1403.04 4.06158 0.904172 0
M  V30 15163 H 1401.92 5.24377 1.62234 0
M  V30 15164 H 1402.18 3.70032 2.41928 0
M  V30 15165 N 1401.24 0.0551678 1.57503 0
M  V30 15166 C 1402.49 -0.6165 1.92467 0
M  V30 15167 C 1402.81 -1.71147 0.934552 0
M  V30 15168 O 1402.08 -1.9589 -0.0199649 0
M  V30 15169 H 1400.66 -0.230714 0.710479 0
M  V30 15170 H 1403.32 0.109111 1.94594 0
M  V30 15171 H 1402.42 -1.05254 2.93816 0
M  V30 15172 N 1402.72 -1.56081 -0.218252 0
M  V30 15173 C 1403.63 -1.95856 -1.29141 0
M  V30 15174 C 1404.64 -0.862857 -1.51099 0
M  V30 15175 O 1405.82 -1.1667 -1.64165 0
M  V30 15176 C 1402.88 -2.27005 -2.62049 0
M  V30 15177 C 1401.94 -3.50162 -2.48365 0
M  V30 15178 C 1401.18 -3.79815 -3.74935 0
M  V30 15179 O 1401.4 -3.11095 -4.78096 0
M  V30 15180 O 1400.33 -4.73299 -3.71849 0
M  V30 15181 H 1404.16 -2.8732 -0.983922 0
M  V30 15182 H 1401.75 -1.43334 -0.421385 0
M  V30 15183 H 1403.63 -2.4822 -3.40536 0
M  V30 15184 H 1402.3 -1.38715 -2.92472 0
M  V30 15185 H 1401.21 -3.34222 -1.68066 0
M  V30 15186 H 1402.54 -4.38845 -2.22881 0
M  V30 15187 N 1404.2 0.485086 -1.49949 0
M  V30 15188 C 1405.11 1.61089 -1.70551 0
M  V30 15189 C 1406.12 1.63752 -0.588333 0
M  V30 15190 O 1407.3 1.81879 -0.86498 0
M  V30 15191 C 1404.36 2.97382 -1.78227 0
M  V30 15192 C 1403.42 3.05219 -3.01894 0
M  V30 15193 C 1402.66 4.35011 -3.09195 0
M  V30 15194 O 1402.88 5.24722 -2.23658 0
M  V30 15195 O 1401.81 4.48151 -4.01802 0
M  V30 15196 H 1405.64 1.46633 -2.65956 0
M  V30 15197 H 1403.22 0.663091 -1.33879 0
M  V30 15198 H 1405.11 3.78356 -1.85538 0
M  V30 15199 H 1403.78 3.12066 -0.860043 0
M  V30 15200 H 1402.69 2.23373 -3.00092 0
M  V30 15201 H 1404.02 2.95467 -3.93649 0
M  V30 15202 N 1405.67 1.39291 0.737279 0
M  V30 15203 C 1406.58 1.40098 1.88175 0
M  V30 15204 C 1407.6 0.296053 1.71463 0
M  V30 15205 O 1408.78 0.537153 1.94105 0
M  V30 15206 C 1405.84 1.24071 3.2374 0
M  V30 15207 C 1404.9 2.44515 3.52861 0
M  V30 15208 C 1404.13 2.29243 4.81958 0
M  V30 15209 O 1404.36 1.2947 5.55512 0
M  V30 15210 O 1403.29 3.18178 5.10927 0
M  V30 15211 H 1407.12 2.36565 1.90449 0
M  V30 15212 H 1404.7 1.20382 0.884786 0
M  V30 15213 H 1406.58 1.17257 4.04758 0
M  V30 15214 H 1405.26 0.30698 3.22241 0
M  V30 15215 H 1404.17 2.56905 2.71939 0
M  V30 15216 H 1405.5 3.36573 3.59137 0
M  V30 15217 N 1407.15 -0.967221 1.24429 0
M  V30 15218 C 1408.06 -2.09582 1.05417 0
M  V30 15219 C 1409.08 -1.73999 -0.00516127 0
M  V30 15220 O 1410.25 -2.00472 0.193115 0
M  V30 15221 C 1407.32 -3.40327 0.661697 0
M  V30 15222 C 1406.38 -3.89854 1.79756 0
M  V30 15223 C 1405.61 -5.1436 1.42372 0
M  V30 15224 O 1405.84 -5.69536 0.313754 0
M  V30 15225 O 1404.77 -5.58283 2.24952 0
M  V30 15226 H 1408.6 -2.28517 2.00034 0
M  V30 15227 H 1406.18 -1.07978 1.03253 0
M  V30 15228 H 1408.06 -4.18943 0.454369 0
M  V30 15229 H 1406.74 -3.22691 -0.255348 0
M  V30 15230 H 1405.64 -3.12297 2.05964 0
M  V30 15231 H 1406.98 -4.11967 2.69339 0
M  V30 15232 N 1408.63 -1.05812 -1.16797 0
M  V30 15233 C 1409.87 -0.781055 -1.88889 0
M  V30 15234 C 1410.23 0.679797 -1.79563 0
M  V30 15235 O 1411.43 1.07124 -2.46532 0
M  V30 15236 C 1409.71 -1.25598 -3.34604 0
M  V30 15237 S 1411.26 -1.10724 -4.24601 0
M  V30 15238 H 1408.08 -0.28347 -0.652047 0
M  V30 15239 H 1410.68 -1.35404 -1.41018 0
M  V30 15240 H 1409.39 -2.31421 -3.38928 0
M  V30 15241 H 1408.92 -0.677541 -3.87522 0
M  V30 15242 H 1410.93 -0.0351807 -4.96188 0
M  V30 15243 N 1410.11 1.33347 -0.840014 0
M  V30 15244 C 1411.33 2.02485 -0.448856 0
M  V30 15245 C 1411.76 1.62781 0.942543 0
M  V30 15246 O 1411.12 0.82099 1.61646 0
M  V30 15247 C 1411.16 3.55928 -0.578582 0
M  V30 15248 O 1410.27 4.10507 0.394695 0
M  V30 15249 H 1409.61 0.63848 -0.182317 0
M  V30 15250 H 1412.14 1.70221 -1.13516 0
M  V30 15251 H 1412.15 4.05391 -0.460653 0
M  V30 15252 H 1410.82 3.8417 -1.5933 0
M  V30 15253 H 1409.4 3.72164 0.234227 0
M  V30 15254 N 1411.59 0.596556 1.45873 0
M  V30 15255 C 1413 0.259317 1.57479 0
M  V30 15256 C 1413.2 -1.23829 1.58961 0
M  V30 15257 O 1412.26 -2.02076 1.51399 0
M  V30 15258 C 1413.57 0.920755 2.86256 0
M  V30 15259 C 1415.12 0.895638 2.99912 0
M  V30 15260 C 1415.59 1.53688 4.31444 0
M  V30 15261 N 1417.08 1.50186 4.38176 0
M  V30 15262 C 1417.82 1.96727 5.38596 0
M  V30 15263 N 1417.32 2.51304 6.45615 0
M  V30 15264 N 1419.11 1.87561 5.29884 0
M  V30 15265 H 1411.26 1.56909 1.43155 0
M  V30 15266 H 1413.52 0.656664 0.683737 0
M  V30 15267 H 1413.23 1.97481 2.91023 0
M  V30 15268 H 1413.1 0.437331 3.74656 0
M  V30 15269 H 1415.49 -0.149838 2.94719 0
M  V30 15270 H 1415.57 1.41722 2.12952 0
M  V30 15271 H 1415.21 2.58163 4.37395 0
M  V30 15272 H 1415.14 0.990408 5.17203 0
M  V30 15273 H 1417.64 1.10305 3.61443 0
M  V30 15274 H 1417.95 2.84639 7.18471 0
M  V30 15275 H 1416.29 2.55337 6.46396 0
M  V30 15276 H 1419.48 1.4467 4.45183 0
M  V30 15277 H 1419.66 2.24146 6.07999 0
M  V30 15278 N 1413.06 -1.53996 0.335095 0
M  V30 15279 C 1414 -2.22258 -0.559809 0
M  V30 15280 C 1415.01 -1.22636 -1.07071 0
M  V30 15281 O 1416.2 -1.4904 -0.982312 0
M  V30 15282 C 1413.3 -2.88256 -1.78218 0
M  V30 15283 C 1412.47 -4.14118 -1.40801 0
M  V30 15284 C 1411.53 -4.63603 -2.48915 0
M  V30 15285 O 1410.56 -5.28015 -2.12576 0
M  V30 15286 N 1411.76 -4.3881 -3.80034 0
M  V30 15287 H 1414.52 -2.9969 0.0247521 0
M  V30 15288 H 1412.08 -1.61119 0.158826 0
M  V30 15289 H 1414.08 -3.1828 -2.4996 0
M  V30 15290 H 1412.65 -2.14461 -2.27431 0
M  V30 15291 H 1411.87 -3.90732 -0.521729 0
M  V30 15292 H 1413.15 -4.96005 -1.13388 0
M  V30 15293 H 1412.55 -3.87278 -4.12349 0
M  V30 15294 H 1411.11 -4.73461 -4.47971 0
M  V30 15295 N 1414.54 -0.0635198 -1.57472 0
M  V30 15296 C 1415.47 0.942339 -2.07835 0
M  V30 15297 C 1416.45 1.29629 -0.981587 0
M  V30 15298 O 1417.64 1.40702 -1.25439 0
M  V30 15299 C 1414.76 2.25284 -2.52913 0
M  V30 15300 C 1413.81 2.05105 -3.73944 0
M  V30 15301 S 1414.64 1.31802 -5.19026 0
M  V30 15302 C 1415.8 2.64149 -5.67429 0
M  V30 15303 H 1416.03 0.513772 -2.92827 0
M  V30 15304 H 1413.56 0.149049 -1.53679 0
M  V30 15305 H 1415.52 3.00607 -2.79546 0
M  V30 15306 H 1414.18 2.65266 -1.68204 0
M  V30 15307 H 1413.38 3.02071 -4.03447 0
M  V30 15308 H 1412.98 1.3792 -3.47641 0
M  V30 15309 H 1415.27 3.60272 -5.73769 0
M  V30 15310 H 1416.21 2.39267 -6.66451 0
M  V30 15311 H 1416.62 2.70975 -4.9521 0
M  V30 15312 N 1416.02 1.56195 0.209972 0
M  V30 15313 C 1416.95 1.89859 1.28398 0
M  V30 15314 C 1417.96 0.787878 1.42465 0
M  V30 15315 O 1419.15 1.06623 1.43156 0
M  V30 15316 C 1416.25 2.10231 2.65812 0
M  V30 15317 C 1415.43 3.41309 2.73545 0
M  V30 15318 C 1414.49 3.50973 3.92052 0
M  V30 15319 O 1413.51 4.23915 3.79849 0
M  V30 15320 N 1414.71 2.82965 5.06864 0
M  V30 15321 H 1417.48 2.82581 0.998411 0
M  V30 15322 H 1415.04 1.56882 0.399964 0
M  V30 15323 H 1417.03 2.13999 3.43492 0
M  V30 15324 H 1415.6 1.2408 2.8692 0
M  V30 15325 H 1414.82 3.49539 1.82253 0
M  V30 15326 H 1416.11 4.27636 2.7569 0
M  V30 15327 H 1415.51 2.23504 5.19676 0
M  V30 15328 H 1414.06 2.9238 5.82544 0
M  V30 15329 N 1417.5 -0.477127 1.50204 0
M  V30 15330 C 1418.73 -1.25307 1.64638 0
M  V30 15331 C 1419.14 -1.85942 0.327274 0
M  V30 15332 O 1418.5 -1.6895 -0.690088 0
M  V30 15333 C 1418.55 -2.36616 2.73304 0
M  V30 15334 O 1418.27 -1.78469 4.00101 0
M  V30 15335 C 1419.77 -3.27595 2.98658 0
M  V30 15336 H 1416.99 -0.379192 0.553583 0
M  V30 15337 H 1419.53 -0.5702 1.9639 0
M  V30 15338 H 1417.69 -3.00689 2.44264 0
M  V30 15339 H 1418.1 -2.51722 4.60148 0
M  V30 15340 H 1419.58 -4.01921 3.7837 0
M  V30 15341 H 1420.05 -3.86017 2.09493 0
M  V30 15342 H 1420.66 -2.69264 3.29206 0
M  V30 15343 N 1418.98 -1.3968 -0.729882 0
M  V30 15344 C 1419.89 -1.41094 -1.87429 0
M  V30 15345 C 1420.9 -0.305142 -1.71303 0
M  V30 15346 O 1422.08 -0.54744 -1.93817 0
M  V30 15347 C 1419.14 -1.25786 -3.23077 0
M  V30 15348 C 1418.2 -2.46382 -3.5156 0
M  V30 15349 C 1417.44 -2.31795 -4.80735 0
M  V30 15350 O 1417.66 -1.32415 -5.54818 0
M  V30 15351 O 1416.59 -3.20883 -5.09232 0
M  V30 15352 H 1420.42 -2.37571 -1.89192 0
M  V30 15353 H 1418.01 -1.2085 -0.878389 0
M  V30 15354 H 1419.89 -1.19402 -4.0413 0
M  V30 15355 H 1418.56 -0.324065 -3.22074 0
M  V30 15356 H 1417.47 -2.58343 -2.70573 0
M  V30 15357 H 1418.8 -3.38473 -3.57347 0
M  V30 15358 N 1420.45 0.960609 -1.2494 0
M  V30 15359 C 1421.4 2.05634 -1.04801 0
M  V30 15360 C 1422.37 1.66049 0.0409611 0
M  V30 15361 O 1423.56 1.90453 -0.115053 0
M  V30 15362 C 1420.7 3.38604 -0.666444 0
M  V30 15363 C 1419.81 3.91341 -1.82964 0
M  V30 15364 C 1418.94 5.1261 -1.39299 0
M  V30 15365 C 1417.98 5.57562 -2.52569 0
M  V30 15366 N 1417.12 6.70046 -2.09722 0
M  V30 15367 H 1421.96 2.22194 -1.9858 0
M  V30 15368 H 1419.5 1.08892 -0.988981 0
M  V30 15369 H 1421.46 4.15017 -0.426205 0
M  V30 15370 H 1420.09 3.21948 0.23435 0
M  V30 15371 H 1419.14 3.11502 -2.18335 0
M  V30 15372 H 1420.45 4.20656 -2.68049 0
M  V30 15373 H 1419.6 5.96421 -1.11205 0
M  V30 15374 H 1418.34 4.84997 -0.512779 0
M  V30 15375 H 1417.35 4.72319 -2.81415 0
M  V30 15376 H 1418.57 5.87186 -3.41159 0
M  V30 15377 H 1416.52 6.44153 -1.24109 0
M  V30 15378 H 1416.44 6.98846 -2.88357 0
M  V30 15379 H 1417.7 7.57281 -1.84787 0
M  V30 15380 N 1421.93 1.0643 1.16234 0
M  V30 15381 C 1422.88 0.676311 2.20669 0
M  V30 15382 C 1423.85 -0.327721 1.62835 0
M  V30 15383 O 1425.03 -0.216296 1.8957 0
M  V30 15384 C 1422.17 0.0703726 3.45028 0
M  V30 15385 C 1421.29 1.12475 4.17101 0
M  V30 15386 C 1420.42 0.484806 5.28983 0
M  V30 15387 C 1419.46 1.52262 5.9286 0
M  V30 15388 N 1418.6 0.905938 6.96231 0
M  V30 15389 H 1423.44 1.57129 2.53209 0
M  V30 15390 H 1420.98 0.7856 1.24365 0
M  V30 15391 H 1422.93 -0.298488 4.16131 0
M  V30 15392 H 1421.56 -0.788002 3.13034 0
M  V30 15393 H 1420.62 1.6113 3.44589 0
M  V30 15394 H 1421.93 1.91202 4.60698 0
M  V30 15395 H 1421.08 0.0630553 6.06667 0
M  V30 15396 H 1419.82 -0.334332 4.86553 0
M  V30 15397 H 1418.83 1.95425 5.13896 0
M  V30 15398 H 1420.05 2.34388 6.37369 0
M  V30 15399 H 1418 0.107536 6.55912 0
M  V30 15400 H 1417.91 1.63058 7.38206 0
M  V30 15401 H 1419.18 0.509378 7.77834 0
M  V30 15402 N 1423.41 -1.329 0.847073 0
M  V30 15403 C 1424.83 -1.50333 0.53593 0
M  V30 15404 C 1425.03 -1.78492 -0.93504 0
M  V30 15405 O 1424.08 -1.85001 -1.71846 0
M  V30 15406 C 1425.4 -2.65254 1.41636 0
M  V30 15407 C 1426.94 -2.79139 1.416 0
M  V30 15408 C 1427.42 -3.97131 2.28147 0
M  V30 15409 N 1428.91 -4.0438 2.25901 0
M  V30 15410 C 1429.64 -4.94893 2.89601 0
M  V30 15411 N 1429.14 -5.90466 3.62383 0
M  V30 15412 N 1430.93 -4.87955 2.79028 0
M  V30 15413 H 1423.08 -1.12886 1.79918 0
M  V30 15414 H 1425.35 -0.555707 0.768045 0
M  V30 15415 H 1425.05 -2.51151 2.46203 0
M  V30 15416 H 1424.93 -3.60856 1.09829 0
M  V30 15417 H 1427.31 -2.92669 0.378013 0
M  V30 15418 H 1427.4 -1.84273 1.77418 0
M  V30 15419 H 1427.04 -3.8436 3.32009 0
M  V30 15420 H 1426.97 -4.91258 1.89665 0
M  V30 15421 H 1429.46 -3.35986 1.72979 0
M  V30 15422 H 1429.77 -6.56212 4.08174 0
M  V30 15423 H 1428.12 -5.90516 3.66491 0
M  V30 15424 H 1431.31 -4.12258 2.21723 0
M  V30 15425 H 1431.48 -5.58295 3.28954 0
M  V30 15426 N 1424.89 -0.604284 -1.45555 0
M  V30 15427 C 1425.82 0.103859 -2.33269 0
M  V30 15428 C 1426.8 0.862104 -1.46635 0
M  V30 15429 O 1427.98 0.833308 -1.75413 0
M  V30 15430 C 1425.11 1.104 -3.29286 0
M  V30 15431 C 1424.07 0.459189 -4.2553 0
M  V30 15432 C 1423.39 1.56734 -5.11213 0
M  V30 15433 C 1424.69 -0.617509 -5.18637 0
M  V30 15434 H 1426.39 -0.628538 -2.92728 0
M  V30 15435 H 1423.93 -0.303711 -1.40761 0
M  V30 15436 H 1425.89 1.60794 -3.89517 0
M  V30 15437 H 1424.61 1.86695 -2.67979 0
M  V30 15438 H 1423.27 -0.0238508 -3.66592 0
M  V30 15439 H 1422.92 2.32049 -4.46276 0
M  V30 15440 H 1422.62 1.14142 -5.76407 0
M  V30 15441 H 1424.14 2.07361 -5.74312 0
M  V30 15442 H 1425.56 -0.197784 -5.72959 0
M  V30 15443 H 1423.95 -0.96499 -5.9229 0
M  V30 15444 H 1425.02 -1.49541 -4.61265 0
M  V30 15445 N 1426.37 1.53816 -0.343257 0
M  V30 15446 C 1427.3 2.22552 0.548015 0
M  V30 15447 C 1428.31 1.23202 1.06419 0
M  V30 15448 O 1429.5 1.49559 0.974394 0
M  V30 15449 C 1426.6 2.89197 1.76687 0
M  V30 15450 C 1425.77 4.14859 1.38603 0
M  V30 15451 C 1424.83 4.64917 2.46453 0
M  V30 15452 O 1423.86 5.29135 2.09773 0
M  V30 15453 N 1425.06 4.4082 3.77701 0
M  V30 15454 H 1427.83 2.99672 -0.040645 0
M  V30 15455 H 1425.39 1.61033 -0.167368 0
M  V30 15456 H 1427.38 3.19601 2.48268 0
M  V30 15457 H 1425.95 2.15664 2.26291 0
M  V30 15458 H 1425.17 3.91003 0.501001 0
M  V30 15459 H 1426.46 4.96599 1.10756 0
M  V30 15460 H 1425.85 3.8946 4.1029 0
M  V30 15461 H 1424.41 4.7583 4.45453 0
M  V30 15462 N 1427.84 0.0718701 1.57436 0
M  V30 15463 C 1428.78 -0.924911 2.09709 0
M  V30 15464 C 1429.79 -1.26136 1.02925 0
M  V30 15465 O 1430.98 -1.21853 1.30438 0
M  V30 15466 C 1428.08 -2.24072 2.54254 0
M  V30 15467 C 1427.25 -2.0831 3.84611 0
M  V30 15468 C 1426.31 -3.23196 4.15248 0
M  V30 15469 O 1425.34 -2.98184 4.84846 0
M  V30 15470 N 1426.54 -4.48293 3.688 0
M  V30 15471 H 1429.3 -0.478605 2.95854 0
M  V30 15472 H 1426.86 -0.113853 1.61499 0
M  V30 15473 H 1428.86 -2.99835 2.71811 0
M  V30 15474 H 1427.43 -2.60201 1.73246 0
M  V30 15475 H 1426.65 -1.17014 3.76432 0
M  V30 15476 H 1427.93 -1.9503 4.69937 0
M  V30 15477 H 1427.33 -4.71501 3.12575 0
M  V30 15478 H 1425.89 -5.21082 3.91556 0
M  V30 15479 N 1429.32 -1.56304 -0.201686 0
M  V30 15480 C 1430.27 -1.90422 -1.25393 0
M  V30 15481 C 1431.26 -0.769236 -1.41321 0
M  V30 15482 O 1432.45 -1.03199 -1.43802 0
M  V30 15483 C 1429.58 -2.24157 -2.60016 0
M  V30 15484 C 1428.66 -3.44097 -2.47908 0
M  V30 15485 N 1429.05 -4.62185 -2.05471 0
M  V30 15486 C 1427.35 -3.48105 -2.78817 0
M  V30 15487 C 1428.05 -5.44345 -2.05095 0
M  V30 15488 N 1427.03 -4.84576 -2.46346 0
M  V30 15489 H 1430.83 -2.79227 -0.917045 0
M  V30 15490 H 1428.35 -1.57135 -0.410157 0
M  V30 15491 H 1430.34 -2.46782 -3.36012 0
M  V30 15492 H 1429 -1.36676 -2.94533 0
M  V30 15493 H 1430.01 -4.86974 -1.76285 0
M  V30 15494 H 1426.69 -2.71022 -3.17574 0
M  V30 15495 H 1428.08 -6.48914 -1.74242 0
M  V30 15496 N 1430.8 0.469154 -1.50455 0
M  V30 15497 C 1432.05 1.21788 -1.60781 0
M  V30 15498 C 1432.36 1.93054 -0.314576 0
M  V30 15499 O 1433.57 2.69873 -0.296773 0
M  V30 15500 C 1432.02 2.21305 -2.83817 0
M  V30 15501 C 1431.63 1.55833 -4.20024 0
M  V30 15502 C 1433.38 2.96808 -3.03489 0
M  V30 15503 C 1431.28 2.53648 -5.34244 0
M  V30 15504 H 1430.21 0.45827 -0.598752 0
M  V30 15505 H 1432.86 0.488159 -1.76888 0
M  V30 15506 H 1431.25 2.97577 -2.61273 0
M  V30 15507 H 1432.42 0.853371 -4.52829 0
M  V30 15508 H 1430.74 0.926046 -4.05972 0
M  V30 15509 H 1433.33 3.70017 -3.85994 0
M  V30 15510 H 1433.68 3.56307 -2.15293 0
M  V30 15511 H 1434.21 2.27648 -3.26223 0
M  V30 15512 H 1430.95 1.98885 -6.246 0
M  V30 15513 H 1430.47 3.22291 -5.05854 0
M  V30 15514 H 1432.15 3.15438 -5.64897 0
M  V30 15515 N 1432.28 1.40065 0.722464 0
M  V30 15516 C 1433.21 1.35695 1.84715 0
M  V30 15517 C 1434.22 0.263522 1.60653 0
M  V30 15518 O 1435.41 0.523382 1.70655 0
M  V30 15519 C 1432.51 1.08722 3.20987 0
M  V30 15520 C 1431.69 2.29586 3.72302 0
M  V30 15521 C 1430.74 1.98879 4.87169 0
M  V30 15522 O 1429.77 2.71681 5.00178 0
M  V30 15523 N 1430.97 0.962554 5.72464 0
M  V30 15524 H 1433.74 2.32621 1.88964 0
M  V30 15525 H 1431.3 1.3433 0.903723 0
M  V30 15526 H 1433.29 0.861772 3.95418 0
M  V30 15527 H 1431.86 0.204869 3.11928 0
M  V30 15528 H 1431.08 2.68004 2.8908 0
M  V30 15529 H 1432.37 3.10176 4.03322 0
M  V30 15530 H 1431.77 0.359452 5.64557 0
M  V30 15531 H 1430.32 0.797003 6.46909 0
M  V30 15532 N 1433.76 -0.95397 1.25448 0
M  V30 15533 C 1434.67 -2.08452 1.07634 0
M  V30 15534 C 1435.68 -1.73995 0.013294 0
M  V30 15535 O 1436.86 -2.00256 0.214367 0
M  V30 15536 C 1433.92 -3.39606 0.697756 0
M  V30 15537 C 1432.99 -3.87926 1.83881 0
M  V30 15538 C 1432.22 -5.12821 1.47819 0
M  V30 15539 O 1432.44 -5.69172 0.374143 0
M  V30 15540 O 1431.38 -5.55866 2.3086 0
M  V30 15541 H 1435.2 -2.26382 2.02447 0
M  V30 15542 H 1432.79 -1.06877 1.04392 0
M  V30 15543 H 1434.67 -4.18438 0.498778 0
M  V30 15544 H 1433.34 -3.22944 -0.221108 0
M  V30 15545 H 1432.25 -3.10095 2.09265 0
M  V30 15546 H 1433.58 -4.09087 2.73694 0
M  V30 15547 N 1435.24 -1.07045 -1.15668 0
M  V30 15548 C 1436.17 -0.709413 -2.22463 0
M  V30 15549 C 1437.15 0.30169 -1.67403 0
M  V30 15550 O 1438.33 0.175131 -1.93409 0
M  V30 15551 C 1435.46 -0.103121 -3.47147 0
M  V30 15552 C 1434.42 -1.04103 -4.15146 0
M  V30 15553 C 1433.74 -0.297656 -5.33871 0
M  V30 15554 C 1435.04 -2.37332 -4.65264 0
M  V30 15555 H 1436.74 -1.60227 -2.52918 0
M  V30 15556 H 1434.28 -0.771846 -1.21567 0
M  V30 15557 H 1436.23 0.161371 -4.21091 0
M  V30 15558 H 1434.96 0.824792 -3.16014 0
M  V30 15559 H 1433.62 -1.2904 -3.43139 0
M  V30 15560 H 1433.27 0.633618 -4.98993 0
M  V30 15561 H 1432.97 -0.922789 -5.80309 0
M  V30 15562 H 1434.49 -0.0408892 -6.10586 0
M  V30 15563 H 1435.9 -2.1674 -5.30751 0
M  V30 15564 H 1434.3 -2.95412 -5.22352 0
M  V30 15565 H 1435.37 -2.99859 -3.81068 0
M  V30 15566 N 1436.71 1.32449 -0.85411 0
M  V30 15567 C 1437.62 2.32658 -0.301221 0
M  V30 15568 C 1438.64 1.64025 0.580673 0
M  V30 15569 O 1439.82 1.95568 0.481172 0
M  V30 15570 C 1436.88 3.43049 0.501803 0
M  V30 15571 C 1435.94 4.27374 -0.406166 0
M  V30 15572 C 1435.17 5.32494 0.358627 0
M  V30 15573 O 1435.4 5.4783 1.58865 0
M  V30 15574 O 1434.33 6.0127 -0.275291 0
M  V30 15575 H 1438.16 2.81838 -1.13143 0
M  V30 15576 H 1435.74 1.36063 -0.617032 0
M  V30 15577 H 1437.62 4.10375 0.957608 0
M  V30 15578 H 1436.3 2.9606 1.30882 0
M  V30 15579 H 1435.21 3.6286 -0.910136 0
M  V30 15580 H 1436.54 4.77887 -1.17835 0
M  V30 15581 N 1438.19 0.611994 1.45232 0
M  V30 15582 C 1439.15 -0.0943825 2.29006 0
M  V30 15583 C 1440.15 -0.790863 1.40007 0
M  V30 15584 O 1441.34 -0.638356 1.62082 0
M  V30 15585 C 1438.48 -1.1439 3.21135 0
M  V30 15586 H 1439.67 0.6422 2.92943 0
M  V30 15587 H 1437.22 0.37124 1.51827 0
M  V30 15588 H 1437.96 -1.9111 2.62007 0
M  V30 15589 H 1437.74 -0.648638 3.86698 0
M  V30 15590 H 1439.23 -1.63848 3.84114 0
M  V30 15591 N 1439.67 -1.53632 0.351409 0
M  V30 15592 C 1440.62 -2.22041 -0.517867 0
M  V30 15593 C 1441.6 -1.21057 -1.0599 0
M  V30 15594 O 1442.8 -1.46569 -0.992298 0
M  V30 15595 C 1439.92 -3.00259 -1.66432 0
M  V30 15596 C 1439.01 -4.08607 -1.13584 0
M  V30 15597 N 1439.4 -5.04727 -0.329217 0
M  V30 15598 C 1437.7 -4.23059 -1.412 0
M  V30 15599 C 1438.4 -5.81685 -0.0415005 0
M  V30 15600 N 1437.38 -5.39875 -0.635288 0
M  V30 15601 H 1441.18 -2.93711 0.105386 0
M  V30 15602 H 1438.69 -1.61623 0.15868 0
M  V30 15603 H 1440.69 -3.47774 -2.29911 0
M  V30 15604 H 1439.35 -2.30117 -2.29077 0
M  V30 15605 H 1440.36 -5.17891 0.0303777 0
M  V30 15606 H 1437.04 -3.64139 -2.04227 0
M  V30 15607 H 1438.43 -6.69128 0.609686 0
M  V30 15608 N 1441.15 -0.0802183 -1.57396 0
M  V30 15609 C 1442.08 0.881426 -2.16225 0
M  V30 15610 C 1443.06 1.30459 -1.09154 0
M  V30 15611 O 1444.24 1.37413 -1.37227 0
M  V30 15612 C 1441.37 2.14599 -2.73065 0
M  V30 15613 C 1440.33 1.86195 -3.85377 0
M  V30 15614 C 1439.65 3.19354 -4.28856 0
M  V30 15615 C 1440.95 1.16059 -5.09242 0
M  V30 15616 H 1442.65 0.391325 -2.96832 0
M  V30 15617 H 1440.19 0.186785 -1.42783 0
M  V30 15618 H 1442.15 2.82297 -3.12868 0
M  V30 15619 H 1440.87 2.65866 -1.89691 0
M  V30 15620 H 1439.53 1.209 -3.46091 0
M  V30 15621 H 1439.18 3.68479 -3.42392 0
M  V30 15622 H 1438.88 3.01137 -5.04569 0
M  V30 15623 H 1440.4 3.88235 -4.71281 0
M  V30 15624 H 1441.82 1.7384 -5.46308 0
M  V30 15625 H 1440.21 1.08072 -5.90288 0
M  V30 15626 H 1441.28 0.14098 -4.84695 0
M  V30 15627 N 1442.63 1.56409 0.193394 0
M  V30 15628 C 1443.54 1.97886 1.26009 0
M  V30 15629 C 1444.55 0.886786 1.49707 0
M  V30 15630 O 1445.73 1.19267 1.62288 0
M  V30 15631 C 1442.79 2.31145 2.58404 0
M  V30 15632 C 1441.85 3.54069 2.42763 0
M  V30 15633 C 1441.09 3.85732 3.68845 0
M  V30 15634 O 1441.31 3.18662 4.73086 0
M  V30 15635 O 1440.24 4.79155 3.64272 0
M  V30 15636 H 1444.07 2.88849 0.938087 0
M  V30 15637 H 1441.65 1.43987 0.398528 0
M  V30 15638 H 1443.54 2.53606 3.36544 0
M  V30 15639 H 1442.21 1.4335 2.90228 0
M  V30 15640 H 1441.12 3.36854 1.62728 0
M  V30 15641 H 1442.45 4.42335 2.15871 0
M  V30 15642 N 1444.1 -0.461169 1.50702 0
M  V30 15643 C 1445.07 -1.54032 1.69725 0
M  V30 15644 C 1446.07 -1.50445 0.567707 0
M  V30 15645 O 1447.26 -1.52889 0.834901 0
M  V30 15646 C 1444.39 -2.93642 1.73168 0
M  V30 15647 H 1445.58 -1.38478 2.66015 0
M  V30 15648 H 1443.13 -0.688235 1.40332 0
M  V30 15649 H 1443.87 -3.14629 0.786078 0
M  V30 15650 H 1443.65 -2.97652 2.55236 0
M  V30 15651 H 1445.14 -3.71972 1.89807 0
M  V30 15652 N 1445.58 -1.40446 -0.715026 0
M  V30 15653 C 1446.49 -1.43074 -1.85922 0
M  V30 15654 C 1447.51 -0.323294 -1.7097 0
M  V30 15655 O 1448.68 -0.567966 -1.93226 0
M  V30 15656 C 1445.75 -1.29206 -3.21725 0
M  V30 15657 C 1444.81 -2.50097 -3.48927 0
M  V30 15658 C 1444.04 -2.36881 -4.7825 0
M  V30 15659 O 1444.27 -1.38292 -5.53382 0
M  V30 15660 O 1443.2 -3.26266 -5.058 0
M  V30 15661 H 1447.03 -2.39565 -1.86661 0
M  V30 15662 H 1444.61 -1.21775 -0.865522 0
M  V30 15663 H 1446.49 -1.23681 -4.02841 0
M  V30 15664 H 1445.17 -0.358207 -3.21712 0
M  V30 15665 H 1444.07 -2.61199 -2.67817 0
M  V30 15666 H 1445.41 -3.42244 -3.53737 0
M  V30 15667 N 1447.06 0.947303 -1.25952 0
M  V30 15668 C 1447.97 2.07878 -1.08738 0
M  V30 15669 C 1448.99 1.73985 -0.0225212 0
M  V30 15670 O 1450.16 2.00139 -0.224984 0
M  V30 15671 C 1447.23 3.39231 -0.715756 0
M  V30 15672 C 1446.29 3.86945 -1.85935 0
M  V30 15673 C 1445.52 5.1203 -1.50537 0
M  V30 15674 O 1445.74 5.68965 -0.404323 0
M  V30 15675 O 1444.68 5.54634 -2.33805 0
M  V30 15676 H 1448.5 2.25305 -2.03645 0
M  V30 15677 H 1446.09 1.06321 -1.04958 0
M  V30 15678 H 1447.97 4.18167 -0.520962 0
M  V30 15679 H 1446.65 3.23057 0.203978 0
M  V30 15680 H 1445.55 3.08981 -2.10906 0
M  V30 15681 H 1446.89 4.0763 -2.75859 0
M  V30 15682 N 1448.54 1.07657 1.15099 0
M  V30 15683 C 1449.79 0.800025 1.85591 0
M  V30 15684 C 1450.11 -0.675973 1.82909 0
M  V30 15685 O 1449.38 -1.48971 1.27218 0
M  V30 15686 H 1447.96 0.292958 0.687157 0
M  V30 15687 H 1450.62 1.36096 1.39513 0
M  V30 15688 H 1449.72 1.13733 2.90639 0
M  V30 15689 N 1450.02 -1.31994 0.861122 0
M  V30 15690 C 1450.98 -2.27019 0.315421 0
M  V30 15691 C 1451.98 -1.51864 -0.528575 0
M  V30 15692 O 1453.17 -1.70867 -0.339154 0
M  V30 15693 C 1450.3 -3.36384 -0.553021 0
M  V30 15694 H 1451.49 -2.768 1.1542 0
M  V30 15695 H 1449.05 -1.42776 0.635982 0
M  V30 15696 H 1449.78 -2.91882 -1.41335 0
M  V30 15697 H 1449.57 -3.92067 0.0511919 0
M  V30 15698 H 1451.06 -4.07172 -0.927392 0
M  V30 15699 N 1451.49 -0.619688 -1.44906 0
M  V30 15700 C 1452.91 -0.284338 -1.57047 0
M  V30 15701 C 1453.11 1.21284 -1.60911 0
M  V30 15702 O 1452.17 1.99642 -1.54594 0
M  V30 15703 C 1453.48 -0.966179 -2.84755 0
M  V30 15704 C 1455.03 -0.943239 -2.98449 0
M  V30 15705 C 1455.5 -1.60532 -4.28945 0
M  V30 15706 N 1456.99 -1.57138 -4.35732 0
M  V30 15707 C 1457.73 -2.05271 -5.35399 0
M  V30 15708 N 1457.22 -2.61543 -6.41535 0
M  V30 15709 N 1459.02 -1.95967 -5.26833 0
M  V30 15710 H 1451.17 -1.59167 -1.40641 0
M  V30 15711 H 1453.43 -0.667458 -0.673204 0
M  V30 15712 H 1453.14 -2.02086 -2.87844 0
M  V30 15713 H 1453.01 -0.49688 -3.73913 0
M  V30 15714 H 1455.4 0.102932 -2.9492 0
M  V30 15715 H 1455.48 -1.45092 -2.1067 0
M  V30 15716 H 1455.12 -2.65088 -4.33233 0
M  V30 15717 H 1455.05 -1.07256 -5.15561 0
M  V30 15718 H 1457.54 -1.16042 -3.59643 0
M  V30 15719 H 1457.86 -2.96033 -7.13852 0
M  V30 15720 H 1456.2 -2.65588 -6.42252 0
M  V30 15721 H 1459.39 -1.51734 -4.42825 0
M  V30 15722 H 1459.57 -2.33791 -6.04356 0
M  V30 15723 N 1452.97 1.53444 -0.359552 0
M  V30 15724 C 1453.9 2.23121 0.524379 0
M  V30 15725 C 1454.92 1.24324 1.05106 0
M  V30 15726 O 1456.11 1.50584 0.958476 0
M  V30 15727 C 1453.21 2.91055 1.7361 0
M  V30 15728 C 1452.38 4.16306 1.34195 0
M  V30 15729 C 1451.44 4.67504 2.41508 0
M  V30 15730 O 1450.46 5.3133 2.04149 0
M  V30 15731 N 1451.67 4.44801 3.73005 0
M  V30 15732 H 1454.43 2.99612 -0.072427 0
M  V30 15733 H 1451.99 1.60846 -0.184438 0
M  V30 15734 H 1453.98 3.22216 2.44865 0
M  V30 15735 H 1452.55 2.18052 2.23991 0
M  V30 15736 H 1451.77 3.91513 0.459501 0
M  V30 15737 H 1453.06 4.97746 1.05483 0
M  V30 15738 H 1452.46 3.9379 4.06136 0
M  V30 15739 H 1451.02 4.80528 4.40382 0
M  V30 15740 N 1454.45 0.0885642 1.57351 0
M  V30 15741 C 1455.4 -0.872723 2.13664 0
M  V30 15742 C 1456.37 -1.28418 1.05347 0
M  V30 15743 O 1457.55 -1.36709 1.33099 0
M  V30 15744 C 1454.69 -2.12886 2.71613 0
M  V30 15745 C 1453.81 -1.76852 3.94141 0
M  V30 15746 C 1452.94 -2.97203 4.40277 0
M  V30 15747 C 1451.98 -2.57265 5.55411 0
M  V30 15748 N 1451.12 -3.70429 5.96428 0
M  V30 15749 H 1455.96 -0.385644 2.95494 0
M  V30 15750 H 1453.49 -0.178688 1.46011 0
M  V30 15751 H 1455.45 -2.86441 3.03327 0
M  V30 15752 H 1454.08 -2.59105 1.92521 0
M  V30 15753 H 1453.13 -0.932921 3.68783 0
M  V30 15754 H 1454.45 -1.43481 4.77718 0
M  V30 15755 H 1453.6 -3.79019 4.7374 0
M  V30 15756 H 1452.34 -3.3378 3.55587 0
M  V30 15757 H 1451.34 -1.73875 5.21582 0
M  V30 15758 H 1452.57 -2.21839 6.41844 0
M  V30 15759 H 1450.51 -4.06737 5.14686 0
M  V30 15760 H 1450.43 -3.40881 6.74786 0
M  V30 15761 H 1451.7 -4.52774 6.3452 0
M  V30 15762 N 1455.93 -1.56509 -0.185096 0
M  V30 15763 C 1456.86 -1.98363 -1.23184 0
M  V30 15764 C 1457.84 -0.85709 -1.46929 0
M  V30 15765 O 1459.02 -1.12216 -1.58497 0
M  V30 15766 C 1456.15 -2.33172 -2.57387 0
M  V30 15767 C 1455.11 -3.48658 -2.48236 0
M  V30 15768 C 1454.43 -3.69171 -3.86804 0
M  V30 15769 C 1455.73 -4.82538 -1.99885 0
M  V30 15770 H 1457.43 -2.86053 -0.883982 0
M  V30 15771 H 1454.97 -1.37623 -0.423786 0
M  V30 15772 H 1456.93 -2.61048 -3.30805 0
M  V30 15773 H 1455.65 -1.42377 -2.93933 0
M  V30 15774 H 1454.31 -3.20889 -1.77273 0
M  V30 15775 H 1453.96 -2.75689 -4.20719 0
M  V30 15776 H 1453.66 -4.46868 -3.81553 0
M  V30 15777 H 1455.18 -3.99433 -4.61829 0
M  V30 15778 H 1456.6 -5.0938 -2.63068 0
M  V30 15779 H 1454.99 -5.63775 -2.05614 0
M  V30 15780 H 1456.06 -4.75453 -0.952503 0
M  V30 15781 N 1457.41 0.45317 -1.50944 0
M  V30 15782 C 1458.34 1.56678 -1.67287 0
M  V30 15783 C 1459.35 1.53089 -0.553853 0
M  V30 15784 O 1460.54 1.58152 -0.827653 0
M  V30 15785 C 1457.64 2.95585 -1.65779 0
M  V30 15786 C 1456.81 3.2385 -2.94007 0
M  V30 15787 C 1455.87 4.42401 -2.84899 0
M  V30 15788 O 1454.9 4.4183 -3.58853 0
M  V30 15789 N 1456.1 5.4508 -1.99671 0
M  V30 15790 H 1458.87 1.43069 -2.63347 0
M  V30 15791 H 1456.43 0.641875 -1.48632 0
M  V30 15792 H 1458.42 3.7289 -1.57275 0
M  V30 15793 H 1456.99 3.02872 -0.773791 0
M  V30 15794 H 1456.21 2.34991 -3.16501 0
M  V30 15795 H 1457.5 3.39554 -3.7892 0
M  V30 15796 H 1456.89 5.48374 -1.38933 0
M  V30 15797 H 1455.45 6.21298 -1.97057 0
M  V30 15798 N 1458.88 1.40823 0.707568 0
M  V30 15799 C 1459.81 1.44485 1.83429 0
M  V30 15800 C 1460.8 0.304848 1.67346 0
M  V30 15801 O 1461.98 0.514605 1.87258 0
M  V30 15802 C 1459.11 1.31458 3.21459 0
M  V30 15803 C 1458.06 2.43145 3.52228 0
M  V30 15804 C 1457.39 2.15189 4.89487 0
M  V30 15805 C 1458.69 3.85489 3.52414 0
M  V30 15806 H 1460.38 2.38781 1.80622 0
M  V30 15807 H 1457.93 1.14931 0.867572 0
M  V30 15808 H 1459.88 1.32635 3.99983 0
M  V30 15809 H 1458.61 0.336422 3.24863 0
M  V30 15810 H 1457.27 2.41231 2.76049 0
M  V30 15811 H 1456.91 1.15745 4.89502 0
M  V30 15812 H 1456.61 2.90022 5.11039 0
M  V30 15813 H 1458.14 2.18062 5.70334 0
M  V30 15814 H 1459.55 3.89183 4.20963 0
M  V30 15815 H 1457.95 4.59906 3.85495 0
M  V30 15816 H 1459.02 4.14499 2.51632 0
M  V30 15817 N 1460.36 -0.94061 1.26453 0
M  V30 15818 C 1461.27 -2.07298 1.09839 0
M  V30 15819 C 1462.29 -1.73971 0.0317477 0
M  V30 15820 O 1463.46 -2.00017 0.235594 0
M  V30 15821 C 1460.53 -3.38847 0.733736 0
M  V30 15822 C 1459.59 -3.85954 1.87985 0
M  V30 15823 C 1458.82 -5.11224 1.5325 0
M  V30 15824 O 1459.05 -5.68743 0.434491 0
M  V30 15825 O 1457.98 -5.53386 2.36743 0
M  V30 15826 H 1461.81 -2.24222 2.04837 0
M  V30 15827 H 1459.39 -1.05763 1.0552 0
M  V30 15828 H 1461.27 -4.17885 0.543131 0
M  V30 15829 H 1459.95 -3.2316 -0.186843 0
M  V30 15830 H 1458.86 -3.07858 2.12542 0
M  V30 15831 H 1460.19 -4.06162 2.78017 0
M  V30 15832 N 1461.84 -1.08266 -1.14527 0
M  V30 15833 C 1462.79 -0.711332 -2.19565 0
M  V30 15834 C 1463.76 0.301774 -1.63336 0
M  V30 15835 O 1464.94 0.186109 -1.8989 0
M  V30 15836 C 1462.08 -0.125255 -3.44873 0
M  V30 15837 C 1461.2 -1.19096 -4.15259 0
M  V30 15838 C 1460.33 -0.568901 -5.28145 0
M  V30 15839 C 1459.37 -1.61675 -5.90362 0
M  V30 15840 N 1458.51 -1.01659 -6.94701 0
M  V30 15841 H 1463.35 -1.61137 -2.50677 0
M  V30 15842 H 1460.88 -0.805286 -1.231 0
M  V30 15843 H 1462.84 0.232247 -4.16553 0
M  V30 15844 H 1461.47 0.738101 -3.14248 0
M  V30 15845 H 1460.52 -1.66591 -3.41982 0
M  V30 15846 H 1461.84 -1.98508 -4.57598 0
M  V30 15847 H 1460.99 -0.159563 -6.0649 0
M  V30 15848 H 1459.73 0.256884 -4.87023 0
M  V30 15849 H 1458.73 -2.03576 -5.10722 0
M  V30 15850 H 1459.96 -2.44498 -6.33559 0
M  V30 15851 H 1457.9 -0.211872 -6.55658 0
M  V30 15852 H 1457.82 -1.74781 -7.35518 0
M  V30 15853 H 1459.09 -0.63306 -7.76925 0
M  V30 15854 N 1463.32 1.31536 -0.86811 0
M  V30 15855 C 1464.57 1.97066 -0.478829 0
M  V30 15856 C 1464.9 1.68469 0.966021 0
M  V30 15857 O 1464.17 0.980166 1.67997 0
M  V30 15858 C 1464.46 3.52533 -0.734313 0
M  V30 15859 C 1464.31 3.90711 -2.22856 0
M  V30 15860 C 1465.63 4.39647 -0.199559 0
M  V30 15861 H 1462.75 0.715813 -0.175444 0
M  V30 15862 H 1465.39 1.55694 -1.08901 0
M  V30 15863 H 1463.54 3.87905 -0.214962 0
M  V30 15864 H 1465.21 3.65451 -2.81502 0
M  V30 15865 H 1463.45 3.39385 -2.70185 0
M  V30 15866 H 1464.13 4.99103 -2.35797 0
M  V30 15867 H 1466.6 4.11088 -0.643853 0
M  V30 15868 H 1465.48 5.47383 -0.407783 0
M  V30 15869 H 1465.74 4.32875 0.898414 0
M  V30 15870 N 1464.8 0.627364 1.44575 0
M  V30 15871 C 1466.03 0.137313 2.06444 0
M  V30 15872 C 1466.44 -1.18655 1.46855 0
M  V30 15873 O 1465.8 -1.72699 0.590018 0
M  V30 15874 C 1465.85 0.0123481 3.61498 0
M  V30 15875 O 1465.57 1.28385 4.18866 0
M  V30 15876 C 1467.07 -0.506841 4.40393 0
M  V30 15877 H 1464.29 0.0779387 0.666458 0
M  V30 15878 H 1466.83 0.860701 1.85505 0
M  V30 15879 H 1464.99 -0.66146 3.81711 0
M  V30 15880 H 1465.4 1.12626 5.12265 0
M  V30 15881 H 1466.88 -0.543304 5.4932 0
M  V30 15882 H 1467.35 -1.53314 4.11572 0
M  V30 15883 H 1467.96 0.133589 4.2509 0
M  V30 15884 N 1466.28 -1.53251 0.367684 0
M  V30 15885 C 1467.5 -2.05705 -0.222047 0
M  V30 15886 C 1467.92 -1.24104 -1.4228 0
M  V30 15887 O 1467.28 -0.282228 -1.80305 0
M  V30 15888 C 1467.33 -3.56257 -0.613475 0
M  V30 15889 O 1467.05 -4.34765 0.539558 0
M  V30 15890 C 1468.55 -4.24976 -1.26137 0
M  V30 15891 H 1465.77 -0.66989 -0.0385799 0
M  V30 15892 H 1468.31 -1.97602 0.526663 0
M  V30 15893 H 1466.47 -3.64503 -1.3121 0
M  V30 15894 H 1466.88 -5.24027 0.222699 0
M  V30 15895 H 1468.36 -5.31628 -1.4858 0
M  V30 15896 H 1468.83 -3.78828 -2.2223 0
M  V30 15897 H 1469.44 -4.20987 -0.604121 0
M  V30 15898 N 1467.75 -0.0969077 -1.57302 0
M  V30 15899 C 1468.66 0.875561 -2.17649 0
M  V30 15900 C 1469.68 1.30892 -1.14645 0
M  V30 15901 O 1470.86 1.37646 -1.47022 0
M  V30 15902 C 1467.92 2.116 -2.74639 0
M  V30 15903 C 1466.98 1.73667 -3.92604 0
M  V30 15904 C 1466.21 2.91798 -4.46867 0
M  V30 15905 O 1466.44 4.06577 -4.00064 0
M  V30 15906 O 1465.37 2.70159 -5.37864 0
M  V30 15907 H 1469.2 0.392107 -3.01158 0
M  V30 15908 H 1466.78 0.127539 -1.48855 0
M  V30 15909 H 1468.66 2.84292 -3.11057 0
M  V30 15910 H 1467.34 2.58994 -1.94174 0
M  V30 15911 H 1466.25 0.981505 -3.60995 0
M  V30 15912 H 1467.58 1.31035 -4.74437 0
M  V30 15913 N 1469.23 1.56605 0.176793 0
M  V30 15914 C 1470.19 1.95109 1.20271 0
M  V30 15915 C 1471.19 0.83414 1.37473 0
M  V30 15916 O 1472.38 1.10128 1.34972 0
M  V30 15917 C 1469.52 2.24112 2.56878 0
M  V30 15918 H 1470.71 2.86909 0.87312 0
M  V30 15919 H 1468.26 1.50578 0.419033 0
M  V30 15920 H 1469 1.35009 2.94861 0
M  V30 15921 H 1468.78 3.05523 2.45761 0
M  V30 15922 H 1470.27 2.54842 3.30825 0
M  V30 15923 N 1470.71 -0.445159 1.51182 0
M  V30 15924 C 1471.66 -1.53975 1.71931 0
M  V30 15925 C 1472.63 -1.56344 0.560865 0
M  V30 15926 O 1473.81 -1.73475 0.794414 0
M  V30 15927 C 1470.95 -2.91756 1.84316 0
M  V30 15928 C 1470.06 -2.98976 3.11829 0
M  V30 15929 C 1469.2 -4.27831 3.14855 0
M  V30 15930 C 1468.24 -4.2889 4.36715 0
M  V30 15931 N 1467.38 -5.49257 4.37334 0
M  V30 15932 H 1472.22 -1.35586 2.65368 0
M  V30 15933 H 1469.75 -0.658787 1.31523 0
M  V30 15934 H 1471.71 -3.7169 1.89479 0
M  V30 15935 H 1470.34 -3.08721 0.942947 0
M  V30 15936 H 1469.39 -2.11753 3.16014 0
M  V30 15937 H 1470.7 -2.95619 4.01759 0
M  V30 15938 H 1469.86 -5.16134 3.1889 0
M  V30 15939 H 1468.6 -4.33833 2.228 0
M  V30 15940 H 1467.6 -3.38982 4.32864 0
M  V30 15941 H 1468.83 -4.24558 5.30026 0
M  V30 15942 H 1466.77 -5.55995 3.48145 0
M  V30 15943 H 1466.69 -5.47748 5.21064 0
M  V30 15944 H 1467.96 -6.39613 4.45551 0
M  V30 15945 N 1472.19 -1.41197 -0.700089 0
M  V30 15946 C 1473.12 -1.37101 -1.82424 0
M  V30 15947 C 1474.1 -0.238956 -1.60835 0
M  V30 15948 O 1475.28 -0.425136 -1.83643 0
M  V30 15949 C 1472.41 -1.13748 -3.19028 0
M  V30 15950 C 1471.46 -2.29612 -3.59417 0
M  V30 15951 S 1472.29 -3.92074 -3.64744 0
M  V30 15952 C 1473.44 -3.71015 -5.04082 0
M  V30 15953 H 1473.68 -2.32234 -1.8562 0
M  V30 15954 H 1471.21 -1.27667 -0.868367 0
M  V30 15955 H 1473.17 -1.0096 -3.97891 0
M  V30 15956 H 1471.83 -0.202435 -3.13447 0
M  V30 15957 H 1471.02 -2.08954 -4.58644 0
M  V30 15958 H 1470.62 -2.38783 -2.87851 0
M  V30 15959 H 1472.92 -3.30441 -5.91452 0
M  V30 15960 H 1473.86 -4.69828 -5.29781 0
M  V30 15961 H 1474.27 -3.04382 -4.75407 0
M  V30 15962 N 1473.67 0.933891 -1.2695 0
M  V30 15963 C 1474.61 2.03365 -1.09139 0
M  V30 15964 C 1475.58 1.66099 0.00573029 0
M  V30 15965 O 1476.77 1.90166 -0.155425 0
M  V30 15966 C 1473.91 3.37114 -0.738117 0
M  V30 15967 C 1473.02 3.87372 -1.91224 0
M  V30 15968 C 1472.16 5.0954 -1.50141 0
M  V30 15969 C 1471.19 5.52079 -2.64339 0
M  V30 15970 N 1470.33 6.65446 -2.23887 0
M  V30 15971 H 1475.17 2.17932 -2.03248 0
M  V30 15972 H 1472.71 1.0677 -1.01186 0
M  V30 15973 H 1474.67 4.1402 -0.514141 0
M  V30 15974 H 1473.3 3.22373 0.166007 0
M  V30 15975 H 1472.35 3.06801 -2.24894 0
M  V30 15976 H 1473.66 4.14875 -2.76912 0
M  V30 15977 H 1472.81 5.93928 -1.23831 0
M  V30 15978 H 1471.55 4.838 -0.615539 0
M  V30 15979 H 1470.56 4.66244 -2.9137 0
M  V30 15980 H 1471.78 5.79817 -3.53537 0
M  V30 15981 H 1469.73 6.41376 -1.37744 0
M  V30 15982 H 1469.65 6.92573 -3.03116 0
M  V30 15983 H 1470.91 7.53191 -2.00809 0
M  V30 15984 N 1475.14 1.08871 1.13951 0
M  V30 15985 C 1476.09 0.722966 2.19184 0
M  V30 15986 C 1477.06 -0.293108 1.63493 0
M  V30 15987 O 1478.25 -0.176036 1.89986 0
M  V30 15988 C 1475.39 0.143542 3.44801 0
M  V30 15989 C 1474.5 1.21297 4.14622 0
M  V30 15990 C 1473.63 0.596902 5.27836 0
M  V30 15991 C 1472.67 1.64803 5.89497 0
M  V30 15992 N 1471.81 1.05341 6.94152 0
M  V30 15993 H 1476.65 1.62464 2.49819 0
M  V30 15994 H 1474.19 0.811803 1.22671 0
M  V30 15995 H 1476.14 -0.210153 4.1667 0
M  V30 15996 H 1474.77 -0.721426 3.14635 0
M  V30 15997 H 1473.83 1.68403 3.41093 0
M  V30 15998 H 1475.14 2.00931 4.56539 0
M  V30 15999 H 1474.29 0.191724 6.06397 0
M  V30 16000 H 1473.03 -0.231052 4.87152 0
M  V30 16001 H 1472.04 2.06282 5.09635 0
M  V30 16002 H 1473.26 2.47855 6.32254 0
M  V30 16003 H 1471.21 0.24664 6.55536 0
M  V30 16004 H 1471.12 1.7868 7.34581 0
M  V30 16005 H 1472.39 0.674253 7.76578 0
M  V30 16006 N 1476.62 -1.31073 0.875073 0
M  V30 16007 C 1477.87 -1.96518 0.488549 0
M  V30 16008 C 1478.2 -1.69144 -0.960243 0
M  V30 16009 O 1477.45 -0.983344 -1.69201 0
M  V30 16010 C 1477.75 -3.50511 0.698351 0
M  V30 16011 C 1477.42 -3.97915 2.12071 0
M  V30 16012 C 1476.08 -4.10571 2.50968 0
M  V30 16013 C 1478.43 -4.22777 3.0481 0
M  V30 16014 C 1475.76 -4.45442 3.81836 0
M  V30 16015 C 1478.11 -4.59114 4.35198 0
M  V30 16016 C 1476.77 -4.69977 4.74002 0
M  V30 16017 H 1476.04 -0.719111 0.178773 0
M  V30 16018 H 1478.69 -1.56117 1.10904 0
M  V30 16019 H 1477 -3.918 -0.00523937 0
M  V30 16020 H 1478.69 -3.99205 0.379031 0
M  V30 16021 H 1475.28 -3.88565 1.80874 0
M  V30 16022 H 1479.47 -4.12489 2.75983 0
M  V30 16023 H 1474.72 -4.52051 4.11655 0
M  V30 16024 H 1478.9 -4.77303 5.07105 0
M  V30 16025 H 1476.52 -4.96753 5.75448 0
M  V30 16026 N 1478.1 -0.635022 -1.4424 0
M  V30 16027 C 1479.01 0.0686832 -2.34499 0
M  V30 16028 C 1480.03 0.831574 -1.52843 0
M  V30 16029 O 1481.2 0.782954 -1.85558 0
M  V30 16030 C 1478.27 1.03543 -3.30877 0
M  V30 16031 C 1477.33 0.271484 -4.28441 0
M  V30 16032 C 1476.56 1.19218 -5.20214 0
M  V30 16033 O 1476.78 2.43101 -5.16002 0
M  V30 16034 O 1475.72 0.6744 -5.9811 0
M  V30 16035 H 1479.54 -0.673781 -2.96132 0
M  V30 16036 H 1477.13 -0.395211 -1.44078 0
M  V30 16037 H 1479.01 1.59151 -3.90191 0
M  V30 16038 H 1477.69 1.75844 -2.71773 0
M  V30 16039 H 1476.59 -0.327736 -3.72662 0
M  V30 16040 H 1477.93 -0.411584 -4.90476 0
M  V30 16041 N 1479.58 1.53054 -0.375806 0
M  V30 16042 C 1480.49 2.29772 0.47349 0
M  V30 16043 C 1481.5 1.36144 1.08355 0
M  V30 16044 O 1482.68 1.69208 1.09228 0
M  V30 16045 C 1479.75 3.07964 1.59245 0
M  V30 16046 C 1478.81 4.17277 1.00888 0
M  V30 16047 C 1478.04 4.91731 2.07451 0
M  V30 16048 O 1478.26 4.66143 3.28736 0
M  V30 16049 O 1477.2 5.77413 1.69936 0
M  V30 16050 H 1481.02 3.03324 -0.151105 0
M  V30 16051 H 1478.61 1.48744 -0.139895 0
M  V30 16052 H 1480.49 3.56759 2.24279 0
M  V30 16053 H 1479.16 2.37239 2.20226 0
M  V30 16054 H 1478.07 3.7271 0.322167 0
M  V30 16055 H 1479.4 4.90198 0.443483 0
M  V30 16056 N 1481.06 0.105248 1.57248 0
M  V30 16057 C 1482.33 -0.598871 1.86207 0
M  V30 16058 C 1482.71 -1.85698 1.00396 0
M  V30 16059 O 1482.06 -2.28363 0.0791093 0
M  V30 16060 C 1482.27 -0.904522 3.37075 0
M  V30 16061 C 1483.62 -1.26357 4.05363 0
M  V30 16062 O 1484.64 -0.99522 3.42014 0
M  V30 16063 O 1483.5 -1.76659 5.17159 0
M  V30 16064 H 1480.6 -0.300727 0.770384 0
M  V30 16065 H 1483.14 0.138713 1.69132 0
M  V30 16066 H 1481.91 -0.0123974 3.91298 0
M  V30 16067 H 1481.54 -1.69774 3.59531 0
M  V30 16068 N 1482.53 -1.56697 -0.168486 0
M  V30 16069 C 1483.46 -1.99659 -1.21073 0
M  V30 16070 C 1484.45 -0.872625 -1.46011 0
M  V30 16071 O 1485.63 -1.13891 -1.57297 0
M  V30 16072 C 1482.76 -2.35889 -2.54899 0
M  V30 16073 C 1481.71 -3.51272 -2.44524 0
M  V30 16074 C 1481.04 -3.73253 -3.82866 0
M  V30 16075 C 1482.34 -4.84631 -1.94756 0
M  V30 16076 H 1484.03 -2.86974 -0.853593 0
M  V30 16077 H 1481.58 -1.38065 -0.409165 0
M  V30 16078 H 1483.53 -2.64542 -3.28017 0
M  V30 16079 H 1482.26 -1.45486 -2.92406 0
M  V30 16080 H 1480.92 -3.22751 -1.7386 0
M  V30 16081 H 1480.56 -2.80136 -4.17772 0
M  V30 16082 H 1480.26 -4.5089 -3.76792 0
M  V30 16083 H 1481.79 -4.04309 -4.57566 0
M  V30 16084 H 1483.2 -5.12142 -2.5765 0
M  V30 16085 H 1481.6 -5.65925 -1.99623 0
M  V30 16086 H 1482.67 -4.76436 -0.902021 0
M  V30 16087 N 1484.01 0.437135 -1.51416 0
M  V30 16088 C 1484.94 1.538 -1.75692 0
M  V30 16089 C 1485.92 1.5891 -0.606759 0
M  V30 16090 O 1487.11 1.74635 -0.849492 0
M  V30 16091 C 1484.24 2.91877 -1.88215 0
M  V30 16092 C 1483.19 3.01628 -3.03652 0
M  V30 16093 C 1482.52 4.41687 -3.01358 0
M  V30 16094 C 1483.82 2.75691 -4.43612 0
M  V30 16095 H 1485.51 1.33737 -2.67871 0
M  V30 16096 H 1483.06 0.641936 -1.289 0
M  V30 16097 H 1485.01 3.68851 -2.03781 0
M  V30 16098 H 1483.74 3.13173 -0.926847 0
M  V30 16099 H 1482.39 2.27094 -2.87791 0
M  V30 16100 H 1482.04 4.5995 -2.03605 0
M  V30 16101 H 1481.74 4.49141 -3.78875 0
M  V30 16102 H 1483.27 5.20634 -3.19018 0
M  V30 16103 H 1484.68 3.42398 -4.59822 0
M  V30 16104 H 1483.08 2.94554 -5.22836 0
M  V30 16105 H 1484.15 1.71297 -4.53636 0
M  V30 16106 N 1485.49 1.41566 0.692592 0
M  V30 16107 C 1486.42 1.46423 1.81886 0
M  V30 16108 C 1487.4 0.32258 1.67013 0
M  V30 16109 O 1488.59 0.534437 1.86701 0
M  V30 16110 C 1485.72 1.3486 3.20047 0
M  V30 16111 C 1484.67 2.46867 3.49629 0
M  V30 16112 C 1484 2.20369 4.87177 0
M  V30 16113 C 1485.3 3.89205 3.48306 0
M  V30 16114 H 1486.99 2.40683 1.78079 0
M  V30 16115 H 1484.54 1.15845 0.855334 0
M  V30 16116 H 1486.49 1.36869 3.98553 0
M  V30 16117 H 1485.21 0.370859 3.24488 0
M  V30 16118 H 1483.87 2.44146 2.73475 0
M  V30 16119 H 1483.52 1.20931 4.88247 0
M  V30 16120 H 1483.22 2.95426 5.07934 0
M  V30 16121 H 1484.74 2.24099 5.6799 0
M  V30 16122 H 1486.16 3.93626 4.16811 0
M  V30 16123 H 1484.56 4.63969 3.80595 0
M  V30 16124 H 1485.63 4.17144 2.47222 0
M  V30 16125 N 1486.97 -0.927146 1.27443 0
M  V30 16126 C 1487.9 -2.04483 1.12735 0
M  V30 16127 C 1488.88 -1.70076 0.0286662 0
M  V30 16128 O 1490.06 -1.93133 0.203252 0
M  V30 16129 C 1487.19 -3.38557 0.774352 0
M  V30 16130 C 1486.15 -3.87078 1.82632 0
M  V30 16131 C 1485.47 -5.17964 1.32729 0
M  V30 16132 C 1486.77 -4.10409 3.23051 0
M  V30 16133 H 1488.47 -2.17046 2.06231 0
M  V30 16134 H 1486.01 -1.04292 0.992937 0
M  V30 16135 H 1487.97 -4.16227 0.658273 0
M  V30 16136 H 1486.69 -3.26009 -0.196321 0
M  V30 16137 H 1485.35 -3.11602 1.93132 0
M  V30 16138 H 1485 -5.01808 0.346059 0
M  V30 16139 H 1484.7 -5.51398 2.03061 0
M  V30 16140 H 1486.22 -5.98203 1.22416 0
M  V30 16141 H 1487.64 -4.78646 3.15549 0
M  V30 16142 H 1486.03 -4.5515 3.91099 0
M  V30 16143 H 1487.1 -3.15685 3.68064 0
M  V30 16144 N 1488.45 -1.09474 -1.13372 0
M  V30 16145 C 1489.36 -0.746674 -2.224 0
M  V30 16146 C 1490.37 0.251572 -1.72172 0
M  V30 16147 O 1491.55 0.092793 -2.01186 0
M  V30 16148 C 1488.61 -0.172965 -3.46268 0
M  V30 16149 C 1487.67 -1.22722 -4.11385 0
M  V30 16150 C 1486.91 -0.680794 -5.2934 0
M  V30 16151 O 1487.13 0.496135 -5.68238 0
M  V30 16152 O 1486.06 -1.43605 -5.84518 0
M  V30 16153 H 1489.89 -1.65649 -2.54547 0
M  V30 16154 H 1487.48 -0.869172 -1.21514 0
M  V30 16155 H 1489.36 0.143629 -4.21155 0
M  V30 16156 H 1488.03 0.709853 -3.15821 0
M  V30 16157 H 1486.94 -1.59652 -3.38323 0
M  V30 16158 H 1488.27 -2.0827 -4.45965 0
M  V30 16159 N 1489.92 1.30607 -0.882012 0
M  V30 16160 C 1491.2 1.91056 -0.419153 0
M  V30 16161 C 1491.58 1.80185 1.09985 0
M  V30 16162 O 1490.93 1.21717 1.93384 0
M  V30 16163 C 1491.14 3.3682 -0.913949 0
M  V30 16164 C 1492.49 4.13901 -0.947169 0
M  V30 16165 O 1493.51 3.45652 -0.860412 0
M  V30 16166 O 1492.37 5.35826 -1.07483 0
M  V30 16167 H 1489.46 0.81709 -0.127645 0
M  V30 16168 H 1492.01 1.39195 -0.970717 0
M  V30 16169 H 1490.78 3.38804 -1.95774 0
M  V30 16170 H 1490.41 3.96132 -0.34138 0
M  V30 16171 N 1491.4 0.642663 1.43901 0
M  V30 16172 C 1492.33 -0.0938945 2.29008 0
M  V30 16173 C 1493.35 -0.797561 1.41925 0
M  V30 16174 O 1494.54 -0.65708 1.65966 0
M  V30 16175 C 1491.64 -1.15564 3.18588 0
M  V30 16176 C 1490.81 -0.532208 4.3415 0
M  V30 16177 C 1489.87 -1.48943 5.0468 0
M  V30 16178 O 1488.89 -1.00211 5.60309 0
M  V30 16179 N 1490.1 -2.82362 5.072 0
M  V30 16180 H 1492.86 0.636539 2.92862 0
M  V30 16181 H 1490.42 0.484665 1.54475 0
M  V30 16182 H 1492.41 -1.79658 3.62636 0
M  V30 16183 H 1490.98 -1.78816 2.56405 0
M  V30 16184 H 1490.2 0.287598 3.93149 0
M  V30 16185 H 1491.49 -0.0965526 5.08708 0
M  V30 16186 H 1490.89 -3.24524 4.63358 0
M  V30 16187 H 1489.45 -3.41786 5.55001 0
M  V30 16188 N 1492.88 -1.52852 0.383918 0
M  V30 16189 C 1493.83 -2.27828 -0.468762 0
M  V30 16190 C 1494.82 -1.31516 -1.0677 0
M  V30 16191 O 1496.03 -1.49075 -1.0088 0
M  V30 16192 H 1492.4 -0.732552 -0.169917 0
M  V30 16193 H 1494.38 -2.97825 0.185124 0
M  V30 16194 C 1493.12 -3.09378 -1.58683 0
M  V30 16195 H 1492.45 -3.83343 -1.13527 0
M  V30 16196 H 1493.89 -3.64987 -2.15779 0
M  V30 16197 C 1492.35 -2.21354 -2.53976 0
M  V30 16198 O 1492.88 -1.83668 -3.57252 0
M  V30 16199 N 1491.08 -1.85621 -2.23591 0
M  V30 16200 H 1490.63 -2.16467 -1.39642 0
M  V30 16201 H 1490.59 -1.27015 -2.87602 0
M  V30 16202 N 1494.36 -0.113586 -1.5719 0
M  V30 16203 C 1495.58 0.556928 -1.99783 0
M  V30 16204 C 1496.01 1.59774 -0.992669 0
M  V30 16205 O 1495.37 1.81263 0.0363821 0
M  V30 16206 C 1495.42 1.16463 -3.41275 0
M  V30 16207 O 1494.52 2.28024 -3.43626 0
M  V30 16208 H 1493.86 0.139628 -0.649153 0
M  V30 16209 H 1496.39 -0.200462 -2.03616 0
M  V30 16210 H 1496.4 1.50147 -3.79368 0
M  V30 16211 H 1495.08 0.402232 -4.1395 0
M  V30 16212 H 1493.65 1.9582 -3.17347 0
M  V30 16213 N 1495.84 1.56784 0.160173 0
M  V30 16214 C 1496.78 1.97267 1.1981 0
M  V30 16215 C 1497.75 0.83824 1.43397 0
M  V30 16216 O 1498.94 1.09926 1.55952 0
M  V30 16217 C 1496.08 2.34725 2.52979 0
M  V30 16218 C 1495.19 3.61397 2.36677 0
M  V30 16219 C 1494.33 3.88018 3.62789 0
M  V30 16220 C 1493.37 5.08002 3.41468 0
M  V30 16221 N 1492.5 5.30699 4.59677 0
M  V30 16222 H 1497.34 2.85743 0.845878 0
M  V30 16223 H 1494.88 1.41379 0.406249 0
M  V30 16224 H 1496.84 2.54468 3.30608 0
M  V30 16225 H 1495.47 1.49345 2.86175 0
M  V30 16226 H 1494.52 3.49505 1.50167 0
M  V30 16227 H 1495.83 4.49185 2.16875 0
M  V30 16228 H 1494.99 4.08188 4.48851 0
M  V30 16229 H 1493.73 2.98627 3.85582 0
M  V30 16230 H 1492.73 4.87718 2.53793 0
M  V30 16231 H 1493.96 5.98934 3.20086 0
M  V30 16232 H 1491.9 4.44261 4.82668 0
M  V30 16233 H 1491.82 6.1273 4.42829 0
M  V30 16234 H 1493.09 5.55357 5.46991 0
M  V30 16235 N 1497.32 -0.429099 1.51646 0
M  V30 16236 C 1498.25 -1.52867 1.76505 0
M  V30 16237 C 1499.23 -1.58586 0.615178 0
M  V30 16238 O 1500.41 -1.74182 0.858742 0
M  V30 16239 C 1497.54 -2.90875 1.8976 0
M  V30 16240 C 1496.5 -3.00014 3.05247 0
M  V30 16241 C 1495.82 -4.40082 3.03696 0
M  V30 16242 C 1497.12 -2.73334 4.45068 0
M  V30 16243 H 1498.82 -1.32315 2.68576 0
M  V30 16244 H 1496.36 -0.635091 1.29238 0
M  V30 16245 H 1498.31 -3.67765 2.05734 0
M  V30 16246 H 1497.04 -3.12677 0.943442 0
M  V30 16247 H 1495.7 -2.25565 2.88991 0
M  V30 16248 H 1495.35 -4.58864 2.06042 0
M  V30 16249 H 1495.05 -4.47125 3.81252 0
M  V30 16250 H 1496.57 -5.18935 3.21774 0
M  V30 16251 H 1497.98 -3.39954 4.61632 0
M  V30 16252 H 1496.38 -2.91777 5.24391 0
M  V30 16253 H 1497.45 -1.68889 4.54538 0
M  V30 16254 N 1498.79 -1.41931 -0.685074 0
M  V30 16255 C 1500.02 -1.45432 -1.47866 0
M  V30 16256 C 1500.44 -0.0641302 -1.87991 0
M  V30 16257 O 1499.8 0.935081 -1.55325 0
M  V30 16258 C 1499.85 -2.37801 -2.71077 0
M  V30 16259 O 1498.95 -1.84229 -3.68963 0
M  V30 16260 H 1498.29 -0.493156 -0.444627 0
M  V30 16261 H 1500.82 -1.86508 -0.841177 0
M  V30 16262 H 1500.83 -2.54033 -3.19266 0
M  V30 16263 H 1499.51 -3.38807 -2.41211 0
M  V30 16264 H 1498.09 -1.775 -3.27945 0
M  V30 16265 N 1500.27 0.920374 -1.27933 0
M  V30 16266 C 1501.22 2.02196 -1.1129 0
M  V30 16267 C 1502.19 1.66096 -0.0118871 0
M  V30 16268 O 1503.37 1.8999 -0.175586 0
M  V30 16269 C 1500.51 3.36312 -0.77383 0
M  V30 16270 C 1499.63 3.85322 -1.95322 0
M  V30 16271 C 1498.76 5.07919 -1.55537 0
M  V30 16272 C 1497.8 5.49244 -2.7018 0
M  V30 16273 N 1496.94 6.63034 -2.30933 0
M  V30 16274 H 1501.78 2.15764 -2.05548 0
M  V30 16275 H 1499.31 1.05691 -1.02312 0
M  V30 16276 H 1501.27 4.13451 -0.558024 0
M  V30 16277 H 1499.9 3.22531 0.131806 0
M  V30 16278 H 1498.95 3.04399 -2.28135 0
M  V30 16279 H 1500.27 4.11915 -2.81296 0
M  V30 16280 H 1499.42 5.92581 -1.30123 0
M  V30 16281 H 1498.16 4.8312 -0.666818 0
M  V30 16282 H 1497.16 4.63127 -2.96299 0
M  V30 16283 H 1498.39 5.76035 -3.59667 0
M  V30 16284 H 1496.34 6.39878 -1.44539 0
M  V30 16285 H 1496.25 6.89319 -3.10444 0
M  V30 16286 H 1497.52 7.51018 -2.08786 0
M  V30 16287 N 1501.75 1.10074 1.1279 0
M  V30 16288 C 1502.66 0.758458 2.22001 0
M  V30 16289 C 1503.68 -0.242438 1.72303 0
M  V30 16290 O 1504.85 -0.0821223 2.01233 0
M  V30 16291 C 1501.92 0.191326 3.46172 0
M  V30 16292 C 1500.98 1.24902 4.10729 0
M  V30 16293 C 1500.21 0.708857 5.28972 0
M  V30 16294 O 1500.43 -0.465993 5.68493 0
M  V30 16295 O 1499.37 1.46703 5.83748 0
M  V30 16296 H 1503.19 1.66997 2.53665 0
M  V30 16297 H 1500.78 0.875604 1.21052 0
M  V30 16298 H 1502.66 -0.121292 4.21225 0
M  V30 16299 H 1501.34 -0.693094 3.16193 0
M  V30 16300 H 1500.24 1.61444 3.37471 0
M  V30 16301 H 1501.58 2.10632 4.44854 0
M  V30 16302 N 1503.23 -1.30138 0.888926 0
M  V30 16303 C 1504.64 -1.48552 0.583486 0
M  V30 16304 C 1504.84 -1.81376 -0.877781 0
M  V30 16305 O 1503.9 -1.90374 -1.65873 0
M  V30 16306 C 1505.21 -2.60613 1.50004 0
M  V30 16307 C 1506.76 -2.74493 1.50409 0
M  V30 16308 C 1507.24 -3.89672 2.40666 0
M  V30 16309 N 1508.73 -3.96988 2.38652 0
M  V30 16310 C 1509.46 -4.85429 3.05199 0
M  V30 16311 N 1508.96 -5.78638 3.80985 0
M  V30 16312 N 1510.75 -4.78831 2.9441 0
M  V30 16313 H 1502.9 -1.07105 1.83418 0
M  V30 16314 H 1505.16 -0.530991 0.785336 0
M  V30 16315 H 1504.87 -2.43191 2.54069 0
M  V30 16316 H 1504.74 -3.5718 1.21254 0
M  V30 16317 H 1507.13 -2.91318 0.470933 0
M  V30 16318 H 1507.21 -1.78535 1.83191 0
M  V30 16319 H 1506.86 -3.73603 3.44069 0
M  V30 16320 H 1506.79 -4.84975 2.05198 0
M  V30 16321 H 1509.28 -3.30313 1.83581 0
M  V30 16322 H 1509.59 -6.42894 4.28844 0
M  V30 16323 H 1507.94 -5.78558 3.85092 0
M  V30 16324 H 1511.13 -4.04995 2.34727 0
M  V30 16325 H 1511.3 -5.47547 3.46549 0
M  V30 16326 N 1504.71 -0.650285 -1.43559 0
M  V30 16327 C 1505.65 0.043098 -2.3076 0
M  V30 16328 C 1506.62 0.81763 -1.44582 0
M  V30 16329 O 1507.81 0.794825 -1.73457 0
M  V30 16330 C 1504.95 1.00557 -3.30125 0
M  V30 16331 C 1504.06 0.227448 -4.31401 0
M  V30 16332 C 1503.2 1.18345 -5.17849 0
M  V30 16333 C 1502.23 0.395596 -6.1082 0
M  V30 16334 N 1501.37 1.30304 -6.89902 0
M  V30 16335 H 1506.21 -0.706402 -2.89506 0
M  V30 16336 H 1503.75 -0.360118 -1.42624 0
M  V30 16337 H 1505.71 1.57717 -3.8624 0
M  V30 16338 H 1504.34 1.72198 -2.73034 0
M  V30 16339 H 1503.39 -0.460391 -3.77604 0
M  V30 16340 H 1504.7 -0.385316 -4.9731 0
M  V30 16341 H 1503.85 1.82578 -5.78576 0
M  V30 16342 H 1502.59 1.83013 -4.52059 0
M  V30 16343 H 1501.6 -0.260099 -5.49184 0
M  V30 16344 H 1502.82 -0.246633 -6.78652 0
M  V30 16345 H 1500.77 1.93657 -6.26764 0
M  V30 16346 H 1500.69 0.744768 -7.52323 0
M  V30 16347 H 1501.95 1.93361 -7.55137 0
M  V30 16348 N 1506.18 1.52647 -0.392018 0
M  V30 16349 C 1507.11 2.29446 0.433228 0
M  V30 16350 C 1508.09 1.32945 1.06111 0
M  V30 16351 O 1509.28 1.61841 1.07337 0
M  V30 16352 C 1506.41 3.10328 1.55929 0
M  V30 16353 C 1505.36 4.14735 1.05731 0
M  V30 16354 C 1504.69 4.83858 2.27565 0
M  V30 16355 C 1505.99 5.22154 0.123346 0
M  V30 16356 H 1507.68 2.9868 -0.207563 0
M  V30 16357 H 1505.23 1.43643 -0.101266 0
M  V30 16358 H 1507.18 3.62814 2.14346 0
M  V30 16359 H 1505.91 2.38832 2.22771 0
M  V30 16360 H 1504.57 3.63234 0.495653 0
M  V30 16361 H 1504.21 4.08907 2.92923 0
M  V30 16362 H 1503.91 5.54428 1.94637 0
M  V30 16363 H 1505.44 5.39149 2.86619 0
M  V30 16364 H 1506.85 5.69983 0.615784 0
M  V30 16365 H 1505.25 5.99987 -0.116304 0
M  V30 16366 H 1506.32 4.77796 -0.826969 0
M  V30 16367 N 1507.66 0.121921 1.57128 0
M  V30 16368 C 1508.59 -0.823788 2.18486 0
M  V30 16369 C 1509.57 -1.27519 1.12574 0
M  V30 16370 O 1510.76 -1.33727 1.40822 0
M  V30 16371 C 1507.89 -2.07284 2.78659 0
M  V30 16372 C 1506.84 -1.75912 3.90178 0
M  V30 16373 C 1506.17 -3.07871 4.37172 0
M  V30 16374 C 1507.47 -1.02517 5.1214 0
M  V30 16375 H 1509.16 -0.312488 2.97765 0
M  V30 16376 H 1506.71 -0.148862 1.43228 0
M  V30 16377 H 1508.66 -2.73903 3.20242 0
M  V30 16378 H 1507.39 -2.60743 1.96673 0
M  V30 16379 H 1506.04 -1.11681 3.49174 0
M  V30 16380 H 1505.69 -3.59271 3.52041 0
M  V30 16381 H 1505.39 -2.87653 5.12376 0
M  V30 16382 H 1506.92 -3.75604 4.81409 0
M  V30 16383 H 1508.33 -1.59295 5.50725 0
M  V30 16384 H 1506.73 -0.923836 5.92946 0
M  V30 16385 H 1507.8 -0.0124219 4.84898 0
M  V30 16386 N 1509.14 -1.56867 -0.151857 0
M  V30 16387 C 1510.05 -2.01157 -1.20718 0
M  V30 16388 C 1511.07 -0.926166 -1.47303 0
M  V30 16389 O 1512.24 -1.23528 -1.59069 0
M  V30 16390 C 1509.31 -2.37915 -2.52185 0
M  V30 16391 C 1508.37 -3.60381 -2.3329 0
M  V30 16392 C 1507.6 -3.95376 -3.58488 0
M  V30 16393 O 1507.82 -3.31093 -4.64471 0
M  V30 16394 O 1506.76 -4.88645 -3.5144 0
M  V30 16395 H 1510.58 -2.91234 -0.861175 0
M  V30 16396 H 1508.17 -1.44993 -0.360213 0
M  V30 16397 H 1510.05 -2.6244 -3.29702 0
M  V30 16398 H 1508.73 -1.50995 -2.86325 0
M  V30 16399 H 1507.63 -3.4105 -1.5374 0
M  V30 16400 H 1508.97 -4.47903 -2.04067 0
M  V30 16401 N 1510.62 0.421051 -1.51871 0
M  V30 16402 C 1511.9 1.18133 -1.55897 0
M  V30 16403 C 1512.28 2.08459 -0.332876 0
M  V30 16404 O 1511.62 2.18114 0.681052 0
M  V30 16405 C 1511.83 1.96902 -2.88151 0
M  V30 16406 C 1513.18 2.53382 -3.4071 0
M  V30 16407 O 1514.21 2.07095 -2.89811 0
M  V30 16408 O 1513.06 3.37846 -4.29561 0
M  V30 16409 H 1510.16 0.538721 -0.627462 0
M  V30 16410 H 1512.7 0.428798 -1.64193 0
M  V30 16411 H 1511.48 1.30659 -3.68841 0
M  V30 16412 H 1511.1 2.79185 -2.83093 0
M  V30 16413 N 1512.1 1.42293 0.677538 0
M  V30 16414 C 1513.51 1.25158 0.990334 0
M  V30 16415 C 1513.71 0.153803 2.00912 0
M  V30 16416 O 1512.77 -0.475868 2.47975 0
M  V30 16417 C 1514.08 2.60745 1.49775 0
M  V30 16418 C 1515.63 2.68077 1.61566 0
M  V30 16419 C 1516.1 4.04024 2.15705 0
M  V30 16420 N 1517.6 4.05964 2.23042 0
M  V30 16421 C 1518.33 5.07968 2.66 0
M  V30 16422 N 1517.83 6.20356 3.08432 0
M  V30 16423 N 1519.62 4.95325 2.65725 0
M  V30 16424 H 1511.77 2.124 0.00295822 0
M  V30 16425 H 1514.03 0.945848 0.06384 0
M  V30 16426 H 1513.74 3.41919 0.823672 0
M  V30 16427 H 1513.61 2.84476 2.47695 0
M  V30 16428 H 1516 1.87251 2.28082 0
M  V30 16429 H 1516.08 2.48137 0.621434 0
M  V30 16430 H 1515.73 4.85306 1.498 0
M  V30 16431 H 1515.66 4.21314 3.15914 0
M  V30 16432 H 1518.15 3.24827 1.93122 0
M  V30 16433 H 1518.46 6.94043 3.39889 0
M  V30 16434 H 1516.8 6.23865 3.06296 0
M  V30 16435 H 1520 4.06599 2.31936 0
M  V30 16436 H 1520.17 5.74954 2.98884 0
M  V30 16437 N 1513.57 -0.913576 1.28419 0
M  V30 16438 C 1514.5 -2.03275 1.14897 0
M  V30 16439 C 1515.49 -1.70036 0.0467034 0
M  V30 16440 O 1516.67 -1.92907 0.223725 0
M  V30 16441 C 1513.8 -3.37717 0.810217 0
M  V30 16442 C 1512.75 -3.85119 1.86728 0
M  V30 16443 C 1512.08 -5.16527 1.38215 0
M  V30 16444 C 1513.38 -4.06959 3.27386 0
M  V30 16445 H 1515.07 -2.14847 2.08522 0
M  V30 16446 H 1512.62 -1.03233 1.00394 0
M  V30 16447 H 1514.57 -4.15505 0.702382 0
M  V30 16448 H 1513.3 -3.26199 -0.161732 0
M  V30 16449 H 1511.96 -3.09536 1.96426 0
M  V30 16450 H 1511.6 -5.01413 0.399263 0
M  V30 16451 H 1511.3 -5.49213 2.08898 0
M  V30 16452 H 1512.83 -5.96871 1.28754 0
M  V30 16453 H 1514.24 -4.75272 3.20608 0
M  V30 16454 H 1512.64 -4.50977 3.95904 0
M  V30 16455 H 1513.71 -3.11764 3.71391 0
M  V30 16456 N 1515.05 -1.1067 -1.12204 0
M  V30 16457 C 1516.02 -0.761145 -2.16193 0
M  V30 16458 C 1517.02 0.215599 -1.59348 0
M  V30 16459 O 1518.21 -0.00786723 -1.74198 0
M  V30 16460 C 1515.34 -0.127863 -3.4066 0
M  V30 16461 H 1516.53 -1.68225 -2.48275 0
M  V30 16462 H 1514.08 -0.907542 -1.27253 0
M  V30 16463 H 1514.82 0.803851 -3.14179 0
M  V30 16464 H 1514.6 -0.83085 -3.83196 0
M  V30 16465 H 1516.09 0.0980593 -4.17485 0
M  V30 16466 N 1516.53 1.29665 -0.895815 0
M  V30 16467 C 1517.44 2.31582 -0.375086 0
M  V30 16468 C 1518.46 1.65789 0.528196 0
M  V30 16469 O 1519.63 1.96999 0.41871 0
M  V30 16470 C 1516.7 3.44472 0.39241 0
M  V30 16471 C 1515.76 4.25866 -0.541926 0
M  V30 16472 C 1514.99 5.33365 0.189037 0
M  V30 16473 O 1515.21 5.52607 1.41355 0
M  V30 16474 O 1514.15 6.0009 -0.466441 0
M  V30 16475 H 1517.97 2.78095 -1.22052 0
M  V30 16476 H 1515.56 1.34031 -0.660007 0
M  V30 16477 H 1517.44 4.13214 0.826565 0
M  V30 16478 H 1516.12 3.00074 1.21397 0
M  V30 16479 H 1515.02 3.59781 -1.02512 0
M  V30 16480 H 1516.36 4.73896 -1.32979 0
M  V30 16481 N 1518.01 0.657889 1.43212 0
M  V30 16482 C 1519.26 0.173187 2.01758 0
M  V30 16483 C 1519.58 -1.21447 1.51924 0
M  V30 16484 O 1518.84 -1.82568 0.704807 0
M  V30 16485 C 1519.14 0.138025 3.57133 0
M  V30 16486 C 1518.8 1.46806 4.26332 0
M  V30 16487 C 1517.47 1.83227 4.44951 0
M  V30 16488 C 1519.82 2.34476 4.65478 0
M  V30 16489 C 1517.15 3.06975 4.99983 0
M  V30 16490 C 1519.5 3.57521 5.21883 0
M  V30 16491 C 1518.16 3.94132 5.38717 0
M  V30 16492 H 1517.43 0.0633735 0.738285 0
M  V30 16493 H 1520.08 0.849524 1.71626 0
M  V30 16494 H 1518.38 -0.621776 3.86835 0
M  V30 16495 H 1520.08 -0.253948 4.00195 0
M  V30 16496 H 1516.67 1.17469 4.12188 0
M  V30 16497 H 1520.85 2.07628 4.50782 0
M  V30 16498 H 1516.11 3.35383 5.11202 0
M  V30 16499 H 1520.28 4.25669 5.51161 0
M  V30 16500 H 1517.91 4.901 5.81125 0
M  V30 16501 N 1519.49 -1.52437 0.400108 0
M  V30 16502 C 1520.71 -2.0661 -0.180861 0
M  V30 16503 C 1521.14 -1.269 -1.38845 0
M  V30 16504 O 1520.49 -0.296862 -1.78853 0
M  V30 16505 C 1520.54 -3.56851 -0.518595 0
M  V30 16506 O 1519.65 -3.79634 -1.61095 0
M  V30 16507 H 1518.99 -0.663752 -0.0181348 0
M  V30 16508 H 1521.52 -1.96479 0.570702 0
M  V30 16509 H 1521.53 -4.00478 -0.779817 0
M  V30 16510 H 1520.2 -4.14302 0.364216 0
M  V30 16511 H 1518.78 -3.47892 -1.3426 0
M  V30 16512 N 1520.96 -0.130252 -1.57061 0
M  V30 16513 C 1522.19 0.535707 -2.00362 0
M  V30 16514 C 1522.61 1.58712 -1.00956 0
M  V30 16515 O 1521.97 1.81292 0.0171546 0
M  V30 16516 C 1522.02 1.12836 -3.42491 0
M  V30 16517 O 1521.12 2.24367 -3.46025 0
M  V30 16518 H 1520.47 0.132735 -0.650598 0
M  V30 16519 H 1523 -0.222047 -2.03392 0
M  V30 16520 H 1523.01 1.46115 -3.80939 0
M  V30 16521 H 1521.68 0.358304 -4.14354 0
M  V30 16522 H 1520.26 1.92443 -3.19406 0
M  V30 16523 N 1522.44 1.56945 0.143535 0
M  V30 16524 C 1523.38 1.95134 1.2023 0
M  V30 16525 C 1524.39 0.847593 1.38995 0
M  V30 16526 O 1525.58 1.12599 1.38505 0
M  V30 16527 C 1522.68 2.21316 2.56656 0
M  V30 16528 C 1521.85 3.52604 2.58822 0
M  V30 16529 C 1520.91 3.67285 3.76813 0
M  V30 16530 O 1519.94 4.39644 3.61527 0
M  V30 16531 N 1521.14 3.04208 4.94406 0
M  V30 16532 H 1523.9 2.86561 0.87766 0
M  V30 16533 H 1521.46 1.58437 0.333065 0
M  V30 16534 H 1523.46 2.28375 3.34106 0
M  V30 16535 H 1522.03 1.36137 2.81399 0
M  V30 16536 H 1521.25 3.56954 1.67264 0
M  V30 16537 H 1522.53 4.38944 2.57304 0
M  V30 16538 H 1521.93 2.45344 5.09728 0
M  V30 16539 H 1520.49 3.16824 5.69619 0
M  V30 16540 N 1523.92 -0.412991 1.52093 0
M  V30 16541 C 1524.88 -1.48555 1.7454 0
M  V30 16542 C 1525.88 -1.48563 0.615283 0
M  V30 16543 O 1527.07 -1.50155 0.883119 0
M  V30 16544 C 1524.21 -2.87984 1.82423 0
M  V30 16545 H 1525.4 -1.29945 2.70285 0
M  V30 16546 H 1522.95 -0.643241 1.4245 0
M  V30 16547 H 1523.69 -3.11969 0.885777 0
M  V30 16548 H 1523.47 -2.89381 2.64577 0
M  V30 16549 H 1524.96 -3.65745 2.01545 0
M  V30 16550 N 1525.4 -1.4265 -0.669982 0
M  V30 16551 C 1526.36 -1.46196 -1.7652 0
M  V30 16552 C 1527.36 -0.348884 -1.5697 0
M  V30 16553 O 1528.55 -0.609921 -1.63174 0
M  V30 16554 C 1525.68 -1.29829 -3.1521 0
M  V30 16555 H 1526.88 -2.43718 -1.74762 0
M  V30 16556 H 1524.43 -1.29168 -0.88007 0
M  V30 16557 H 1525.17 -0.332493 -3.22591 0
M  V30 16558 H 1524.95 -2.10501 -3.30804 0
M  V30 16559 H 1526.44 -1.35205 -3.95107 0
M  V30 16560 N 1526.88 0.906753 -1.28902 0
M  V30 16561 C 1527.79 2.04313 -1.15296 0
M  V30 16562 C 1528.8 1.73826 -0.0778619 0
M  V30 16563 O 1529.98 1.99322 -0.288543 0
M  V30 16564 C 1527.04 3.36782 -0.823317 0
M  V30 16565 C 1526.11 3.80834 -1.98152 0
M  V30 16566 C 1525.34 5.06981 -1.66751 0
M  V30 16567 O 1525.56 5.67391 -0.58513 0
M  V30 16568 O 1524.5 5.46915 -2.51332 0
M  V30 16569 H 1528.32 2.18713 -2.10709 0
M  V30 16570 H 1525.91 1.02928 -1.08287 0
M  V30 16571 H 1527.79 4.16298 -0.653735 0
M  V30 16572 H 1526.46 3.23542 0.101097 0
M  V30 16573 H 1525.37 3.02115 -2.2063 0
M  V30 16574 H 1526.7 3.98648 -2.88688 0
M  V30 16575 N 1528.36 1.11264 1.11616 0
M  V30 16576 C 1529.27 0.781961 2.21184 0
M  V30 16577 C 1530.28 -0.224149 1.7255 0
M  V30 16578 O 1531.46 -0.0607743 2.01308 0
M  V30 16579 C 1528.52 0.228031 3.45949 0
M  V30 16580 C 1527.58 1.29251 4.09381 0
M  V30 16581 C 1526.82 0.764921 5.2819 0
M  V30 16582 O 1527.04 -0.405671 5.68956 0
M  V30 16583 O 1525.97 1.52886 5.82159 0
M  V30 16584 H 1529.8 1.69678 2.51879 0
M  V30 16585 H 1527.38 0.888394 1.20116 0
M  V30 16586 H 1529.27 -0.0766085 4.2133 0
M  V30 16587 H 1527.94 -0.659519 3.1691 0
M  V30 16588 H 1526.85 1.65014 3.3574 0
M  V30 16589 H 1528.18 2.15339 4.42595 0
M  V30 16590 N 1529.83 -1.29188 0.902679 0
M  V30 16591 C 1530.74 -2.3138 0.387363 0
M  V30 16592 C 1531.76 -1.66067 -0.519396 0
M  V30 16593 O 1532.94 -1.97219 -0.408257 0
M  V30 16594 C 1530 -3.44675 -0.374137 0
M  V30 16595 C 1529.06 -4.25572 0.564503 0
M  V30 16596 C 1528.29 -5.33458 -0.160748 0
M  V30 16597 O 1528.52 -5.53349 -1.38423 0
M  V30 16598 O 1527.45 -5.99834 0.498259 0
M  V30 16599 H 1531.28 -2.77444 1.23525 0
M  V30 16600 H 1528.86 -1.33679 0.667106 0
M  V30 16601 H 1530.74 -4.13647 -0.80464 0
M  V30 16602 H 1529.42 -3.00714 -1.19804 0
M  V30 16603 H 1528.33 -3.59232 1.04418 0
M  V30 16604 H 1529.66 -4.73184 1.3549 0
M  V30 16605 N 1531.31 -0.665475 -1.42861 0
M  V30 16606 C 1532.22 0.018927 -2.34592 0
M  V30 16607 C 1533.24 0.798967 -1.54572 0
M  V30 16608 O 1534.41 0.743419 -1.87177 0
M  V30 16609 C 1531.48 0.965013 -3.32999 0
M  V30 16610 C 1530.54 0.180544 -4.2892 0
M  V30 16611 C 1529.77 1.08157 -5.22626 0
M  V30 16612 O 1530 2.32101 -5.21043 0
M  V30 16613 O 1528.93 0.54738 -5.99406 0
M  V30 16614 H 1532.76 -0.736444 -2.94636 0
M  V30 16615 H 1530.34 -0.425684 -1.43207 0
M  V30 16616 H 1532.22 1.50839 -3.93479 0
M  V30 16617 H 1530.9 1.7004 -2.75442 0
M  V30 16618 H 1529.8 -0.40671 -3.71883 0
M  V30 16619 H 1531.14 -0.515529 -4.89493 0
M  V30 16620 N 1532.79 1.52222 -0.408187 0
M  V30 16621 C 1533.74 2.26988 0.417767 0
M  V30 16622 C 1534.71 1.29362 1.04185 0
M  V30 16623 O 1535.89 1.58223 1.06631 0
M  V30 16624 C 1533.03 3.09379 1.52901 0
M  V30 16625 C 1532.14 4.2196 0.92593 0
M  V30 16626 C 1531.28 4.91712 2.00979 0
M  V30 16627 C 1530.32 5.96258 1.3836 0
M  V30 16628 N 1529.46 6.59531 2.40756 0
M  V30 16629 H 1534.3 2.9714 -0.226228 0
M  V30 16630 H 1531.83 1.46581 -0.123402 0
M  V30 16631 H 1533.79 3.55452 2.18425 0
M  V30 16632 H 1532.42 2.41399 2.14304 0
M  V30 16633 H 1531.47 3.80064 0.159765 0
M  V30 16634 H 1532.78 4.96956 0.428497 0
M  V30 16635 H 1531.94 5.41186 2.74231 0
M  V30 16636 H 1530.68 4.16282 2.54087 0
M  V30 16637 H 1529.68 5.46104 0.636402 0
M  V30 16638 H 1530.91 6.7363 0.860218 0
M  V30 16639 H 1528.85 5.86931 2.92999 0
M  V30 16640 H 1528.77 7.30198 1.95822 0
M  V30 16641 H 1530.04 7.13643 3.13581 0
M  V30 16642 N 1534.27 0.138579 1.5699 0
M  V30 16643 C 1535.51 -0.51539 1.96142 0
M  V30 16644 C 1535.85 -1.65067 1.02306 0
M  V30 16645 O 1535.12 -1.94395 0.0638645 0
M  V30 16646 C 1535.4 -1.02956 3.45068 0
M  V30 16647 C 1535.26 0.103646 4.49681 0
M  V30 16648 C 1536.58 -1.91411 3.96295 0
M  V30 16649 H 1533.7 -0.185873 0.713176 0
M  V30 16650 H 1536.34 0.218103 1.88744 0
M  V30 16651 H 1534.49 -1.65462 3.51503 0
M  V30 16652 H 1536.16 0.739693 4.55331 0
M  V30 16653 H 1534.4 0.764014 4.27019 0
M  V30 16654 H 1535.07 -0.297688 5.51197 0
M  V30 16655 H 1537.55 -1.38746 3.92286 0
M  V30 16656 H 1536.43 -2.24298 5.0098 0
M  V30 16657 H 1536.69 -2.84793 3.38149 0
M  V30 16658 N 1535.75 -1.57019 -0.13521 0
M  V30 16659 C 1536.69 -1.99148 -1.16657 0
M  V30 16660 C 1537.66 -0.860947 -1.42045 0
M  V30 16661 O 1538.85 -1.12393 -1.54183 0
M  V30 16662 C 1535.99 -2.3872 -2.49212 0
M  V30 16663 C 1535.1 -3.65117 -2.30898 0
M  V30 16664 C 1534.24 -3.9374 -3.5657 0
M  V30 16665 C 1533.27 -5.1337 -3.33343 0
M  V30 16666 N 1532.41 -5.37945 -4.51176 0
M  V30 16667 H 1537.25 -2.87052 -0.800312 0
M  V30 16668 H 1534.79 -1.42007 -0.383705 0
M  V30 16669 H 1536.75 -2.59695 -3.26518 0
M  V30 16670 H 1535.38 -1.53879 -2.83762 0
M  V30 16671 H 1534.43 -3.5185 -1.44588 0
M  V30 16672 H 1535.74 -4.52578 -2.09701 0
M  V30 16673 H 1534.89 -4.15277 -4.423 0
M  V30 16674 H 1533.63 -3.04723 -3.80782 0
M  V30 16675 H 1532.64 -4.91694 -2.46002 0
M  V30 16676 H 1533.86 -6.0395 -3.10517 0
M  V30 16677 H 1531.81 -4.51884 -4.75539 0
M  V30 16678 H 1531.73 -6.19698 -4.33025 0
M  V30 16679 H 1532.99 -5.63989 -5.38086 0
M  V30 16680 N 1537.22 0.404919 -1.52309 0
M  V30 16681 C 1538.45 1.17764 -1.70723 0
M  V30 16682 C 1538.87 1.83403 -0.417744 0
M  V30 16683 O 1538.23 1.70181 0.625157 0
M  V30 16684 C 1538.28 2.2133 -2.84685 0
M  V30 16685 O 1537.38 3.27566 -2.50548 0
M  V30 16686 H 1536.73 0.343572 -0.568203 0
M  V30 16687 H 1539.26 0.474093 -1.99031 0
M  V30 16688 H 1539.27 2.6559 -3.09719 0
M  V30 16689 H 1537.94 1.72939 -3.78239 0
M  V30 16690 H 1536.52 2.88556 -2.36199 0
M  V30 16691 N 1538.7 1.43003 0.662408 0
M  V30 16692 C 1539.63 1.50248 1.78739 0
M  V30 16693 C 1540.61 0.357934 1.66291 0
M  V30 16694 O 1541.8 0.573919 1.85526 0
M  V30 16695 C 1538.93 1.41618 3.17114 0
M  V30 16696 C 1537.88 2.54228 3.44314 0
M  V30 16697 C 1537.21 2.30653 4.82393 0
M  V30 16698 C 1538.51 3.96505 3.39972 0
M  V30 16699 H 1540.2 2.44406 1.72934 0
M  V30 16700 H 1537.75 1.17633 0.830569 0
M  V30 16701 H 1539.7 1.45293 3.9556 0
M  V30 16702 H 1538.43 0.439605 3.23628 0
M  V30 16703 H 1537.08 2.49891 2.68235 0
M  V30 16704 H 1536.73 1.3126 4.85572 0
M  V30 16705 H 1536.43 3.06134 5.01554 0
M  V30 16706 H 1537.96 2.36096 5.63108 0
M  V30 16707 H 1539.37 4.02378 4.08368 0
M  V30 16708 H 1537.77 4.71937 3.70668 0
M  V30 16709 H 1538.84 4.22295 2.38318 0
M  V30 16710 N 1540.18 -0.899904 1.29381 0
M  V30 16711 C 1541.13 -2.02537 1.14375 0
M  V30 16712 C 1542.12 -1.69296 0.0593904 0
M  V30 16713 O 1543.33 -1.78661 0.219174 0
M  V30 16714 H 1539.7 -0.663844 0.353291 0
M  V30 16715 H 1541.67 -2.12332 2.0966 0
M  V30 16716 C 1540.42 -3.37479 0.836845 0
M  V30 16717 H 1539.75 -3.6356 1.66326 0
M  V30 16718 H 1541.19 -4.16915 0.771873 0
M  V30 16719 C 1539.65 -3.33746 -0.459889 0
M  V30 16720 O 1540.18 -3.73203 -1.48601 0
M  V30 16721 N 1538.38 -2.86845 -0.465657 0
M  V30 16722 H 1537.93 -2.54931 0.369833 0
M  V30 16723 H 1537.89 -2.8473 -1.33327 0
M  V30 16724 N 1541.66 -1.11854 -1.11024 0
M  V30 16725 C 1542.61 -0.780825 -2.17191 0
M  V30 16726 C 1543.58 0.249657 -1.64213 0
M  V30 16727 O 1544.76 0.125603 -1.90386 0
M  V30 16728 C 1541.9 -0.23491 -3.443 0
M  V30 16729 C 1541.01 -1.32247 -4.1126 0
M  V30 16730 C 1540.15 -0.736638 -5.26068 0
M  V30 16731 C 1539.19 -1.80375 -5.8492 0
M  V30 16732 N 1538.32 -1.23709 -6.91115 0
M  V30 16733 H 1543.16 -1.69031 -2.45423 0
M  V30 16734 H 1540.7 -0.844041 -1.20476 0
M  V30 16735 H 1542.66 0.0996064 -4.17081 0
M  V30 16736 H 1541.29 0.637752 -3.16437 0
M  V30 16737 H 1540.34 -1.77387 -3.36509 0
M  V30 16738 H 1541.65 -2.12965 -4.51051 0
M  V30 16739 H 1540.81 -0.352432 -6.05675 0
M  V30 16740 H 1539.55 0.101811 -4.87594 0
M  V30 16741 H 1538.55 -2.19721 -5.03987 0
M  V30 16742 H 1539.78 -2.64531 -6.2546 0
M  V30 16743 H 1537.72 -0.420357 -6.54652 0
M  V30 16744 H 1537.64 -1.98093 -7.29586 0
M  V30 16745 H 1538.91 -0.879912 -7.74518 0
M  V30 16746 N 1543.14 1.28707 -0.909517 0
M  V30 16747 C 1544.07 2.29845 -0.411552 0
M  V30 16748 C 1545.05 1.62001 0.518615 0
M  V30 16749 O 1546.23 1.89442 0.427252 0
M  V30 16750 C 1543.36 3.45501 0.353013 0
M  V30 16751 C 1542.32 4.25213 -0.487625 0
M  V30 16752 C 1541.64 5.33164 0.405026 0
M  V30 16753 C 1542.94 4.9237 -1.74268 0
M  V30 16754 H 1544.64 2.71746 -1.25676 0
M  V30 16755 H 1542.18 1.30639 -0.605759 0
M  V30 16756 H 1544.14 4.15338 0.712191 0
M  V30 16757 H 1542.86 3.02469 1.23209 0
M  V30 16758 H 1541.52 3.57098 -0.829265 0
M  V30 16759 H 1541.17 4.86375 1.28252 0
M  V30 16760 H 1540.87 5.87399 -0.153811 0
M  V30 16761 H 1542.39 6.0585 0.760179 0
M  V30 16762 H 1543.8 5.5459 -1.45266 0
M  V30 16763 H 1542.2 5.56581 -2.2436 0
M  V30 16764 H 1543.27 4.171 -2.47297 0
M  V30 16765 N 1544.61 0.673042 1.42506 0
M  V30 16766 C 1546.03 0.342429 1.55883 0
M  V30 16767 C 1546.23 -1.15229 1.65302 0
M  V30 16768 O 1545.29 -1.93767 1.61897 0
M  V30 16769 C 1546.6 1.0712 2.80973 0
M  V30 16770 C 1548.15 1.05336 2.94743 0
M  V30 16771 C 1548.62 1.76342 4.22691 0
M  V30 16772 N 1550.11 1.73201 4.29599 0
M  V30 16773 C 1550.85 2.25 5.27411 0
M  V30 16774 N 1550.34 2.85173 6.31386 0
M  V30 16775 N 1552.14 2.15385 5.19197 0
M  V30 16776 H 1544.29 1.64277 1.34636 0
M  V30 16777 H 1546.55 0.691984 0.647968 0
M  V30 16778 H 1546.26 2.1263 2.80145 0
M  V30 16779 H 1546.13 0.635313 3.71811 0
M  V30 16780 H 1548.52 0.00659669 2.95099 0
M  V30 16781 H 1548.6 1.52811 2.0514 0
M  V30 16782 H 1548.24 2.80985 4.23096 0
M  V30 16783 H 1548.17 1.26317 5.11225 0
M  V30 16784 H 1550.66 1.2931 3.55088 0
M  V30 16785 H 1550.98 3.22323 7.02373 0
M  V30 16786 H 1549.32 2.89242 6.31953 0
M  V30 16787 H 1552.51 1.68065 4.36889 0
M  V30 16788 H 1552.69 2.5606 5.95262 0
M  V30 16789 N 1546.09 -1.52004 0.416254 0
M  V30 16790 C 1547.02 -2.30106 -0.396671 0
M  V30 16791 C 1548 -1.34616 -1.03983 0
M  V30 16792 O 1549.19 -1.63528 -1.04749 0
M  V30 16793 C 1546.32 -3.12769 -1.50972 0
M  V30 16794 C 1545.27 -4.16365 -0.99119 0
M  V30 16795 C 1544.6 -4.87417 -2.19838 0
M  V30 16796 C 1545.9 -5.22284 -0.0402599 0
M  V30 16797 H 1547.59 -2.98312 0.255054 0
M  V30 16798 H 1545.14 -1.43464 0.124106 0
M  V30 16799 H 1547.09 -3.66178 -2.08547 0
M  V30 16800 H 1545.82 -2.42346 -2.18943 0
M  V30 16801 H 1544.47 -3.63976 -0.437803 0
M  V30 16802 H 1544.12 -4.13516 -2.8638 0
M  V30 16803 H 1543.82 -5.57454 -1.85792 0
M  V30 16804 H 1545.35 -5.43641 -2.78006 0
M  V30 16805 H 1546.76 -5.70891 -0.525027 0
M  V30 16806 H 1545.16 -5.99726 0.211742 0
M  V30 16807 H 1546.23 -4.7642 0.902877 0
M  V30 16808 N 1547.57 -0.146903 -1.56914 0
M  V30 16809 C 1548.52 0.792821 -2.16756 0
M  V30 16810 C 1549.49 1.2442 -1.1004 0
M  V30 16811 O 1550.67 1.31674 -1.38081 0
M  V30 16812 C 1547.81 2.02659 -2.79327 0
M  V30 16813 C 1546.93 1.62102 -4.00433 0
M  V30 16814 C 1546.06 2.80658 -4.51004 0
M  V30 16815 C 1545.1 2.36474 -5.64576 0
M  V30 16816 N 1544.24 3.48038 -6.09766 0
M  V30 16817 H 1549.08 0.275708 -2.96722 0
M  V30 16818 H 1546.61 0.124374 -1.46573 0
M  V30 16819 H 1548.57 2.74986 -3.13749 0
M  V30 16820 H 1547.2 2.51781 -2.02005 0
M  V30 16821 H 1546.25 0.795407 -3.71991 0
M  V30 16822 H 1547.57 1.25652 -4.82714 0
M  V30 16823 H 1546.72 3.61175 -4.87481 0
M  V30 16824 H 1545.46 3.20353 -3.6773 0
M  V30 16825 H 1544.46 1.54397 -5.27676 0
M  V30 16826 H 1545.69 1.97865 -6.49635 0
M  V30 16827 H 1543.63 3.87354 -5.29427 0
M  V30 16828 H 1543.55 3.15602 -6.86972 0
M  V30 16829 H 1544.82 4.28912 -6.50887 0
M  V30 16830 N 1549.05 1.57088 0.126881 0
M  V30 16831 C 1550.28 1.8834 0.849211 0
M  V30 16832 C 1550.69 0.735386 1.74324 0
M  V30 16833 O 1550.03 -0.30318 1.81181 0
M  V30 16834 C 1550.09 3.14522 1.74116 0
M  V30 16835 C 1549.76 4.4542 1.02225 0
M  V30 16836 C 1550.75 5.18605 0.366722 0
M  V30 16837 C 1548.44 4.92128 1.00577 0
M  V30 16838 C 1550.43 6.36714 -0.295675 0
M  V30 16839 C 1548.12 6.10156 0.33957 0
M  V30 16840 C 1549.12 6.82296 -0.310005 0
M  V30 16841 O 1548.8 7.9808 -0.965594 0
M  V30 16842 H 1548.54 0.628129 0.24986 0
M  V30 16843 H 1551.09 2.05059 0.118236 0
M  V30 16844 H 1549.32 2.93864 2.51358 0
M  V30 16845 H 1551.01 3.31857 2.33722 0
M  V30 16846 H 1551.78 4.83578 0.371126 0
M  V30 16847 H 1547.65 4.35887 1.5008 0
M  V30 16848 H 1551.2 6.9296 -0.803275 0
M  V30 16849 H 1547.1 6.44641 0.332902 0
M  V30 16850 H 1547.86 8.13871 -0.869277 0
M  V30 16851 N 1550.53 -0.396836 1.52522 0
M  V30 16852 C 1551.44 -1.50871 1.79653 0
M  V30 16853 C 1552.45 -1.60043 0.682804 0
M  V30 16854 O 1553.63 -1.76527 0.96955 0
M  V30 16855 C 1550.69 -2.86485 1.95263 0
M  V30 16856 C 1549.75 -2.87099 3.19175 0
M  V30 16857 C 1548.99 -4.16244 3.34031 0
M  V30 16858 O 1549.21 -5.1079 2.5387 0
M  V30 16859 O 1548.14 -4.23962 4.27247 0
M  V30 16860 H 1551.97 -1.30878 2.74052 0
M  V30 16861 H 1549.56 -0.583908 1.37517 0
M  V30 16862 H 1551.44 -3.66895 2.07282 0
M  V30 16863 H 1550.11 -3.0652 1.04052 0
M  V30 16864 H 1549.02 -2.05497 3.12605 0
M  V30 16865 H 1550.35 -2.72014 4.10206 0
M  V30 16866 N 1552.01 -1.43353 -0.654814 0
M  V30 16867 C 1552.97 -1.4806 -1.7496 0
M  V30 16868 C 1553.97 -0.365513 -1.56591 0
M  V30 16869 O 1555.16 -0.627194 -1.62517 0
M  V30 16870 C 1552.29 -1.33165 -3.13815 0
M  V30 16871 H 1553.48 -2.45557 -1.72167 0
M  V30 16872 H 1551.04 -1.30094 -0.86632 0
M  V30 16873 H 1551.77 -0.366689 -3.2222 0
M  V30 16874 H 1551.56 -2.13998 -3.28553 0
M  V30 16875 H 1553.05 -1.39388 -3.93651 0
M  V30 16876 N 1553.48 0.89303 -1.29857 0
M  V30 16877 C 1554.71 1.67744 -1.21119 0
M  V30 16878 C 1555.13 1.87428 0.227198 0
M  V30 16879 O 1554.48 1.41605 1.15128 0
M  V30 16880 C 1554.53 3.05827 -1.92749 0
M  V30 16881 O 1554.26 2.87036 -3.30971 0
M  V30 16882 C 1555.76 4.00248 -1.9057 0
M  V30 16883 H 1552.98 0.523699 -0.4195 0
M  V30 16884 H 1555.52 1.1163 -1.71344 0
M  V30 16885 H 1553.68 3.58696 -1.46342 0
M  V30 16886 H 1554.09 3.74578 -3.6714 0
M  V30 16887 H 1555.56 4.9453 -2.45242 0
M  V30 16888 H 1556.04 4.30237 -0.882753 0
M  V30 16889 H 1556.65 3.53312 -2.36751 0
M  V30 16890 N 1554.96 1.12442 1.10429 0
M  V30 16891 C 1556.21 0.874466 1.81758 0
M  V30 16892 C 1556.52 -0.601487 1.86122 0
M  V30 16893 O 1557.73 -0.968037 2.53656 0
M  V30 16894 C 1556.19 1.51478 3.2647 0
M  V30 16895 C 1555.79 3.02552 3.30403 0
M  V30 16896 C 1557.54 1.34511 4.02625 0
M  V30 16897 C 1555.44 3.59518 4.69575 0
M  V30 16898 H 1554.37 0.323494 0.681078 0
M  V30 16899 H 1557.03 1.35091 1.24188 0
M  V30 16900 H 1555.41 0.966 3.84037 0
M  V30 16901 H 1556.58 3.63924 2.82659 0
M  V30 16902 H 1554.9 3.18917 2.67733 0
M  V30 16903 H 1557.49 1.74492 5.05427 0
M  V30 16904 H 1557.84 0.288788 4.15297 0
M  V30 16905 H 1558.37 1.86311 3.51473 0
M  V30 16906 H 1555.11 4.6491 4.62103 0
M  V30 16907 H 1554.63 3.02922 5.17686 0
M  V30 16908 H 1556.31 3.58581 5.38543 0
M  V30 16909 N 1556.44 -1.28223 0.91633 0
M  V30 16910 C 1557.4 -2.25477 0.411423 0
M  V30 16911 C 1558.4 -1.53969 -0.463689 0
M  V30 16912 O 1559.59 -1.72151 -0.266379 0
M  V30 16913 C 1556.72 -3.38427 -0.409851 0
M  V30 16914 H 1557.92 -2.71656 1.27056 0
M  V30 16915 H 1555.47 -1.3995 0.695966 0
M  V30 16916 H 1556.21 -2.97614 -1.28828 0
M  V30 16917 H 1555.99 -3.91497 0.217435 0
M  V30 16918 H 1557.48 -4.10739 -0.753862 0
M  V30 16919 N 1557.92 -0.68059 -1.42147 0
M  V30 16920 C 1559.19 -0.133957 -1.95141 0
M  V30 16921 C 1559.57 1.3526 -1.62074 0
M  V30 16922 O 1558.92 2.09165 -0.919898 0
M  V30 16923 C 1559.13 -0.409266 -3.46592 0
M  V30 16924 C 1560.48 -0.328899 -4.23324 0
M  V30 16925 O 1561.5 -0.343337 -3.54541 0
M  V30 16926 O 1560.36 -0.276076 -5.45802 0
M  V30 16927 H 1557.46 -0.00623443 -0.826977 0
M  V30 16928 H 1560 -0.755719 -1.51944 0
M  V30 16929 H 1558.78 -1.43883 -3.63887 0
M  V30 16930 H 1558.4 0.244216 -3.96849 0
M  V30 16931 N 1559.4 1.51781 -0.424309 0
M  V30 16932 C 1560.33 2.23945 0.438604 0
M  V30 16933 C 1561.31 1.25363 1.03552 0
M  V30 16934 O 1562.49 1.5446 1.08048 0
M  V30 16935 C 1559.62 2.9798 1.61014 0
M  V30 16936 C 1558.66 4.11116 1.13516 0
M  V30 16937 S 1559.5 5.35428 0.0878448 0
M  V30 16938 C 1560.65 6.12997 1.26435 0
M  V30 16939 H 1560.89 2.9679 -0.174103 0
M  V30 16940 H 1558.42 1.52983 -0.208718 0
M  V30 16941 H 1560.38 3.41237 2.28183 0
M  V30 16942 H 1559.04 2.2475 2.19423 0
M  V30 16943 H 1558.23 4.62147 2.01086 0
M  V30 16944 H 1557.83 3.70053 0.5419 0
M  V30 16945 H 1560.12 6.41293 2.18517 0
M  V30 16946 H 1561.07 7.03631 0.794265 0
M  V30 16947 H 1561.48 5.44288 1.49702 0
M  V30 16948 N 1560.87 0.155222 1.56834 0
M  V30 16949 C 1561.78 -0.794179 2.20749 0
M  V30 16950 C 1562.8 -1.26546 1.19424 0
M  V30 16951 O 1563.98 -1.32094 1.5203 0
M  V30 16952 C 1561.04 -2.01261 2.82303 0
M  V30 16953 C 1560.1 -1.58976 3.98779 0
M  V30 16954 C 1559.33 -2.75011 4.57389 0
M  V30 16955 O 1559.56 -3.91449 4.14879 0
M  V30 16956 O 1558.49 -2.50011 5.4752 0
M  V30 16957 H 1562.32 -0.280064 3.02406 0
M  V30 16958 H 1559.9 -0.0722048 1.49225 0
M  V30 16959 H 1561.78 -2.72551 3.21394 0
M  V30 16960 H 1560.46 -2.51609 2.03653 0
M  V30 16961 H 1559.37 -0.846848 3.64389 0
M  V30 16962 H 1560.7 -1.13336 4.78974 0
M  V30 16963 N 1562.35 -1.57153 -0.118549 0
M  V30 16964 C 1563.63 -1.75846 -0.856587 0
M  V30 16965 C 1564.01 -0.730801 -1.98047 0
M  V30 16966 O 1563.36 0.245156 -2.27181 0
M  V30 16967 C 1563.57 -3.20864 -1.37286 0
M  V30 16968 C 1564.91 -3.83378 -1.82501 0
M  V30 16969 O 1565.94 -3.24469 -1.46964 0
M  V30 16970 O 1564.8 -4.86922 -2.48132 0
M  V30 16971 H 1561.89 -0.72002 -0.406817 0
M  V30 16972 H 1564.44 -1.69392 -0.102254 0
M  V30 16973 H 1563.21 -3.87177 -0.566531 0
M  V30 16974 H 1562.83 -3.31858 -2.18988 0
M  V30 16975 N 1563.83 0.388742 -1.5273 0
M  V30 16976 C 1565.25 0.728828 -1.41987 0
M  V30 16977 C 1565.45 1.94116 -0.540493 0
M  V30 16978 O 1564.5 2.52496 -0.0140397 0
M  V30 16979 C 1565.81 0.963683 -2.8484 0
M  V30 16980 C 1567.36 1.06514 -2.94319 0
M  V30 16981 C 1567.84 1.33262 -4.38184 0
M  V30 16982 N 1569.33 1.40083 -4.4151 0
M  V30 16983 C 1570.06 1.62446 -5.49908 0
M  V30 16984 N 1569.56 1.82277 -6.68391 0
M  V30 16985 N 1571.35 1.64627 -5.37452 0
M  V30 16986 H 1563.5 -0.408984 -2.08425 0
M  V30 16987 H 1565.77 -0.120791 -0.940273 0
M  V30 16988 H 1565.47 0.144986 -3.51401 0
M  V30 16989 H 1565.35 1.87828 -3.27109 0
M  V30 16990 H 1567.73 1.8744 -2.27926 0
M  V30 16991 H 1567.81 0.12845 -2.55477 0
M  V30 16992 H 1567.46 0.528457 -5.05143 0
M  V30 16993 H 1567.39 2.28216 -4.74579 0
M  V30 16994 H 1569.88 1.26465 -3.56111 0
M  V30 16995 H 1570.19 1.98848 -7.46779 0
M  V30 16996 H 1568.54 1.79501 -6.7142 0
M  V30 16997 H 1571.73 1.48686 -4.43858 0
M  V30 16998 H 1571.9 1.81715 -6.22 0
M  V30 16999 N 1565.31 1.43698 0.647203 0
M  V30 17000 C 1566.24 1.52135 1.77136 0
M  V30 17001 C 1567.22 0.375551 1.65902 0
M  V30 17002 O 1568.4 0.593564 1.84907 0
M  V30 17003 C 1565.53 1.44974 3.15594 0
M  V30 17004 C 1564.49 2.57866 3.41598 0
M  V30 17005 C 1563.81 2.35757 4.7992 0
M  V30 17006 C 1565.11 4.00089 3.35747 0
M  V30 17007 H 1566.81 2.46227 1.70332 0
M  V30 17008 H 1564.35 1.18507 0.818046 0
M  V30 17009 H 1566.31 1.4948 3.93997 0
M  V30 17010 H 1565.03 0.473905 3.23143 0
M  V30 17011 H 1563.69 2.52722 2.65569 0
M  V30 17012 H 1563.34 1.36403 4.84152 0
M  V30 17013 H 1563.04 3.11436 4.98278 0
M  V30 17014 H 1564.56 2.42055 5.60572 0
M  V30 17015 H 1565.98 4.06687 4.04078 0
M  V30 17016 H 1564.37 4.75842 3.65642 0
M  V30 17017 H 1565.44 4.24798 2.33825 0
M  V30 17018 N 1566.79 -0.886131 1.30328 0
M  V30 17019 C 1568.2 -1.16922 1.08634 0
M  V30 17020 C 1568.4 -2.00913 -0.15365 0
M  V30 17021 O 1567.46 -2.37849 -0.847592 0
M  V30 17022 C 1568.77 -1.87701 2.34923 0
M  V30 17023 C 1570.32 -2.0047 2.40376 0
M  V30 17024 C 1570.79 -2.74662 3.66504 0
M  V30 17025 N 1572.29 -2.82208 3.67305 0
M  V30 17026 C 1573.02 -3.40185 4.61586 0
M  V30 17027 N 1572.52 -3.99221 5.66211 0
M  V30 17028 N 1574.31 -3.37989 4.49132 0
M  V30 17029 H 1566.46 -0.326064 2.09882 0
M  V30 17030 H 1568.72 -0.206996 0.925125 0
M  V30 17031 H 1568.43 -1.33427 3.25408 0
M  V30 17032 H 1568.3 -2.88092 2.43481 0
M  V30 17033 H 1570.69 -2.53914 1.50371 0
M  V30 17034 H 1570.77 -0.991709 2.35794 0
M  V30 17035 H 1570.42 -2.2189 4.56867 0
M  V30 17036 H 1570.35 -3.76335 3.68347 0
M  V30 17037 H 1572.84 -2.40292 2.91665 0
M  V30 17038 H 1573.15 -4.41522 6.34254 0
M  V30 17039 H 1571.49 -3.97643 5.70004 0
M  V30 17040 H 1574.69 -2.91096 3.6658 0
M  V30 17041 H 1574.86 -3.82877 5.2279 0
M  V30 17042 N 1568.26 -1.13026 -1.09832 0
M  V30 17043 C 1569.21 -0.803817 -2.1635 0
M  V30 17044 C 1570.18 0.232226 -1.64469 0
M  V30 17045 O 1571.37 0.105403 -1.90509 0
M  V30 17046 C 1568.51 -0.271414 -3.44031 0
M  V30 17047 C 1567.62 -1.36602 -4.09834 0
M  V30 17048 C 1566.75 -0.792393 -5.25257 0
M  V30 17049 C 1565.79 -1.86569 -5.82974 0
M  V30 17050 N 1564.93 -1.31032 -6.89764 0
M  V30 17051 H 1569.77 -1.71624 -2.43617 0
M  V30 17052 H 1567.31 -0.856772 -1.19574 0
M  V30 17053 H 1569.27 0.0553638 -4.17163 0
M  V30 17054 H 1567.9 0.604154 -3.17096 0
M  V30 17055 H 1566.95 -1.80946 -3.34608 0
M  V30 17056 H 1568.26 -2.17737 -4.48767 0
M  V30 17057 H 1567.41 -0.416652 -6.05268 0
M  V30 17058 H 1566.15 0.0500894 -4.87674 0
M  V30 17059 H 1565.16 -2.25054 -5.01628 0
M  V30 17060 H 1566.38 -2.7115 -6.22619 0
M  V30 17061 H 1564.33 -0.489768 -6.54169 0
M  V30 17062 H 1564.25 -2.0582 -7.27444 0
M  V30 17063 H 1565.51 -0.962011 -7.73541 0
M  V30 17064 N 1569.74 1.27735 -0.923117 0
M  V30 17065 C 1570.65 2.30734 -0.424124 0
M  V30 17066 C 1571.67 1.66872 0.49291 0
M  V30 17067 O 1572.84 1.97843 0.37683 0
M  V30 17068 C 1569.91 3.45227 0.319254 0
M  V30 17069 C 1568.97 4.2462 -0.632137 0
M  V30 17070 C 1568.2 5.33646 0.0758596 0
M  V30 17071 O 1568.43 5.55481 1.29602 0
M  V30 17072 O 1567.36 5.98966 -0.593624 0
M  V30 17073 H 1571.19 2.75444 -1.27923 0
M  V30 17074 H 1568.77 1.32601 -0.688288 0
M  V30 17075 H 1570.65 4.14874 0.73873 0
M  V30 17076 H 1569.33 3.02582 1.15004 0
M  V30 17077 H 1568.24 3.57525 -1.1012 0
M  V30 17078 H 1569.57 4.70969 -1.43001 0
M  V30 17079 N 1571.22 0.688118 1.41784 0
M  V30 17080 C 1572.13 0.018397 2.34593 0
M  V30 17081 C 1573.15 -0.774275 1.55824 0
M  V30 17082 O 1574.32 -0.713546 1.88336 0
M  V30 17083 C 1571.39 -0.911914 3.34492 0
M  V30 17084 C 1570.45 -0.112284 4.29153 0
M  V30 17085 C 1569.68 -0.998285 5.2428 0
M  V30 17086 O 1569.9 -2.23782 5.24669 0
M  V30 17087 O 1568.84 -0.451951 6.00201 0
M  V30 17088 H 1572.66 0.783224 2.93427 0
M  V30 17089 H 1570.25 0.448413 1.42512 0
M  V30 17090 H 1572.13 -1.4456 3.95829 0
M  V30 17091 H 1570.81 -1.65636 2.78112 0
M  V30 17092 H 1569.71 0.465822 3.71189 0
M  V30 17093 H 1571.05 0.593338 4.88611 0
M  V30 17094 N 1572.7 -1.51554 0.432352 0
M  V30 17095 C 1573.65 -2.27623 -0.381602 0
M  V30 17096 C 1574.62 -1.31003 -1.02114 0
M  V30 17097 O 1575.8 -1.59899 -1.041 0
M  V30 17098 C 1572.94 -3.11772 -1.47959 0
M  V30 17099 C 1572.05 -4.2338 -0.858682 0
M  V30 17100 C 1571.19 -4.94847 -1.93131 0
M  V30 17101 C 1570.23 -5.98383 -1.28856 0
M  V30 17102 N 1569.36 -6.63278 -2.30233 0
M  V30 17103 H 1574.2 -2.96743 0.273472 0
M  V30 17104 H 1571.74 -1.46367 0.146706 0
M  V30 17105 H 1573.7 -3.58882 -2.12742 0
M  V30 17106 H 1572.33 -2.44778 -2.10437 0
M  V30 17107 H 1571.38 -3.8027 -0.0992797 0
M  V30 17108 H 1572.69 -4.97575 -0.349381 0
M  V30 17109 H 1571.85 -5.4548 -2.65587 0
M  V30 17110 H 1570.59 -4.20272 -2.47432 0
M  V30 17111 H 1569.59 -5.47048 -0.549441 0
M  V30 17112 H 1570.82 -6.74913 -0.752941 0
M  V30 17113 H 1568.76 -5.91518 -2.83624 0
M  V30 17114 H 1568.68 -7.33221 -1.84181 0
M  V30 17115 H 1569.95 -7.18542 -3.02188 0
M  V30 17116 N 1574.18 -0.163538 -1.56749 0
M  V30 17117 C 1575.42 0.482449 -1.96257 0
M  V30 17118 C 1575.75 1.64302 -1.05023 0
M  V30 17119 O 1575.02 1.95562 -0.115027 0
M  V30 17120 H 1573.6 0.181222 -0.724684 0
M  V30 17121 H 1576.26 -0.242903 -1.9338 0
M  V30 17122 H 1575.35 0.847634 -3.00369 0
M  V30 17123 N 1575.65 1.57214 0.110213 0
M  V30 17124 C 1577.07 1.52706 0.464004 0
M  V30 17125 C 1577.27 0.87792 1.81369 0
M  V30 17126 O 1576.33 0.463987 2.482 0
M  V30 17127 C 1577.64 2.97457 0.440406 0
M  V30 17128 C 1579.19 3.08594 0.523336 0
M  V30 17129 C 1579.66 4.54923 0.53004 0
M  V30 17130 N 1581.15 4.59411 0.591228 0
M  V30 17131 C 1581.89 5.7006 0.618007 0
M  V30 17132 N 1581.38 6.9018 0.601901 0
M  V30 17133 N 1583.18 5.58192 0.661679 0
M  V30 17134 H 1575.33 1.97794 -0.77403 0
M  V30 17135 H 1577.59 0.903673 -0.286496 0
M  V30 17136 H 1577.3 3.48356 -0.483845 0
M  V30 17137 H 1577.17 3.55356 1.26498 0
M  V30 17138 H 1579.56 2.57692 1.43801 0
M  V30 17139 H 1579.64 2.53674 -0.329095 0
M  V30 17140 H 1579.28 5.06472 -0.380623 0
M  V30 17141 H 1579.21 5.07663 1.39948 0
M  V30 17142 H 1581.7 3.72953 0.609483 0
M  V30 17143 H 1582.02 7.70267 0.6252 0
M  V30 17144 H 1580.36 6.92665 0.569186 0
M  V30 17145 H 1583.55 4.63256 0.671686 0
M  V30 17146 H 1583.73 6.44432 0.67908 0
M  V30 17147 N 1577.13 -0.380637 1.52934 0
M  V30 17148 C 1578.06 -1.48518 1.74571 0
M  V30 17149 C 1579.08 -1.50272 0.626263 0
M  V30 17150 O 1580.27 -1.54023 0.902167 0
M  V30 17151 C 1577.37 -2.87339 1.79693 0
M  V30 17152 C 1576.54 -3.09454 3.09123 0
M  V30 17153 C 1575.6 -4.28305 3.05682 0
M  V30 17154 O 1574.62 -4.24205 3.79524 0
M  V30 17155 N 1575.83 -5.34932 2.2545 0
M  V30 17156 H 1578.59 -1.30341 2.69873 0
M  V30 17157 H 1576.15 -0.57023 1.51526 0
M  V30 17158 H 1578.14 -3.64961 1.74887 0
M  V30 17159 H 1576.71 -2.98835 0.917414 0
M  V30 17160 H 1575.93 -2.19623 3.27352 0
M  V30 17161 H 1577.22 -3.21089 3.94689 0
M  V30 17162 H 1576.62 -5.41121 1.64939 0
M  V30 17163 H 1575.18 -6.11189 2.26476 0
M  V30 17164 N 1578.61 -1.44039 -0.639573 0
M  V30 17165 C 1579.52 -1.52728 -1.78077 0
M  V30 17166 C 1580.54 -0.413467 -1.69016 0
M  V30 17167 O 1581.71 -0.669592 -1.89943 0
M  V30 17168 C 1578.78 -1.46078 -3.14424 0
M  V30 17169 C 1577.84 -2.68242 -3.35179 0
M  V30 17170 C 1577.07 -2.61899 -4.65021 0
M  V30 17171 O 1577.29 -1.67431 -5.45273 0
M  V30 17172 O 1576.23 -3.52619 -4.87795 0
M  V30 17173 H 1580.05 -2.49122 -1.737 0
M  V30 17174 H 1577.64 -1.26191 -0.799755 0
M  V30 17175 H 1579.52 -1.44861 -3.95719 0
M  V30 17176 H 1578.2 -0.528236 -3.19361 0
M  V30 17177 H 1577.1 -2.75028 -2.53595 0
M  V30 17178 H 1578.44 -3.60514 -3.35098 0
M  V30 17179 N 1580.09 0.879207 -1.30796 0
M  V30 17180 C 1581.02 2.00158 -1.20246 0
M  V30 17181 C 1582 1.69852 -0.091769 0
M  V30 17182 O 1583.18 1.92246 -0.274792 0
M  V30 17183 C 1580.31 3.3545 -0.899472 0
M  V30 17184 C 1579.27 3.80033 -1.96873 0
M  V30 17185 C 1578.59 5.12681 -1.51861 0
M  V30 17186 C 1579.89 3.98136 -3.38061 0
M  V30 17187 H 1581.59 2.09242 -2.14145 0
M  V30 17188 H 1579.13 1.00535 -1.03096 0
M  V30 17189 H 1581.09 4.13497 -0.812299 0
M  V30 17190 H 1579.81 3.26513 0.075189 0
M  V30 17191 H 1578.47 3.04219 -2.04564 0
M  V30 17192 H 1578.12 5.00178 -0.532063 0
M  V30 17193 H 1577.82 5.43482 -2.23386 0
M  V30 17194 H 1579.34 5.93247 -1.44534 0
M  V30 17195 H 1580.76 4.66604 -3.33096 0
M  V30 17196 H 1579.15 4.40321 -4.07722 0
M  V30 17197 H 1580.22 3.01807 -3.79526 0
M  V30 17198 N 1581.57 1.13606 1.09231 0
M  V30 17199 C 1582.48 0.828702 2.19476 0
M  V30 17200 C 1583.49 -0.187499 1.72987 0
M  V30 17201 O 1584.67 -0.0180602 2.01392 0
M  V30 17202 C 1581.73 0.301361 3.45388 0
M  V30 17203 C 1580.8 1.37906 4.06547 0
M  V30 17204 C 1580.03 0.876786 5.26449 0
M  V30 17205 O 1580.25 -0.284896 5.69688 0
M  V30 17206 O 1579.19 1.652 5.78785 0
M  V30 17207 H 1583.01 1.74982 2.48223 0
M  V30 17208 H 1580.6 0.913673 1.18205 0
M  V30 17209 H 1582.48 0.0127792 4.21398 0
M  V30 17210 H 1581.15 -0.592149 3.18238 0
M  V30 17211 H 1580.06 1.72098 3.32164 0
M  V30 17212 H 1581.39 2.24678 4.37927 0
M  V30 17213 N 1583.05 -1.27244 0.929878 0
M  V30 17214 C 1583.99 -2.26773 0.429287 0
M  V30 17215 C 1584.96 -1.58238 -0.50498 0
M  V30 17216 O 1586.15 -1.86037 -0.423661 0
M  V30 17217 C 1583.29 -3.43706 -0.309865 0
M  V30 17218 C 1582.4 -4.26948 0.658764 0
M  V30 17219 C 1581.54 -5.31105 -0.10045 0
M  V30 17220 C 1580.57 -6.06018 0.860743 0
M  V30 17221 N 1579.71 -7.01972 0.134015 0
M  V30 17222 H 1584.55 -2.68967 1.283 0
M  V30 17223 H 1582.09 -1.32257 0.643923 0
M  V30 17224 H 1584.05 -4.10316 -0.754754 0
M  V30 17225 H 1582.68 -3.02457 -1.1278 0
M  V30 17226 H 1581.73 -3.60232 1.22218 0
M  V30 17227 H 1583.04 -4.78946 1.39326 0
M  V30 17228 H 1582.19 -6.03674 -0.605153 0
M  V30 17229 H 1580.93 -4.79915 -0.867902 0
M  V30 17230 H 1579.94 -5.32285 1.37668 0
M  V30 17231 H 1581.16 -6.59297 1.62801 0
M  V30 17232 H 1579.11 -6.53109 -0.615152 0
M  V30 17233 H 1579.03 -7.51669 0.808045 0
M  V30 17234 H 1580.29 -7.78714 -0.349964 0
M  V30 17235 N 1584.52 -0.695628 -1.41417 0
M  V30 17236 C 1585.45 -0.0447013 -2.33457 0
M  V30 17237 C 1586.43 0.767104 -1.51821 0
M  V30 17238 O 1587.62 0.720066 -1.80357 0
M  V30 17239 C 1584.75 0.892353 -3.3564 0
M  V30 17240 C 1583.7 0.187638 -4.27588 0
M  V30 17241 C 1583.03 1.23906 -5.20146 0
M  V30 17242 C 1584.33 -0.946093 -5.1366 0
M  V30 17243 H 1586.02 -0.81343 -2.88138 0
M  V30 17244 H 1583.57 -0.392614 -1.38544 0
M  V30 17245 H 1585.52 1.35696 -3.98954 0
M  V30 17246 H 1584.25 1.69275 -2.79309 0
M  V30 17247 H 1582.91 -0.256942 -3.65698 0
M  V30 17248 H 1582.55 2.03198 -4.6013 0
M  V30 17249 H 1582.25 0.772536 -5.82499 0
M  V30 17250 H 1583.78 1.70417 -5.86336 0
M  V30 17251 H 1585.19 -0.561764 -5.70541 0
M  V30 17252 H 1583.59 -1.33971 -5.84954 0
M  V30 17253 H 1584.66 -1.78573 -4.50821 0
M  V30 17254 N 1586 1.51322 -0.440383 0
M  V30 17255 C 1586.95 2.27823 0.369526 0
M  V30 17256 C 1587.92 1.31543 1.01418 0
M  V30 17257 O 1589.1 1.60449 1.03251 0
M  V30 17258 C 1586.24 3.12553 1.46304 0
M  V30 17259 C 1585.36 4.23829 0.836217 0
M  V30 17260 C 1584.49 4.95865 1.90504 0
M  V30 17261 C 1583.53 5.99058 1.25681 0
M  V30 17262 N 1582.67 6.64489 2.26712 0
M  V30 17263 H 1587.51 2.96593 -0.289205 0
M  V30 17264 H 1585.04 1.46287 -0.154466 0
M  V30 17265 H 1587 3.60006 2.10836 0
M  V30 17266 H 1585.63 2.4589 2.09136 0
M  V30 17267 H 1584.68 3.80318 0.0791116 0
M  V30 17268 H 1586 4.97753 0.322989 0
M  V30 17269 H 1585.15 5.46881 2.6269 0
M  V30 17270 H 1583.89 4.21578 2.452 0
M  V30 17271 H 1582.89 5.47331 0.520422 0
M  V30 17272 H 1584.12 6.75303 0.717138 0
M  V30 17273 H 1582.07 5.93014 2.80483 0
M  V30 17274 H 1581.98 7.34188 1.80289 0
M  V30 17275 H 1583.25 7.20134 2.98373 0
M  V30 17276 N 1587.48 0.171848 1.5666 0
M  V30 17277 C 1588.9 -0.184312 1.58532 0
M  V30 17278 C 1589.1 -1.62811 1.18721 0
M  V30 17279 O 1588.15 -2.35951 0.899066 0
M  V30 17280 C 1589.46 0.0969826 3.00544 0
M  V30 17281 C 1591.01 0.0352364 3.1298 0
M  V30 17282 C 1591.49 0.289528 4.57084 0
M  V30 17283 N 1592.98 0.237322 4.62592 0
M  V30 17284 C 1593.71 0.408247 5.71945 0
M  V30 17285 N 1593.21 0.638256 6.89854 0
M  V30 17286 N 1595 0.344115 5.61046 0
M  V30 17287 H 1587.15 1.11427 1.80825 0
M  V30 17288 H 1589.42 0.44302 0.838115 0
M  V30 17289 H 1589.12 1.09717 3.34148 0
M  V30 17290 H 1589 -0.611157 3.72216 0
M  V30 17291 H 1591.38 -0.955531 2.79202 0
M  V30 17292 H 1591.46 0.776095 2.43743 0
M  V30 17293 H 1591.11 1.27751 4.91571 0
M  V30 17294 H 1591.04 -0.471948 5.24481 0
M  V30 17295 H 1593.53 0.0652142 3.77844 0
M  V30 17296 H 1593.84 0.758116 7.69072 0
M  V30 17297 H 1592.19 0.674877 6.91716 0
M  V30 17298 H 1595.38 0.165008 4.67809 0
M  V30 17299 H 1595.55 0.480749 6.46214 0
M  V30 17300 N 1588.96 -1.5727 -0.101874 0
M  V30 17301 C 1590.37 -1.5295 -0.455899 0
M  V30 17302 C 1590.57 -0.887526 -1.80901 0
M  V30 17303 O 1589.63 -0.477143 -2.47951 0
M  V30 17304 C 1590.94 -2.97687 -0.424625 0
M  V30 17305 C 1592.49 -3.08867 -0.506963 0
M  V30 17306 C 1592.97 -4.55197 -0.505907 0
M  V30 17307 N 1594.46 -4.59718 -0.566856 0
M  V30 17308 C 1595.19 -5.7038 -0.587766 0
M  V30 17309 N 1594.69 -6.9049 -0.56529 0
M  V30 17310 N 1596.48 -5.58535 -0.632067 0
M  V30 17311 H 1588.63 -1.97381 0.784509 0
M  V30 17312 H 1590.89 -0.902141 0.291284 0
M  V30 17313 H 1590.6 -3.48094 0.502312 0
M  V30 17314 H 1590.47 -3.56022 -1.24612 0
M  V30 17315 H 1592.86 -2.58451 -1.42432 0
M  V30 17316 H 1592.94 -2.53496 0.342544 0
M  V30 17317 H 1592.59 -5.06263 0.407477 0
M  V30 17318 H 1592.52 -5.08399 -1.37253 0
M  V30 17319 H 1595.01 -3.73271 -0.589696 0
M  V30 17320 H 1595.32 -7.70588 -0.584342 0
M  V30 17321 H 1593.67 -6.92957 -0.532444 0
M  V30 17322 H 1596.86 -4.63606 -0.647109 0
M  V30 17323 H 1597.03 -6.44783 -0.644895 0
M  V30 17324 N 1590.44 0.372521 -1.53134 0
M  V30 17325 C 1591.37 1.4621 -1.82057 0
M  V30 17326 C 1592.35 1.56194 -0.673612 0
M  V30 17327 O 1593.53 1.70875 -0.922797 0
M  V30 17328 C 1590.66 2.83632 -2.00425 0
M  V30 17329 C 1589.62 2.88478 -3.16171 0
M  V30 17330 C 1588.94 4.28508 -3.19821 0
M  V30 17331 C 1590.24 2.56628 -4.54906 0
M  V30 17332 H 1591.94 1.22256 -2.73302 0
M  V30 17333 H 1589.48 0.586688 -1.31507 0
M  V30 17334 H 1591.43 3.59876 -2.19242 0
M  V30 17335 H 1590.16 3.0896 -1.05884 0
M  V30 17336 H 1588.82 2.14684 -2.97164 0
M  V30 17337 H 1588.47 4.509 -2.2293 0
M  V30 17338 H 1588.17 4.32667 -3.97584 0
M  V30 17339 H 1589.69 5.06635 -3.40813 0
M  V30 17340 H 1591.1 3.22587 -4.73931 0
M  V30 17341 H 1589.5 2.72114 -5.34859 0
M  V30 17342 H 1590.57 1.51902 -4.60493 0
M  V30 17343 N 1591.91 1.44376 0.631925 0
M  V30 17344 C 1593.19 1.37592 1.39024 0
M  V30 17345 C 1593.57 0.0342456 2.11072 0
M  V30 17346 O 1592.92 -0.983136 2.06268 0
M  V30 17347 C 1593.13 2.57355 2.35732 0
M  V30 17348 C 1594.48 3.01384 2.99087 0
M  V30 17349 O 1595.5 2.57554 2.46057 0
M  V30 17350 O 1594.36 3.77375 3.95285 0
M  V30 17351 H 1591.45 0.544828 0.622167 0
M  V30 17352 H 1594 1.56464 0.657048 0
M  V30 17353 H 1592.77 3.46615 1.81587 0
M  V30 17354 H 1592.39 2.40693 3.16469 0
M  V30 17355 N 1593.39 -0.872258 1.31261 0
M  V30 17356 C 1594.64 -1.6219 1.20576 0
M  V30 17357 C 1594.96 -1.93557 -0.236769 0
M  V30 17358 O 1594.23 -1.58094 -1.15686 0
M  V30 17359 H 1592.81 -0.601265 0.443272 0
M  V30 17360 H 1595.47 -1.04438 1.64556 0
M  V30 17361 H 1594.57 -2.56653 1.77582 0
M  V30 17362 N 1594.87 -1.14184 -1.08627 0
M  V30 17363 C 1595.78 -0.84033 -2.19033 0
M  V30 17364 C 1596.8 0.178322 -1.73084 0
M  V30 17365 O 1597.97 0.00737963 -2.01399 0
M  V30 17366 C 1595.04 -0.319674 -3.45223 0
M  V30 17367 C 1594.1 -1.4006 -4.0581 0
M  V30 17368 C 1593.33 -0.904693 -5.25976 0
M  V30 17369 O 1593.55 0.25468 -5.69831 0
M  V30 17370 O 1592.49 -1.68267 -5.77901 0
M  V30 17371 H 1596.31 -1.76296 -2.47292 0
M  V30 17372 H 1593.9 -0.919929 -1.17719 0
M  V30 17373 H 1595.78 -0.0351268 -4.21385 0
M  V30 17374 H 1594.46 0.575264 -3.18547 0
M  V30 17375 H 1593.36 -1.73858 -3.31247 0
M  V30 17376 H 1594.7 -2.26998 -4.3673 0
M  V30 17377 N 1596.35 1.26749 -0.936613 0
M  V30 17378 C 1597.57 1.98597 -0.597817 0
M  V30 17379 C 1598 1.69324 0.8192 0
M  V30 17380 O 1597.36 0.938634 1.55111 0
M  V30 17381 C 1597.4 3.50656 -0.841007 0
M  V30 17382 O 1596.51 4.12304 0.0891038 0
M  V30 17383 H 1595.85 0.623197 -0.229176 0
M  V30 17384 H 1598.38 1.61332 -1.2583 0
M  V30 17385 H 1598.39 4.00857 -0.760093 0
M  V30 17386 H 1597.06 3.71293 -1.87388 0
M  V30 17387 H 1595.64 3.72876 -0.0424804 0
M  V30 17388 N 1597.83 0.703118 1.41046 0
M  V30 17389 C 1599.05 0.245088 2.05947 0
M  V30 17390 C 1599.48 -1.09988 1.52592 0
M  V30 17391 O 1598.83 -1.69015 0.656023 0
M  V30 17392 C 1598.88 0.221444 3.59919 0
M  V30 17393 O 1597.99 -0.801324 4.0454 0
M  V30 17394 H 1597.33 0.117862 0.653456 0
M  V30 17395 H 1599.86 0.960099 1.80674 0
M  V30 17396 H 1599.87 0.0548681 4.07963 0
M  V30 17397 H 1598.54 1.20301 3.98121 0
M  V30 17398 H 1597.12 -0.603489 3.67984 0
M  V30 17399 N 1599.3 -1.51086 0.448402 0
M  V30 17400 C 1600.21 -2.3177 -0.363323 0
M  V30 17401 C 1601.23 -1.41159 -1.01736 0
M  V30 17402 O 1602.41 -1.74226 -1.01031 0
M  V30 17403 C 1599.47 -3.15211 -1.4437 0
M  V30 17404 C 1598.53 -4.21615 -0.808643 0
M  V30 17405 C 1597.77 -5.01069 -1.83754 0
M  V30 17406 O 1597.99 -4.81296 -3.06121 0
M  V30 17407 O 1596.92 -5.84863 -1.42193 0
M  V30 17408 H 1600.75 -3.02257 0.295653 0
M  V30 17409 H 1598.33 -1.47907 0.210703 0
M  V30 17410 H 1600.22 -3.67053 -2.07002 0
M  V30 17411 H 1598.89 -2.47476 -2.08656 0
M  V30 17412 H 1597.8 -3.73823 -0.143975 0
M  V30 17413 H 1599.13 -4.91756 -0.209098 0
M  V30 17414 N 1600.78 -0.180154 -1.56567 0
M  V30 17415 C 1601.71 0.742131 -2.21393 0
M  V30 17416 C 1602.69 1.23253 -1.1723 0
M  V30 17417 O 1603.88 1.28408 -1.45688 0
M  V30 17418 C 1601.01 1.96799 -2.8616 0
M  V30 17419 C 1599.96 1.6131 -3.96438 0
M  V30 17420 C 1599.29 2.91434 -4.48297 0
M  V30 17421 C 1600.59 0.834382 -5.15592 0
M  V30 17422 H 1602.28 0.201759 -2.98719 0
M  V30 17423 H 1599.83 0.0956016 -1.43682 0
M  V30 17424 H 1601.78 2.61828 -3.30188 0
M  V30 17425 H 1600.51 2.53264 -2.06215 0
M  V30 17426 H 1599.16 0.986451 -3.53079 0
M  V30 17427 H 1598.81 3.45958 -3.65133 0
M  V30 17428 H 1598.51 2.68439 -5.22699 0
M  V30 17429 H 1600.04 3.57478 -4.95017 0
M  V30 17430 H 1601.45 1.38745 -5.56258 0
M  V30 17431 H 1599.85 0.703132 -5.95966 0
M  V30 17432 H 1600.92 -0.167554 -4.8461 0
M  V30 17433 N 1602.26 1.57322 0.0935319 0
M  V30 17434 C 1603.19 1.98861 1.13961 0
M  V30 17435 C 1604.21 0.891385 1.36228 0
M  V30 17436 O 1605.39 1.16949 1.34853 0
M  V30 17437 C 1602.49 2.29369 2.49485 0
M  V30 17438 C 1601.67 3.6066 2.47473 0
M  V30 17439 C 1600.73 3.79087 3.64937 0
M  V30 17440 O 1599.75 4.50923 3.47357 0
M  V30 17441 N 1600.95 3.19784 4.84478 0
M  V30 17442 H 1603.72 2.89208 0.786048 0
M  V30 17443 H 1601.28 1.59416 0.282491 0
M  V30 17444 H 1603.27 2.38889 3.26671 0
M  V30 17445 H 1601.84 1.45021 2.76925 0
M  V30 17446 H 1601.06 3.62095 1.55823 0
M  V30 17447 H 1602.35 4.46908 2.43209 0
M  V30 17448 H 1601.75 2.61436 5.01665 0
M  V30 17449 H 1600.31 3.34786 5.59251 0
M  V30 17450 N 1603.74 -0.364395 1.53329 0
M  V30 17451 C 1604.65 -1.47027 1.82812 0
M  V30 17452 C 1605.66 -1.58559 0.716598 0
M  V30 17453 O 1606.84 -1.7443 1.00678 0
M  V30 17454 C 1603.91 -2.82278 2.01295 0
M  V30 17455 C 1602.97 -2.80264 3.25193 0
M  V30 17456 C 1602.2 -4.09065 3.42785 0
M  V30 17457 O 1602.42 -5.0529 2.64648 0
M  V30 17458 O 1601.36 -4.14804 4.36144 0
M  V30 17459 H 1605.18 -1.25035 2.76767 0
M  V30 17460 H 1602.77 -0.554608 1.38724 0
M  V30 17461 H 1604.65 -3.62416 2.15017 0
M  V30 17462 H 1603.32 -3.04244 1.10531 0
M  V30 17463 H 1602.23 -1.9882 3.16893 0
M  V30 17464 H 1603.56 -2.63252 4.15884 0
M  V30 17465 N 1605.22 -1.44709 -0.62426 0
M  V30 17466 C 1606.15 -1.48097 -1.74928 0
M  V30 17467 C 1607.16 -0.373567 -1.58456 0
M  V30 17468 O 1608.35 -0.639699 -1.66644 0
M  V30 17469 C 1605.45 -1.30576 -3.12735 0
M  V30 17470 C 1604.62 -2.54688 -3.55602 0
M  V30 17471 C 1603.68 -2.31966 -4.72311 0
M  V30 17472 O 1602.71 -3.05492 -4.80274 0
M  V30 17473 N 1603.91 -1.35463 -5.64473 0
M  V30 17474 H 1606.68 -2.45086 -1.72491 0
M  V30 17475 H 1604.24 -1.40236 -0.809039 0
M  V30 17476 H 1606.23 -1.13212 -3.88542 0
M  V30 17477 H 1604.8 -0.419262 -3.09776 0
M  V30 17478 H 1604.02 -2.87282 -2.69931 0
M  V30 17479 H 1605.31 -3.37223 -3.80996 0
M  V30 17480 H 1604.7 -0.747509 -5.60739 0
M  V30 17481 H 1603.26 -1.24075 -6.39882 0
M  V30 17482 N 1606.69 0.865285 -1.31722 0
M  V30 17483 C 1607.63 1.97629 -1.14097 0
M  V30 17484 C 1608.61 1.62543 -0.0432185 0
M  V30 17485 O 1609.79 1.8743 -0.200528 0
M  V30 17486 C 1606.92 3.30419 -0.744374 0
M  V30 17487 C 1605.96 3.84488 -1.84584 0
M  V30 17488 S 1606.8 4.09372 -3.45217 0
M  V30 17489 C 1607.95 5.45153 -3.07505 0
M  V30 17490 H 1608.18 2.12276 -2.08149 0
M  V30 17491 H 1605.72 1.01601 -1.1626 0
M  V30 17492 H 1607.68 4.07164 -0.522308 0
M  V30 17493 H 1606.34 3.136 0.177113 0
M  V30 17494 H 1605.53 4.80499 -1.52108 0
M  V30 17495 H 1605.13 3.14551 -2.02321 0
M  V30 17496 H 1607.42 6.2699 -2.56689 0
M  V30 17497 H 1608.37 5.82582 -4.02497 0
M  V30 17498 H 1608.77 5.0865 -2.44817 0
M  V30 17499 N 1608.17 1.14759 1.0802 0
M  V30 17500 C 1609.42 0.919609 1.80751 0
M  V30 17501 C 1609.75 -0.552268 1.86182 0
M  V30 17502 O 1609.03 -1.40922 1.34057 0
M  V30 17503 C 1609.31 1.52611 3.26162 0
M  V30 17504 C 1609.16 3.06811 3.28918 0
M  V30 17505 C 1610.48 1.20625 4.23246 0
M  V30 17506 H 1607.6 0.33551 0.656203 0
M  V30 17507 H 1610.24 1.41816 1.26444 0
M  V30 17508 H 1608.39 1.10213 3.72539 0
M  V30 17509 H 1610.06 3.58068 2.90835 0
M  V30 17510 H 1608.31 3.41055 2.68075 0
M  V30 17511 H 1608.98 3.44357 4.31419 0
M  V30 17512 H 1611.45 1.57287 3.85227 0
M  V30 17513 H 1610.33 1.65689 5.23296 0
M  V30 17514 H 1610.59 0.122177 4.41931 0
M  V30 17515 N 1609.65 -1.26251 0.943322 0
M  V30 17516 C 1610.56 -2.3003 0.460778 0
M  V30 17517 C 1611.58 -1.67635 -0.4663 0
M  V30 17518 O 1612.75 -1.98418 -0.345307 0
M  V30 17519 C 1609.82 -3.45691 -0.264291 0
M  V30 17520 C 1608.88 -4.23561 0.69961 0
M  V30 17521 C 1608.11 -5.33699 0.00904846 0
M  V30 17522 O 1608.33 -5.57473 -1.20748 0
M  V30 17523 O 1607.27 -5.97945 0.688839 0
M  V30 17524 H 1611.09 -2.73374 1.32289 0
M  V30 17525 H 1608.68 -1.31489 0.709297 0
M  V30 17526 H 1610.56 -4.15997 -0.672634 0
M  V30 17527 H 1609.24 -3.04373 -1.10176 0
M  V30 17528 H 1608.14 -3.55728 1.15794 0
M  V30 17529 H 1609.48 -4.68634 1.50476 0
M  V30 17530 N 1611.13 -0.710588 -1.40671 0
M  V30 17531 C 1612.06 -0.0154749 -2.29195 0
M  V30 17532 C 1613.07 0.728938 -1.45569 0
M  V30 17533 O 1614.26 0.577147 -1.68912 0
M  V30 17534 C 1611.36 1.00232 -3.23739 0
M  V30 17535 C 1610.54 0.324464 -4.36195 0
M  V30 17536 C 1609.6 1.24695 -5.11212 0
M  V30 17537 O 1608.62 0.733634 -5.64452 0
M  V30 17538 N 1609.82 2.57841 -5.20094 0
M  V30 17539 H 1612.59 -0.775543 -2.89492 0
M  V30 17540 H 1610.15 -0.557815 -1.51987 0
M  V30 17541 H 1612.14 1.62151 -3.70795 0
M  V30 17542 H 1610.71 1.66379 -2.64644 0
M  V30 17543 H 1609.93 -0.474847 -3.9133 0
M  V30 17544 H 1611.22 -0.146269 -5.0859 0
M  V30 17545 H 1610.62 3.02047 -4.78314 0
M  V30 17546 H 1609.17 3.14917 -5.70676 0
M  V30 17547 N 1612.61 1.50847 -0.456408 0
M  V30 17548 C 1613.54 2.26004 0.381421 0
M  V30 17549 C 1614.55 1.30757 0.969872 0
M  V30 17550 O 1615.74 1.56375 0.86077 0
M  V30 17551 C 1612.84 3.01506 1.54748 0
M  V30 17552 C 1612.01 4.23997 1.07448 0
M  V30 17553 C 1611.07 4.81917 2.11288 0
M  V30 17554 O 1610.1 5.43238 1.69945 0
M  V30 17555 N 1611.3 4.67622 3.43962 0
M  V30 17556 H 1614.07 2.98545 -0.262823 0
M  V30 17557 H 1611.63 1.59347 -0.286357 0
M  V30 17558 H 1613.62 3.37137 2.23877 0
M  V30 17559 H 1612.19 2.31856 2.0967 0
M  V30 17560 H 1611.41 3.93642 0.209584 0
M  V30 17561 H 1612.7 5.03446 0.736144 0
M  V30 17562 H 1612.1 4.18821 3.8027 0
M  V30 17563 H 1610.65 5.07562 4.0893 0
M  V30 17564 N 1614.09 0.188454 1.56469 0
M  V30 17565 C 1615.02 -0.766806 2.15992 0
M  V30 17566 C 1616.03 -1.18153 1.11998 0
M  V30 17567 O 1617.22 -1.11842 1.39118 0
M  V30 17568 C 1614.32 -2.04594 2.70175 0
M  V30 17569 C 1613.49 -1.79207 3.99003 0
M  V30 17570 C 1612.55 -2.91504 4.38078 0
M  V30 17571 O 1611.58 -2.61397 5.05628 0
M  V30 17572 N 1612.78 -4.19702 4.01037 0
M  V30 17573 H 1615.54 -0.257829 2.98589 0
M  V30 17574 H 1613.11 0.00625645 1.61899 0
M  V30 17575 H 1615.1 -2.78846 2.93303 0
M  V30 17576 H 1613.67 -2.46633 1.9207 0
M  V30 17577 H 1612.89 -0.88769 3.84075 0
M  V30 17578 H 1614.18 -1.59634 4.83109 0
M  V30 17579 H 1613.57 -4.47016 3.46689 0
M  V30 17580 H 1612.13 -4.90602 4.2913 0
M  V30 17581 N 1615.56 -1.5737 -0.0851874 0
M  V30 17582 C 1616.98 -1.53425 -0.439651 0
M  V30 17583 C 1617.18 -0.906663 -1.7995 0
M  V30 17584 O 1616.24 -0.503414 -2.47431 0
M  V30 17585 C 1617.55 -2.9812 -0.393028 0
M  V30 17586 C 1619.1 -3.09387 -0.474175 0
M  V30 17587 C 1619.57 -4.55708 -0.457598 0
M  V30 17588 N 1621.06 -4.60294 -0.518065 0
M  V30 17589 C 1621.8 -5.70971 -0.527237 0
M  V30 17590 N 1621.29 -6.91051 -0.492023 0
M  V30 17591 N 1623.09 -5.59174 -0.572792 0
M  V30 17592 H 1615.24 -1.96538 0.805399 0
M  V30 17593 H 1617.5 -0.899 0.300836 0
M  V30 17594 H 1617.21 -3.47542 0.539204 0
M  V30 17595 H 1617.08 -3.57324 -1.20829 0
M  V30 17596 H 1619.47 -2.59948 -1.39683 0
M  V30 17597 H 1619.55 -2.53119 0.369411 0
M  V30 17598 H 1619.19 -5.05802 0.46115 0
M  V30 17599 H 1619.12 -5.09826 -1.31853 0
M  V30 17600 H 1621.61 -3.73875 -0.550072 0
M  V30 17601 H 1621.93 -7.71164 -0.502578 0
M  V30 17602 H 1620.27 -6.93483 -0.458917 0
M  V30 17603 H 1623.46 -4.64266 -0.597901 0
M  V30 17604 H 1623.64 -6.45431 -0.576471 0
M  V30 17605 N 1617.04 0.356258 -1.53521 0
M  V30 17606 C 1618 1.41975 -1.79933 0
M  V30 17607 C 1619 1.46177 -0.669997 0
M  V30 17608 O 1620.19 1.46774 -0.938239 0
M  V30 17609 C 1617.33 2.81015 -1.92985 0
M  V30 17610 H 1618.52 1.19824 -2.74922 0
M  V30 17611 H 1616.07 0.589928 -1.4474 0
M  V30 17612 H 1616.81 3.08466 -1.00095 0
M  V30 17613 H 1616.59 2.79363 -2.75135 0
M  V30 17614 H 1618.08 3.58013 -2.1498 0
M  V30 17615 N 1618.52 1.45038 0.616577 0
M  V30 17616 C 1619.43 1.55542 1.75624 0
M  V30 17617 C 1620.45 0.440304 1.68337 0
M  V30 17618 O 1621.62 0.699725 1.88854 0
M  V30 17619 C 1618.69 1.51062 3.1206 0
M  V30 17620 C 1617.75 2.7354 3.30869 0
M  V30 17621 C 1616.98 2.69264 4.60796 0
M  V30 17622 O 1617.2 1.76085 5.42541 0
M  V30 17623 O 1616.14 3.60335 4.82123 0
M  V30 17624 H 1619.96 2.51854 1.69715 0
M  V30 17625 H 1617.55 1.27448 0.779578 0
M  V30 17626 H 1619.43 1.51138 3.93364 0
M  V30 17627 H 1618.11 0.578976 3.1848 0
M  V30 17628 H 1617.01 2.79027 2.49188 0
M  V30 17629 H 1618.35 3.65799 3.2932 0
M  V30 17630 N 1620 -0.858287 1.32179 0
M  V30 17631 C 1620.91 -1.99894 1.228 0
M  V30 17632 C 1621.92 -1.73417 0.142323 0
M  V30 17633 O 1623.1 -1.98114 0.362321 0
M  V30 17634 C 1620.16 -3.33495 0.947745 0
M  V30 17635 C 1619.23 -3.73217 2.12149 0
M  V30 17636 C 1618.46 -5.00443 1.85452 0
M  V30 17637 O 1618.68 -5.64828 0.79531 0
M  V30 17638 O 1617.62 -5.3721 2.71457 0
M  V30 17639 H 1621.44 -2.10742 2.18682 0
M  V30 17640 H 1619.03 -0.988385 1.12033 0
M  V30 17641 H 1620.91 -4.13585 0.807791 0
M  V30 17642 H 1619.58 -3.23694 0.019053 0
M  V30 17643 H 1618.49 -2.93718 2.3169 0
M  V30 17644 H 1619.82 -3.87659 3.03285 0
M  V30 17645 N 1621.48 -1.1533 -1.07409 0
M  V30 17646 C 1622.41 -0.872476 -2.16587 0
M  V30 17647 C 1623.39 0.176683 -1.6918 0
M  V30 17648 O 1624.57 0.0311826 -1.94175 0
M  V30 17649 C 1621.7 -0.360342 -3.45426 0
M  V30 17650 C 1620.66 -1.34611 -4.06281 0
M  V30 17651 C 1619.98 -0.692848 -5.30192 0
M  V30 17652 C 1621.28 -2.71191 -4.46378 0
M  V30 17653 H 1622.98 -1.78546 -2.40336 0
M  V30 17654 H 1620.52 -0.859895 -1.15507 0
M  V30 17655 H 1622.47 -0.151429 -4.21128 0
M  V30 17656 H 1621.2 0.588109 -3.21261 0
M  V30 17657 H 1619.86 -1.54137 -3.32622 0
M  V30 17658 H 1619.51 0.261732 -5.02319 0
M  V30 17659 H 1619.21 -1.35071 -5.71865 0
M  V30 17660 H 1620.73 -0.493695 -6.08601 0
M  V30 17661 H 1622.14 -2.55513 -5.13212 0
M  V30 17662 H 1620.54 -3.33345 -4.99 0
M  V30 17663 H 1621.61 -3.273 -3.57775 0
M  V30 17664 N 1622.95 1.25748 -0.950004 0
M  V30 17665 C 1624.37 1.45599 -0.653697 0
M  V30 17666 C 1624.57 1.85357 0.790245 0
M  V30 17667 O 1623.63 1.98071 1.56601 0
M  V30 17668 C 1624.94 2.5316 -1.62267 0
M  V30 17669 C 1626.49 2.67004 -1.63334 0
M  V30 17670 C 1626.96 3.77745 -2.58984 0
M  V30 17671 N 1628.45 3.8515 -2.57321 0
M  V30 17672 C 1629.19 4.70315 -3.28011 0
M  V30 17673 N 1628.68 5.59802 -4.08159 0
M  V30 17674 N 1630.48 4.64239 -3.16921 0
M  V30 17675 H 1622.63 0.982321 -1.88319 0
M  V30 17676 H 1624.89 0.492917 -0.809776 0
M  V30 17677 H 1624.6 2.30792 -2.65382 0
M  V30 17678 H 1624.47 3.50988 -1.38158 0
M  V30 17679 H 1626.86 2.88739 -0.609388 0
M  V30 17680 H 1626.94 1.69591 -1.915 0
M  V30 17681 H 1626.58 3.56761 -3.61502 0
M  V30 17682 H 1626.51 4.74633 -2.28103 0
M  V30 17683 H 1629 3.21178 -1.99131 0
M  V30 17684 H 1629.32 6.21701 -4.59029 0
M  V30 17685 H 1627.66 5.59525 -4.12258 0
M  V30 17686 H 1630.85 3.93335 -2.53782 0
M  V30 17687 H 1631.03 5.30389 -3.72279 0
M  V30 17688 N 1624.43 0.718038 1.40292 0
M  V30 17689 C 1625.39 0.0757483 2.29075 0
M  V30 17690 C 1626.39 -0.684831 1.45488 0
M  V30 17691 O 1627.58 -0.516369 1.66371 0
M  V30 17692 C 1624.72 -0.902534 3.28736 0
M  V30 17693 H 1625.91 0.857729 2.87373 0
M  V30 17694 H 1623.46 0.482839 1.48655 0
M  V30 17695 H 1624.2 -1.71148 2.75461 0
M  V30 17696 H 1623.98 -0.360009 3.90444 0
M  V30 17697 H 1625.47 -1.34903 3.9521 0
M  V30 17698 N 1625.91 -1.50602 0.464402 0
M  V30 17699 C 1626.84 -2.26203 -0.36943 0
M  V30 17700 C 1627.86 -1.31269 -0.962924 0
M  V30 17701 O 1629.04 -1.56829 -0.852465 0
M  V30 17702 C 1626.14 -3.02323 -1.53147 0
M  V30 17703 C 1625.32 -4.24561 -1.05198 0
M  V30 17704 C 1624.38 -4.83031 -2.08729 0
M  V30 17705 O 1623.4 -5.44131 -1.67062 0
M  V30 17706 N 1624.6 -4.6944 -3.41477 0
M  V30 17707 H 1627.37 -2.98402 0.278652 0
M  V30 17708 H 1624.93 -1.59193 0.294803 0
M  V30 17709 H 1626.92 -3.38319 -2.22086 0
M  V30 17710 H 1625.49 -2.32965 -2.08438 0
M  V30 17711 H 1624.71 -3.93748 -0.188705 0
M  V30 17712 H 1626 -5.0383 -0.709434 0
M  V30 17713 H 1625.4 -4.20832 -3.78044 0
M  V30 17714 H 1623.96 -5.09724 -4.06233 0
M  V30 17715 N 1627.39 -0.19675 -1.56367 0
M  V30 17716 C 1628.32 0.718607 -2.22167 0
M  V30 17717 C 1629.3 1.22002 -1.1853 0
M  V30 17718 O 1630.48 1.26856 -1.47042 0
M  V30 17719 C 1627.61 1.93753 -2.88231 0
M  V30 17720 C 1626.57 1.57096 -3.98127 0
M  V30 17721 C 1625.89 2.86663 -4.51363 0
M  V30 17722 C 1627.19 0.779649 -5.16448 0
M  V30 17723 H 1628.89 0.170064 -2.98917 0
M  V30 17724 H 1626.43 0.0803568 -1.43776 0
M  V30 17725 H 1628.39 2.58312 -3.32946 0
M  V30 17726 H 1627.11 2.51063 -2.0889 0
M  V30 17727 H 1625.77 0.948947 -3.54105 0
M  V30 17728 H 1625.42 3.42066 -3.68782 0
M  V30 17729 H 1625.12 2.6288 -5.25517 0
M  V30 17730 H 1626.64 3.52207 -4.98781 0
M  V30 17731 H 1628.06 1.32838 -5.57698 0
M  V30 17732 H 1626.45 0.639882 -5.96679 0
M  V30 17733 H 1627.52 -0.218944 -4.84405 0
M  V30 17734 N 1628.87 1.57413 0.0768405 0
M  V30 17735 C 1630.11 1.86633 0.775414 0
M  V30 17736 C 1630.44 0.788041 1.78367 0
M  V30 17737 O 1629.71 -0.183835 1.95036 0
M  V30 17738 H 1628.29 0.688678 0.289365 0
M  V30 17739 H 1630.95 1.94825 0.0541285 0
M  V30 17740 H 1630.04 2.83977 1.29474 0
M  V30 17741 N 1630.34 -0.348112 1.53707 0
M  V30 17742 C 1631.76 -0.690926 1.43869 0
M  V30 17743 C 1631.96 -1.92614 0.59177 0
M  V30 17744 O 1631.02 -2.5237 0.0809797 0
M  V30 17745 C 1632.33 -0.887824 2.87295 0
M  V30 17746 C 1633.88 -0.986731 2.9704 0
M  V30 17747 C 1634.35 -1.21598 4.41563 0
M  V30 17748 N 1635.84 -1.28328 4.45069 0
M  V30 17749 C 1636.58 -1.47809 5.54022 0
M  V30 17750 N 1636.07 -1.64492 6.72989 0
M  V30 17751 N 1637.87 -1.5032 5.41628 0
M  V30 17752 H 1630.02 0.464101 2.07268 0
M  V30 17753 H 1632.28 0.145678 0.93674 0
M  V30 17754 H 1631.99 -0.0517672 3.51662 0
M  V30 17755 H 1631.86 -1.79089 3.31974 0
M  V30 17756 H 1634.25 -1.81331 2.32815 0
M  V30 17757 H 1634.33 -0.0606692 2.55728 0
M  V30 17758 H 1633.97 -0.394341 5.06367 0
M  V30 17759 H 1633.9 -2.15553 4.80463 0
M  V30 17760 H 1636.39 -1.16979 3.59339 0
M  V30 17761 H 1636.71 -1.78979 7.51789 0
M  V30 17762 H 1635.05 -1.61636 6.75943 0
M  V30 17763 H 1638.24 -1.36865 4.47644 0
M  V30 17764 H 1638.42 -1.6516 6.26599 0
M  V30 17765 N 1631.82 -1.45363 -0.608876 0
M  V30 17766 C 1632.77 -1.53936 -1.71966 0
M  V30 17767 C 1633.74 -0.385352 -1.61568 0
M  V30 17768 O 1634.92 -0.598622 -1.81166 0
M  V30 17769 C 1632.06 -1.51079 -3.10272 0
M  V30 17770 C 1631.18 -2.77022 -3.31486 0
M  V30 17771 C 1630.31 -2.65846 -4.59891 0
M  V30 17772 C 1629.35 -3.86848 -4.74357 0
M  V30 17773 N 1628.49 -3.74214 -5.94061 0
M  V30 17774 H 1633.33 -2.4883 -1.63974 0
M  V30 17775 H 1630.87 -1.23472 -0.799565 0
M  V30 17776 H 1632.82 -1.47411 -3.90289 0
M  V30 17777 H 1631.45 -0.597374 -3.17224 0
M  V30 17778 H 1630.51 -2.90783 -2.45253 0
M  V30 17779 H 1631.82 -3.66776 -3.38049 0
M  V30 17780 H 1630.97 -2.60136 -5.48101 0
M  V30 17781 H 1629.71 -1.73689 -4.55723 0
M  V30 17782 H 1628.72 -3.92918 -3.84572 0
M  V30 17783 H 1629.94 -4.80069 -4.80324 0
M  V30 17784 H 1627.89 -2.84825 -5.9094 0
M  V30 17785 H 1627.8 -4.57601 -6.01779 0
M  V30 17786 H 1629.07 -3.72434 -6.84772 0
M  V30 17787 N 1633.3 0.851265 -1.32632 0
M  V30 17788 C 1634.21 1.99239 -1.23858 0
M  V30 17789 C 1635.23 1.73339 -0.151517 0
M  V30 17790 O 1636.4 1.97919 -0.372822 0
M  V30 17791 C 1633.47 3.32987 -0.965417 0
M  V30 17792 C 1632.53 3.72087 -2.14126 0
M  V30 17793 C 1631.76 4.99453 -1.88103 0
M  V30 17794 O 1631.98 5.64399 -0.825253 0
M  V30 17795 O 1630.92 5.35763 -2.74302 0
M  V30 17796 H 1634.74 2.09579 -2.19796 0
M  V30 17797 H 1632.33 0.98243 -1.12555 0
M  V30 17798 H 1634.21 4.13151 -0.829713 0
M  V30 17799 H 1632.89 3.2368 -0.036219 0
M  V30 17800 H 1631.79 2.92485 -2.33245 0
M  V30 17801 H 1633.13 3.86045 -3.05336 0
M  V30 17802 N 1634.78 1.15898 1.06796 0
M  V30 17803 C 1635.69 0.87507 2.17669 0
M  V30 17804 C 1636.7 -0.150763 1.73346 0
M  V30 17805 O 1637.88 0.0246621 2.01385 0
M  V30 17806 C 1634.95 0.374555 3.44671 0
M  V30 17807 C 1634.01 1.46498 4.0353 0
M  V30 17808 C 1633.24 0.988256 5.2447 0
M  V30 17809 O 1633.46 -0.163992 5.70164 0
M  V30 17810 O 1632.4 1.7744 5.75151 0
M  V30 17811 H 1636.22 1.80208 2.44456 0
M  V30 17812 H 1633.81 0.93854 1.1624 0
M  V30 17813 H 1635.69 0.102161 4.21276 0
M  V30 17814 H 1634.36 -0.524513 3.19422 0
M  V30 17815 H 1633.27 1.79105 3.28439 0
M  V30 17816 H 1634.6 2.33917 4.33063 0
M  V30 17817 N 1636.26 -1.25243 0.956659 0
M  V30 17818 C 1637.17 -2.29529 0.48515 0
M  V30 17819 C 1638.18 -1.68121 -0.448494 0
M  V30 17820 O 1639.36 -1.98773 -0.324243 0
M  V30 17821 C 1636.42 -3.45952 -0.227611 0
M  V30 17822 C 1635.48 -4.22795 0.744495 0
M  V30 17823 C 1634.72 -5.3366 0.0656539 0
M  V30 17824 O 1634.94 -5.58722 -1.14829 0
M  V30 17825 O 1633.87 -5.97181 0.75222 0
M  V30 17826 H 1637.7 -2.71955 1.35181 0
M  V30 17827 H 1635.29 -1.30729 0.723203 0
M  V30 17828 H 1637.17 -4.16687 -0.628474 0
M  V30 17829 H 1635.84 -3.05524 -1.06942 0
M  V30 17830 H 1634.75 -3.5448 1.1956 0
M  V30 17831 H 1636.08 -4.67012 1.55438 0
M  V30 17832 N 1637.73 -0.725468 -1.3991 0
M  V30 17833 C 1638.66 -0.094211 -2.3331 0
M  V30 17834 C 1639.65 0.734728 -1.53414 0
M  V30 17835 O 1640.83 0.681647 -1.81844 0
M  V30 17836 C 1637.96 0.820958 -3.37457 0
M  V30 17837 C 1636.91 0.0968983 -4.2789 0
M  V30 17838 C 1636.24 1.12845 -5.22657 0
M  V30 17839 C 1637.54 -1.05483 -5.11537 0
M  V30 17840 H 1639.23 -0.874365 -2.86348 0
M  V30 17841 H 1636.78 -0.421913 -1.3768 0
M  V30 17842 H 1638.73 1.27203 -4.01743 0
M  V30 17843 H 1637.46 1.63312 -2.82837 0
M  V30 17844 H 1636.12 -0.334454 -3.65071 0
M  V30 17845 H 1635.76 1.93392 -4.64337 0
M  V30 17846 H 1635.46 0.648805 -5.84007 0
M  V30 17847 H 1636.99 1.57942 -5.89819 0
M  V30 17848 H 1638.4 -0.682657 -5.69221 0
M  V30 17849 H 1636.8 -1.46349 -5.81981 0
M  V30 17850 H 1637.87 -1.88095 -4.46932 0
M  V30 17851 N 1639.21 1.50354 -0.472382 0
M  V30 17852 C 1640.14 2.26396 0.357429 0
M  V30 17853 C 1641.16 1.31778 0.955949 0
M  V30 17854 O 1642.35 1.57279 0.844136 0
M  V30 17855 C 1639.45 3.03131 1.51542 0
M  V30 17856 C 1638.62 4.25113 1.02945 0
M  V30 17857 C 1637.68 4.84131 2.06164 0
M  V30 17858 O 1636.7 5.4501 1.64174 0
M  V30 17859 N 1637.91 4.71244 3.38983 0
M  V30 17860 H 1640.67 2.9825 -0.294473 0
M  V30 17861 H 1638.23 1.59035 -0.303242 0
M  V30 17862 H 1640.22 3.39492 2.20289 0
M  V30 17863 H 1638.79 2.34067 2.07199 0
M  V30 17864 H 1638.01 3.93843 0.167821 0
M  V30 17865 H 1639.3 5.04199 0.682705 0
M  V30 17866 H 1638.7 4.22831 3.75807 0
M  V30 17867 H 1637.26 5.11871 4.03524 0
M  V30 17868 N 1640.69 0.205039 1.56261 0
M  V30 17869 C 1641.65 -0.698166 2.18308 0
M  V30 17870 C 1642.65 -1.13376 1.14029 0
M  V30 17871 O 1643.84 -1.04524 1.39357 0
M  V30 17872 C 1640.98 -1.95438 2.79315 0
M  V30 17873 H 1642.17 -0.157462 2.99486 0
M  V30 17874 H 1639.72 -0.0445849 1.56236 0
M  V30 17875 H 1640.46 -2.53736 2.01962 0
M  V30 17876 H 1640.24 -1.65068 3.55662 0
M  V30 17877 H 1641.73 -2.59824 3.26927 0
M  V30 17878 N 1642.17 -1.57451 -0.0684915 0
M  V30 17879 C 1643.13 -2.0293 -1.06545 0
M  V30 17880 C 1644.13 -0.926861 -1.314 0
M  V30 17881 O 1645.32 -1.19164 -1.27065 0
M  V30 17882 C 1642.45 -2.41276 -2.4083 0
M  V30 17883 H 1643.65 -2.92242 -0.673401 0
M  V30 17884 H 1641.2 -1.53107 -0.314307 0
M  V30 17885 H 1641.94 -1.55 -2.8486 0
M  V30 17886 H 1641.72 -3.21727 -2.2413 0
M  V30 17887 H 1643.21 -2.77026 -3.12484 0
M  V30 17888 N 1643.65 0.339955 -1.5389 0
M  V30 17889 C 1644.58 1.42316 -1.85117 0
M  V30 17890 C 1645.56 1.5473 -0.706591 0
M  V30 17891 O 1646.74 1.68879 -0.958834 0
M  V30 17892 C 1643.87 2.79317 -2.06396 0
M  V30 17893 C 1642.83 2.81707 -3.22219 0
M  V30 17894 C 1642.15 4.21627 -3.28838 0
M  V30 17895 C 1643.45 2.46921 -4.60247 0
M  V30 17896 H 1645.15 1.16431 -2.75834 0
M  V30 17897 H 1642.69 0.558661 -1.32721 0
M  V30 17898 H 1644.65 3.55145 -2.26826 0
M  V30 17899 H 1643.37 3.06644 -1.12414 0
M  V30 17900 H 1642.03 2.08332 -3.01651 0
M  V30 17901 H 1641.68 4.4607 -2.32444 0
M  V30 17902 H 1641.38 4.24137 -4.06672 0
M  V30 17903 H 1642.9 4.99292 -3.51482 0
M  V30 17904 H 1644.32 3.12462 -4.80667 0
M  V30 17905 H 1642.71 2.60707 -5.40511 0
M  V30 17906 H 1643.78 1.421 -4.63611 0
M  V30 17907 N 1645.13 1.45684 0.601159 0
M  V30 17908 C 1646.09 1.54451 1.69344 0
M  V30 17909 C 1647.09 0.423379 1.55126 0
M  V30 17910 O 1648.28 0.687079 1.60078 0
M  V30 17911 C 1645.41 1.4472 3.08657 0
M  V30 17912 H 1646.6 2.51778 1.62935 0
M  V30 17913 H 1644.16 1.3322 0.81744 0
M  V30 17914 H 1644.89 0.486027 3.20637 0
M  V30 17915 H 1644.68 2.26045 3.20384 0
M  V30 17916 H 1646.17 1.53902 3.88206 0
M  V30 17917 N 1646.6 -0.84422 1.33082 0
M  V30 17918 C 1648.02 -1.13406 1.12299 0
M  V30 17919 C 1648.22 -2.013 -0.0896529 0
M  V30 17920 O 1647.28 -2.40425 -0.771493 0
M  V30 17921 C 1648.59 -1.80132 2.40776 0
M  V30 17922 C 1650.14 -1.92721 2.46632 0
M  V30 17923 C 1650.61 -2.62863 3.75056 0
M  V30 17924 N 1652.1 -2.70379 3.76097 0
M  V30 17925 C 1652.84 -3.25328 4.72175 0
M  V30 17926 N 1652.33 -3.81005 5.78625 0
M  V30 17927 N 1654.13 -3.23529 4.59658 0
M  V30 17928 H 1646.28 -0.259126 2.10813 0
M  V30 17929 H 1648.54 -0.177459 0.931242 0
M  V30 17930 H 1648.25 -1.23007 3.29488 0
M  V30 17931 H 1648.12 -2.802 2.52523 0
M  V30 17932 H 1650.51 -2.49002 1.58373 0
M  V30 17933 H 1650.59 -0.916191 2.3883 0
M  V30 17934 H 1650.23 -2.07242 4.63695 0
M  V30 17935 H 1650.16 -3.64425 3.80134 0
M  V30 17936 H 1652.65 -2.30891 2.99162 0
M  V30 17937 H 1652.97 -4.21121 6.47979 0
M  V30 17938 H 1651.31 -3.79308 5.82366 0
M  V30 17939 H 1654.5 -2.79286 3.75656 0
M  V30 17940 H 1654.68 -3.66051 5.34706 0
M  V30 17941 N 1648.08 -1.16463 -1.0618 0
M  V30 17942 C 1649.04 -0.874674 -2.11854 0
M  V30 17943 C 1650.04 0.130829 -1.60267 0
M  V30 17944 O 1651.23 -0.100195 -1.73912 0
M  V30 17945 C 1648.37 -0.30826 -3.39503 0
M  V30 17946 H 1649.56 -1.81149 -2.39009 0
M  V30 17947 H 1647.11 -0.973721 -1.22264 0
M  V30 17948 H 1647.85 0.636181 -3.17999 0
M  V30 17949 H 1647.63 -1.03281 -3.78253 0
M  V30 17950 H 1649.12 -0.123378 -4.17418 0
M  V30 17951 N 1649.56 1.24734 -0.963288 0
M  V30 17952 C 1650.47 2.29268 -0.497316 0
M  V30 17953 C 1651.49 1.68356 0.439572 0
M  V30 17954 O 1652.66 1.98942 0.313697 0
M  V30 17955 C 1649.73 3.46068 0.209261 0
M  V30 17956 C 1648.79 4.22394 -0.766907 0
M  V30 17957 C 1648.02 5.33617 -0.0939542 0
M  V30 17958 O 1648.24 5.59323 1.11864 0
M  V30 17959 O 1647.18 5.96774 -0.78388 0
M  V30 17960 H 1651 2.71235 -1.36622 0
M  V30 17961 H 1648.59 1.30344 -0.730126 0
M  V30 17962 H 1650.47 4.17015 0.606367 0
M  V30 17963 H 1649.15 3.06087 1.0532 0
M  V30 17964 H 1648.05 3.53841 -1.21439 0
M  V30 17965 H 1649.39 4.66181 -1.57912 0
M  V30 17966 N 1651.04 0.732878 1.39523 0
M  V30 17967 C 1652.31 0.20629 1.94509 0
M  V30 17968 C 1652.69 -1.29152 1.66982 0
M  V30 17969 O 1652.04 -2.05607 0.996895 0
M  V30 17970 C 1652.25 0.537619 3.44834 0
M  V30 17971 C 1653.6 0.485787 4.21812 0
M  V30 17972 O 1654.62 0.474686 3.53023 0
M  V30 17973 O 1653.48 0.478457 5.44402 0
M  V30 17974 H 1650.58 0.0369228 0.826175 0
M  V30 17975 H 1653.12 0.811591 1.49035 0
M  V30 17976 H 1651.9 1.57289 3.58296 0
M  V30 17977 H 1651.52 -0.0967601 3.97482 0
M  V30 17978 N 1652.52 -1.50101 0.480349 0
M  V30 17979 C 1653.43 -2.32488 -0.31408 0
M  V30 17980 C 1654.44 -1.43285 -0.987186 0
M  V30 17981 O 1655.62 -1.7633 -0.973123 0
M  V30 17982 C 1652.68 -3.18203 -1.37651 0
M  V30 17983 C 1651.74 -4.23236 -0.71903 0
M  V30 17984 C 1650.98 -5.04854 -1.73084 0
M  V30 17985 O 1651.2 -4.87681 -2.95843 0
M  V30 17986 O 1650.13 -5.87748 -1.29755 0
M  V30 17987 H 1653.96 -3.01562 0.3597 0
M  V30 17988 H 1651.54 -1.47427 0.242029 0
M  V30 17989 H 1653.43 -3.71362 -1.9917 0
M  V30 17990 H 1652.1 -2.51846 -2.0336 0
M  V30 17991 H 1651.01 -3.74044 -0.0646492 0
M  V30 17992 H 1652.34 -4.92089 -0.104743 0
M  V30 17993 N 1653.99 -0.213323 -1.5615 0
M  V30 17994 C 1655.24 0.419767 -1.97693 0
M  V30 17995 C 1655.56 1.60878 -1.10197 0
M  V30 17996 O 1654.83 1.95097 -0.177185 0
M  V30 17997 H 1653.41 0.158075 -0.730083 0
M  V30 17998 H 1656.07 -0.304303 -1.9251 0
M  V30 17999 H 1655.17 0.751645 -3.02914 0
M  V30 18000 N 1655.47 1.57485 0.0601405 0
M  V30 18001 C 1656.72 1.87445 0.755575 0
M  V30 18002 C 1657.04 0.806915 1.77522 0
M  V30 18003 O 1656.31 -0.163139 1.9522 0
M  V30 18004 H 1654.89 0.691708 0.282044 0
M  V30 18005 H 1657.55 1.94871 0.0334616 0
M  V30 18006 H 1656.65 2.85334 1.26455 0
M  V30 18007 N 1656.95 -0.331789 1.54068 0
M  V30 18008 C 1657.91 -1.39094 1.82169 0
M  V30 18009 C 1658.91 -1.45092 0.693168 0
M  V30 18010 O 1660.1 -1.45263 0.961471 0
M  V30 18011 C 1657.24 -2.77909 1.97432 0
M  V30 18012 H 1658.43 -1.15435 2.76794 0
M  V30 18013 H 1655.98 -0.566827 1.4566 0
M  V30 18014 H 1656.72 -3.06835 1.0499 0
M  V30 18015 H 1656.5 -2.7495 2.79544 0
M  V30 18016 H 1657.99 -3.54548 2.20649 0
M  V30 18017 N 1658.43 -1.46001 -0.593424 0
M  V30 18018 C 1659.84 -1.30719 -0.915678 0
M  V30 18019 C 1660.04 -0.270679 -1.99674 0
M  V30 18020 O 1659.1 0.330482 -2.50328 0
M  V30 18021 C 1660.41 -2.69034 -1.34318 0
M  V30 18022 C 1661.96 -2.77041 -1.45662 0
M  V30 18023 C 1662.44 -4.15913 -1.91783 0
M  V30 18024 N 1663.93 -4.18277 -1.98994 0
M  V30 18025 C 1664.66 -5.22612 -2.35932 0
M  V30 18026 N 1664.16 -6.37283 -2.71738 0
M  V30 18027 N 1665.95 -5.09975 -2.36394 0
M  V30 18028 H 1658.1 -2.12056 0.120882 0
M  V30 18029 H 1660.37 -0.947961 -0.00858574 0
M  V30 18030 H 1660.07 -3.4614 -0.622922 0
M  V30 18031 H 1659.95 -2.98434 -2.30688 0
M  V30 18032 H 1662.33 -2.0023 -2.16776 0
M  V30 18033 H 1662.41 -2.51338 -0.475706 0
M  V30 18034 H 1662.06 -4.93215 -1.2125 0
M  V30 18035 H 1661.99 -4.39016 -2.90813 0
M  V30 18036 H 1664.48 -3.35534 -1.73855 0
M  V30 18037 H 1664.79 -7.12679 -2.98846 0
M  V30 18038 H 1663.14 -6.40662 -2.69401 0
M  V30 18039 H 1666.33 -4.1943 -2.07836 0
M  V30 18040 H 1666.5 -5.91402 -2.64854 0
M  V30 18041 N 1659.91 0.83715 -1.33527 0
M  V30 18042 C 1660.87 1.92865 -1.23837 0
M  V30 18043 C 1661.87 1.60032 -0.157005 0
M  V30 18044 O 1663.06 1.69339 -0.408654 0
M  V30 18045 C 1660.19 3.28568 -0.908617 0
M  V30 18046 H 1661.38 2.02883 -2.20859 0
M  V30 18047 H 1658.94 1.02944 -1.1761 0
M  V30 18048 H 1659.67 3.24246 0.0590328 0
M  V30 18049 H 1659.46 3.53779 -1.69064 0
M  V30 18050 H 1660.95 4.0853 -0.86561 0
M  V30 18051 N 1661.38 1.17024 1.05561 0
M  V30 18052 C 1662.32 0.841314 2.13201 0
M  V30 18053 C 1663.33 -0.154667 1.62064 0
M  V30 18054 O 1664.52 0.0711173 1.78358 0
M  V30 18055 C 1661.62 0.233156 3.38097 0
M  V30 18056 C 1660.79 1.27108 4.18524 0
M  V30 18057 C 1659.85 0.681364 5.2177 0
M  V30 18058 O 1658.88 1.35219 5.52906 0
M  V30 18059 N 1660.08 -0.528381 5.7809 0
M  V30 18060 H 1662.84 1.76773 2.42015 0
M  V30 18061 H 1660.4 1.06858 1.21626 0
M  V30 18062 H 1662.4 -0.174565 4.04323 0
M  V30 18063 H 1660.97 -0.596965 3.06847 0
M  V30 18064 H 1660.19 1.85469 3.47843 0
M  V30 18065 H 1661.47 1.97129 4.6906 0
M  V30 18066 H 1660.87 -1.09141 5.55072 0
M  V30 18067 H 1659.43 -0.878214 6.45857 0
M  V30 18068 N 1662.86 -1.24221 0.969889 0
M  V30 18069 C 1663.79 -2.27619 0.520745 0
M  V30 18070 C 1664.77 -1.64291 -0.440731 0
M  V30 18071 O 1665.96 -1.91265 -0.336381 0
M  V30 18072 C 1663.09 -3.46792 -0.187768 0
M  V30 18073 C 1662.04 -4.22402 0.689945 0
M  V30 18074 C 1661.37 -5.34489 -0.150186 0
M  V30 18075 C 1662.67 -4.83494 1.97562 0
M  V30 18076 H 1664.36 -2.65441 1.38498 0
M  V30 18077 H 1661.91 -1.276 0.667398 0
M  V30 18078 H 1663.86 -4.18263 -0.513216 0
M  V30 18079 H 1662.59 -3.08002 -1.08637 0
M  V30 18080 H 1661.24 -3.52734 0.998696 0
M  V30 18081 H 1660.89 -4.9194 -1.049 0
M  V30 18082 H 1660.59 -5.85996 0.433891 0
M  V30 18083 H 1662.12 -6.08786 -0.470255 0
M  V30 18084 H 1663.53 -5.47028 1.71561 0
M  V30 18085 H 1661.93 -5.45243 2.5066 0
M  V30 18086 H 1663 -4.04826 2.66915 0
M  V30 18087 N 1664.34 -0.740267 -1.39132 0
M  V30 18088 C 1665.27 -0.118951 -2.33197 0
M  V30 18089 C 1666.25 0.718416 -1.54184 0
M  V30 18090 O 1667.44 0.662322 -1.82557 0
M  V30 18091 C 1664.57 0.78512 -3.38309 0
M  V30 18092 C 1663.52 0.0515093 -4.27969 0
M  V30 18093 C 1662.85 1.07295 -5.23824 0
M  V30 18094 C 1664.15 -1.10903 -5.1039 0
M  V30 18095 H 1665.84 -0.904687 -2.85405 0
M  V30 18096 H 1663.39 -0.436493 -1.37225 0
M  V30 18097 H 1665.34 1.22935 -4.03069 0
M  V30 18098 H 1664.06 1.60303 -2.84553 0
M  V30 18099 H 1662.72 -0.373156 -3.64696 0
M  V30 18100 H 1662.37 1.88456 -4.66362 0
M  V30 18101 H 1662.07 0.586827 -5.84662 0
M  V30 18102 H 1663.59 1.51677 -5.91461 0
M  V30 18103 H 1665.01 -0.742993 -5.68465 0
M  V30 18104 H 1663.41 -1.52513 -5.80396 0
M  V30 18105 H 1664.48 -1.92825 -4.44912 0
M  V30 18106 N 1665.82 1.49844 -0.488302 0
M  V30 18107 C 1666.77 2.28883 0.296859 0
M  V30 18108 C 1667.74 1.34703 0.971818 0
M  V30 18109 O 1668.92 1.63653 0.980937 0
M  V30 18110 C 1666.06 3.17049 1.36286 0
M  V30 18111 C 1665.17 4.26275 0.700956 0
M  V30 18112 C 1664.31 5.01674 1.74632 0
M  V30 18113 C 1663.35 6.02753 1.06559 0
M  V30 18114 N 1662.48 6.71366 2.05457 0
M  V30 18115 H 1667.32 2.95523 -0.383417 0
M  V30 18116 H 1664.86 1.45721 -0.200928 0
M  V30 18117 H 1666.82 3.66531 1.99276 0
M  V30 18118 H 1665.45 2.52419 2.01207 0
M  V30 18119 H 1664.5 3.80377 -0.0419236 0
M  V30 18120 H 1665.81 4.98529 0.164469 0
M  V30 18121 H 1664.97 5.54961 2.45159 0
M  V30 18122 H 1663.71 4.29166 2.31664 0
M  V30 18123 H 1662.71 5.4871 0.346029 0
M  V30 18124 H 1663.94 6.77243 0.501932 0
M  V30 18125 H 1661.88 6.01637 2.61475 0
M  V30 18126 H 1661.8 7.39552 1.56841 0
M  V30 18127 H 1663.07 7.29262 2.75312 0
M  V30 18128 N 1667.3 0.221601 1.56034 0
M  V30 18129 C 1668.52 -0.417979 2.03145 0
M  V30 18130 C 1668.95 -1.52556 1.10038 0
M  V30 18131 O 1668.3 -1.81084 0.0885729 0
M  V30 18132 C 1668.35 -0.926762 3.48487 0
M  V30 18133 O 1667.46 -2.03811 3.58518 0
M  V30 18134 H 1666.8 -0.0945778 0.65723 0
M  V30 18135 H 1669.33 0.340252 2.01751 0
M  V30 18136 H 1669.34 -1.23656 3.8881 0
M  V30 18137 H 1668.01 -0.116115 4.15738 0
M  V30 18138 H 1666.59 -1.73494 3.30082 0
M  V30 18139 N 1668.77 -1.57515 -0.0517878 0
M  V30 18140 C 1669.7 -2.0809 -1.05929 0
M  V30 18141 C 1670.69 -0.978529 -1.39136 0
M  V30 18142 O 1671.87 -1.25245 -1.48416 0
M  V30 18143 C 1669 -2.54147 -2.36699 0
M  V30 18144 C 1667.95 -3.68442 -2.17794 0
M  V30 18145 C 1667.28 -4.00624 -3.54125 0
M  V30 18146 C 1668.58 -4.97743 -1.5827 0
M  V30 18147 H 1670.27 -2.92515 -0.638371 0
M  V30 18148 H 1667.82 -1.40719 -0.305625 0
M  V30 18149 H 1669.77 -2.88145 -3.07491 0
M  V30 18150 H 1668.5 -1.66775 -2.80809 0
M  V30 18151 H 1667.16 -3.34758 -1.4944 0
M  V30 18152 H 1666.8 -3.10353 -3.95841 0
M  V30 18153 H 1666.5 -4.77597 -3.42308 0
M  V30 18154 H 1668.03 -4.37136 -4.26315 0
M  V30 18155 H 1669.44 -5.29843 -2.18951 0
M  V30 18156 H 1667.84 -5.79173 -1.57094 0
M  V30 18157 H 1668.91 -4.81815 -0.546127 0
M  V30 18158 N 1670.25 0.323614 -1.54242 0
M  V30 18159 C 1671.67 0.66795 -1.4495 0
M  V30 18160 C 1671.87 1.91649 -0.622338 0
M  V30 18161 O 1670.93 2.52209 -0.121119 0
M  V30 18162 C 1672.24 0.842006 -2.88671 0
M  V30 18163 C 1673.79 0.93935 -2.98572 0
M  V30 18164 C 1674.26 1.14557 -4.43442 0
M  V30 18165 N 1675.75 1.21231 -4.47054 0
M  V30 18166 C 1676.49 1.38976 -5.56303 0
M  V30 18167 N 1675.98 1.53764 -6.75521 0
M  V30 18168 N 1677.78 1.41684 -5.4395 0
M  V30 18169 H 1669.93 -0.497017 -2.06503 0
M  V30 18170 H 1672.19 -0.160563 -0.934304 0
M  V30 18171 H 1671.9 -0.00418568 -3.517 0
M  V30 18172 H 1671.77 1.73785 -3.34782 0
M  V30 18173 H 1674.16 1.77605 -2.35671 0
M  V30 18174 H 1674.24 0.0199775 -2.55792 0
M  V30 18175 H 1673.88 0.313732 -5.0693 0
M  V30 18176 H 1673.81 2.07882 -4.83831 0
M  V30 18177 H 1676.3 1.11247 -3.61154 0
M  V30 18178 H 1676.62 1.66996 -7.54541 0
M  V30 18179 H 1674.96 1.50862 -6.78429 0
M  V30 18180 H 1678.15 1.29726 -4.49765 0
M  V30 18181 H 1678.33 1.5517 -6.29147 0
M  V30 18182 N 1671.73 1.46313 0.585673 0
M  V30 18183 C 1672.64 1.59232 1.72286 0
M  V30 18184 C 1673.66 0.475912 1.67365 0
M  V30 18185 O 1674.83 0.739627 1.87327 0
M  V30 18186 C 1671.9 1.57647 3.08785 0
M  V30 18187 C 1670.96 2.80497 3.24992 0
M  V30 18188 C 1670.19 2.78978 4.5498 0
M  V30 18189 O 1670.42 1.87553 5.38684 0
M  V30 18190 O 1669.35 3.7048 4.74371 0
M  V30 18191 H 1673.18 2.55398 1.64334 0
M  V30 18192 H 1670.76 1.29073 0.752369 0
M  V30 18193 H 1672.64 1.59448 3.90069 0
M  V30 18194 H 1671.32 0.6464 3.1718 0
M  V30 18195 H 1670.22 2.8425 2.43213 0
M  V30 18196 H 1671.56 3.72703 3.21487 0
M  V30 18197 N 1673.21 -0.830057 1.33969 0
M  V30 18198 C 1674.17 -1.92206 1.24858 0
M  V30 18199 C 1675.17 -1.59946 0.16549 0
M  V30 18200 O 1676.36 -1.6912 0.417629 0
M  V30 18201 C 1673.49 -3.28082 0.926029 0
M  V30 18202 H 1674.69 -2.01708 2.21932 0
M  V30 18203 H 1672.24 -1.02319 1.18154 0
M  V30 18204 H 1672.98 -3.24273 -0.0418364 0
M  V30 18205 H 1672.76 -3.52878 1.70938 0
M  V30 18206 H 1674.25 -4.08065 0.887263 0
M  V30 18207 N 1674.69 -1.17582 -1.04939 0
M  V30 18208 C 1675.62 -0.852608 -2.12752 0
M  V30 18209 C 1676.63 0.14607 -1.62143 0
M  V30 18210 O 1677.82 -0.0805751 -1.78318 0
M  V30 18211 C 1674.92 -0.251083 -3.37969 0
M  V30 18212 C 1674.09 -1.29325 -4.17844 0
M  V30 18213 C 1673.15 -0.709025 -5.21401 0
M  V30 18214 O 1672.18 -1.38149 -5.52181 0
M  V30 18215 N 1673.38 0.497716 -5.78362 0
M  V30 18216 H 1676.15 -1.78054 -2.41074 0
M  V30 18217 H 1673.71 -1.07502 -1.21058 0
M  V30 18218 H 1675.7 0.15312 -4.0441 0
M  V30 18219 H 1674.27 0.580684 -3.07159 0
M  V30 18220 H 1673.49 -1.87311 -3.46855 0
M  V30 18221 H 1674.78 -1.99614 -4.68008 0
M  V30 18222 H 1674.18 1.06196 -5.55643 0
M  V30 18223 H 1672.73 0.843951 -6.46313 0
M  V30 18224 N 1676.17 1.23705 -0.976463 0
M  V30 18225 C 1677.13 2.23257 -0.518533 0
M  V30 18226 C 1678.13 1.56006 0.3897 0
M  V30 18227 O 1679.32 1.73226 0.18394 0
M  V30 18228 C 1676.45 3.39997 0.247916 0
M  V30 18229 H 1677.64 2.65284 -1.39872 0
M  V30 18230 H 1675.2 1.3647 -0.761946 0
M  V30 18231 H 1675.93 3.03421 1.14482 0
M  V30 18232 H 1675.72 3.90013 -0.403975 0
M  V30 18233 H 1677.21 4.13868 0.557034 0
M  V30 18234 N 1677.64 0.747635 1.38738 0
M  V30 18235 C 1678.61 0.124321 2.28863 0
M  V30 18236 C 1679.61 -0.653816 1.46908 0
M  V30 18237 O 1680.8 -0.480963 1.67429 0
M  V30 18238 C 1677.93 -0.832601 3.30576 0
M  V30 18239 H 1679.12 0.918492 2.85489 0
M  V30 18240 H 1676.67 0.514262 1.47598 0
M  V30 18241 H 1677.41 -1.65267 2.79029 0
M  V30 18242 H 1677.19 -0.277109 3.9112 0
M  V30 18243 H 1678.68 -1.2649 3.97982 0
M  V30 18244 N 1679.12 -1.49583 0.496242 0
M  V30 18245 C 1680.05 -2.31885 -0.274139 0
M  V30 18246 C 1681.03 -1.39939 -0.96701 0
M  V30 18247 O 1682.22 -1.6885 -0.959333 0
M  V30 18248 C 1679.35 -3.20332 -1.34181 0
M  V30 18249 C 1678.3 -4.21033 -0.769091 0
M  V30 18250 C 1677.63 -4.98385 -1.93693 0
M  V30 18251 C 1678.93 -5.21764 0.236648 0
M  V30 18252 H 1680.62 -2.9654 0.412824 0
M  V30 18253 H 1678.17 -1.42605 0.199979 0
M  V30 18254 H 1680.12 -3.76718 -1.88843 0
M  V30 18255 H 1678.84 -2.53611 -2.05789 0
M  V30 18256 H 1677.5 -3.65785 -0.244252 0
M  V30 18257 H 1677.15 -4.28115 -2.64058 0
M  V30 18258 H 1676.85 -5.66519 -1.55981 0
M  V30 18259 H 1678.38 -5.57613 -2.48798 0
M  V30 18260 H 1679.79 -5.72871 -0.221672 0
M  V30 18261 H 1678.19 -5.97761 0.529346 0
M  V30 18262 H 1679.26 -4.70964 1.15415 0
M  V30 18263 N 1680.6 -0.229873 -1.55915 0
M  V30 18264 C 1681.56 0.663347 -2.19391 0
M  V30 18265 C 1682.56 1.11548 -1.15818 0
M  V30 18266 O 1683.75 1.02294 -1.41002 0
M  V30 18267 C 1680.88 1.9097 -2.82389 0
M  V30 18268 H 1682.08 0.109797 -2.99699 0
M  V30 18269 H 1679.63 0.0197234 -1.56288 0
M  V30 18270 H 1680.37 2.50491 -2.05973 0
M  V30 18271 H 1680.15 1.59388 -3.58243 0
M  V30 18272 H 1681.64 2.5459 -3.31019 0
M  V30 18273 N 1682.08 1.5754 0.0434337 0
M  V30 18274 C 1682.99 2.08996 1.06574 0
M  V30 18275 C 1684 1.02544 1.40573 0
M  V30 18276 O 1685.18 1.34192 1.50181 0
M  V30 18277 C 1682.24 2.54723 2.35196 0
M  V30 18278 C 1681.31 3.75595 2.0791 0
M  V30 18279 C 1680.54 4.19132 3.304 0
M  V30 18280 O 1680.76 3.62303 4.40559 0
M  V30 18281 O 1679.7 5.11694 3.16944 0
M  V30 18282 H 1683.52 2.96475 0.658503 0
M  V30 18283 H 1681.11 1.47129 0.259475 0
M  V30 18284 H 1682.99 2.84529 3.1084 0
M  V30 18285 H 1681.66 1.70361 2.75243 0
M  V30 18286 H 1680.57 3.5083 1.2988 0
M  V30 18287 H 1681.9 4.60897 1.72727 0
M  V30 18288 N 1683.56 -0.31543 1.54411 0
M  V30 18289 C 1684.52 -1.37154 1.83634 0
M  V30 18290 C 1685.52 -1.44349 0.708518 0
M  V30 18291 O 1686.71 -1.44235 0.976824 0
M  V30 18292 C 1683.84 -2.758 2.00368 0
M  V30 18293 H 1685.03 -1.12493 2.78002 0
M  V30 18294 H 1682.59 -0.551346 1.46253 0
M  V30 18295 H 1683.32 -3.05704 1.08238 0
M  V30 18296 H 1683.11 -2.7197 2.82445 0
M  V30 18297 H 1684.6 -3.52187 2.24397 0
M  V30 18298 N 1685.03 -1.46622 -0.577906 0
M  V30 18299 C 1685.97 -1.53587 -1.70128 0
M  V30 18300 C 1686.98 -0.423789 -1.57187 0
M  V30 18301 O 1688.17 -0.692392 -1.64524 0
M  V30 18302 C 1685.27 -1.40459 -3.08422 0
M  V30 18303 C 1684.44 -2.65872 -3.47319 0
M  V30 18304 C 1683.5 -2.46875 -4.64693 0
M  V30 18305 O 1682.53 -3.20617 -4.70312 0
M  V30 18306 N 1683.73 -1.53352 -5.59878 0
M  V30 18307 H 1686.49 -2.50449 -1.64606 0
M  V30 18308 H 1684.05 -1.42739 -0.764014 0
M  V30 18309 H 1686.05 -1.25516 -3.84744 0
M  V30 18310 H 1684.62 -0.517603 -3.08285 0
M  V30 18311 H 1683.84 -2.95724 -2.60655 0
M  V30 18312 H 1685.12 -3.49173 -3.70075 0
M  V30 18313 H 1684.52 -0.925526 -5.58078 0
M  V30 18314 H 1683.08 -1.4437 -6.3561 0
M  V30 18315 N 1686.51 0.822941 -1.34408 0
M  V30 18316 C 1687.42 1.96567 -1.28056 0
M  V30 18317 C 1688.44 1.72979 -0.188251 0
M  V30 18318 O 1689.61 1.97084 -0.41472 0
M  V30 18319 C 1686.68 3.30865 -1.03583 0
M  V30 18320 C 1685.74 3.67461 -2.2197 0
M  V30 18321 C 1684.97 4.9535 -1.98655 0
M  V30 18322 O 1685.2 5.62521 -0.944785 0
M  V30 18323 O 1684.13 5.29824 -2.85605 0
M  V30 18324 H 1687.96 2.0487 -2.24192 0
M  V30 18325 H 1685.54 0.958334 -1.14614 0
M  V30 18326 H 1687.42 4.11298 -0.917162 0
M  V30 18327 H 1686.1 3.2353 -0.104868 0
M  V30 18328 H 1685.01 2.87472 -2.39396 0
M  V30 18329 H 1686.34 3.79481 -3.13456 0
M  V30 18330 N 1687.99 1.18137 1.04314 0
M  V30 18331 C 1689.27 0.884901 1.74439 0
M  V30 18332 C 1689.65 -0.612825 2.02009 0
M  V30 18333 O 1689 -1.56679 1.66325 0
M  V30 18334 C 1689.21 1.72944 3.03136 0
M  V30 18335 C 1690.55 1.95491 3.7692 0
M  V30 18336 O 1691.58 1.69976 3.13028 0
M  V30 18337 O 1690.44 2.38426 4.91747 0
M  V30 18338 H 1687.53 0.328481 0.758966 0
M  V30 18339 H 1690.08 1.28878 1.10402 0
M  V30 18340 H 1688.85 2.74485 2.78879 0
M  V30 18341 H 1688.47 1.32392 3.74911 0
M  V30 18342 N 1689.47 -1.23186 0.98301 0
M  V30 18343 C 1690.4 -2.27054 0.544858 0
M  V30 18344 C 1691.38 -1.64749 -0.423281 0
M  V30 18345 O 1692.56 -1.91611 -0.316075 0
M  V30 18346 C 1689.69 -3.46972 -0.150976 0
M  V30 18347 C 1688.65 -4.21647 0.734707 0
M  V30 18348 C 1687.97 -5.34618 -0.0934874 0
M  V30 18349 C 1689.27 -4.81372 2.02679 0
M  V30 18350 H 1690.97 -2.63957 1.41305 0
M  V30 18351 H 1688.51 -1.26885 0.680895 0
M  V30 18352 H 1690.47 -4.18784 -0.468825 0
M  V30 18353 H 1689.19 -3.09137 -1.05364 0
M  V30 18354 H 1687.85 -3.51655 1.03605 0
M  V30 18355 H 1687.5 -4.93025 -0.996768 0
M  V30 18356 H 1687.2 -5.85503 0.496019 0
M  V30 18357 H 1688.72 -6.09251 -0.405658 0
M  V30 18358 H 1690.14 -5.45178 1.77353 0
M  V30 18359 H 1688.53 -5.42554 2.56429 0
M  V30 18360 H 1689.6 -4.01972 2.71194 0
M  V30 18361 N 1690.95 -0.754982 -1.38339 0
M  V30 18362 C 1691.86 -0.130303 -2.34238 0
M  V30 18363 C 1692.87 0.699048 -1.5934 0
M  V30 18364 O 1694.05 0.622876 -1.91526 0
M  V30 18365 C 1691.11 0.751285 -3.38462 0
M  V30 18366 C 1690.17 -0.0925987 -4.292 0
M  V30 18367 C 1689.41 0.747007 -5.28446 0
M  V30 18368 O 1689.63 1.98495 -5.34749 0
M  V30 18369 O 1688.56 0.165072 -6.01674 0
M  V30 18370 H 1692.39 -0.92233 -2.89356 0
M  V30 18371 H 1689.98 -0.515896 -1.4021 0
M  V30 18372 H 1691.86 1.2551 -4.02275 0
M  V30 18373 H 1690.53 1.52178 -2.85698 0
M  V30 18374 H 1689.44 -0.64239 -3.68543 0
M  V30 18375 H 1690.77 -0.825784 -4.85223 0
M  V30 18376 N 1692.42 1.49318 -0.504168 0
M  V30 18377 C 1693.65 2.07365 0.038102 0
M  V30 18378 C 1694.07 1.36164 1.29773 0
M  V30 18379 O 1693.43 0.419365 1.76383 0
M  V30 18380 C 1693.48 3.59576 0.271535 0
M  V30 18381 O 1692.58 3.8983 1.34561 0
M  V30 18382 H 1691.93 0.663425 -0.0276328 0
M  V30 18383 H 1694.46 1.92081 -0.704696 0
M  V30 18384 H 1694.47 4.04899 0.502083 0
M  V30 18385 H 1693.14 4.10809 -0.648754 0
M  V30 18386 H 1691.72 3.56314 1.09976 0
M  V30 18387 N 1693.9 0.238138 1.5579 0
M  V30 18388 C 1694.81 -0.676049 2.24648 0
M  V30 18389 C 1695.83 -1.20038 1.25964 0
M  V30 18390 O 1697 -1.2385 1.58818 0
M  V30 18391 C 1694.07 -1.86014 2.92574 0
M  V30 18392 C 1693.13 -1.37615 4.06646 0
M  V30 18393 C 1692.36 -2.5038 4.71323 0
M  V30 18394 O 1692.59 -3.68906 4.35045 0
M  V30 18395 O 1691.52 -2.20636 5.60003 0
M  V30 18396 H 1695.35 -0.119372 3.03465 0
M  V30 18397 H 1692.93 0.00699789 1.49398 0
M  V30 18398 H 1694.81 -2.55132 3.35389 0
M  V30 18399 H 1693.49 -2.4046 2.16704 0
M  V30 18400 H 1692.4 -0.652503 3.68366 0
M  V30 18401 H 1693.73 -0.877871 4.84308 0
M  V30 18402 N 1695.38 -1.57561 -0.0350783 0
M  V30 18403 C 1696.8 -1.54746 -0.390618 0
M  V30 18404 C 1697 -0.963454 -1.76974 0
M  V30 18405 O 1696.05 -0.581878 -2.45704 0
M  V30 18406 C 1697.37 -2.9922 -0.297984 0
M  V30 18407 C 1698.91 -3.10739 -0.375506 0
M  V30 18408 C 1699.39 -4.56933 -0.312387 0
M  V30 18409 N 1700.88 -4.61709 -0.371364 0
M  V30 18410 C 1701.61 -5.72359 -0.34532 0
M  V30 18411 N 1701.11 -6.92266 -0.271921 0
M  V30 18412 N 1702.9 -5.60713 -0.394605 0
M  V30 18413 H 1695.05 -1.93876 0.867519 0
M  V30 18414 H 1697.32 -0.888974 0.329285 0
M  V30 18415 H 1697.02 -3.45651 0.649499 0
M  V30 18416 H 1696.9 -3.60987 -1.094 0
M  V30 18417 H 1699.28 -2.6426 -1.31342 0
M  V30 18418 H 1699.37 -2.51815 0.449752 0
M  V30 18419 H 1699.01 -5.04079 0.621834 0
M  V30 18420 H 1698.94 -5.13762 -1.15567 0
M  V30 18421 H 1701.43 -3.75436 -0.430848 0
M  V30 18422 H 1701.74 -7.72373 -0.256983 0
M  V30 18423 H 1700.09 -6.94592 -0.238058 0
M  V30 18424 H 1703.28 -4.65933 -0.449896 0
M  V30 18425 H 1703.45 -6.46938 -0.37084 0
M  V30 18426 N 1696.86 0.307236 -1.54576 0
M  V30 18427 C 1698.1 1.04476 -1.73818 0
M  V30 18428 C 1698.44 1.87134 -0.519102 0
M  V30 18429 O 1697.71 1.88386 0.483852 0
M  V30 18430 C 1698 1.95594 -3.02349 0
M  V30 18431 C 1697.85 1.16158 -4.34543 0
M  V30 18432 C 1699.17 2.94865 -3.26715 0
M  V30 18433 H 1696.29 0.378415 -0.632433 0
M  V30 18434 H 1698.93 0.319955 -1.87287 0
M  V30 18435 H 1697.08 2.57396 -2.90997 0
M  V30 18436 H 1698.75 0.5669 -4.57803 0
M  V30 18437 H 1696.99 0.464158 -4.3131 0
M  V30 18438 H 1697.66 1.8315 -5.2073 0
M  V30 18439 H 1700.14 2.4319 -3.37636 0
M  V30 18440 H 1699.02 3.55791 -4.17976 0
M  V30 18441 H 1699.28 3.68195 -2.44714 0
M  V30 18442 N 1698.34 1.46926 0.570122 0
M  V30 18443 C 1699.3 1.58009 1.6603 0
M  V30 18444 C 1700.3 0.456188 1.54193 0
M  V30 18445 O 1701.49 0.720879 1.58584 0
M  V30 18446 C 1698.62 1.51235 3.05517 0
M  V30 18447 H 1699.81 2.55178 1.57558 0
M  V30 18448 H 1697.37 1.34924 0.788998 0
M  V30 18449 H 1698.1 0.553929 3.19534 0
M  V30 18450 H 1697.89 2.3279 3.15518 0
M  V30 18451 H 1699.38 1.62101 3.84854 0
M  V30 18452 N 1699.82 -0.815801 1.34842 0
M  V30 18453 C 1701.23 -1.10999 1.1468 0
M  V30 18454 C 1701.43 -2.01445 -0.0469339 0
M  V30 18455 O 1700.49 -2.42007 -0.720322 0
M  V30 18456 C 1701.8 -1.74984 2.44543 0
M  V30 18457 C 1703.35 -1.87447 2.50665 0
M  V30 18458 C 1703.82 -2.54848 3.80548 0
M  V30 18459 N 1705.31 -2.62341 3.81748 0
M  V30 18460 C 1706.05 -3.15239 4.7897 0
M  V30 18461 N 1705.55 -3.68646 5.86577 0
M  V30 18462 N 1707.34 -3.13706 4.66417 0
M  V30 18463 H 1699.49 -0.214351 2.11316 0
M  V30 18464 H 1701.75 -0.157666 0.934797 0
M  V30 18465 H 1701.46 -1.1599 3.32023 0
M  V30 18466 H 1701.33 -2.7478 2.5841 0
M  V30 18467 H 1703.72 -2.45587 1.63619 0
M  V30 18468 H 1703.8 -0.865325 2.40719 0
M  V30 18469 H 1703.44 -1.9736 4.67987 0
M  V30 18470 H 1703.37 -3.5628 3.87778 0
M  V30 18471 H 1705.87 -2.24493 3.03992 0
M  V30 18472 H 1706.18 -4.07281 6.56766 0
M  V30 18473 H 1704.52 -3.6687 5.90281 0
M  V30 18474 H 1707.71 -2.71255 3.81495 0
M  V30 18475 H 1707.89 -3.54626 5.4235 0
M  V30 18476 N 1701.29 -1.18689 -1.03686 0
M  V30 18477 C 1702.52 -1.00961 -1.80595 0
M  V30 18478 C 1702.94 0.44188 -1.83556 0
M  V30 18479 O 1702.29 1.30693 -1.27379 0
M  V30 18480 C 1702.34 -1.56185 -3.26019 0
M  V30 18481 O 1702.07 -2.95652 -3.23298 0
M  V30 18482 C 1703.57 -1.43129 -4.19558 0
M  V30 18483 H 1700.79 -0.356291 -0.568593 0
M  V30 18484 H 1703.33 -1.57324 -1.3065 0
M  V30 18485 H 1701.49 -1.03989 -3.73182 0
M  V30 18486 H 1701.9 -3.21481 -4.14427 0
M  V30 18487 H 1703.37 -1.86561 -5.19518 0
M  V30 18488 H 1703.85 -0.380581 -4.37548 0
M  V30 18489 H 1704.46 -1.94416 -3.78262 0
M  V30 18490 N 1702.77 1.22662 -0.989529 0
M  V30 18491 C 1703.72 2.24466 -0.536994 0
M  V30 18492 C 1704.69 1.60467 0.428907 0
M  V30 18493 O 1705.87 1.87846 0.334418 0
M  V30 18494 C 1703.01 3.44793 0.145526 0
M  V30 18495 C 1702.13 4.23318 -0.861716 0
M  V30 18496 C 1701.26 5.30979 -0.153062 0
M  V30 18497 C 1700.3 6.01221 -1.1489 0
M  V30 18498 N 1699.44 7.00533 -0.468782 0
M  V30 18499 H 1704.28 2.62539 -1.40987 0
M  V30 18500 H 1701.81 1.29035 -0.706291 0
M  V30 18501 H 1703.77 4.1345 0.558128 0
M  V30 18502 H 1702.4 3.07494 0.982213 0
M  V30 18503 H 1701.45 3.5399 -1.39266 0
M  V30 18504 H 1702.77 4.71753 -1.62019 0
M  V30 18505 H 1701.92 6.05874 0.316443 0
M  V30 18506 H 1700.66 4.8351 0.63794 0
M  V30 18507 H 1699.66 5.25111 -1.62907 0
M  V30 18508 H 1700.89 6.50779 -1.94072 0
M  V30 18509 H 1698.84 6.55301 0.302844 0
M  V30 18510 H 1698.75 7.46958 -1.16576 0
M  V30 18511 H 1700.02 7.79497 -0.0219686 0
M  V30 18512 N 1704.25 0.762308 1.37937 0
M  V30 18513 C 1705.21 0.148588 2.28718 0
M  V30 18514 C 1706.21 -0.638198 1.47593 0
M  V30 18515 O 1707.4 -0.463178 1.67929 0
M  V30 18516 C 1704.53 -0.797492 3.31441 0
M  V30 18517 H 1705.73 0.94872 2.84498 0
M  V30 18518 H 1703.28 0.529888 1.47044 0
M  V30 18519 H 1704.02 -1.62298 2.80767 0
M  V30 18520 H 1703.8 -0.23561 3.91391 0
M  V30 18521 H 1705.29 -1.22262 3.99302 0
M  V30 18522 N 1705.73 -1.49049 0.51208 0
M  V30 18523 C 1706.64 -2.33102 -0.264695 0
M  V30 18524 C 1707.65 -1.45347 -0.956571 0
M  V30 18525 O 1708.83 -1.78355 -0.935501 0
M  V30 18526 C 1705.89 -3.21051 -1.30871 0
M  V30 18527 C 1704.96 -4.24666 -0.629094 0
M  V30 18528 C 1704.19 -5.08412 -1.62337 0
M  V30 18529 O 1704.41 -4.93847 -2.85432 0
M  V30 18530 O 1703.35 -5.90368 -1.17259 0
M  V30 18531 H 1707.17 -3.00732 0.423585 0
M  V30 18532 H 1704.76 -1.4688 0.273246 0
M  V30 18533 H 1706.64 -3.75503 -1.91248 0
M  V30 18534 H 1705.31 -2.56103 -1.97972 0
M  V30 18535 H 1704.22 -3.74097 0.0147056 0
M  V30 18536 H 1705.55 -4.922 -0.000339859 0
M  V30 18537 N 1707.21 -0.246397 -1.55662 0
M  V30 18538 C 1708.15 0.653368 -2.21359 0
M  V30 18539 C 1709.12 1.1717 -1.1773 0
M  V30 18540 O 1710.31 1.22626 -1.46176 0
M  V30 18541 C 1707.45 1.84484 -2.9165 0
M  V30 18542 C 1706.56 1.36308 -4.09932 0
M  V30 18543 C 1705.7 2.51407 -4.6794 0
M  V30 18544 C 1704.73 2.0009 -5.78472 0
M  V30 18545 N 1703.87 3.08555 -6.30665 0
M  V30 18546 H 1708.71 0.0864458 -2.97875 0
M  V30 18547 H 1706.25 0.0309074 -1.47068 0
M  V30 18548 H 1708.21 2.54476 -3.30602 0
M  V30 18549 H 1706.84 2.38425 -2.17609 0
M  V30 18550 H 1705.89 0.557224 -3.76297 0
M  V30 18551 H 1707.2 0.946988 -4.89728 0
M  V30 18552 H 1706.35 3.29442 -5.09463 0
M  V30 18553 H 1705.09 2.96318 -3.87359 0
M  V30 18554 H 1704.1 1.20526 -5.36427 0
M  V30 18555 H 1705.32 1.5615 -6.60904 0
M  V30 18556 H 1703.27 3.529 -5.52989 0
M  V30 18557 H 1703.19 2.71274 -7.05653 0
M  V30 18558 H 1704.45 3.8665 -6.76847 0
M  V30 18559 N 1708.68 1.57577 0.026722 0
M  V30 18560 C 1709.62 2.03515 1.05424 0
M  V30 18561 C 1710.63 0.948362 1.32325 0
M  V30 18562 O 1711.82 1.22563 1.29771 0
M  V30 18563 C 1708.92 2.39744 2.39533 0
M  V30 18564 C 1708.09 3.70832 2.31954 0
M  V30 18565 C 1707.15 3.94224 3.48531 0
M  V30 18566 O 1706.18 4.6525 3.27919 0
M  V30 18567 N 1707.38 3.40044 4.70479 0
M  V30 18568 H 1710.14 2.92282 0.662678 0
M  V30 18569 H 1707.7 1.60471 0.214623 0
M  V30 18570 H 1709.7 2.52529 3.16245 0
M  V30 18571 H 1708.27 1.56636 2.70525 0
M  V30 18572 H 1707.49 3.68378 1.40325 0
M  V30 18573 H 1708.77 4.56821 2.24035 0
M  V30 18574 H 1708.17 2.82478 4.90125 0
M  V30 18575 H 1706.73 3.58205 5.44548 0
M  V30 18576 N 1710.16 -0.299034 1.54737 0
M  V30 18577 C 1711.58 -0.644805 1.45995 0
M  V30 18578 C 1711.78 -1.90634 0.652749 0
M  V30 18579 O 1710.83 -2.51985 0.161228 0
M  V30 18580 C 1712.15 -0.795974 2.89974 0
M  V30 18581 C 1713.69 -0.891731 3.00029 0
M  V30 18582 C 1714.17 -1.07488 4.45208 0
M  V30 18583 N 1715.66 -1.14104 4.48926 0
M  V30 18584 C 1716.4 -1.30108 5.58444 0
M  V30 18585 N 1715.89 -1.42998 6.77882 0
M  V30 18586 N 1717.68 -1.33012 5.46136 0
M  V30 18587 H 1709.84 0.529806 2.05686 0
M  V30 18588 H 1712.1 0.175406 0.931631 0
M  V30 18589 H 1711.8 0.0601375 3.51649 0
M  V30 18590 H 1711.68 -1.68437 3.37504 0
M  V30 18591 H 1714.07 -1.73833 2.38466 0
M  V30 18592 H 1714.15 0.0207194 2.55792 0
M  V30 18593 H 1713.79 -0.233045 5.07365 0
M  V30 18594 H 1713.72 -2.00159 4.87077 0
M  V30 18595 H 1716.21 -1.05488 3.62878 0
M  V30 18596 H 1716.52 -1.5497 7.57102 0
M  V30 18597 H 1714.87 -1.4005 6.80743 0
M  V30 18598 H 1718.06 -1.22555 4.51772 0
M  V30 18599 H 1718.23 -1.45141 6.31536 0
M  V30 18600 N 1711.64 -1.47227 -0.562322 0
M  V30 18601 C 1713.06 -1.32632 -0.887745 0
M  V30 18602 C 1713.26 -0.312972 -1.99055 0
M  V30 18603 O 1712.31 0.277309 -2.50973 0
M  V30 18604 C 1713.62 -2.71822 -1.28581 0
M  V30 18605 C 1715.17 -2.80068 -1.39753 0
M  V30 18606 C 1715.65 -4.19887 -1.82917 0
M  V30 18607 N 1717.14 -4.22404 -1.90077 0
M  V30 18608 C 1717.87 -5.27499 -2.24793 0
M  V30 18609 N 1717.37 -6.42904 -2.58159 0
M  V30 18610 N 1719.16 -5.14874 -2.25523 0
M  V30 18611 H 1711.31 -2.11752 0.165835 0
M  V30 18612 H 1713.58 -0.94793 0.0115238 0
M  V30 18613 H 1713.28 -3.47383 -0.549361 0
M  V30 18614 H 1713.16 -3.0326 -2.24306 0
M  V30 18615 H 1715.54 -2.04783 -2.1248 0
M  V30 18616 H 1715.62 -2.5229 -0.422286 0
M  V30 18617 H 1715.27 -4.95676 -1.10761 0
M  V30 18618 H 1715.2 -4.45086 -2.81436 0
M  V30 18619 H 1717.69 -3.39146 -1.66698 0
M  V30 18620 H 1718 -7.18857 -2.83662 0
M  V30 18621 H 1716.35 -6.46232 -2.55751 0
M  V30 18622 H 1719.54 -4.23745 -1.98892 0
M  V30 18623 H 1719.71 -5.96887 -2.5225 0
M  V30 18624 N 1713.12 0.808639 -1.35273 0
M  V30 18625 C 1714.39 1.55238 -1.18998 0
M  V30 18626 C 1714.77 2.09824 0.231723 0
M  V30 18627 O 1714.12 1.92252 1.23497 0
M  V30 18628 C 1714.33 2.66252 -2.25634 0
M  V30 18629 C 1715.68 3.34646 -2.61338 0
M  V30 18630 O 1716.7 2.76521 -2.24532 0
M  V30 18631 O 1715.56 4.39644 -3.24615 0
M  V30 18632 H 1712.66 0.6858 -0.462176 0
M  V30 18633 H 1715.2 0.848777 -1.46949 0
M  V30 18634 H 1713.98 2.23774 -3.21 0
M  V30 18635 H 1713.6 3.4425 -1.98941 0
M  V30 18636 N 1714.6 1.19237 1.03055 0
M  V30 18637 C 1715.53 0.95226 2.132 0
M  V30 18638 C 1716.51 -0.113771 1.69719 0
M  V30 18639 O 1717.69 0.0409057 1.94157 0
M  V30 18640 C 1714.82 0.488296 3.4385 0
M  V30 18641 C 1713.78 1.49597 4.01005 0
M  V30 18642 C 1713.1 0.889148 5.27255 0
M  V30 18643 C 1714.4 2.87571 4.36005 0
M  V30 18644 H 1716.1 1.87343 2.33544 0
M  V30 18645 H 1713.64 0.902172 1.12236 0
M  V30 18646 H 1715.6 0.307623 4.20276 0
M  V30 18647 H 1714.32 -0.468469 3.23223 0
M  V30 18648 H 1712.98 1.66376 3.26672 0
M  V30 18649 H 1712.63 -0.0751191 5.02944 0
M  V30 18650 H 1712.33 1.56202 5.66458 0
M  V30 18651 H 1713.85 0.719233 6.06349 0
M  V30 18652 H 1715.26 2.74384 5.03375 0
M  V30 18653 H 1713.66 3.51635 4.86285 0
M  V30 18654 H 1714.73 3.40353 3.45381 0
M  V30 18655 N 1716.07 -1.22136 0.99602 0
M  V30 18656 C 1717.32 -1.9059 0.672303 0
M  V30 18657 C 1717.64 -1.77903 -0.798476 0
M  V30 18658 O 1716.91 -1.1682 -1.57257 0
M  V30 18659 H 1715.49 -0.705445 0.245676 0
M  V30 18660 H 1718.16 -1.48423 1.2632 0
M  V30 18661 H 1717.25 -2.97684 0.937577 0
M  V30 18662 N 1717.55 -0.769612 -1.37531 0
M  V30 18663 C 1718.46 -0.15514 -2.34086 0
M  V30 18664 C 1719.48 0.682108 -1.60073 0
M  V30 18665 O 1720.65 0.602527 -1.92176 0
M  V30 18666 C 1717.72 0.715344 -3.3924 0
M  V30 18667 C 1716.78 -0.138116 -4.29078 0
M  V30 18668 C 1716.01 0.690916 -5.29209 0
M  V30 18669 O 1716.24 1.92812 -5.36824 0
M  V30 18670 O 1715.17 0.101247 -6.01815 0
M  V30 18671 H 1719 -0.952968 -2.88361 0
M  V30 18672 H 1716.58 -0.530738 -1.39655 0
M  V30 18673 H 1718.46 1.21236 -4.03584 0
M  V30 18674 H 1717.14 1.4914 -2.87296 0
M  V30 18675 H 1716.05 -0.681443 -3.67841 0
M  V30 18676 H 1717.38 -0.877202 -4.8432 0
M  V30 18677 N 1719.03 1.48775 -0.519977 0
M  V30 18678 C 1719.94 2.33239 0.252329 0
M  V30 18679 C 1720.96 1.45852 0.948849 0
M  V30 18680 O 1722.13 1.78848 0.92603 0
M  V30 18681 C 1719.2 3.2174 1.29166 0
M  V30 18682 C 1718.26 4.24993 0.606564 0
M  V30 18683 C 1717.49 5.09266 1.59638 0
M  V30 18684 O 1717.71 4.95353 2.82809 0
M  V30 18685 O 1716.65 5.90981 1.14127 0
M  V30 18686 H 1720.47 3.00503 -0.439527 0
M  V30 18687 H 1718.06 1.46733 -0.281032 0
M  V30 18688 H 1719.94 3.76512 1.89254 0
M  V30 18689 H 1718.62 2.5715 1.96611 0
M  V30 18690 H 1717.52 3.74084 -0.0345447 0
M  V30 18691 H 1718.86 4.92193 -0.0257627 0
M  V30 18692 N 1720.51 0.254649 1.55529 0
M  V30 18693 C 1721.44 -0.635656 2.24681 0
M  V30 18694 C 1722.42 -1.17519 1.22977 0
M  V30 18695 O 1723.6 -1.21311 1.51649 0
M  V30 18696 C 1720.73 -1.82922 2.95224 0
M  V30 18697 C 1719.69 -1.42212 4.03683 0
M  V30 18698 C 1719.01 -2.69713 4.61691 0
M  V30 18699 C 1720.31 -0.587436 5.18986 0
M  V30 18700 H 1722.01 -0.0590063 2.99342 0
M  V30 18701 H 1719.55 -0.02694 1.43975 0
M  V30 18702 H 1721.51 -2.45777 3.42304 0
M  V30 18703 H 1720.23 -2.43137 2.18064 0
M  V30 18704 H 1718.89 -0.81687 3.57383 0
M  V30 18705 H 1718.54 -3.28143 3.81223 0
M  V30 18706 H 1718.24 -2.43194 5.34911 0
M  V30 18707 H 1719.76 -3.33453 5.11509 0
M  V30 18708 H 1721.18 -1.12048 5.62244 0
M  V30 18709 H 1719.57 -0.417988 5.98643 0
M  V30 18710 H 1720.64 0.398577 4.83259 0
M  V30 18711 N 1721.99 -1.57589 -0.0183649 0
M  V30 18712 C 1722.9 -2.10665 -1.03235 0
M  V30 18713 C 1723.91 -1.04767 -1.38924 0
M  V30 18714 O 1725.09 -1.36565 -1.48027 0
M  V30 18715 C 1722.15 -2.58432 -2.31114 0
M  V30 18716 C 1721.21 -3.78856 -2.01908 0
M  V30 18717 C 1720.45 -4.24335 -3.2369 0
M  V30 18718 O 1720.67 -3.69266 -4.3474 0
M  V30 18719 O 1719.6 -5.16671 -3.08763 0
M  V30 18720 H 1723.43 -2.97485 -0.611254 0
M  V30 18721 H 1721.02 -1.47524 -0.236035 0
M  V30 18722 H 1722.9 -2.89438 -3.06274 0
M  V30 18723 H 1721.57 -1.74718 -2.72498 0
M  V30 18724 H 1720.48 -3.52852 -1.24282 0
M  V30 18725 H 1721.81 -4.63587 -1.65373 0
M  V30 18726 N 1723.46 0.290824 -1.54893 0
M  V30 18727 C 1724.43 1.34215 -1.85793 0
M  V30 18728 C 1725.43 1.43204 -0.731393 0
M  V30 18729 O 1726.62 1.42663 -0.999647 0
M  V30 18730 C 1723.75 2.72577 -2.0473 0
M  V30 18731 H 1724.94 1.08056 -2.79757 0
M  V30 18732 H 1722.5 0.528008 -1.47111 0
M  V30 18733 H 1723.23 3.03943 -1.13088 0
M  V30 18734 H 1723.02 2.67442 -2.86736 0
M  V30 18735 H 1724.51 3.48573 -2.29971 0
M  V30 18736 N 1724.94 1.47523 0.554506 0
M  V30 18737 C 1725.87 1.63093 1.67102 0
M  V30 18738 C 1726.85 0.480298 1.63178 0
M  V30 18739 O 1728.04 0.709956 1.80757 0
M  V30 18740 C 1725.17 1.64751 3.05736 0
M  V30 18741 C 1724.12 2.79068 3.24507 0
M  V30 18742 C 1723.45 2.65801 4.63955 0
M  V30 18743 C 1724.75 4.20631 3.09623 0
M  V30 18744 H 1726.44 2.56561 1.54328 0
M  V30 18745 H 1723.99 1.2347 0.741023 0
M  V30 18746 H 1725.94 1.74234 3.83693 0
M  V30 18747 H 1724.67 0.678453 3.19475 0
M  V30 18748 H 1723.32 2.691 2.48959 0
M  V30 18749 H 1722.97 1.66917 4.74497 0
M  V30 18750 H 1722.67 3.42494 4.77464 0
M  V30 18751 H 1724.2 2.77216 5.44044 0
M  V30 18752 H 1725.61 4.31562 3.77396 0
M  V30 18753 H 1724.01 4.98133 3.3464 0
M  V30 18754 H 1725.08 4.38809 2.06336 0
M  V30 18755 N 1726.42 -0.801453 1.357 0
M  V30 18756 C 1727.84 -1.09776 1.1585 0
M  V30 18757 C 1728.04 -2.01484 -0.0255653 0
M  V30 18758 O 1727.09 -2.42758 -0.694613 0
M  V30 18759 C 1728.41 -1.72381 2.46385 0
M  V30 18760 C 1729.95 -1.84777 2.52639 0
M  V30 18761 C 1730.43 -2.50797 3.83229 0
M  V30 18762 N 1731.92 -2.58277 3.84509 0
M  V30 18763 C 1732.65 -3.10141 4.82286 0
M  V30 18764 N 1732.15 -3.62404 5.90454 0
M  V30 18765 N 1733.94 -3.08742 4.69718 0
M  V30 18766 H 1726.09 -0.191926 2.11531 0
M  V30 18767 H 1728.36 -0.147742 0.936417 0
M  V30 18768 H 1728.06 -1.12462 3.33234 0
M  V30 18769 H 1727.94 -2.72024 2.6131 0
M  V30 18770 H 1730.32 -2.43837 1.66215 0
M  V30 18771 H 1730.41 -0.839745 2.41624 0
M  V30 18772 H 1730.05 -1.92385 4.70053 0
M  V30 18773 H 1729.98 -3.52147 3.91535 0
M  V30 18774 H 1732.47 -2.21257 3.06356 0
M  V30 18775 H 1732.78 -4.00293 6.61049 0
M  V30 18776 H 1731.13 -3.60588 5.94139 0
M  V30 18777 H 1734.32 -2.67193 3.84351 0
M  V30 18778 H 1734.49 -3.48854 5.46081 0
M  V30 18779 N 1727.9 -1.19782 -1.02421 0
M  V30 18780 C 1729.15 -1.00133 -1.7555 0
M  V30 18781 C 1729.47 0.468503 -1.89288 0
M  V30 18782 O 1728.74 1.3391 -1.42986 0
M  V30 18783 H 1727.32 -0.367513 -0.650341 0
M  V30 18784 H 1729.98 -1.50758 -1.23523 0
M  V30 18785 H 1729.08 -1.45329 -2.76199 0
M  V30 18786 N 1729.38 1.21606 -1.00248 0
M  V30 18787 C 1730.29 2.2757 -0.570004 0
M  V30 18788 C 1731.3 1.69669 0.385788 0
M  V30 18789 O 1732.48 1.99839 0.250246 0
M  V30 18790 C 1729.54 3.46558 0.0990566 0
M  V30 18791 C 1728.61 4.19741 -0.9009 0
M  V30 18792 C 1727.84 5.33048 -0.263673 0
M  V30 18793 O 1728.06 5.62599 0.940131 0
M  V30 18794 O 1727 5.93978 -0.973342 0
M  V30 18795 H 1730.82 2.66751 -1.45182 0
M  V30 18796 H 1728.41 1.27955 -0.771224 0
M  V30 18797 H 1730.29 4.18733 0.47339 0
M  V30 18798 H 1728.96 3.09283 0.955285 0
M  V30 18799 H 1727.87 3.49798 -1.32634 0
M  V30 18800 H 1729.2 4.60921 -1.72664 0
M  V30 18801 N 1730.86 0.776895 1.37121 0
M  V30 18802 C 1731.79 0.180738 2.32799 0
M  V30 18803 C 1732.77 -0.677284 1.56035 0
M  V30 18804 O 1733.95 -0.613687 1.84249 0
M  V30 18805 C 1731.08 -0.695148 3.40272 0
M  V30 18806 C 1730.04 0.0619772 4.27955 0
M  V30 18807 C 1729.36 -0.933688 5.26485 0
M  V30 18808 C 1730.66 1.24396 5.0727 0
M  V30 18809 H 1732.36 0.980039 2.82906 0
M  V30 18810 H 1729.9 0.472722 1.3602 0
M  V30 18811 H 1731.85 -1.12205 4.06187 0
M  V30 18812 H 1730.58 -1.52702 2.88703 0
M  V30 18813 H 1729.24 0.469717 3.63578 0
M  V30 18814 H 1728.89 -1.76025 4.71194 0
M  V30 18815 H 1728.59 -0.431608 5.86013 0
M  V30 18816 H 1730.11 -1.35942 5.95275 0
M  V30 18817 H 1731.52 0.89345 5.66295 0
M  V30 18818 H 1729.92 1.67848 5.76149 0
M  V30 18819 H 1730.99 2.04553 4.39643 0
M  V30 18820 N 1732.33 -1.48497 0.527859 0
M  V30 18821 C 1733.24 -2.3337 -0.239957 0
M  V30 18822 C 1734.26 -1.46353 -0.941101 0
M  V30 18823 O 1735.44 -1.79337 -0.916532 0
M  V30 18824 C 1732.5 -3.22421 -1.27458 0
M  V30 18825 C 1731.56 -4.25309 -0.584017 0
M  V30 18826 C 1730.79 -5.10105 -1.56935 0
M  V30 18827 O 1731.02 -4.96846 -2.80178 0
M  V30 18828 O 1729.95 -5.91578 -1.10991 0
M  V30 18829 H 1733.78 -3.00265 0.455458 0
M  V30 18830 H 1731.36 -1.46582 0.288809 0
M  V30 18831 H 1733.24 -3.7751 -1.87254 0
M  V30 18832 H 1731.92 -2.58189 -1.95244 0
M  V30 18833 H 1730.83 -3.7406 0.0543828 0
M  V30 18834 H 1732.16 -4.92173 0.0518646 0
M  V30 18835 N 1733.81 -0.262893 -1.55392 0
M  V30 18836 C 1735.09 0.408525 -1.91286 0
M  V30 18837 C 1735.47 1.74657 -1.18566 0
M  V30 18838 O 1734.82 2.26409 -0.308422 0
M  V30 18839 C 1735.03 0.560865 -3.44464 0
M  V30 18840 C 1736.37 0.849401 -4.16017 0
M  V30 18841 O 1737.4 0.646134 -3.50291 0
M  V30 18842 O 1736.26 1.23741 -5.32307 0
M  V30 18843 H 1733.35 0.221707 -0.796728 0
M  V30 18844 H 1735.9 -0.308143 -1.66879 0
M  V30 18845 H 1734.67 -0.381279 -3.89438 0
M  V30 18846 H 1734.29 1.32747 -3.74785 0
M  V30 18847 N 1735.29 1.57597 0.0100073 0
M  V30 18848 C 1736.52 1.94402 0.708192 0
M  V30 18849 C 1736.93 0.864205 1.6786 0
M  V30 18850 O 1736.29 -0.157763 1.81817 0
M  V30 18851 C 1736.34 3.312 1.44876 0
M  V30 18852 O 1736.06 4.35035 0.517281 0
M  V30 18853 C 1737.56 3.82404 2.24237 0
M  V30 18854 H 1734.78 0.64116 0.197877 0
M  V30 18855 H 1737.33 2.04464 -0.0381373 0
M  V30 18856 H 1735.48 3.22476 2.1468 0
M  V30 18857 H 1735.9 5.14113 1.03868 0
M  V30 18858 H 1737.37 4.80578 2.71567 0
M  V30 18859 H 1737.85 3.14587 3.06483 0
M  V30 18860 H 1738.45 3.94271 1.59469 0
M  V30 18861 N 1736.77 -0.282606 1.55045 0
M  V30 18862 C 1737.7 -1.35347 1.90272 0
M  V30 18863 C 1738.68 -1.52001 0.763532 0
M  V30 18864 O 1739.86 -1.65204 1.02085 0
M  V30 18865 C 1736.99 -2.71464 2.16621 0
M  V30 18866 C 1735.95 -2.69554 3.32453 0
M  V30 18867 C 1735.27 -4.09132 3.4426 0
M  V30 18868 C 1736.57 -2.29669 4.69094 0
M  V30 18869 H 1738.27 -1.06113 2.79965 0
M  V30 18870 H 1735.81 -0.509018 1.34703 0
M  V30 18871 H 1737.77 -3.46482 2.39851 0
M  V30 18872 H 1736.49 -3.02261 1.23717 0
M  V30 18873 H 1735.15 -1.96993 3.09175 0
M  V30 18874 H 1734.8 -4.37136 2.4884 0
M  V30 18875 H 1734.5 -4.08751 4.22133 0
M  V30 18876 H 1736.02 -4.85903 3.69771 0
M  V30 18877 H 1737.44 -2.94407 4.91932 0
M  V30 18878 H 1735.83 -2.40467 5.49814 0
M  V30 18879 H 1736.9 -1.24796 4.68566 0
M  V30 18880 N 1738.25 -1.47815 -0.546675 0
M  V30 18881 C 1739.52 -1.45464 -1.30765 0
M  V30 18882 C 1739.9 -0.157249 -2.10514 0
M  V30 18883 O 1739.25 0.861203 -2.1165 0
M  V30 18884 C 1739.46 -2.70661 -2.20326 0
M  V30 18885 C 1740.81 -3.18309 -2.81007 0
M  V30 18886 O 1741.83 -2.71462 -2.30623 0
M  V30 18887 O 1740.69 -3.9978 -3.7261 0
M  V30 18888 H 1737.79 -0.580175 -0.589343 0
M  V30 18889 H 1740.33 -1.60029 -0.564707 0
M  V30 18890 H 1739.1 -3.56612 -1.61069 0
M  V30 18891 H 1738.73 -2.58734 -3.01898 0
M  V30 18892 N 1739.72 0.794246 -1.36123 0
M  V30 18893 C 1740.95 1.58813 -1.33391 0
M  V30 18894 C 1741.37 1.87915 0.0834599 0
M  V30 18895 O 1740.73 1.47516 1.05398 0
M  V30 18896 C 1740.78 2.88887 -2.15816 0
M  V30 18897 O 1739.88 3.82271 -1.54734 0
M  V30 18898 H 1739.22 0.481924 -0.456777 0
M  V30 18899 H 1741.75 0.984818 -1.79339 0
M  V30 18900 H 1741.76 3.38201 -2.2822 0
M  V30 18901 H 1740.44 2.67032 -3.18852 0
M  V30 18902 H 1739.02 3.40852 -1.51242 0
M  V30 18903 N 1741.2 1.20323 1.01785 0
M  V30 18904 C 1742.43 1.03821 1.78966 0
M  V30 18905 C 1742.84 -0.412622 1.84236 0
M  V30 18906 O 1742.2 -1.2865 1.29443 0
M  V30 18907 C 1742.25 1.61352 3.23493 0
M  V30 18908 O 1741.97 3.00758 3.18553 0
M  V30 18909 C 1743.47 1.49786 4.17228 0
M  V30 18910 H 1740.69 0.365291 0.562853 0
M  V30 18911 H 1743.24 1.59383 1.2813 0
M  V30 18912 H 1741.39 1.09913 3.71481 0
M  V30 18913 H 1741.81 3.28034 4.09261 0
M  V30 18914 H 1743.28 1.94802 5.16484 0
M  V30 18915 H 1743.76 0.450143 4.36887 0
M  V30 18916 H 1744.36 2.00409 3.75122 0
M  V30 18917 N 1742.68 -1.21073 1.00892 0
M  V30 18918 C 1743.63 -2.25613 0.565829 0
M  V30 18919 C 1744.62 -1.64812 -0.391588 0
M  V30 18920 O 1745.83 -1.78078 -0.262352 0
M  V30 18921 H 1742.2 -0.733755 0.164643 0
M  V30 18922 H 1744.17 -2.60321 1.45862 0
M  V30 18923 C 1742.92 -3.47589 -0.087861 0
M  V30 18924 H 1742.25 -3.94647 0.639828 0
M  V30 18925 H 1743.69 -4.22459 -0.361115 0
M  V30 18926 C 1742.14 -3.09609 -1.32829 0
M  V30 18927 O 1742.67 -3.20449 -2.4223 0
M  V30 18928 N 1740.88 -2.64234 -1.2095 0
M  V30 18929 H 1740.43 -2.55613 -0.319301 0
M  V30 18930 H 1740.39 -2.39191 -2.04046 0
M  V30 18931 N 1744.16 -0.784156 -1.36707 0
M  V30 18932 C 1745.12 -0.184957 -2.28453 0
M  V30 18933 C 1746.12 0.614637 -1.4859 0
M  V30 18934 O 1747.31 0.436403 -1.68645 0
M  V30 18935 C 1744.44 0.744662 -3.32667 0
M  V30 18936 H 1745.64 -0.993861 -2.82953 0
M  V30 18937 H 1743.19 -0.553214 -1.46182 0
M  V30 18938 H 1743.92 1.57811 -2.83313 0
M  V30 18939 H 1743.71 0.173313 -3.91717 0
M  V30 18940 H 1745.2 1.15894 -4.01196 0
M  V30 18941 N 1745.64 1.48215 -0.535727 0
M  V30 18942 C 1746.57 2.27708 0.261085 0
M  V30 18943 C 1747.58 1.35714 0.899197 0
M  V30 18944 O 1748.77 1.60717 0.776669 0
M  V30 18945 C 1745.87 3.09285 1.38549 0
M  V30 18946 C 1745.04 4.29097 0.848218 0
M  V30 18947 C 1744.1 4.92439 1.85445 0
M  V30 18948 O 1743.13 5.51483 1.4091 0
M  V30 18949 N 1744.33 4.85197 3.18691 0
M  V30 18950 H 1747.1 2.96732 -0.420706 0
M  V30 18951 H 1744.66 1.57606 -0.370421 0
M  V30 18952 H 1746.65 3.4853 2.05691 0
M  V30 18953 H 1745.22 2.42644 1.97085 0
M  V30 18954 H 1744.44 3.942 0.000627744 0
M  V30 18955 H 1745.73 5.06641 0.468243 0
M  V30 18956 H 1745.12 4.3839 3.57535 0
M  V30 18957 H 1743.68 5.28525 3.81451 0
M  V30 18958 N 1747.11 0.27113 1.5525 0
M  V30 18959 C 1748.05 -0.651235 2.19753 0
M  V30 18960 C 1749.06 -1.12051 1.18104 0
M  V30 18961 O 1750.25 -1.0431 1.44851 0
M  V30 18962 C 1747.35 -1.89985 2.8064 0
M  V30 18963 C 1746.52 -1.57805 4.07942 0
M  V30 18964 C 1745.58 -2.67872 4.52914 0
M  V30 18965 O 1744.61 -2.34228 5.18774 0
M  V30 18966 N 1745.81 -3.97854 4.22721 0
M  V30 18967 H 1748.57 -0.0991913 2.99536 0
M  V30 18968 H 1746.13 0.0920667 1.61638 0
M  V30 18969 H 1748.13 -2.62907 3.07672 0
M  V30 18970 H 1746.7 -2.36105 2.04874 0
M  V30 18971 H 1745.92 -0.682852 3.88241 0
M  V30 18972 H 1747.2 -1.33801 4.90892 0
M  V30 18973 H 1746.6 -4.28011 3.69897 0
M  V30 18974 H 1745.16 -4.67165 4.54533 0
M  V30 18975 N 1748.59 -1.576 -0.00164943 0
M  V30 18976 C 1749.5 -2.11748 -1.00995 0
M  V30 18977 C 1750.52 -1.06235 -1.37805 0
M  V30 18978 O 1751.69 -1.38127 -1.4657 0
M  V30 18979 C 1748.76 -2.60869 -2.2836 0
M  V30 18980 C 1747.82 -3.80976 -1.97879 0
M  V30 18981 C 1747.05 -4.27745 -3.19171 0
M  V30 18982 O 1747.28 -3.73856 -4.30799 0
M  V30 18983 O 1746.21 -5.19917 -3.03265 0
M  V30 18984 H 1750.04 -2.98117 -0.579667 0
M  V30 18985 H 1747.62 -1.47766 -0.220375 0
M  V30 18986 H 1749.5 -2.9267 -3.03187 0
M  V30 18987 H 1748.18 -1.77598 -2.7063 0
M  V30 18988 H 1747.09 -3.54151 -1.20533 0
M  V30 18989 H 1748.42 -4.65315 -1.60447 0
M  V30 18990 N 1750.07 0.274379 -1.55193 0
M  V30 18991 C 1751 1.34336 -1.90987 0
M  V30 18992 C 1751.98 1.51594 -0.771582 0
M  V30 18993 O 1753.17 1.6466 -1.0296 0
M  V30 18994 C 1750.3 2.70312 -2.18057 0
M  V30 18995 C 1749.25 2.67787 -3.33878 0
M  V30 18996 C 1748.58 4.07301 -3.46425 0
M  V30 18997 C 1749.88 2.27178 -4.70306 0
M  V30 18998 H 1751.57 1.04627 -2.80524 0
M  V30 18999 H 1749.12 0.501867 -1.34971 0
M  V30 19000 H 1751.07 3.45205 -2.41685 0
M  V30 19001 H 1749.79 3.01601 -1.25318 0
M  V30 19002 H 1748.45 1.95351 -3.10216 0
M  V30 19003 H 1748.1 4.3581 -2.51155 0
M  V30 19004 H 1747.8 4.06507 -4.24295 0
M  V30 19005 H 1749.32 4.83935 -3.72343 0
M  V30 19006 H 1750.74 2.91794 -4.93487 0
M  V30 19007 H 1749.14 2.37548 -5.51082 0
M  V30 19008 H 1750.21 1.22309 -4.69221 0
M  V30 19009 N 1751.55 1.48103 0.538828 0
M  V30 19010 C 1752.96 1.34028 0.866532 0
M  V30 19011 C 1753.16 0.3446 1.98531 0
M  V30 19012 O 1752.22 -0.237347 2.51382 0
M  V30 19013 C 1753.53 2.73833 1.24241 0
M  V30 19014 C 1755.08 2.82256 1.35279 0
M  V30 19015 C 1755.56 4.22744 1.76214 0
M  V30 19016 N 1757.05 4.25374 1.83332 0
M  V30 19017 C 1757.78 5.31009 2.16373 0
M  V30 19018 N 1757.28 6.4693 2.47899 0
M  V30 19019 N 1759.07 5.18397 2.17304 0
M  V30 19020 H 1751.22 2.11461 -0.199502 0
M  V30 19021 H 1753.49 0.947627 -0.0266031 0
M  V30 19022 H 1753.19 3.48213 0.494025 0
M  V30 19023 H 1753.07 3.0679 2.19453 0
M  V30 19024 H 1755.45 2.08137 2.09196 0
M  V30 19025 H 1755.53 2.5293 0.382096 0
M  V30 19026 H 1755.18 4.97375 1.02862 0
M  V30 19027 H 1755.11 4.49507 2.74319 0
M  V30 19028 H 1757.6 3.41755 1.61282 0
M  V30 19029 H 1757.91 7.23279 2.7219 0
M  V30 19030 H 1756.26 6.50219 2.45438 0
M  V30 19031 H 1759.45 4.26855 1.92126 0
M  V30 19032 H 1759.62 6.00824 2.42722 0
M  V30 19033 N 1753.03 -0.787016 1.36542 0
M  V30 19034 C 1754.25 -1.58103 1.34231 0
M  V30 19035 C 1754.68 -1.87956 -0.0734932 0
M  V30 19036 O 1754.03 -1.48073 -1.04615 0
M  V30 19037 C 1754.08 -2.87739 2.17345 0
M  V30 19038 O 1753.19 -3.81445 1.56759 0
M  V30 19039 H 1752.53 -0.479495 0.459326 0
M  V30 19040 H 1755.06 -0.975294 1.79859 0
M  V30 19041 H 1755.07 -3.36986 2.3001 0
M  V30 19042 H 1753.74 -2.65338 3.20264 0
M  V30 19043 H 1752.32 -3.40046 1.53047 0
M  V30 19044 N 1754.5 -1.20861 -1.01145 0
M  V30 19045 C 1755.45 -0.962085 -2.09792 0
M  V30 19046 C 1756.42 0.109588 -1.65738 0
M  V30 19047 O 1757.61 -0.0362022 -1.90766 0
M  V30 19048 C 1754.75 -0.52586 -3.4107 0
M  V30 19049 C 1753.86 -1.66626 -3.98572 0
M  V30 19050 C 1752.99 -1.17983 -5.17932 0
M  V30 19051 C 1752.03 -2.29298 -5.67529 0
M  V30 19052 N 1751.17 -1.81836 -6.78145 0
M  V30 19053 H 1756.01 -1.89222 -2.30215 0
M  V30 19054 H 1753.55 -0.943108 -1.12889 0
M  V30 19055 H 1755.51 -0.25423 -4.16425 0
M  V30 19056 H 1754.14 0.367275 -3.20704 0
M  V30 19057 H 1753.19 -2.05268 -3.20264 0
M  V30 19058 H 1754.5 -2.50426 -4.3138 0
M  V30 19059 H 1753.65 -0.864477 -6.0051 0
M  V30 19060 H 1752.39 -0.311793 -4.86702 0
M  V30 19061 H 1751.4 -2.61644 -4.83552 0
M  V30 19062 H 1752.62 -3.16587 -6.00791 0
M  V30 19063 H 1750.57 -0.973665 -6.48734 0
M  V30 19064 H 1750.49 -2.59213 -7.10172 0
M  V30 19065 H 1751.75 -1.53315 -7.64274 0
M  V30 19066 N 1755.98 1.20536 -1.01532 0
M  V30 19067 C 1757.4 1.41929 -0.729957 0
M  V30 19068 C 1757.6 1.89286 0.69088 0
M  V30 19069 O 1756.65 2.06094 1.45882 0
M  V30 19070 C 1757.97 2.44202 -1.75458 0
M  V30 19071 C 1759.52 2.57971 -1.77257 0
M  V30 19072 C 1759.99 3.63486 -2.78643 0
M  V30 19073 N 1761.48 3.70968 -2.77375 0
M  V30 19074 C 1762.22 4.52266 -3.52481 0
M  V30 19075 N 1761.71 5.37379 -4.37259 0
M  V30 19076 N 1763.51 4.46787 -3.41084 0
M  V30 19077 H 1755.66 0.881116 -1.93262 0
M  V30 19078 H 1757.92 0.449299 -0.834766 0
M  V30 19079 H 1757.63 2.16401 -2.77243 0
M  V30 19080 H 1757.5 3.43171 -1.56568 0
M  V30 19081 H 1759.89 2.85103 -0.761586 0
M  V30 19082 H 1759.97 1.59202 -2.00221 0
M  V30 19083 H 1759.61 3.37097 -3.79905 0
M  V30 19084 H 1759.54 4.61874 -2.52942 0
M  V30 19085 H 1762.03 3.10171 -2.15876 0
M  V30 19086 H 1762.35 5.96495 -4.91338 0
M  V30 19087 H 1760.69 5.36886 -4.41337 0
M  V30 19088 H 1763.88 3.79329 -2.74275 0
M  V30 19089 H 1764.05 5.0991 -3.9987 0
M  V30 19090 N 1757.46 0.791395 1.36289 0
M  V30 19091 C 1758.37 0.192362 2.3381 0
M  V30 19092 C 1759.39 -0.656556 1.61138 0
M  V30 19093 O 1760.56 -0.571877 1.9311 0
M  V30 19094 C 1757.63 -0.661283 3.40335 0
M  V30 19095 C 1756.69 0.206361 4.28804 0
M  V30 19096 C 1755.92 -0.606636 5.30241 0
M  V30 19097 O 1756.14 -1.84247 5.39823 0
M  V30 19098 O 1755.08 -0.00549116 6.019 0
M  V30 19099 H 1758.9 0.998723 2.86809 0
M  V30 19100 H 1756.49 0.552889 1.38793 0
M  V30 19101 H 1758.37 -1.148 4.05461 0
M  V30 19102 H 1757.05 -1.4455 2.89632 0
M  V30 19103 H 1755.95 0.739877 3.66711 0
M  V30 19104 H 1757.29 0.954142 4.82863 0
M  V30 19105 N 1758.94 -1.47929 0.54358 0
M  V30 19106 C 1759.87 -2.27843 -0.249005 0
M  V30 19107 C 1760.88 -1.36189 -0.891987 0
M  V30 19108 O 1762.07 -1.61127 -0.768135 0
M  V30 19109 C 1759.17 -3.10016 -1.36906 0
M  V30 19110 C 1758.35 -4.29541 -0.82545 0
M  V30 19111 C 1757.41 -4.93416 -1.82831 0
M  V30 19112 O 1756.43 -5.52222 -1.37984 0
M  V30 19113 N 1757.63 -4.86881 -3.16113 0
M  V30 19114 H 1760.4 -2.96505 0.436436 0
M  V30 19115 H 1757.96 -1.57407 0.378774 0
M  V30 19116 H 1759.95 -3.49616 -2.0384 0
M  V30 19117 H 1758.52 -2.43686 -1.95796 0
M  V30 19118 H 1757.74 -3.94195 0.0202776 0
M  V30 19119 H 1759.03 -5.06882 -0.441368 0
M  V30 19120 H 1758.43 -4.4028 -3.55205 0
M  V30 19121 H 1756.98 -5.30541 -3.78642 0
M  V30 19122 N 1760.42 -0.27936 -1.55104 0
M  V30 19123 C 1761.33 0.616249 -2.26361 0
M  V30 19124 C 1762.34 1.16656 -1.29102 0
M  V30 19125 O 1763.52 1.19596 -1.62046 0
M  V30 19126 C 1760.58 1.78191 -2.97403 0
M  V30 19127 C 1759.65 1.26785 -4.10151 0
M  V30 19128 C 1758.88 2.37795 -4.77796 0
M  V30 19129 O 1759.1 3.57242 -4.44673 0
M  V30 19130 O 1758.04 2.05711 -5.65656 0
M  V30 19131 H 1761.86 0.0388715 -3.03675 0
M  V30 19132 H 1759.45 -0.0466058 -1.49327 0
M  V30 19133 H 1761.33 2.4615 -3.42036 0
M  V30 19134 H 1760 2.3463 -2.23003 0
M  V30 19135 H 1758.91 0.554608 -3.69966 0
M  V30 19136 H 1760.24 0.749157 -4.86465 0
M  V30 19137 N 1761.9 1.57599 -0.0067085 0
M  V30 19138 C 1763.14 1.9114 0.677733 0
M  V30 19139 C 1763.47 0.881328 1.7305 0
M  V30 19140 O 1762.75 -0.099049 1.94248 0
M  V30 19141 C 1763.03 3.35241 1.31474 0
M  V30 19142 C 1762.89 4.4897 0.273055 0
M  V30 19143 C 1764.2 3.78886 2.23905 0
M  V30 19144 H 1761.32 0.695119 0.244907 0
M  V30 19145 H 1763.97 1.89907 -0.059378 0
M  V30 19146 H 1762.12 3.36423 1.94299 0
M  V30 19147 H 1763.79 4.59924 -0.356031 0
M  V30 19148 H 1762.03 4.31915 -0.403961 0
M  V30 19149 H 1762.7 5.46772 0.757941 0
M  V30 19150 H 1765.18 3.79299 1.7109 0
M  V30 19151 H 1764.05 4.80451 2.65439 0
M  V30 19152 H 1764.31 3.13129 3.12094 0
M  V30 19153 N 1763.37 -0.266145 1.55336 0
M  V30 19154 C 1764.6 -1.01489 1.80299 0
M  V30 19155 C 1765.02 -1.79679 0.579742 0
M  V30 19156 O 1764.37 -1.76831 -0.451319 0
M  V30 19157 C 1764.42 -1.96805 3.03233 0
M  V30 19158 O 1764.15 -1.21782 4.20834 0
M  V30 19159 C 1765.65 -2.83436 3.40851 0
M  V30 19160 H 1762.87 -0.299504 0.600449 0
M  V30 19161 H 1765.41 -0.294854 2.02363 0
M  V30 19162 H 1763.57 -2.64262 2.83275 0
M  V30 19163 H 1763.98 -1.86086 4.9038 0
M  V30 19164 H 1765.45 -3.461 4.30022 0
M  V30 19165 H 1765.93 -3.53559 2.60562 0
M  V30 19166 H 1766.54 -2.2146 3.63092 0
M  V30 19167 N 1764.85 -1.48386 -0.530967 0
M  V30 19168 C 1765.76 -1.65516 -1.66257 0
M  V30 19169 C 1766.78 -0.5377 -1.65483 0
M  V30 19170 O 1767.95 -0.808642 -1.84453 0
M  V30 19171 C 1765.02 -1.68999 -3.02722 0
M  V30 19172 C 1764.08 -2.92365 -3.14358 0
M  V30 19173 C 1763.31 -2.95672 -4.44313 0
M  V30 19174 O 1763.54 -2.07417 -5.31352 0
M  V30 19175 O 1762.47 -3.87831 -4.60294 0
M  V30 19176 H 1766.3 -2.61321 -1.54742 0
M  V30 19177 H 1763.88 -1.31776 -0.703946 0
M  V30 19178 H 1765.76 -1.73816 -3.83883 0
M  V30 19179 H 1764.44 -0.763675 -3.14563 0
M  V30 19180 H 1763.34 -2.93081 -2.32496 0
M  V30 19181 H 1764.68 -3.84378 -3.07433 0
M  V30 19182 N 1766.33 0.779763 -1.36958 0
M  V30 19183 C 1767.26 1.90687 -1.34762 0
M  V30 19184 C 1768.24 1.68704 -0.217508 0
M  V30 19185 O 1769.43 1.89678 -0.416639 0
M  V30 19186 C 1766.56 3.27854 -1.14582 0
M  V30 19187 C 1765.51 3.64383 -2.2452 0
M  V30 19188 C 1764.84 5.00004 -1.89473 0
M  V30 19189 C 1766.14 3.71963 -3.66662 0
M  V30 19190 H 1767.83 1.92781 -2.29076 0
M  V30 19191 H 1765.38 0.926102 -1.10269 0
M  V30 19192 H 1767.33 4.06332 -1.11678 0
M  V30 19193 H 1766.05 3.26172 -0.167218 0
M  V30 19194 H 1764.71 2.88207 -2.26566 0
M  V30 19195 H 1764.36 4.94853 -0.901617 0
M  V30 19196 H 1764.06 5.25414 -2.63085 0
M  V30 19197 H 1765.58 5.80892 -1.88141 0
M  V30 19198 H 1767 4.40611 -3.6679 0
M  V30 19199 H 1765.39 4.08864 -4.39261 0
M  V30 19200 H 1766.46 2.72824 -4.00868 0
M  V30 19201 N 1767.81 1.21396 1.00503 0
M  V30 19202 C 1768.75 0.973198 2.09279 0
M  V30 19203 C 1769.72 -0.100797 1.65794 0
M  V30 19204 O 1770.91 0.0463185 1.90744 0
M  V30 19205 C 1768.05 0.543941 3.40786 0
M  V30 19206 C 1767.16 1.68737 3.97683 0
M  V30 19207 C 1766.3 1.20728 5.17299 0
M  V30 19208 C 1765.34 2.32305 5.66305 0
M  V30 19209 N 1764.47 1.8543 6.77171 0
M  V30 19210 H 1769.31 1.90441 2.29208 0
M  V30 19211 H 1766.85 0.949082 1.12387 0
M  V30 19212 H 1768.81 0.276311 4.16284 0
M  V30 19213 H 1767.44 -0.350263 3.20894 0
M  V30 19214 H 1766.49 2.06964 3.19171 0
M  V30 19215 H 1767.8 2.5271 4.30045 0
M  V30 19216 H 1766.96 0.896312 6.00043 0
M  V30 19217 H 1765.7 0.3376 4.8653 0
M  V30 19218 H 1764.7 2.64205 4.82158 0
M  V30 19219 H 1765.93 3.19769 5.99103 0
M  V30 19220 H 1763.87 1.00806 6.48208 0
M  V30 19221 H 1763.79 2.62976 7.08788 0
M  V30 19222 H 1765.06 1.57366 7.6345 0
M  V30 19223 N 1769.29 -1.19996 1.0217 0
M  V30 19224 C 1770.23 -2.22963 0.596318 0
M  V30 19225 C 1771.2 -1.61548 -0.386212 0
M  V30 19226 O 1772.39 -1.88667 -0.284497 0
M  V30 19227 C 1769.53 -3.45058 -0.054059 0
M  V30 19228 C 1768.64 -4.20885 0.973648 0
M  V30 19229 C 1767.78 -5.30387 0.293788 0
M  V30 19230 C 1766.81 -5.97964 1.3079 0
M  V30 19231 N 1765.95 -6.99044 0.654351 0
M  V30 19232 H 1770.79 -2.58709 1.47898 0
M  V30 19233 H 1768.33 -1.27117 0.740254 0
M  V30 19234 H 1770.29 -4.14784 -0.448313 0
M  V30 19235 H 1768.92 -3.0999 -0.900342 0
M  V30 19236 H 1767.97 -3.50174 1.48602 0
M  V30 19237 H 1769.28 -4.67292 1.7447 0
M  V30 19238 H 1768.43 -6.065 -0.155695 0
M  V30 19239 H 1767.17 -4.85031 -0.509521 0
M  V30 19240 H 1766.18 -5.20607 1.76772 0
M  V30 19241 H 1767.4 -6.45404 2.11258 0
M  V30 19242 H 1765.35 -6.55873 -0.128996 0
M  V30 19243 H 1765.27 -7.43605 1.36339 0
M  V30 19244 H 1766.53 -7.79165 0.228631 0
M  V30 19245 N 1770.76 -0.798611 -1.35867 0
M  V30 19246 C 1771.99 -0.387479 -2.03239 0
M  V30 19247 C 1772.41 0.999052 -1.60201 0
M  V30 19248 O 1771.76 1.64237 -0.795763 0
M  V30 19249 C 1771.81 -0.452101 -3.58662 0
M  V30 19250 O 1771.54 -1.78396 -4.00133 0
M  V30 19251 C 1773.04 -0.0327638 -4.43288 0
M  V30 19252 H 1770.26 -0.15845 -0.652024 0
M  V30 19253 H 1772.8 -1.08002 -1.73655 0
M  V30 19254 H 1770.96 0.192107 -3.86923 0
M  V30 19255 H 1771.37 -1.74118 -4.94756 0
M  V30 19256 H 1772.84 -0.129106 -5.51849 0
M  V30 19257 H 1773.32 1.02098 -4.27168 0
M  V30 19258 H 1773.93 -0.649817 -4.20306 0
M  V30 19259 N 1772.24 1.47639 -0.551417 0
M  V30 19260 C 1773.17 2.32743 0.187887 0
M  V30 19261 C 1774.15 1.43432 0.914407 0
M  V30 19262 O 1775.34 1.72295 0.896005 0
M  V30 19263 C 1772.47 3.25092 1.22199 0
M  V30 19264 C 1771.42 4.23598 0.612298 0
M  V30 19265 C 1770.75 5.0523 1.75062 0
M  V30 19266 C 1772.05 5.20526 -0.430135 0
M  V30 19267 H 1773.74 2.94804 -0.522598 0
M  V30 19268 H 1771.29 1.41764 -0.252768 0
M  V30 19269 H 1773.24 3.83467 1.74731 0
M  V30 19270 H 1771.96 2.61074 1.96235 0
M  V30 19271 H 1770.62 3.6644 0.108324 0
M  V30 19272 H 1770.27 4.3762 2.47987 0
M  V30 19273 H 1769.97 5.71918 1.34848 0
M  V30 19274 H 1771.5 5.66463 2.27931 0
M  V30 19275 H 1772.91 5.73299 0.00890168 0
M  V30 19276 H 1771.31 5.95384 -0.750836 0
M  V30 19277 H 1772.38 4.66356 -1.32815 0
M  V30 19278 N 1773.72 0.287581 1.54954 0
M  V30 19279 C 1774.63 -0.604236 2.26685 0
M  V30 19280 C 1775.65 -1.1597 1.29719 0
M  V30 19281 O 1776.82 -1.18735 1.62678 0
M  V30 19282 C 1773.89 -1.76612 2.98344 0
M  V30 19283 C 1772.95 -1.24608 4.10818 0
M  V30 19284 C 1772.18 -2.35258 4.7905 0
M  V30 19285 O 1772.4 -3.54879 4.46561 0
M  V30 19286 O 1771.34 -2.02709 5.66739 0
M  V30 19287 H 1775.16 -0.0227663 3.03691 0
M  V30 19288 H 1772.75 0.0545243 1.493 0
M  V30 19289 H 1774.63 -2.44332 3.43336 0
M  V30 19290 H 1773.31 -2.33444 2.24244 0
M  V30 19291 H 1772.21 -0.53498 3.70255 0
M  V30 19292 H 1773.55 -0.723348 4.86856 0
M  V30 19293 N 1775.2 -1.57593 0.0150662 0
M  V30 19294 C 1776.11 -2.12807 -0.987437 0
M  V30 19295 C 1777.12 -1.07691 -1.3667 0
M  V30 19296 O 1778.3 -1.39674 -1.45097 0
M  V30 19297 C 1775.37 -2.63276 -2.2558 0
M  V30 19298 C 1774.43 -3.83053 -1.93827 0
M  V30 19299 C 1773.66 -4.31106 -3.14616 0
M  V30 19300 O 1773.88 -3.78405 -4.26809 0
M  V30 19301 O 1772.82 -5.23104 -2.97734 0
M  V30 19302 H 1776.64 -2.98715 -0.548015 0
M  V30 19303 H 1774.23 -1.47991 -0.20469 0
M  V30 19304 H 1776.11 -2.95869 -3.00066 0
M  V30 19305 H 1774.78 -1.80459 -2.68731 0
M  V30 19306 H 1773.69 -3.55409 -1.1677 0
M  V30 19307 H 1775.02 -4.6699 -1.55502 0
M  V30 19308 N 1776.68 0.257904 -1.55475 0
M  V30 19309 C 1777.59 1.34084 -1.92506 0
M  V30 19310 C 1778.6 1.53246 -0.824123 0
M  V30 19311 O 1779.78 1.67081 -1.12455 0
M  V30 19312 C 1776.84 2.67741 -2.20263 0
M  V30 19313 C 1775.9 2.57196 -3.43728 0
M  V30 19314 C 1775.14 3.84479 -3.7015 0
M  V30 19315 O 1775.36 4.85858 -2.98827 0
M  V30 19316 O 1774.29 3.83774 -4.63682 0
M  V30 19317 H 1778.12 1.05672 -2.84723 0
M  V30 19318 H 1775.71 0.457726 -1.42215 0
M  V30 19319 H 1777.59 3.46743 -2.39473 0
M  V30 19320 H 1776.26 2.95907 -1.31227 0
M  V30 19321 H 1775.17 1.76518 -3.29837 0
M  V30 19322 H 1776.5 2.33977 -4.33031 0
M  V30 19323 N 1778.15 1.48666 0.52309 0
M  V30 19324 C 1779.38 1.60707 1.30311 0
M  V30 19325 C 1779.8 0.269941 1.8686 0
M  V30 19326 O 1779.15 -0.741714 1.66748 0
M  V30 19327 C 1779.21 2.65899 2.44908 0
M  V30 19328 O 1778.93 3.94423 1.90688 0
M  V30 19329 C 1780.43 2.88443 3.36624 0
M  V30 19330 H 1777.65 0.541661 0.396035 0
M  V30 19331 H 1780.19 1.94544 0.630322 0
M  V30 19332 H 1778.35 2.34902 3.08058 0
M  V30 19333 H 1778.76 4.5219 2.65753 0
M  V30 19334 H 1780.23 3.65831 4.13366 0
M  V30 19335 H 1780.71 1.97524 3.92277 0
M  V30 19336 H 1781.32 3.20771 2.7926 0
M  V30 19337 N 1779.63 -0.772489 1.37369 0
M  V30 19338 C 1781.05 -1.07294 1.18153 0
M  V30 19339 C 1781.25 -2.01493 0.0171782 0
M  V30 19340 O 1780.3 -2.44177 -0.642964 0
M  V30 19341 C 1781.62 -1.67116 2.49986 0
M  V30 19342 C 1783.17 -1.79377 2.56501 0
M  V30 19343 C 1783.64 -2.42612 3.88463 0
M  V30 19344 N 1785.13 -2.50063 3.89901 0
M  V30 19345 C 1785.87 -2.99841 4.88756 0
M  V30 19346 N 1785.36 -3.49798 5.98008 0
M  V30 19347 N 1787.16 -2.98709 4.76161 0
M  V30 19348 H 1779.31 -0.147014 2.11891 0
M  V30 19349 H 1781.57 -0.127846 0.93934 0
M  V30 19350 H 1781.28 -1.05369 3.35545 0
M  V30 19351 H 1781.15 -2.6642 2.67021 0
M  V30 19352 H 1783.54 -2.40257 1.71349 0
M  V30 19353 H 1783.62 -0.788304 2.4335 0
M  V30 19354 H 1783.26 -1.82372 4.74029 0
M  V30 19355 H 1783.19 -3.43763 3.98917 0
M  V30 19356 H 1785.68 -2.14709 3.1098 0
M  V30 19357 H 1786 -3.86181 6.69391 0
M  V30 19358 H 1784.34 -3.47905 6.01654 0
M  V30 19359 H 1787.53 -2.5898 3.89932 0
M  V30 19360 H 1787.7 -3.37193 5.53358 0
M  V30 19361 N 1781.11 -1.21927 -0.998575 0
M  V30 19362 C 1782.36 -1.03456 -1.73147 0
M  V30 19363 C 1782.67 0.431472 -1.90782 0
M  V30 19364 O 1783.88 0.73573 -2.61341 0
M  V30 19365 C 1782.33 -1.80256 -3.11506 0
M  V30 19366 C 1781.94 -3.31071 -3.01821 0
M  V30 19367 C 1783.69 -1.70214 -3.8888 0
M  V30 19368 C 1781.59 -4.00335 -4.35299 0
M  V30 19369 H 1780.52 -0.3835 -0.649187 0
M  V30 19370 H 1783.17 -1.45724 -1.11521 0
M  V30 19371 H 1781.56 -1.30784 -3.7378 0
M  V30 19372 H 1782.73 -3.87895 -2.48746 0
M  V30 19373 H 1781.05 -3.41727 -2.37932 0
M  V30 19374 H 1783.64 -2.19289 -4.87664 0
M  V30 19375 H 1783.99 -0.661522 -4.1101 0
M  V30 19376 H 1784.52 -2.17199 -3.33271 0
M  V30 19377 H 1781.26 -5.04626 -4.18369 0
M  V30 19378 H 1780.78 -3.48301 -4.8831 0
M  V30 19379 H 1782.46 -4.05611 -5.04072 0
M  V30 19380 N 1782.59 1.19452 -1.02805 0
M  V30 19381 C 1783.54 2.20533 -0.578732 0
M  V30 19382 C 1784.52 1.56539 0.372081 0
M  V30 19383 O 1785.71 1.75943 0.193185 0
M  V30 19384 C 1782.84 3.43229 0.0698982 0
M  V30 19385 C 1781.93 4.14368 -0.903306 0
M  V30 19386 N 1782.32 4.61709 -2.0654 0
M  V30 19387 C 1780.62 4.40042 -0.726572 0
M  V30 19388 C 1781.32 5.1633 -2.67914 0
M  V30 19389 N 1780.3 5.0708 -1.95884 0
M  V30 19390 H 1784.1 2.54813 -1.46451 0
M  V30 19391 H 1781.61 1.35517 -0.894927 0
M  V30 19392 H 1783.61 4.14885 0.409411 0
M  V30 19393 H 1782.27 3.1045 0.951368 0
M  V30 19394 H 1783.28 4.5656 -2.44485 0
M  V30 19395 H 1779.96 4.17366 0.105875 0
M  V30 19396 H 1781.35 5.63254 -3.66326 0
M  V30 19397 N 1784.07 0.805805 1.35442 0
M  V30 19398 C 1784.98 0.217149 2.33593 0
M  V30 19399 C 1785.99 -0.639428 1.61825 0
M  V30 19400 O 1787.17 -0.551363 1.93706 0
M  V30 19401 C 1784.23 -0.625149 3.41017 0
M  V30 19402 C 1783.29 0.25183 4.28561 0
M  V30 19403 C 1782.53 -0.550363 5.30855 0
M  V30 19404 O 1782.75 -1.78511 5.41747 0
M  V30 19405 O 1781.68 0.0583487 6.01872 0
M  V30 19406 H 1785.51 1.02909 2.85733 0
M  V30 19407 H 1783.1 0.567579 1.38199 0
M  V30 19408 H 1784.98 -1.10493 4.06656 0
M  V30 19409 H 1783.65 -1.4147 2.91149 0
M  V30 19410 H 1782.56 0.77873 3.65905 0
M  V30 19411 H 1783.89 1.0053 4.81824 0
M  V30 19412 N 1785.54 -1.47344 0.559239 0
M  V30 19413 C 1786.51 -2.28516 -0.17688 0
M  V30 19414 C 1787.51 -1.37065 -0.840823 0
M  V30 19415 O 1788.7 -1.59676 -0.696373 0
M  V30 19416 C 1785.83 -3.16803 -1.25892 0
M  V30 19417 H 1787.02 -2.95068 0.536174 0
M  V30 19418 H 1784.58 -1.53067 0.316263 0
M  V30 19419 H 1785.31 -2.54947 -2.00431 0
M  V30 19420 H 1785.1 -3.84108 -0.787625 0
M  V30 19421 H 1786.59 -3.77958 -1.77589 0
M  V30 19422 N 1787.02 -0.295795 -1.54799 0
M  V30 19423 C 1787.99 0.569699 -2.22007 0
M  V30 19424 C 1788.99 1.06535 -1.20445 0
M  V30 19425 O 1790.18 0.962212 -1.45214 0
M  V30 19426 C 1787.31 1.78821 -2.90234 0
M  V30 19427 H 1788.5 -0.0174148 -2.99895 0
M  V30 19428 H 1786.05 -0.0465813 -1.56231 0
M  V30 19429 H 1786.79 2.4153 -2.16412 0
M  V30 19430 H 1786.57 1.44051 -3.6468 0
M  V30 19431 H 1788.06 2.40321 -3.41519 0
M  V30 19432 N 1788.5 1.57583 -0.0234236 0
M  V30 19433 C 1789.75 1.91848 0.657422 0
M  V30 19434 C 1790.08 0.899633 1.72105 0
M  V30 19435 O 1789.36 -0.0784409 1.94342 0
M  V30 19436 C 1789.64 3.36617 1.2791 0
M  V30 19437 C 1789.49 4.49235 0.225421 0
M  V30 19438 C 1790.81 3.81239 2.19874 0
M  V30 19439 H 1787.93 0.697677 0.23752 0
M  V30 19440 H 1790.57 1.89834 -0.0795169 0
M  V30 19441 H 1788.72 3.38465 1.90719 0
M  V30 19442 H 1790.39 4.59521 -0.404792 0
M  V30 19443 H 1788.64 4.31462 -0.449749 0
M  V30 19444 H 1789.31 5.47545 0.699906 0
M  V30 19445 H 1791.78 3.81092 1.67058 0
M  V30 19446 H 1790.66 4.8324 2.60328 0
M  V30 19447 H 1790.92 3.16421 3.08755 0
M  V30 19448 N 1789.98 -0.249655 1.5561 0
M  V30 19449 C 1790.91 -1.33188 1.8653 0
M  V30 19450 C 1791.92 -1.44424 0.751366 0
M  V30 19451 O 1793.11 -1.45823 1.02946 0
M  V30 19452 C 1790.21 -2.71076 2.03398 0
M  V30 19453 C 1789.39 -2.82142 3.34237 0
M  V30 19454 C 1788.45 -4.00857 3.40882 0
M  V30 19455 O 1787.47 -3.90514 4.1411 0
M  V30 19456 N 1788.67 -5.13901 2.69974 0
M  V30 19457 H 1791.44 -1.07 2.79948 0
M  V30 19458 H 1789 -0.43976 1.55813 0
M  V30 19459 H 1790.99 -3.48826 2.05188 0
M  V30 19460 H 1789.56 -2.89985 1.16738 0
M  V30 19461 H 1788.78 -1.9109 3.44788 0
M  V30 19462 H 1790.07 -2.86483 4.20481 0
M  V30 19463 H 1789.47 -5.25195 2.10206 0
M  V30 19464 H 1788.02 -5.89796 2.7746 0
M  V30 19465 N 1791.46 -1.48941 -0.515198 0
M  V30 19466 C 1792.37 -1.67271 -1.64492 0
M  V30 19467 C 1793.38 -0.555222 -1.64904 0
M  V30 19468 O 1794.56 -0.828161 -1.83585 0
M  V30 19469 C 1791.62 -1.722 -3.00912 0
M  V30 19470 C 1790.69 -2.95683 -3.11239 0
M  V30 19471 C 1789.92 -3.00368 -4.41152 0
M  V30 19472 O 1790.14 -2.13041 -5.29122 0
M  V30 19473 O 1789.08 -3.92691 -4.56155 0
M  V30 19474 H 1792.9 -2.62947 -1.51962 0
M  V30 19475 H 1790.49 -1.32515 -0.68993 0
M  V30 19476 H 1792.37 -1.77877 -3.82018 0
M  V30 19477 H 1791.04 -0.796995 -3.13735 0
M  V30 19478 H 1789.95 -2.95531 -2.29374 0
M  V30 19479 H 1791.28 -3.87617 -3.03338 0
M  V30 19480 N 1792.94 0.765193 -1.37777 0
M  V30 19481 C 1793.87 1.89247 -1.36777 0
M  V30 19482 C 1794.85 1.68463 -0.235389 0
M  V30 19483 O 1796.03 1.89225 -0.436733 0
M  V30 19484 C 1793.16 3.2662 -1.18053 0
M  V30 19485 C 1792.12 3.61981 -2.28372 0
M  V30 19486 C 1791.44 4.97967 -1.94765 0
M  V30 19487 C 1792.74 3.68053 -3.70587 0
M  V30 19488 H 1794.44 1.90341 -2.31108 0
M  V30 19489 H 1791.98 0.914355 -1.11245 0
M  V30 19490 H 1793.93 4.05125 -1.15982 0
M  V30 19491 H 1792.66 3.25976 -0.201803 0
M  V30 19492 H 1791.32 2.85788 -2.2961 0
M  V30 19493 H 1790.97 4.93869 -0.954052 0
M  V30 19494 H 1790.67 5.22594 -2.68642 0
M  V30 19495 H 1792.19 5.78864 -1.94292 0
M  V30 19496 H 1793.6 4.36696 -3.71443 0
M  V30 19497 H 1792 4.04183 -4.43572 0
M  V30 19498 H 1793.07 2.68556 -4.03739 0
M  V30 19499 N 1794.41 1.22455 0.992094 0
M  V30 19500 C 1795.83 0.984682 1.25603 0
M  V30 19501 C 1796.03 -0.321255 1.98923 0
M  V30 19502 O 1795.09 -1.04367 2.29921 0
M  V30 19503 C 1796.4 2.1839 2.06703 0
M  V30 19504 C 1797.95 2.22755 2.19884 0
M  V30 19505 C 1798.42 3.42232 3.04371 0
M  V30 19506 N 1799.91 3.42398 3.11958 0
M  V30 19507 C 1800.65 4.31497 3.77622 0
M  V30 19508 N 1800.14 5.30814 4.45206 0
M  V30 19509 N 1801.94 4.1927 3.74391 0
M  V30 19510 H 1794.09 2.06417 0.50057 0
M  V30 19511 H 1796.35 0.904556 0.283693 0
M  V30 19512 H 1796.06 3.13099 1.60192 0
M  V30 19513 H 1795.93 2.18517 3.07458 0
M  V30 19514 H 1798.32 1.28593 2.65608 0
M  V30 19515 H 1798.4 2.26667 1.18557 0
M  V30 19516 H 1798.04 4.36694 2.59346 0
M  V30 19517 H 1797.97 3.3556 4.05841 0
M  V30 19518 H 1800.46 2.70531 2.63858 0
M  V30 19519 H 1800.78 5.95078 4.93054 0
M  V30 19520 H 1799.12 5.34726 4.43952 0
M  V30 19521 H 1802.31 3.40932 3.20753 0
M  V30 19522 H 1802.49 4.88913 4.25286 0
M  V30 19523 N 1795.89 -1.18905 1.03437 0
M  V30 19524 C 1796.82 -2.21792 0.578016 0
M  V30 19525 C 1797.84 -1.59015 -0.349014 0
M  V30 19526 O 1799.03 -1.77914 -0.144532 0
M  V30 19527 C 1796.13 -3.38441 -0.176348 0
M  V30 19528 C 1795.3 -4.308 0.756988 0
M  V30 19529 C 1794.36 -5.26179 0.0470478 0
M  V30 19530 O 1793.38 -5.65179 0.675418 0
M  V30 19531 N 1794.59 -5.67497 -1.2218 0
M  V30 19532 H 1797.35 -2.6157 1.46291 0
M  V30 19533 H 1794.91 -1.33627 0.914078 0
M  V30 19534 H 1796.9 -3.99266 -0.660972 0
M  V30 19535 H 1795.47 -2.97406 -0.962715 0
M  V30 19536 H 1794.69 -3.67674 1.4216 0
M  V30 19537 H 1795.98 -4.89413 1.39113 0
M  V30 19538 H 1795.38 -5.37855 -1.75295 0
M  V30 19539 H 1793.94 -6.30548 -1.65081 0
M  V30 19540 N 1797.37 -0.812977 -1.35013 0
M  V30 19541 C 1798.79 -0.497497 -1.51648 0
M  V30 19542 C 1798.99 0.980162 -1.76054 0
M  V30 19543 O 1798.04 1.76498 -1.80567 0
M  V30 19544 C 1799.35 -1.3484 -2.68772 0
M  V30 19545 C 1800.9 -1.3445 -2.82652 0
M  V30 19546 C 1801.38 -2.17966 -4.02808 0
M  V30 19547 N 1802.87 -2.15537 -4.09998 0
M  V30 19548 C 1803.6 -2.76912 -5.02103 0
M  V30 19549 N 1803.1 -3.47239 -5.99497 0
M  V30 19550 N 1804.89 -2.66519 -4.94898 0
M  V30 19551 H 1797.04 -1.76987 -1.17429 0
M  V30 19552 H 1799.31 -0.753654 -0.575073 0
M  V30 19553 H 1799.01 -2.39732 -2.57336 0
M  V30 19554 H 1798.89 -1.0061 -3.63535 0
M  V30 19555 H 1801.27 -0.303409 -2.93536 0
M  V30 19556 H 1801.35 -1.72671 -1.88728 0
M  V30 19557 H 1801 -3.2212 -3.92685 0
M  V30 19558 H 1800.93 -1.77102 -4.95926 0
M  V30 19559 H 1803.42 -1.64373 -3.40279 0
M  V30 19560 H 1803.73 -3.91341 -6.66387 0
M  V30 19561 H 1802.08 -3.51344 -5.99652 0
M  V30 19562 H 1805.27 -2.1116 -4.17767 0
M  V30 19563 H 1805.44 -3.14639 -5.66486 0
M  V30 19564 N 1798.85 1.47045 -0.567045 0
M  V30 19565 C 1799.8 2.27158 0.195716 0
M  V30 19566 C 1800.78 1.34943 0.876307 0
M  V30 19567 O 1801.97 1.59229 0.772989 0
M  V30 19568 C 1799.1 3.20936 1.21882 0
M  V30 19569 C 1798.19 4.20633 0.54114 0
M  V30 19570 N 1798.58 5.0426 -0.394396 0
M  V30 19571 C 1796.88 4.38878 0.793847 0
M  V30 19572 C 1797.58 5.76324 -0.788986 0
M  V30 19573 N 1796.55 5.43416 -0.141613 0
M  V30 19574 H 1800.36 2.89201 -0.523432 0
M  V30 19575 H 1797.87 1.57705 -0.387691 0
M  V30 19576 H 1799.87 3.77023 1.77931 0
M  V30 19577 H 1798.53 2.60451 1.93895 0
M  V30 19578 H 1799.54 5.12158 -0.769095 0
M  V30 19579 H 1796.22 3.89556 1.50175 0
M  V30 19580 H 1797.61 6.5358 -1.55829 0
M  V30 19581 N 1800.33 0.304 1.5464 0
M  V30 19582 C 1801.57 -0.303793 1.99804 0
M  V30 19583 C 1801.89 -1.54179 1.19389 0
M  V30 19584 O 1801.16 -1.93732 0.290631 0
M  V30 19585 H 1799.74 -0.115241 0.738057 0
M  V30 19586 H 1802.41 0.416024 1.90408 0
M  V30 19587 H 1801.5 -0.573759 3.06781 0
M  V30 19588 N 1801.8 -1.57568 0.0317802 0
M  V30 19589 C 1802.74 -2.07288 -0.977981 0
M  V30 19590 C 1803.75 -0.99682 -1.28714 0
M  V30 19591 O 1804.94 -1.27295 -1.25133 0
M  V30 19592 C 1802.04 -2.48469 -2.3047 0
M  V30 19593 C 1801.21 -3.79185 -2.18031 0
M  V30 19594 C 1800.27 -4.06888 -3.33659 0
M  V30 19595 O 1799.3 -4.771 -3.10426 0
M  V30 19596 N 1800.5 -3.57271 -4.57534 0
M  V30 19597 H 1803.26 -2.9454 -0.553743 0
M  V30 19598 H 1800.82 -1.61157 -0.154917 0
M  V30 19599 H 1802.82 -2.64092 -3.06655 0
M  V30 19600 H 1801.39 -1.66568 -2.64526 0
M  V30 19601 H 1800.61 -3.73333 -1.26556 0
M  V30 19602 H 1801.89 -4.64821 -2.06926 0
M  V30 19603 H 1801.29 -3.00474 -4.79303 0
M  V30 19604 H 1799.85 -3.78168 -5.30878 0
M  V30 19605 N 1803.28 0.241399 -1.5574 0
M  V30 19606 C 1804.25 1.28236 -1.89969 0
M  V30 19607 C 1805.25 1.40804 -0.776582 0
M  V30 19608 O 1806.44 1.3941 -1.04453 0
M  V30 19609 C 1803.57 2.65926 -2.13299 0
M  V30 19610 H 1804.76 0.991011 -2.83053 0
M  V30 19611 H 1802.31 0.480939 -1.48717 0
M  V30 19612 H 1803.05 3.00192 -1.22701 0
M  V30 19613 H 1802.83 2.58184 -2.95099 0
M  V30 19614 H 1804.32 3.4108 -2.40944 0
M  V30 19615 N 1804.76 1.49212 0.507292 0
M  V30 19616 C 1805.69 1.68326 1.61829 0
M  V30 19617 C 1806.67 0.531969 1.61568 0
M  V30 19618 O 1807.86 0.767104 1.78407 0
M  V30 19619 C 1804.99 1.74394 3.0034 0
M  V30 19620 C 1803.94 2.89251 3.15465 0
M  V30 19621 C 1803.27 2.80426 4.55264 0
M  V30 19622 C 1804.57 4.30269 2.96085 0
M  V30 19623 H 1806.26 2.6134 1.46087 0
M  V30 19624 H 1803.81 1.25765 0.701367 0
M  V30 19625 H 1805.76 1.86353 3.77956 0
M  V30 19626 H 1804.48 0.779748 3.17155 0
M  V30 19627 H 1803.14 2.76884 2.40272 0
M  V30 19628 H 1802.79 1.81928 4.68947 0
M  V30 19629 H 1802.49 3.57511 4.66326 0
M  V30 19630 H 1804.01 2.94384 5.34949 0
M  V30 19631 H 1805.43 4.4335 3.63475 0
M  V30 19632 H 1803.83 5.08527 3.18623 0
M  V30 19633 H 1804.9 4.45151 1.92272 0
M  V30 19634 N 1806.24 -0.757876 1.38181 0
M  V30 19635 C 1807.49 -1.51388 1.33888 0
M  V30 19636 C 1807.81 -1.94867 -0.0718767 0
M  V30 19637 O 1807.08 -1.67329 -1.01871 0
M  V30 19638 H 1805.66 -0.561534 0.492634 0
M  V30 19639 H 1808.32 -0.901156 1.72815 0
M  V30 19640 H 1807.42 -2.4068 1.98695 0
M  V30 19641 N 1807.72 -1.22979 -0.985586 0
M  V30 19642 C 1808.63 -1.02294 -2.11124 0
M  V30 19643 C 1809.64 0.030991 -1.73972 0
M  V30 19644 O 1810.82 -0.163333 -2.00737 0
M  V30 19645 C 1807.88 -0.611102 -3.41272 0
M  V30 19646 C 1806.94 -1.73949 -3.9248 0
M  V30 19647 C 1806.18 -1.34721 -5.16417 0
M  V30 19648 O 1806.4 -0.229171 -5.69939 0
M  V30 19649 O 1805.33 -2.16639 -5.61561 0
M  V30 19650 H 1809.16 -1.9662 -2.31461 0
M  V30 19651 H 1806.75 -1.01639 -1.09499 0
M  V30 19652 H 1808.63 -0.392127 -4.19572 0
M  V30 19653 H 1807.3 0.303224 -3.22277 0
M  V30 19654 H 1806.21 -2.01305 -3.1532 0
M  V30 19655 H 1807.54 -2.63194 -4.1592 0
M  V30 19656 N 1809.19 1.18355 -1.04066 0
M  V30 19657 C 1810.12 2.24196 -0.652568 0
M  V30 19658 C 1811.11 1.66581 0.344195 0
M  V30 19659 O 1812.29 1.929 0.224296 0
M  V30 19660 C 1809.42 3.47297 -0.0147409 0
M  V30 19661 C 1808.37 4.17661 -0.935044 0
M  V30 19662 C 1807.7 5.34455 -0.161692 0
M  V30 19663 C 1809 4.71153 -2.25415 0
M  V30 19664 H 1810.69 2.56914 -1.53738 0
M  V30 19665 H 1808.24 1.23492 -0.740658 0
M  V30 19666 H 1810.19 4.20544 0.268484 0
M  V30 19667 H 1808.92 3.13812 0.904949 0
M  V30 19668 H 1807.58 3.46312 -1.20265 0
M  V30 19669 H 1807.22 4.97219 0.760404 0
M  V30 19670 H 1806.92 5.82469 -0.774805 0
M  V30 19671 H 1808.45 6.10493 0.114515 0
M  V30 19672 H 1809.86 5.36095 -2.03163 0
M  V30 19673 H 1808.26 5.29701 -2.82022 0
M  V30 19674 H 1809.33 3.88576 -2.90064 0
M  V30 19675 N 1810.67 0.820125 1.3458 0
M  V30 19676 C 1811.64 0.245462 2.27882 0
M  V30 19677 C 1812.64 -0.575025 1.50167 0
M  V30 19678 O 1813.83 -0.391536 1.69743 0
M  V30 19679 C 1810.96 -0.656199 3.34525 0
M  V30 19680 H 1812.15 1.06853 2.80218 0
M  V30 19681 H 1809.7 0.591777 1.44664 0
M  V30 19682 H 1810.44 -1.50244 2.87398 0
M  V30 19683 H 1810.22 -0.0693951 3.92039 0
M  V30 19684 H 1811.71 -1.05216 4.04128 0
M  V30 19685 N 1812.15 -1.46743 0.574835 0
M  V30 19686 C 1813.06 -2.34015 -0.16559 0
M  V30 19687 C 1814.08 -1.49273 -0.894064 0
M  V30 19688 O 1815.25 -1.82162 -0.859013 0
M  V30 19689 C 1812.32 -3.26313 -1.17136 0
M  V30 19690 C 1811.38 -4.26952 -0.448413 0
M  V30 19691 C 1810.61 -5.1484 -1.40627 0
M  V30 19692 O 1810.83 -5.05508 -2.6423 0
M  V30 19693 O 1809.77 -5.9481 -0.921143 0
M  V30 19694 H 1813.59 -2.98664 0.550754 0
M  V30 19695 H 1811.18 -1.45589 0.335297 0
M  V30 19696 H 1813.06 -3.83276 -1.75149 0
M  V30 19697 H 1811.74 -2.64269 -1.86931 0
M  V30 19698 H 1810.64 -3.73698 0.17336 0
M  V30 19699 H 1811.98 -4.91759 0.208419 0
M  V30 19700 N 1813.63 -0.312197 -1.54477 0
M  V30 19701 C 1814.56 0.592742 -2.21403 0
M  V30 19702 C 1815.57 1.0888 -1.21033 0
M  V30 19703 O 1816.76 1.00433 -1.47565 0
M  V30 19704 C 1813.86 1.82478 -2.85578 0
M  V30 19705 C 1813.04 1.46933 -4.11982 0
M  V30 19706 C 1812.09 2.5577 -4.59857 0
M  V30 19707 O 1811.12 2.20391 -5.24801 0
M  V30 19708 N 1812.32 3.86506 -4.3312 0
M  V30 19709 H 1815.09 0.0197398 -2.99693 0
M  V30 19710 H 1812.65 -0.13489 -1.61337 0
M  V30 19711 H 1814.64 2.54657 -3.14534 0
M  V30 19712 H 1813.21 2.3059 -2.11062 0
M  V30 19713 H 1812.43 0.579677 -3.89915 0
M  V30 19714 H 1813.72 1.20739 -4.94267 0
M  V30 19715 H 1813.12 4.18053 -3.81114 0
M  V30 19716 H 1811.67 4.5495 -4.66759 0
M  V30 19717 N 1815.11 1.57549 -0.040136 0
M  V30 19718 C 1816.04 2.13912 0.936168 0
M  V30 19719 C 1817.02 1.05798 1.33194 0
M  V30 19720 O 1818.2 1.33685 1.40861 0
M  V30 19721 C 1815.33 2.67515 2.21479 0
M  V30 19722 C 1814.29 3.80513 1.95943 0
M  V30 19723 C 1813.61 4.20589 3.30165 0
M  V30 19724 C 1814.91 5.06124 1.28981 0
M  V30 19725 H 1816.61 2.9574 0.46674 0
M  V30 19726 H 1814.15 1.42262 0.223062 0
M  V30 19727 H 1816.11 3.05582 2.90168 0
M  V30 19728 H 1814.83 1.82864 2.70608 0
M  V30 19729 H 1813.49 3.42902 1.29669 0
M  V30 19730 H 1813.14 3.32904 3.77073 0
M  V30 19731 H 1812.84 4.96742 3.13881 0
M  V30 19732 H 1814.36 4.61248 4.00103 0
M  V30 19733 H 1815.77 5.41707 1.87687 0
M  V30 19734 H 1814.17 5.87347 1.2306 0
M  V30 19735 H 1815.24 4.84179 0.264286 0
M  V30 19736 N 1816.58 -0.233136 1.55866 0
M  V30 19737 C 1817.49 -1.31004 1.94615 0
M  V30 19738 C 1818.51 -1.51915 0.848399 0
M  V30 19739 O 1819.69 -1.6527 1.15098 0
M  V30 19740 C 1816.75 -2.64203 2.24494 0
M  V30 19741 C 1815.81 -2.51695 3.47776 0
M  V30 19742 C 1815.05 -3.78542 3.7622 0
M  V30 19743 O 1815.27 -4.81043 3.06519 0
M  V30 19744 O 1814.2 -3.76348 4.69729 0
M  V30 19745 H 1818.03 -1.01129 2.86368 0
M  V30 19746 H 1815.61 -0.435043 1.42926 0
M  V30 19747 H 1817.5 -3.42889 2.44959 0
M  V30 19748 H 1816.17 -2.93782 1.35918 0
M  V30 19749 H 1815.08 -1.71248 3.32603 0
M  V30 19750 H 1816.41 -2.27058 4.36698 0
M  V30 19751 N 1818.06 -1.49479 -0.499372 0
M  V30 19752 C 1819 -1.6239 -1.61748 0
M  V30 19753 C 1820.01 -0.506515 -1.5472 0
M  V30 19754 O 1821.2 -0.778629 -1.60623 0
M  V30 19755 C 1818.3 -1.56611 -3.00543 0
M  V30 19756 C 1817.47 -2.83909 -3.32738 0
M  V30 19757 C 1816.53 -2.7116 -4.50953 0
M  V30 19758 O 1815.56 -3.45097 -4.52656 0
M  V30 19759 N 1816.76 -1.82815 -5.50962 0
M  V30 19760 H 1819.52 -2.58823 -1.51099 0
M  V30 19761 H 1817.08 -1.46588 -0.687277 0
M  V30 19762 H 1819.08 -1.45734 -3.7755 0
M  V30 19763 H 1817.65 -0.68029 -3.05108 0
M  V30 19764 H 1816.87 -3.09125 -2.44613 0
M  V30 19765 H 1818.15 -3.68299 -3.51046 0
M  V30 19766 H 1817.55 -1.22005 -5.52387 0
M  V30 19767 H 1816.11 -1.77859 -6.27064 0
M  V30 19768 N 1819.54 0.750537 -1.38581 0
M  V30 19769 C 1820.5 1.84599 -1.35852 0
M  V30 19770 C 1821.5 1.58709 -0.258462 0
M  V30 19771 O 1822.69 1.66397 -0.51552 0
M  V30 19772 C 1819.83 3.22124 -1.11573 0
M  V30 19773 H 1821.02 1.88426 -2.33314 0
M  V30 19774 H 1818.57 0.952564 -1.23919 0
M  V30 19775 H 1819.31 3.23965 -0.147295 0
M  V30 19776 H 1819.09 3.42311 -1.91221 0
M  V30 19777 H 1820.58 4.02198 -1.12367 0
M  V30 19778 N 1821.02 1.235 0.979051 0
M  V30 19779 C 1822.44 0.997948 1.24552 0
M  V30 19780 C 1822.64 -0.300139 1.99252 0
M  V30 19781 O 1821.69 -1.01923 2.31015 0
M  V30 19782 C 1823 2.2057 2.04375 0
M  V30 19783 C 1824.55 2.25075 2.17509 0
M  V30 19784 C 1825.03 3.45441 3.00724 0
M  V30 19785 N 1826.52 3.45688 3.08308 0
M  V30 19786 C 1827.25 4.35478 3.73024 0
M  V30 19787 N 1826.75 5.35506 4.39551 0
M  V30 19788 N 1828.54 4.23218 3.69923 0
M  V30 19789 H 1820.69 2.06936 0.478649 0
M  V30 19790 H 1822.96 0.907514 0.274083 0
M  V30 19791 H 1822.66 3.14781 1.56863 0
M  V30 19792 H 1822.54 2.21765 3.05123 0
M  V30 19793 H 1824.92 1.31403 2.64229 0
M  V30 19794 H 1825 2.27912 1.16146 0
M  V30 19795 H 1824.65 4.3942 2.547 0
M  V30 19796 H 1824.58 3.39845 4.0226 0
M  V30 19797 H 1827.07 2.73315 2.60974 0
M  V30 19798 H 1827.38 6.00274 4.86715 0
M  V30 19799 H 1825.73 5.39404 4.38256 0
M  V30 19800 H 1828.92 3.44315 3.17119 0
M  V30 19801 H 1829.09 4.93396 4.20076 0
M  V30 19802 N 1822.5 -1.17802 1.04693 0
M  V30 19803 C 1823.91 -1.39944 0.76733 0
M  V30 19804 C 1824.11 -1.91051 -0.640451 0
M  V30 19805 O 1823.17 -2.09889 -1.40366 0
M  V30 19806 C 1824.48 -2.39465 1.81871 0
M  V30 19807 C 1826.03 -2.5318 1.84035 0
M  V30 19808 C 1826.51 -3.55971 2.88182 0
M  V30 19809 N 1828 -3.63484 2.87113 0
M  V30 19810 C 1828.73 -4.42762 3.64348 0
M  V30 19811 N 1828.23 -5.25597 4.51353 0
M  V30 19812 N 1830.02 -4.37586 3.52809 0
M  V30 19813 H 1822.17 -0.829567 1.9553 0
M  V30 19814 H 1824.43 -0.427009 0.846385 0
M  V30 19815 H 1824.14 -2.08974 2.82883 0
M  V30 19816 H 1824.01 -3.38899 1.65612 0
M  V30 19817 H 1826.4 -2.82984 0.836908 0
M  V30 19818 H 1826.48 -1.53837 2.04371 0
M  V30 19819 H 1826.13 -3.26906 3.88709 0
M  V30 19820 H 1826.06 -4.55006 2.65099 0
M  V30 19821 H 1828.55 -3.04338 2.24024 0
M  V30 19822 H 1828.86 -5.83258 5.06981 0
M  V30 19823 H 1827.21 -5.24996 4.55417 0
M  V30 19824 H 1830.4 -3.71924 2.84236 0
M  V30 19825 H 1830.57 -4.99128 4.13249 0
M  V30 19826 N 1823.98 -0.827251 -1.34143 0
M  V30 19827 C 1825.22 -0.41656 -1.9776 0
M  V30 19828 C 1825.54 1.02488 -1.65895 0
M  V30 19829 O 1824.81 1.71219 -0.951891 0
M  V30 19830 H 1823.39 -0.151044 -0.73157 0
M  V30 19831 H 1826.06 -1.05765 -1.63706 0
M  V30 19832 H 1825.15 -0.539101 -3.07409 0
M  V30 19833 N 1825.45 1.46436 -0.582609 0
M  V30 19834 C 1826.4 2.30308 0.150697 0
M  V30 19835 C 1827.37 1.40611 0.884185 0
M  V30 19836 O 1828.56 1.6956 0.874874 0
M  V30 19837 C 1825.7 3.25074 1.15847 0
M  V30 19838 C 1824.81 4.2987 0.428442 0
M  V30 19839 C 1823.94 5.11765 1.42373 0
M  V30 19840 C 1822.98 6.0831 0.680103 0
M  V30 19841 N 1822.12 6.83073 1.62345 0
M  V30 19842 H 1826.96 2.92487 -0.570583 0
M  V30 19843 H 1824.5 1.44148 -0.293195 0
M  V30 19844 H 1826.45 3.78462 1.75563 0
M  V30 19845 H 1825.08 2.64704 1.84747 0
M  V30 19846 H 1824.14 3.7934 -0.283744 0
M  V30 19847 H 1825.45 4.98566 -0.15291 0
M  V30 19848 H 1824.6 5.69429 2.09369 0
M  V30 19849 H 1823.34 4.4303 2.03902 0
M  V30 19850 H 1822.35 5.498 -0.00363067 0
M  V30 19851 H 1823.57 6.79064 0.0702152 0
M  V30 19852 H 1821.52 6.17048 2.22684 0
M  V30 19853 H 1821.43 7.48029 1.0949 0
M  V30 19854 H 1822.7 7.45295 2.28376 0
M  V30 19855 N 1826.93 0.320385 1.54309 0
M  V30 19856 C 1828.18 -0.282584 2.00115 0
M  V30 19857 C 1828.5 -1.52904 1.21018 0
M  V30 19858 O 1827.77 -1.93413 0.311163 0
M  V30 19859 H 1826.35 -0.107406 0.739238 0
M  V30 19860 H 1829.01 0.436196 1.89956 0
M  V30 19861 H 1828.11 -0.541189 3.07372 0
M  V30 19862 N 1828.41 -1.57525 0.0484906 0
M  V30 19863 C 1829.37 -2.10275 -0.911987 0
M  V30 19864 C 1830.37 -1.02178 -1.24163 0
M  V30 19865 O 1831.56 -1.28262 -1.17875 0
M  V30 19866 C 1828.69 -2.58475 -2.22269 0
M  V30 19867 H 1829.89 -2.96432 -0.454768 0
M  V30 19868 H 1827.44 -1.55017 -0.19987 0
M  V30 19869 H 1828.18 -1.75704 -2.72578 0
M  V30 19870 H 1827.96 -3.37466 -1.99648 0
M  V30 19871 H 1829.45 -2.99443 -2.91074 0
M  V30 19872 N 1829.89 0.224867 -1.55988 0
M  V30 19873 C 1831.13 0.946775 -1.80021 0
M  V30 19874 C 1831.49 1.82104 -0.620957 0
M  V30 19875 O 1830.78 1.8769 0.385108 0
M  V30 19876 C 1830.98 1.8227 -3.07429 0
M  V30 19877 C 1830.8 1.03472 -4.37634 0
M  V30 19878 C 1829.57 0.730974 -4.99985 0
M  V30 19879 C 1831.77 0.401622 -5.12729 0
M  V30 19880 N 1829.75 -0.0787572 -6.13849 0
M  V30 19881 C 1831.13 -0.271655 -6.19405 0
M  V30 19882 C 1833.18 0.314318 -4.96907 0
M  V30 19883 C 1831.88 -1.02388 -7.11976 0
M  V30 19884 C 1833.91 -0.424434 -5.89875 0
M  V30 19885 C 1833.27 -1.08627 -6.95974 0
M  V30 19886 H 1829.37 0.326825 -0.710429 0
M  V30 19887 H 1831.95 0.217939 -1.93476 0
M  V30 19888 H 1830.13 2.52338 -2.95263 0
M  V30 19889 H 1831.86 2.48183 -3.19668 0
M  V30 19890 H 1828.61 1.04818 -4.61855 0
M  V30 19891 H 1829.04 -0.472361 -6.7535 0
M  V30 19892 H 1833.68 0.811656 -4.14936 0
M  V30 19893 H 1831.4 -1.53275 -7.93431 0
M  V30 19894 H 1834.98 -0.492945 -5.79708 0
M  V30 19895 H 1833.86 -1.64877 -7.66672 0
M  V30 19896 N 1831.37 1.49742 0.491438 0
M  V30 19897 C 1832.28 1.69866 1.6181 0
M  V30 19898 C 1833.29 0.581386 1.64 0
M  V30 19899 O 1834.47 0.857263 1.82244 0
M  V30 19900 C 1831.53 1.76965 2.98135 0
M  V30 19901 C 1830.59 3.00597 3.06496 0
M  V30 19902 C 1829.83 3.07348 4.36317 0
M  V30 19903 O 1830.05 2.21432 5.25665 0
M  V30 19904 O 1828.98 3.99898 4.4985 0
M  V30 19905 H 1832.81 2.65332 1.47759 0
M  V30 19906 H 1830.39 1.33596 0.668761 0
M  V30 19907 H 1832.28 1.83932 3.7914 0
M  V30 19908 H 1830.95 0.846807 3.12427 0
M  V30 19909 H 1829.86 2.99142 2.24643 0
M  V30 19910 H 1831.19 3.92393 2.97133 0
M  V30 19911 N 1832.84 -0.743177 1.38977 0
M  V30 19912 C 1833.79 -1.85709 1.37043 0
M  V30 19913 C 1834.76 -1.64481 0.231351 0
M  V30 19914 O 1835.95 -1.86002 0.4252 0
M  V30 19915 C 1833.09 -3.23131 1.21162 0
M  V30 19916 C 1832.2 -3.5612 2.44545 0
M  V30 19917 C 1831.33 -4.82901 2.21315 0
M  V30 19918 C 1830.37 -5.08708 3.40415 0
M  V30 19919 N 1829.51 -6.26688 3.16555 0
M  V30 19920 H 1834.35 -1.86698 2.32267 0
M  V30 19921 H 1831.89 -0.912384 1.15386 0
M  V30 19922 H 1833.85 -4.02446 1.09968 0
M  V30 19923 H 1832.48 -3.21443 0.295716 0
M  V30 19924 H 1831.53 -2.71569 2.66373 0
M  V30 19925 H 1832.84 -3.71114 3.3328 0
M  V30 19926 H 1831.99 -5.70179 2.07317 0
M  V30 19927 H 1830.73 -4.70065 1.29962 0
M  V30 19928 H 1829.74 -4.19894 3.54921 0
M  V30 19929 H 1830.96 -5.23434 4.32659 0
M  V30 19930 H 1828.91 -6.15156 2.27858 0
M  V30 19931 H 1828.83 -6.4223 3.98843 0
M  V30 19932 H 1830.09 -7.16827 3.06233 0
M  V30 19933 N 1834.32 -1.24018 -0.972487 0
M  V30 19934 C 1835.55 -1.10392 -1.74989 0
M  V30 19935 C 1835.97 0.34396 -1.8564 0
M  V30 19936 O 1835.32 1.23757 -1.34128 0
M  V30 19937 C 1835.37 -1.73247 -3.17282 0
M  V30 19938 O 1835.09 -3.12374 -3.07171 0
M  V30 19939 C 1836.6 -1.65168 -4.11381 0
M  V30 19940 H 1833.82 -0.38593 -0.548907 0
M  V30 19941 H 1836.36 -1.64028 -1.22127 0
M  V30 19942 H 1834.51 -1.23625 -3.67145 0
M  V30 19943 H 1834.93 -3.42997 -3.96804 0
M  V30 19944 H 1836.4 -2.13837 -5.08898 0
M  V30 19945 H 1836.88 -0.61198 -4.34915 0
M  V30 19946 H 1837.49 -2.14194 -3.67425 0
M  V30 19947 N 1835.8 1.17245 -1.05316 0
M  V30 19948 C 1837.22 1.39535 -0.774741 0
M  V30 19949 C 1837.42 1.91388 0.63031 0
M  V30 19950 O 1836.47 2.10631 1.39251 0
M  V30 19951 C 1837.79 2.38497 -1.83139 0
M  V30 19952 C 1839.33 2.52201 -1.85375 0
M  V30 19953 C 1839.81 3.54437 -2.90066 0
M  V30 19954 N 1841.3 3.61956 -2.89037 0
M  V30 19955 C 1842.03 4.40824 -3.66691 0
M  V30 19956 N 1841.53 5.23196 -4.54134 0
M  V30 19957 N 1843.32 4.35709 -3.55125 0
M  V30 19958 H 1835.47 0.819186 -1.95967 0
M  V30 19959 H 1837.74 0.422515 -0.848637 0
M  V30 19960 H 1837.44 2.07471 -2.83987 0
M  V30 19961 H 1837.32 3.38016 -1.67407 0
M  V30 19962 H 1839.7 2.82536 -0.851904 0
M  V30 19963 H 1839.79 1.52751 -2.05184 0
M  V30 19964 H 1839.43 3.2484 -3.90437 0
M  V30 19965 H 1839.36 4.53593 -2.67508 0
M  V30 19966 H 1841.85 3.03146 -2.25635 0
M  V30 19967 H 1842.16 5.80562 -5.10067 0
M  V30 19968 H 1840.51 5.22573 -4.58194 0
M  V30 19969 H 1843.7 3.70411 -2.86205 0
M  V30 19970 H 1843.87 4.9693 -4.1589 0
M  V30 19971 N 1837.28 0.834353 1.33702 0
M  V30 19972 C 1838.21 0.279313 2.31823 0
M  V30 19973 C 1839.19 -0.610495 1.58767 0
M  V30 19974 O 1840.37 -0.534989 1.86686 0
M  V30 19975 C 1837.5 -0.550201 3.42914 0
M  V30 19976 C 1836.46 0.243432 4.27307 0
M  V30 19977 C 1835.78 -0.709548 5.29971 0
M  V30 19978 C 1837.08 1.45799 5.01537 0
M  V30 19979 H 1838.78 1.09915 2.78494 0
M  V30 19980 H 1836.32 0.529987 1.33892 0
M  V30 19981 H 1838.28 -0.948764 4.10581 0
M  V30 19982 H 1837 -1.4032 2.9492 0
M  V30 19983 H 1835.66 0.6235 3.61259 0
M  V30 19984 H 1835.31 -1.55882 4.78236 0
M  V30 19985 H 1835.01 -0.182671 5.87316 0
M  V30 19986 H 1836.53 -1.10572 6.00505 0
M  V30 19987 H 1837.95 1.13283 5.61996 0
M  V30 19988 H 1836.34 1.92133 5.68511 0
M  V30 19989 H 1837.41 2.23016 4.30571 0
M  V30 19990 N 1838.76 -1.46125 0.590367 0
M  V30 19991 C 1839.72 -2.2884 -0.128368 0
M  V30 19992 C 1840.72 -1.38818 -0.81156 0
M  V30 19993 O 1841.91 -1.61117 -0.662347 0
M  V30 19994 C 1839.04 -3.19402 -1.19144 0
M  V30 19995 H 1840.23 -2.93864 0.598641 0
M  V30 19996 H 1837.79 -1.52362 0.34866 0
M  V30 19997 H 1838.52 -2.59141 -1.94978 0
M  V30 19998 H 1838.31 -3.85692 -0.705973 0
M  V30 19999 H 1839.8 -3.8164 -1.69532 0
M  V30 20000 N 1840.23 -0.328564 -1.54137 0
M  V30 20001 C 1841.16 0.527734 -2.27458 0
M  V30 20002 C 1842.15 1.11518 -1.28444 0
M  V30 20003 O 1843.33 1.13938 -1.57264 0
M  V30 20004 C 1840.46 1.68628 -3.03615 0
M  V30 20005 C 1839.41 1.22789 -4.10008 0
M  V30 20006 C 1838.74 2.47378 -4.74034 0
M  V30 20007 C 1840.04 0.339152 -5.21198 0
M  V30 20008 H 1841.73 -0.0838808 -2.99282 0
M  V30 20009 H 1839.28 -0.0417829 -1.43939 0
M  V30 20010 H 1841.23 2.29165 -3.5364 0
M  V30 20011 H 1839.96 2.32456 -2.29416 0
M  V30 20012 H 1838.62 0.645427 -3.60874 0
M  V30 20013 H 1838.26 3.09581 -3.96445 0
M  V30 20014 H 1837.96 2.17396 -5.45905 0
M  V30 20015 H 1839.49 3.08668 -5.26836 0
M  V30 20016 H 1840.9 0.850947 -5.6695 0
M  V30 20017 H 1839.3 0.131892 -5.99955 0
M  V30 20018 H 1840.37 -0.628692 -4.80807 0
M  V30 20019 N 1841.71 1.57497 -0.0568439 0
M  V30 20020 C 1842.62 2.1535 0.930668 0
M  V30 20021 C 1843.64 1.11276 1.33767 0
M  V30 20022 O 1844.81 1.43472 1.41343 0
M  V30 20023 C 1841.88 2.69165 2.18521 0
M  V30 20024 C 1840.94 3.88057 1.83603 0
M  V30 20025 C 1840.17 4.39296 3.03076 0
M  V30 20026 O 1840.4 3.89588 4.16627 0
M  V30 20027 O 1839.33 5.30814 2.8376 0
M  V30 20028 H 1843.16 3.00063 0.468623 0
M  V30 20029 H 1840.74 1.48482 0.16538 0
M  V30 20030 H 1842.62 3.03721 2.92116 0
M  V30 20031 H 1841.3 1.8752 2.63852 0
M  V30 20032 H 1840.21 3.5838 1.07306 0
M  V30 20033 H 1841.54 4.70949 1.43066 0
M  V30 20034 N 1843.19 -0.216591 1.56105 0
M  V30 20035 C 1844.15 -1.25198 1.91985 0
M  V30 20036 C 1845.15 -1.39551 0.798884 0
M  V30 20037 O 1846.34 -1.37731 1.06657 0
M  V30 20038 C 1843.48 -2.62499 2.17502 0
M  V30 20039 H 1844.67 -0.945854 2.84594 0
M  V30 20040 H 1842.22 -0.457218 1.49463 0
M  V30 20041 H 1842.96 -2.98202 1.27461 0
M  V30 20042 H 1842.74 -2.53457 2.99169 0
M  V30 20043 H 1844.23 -3.37204 2.4634 0
M  V30 20044 N 1844.67 -1.5 -0.48349 0
M  V30 20045 C 1845.58 -1.70722 -1.60907 0
M  V30 20046 C 1846.59 -0.590075 -1.63689 0
M  V30 20047 O 1847.77 -0.866915 -1.81787 0
M  V30 20048 C 1844.84 -1.78544 -2.97192 0
M  V30 20049 C 1843.9 -3.02218 -3.04898 0
M  V30 20050 C 1843.13 -3.09658 -4.34681 0
M  V30 20051 O 1843.35 -2.24216 -5.24484 0
M  V30 20052 O 1842.29 -4.02278 -4.47723 0
M  V30 20053 H 1846.11 -2.66111 -1.4635 0
M  V30 20054 H 1843.7 -1.33949 -0.661666 0
M  V30 20055 H 1845.58 -1.85941 -3.78159 0
M  V30 20056 H 1844.25 -0.863364 -3.11974 0
M  V30 20057 H 1843.16 -3.00329 -2.23054 0
M  V30 20058 H 1844.49 -3.93964 -2.95048 0
M  V30 20059 N 1846.15 0.735796 -1.39369 0
M  V30 20060 C 1847.39 1.49756 -1.36752 0
M  V30 20061 C 1847.73 1.94165 0.036815 0
M  V30 20062 O 1847 1.66728 1.00159 0
M  V30 20063 C 1847.28 2.73779 -2.33916 0
M  V30 20064 C 1847.14 2.35394 -3.83288 0
M  V30 20065 C 1848.46 3.75875 -2.28924 0
M  V30 20066 H 1845.57 0.543236 -0.49806 0
M  V30 20067 H 1848.22 0.841381 -1.70355 0
M  V30 20068 H 1846.37 3.29768 -2.05391 0
M  V30 20069 H 1848.04 1.85043 -4.2256 0
M  V30 20070 H 1846.28 1.67632 -4.00102 0
M  V30 20071 H 1846.95 3.24206 -4.4676 0
M  V30 20072 H 1849.43 3.29469 -2.54144 0
M  V30 20073 H 1848.3 4.60321 -2.98991 0
M  V30 20074 H 1848.57 4.22739 -1.29399 0
M  V30 20075 N 1847.63 1.24532 0.965897 0
M  V30 20076 C 1848.85 1.11412 1.74934 0
M  V30 20077 C 1849.28 -0.329168 1.85197 0
M  V30 20078 O 1848.63 -1.23833 1.3242 0
M  V30 20079 C 1848.68 1.76068 3.14694 0
M  V30 20080 O 1847.79 1.03267 3.99261 0
M  V30 20081 H 1847.13 0.389633 0.537663 0
M  V30 20082 H 1849.66 1.64875 1.2115 0
M  V30 20083 H 1849.67 1.81897 3.65209 0
M  V30 20084 H 1848.34 2.8108 3.0654 0
M  V30 20085 H 1846.92 1.05236 3.57743 0
M  V30 20086 N 1849.1 -1.16685 1.05936 0
M  V30 20087 C 1850.01 -2.24591 0.677931 0
M  V30 20088 C 1851.03 -1.71317 -0.304397 0
M  V30 20089 O 1852.21 -2.00806 -0.154615 0
M  V30 20090 C 1849.27 -3.46636 0.0664037 0
M  V30 20091 C 1848.33 -4.14964 1.10014 0
M  V30 20092 C 1847.56 -5.31183 0.517697 0
M  V30 20093 O 1847.79 -5.66444 -0.670637 0
M  V30 20094 O 1846.72 -5.88657 1.25563 0
M  V30 20095 H 1850.55 -2.5952 1.57743 0
M  V30 20096 H 1848.13 -1.2413 0.831395 0
M  V30 20097 H 1850.01 -4.20514 -0.273069 0
M  V30 20098 H 1848.69 -3.13489 -0.806634 0
M  V30 20099 H 1847.6 -3.43072 1.49173 0
M  V30 20100 H 1848.93 -4.52158 1.94458 0
M  V30 20101 N 1850.58 -0.841432 -1.33258 0
M  V30 20102 C 1851.51 -0.291603 -2.31672 0
M  V30 20103 C 1852.49 0.602066 -1.59089 0
M  V30 20104 O 1853.68 0.525081 -1.86967 0
M  V30 20105 C 1850.81 0.532008 -3.43201 0
M  V30 20106 C 1849.76 -0.26609 -4.27172 0
M  V30 20107 C 1849.09 0.681432 -5.3034 0
M  V30 20108 C 1850.39 -1.48457 -5.00757 0
M  V30 20109 H 1852.08 -1.1139 -2.77908 0
M  V30 20110 H 1849.63 -0.53708 -1.33609 0
M  V30 20111 H 1851.58 0.926977 -4.11078 0
M  V30 20112 H 1850.3 1.38754 -2.9566 0
M  V30 20113 H 1848.96 -0.64265 -3.60923 0
M  V30 20114 H 1848.61 1.53344 -4.79056 0
M  V30 20115 H 1848.31 0.151522 -5.87405 0
M  V30 20116 H 1849.84 1.07386 -6.01083 0
M  V30 20117 H 1851.25 -1.16262 -5.61388 0
M  V30 20118 H 1849.65 -1.95145 -5.67484 0
M  V30 20119 H 1850.72 -2.25296 -4.29383 0
M  V30 20120 N 1852.06 1.4581 -0.598108 0
M  V30 20121 C 1853.48 1.57452 -0.260993 0
M  V30 20122 C 1853.68 1.59093 1.2366 0
M  V30 20123 O 1852.73 1.51614 2.01915 0
M  V30 20124 C 1854.04 2.86158 -0.923801 0
M  V30 20125 C 1855.59 2.99817 -0.89883 0
M  V30 20126 C 1856.07 4.3128 -1.54147 0
M  V30 20127 N 1857.56 4.38016 -1.50652 0
M  V30 20128 C 1858.29 5.38387 -1.973 0
M  V30 20129 N 1857.79 6.45347 -2.51991 0
M  V30 20130 N 1859.58 5.29684 -1.88124 0
M  V30 20131 H 1851.73 1.42988 -1.57061 0
M  V30 20132 H 1854 0.683038 -0.657391 0
M  V30 20133 H 1853.7 2.90812 -1.97791 0
M  V30 20134 H 1853.58 3.74609 -0.441318 0
M  V30 20135 H 1855.96 2.94735 0.146702 0
M  V30 20136 H 1856.04 2.12801 -1.41949 0
M  V30 20137 H 1855.69 4.3712 -2.58628 0
M  V30 20138 H 1855.62 5.17097 -0.995911 0
M  V30 20139 H 1858.11 3.61326 -1.1069 0
M  V30 20140 H 1858.42 7.18168 -2.85403 0
M  V30 20141 H 1856.77 6.46124 -2.56025 0
M  V30 20142 H 1859.96 4.45029 -1.45144 0
M  V30 20143 H 1860.13 6.0776 -2.24793 0
M  V30 20144 N 1853.54 0.336733 1.53961 0
M  V30 20145 C 1854.5 -0.510638 2.23439 0
M  V30 20146 C 1855.5 -1.03304 1.23227 0
M  V30 20147 O 1856.69 -0.923373 1.47714 0
M  V30 20148 C 1853.82 -1.71063 2.94873 0
M  V30 20149 H 1855.02 0.0969205 2.99743 0
M  V30 20150 H 1852.57 0.0879867 1.56052 0
M  V30 20151 H 1853.3 -2.35707 2.22739 0
M  V30 20152 H 1853.09 -1.34331 3.68371 0
M  V30 20153 H 1854.58 -2.31182 3.47771 0
M  V30 20154 N 1855.02 -1.57465 0.0651956 0
M  V30 20155 C 1855.93 -2.15841 -0.919235 0
M  V30 20156 C 1856.94 -1.11984 -1.33175 0
M  V30 20157 O 1858.12 -1.44219 -1.4058 0
M  V30 20158 C 1855.18 -2.7032 -2.1709 0
M  V30 20159 C 1854.24 -3.89026 -1.81542 0
M  V30 20160 C 1853.48 -4.40897 -3.00742 0
M  V30 20161 O 1853.7 -3.91792 -4.14555 0
M  V30 20162 O 1852.63 -5.32312 -2.80941 0
M  V30 20163 H 1856.46 -3.00307 -0.452704 0
M  V30 20164 H 1854.04 -1.48567 -0.157504 0
M  V30 20165 H 1855.93 -3.05266 -2.90501 0
M  V30 20166 H 1854.6 -1.88917 -2.62854 0
M  V30 20167 H 1853.51 -3.58944 -1.05404 0
M  V30 20168 H 1854.84 -4.71701 -1.40567 0
M  V30 20169 N 1856.49 0.20831 -1.56217 0
M  V30 20170 C 1857.42 1.26115 -1.96513 0
M  V30 20171 C 1858.4 1.48185 -0.835183 0
M  V30 20172 O 1859.59 1.60145 -1.09851 0
M  V30 20173 C 1856.72 2.6082 -2.29326 0
M  V30 20174 C 1855.67 2.53385 -3.44935 0
M  V30 20175 C 1855 3.92241 -3.63388 0
M  V30 20176 C 1856.3 2.07026 -4.79518 0
M  V30 20177 H 1857.99 0.92635 -2.84709 0
M  V30 20178 H 1855.54 0.444169 -1.36979 0
M  V30 20179 H 1857.49 3.34644 -2.56109 0
M  V30 20180 H 1856.22 2.96014 -1.37997 0
M  V30 20181 H 1854.88 1.82018 -3.18222 0
M  V30 20182 H 1854.52 4.24766 -2.69413 0
M  V30 20183 H 1854.22 3.88145 -4.41154 0
M  V30 20184 H 1855.75 4.67707 -3.92533 0
M  V30 20185 H 1857.16 2.70601 -5.05419 0
M  V30 20186 H 1855.56 2.13961 -5.60661 0
M  V30 20187 H 1856.63 1.02298 -4.73986 0
M  V30 20188 N 1857.97 1.50255 0.475528 0
M  V30 20189 C 1859.2 1.65044 1.25599 0
M  V30 20190 C 1859.62 0.331736 1.85152 0
M  V30 20191 O 1858.98 -0.703863 1.67079 0
M  V30 20192 C 1859.03 2.7405 2.34369 0
M  V30 20193 O 1858.13 2.34994 3.38897 0
M  V30 20194 H 1857.47 0.551557 0.369704 0
M  V30 20195 H 1860 1.96603 0.566422 0
M  V30 20196 H 1860.01 2.96993 2.79749 0
M  V30 20197 H 1858.69 3.6976 1.90395 0
M  V30 20198 H 1857.26 2.22481 2.9926 0
M  V30 20199 N 1859.45 -0.728395 1.39758 0
M  V30 20200 C 1860.67 -1.52268 1.40816 0
M  V30 20201 C 1861.1 -1.88099 0.00629167 0
M  V30 20202 O 1860.46 -1.52376 -0.982402 0
M  V30 20203 C 1860.51 -2.78262 2.29353 0
M  V30 20204 O 1859.61 -3.74453 1.72796 0
M  V30 20205 H 1858.95 -0.459582 0.47925 0
M  V30 20206 H 1861.48 -0.898132 1.83833 0
M  V30 20207 H 1861.49 -3.26927 2.44096 0
M  V30 20208 H 1860.17 -2.51515 3.31229 0
M  V30 20209 H 1858.74 -3.33248 1.67332 0
M  V30 20210 N 1860.93 -1.25042 -0.959279 0
M  V30 20211 C 1861.86 -1.07494 -2.07285 0
M  V30 20212 C 1862.84 0.0146264 -1.70094 0
M  V30 20213 O 1864.02 -0.154035 -1.93588 0
M  V30 20214 C 1861.15 -0.68794 -3.40418 0
M  V30 20215 C 1860.11 -1.72722 -3.91601 0
M  V30 20216 C 1859.43 -1.19504 -5.21175 0
M  V30 20217 C 1860.73 -3.12502 -4.18497 0
M  V30 20218 H 1862.43 -2.00641 -2.22224 0
M  V30 20219 H 1859.97 -0.966074 -1.06785 0
M  V30 20220 H 1861.93 -0.552133 -4.17767 0
M  V30 20221 H 1860.65 0.279224 -3.25404 0
M  V30 20222 H 1859.31 -1.85139 -3.16416 0
M  V30 20223 H 1858.96 -0.218239 -5.02526 0
M  V30 20224 H 1858.66 -1.88962 -5.56387 0
M  V30 20225 H 1860.18 -1.07153 -6.01124 0
M  V30 20226 H 1861.6 -3.03266 -4.86521 0
M  V30 20227 H 1859.99 -3.79389 -4.64956 0
M  V30 20228 H 1861.06 -3.5991 -3.2495 0
M  V30 20229 N 1862.41 1.16121 -1.06553 0
M  V30 20230 C 1863.34 2.20181 -0.636617 0
M  V30 20231 C 1864.35 1.59884 0.306731 0
M  V30 20232 O 1865.54 1.78235 0.0973101 0
M  V30 20233 C 1862.64 3.38789 0.0865541 0
M  V30 20234 C 1861.81 4.28641 -0.870941 0
M  V30 20235 C 1860.87 5.25869 -0.186538 0
M  V30 20236 O 1859.9 5.63189 -0.825028 0
M  V30 20237 N 1861.1 5.70536 1.0709 0
M  V30 20238 H 1863.87 2.576 -1.53175 0
M  V30 20239 H 1861.43 1.31157 -0.949185 0
M  V30 20240 H 1863.42 4.00878 0.554881 0
M  V30 20241 H 1861.99 2.99854 0.883524 0
M  V30 20242 H 1861.21 3.63776 -1.51858 0
M  V30 20243 H 1862.5 4.85552 -1.5204 0
M  V30 20244 H 1861.89 5.42314 1.60973 0
M  V30 20245 H 1860.45 6.34704 1.48305 0
M  V30 20246 N 1863.88 0.848487 1.3281 0
M  V30 20247 C 1865.11 0.462643 2.01661 0
M  V30 20248 C 1865.53 -0.938906 1.63799 0
M  V30 20249 O 1864.88 -1.61171 0.85617 0
M  V30 20250 C 1864.94 0.584905 3.56737 0
M  V30 20251 O 1864.66 1.93124 3.93236 0
M  V30 20252 C 1866.16 0.197265 4.42861 0
M  V30 20253 H 1863.38 0.18254 0.645694 0
M  V30 20254 H 1865.92 1.14372 1.69527 0
M  V30 20255 H 1864.08 -0.0483701 3.8737 0
M  V30 20256 H 1864.49 1.92361 4.87952 0
M  V30 20257 H 1865.96 0.333833 5.5099 0
M  V30 20258 H 1866.44 -0.861732 4.30663 0
M  V30 20259 H 1867.05 0.805363 4.17605 0
M  V30 20260 N 1865.36 -1.4549 0.605832 0
M  V30 20261 C 1866.33 -2.28964 -0.104089 0
M  V30 20262 C 1867.33 -1.39671 -0.796791 0
M  V30 20263 O 1868.52 -1.6181 -0.645221 0
M  V30 20264 C 1865.65 -3.20647 -1.1575 0
M  V30 20265 H 1866.84 -2.93213 0.629776 0
M  V30 20266 H 1864.39 -1.51983 0.3648 0
M  V30 20267 H 1865.13 -2.61194 -1.92219 0
M  V30 20268 H 1864.91 -3.86419 -0.665025 0
M  V30 20269 H 1866.4 -3.83416 -1.65474 0
M  V30 20270 N 1866.84 -0.344893 -1.5378 0
M  V30 20271 C 1868.26 0.00698009 -1.59598 0
M  V30 20272 C 1868.46 1.48608 -1.36081 0
M  V30 20273 O 1867.51 2.24498 -1.15573 0
M  V30 20274 C 1868.83 -0.430402 -2.97604 0
M  V30 20275 C 1870.37 -0.38286 -3.1065 0
M  V30 20276 C 1870.85 -0.795731 -4.51035 0
M  V30 20277 N 1872.34 -0.74997 -4.57088 0
M  V30 20278 C 1873.07 -1.04137 -5.63864 0
M  V30 20279 N 1872.57 -1.401 -6.78487 0
M  V30 20280 N 1874.36 -0.965521 -5.53746 0
M  V30 20281 H 1866.51 -1.30834 -1.67321 0
M  V30 20282 H 1868.78 -0.533422 -0.783686 0
M  V30 20283 H 1868.48 -1.46174 -3.19884 0
M  V30 20284 H 1868.36 0.193696 -3.76702 0
M  V30 20285 H 1870.74 0.639311 -2.88092 0
M  V30 20286 H 1870.83 -1.04218 -2.33607 0
M  V30 20287 H 1870.47 -1.81592 -4.74328 0
M  V30 20288 H 1870.4 -0.113876 -5.26477 0
M  V30 20289 H 1872.89 -0.48474 -3.74778 0
M  V30 20290 H 1873.2 -1.60815 -7.55882 0
M  V30 20291 H 1871.55 -1.43946 -6.7993 0
M  V30 20292 H 1874.74 -0.683902 -4.63077 0
M  V30 20293 H 1874.91 -1.19596 -6.36868 0
M  V30 20294 N 1868.32 1.57428 -0.0735454 0
M  V30 20295 C 1869.25 2.09808 0.922679 0
M  V30 20296 C 1870.26 1.0306 1.26026 0
M  V30 20297 O 1871.45 1.30568 1.21714 0
M  V30 20298 C 1868.55 2.54492 2.23801 0
M  V30 20299 C 1867.73 3.84832 2.07901 0
M  V30 20300 C 1866.78 4.15592 3.22754 0
M  V30 20301 O 1865.81 4.85163 2.97667 0
M  V30 20302 N 1867.01 3.69277 4.47901 0
M  V30 20303 H 1869.78 2.95905 0.475456 0
M  V30 20304 H 1867.34 1.61511 0.112135 0
M  V30 20305 H 1869.33 2.7213 2.99545 0
M  V30 20306 H 1867.9 1.73523 2.60016 0
M  V30 20307 H 1867.12 3.76557 1.16614 0
M  V30 20308 H 1868.41 4.70144 1.9453 0
M  V30 20309 H 1867.81 3.13076 4.71168 0
M  V30 20310 H 1866.36 3.92111 5.20665 0
M  V30 20311 N 1869.8 -0.200022 1.56326 0
M  V30 20312 C 1870.71 -1.26847 1.9735 0
M  V30 20313 C 1871.72 -1.50081 0.880432 0
M  V30 20314 O 1872.9 -1.62792 1.18578 0
M  V30 20315 C 1869.96 -2.59382 2.30048 0
M  V30 20316 C 1869.02 -2.44262 3.53036 0
M  V30 20317 C 1868.26 -3.70476 3.84165 0
M  V30 20318 O 1868.48 -4.74433 3.16654 0
M  V30 20319 O 1867.41 -3.663 4.77606 0
M  V30 20320 H 1871.24 -0.950324 2.88449 0
M  V30 20321 H 1868.83 -0.404628 1.43816 0
M  V30 20322 H 1870.71 -3.37616 2.52177 0
M  V30 20323 H 1869.38 -2.90833 1.42119 0
M  V30 20324 H 1868.29 -1.64154 3.36161 0
M  V30 20325 H 1869.62 -2.17744 4.41416 0
M  V30 20326 N 1871.27 -1.50505 -0.467553 0
M  V30 20327 C 1872.52 -1.61352 -1.21697 0
M  V30 20328 C 1872.84 -0.317583 -1.92396 0
M  V30 20329 O 1872.11 0.665123 -1.84263 0
M  V30 20330 H 1870.69 -0.594582 -0.452196 0
M  V30 20331 H 1873.36 -1.87299 -0.539 0
M  V30 20332 H 1872.45 -2.4264 -1.96296 0
M  V30 20333 N 1872.75 0.720973 -1.40142 0
M  V30 20334 C 1873.66 1.86527 -1.42284 0
M  V30 20335 C 1874.68 1.71106 -0.316044 0
M  V30 20336 O 1875.85 1.93465 -0.55977 0
M  V30 20337 C 1872.92 3.2227 -1.27841 0
M  V30 20338 C 1871.98 3.49984 -2.48616 0
M  V30 20339 C 1871.21 4.7925 -2.34852 0
M  V30 20340 O 1871.44 5.53963 -1.35945 0
M  V30 20341 O 1870.37 5.07179 -3.24119 0
M  V30 20342 H 1874.2 1.87675 -2.38771 0
M  V30 20343 H 1871.78 0.870677 -1.21407 0
M  V30 20344 H 1873.66 4.03362 -1.21973 0
M  V30 20345 H 1872.34 3.21861 -0.344566 0
M  V30 20346 H 1871.25 2.68922 -2.60061 0
M  V30 20347 H 1872.58 3.55184 -3.40742 0
M  V30 20348 N 1874.23 1.25549 0.952634 0
M  V30 20349 C 1875.16 1.01898 2.05304 0
M  V30 20350 C 1876.18 -0.0167609 1.62791 0
M  V30 20351 O 1877.36 0.222021 1.77114 0
M  V30 20352 C 1874.46 0.518856 3.34905 0
M  V30 20353 C 1873.64 1.62121 4.06246 0
M  V30 20354 C 1872.7 1.12111 5.14118 0
M  V30 20355 O 1871.72 1.81591 5.39456 0
M  V30 20356 N 1872.92 -0.0365454 5.80488 0
M  V30 20357 H 1875.69 1.96648 2.26163 0
M  V30 20358 H 1873.25 1.16782 1.12132 0
M  V30 20359 H 1875.24 0.168729 4.04348 0
M  V30 20360 H 1873.81 -0.334763 3.10802 0
M  V30 20361 H 1873.03 2.14282 3.30873 0
M  V30 20362 H 1874.32 2.36173 4.50666 0
M  V30 20363 H 1873.72 -0.617055 5.62325 0
M  V30 20364 H 1872.28 -0.327688 6.50976 0
M  V30 20365 N 1875.71 -1.15554 1.07168 0
M  V30 20366 C 1877.12 -1.38284 0.796841 0
M  V30 20367 C 1877.32 -1.92366 -0.599782 0
M  V30 20368 O 1876.38 -2.1282 -1.35883 0
M  V30 20369 C 1877.69 -2.35553 1.8691 0
M  V30 20370 C 1879.24 -2.4922 1.89364 0
M  V30 20371 C 1879.72 -3.49778 2.95668 0
M  V30 20372 N 1881.21 -3.57312 2.94759 0
M  V30 20373 C 1881.94 -4.34934 3.73657 0
M  V30 20374 N 1881.44 -5.15905 4.624 0
M  V30 20375 N 1883.23 -4.30004 3.62012 0
M  V30 20376 H 1875.38 -0.787905 1.97246 0
M  V30 20377 H 1877.65 -0.40896 0.855252 0
M  V30 20378 H 1877.35 -2.02927 2.87252 0
M  V30 20379 H 1877.23 -3.3531 1.72763 0
M  V30 20380 H 1879.61 -2.81145 0.896745 0
M  V30 20381 H 1879.69 -1.49468 2.07589 0
M  V30 20382 H 1879.34 -3.18588 3.95556 0
M  V30 20383 H 1879.27 -4.4928 2.74691 0
M  V30 20384 H 1881.76 -2.99518 2.30429 0
M  V30 20385 H 1882.07 -5.72373 5.19238 0
M  V30 20386 H 1880.42 -5.15218 4.6645 0
M  V30 20387 H 1883.61 -3.65811 2.92061 0
M  V30 20388 H 1883.78 -4.90251 4.23743 0
M  V30 20389 N 1877.19 -0.855519 -1.32358 0
M  V30 20390 C 1878.6 -0.545491 -1.49989 0
M  V30 20391 C 1878.8 0.923656 -1.79083 0
M  V30 20392 O 1877.86 1.70664 -1.86091 0
M  V30 20393 C 1879.17 -1.43323 -2.64347 0
M  V30 20394 C 1880.72 -1.43374 -2.78232 0
M  V30 20395 C 1881.2 -2.30671 -3.9567 0
M  V30 20396 N 1882.69 -2.28471 -4.02933 0
M  V30 20397 C 1883.42 -2.92746 -4.93039 0
M  V30 20398 N 1882.92 -3.66136 -5.88147 0
M  V30 20399 N 1884.71 -2.82129 -4.86168 0
M  V30 20400 H 1876.86 -1.80633 -1.11738 0
M  V30 20401 H 1879.12 -0.771568 -0.550805 0
M  V30 20402 H 1878.83 -2.47797 -2.49578 0
M  V30 20403 H 1878.7 -1.12125 -3.6015 0
M  V30 20404 H 1881.09 -0.396641 -2.92422 0
M  V30 20405 H 1881.17 -1.78588 -1.83139 0
M  V30 20406 H 1880.82 -3.3445 -3.82238 0
M  V30 20407 H 1880.75 -1.92789 -4.90041 0
M  V30 20408 H 1883.24 -1.75115 -3.34878 0
M  V30 20409 H 1883.55 -4.12344 -6.536 0
M  V30 20410 H 1881.9 -3.70244 -5.88171 0
M  V30 20411 H 1885.09 -2.24344 -4.10837 0
M  V30 20412 H 1885.26 -3.32502 -5.56189 0
M  V30 20413 N 1878.67 1.45167 -0.61354 0
M  V30 20414 C 1880.08 1.57166 -0.277678 0
M  V30 20415 C 1880.28 1.60395 1.21965 0
M  V30 20416 O 1879.34 1.53747 2.00295 0
M  V30 20417 C 1880.65 2.85162 -0.9541 0
M  V30 20418 C 1882.2 2.98847 -0.930579 0
M  V30 20419 C 1882.67 4.29621 -1.58712 0
M  V30 20420 N 1884.16 4.36394 -1.55289 0
M  V30 20421 C 1884.9 5.36264 -2.02999 0
M  V30 20422 N 1884.4 6.42638 -2.58821 0
M  V30 20423 N 1886.19 5.27659 -1.93732 0
M  V30 20424 H 1878.34 1.41314 -1.58569 0
M  V30 20425 H 1880.6 0.676027 -0.664598 0
M  V30 20426 H 1880.31 2.88698 -2.00864 0
M  V30 20427 H 1880.18 3.7412 -0.481025 0
M  V30 20428 H 1882.57 2.94874 0.115433 0
M  V30 20429 H 1882.65 2.11283 -1.44198 0
M  V30 20430 H 1882.29 4.34352 -2.6325 0
M  V30 20431 H 1882.22 5.16011 -1.0507 0
M  V30 20432 H 1884.72 3.60131 -1.14516 0
M  V30 20433 H 1885.03 7.151 -2.93004 0
M  V30 20434 H 1883.37 6.43372 -2.62863 0
M  V30 20435 H 1886.56 4.43465 -1.49856 0
M  V30 20436 H 1886.74 6.05341 -2.31227 0
M  V30 20437 N 1880.14 0.353044 1.53595 0
M  V30 20438 C 1881.56 0.0014839 1.596 0
M  V30 20439 C 1881.76 -1.47884 1.36867 0
M  V30 20440 O 1880.82 -2.23881 1.16762 0
M  V30 20441 C 1882.13 0.446178 2.97371 0
M  V30 20442 C 1883.68 0.399329 3.10442 0
M  V30 20443 C 1884.15 0.819639 4.50606 0
M  V30 20444 N 1885.64 0.7742 4.56684 0
M  V30 20445 C 1886.38 1.07126 5.63304 0
M  V30 20446 N 1885.87 1.43696 6.77734 0
M  V30 20447 N 1887.67 0.994874 5.53226 0
M  V30 20448 H 1879.82 1.31719 1.66625 0
M  V30 20449 H 1882.08 0.537571 0.780847 0
M  V30 20450 H 1881.79 1.47869 3.19105 0
M  V30 20451 H 1881.66 -0.173715 3.768 0
M  V30 20452 H 1884.05 -0.624023 2.88427 0
M  V30 20453 H 1884.13 1.05455 2.33051 0
M  V30 20454 H 1883.77 1.84105 4.73358 0
M  V30 20455 H 1883.7 0.141795 5.26409 0
M  V30 20456 H 1886.19 0.504609 3.74516 0
M  V30 20457 H 1886.51 1.64822 7.55019 0
M  V30 20458 H 1884.85 1.4755 6.79157 0
M  V30 20459 H 1888.04 0.70845 4.62708 0
M  V30 20460 H 1888.22 1.22972 6.36225 0
M  V30 20461 N 1881.62 -1.57387 0.0818932 0
M  V30 20462 C 1882.55 -2.16318 -0.879124 0
M  V30 20463 C 1883.53 -1.09293 -1.30342 0
M  V30 20464 O 1884.72 -1.37373 -1.37267 0
M  V30 20465 C 1881.85 -2.73293 -2.14308 0
M  V30 20466 C 1880.8 -3.85575 -1.85785 0
M  V30 20467 C 1880.13 -4.29195 -3.18897 0
M  V30 20468 C 1881.43 -5.09365 -1.15517 0
M  V30 20469 H 1883.12 -2.96873 -0.388166 0
M  V30 20470 H 1880.67 -1.42803 -0.185265 0
M  V30 20471 H 1882.62 -3.13168 -2.81964 0
M  V30 20472 H 1881.34 -1.89974 -2.65664 0
M  V30 20473 H 1880 -3.46219 -1.20532 0
M  V30 20474 H 1879.65 -3.42784 -3.68114 0
M  V30 20475 H 1879.35 -5.04889 -3.006 0
M  V30 20476 H 1880.88 -4.71694 -3.87734 0
M  V30 20477 H 1882.29 -5.46493 -1.73259 0
M  V30 20478 H 1880.69 -5.90403 -1.07444 0
M  V30 20479 H 1881.76 -4.8471 -0.135822 0
M  V30 20480 N 1883.1 0.191729 -1.56429 0
M  V30 20481 C 1884.01 1.25798 -1.9802 0
M  V30 20482 C 1885.03 1.49612 -0.888379 0
M  V30 20483 O 1886.2 1.62161 -1.1944 0
M  V30 20484 C 1883.27 2.58158 -2.3142 0
M  V30 20485 C 1882.33 2.42386 -3.54327 0
M  V30 20486 C 1881.56 3.68434 -3.86124 0
M  V30 20487 O 1881.78 4.72747 -3.19165 0
M  V30 20488 O 1880.72 3.63762 -4.79542 0
M  V30 20489 H 1884.54 0.935013 -2.88948 0
M  V30 20490 H 1882.13 0.396996 -1.44029 0
M  V30 20491 H 1884.01 3.36274 -2.53964 0
M  V30 20492 H 1882.69 2.90075 -1.43659 0
M  V30 20493 H 1881.59 1.62369 -3.37027 0
M  V30 20494 H 1882.93 2.154 -4.42565 0
M  V30 20495 N 1884.58 1.50751 0.459565 0
M  V30 20496 C 1885.51 1.73389 1.56392 0
M  V30 20497 C 1886.49 0.583101 1.59793 0
M  V30 20498 O 1887.67 0.823474 1.75876 0
M  V30 20499 C 1884.8 1.83861 2.94639 0
M  V30 20500 C 1883.76 2.9914 3.06103 0
M  V30 20501 C 1883.08 2.94768 4.46112 0
M  V30 20502 C 1884.38 4.39471 2.82246 0
M  V30 20503 H 1886.08 2.65856 1.37699 0
M  V30 20504 H 1883.62 1.27933 0.661001 0
M  V30 20505 H 1885.58 1.98283 3.71836 0
M  V30 20506 H 1884.3 0.880254 3.14514 0
M  V30 20507 H 1882.96 2.84388 2.31342 0
M  V30 20508 H 1882.61 1.96755 4.62922 0
M  V30 20509 H 1882.31 3.72166 4.54716 0
M  V30 20510 H 1883.83 3.11254 5.25313 0
M  V30 20511 H 1885.25 4.54689 3.49186 0
M  V30 20512 H 1883.64 5.18406 3.02283 0
M  V30 20513 H 1884.71 4.51043 1.78012 0
M  V30 20514 N 1886.06 -0.713531 1.40522 0
M  V30 20515 C 1886.99 -1.83847 1.36868 0
M  V30 20516 C 1888 -1.60482 0.273746 0
M  V30 20517 O 1889.19 -1.70318 0.534238 0
M  V30 20518 C 1886.29 -3.20288 1.10764 0
M  V30 20519 C 1885.46 -3.70833 2.31952 0
M  V30 20520 C 1884.52 -4.85893 2.01977 0
M  V30 20521 O 1883.55 -4.98438 2.74861 0
M  V30 20522 N 1884.75 -5.7184 0.998985 0
M  V30 20523 H 1887.51 -1.87479 2.3382 0
M  V30 20524 H 1885.08 -0.895151 1.34902 0
M  V30 20525 H 1887.07 -3.94861 0.886932 0
M  V30 20526 H 1885.64 -3.11791 0.224726 0
M  V30 20527 H 1884.86 -2.87368 2.6984 0
M  V30 20528 H 1886.15 -4.01339 3.12738 0
M  V30 20529 H 1885.54 -5.64317 0.395392 0
M  V30 20530 H 1884.1 -6.46388 0.838178 0
M  V30 20531 N 1887.53 -1.26053 -0.945962 0
M  V30 20532 C 1888.46 -1.09687 -2.06134 0
M  V30 20533 C 1889.44 -0.00341513 -1.701 0
M  V30 20534 O 1890.63 -0.174559 -1.93414 0
M  V30 20535 C 1887.76 -0.724007 -3.3967 0
M  V30 20536 C 1886.71 -1.76866 -3.89747 0
M  V30 20537 C 1886.04 -1.25025 -5.19878 0
M  V30 20538 C 1887.34 -3.16923 -4.15159 0
M  V30 20539 H 1889.03 -2.02986 -2.20084 0
M  V30 20540 H 1886.58 -0.977346 -1.05754 0
M  V30 20541 H 1888.53 -0.596411 -4.17158 0
M  V30 20542 H 1887.26 0.244695 -3.25682 0
M  V30 20543 H 1885.92 -1.88485 -3.14435 0
M  V30 20544 H 1885.56 -0.271527 -5.02267 0
M  V30 20545 H 1885.26 -1.94853 -5.54352 0
M  V30 20546 H 1886.79 -1.13523 -5.99954 0
M  V30 20547 H 1888.2 -3.08409 -4.83277 0
M  V30 20548 H 1886.6 -3.84299 -4.60906 0
M  V30 20549 H 1887.67 -3.63337 -3.21114 0
M  V30 20550 N 1889.01 1.14984 -1.07779 0
M  V30 20551 C 1889.94 2.19494 -0.659934 0
M  V30 20552 C 1890.96 1.60201 0.289756 0
M  V30 20553 O 1892.15 1.78328 0.0784004 0
M  V30 20554 C 1889.25 3.38862 0.0506161 0
M  V30 20555 C 1888.42 4.27693 -0.916355 0
M  V30 20556 C 1887.48 5.25642 -0.242303 0
M  V30 20557 O 1886.5 5.62282 -0.884715 0
M  V30 20558 N 1887.71 5.7164 1.01033 0
M  V30 20559 H 1890.47 2.5596 -1.55899 0
M  V30 20560 H 1888.03 1.30143 -0.963043 0
M  V30 20561 H 1890.02 4.01444 0.512331 0
M  V30 20562 H 1888.59 3.00775 0.851671 0
M  V30 20563 H 1887.81 3.62145 -1.55708 0
M  V30 20564 H 1889.1 4.83913 -1.57182 0
M  V30 20565 H 1888.5 5.43991 1.55212 0
M  V30 20566 H 1887.06 6.36241 1.41565 0
M  V30 20567 N 1890.49 0.862526 1.31902 0
M  V30 20568 C 1891.4 0.316029 2.32462 0
M  V30 20569 C 1892.42 -0.570217 1.64391 0
M  V30 20570 O 1893.59 -0.46871 1.9587 0
M  V30 20571 C 1890.66 -0.479949 3.43362 0
M  V30 20572 C 1889.72 0.43337 4.27107 0
M  V30 20573 C 1888.95 -0.324714 5.32711 0
M  V30 20574 O 1889.17 -1.55373 5.48831 0
M  V30 20575 O 1888.11 0.313571 6.01083 0
M  V30 20576 H 1891.93 1.14935 2.81111 0
M  V30 20577 H 1889.52 0.625683 1.35667 0
M  V30 20578 H 1891.4 -0.931458 4.10977 0
M  V30 20579 H 1890.08 -1.28994 2.96888 0
M  V30 20580 H 1888.98 0.933222 3.62273 0
M  V30 20581 H 1890.32 1.20876 4.77127 0
M  V30 20582 N 1891.97 -1.4484 0.62123 0
M  V30 20583 C 1893.21 -2.02433 0.121965 0
M  V30 20584 C 1893.55 -1.48679 -1.24932 0
M  V30 20585 O 1892.82 -0.666887 -1.8271 0
M  V30 20586 C 1893.11 -3.59967 0.0978513 0
M  V30 20587 C 1892.96 -4.24025 1.50077 0
M  V30 20588 C 1894.28 -4.36224 -0.582838 0
M  V30 20589 H 1891.4 -0.735576 0.0457947 0
M  V30 20590 H 1894.04 -1.72531 0.795812 0
M  V30 20591 H 1892.19 -3.85573 -0.47597 0
M  V30 20592 H 1893.86 -4.09558 2.12272 0
M  V30 20593 H 1892.1 -3.819 2.05754 0
M  V30 20594 H 1892.77 -5.32994 1.43602 0
M  V30 20595 H 1895.25 -4.15992 -0.0949595 0
M  V30 20596 H 1894.13 -5.45944 -0.568863 0
M  V30 20597 H 1894.39 -4.10098 -1.65142 0
M  V30 20598 N 1893.45 -0.361184 -1.53405 0
M  V30 20599 C 1894.38 0.522004 -2.23177 0
M  V30 20600 C 1895.39 1.04974 -1.24436 0
M  V30 20601 O 1896.58 0.956873 -1.50686 0
M  V30 20602 C 1893.68 1.733 -2.91239 0
M  V30 20603 C 1892.85 1.33752 -4.16448 0
M  V30 20604 C 1891.91 2.4101 -4.67761 0
M  V30 20605 O 1890.94 2.03583 -5.31547 0
M  V30 20606 N 1892.14 3.72531 -4.45198 0
M  V30 20607 H 1894.91 -0.0756154 -2.99605 0
M  V30 20608 H 1892.47 -0.18615 -1.60826 0
M  V30 20609 H 1894.46 2.44522 -3.22477 0
M  V30 20610 H 1893.03 2.23759 -2.18291 0
M  V30 20611 H 1892.25 0.455335 -3.91561 0
M  V30 20612 H 1893.54 1.04953 -4.97858 0
M  V30 20613 H 1892.93 4.05716 -3.94222 0
M  V30 20614 H 1891.49 4.3987 -4.80997 0
M  V30 20615 N 1894.92 1.57341 -0.0902386 0
M  V30 20616 C 1896.17 1.93793 0.573474 0
M  V30 20617 C 1896.49 0.972444 1.69022 0
M  V30 20618 O 1895.76 0.0236753 1.95886 0
M  V30 20619 H 1894.34 0.715442 0.21483 0
M  V30 20620 H 1897.01 1.94303 -0.15243 0
M  V30 20621 H 1896.1 2.96088 0.986829 0
M  V30 20622 N 1896.4 -0.183431 1.56529 0
M  V30 20623 C 1897.82 -0.534734 1.50375 0
M  V30 20624 C 1898.02 -1.85267 0.792359 0
M  V30 20625 O 1897.07 -2.50095 0.3477 0
M  V30 20626 C 1898.39 -0.578686 2.95079 0
M  V30 20627 C 1899.94 -0.66672 3.05817 0
M  V30 20628 C 1900.41 -0.741676 4.51955 0
M  V30 20629 N 1901.9 -0.804892 4.56153 0
M  V30 20630 C 1902.64 -0.883257 5.66556 0
M  V30 20631 N 1902.13 -0.923203 6.86621 0
M  V30 20632 N 1903.93 -0.921346 5.54498 0
M  V30 20633 H 1896.08 0.68092 2.0119 0
M  V30 20634 H 1898.34 0.244029 0.916053 0
M  V30 20635 H 1898.05 0.320816 3.50234 0
M  V30 20636 H 1897.92 -1.42937 3.49068 0
M  V30 20637 H 1900.31 -1.55665 2.50704 0
M  V30 20638 H 1900.39 0.210402 2.54933 0
M  V30 20639 H 1900.03 0.143948 5.07696 0
M  V30 20640 H 1899.96 -1.63477 5.00583 0
M  V30 20641 H 1902.45 -0.782796 3.69704 0
M  V30 20642 H 1902.77 -0.983835 7.66512 0
M  V30 20643 H 1901.11 -0.891683 6.89256 0
M  V30 20644 H 1904.3 -0.887056 4.59618 0
M  V30 20645 H 1904.47 -0.978957 6.40563 0
M  V30 20646 N 1897.88 -1.50992 -0.451564 0
M  V30 20647 C 1898.84 -1.70703 -1.52949 0
M  V30 20648 C 1899.84 -0.577275 -1.50081 0
M  V30 20649 O 1901.03 -0.844619 -1.52354 0
M  V30 20650 C 1898.17 -1.75035 -2.92533 0
M  V30 20651 H 1899.36 -2.66891 -1.36782 0
M  V30 20652 H 1896.91 -1.40767 -0.679285 0
M  V30 20653 H 1897.65 -0.806096 -3.14122 0
M  V30 20654 H 1897.43 -2.57126 -2.96021 0
M  V30 20655 H 1898.92 -1.92171 -3.70756 0
M  V30 20656 N 1899.36 0.706069 -1.40899 0
M  V30 20657 C 1900.61 1.46315 -1.39415 0
M  V30 20658 C 1900.93 1.95 -0.000496593 0
M  V30 20659 O 1900.2 1.70995 0.955904 0
M  V30 20660 H 1898.78 0.542863 -0.513136 0
M  V30 20661 H 1901.44 0.836396 -1.76041 0
M  V30 20662 H 1900.54 2.33139 -2.07491 0
M  V30 20663 N 1900.84 1.26553 0.939264 0
M  V30 20664 C 1902.11 1.02956 1.66312 0
M  V30 20665 C 1902.49 -0.439417 2.06476 0
M  V30 20666 O 1901.84 -1.42019 1.79005 0
M  V30 20667 C 1902.05 1.98013 2.87388 0
M  V30 20668 C 1903.4 2.26732 3.58996 0
M  V30 20669 O 1904.42 1.95894 2.97496 0
M  V30 20670 O 1903.28 2.79244 4.69771 0
M  V30 20671 H 1900.38 0.391621 0.728397 0
M  V30 20672 H 1902.92 1.37771 0.990824 0
M  V30 20673 H 1901.69 2.97133 2.54613 0
M  V30 20674 H 1901.32 1.63689 3.62342 0
M  V30 20675 N 1902.31 -1.14411 1.08387 0
M  V30 20676 C 1903.56 -1.85078 0.811826 0
M  V30 20677 C 1903.88 -1.83335 -0.664312 0
M  V30 20678 O 1903.15 -1.28164 -1.48158 0
M  V30 20679 H 1901.73 -0.685278 0.297328 0
M  V30 20680 H 1904.4 -1.38644 1.36981 0
M  V30 20681 H 1903.49 -2.89909 1.15581 0
M  V30 20682 N 1903.79 -0.869509 -1.31443 0
M  V30 20683 C 1904.7 -0.328352 -2.32291 0
M  V30 20684 C 1905.72 0.561491 -1.64691 0
M  V30 20685 O 1906.89 0.458316 -1.96116 0
M  V30 20686 C 1903.96 0.461733 -3.43612 0
M  V30 20687 C 1903.02 -0.456015 -4.26871 0
M  V30 20688 C 1902.25 0.296458 -5.32876 0
M  V30 20689 O 1902.48 1.5246 -5.49647 0
M  V30 20690 O 1901.41 -0.345443 -6.00908 0
M  V30 20691 H 1905.24 -1.16424 -2.80498 0
M  V30 20692 H 1902.82 -0.632869 -1.35333 0
M  V30 20693 H 1904.7 0.90965 -4.11465 0
M  V30 20694 H 1903.38 1.27418 -2.97567 0
M  V30 20695 H 1902.29 -0.952421 -3.61773 0
M  V30 20696 H 1903.62 -1.23404 -4.76479 0
M  V30 20697 N 1905.27 1.44508 -0.628902 0
M  V30 20698 C 1906.69 1.56863 -0.294332 0
M  V30 20699 C 1906.89 1.6168 1.20257 0
M  V30 20700 O 1905.94 1.55862 1.98653 0
M  V30 20701 C 1907.26 2.84134 -0.984291 0
M  V30 20702 C 1908.8 2.97843 -0.962223 0
M  V30 20703 C 1909.28 4.27914 -1.6326 0
M  V30 20704 N 1910.77 4.34722 -1.59909 0
M  V30 20705 C 1911.5 5.34081 -2.08675 0
M  V30 20706 N 1911 6.39857 -2.65623 0
M  V30 20707 N 1912.79 5.25575 -1.99317 0
M  V30 20708 H 1904.94 1.39624 -1.60059 0
M  V30 20709 H 1907.21 0.66894 -0.671731 0
M  V30 20710 H 1906.91 2.86551 -2.03915 0
M  V30 20711 H 1906.79 3.73589 -0.520679 0
M  V30 20712 H 1909.17 2.9498 0.0841512 0
M  V30 20713 H 1909.26 2.09742 -1.4643 0
M  V30 20714 H 1908.9 4.31536 -2.67842 0
M  V30 20715 H 1908.83 5.14868 -1.10537 0
M  V30 20716 H 1911.32 3.58896 -1.18329 0
M  V30 20717 H 1911.63 7.11952 -3.00572 0
M  V30 20718 H 1909.98 6.40548 -2.69672 0
M  V30 20719 H 1913.17 4.4185 -1.54551 0
M  V30 20720 H 1913.34 6.02855 -2.37634 0
M  V30 20721 N 1906.75 0.369315 1.53212 0
M  V30 20722 C 1907.71 -0.463128 2.24472 0
M  V30 20723 C 1908.71 -1.00667 1.2539 0
M  V30 20724 O 1909.9 -0.891832 1.4964 0
M  V30 20725 C 1907.03 -1.6477 2.98435 0
M  V30 20726 H 1908.23 0.160479 2.9947 0
M  V30 20727 H 1905.78 0.121068 1.5583 0
M  V30 20728 H 1906.52 -2.30929 2.27689 0
M  V30 20729 H 1906.3 -1.26487 3.71138 0
M  V30 20730 H 1907.79 -2.23753 3.52596 0
M  V30 20731 N 1908.23 -1.57291 0.0985816 0
M  V30 20732 C 1909.64 -1.575 -0.258064 0
M  V30 20733 C 1909.84 -1.10997 -1.68172 0
M  V30 20734 O 1908.9 -0.78802 -2.39889 0
M  V30 20735 C 1910.21 -3.00669 -0.0433215 0
M  V30 20736 C 1911.76 -3.12804 -0.110802 0
M  V30 20737 C 1912.24 -4.57937 0.0759907 0
M  V30 20738 N 1913.73 -4.63195 0.021273 0
M  V30 20739 C 1914.46 -5.73227 0.141 0
M  V30 20740 N 1913.96 -6.9208 0.315756 0
M  V30 20741 N 1915.75 -5.6204 0.0820222 0
M  V30 20742 H 1907.9 -1.85826 1.02871 0
M  V30 20743 H 1910.16 -0.857869 0.403441 0
M  V30 20744 H 1909.87 -3.38903 0.940103 0
M  V30 20745 H 1909.74 -3.6896 -0.784124 0
M  V30 20746 H 1912.13 -2.7444 -1.08473 0
M  V30 20747 H 1912.21 -2.47098 0.661548 0
M  V30 20748 H 1911.86 -4.96995 1.04681 0
M  V30 20749 H 1911.79 -5.21708 -0.716096 0
M  V30 20750 H 1914.28 -3.77737 -0.111114 0
M  V30 20751 H 1914.59 -7.71772 0.398531 0
M  V30 20752 H 1912.94 -6.94111 0.351469 0
M  V30 20753 H 1916.13 -4.6807 -0.0533968 0
M  V30 20754 H 1916.3 -6.47753 0.178778 0
M  V30 20755 N 1909.71 0.175127 -1.56624 0
M  V30 20756 C 1910.67 1.20064 -1.95237 0
M  V30 20757 C 1911.67 1.37384 -0.835603 0
M  V30 20758 O 1912.86 1.34855 -1.10272 0
M  V30 20759 C 1909.99 2.5664 -2.24386 0
M  V30 20760 H 1911.18 0.870066 -2.87001 0
M  V30 20761 H 1908.74 0.41743 -1.50623 0
M  V30 20762 H 1909.47 2.94717 -1.35322 0
M  V30 20763 H 1909.26 2.45436 -3.05784 0
M  V30 20764 H 1910.75 3.30554 -2.55194 0
M  V30 20765 N 1911.18 1.5123 0.44355 0
M  V30 20766 C 1912.09 1.74928 1.56324 0
M  V30 20767 C 1913.11 0.633267 1.62067 0
M  V30 20768 O 1914.29 0.914808 1.79425 0
M  V30 20769 C 1911.35 1.86361 2.92354 0
M  V30 20770 C 1910.41 3.10196 2.96778 0
M  V30 20771 C 1909.64 3.21073 4.26319 0
M  V30 20772 O 1909.87 2.38043 5.18355 0
M  V30 20773 O 1908.8 4.14008 4.369 0
M  V30 20774 H 1912.63 2.69898 1.39243 0
M  V30 20775 H 1910.21 1.35656 0.62592 0
M  V30 20776 H 1912.09 1.95901 3.73096 0
M  V30 20777 H 1910.77 0.945775 3.09575 0
M  V30 20778 H 1909.68 3.06138 2.15013 0
M  V30 20779 H 1911.01 4.01648 2.84499 0
M  V30 20780 N 1912.66 -0.698586 1.41271 0
M  V30 20781 C 1913.62 -1.7943 1.4261 0
M  V30 20782 C 1914.62 -1.57641 0.317187 0
M  V30 20783 O 1915.81 -1.64369 0.576922 0
M  V30 20784 C 1912.95 -3.17762 1.23452 0
M  V30 20785 H 1914.14 -1.79637 2.40147 0
M  V30 20786 H 1911.69 -0.905916 1.27369 0
M  V30 20787 H 1912.43 -3.23195 0.267431 0
M  V30 20788 H 1912.21 -3.34978 2.03794 0
M  V30 20789 H 1913.7 -3.97751 1.27217 0
M  V30 20790 N 1914.14 -1.27049 -0.93254 0
M  V30 20791 C 1915.1 -1.09404 -2.01404 0
M  V30 20792 C 1916.1 -0.0395757 -1.60751 0
M  V30 20793 O 1917.29 -0.283746 -1.71874 0
M  V30 20794 C 1914.42 -0.665948 -3.34332 0
M  V30 20795 H 1915.62 -2.05434 -2.18488 0
M  V30 20796 H 1913.17 -1.09768 -1.11268 0
M  V30 20797 H 1913.91 0.295952 -3.22947 0
M  V30 20798 H 1913.69 -1.42745 -3.65194 0
M  V30 20799 H 1915.18 -0.564591 -4.13766 0
M  V30 20800 N 1915.62 1.13835 -1.08993 0
M  V30 20801 C 1916.53 2.22715 -0.73724 0
M  V30 20802 C 1917.54 1.72064 0.258869 0
M  V30 20803 O 1918.72 2.01145 0.101321 0
M  V30 20804 C 1915.78 3.46338 -0.158285 0
M  V30 20805 C 1914.85 4.11902 -1.20977 0
M  V30 20806 C 1914.08 5.29624 -0.658349 0
M  V30 20807 O 1914.3 5.68023 0.520219 0
M  V30 20808 O 1913.24 5.85121 -1.41126 0
M  V30 20809 H 1917.06 2.55247 -1.64568 0
M  V30 20810 H 1914.65 1.21882 -0.864013 0
M  V30 20811 H 1916.53 4.2109 0.161481 0
M  V30 20812 H 1915.2 3.15517 0.723235 0
M  V30 20813 H 1914.11 3.38996 -1.58216 0
M  V30 20814 H 1915.44 4.46843 -2.06378 0
M  V30 20815 N 1917.1 0.876467 1.3098 0
M  V30 20816 C 1918.04 0.335149 2.28354 0
M  V30 20817 C 1919.01 -0.569979 1.56014 0
M  V30 20818 O 1920.2 -0.500226 1.84126 0
M  V30 20819 C 1917.34 -0.451723 3.42131 0
M  V30 20820 C 1916.45 0.481657 4.29306 0
M  V30 20821 C 1915.59 -0.319977 5.30235 0
M  V30 20822 C 1914.62 0.609417 6.09059 0
M  V30 20823 N 1913.76 -0.156366 7.01926 0
M  V30 20824 H 1918.6 1.17069 2.74042 0
M  V30 20825 H 1916.14 0.588683 1.34807 0
M  V30 20826 H 1918.1 -0.923775 4.06844 0
M  V30 20827 H 1916.73 -1.25191 2.97535 0
M  V30 20828 H 1915.78 1.07218 3.64977 0
M  V30 20829 H 1917.09 1.19403 4.84298 0
M  V30 20830 H 1916.24 -0.854256 6.00656 0
M  V30 20831 H 1914.98 -1.06561 4.75916 0
M  V30 20832 H 1913.99 1.1554 5.37523 0
M  V30 20833 H 1915.21 1.354 6.65465 0
M  V30 20834 H 1913.16 -0.884688 6.50007 0
M  V30 20835 H 1913.08 0.496538 7.54368 0
M  V30 20836 H 1914.34 -0.671665 7.76601 0
M  V30 20837 N 1918.57 -1.44173 0.636557 0
M  V30 20838 C 1919.5 -2.33442 -0.0518719 0
M  V30 20839 C 1920.48 -1.48519 -0.829226 0
M  V30 20840 O 1921.67 -1.77225 -0.794028 0
M  V30 20841 C 1918.8 -3.31663 -1.03038 0
M  V30 20842 C 1917.75 -4.26447 -0.364286 0
M  V30 20843 C 1917.08 -5.14577 -1.45308 0
M  V30 20844 C 1918.38 -5.17133 0.732884 0
M  V30 20845 H 1920.07 -2.91255 0.693589 0
M  V30 20846 H 1917.62 -1.40049 0.33499 0
M  V30 20847 H 1919.57 -3.93002 -1.52077 0
M  V30 20848 H 1918.3 -2.72071 -1.80679 0
M  V30 20849 H 1916.96 -3.66448 0.105505 0
M  V30 20850 H 1916.6 -4.51334 -2.22051 0
M  V30 20851 H 1916.3 -5.78807 -1.01274 0
M  V30 20852 H 1917.83 -5.78788 -1.94517 0
M  V30 20853 H 1919.24 -5.72376 0.325363 0
M  V30 20854 H 1917.64 -5.89994 1.09669 0
M  V30 20855 H 1918.71 -4.5782 1.59779 0
M  V30 20856 N 1920.05 -0.377435 -1.53014 0
M  V30 20857 C 1920.98 0.498304 -2.23718 0
M  V30 20858 C 1922 1.03648 -1.25542 0
M  V30 20859 O 1923.19 0.940837 -1.51692 0
M  V30 20860 C 1920.29 1.70201 -2.93061 0
M  V30 20861 C 1919.46 1.29328 -4.17843 0
M  V30 20862 C 1918.52 2.36036 -4.70291 0
M  V30 20863 O 1917.54 1.97934 -5.33677 0
M  V30 20864 N 1918.75 3.67788 -4.49124 0
M  V30 20865 H 1921.51 -0.107388 -2.99508 0
M  V30 20866 H 1919.07 -0.203197 -1.6062 0
M  V30 20867 H 1921.06 2.41087 -3.25052 0
M  V30 20868 H 1919.63 2.21431 -2.20652 0
M  V30 20869 H 1918.85 0.413779 -3.92022 0
M  V30 20870 H 1920.14 0.996666 -4.98943 0
M  V30 20871 H 1919.54 4.01512 -3.98503 0
M  V30 20872 H 1918.1 4.34744 -4.85635 0
M  V30 20873 N 1921.53 1.57237 -0.106922 0
M  V30 20874 C 1922.95 1.57634 0.249708 0
M  V30 20875 C 1923.15 1.11888 1.67581 0
M  V30 20876 O 1922.2 0.80073 2.39467 0
M  V30 20877 C 1923.52 3.00688 0.0273757 0
M  V30 20878 C 1925.06 3.12858 0.0942116 0
M  V30 20879 C 1925.54 4.5789 -0.100275 0
M  V30 20880 N 1927.03 4.63177 -0.045837 0
M  V30 20881 C 1927.76 5.73144 -0.171398 0
M  V30 20882 N 1927.26 6.91903 -0.352455 0
M  V30 20883 N 1929.05 5.61989 -0.111827 0
M  V30 20884 H 1921.2 1.85278 -1.03855 0
M  V30 20885 H 1923.47 0.855717 -0.407985 0
M  V30 20886 H 1923.17 3.38399 -0.958063 0
M  V30 20887 H 1923.05 3.6937 0.764546 0
M  V30 20888 H 1925.43 2.75012 1.07016 0
M  V30 20889 H 1925.52 2.46743 -0.674643 0
M  V30 20890 H 1925.16 4.96433 -1.07315 0
M  V30 20891 H 1925.09 5.22081 0.688418 0
M  V30 20892 H 1927.58 3.7779 0.0910806 0
M  V30 20893 H 1927.89 7.7155 -0.439454 0
M  V30 20894 H 1926.24 6.93915 -0.388274 0
M  V30 20895 H 1929.43 4.68091 0.0285732 0
M  V30 20896 H 1929.6 6.47649 -0.213127 0
M  V30 20897 N 1923.01 -0.166818 1.56715 0
M  V30 20898 C 1923.97 -1.19027 1.95871 0
M  V30 20899 C 1924.97 -1.36939 0.842877 0
M  V30 20900 O 1926.16 -1.34268 1.10985 0
M  V30 20901 C 1923.29 -2.55446 2.25743 0
M  V30 20902 H 1924.49 -0.854834 2.87459 0
M  V30 20903 H 1922.04 -0.409436 1.50842 0
M  V30 20904 H 1922.77 -2.93996 1.36884 0
M  V30 20905 H 1922.56 -2.4381 3.07081 0
M  V30 20906 H 1924.05 -3.29196 2.56943 0
M  V30 20907 N 1924.49 -1.51463 -0.435524 0
M  V30 20908 C 1925.42 -1.69104 -1.54715 0
M  V30 20909 C 1926.43 -0.571681 -1.52432 0
M  V30 20910 O 1927.62 -0.846054 -1.57176 0
M  V30 20911 C 1924.72 -1.69217 -2.9363 0
M  V30 20912 C 1923.89 -2.97766 -3.20397 0
M  V30 20913 C 1922.95 -2.90043 -4.39046 0
M  V30 20914 O 1921.98 -3.63985 -4.37611 0
M  V30 20915 N 1923.18 -2.06018 -5.42712 0
M  V30 20916 H 1925.95 -2.64998 -1.39985 0
M  V30 20917 H 1923.51 -1.49371 -0.624486 0
M  V30 20918 H 1925.5 -1.61616 -3.71029 0
M  V30 20919 H 1924.07 -0.809085 -3.01948 0
M  V30 20920 H 1923.29 -3.19222 -2.31282 0
M  V30 20921 H 1924.58 -3.82857 -3.35109 0
M  V30 20922 H 1923.97 -1.45324 -5.46715 0
M  V30 20923 H 1922.53 -2.04295 -6.18956 0
M  V30 20924 N 1925.96 0.691085 -1.4164 0
M  V30 20925 C 1926.93 1.78671 -1.43559 0
M  V30 20926 C 1927.93 1.5747 -0.325543 0
M  V30 20927 O 1929.12 1.64061 -0.585631 0
M  V30 20928 C 1926.25 3.17102 -1.25135 0
M  V30 20929 H 1927.44 1.78361 -2.41096 0
M  V30 20930 H 1925 0.899148 -1.27848 0
M  V30 20931 H 1925.73 3.23049 -0.284567 0
M  V30 20932 H 1925.52 3.33893 -2.05567 0
M  V30 20933 H 1927.01 3.97071 -1.29324 0
M  V30 20934 N 1927.44 1.27542 0.925789 0
M  V30 20935 C 1928.35 1.1225 2.06002 0
M  V30 20936 C 1929.37 0.0520487 1.73922 0
M  V30 20937 O 1930.54 0.258921 1.99729 0
M  V30 20938 C 1927.61 0.773231 3.37967 0
M  V30 20939 C 1926.67 1.92476 3.83733 0
M  V30 20940 C 1925.9 1.59206 5.09401 0
M  V30 20941 O 1926.13 0.500836 5.68197 0
M  V30 20942 O 1925.06 2.43185 5.50586 0
M  V30 20943 H 1928.89 2.07439 2.21817 0
M  V30 20944 H 1926.47 1.06747 1.04525 0
M  V30 20945 H 1928.35 0.591863 4.17223 0
M  V30 20946 H 1927.03 -0.149116 3.23356 0
M  V30 20947 H 1925.94 2.1612 3.05357 0
M  V30 20948 H 1927.27 2.82738 4.02889 0
M  V30 20949 N 1928.92 -1.13255 1.09595 0
M  V30 20950 C 1929.85 -2.20827 0.758791 0
M  V30 20951 C 1930.83 -1.68034 -0.264325 0
M  V30 20952 O 1932.02 -1.93751 -0.132005 0
M  V30 20953 C 1929.15 -3.46831 0.180424 0
M  V30 20954 C 1928.1 -4.12724 1.13325 0
M  V30 20955 C 1927.43 -5.33075 0.416504 0
M  V30 20956 C 1928.73 -4.59862 2.47637 0
M  V30 20957 H 1930.42 -2.49287 1.65821 0
M  V30 20958 H 1927.97 -1.19818 0.798734 0
M  V30 20959 H 1929.92 -4.21346 -0.0675313 0
M  V30 20960 H 1928.64 -3.17773 -0.754194 0
M  V30 20961 H 1927.3 -3.40179 1.36651 0
M  V30 20962 H 1926.95 -5.00281 -0.522308 0
M  V30 20963 H 1926.65 -5.78109 1.05183 0
M  V30 20964 H 1928.17 -6.10344 0.17689 0
M  V30 20965 H 1929.59 -5.25791 2.28509 0
M  V30 20966 H 1927.99 -5.15642 3.06974 0
M  V30 20967 H 1929.06 -3.74294 3.08273 0
M  V30 20968 N 1930.4 -0.883401 -1.30514 0
M  V30 20969 C 1931.31 -0.352971 -2.31929 0
M  V30 20970 C 1932.32 0.543992 -1.65278 0
M  V30 20971 O 1933.5 0.437489 -1.96591 0
M  V30 20972 C 1930.57 0.425263 -3.44082 0
M  V30 20973 C 1929.63 -0.501265 -4.26363 0
M  V30 20974 C 1928.86 0.239923 -5.3316 0
M  V30 20975 O 1929.08 1.46622 -5.51233 0
M  V30 20976 O 1928.02 -0.409158 -6.00508 0
M  V30 20977 H 1931.84 -1.19393 -2.79247 0
M  V30 20978 H 1929.43 -0.647187 -1.34655 0
M  V30 20979 H 1931.31 0.865957 -4.12407 0
M  V30 20980 H 1929.98 1.24255 -2.98902 0
M  V30 20981 H 1928.89 -0.990738 -3.60743 0
M  V30 20982 H 1930.22 -1.28451 -4.75143 0
M  V30 20983 N 1931.88 1.43833 -0.644194 0
M  V30 20984 C 1932.82 2.32509 0.0649184 0
M  V30 20985 C 1933.82 1.48097 0.822405 0
M  V30 20986 O 1935.02 1.64362 0.733827 0
M  V30 20987 H 1931.4 0.750948 0.0397724 0
M  V30 20988 H 1933.37 2.90053 -0.700857 0
M  V30 20989 C 1932.12 3.32282 1.02391 0
M  V30 20990 H 1931.44 3.97254 0.45047 0
M  V30 20991 H 1932.88 3.96982 1.48933 0
M  V30 20992 C 1931.34 2.62194 2.11556 0
M  V30 20993 O 1931.87 2.43066 3.19815 0
M  V30 20994 N 1930.08 2.21717 1.87856 0
M  V30 20995 H 1929.62 2.37474 0.998189 0
M  V30 20996 H 1929.58 1.7515 2.61093 0
M  V30 20997 N 1933.35 0.385544 1.52811 0
M  V30 20998 C 1934.6 -0.198138 2.0183 0
M  V30 20999 C 1934.93 -1.46774 1.27165 0
M  V30 21000 O 1934.21 -1.90928 0.371034 0
M  V30 21001 C 1934.49 -0.469873 3.57021 0
M  V30 21002 C 1934.34 0.814756 4.42359 0
M  V30 21003 C 1935.66 -1.26209 4.21615 0
M  V30 21004 H 1932.78 -0.0705386 0.733617 0
M  V30 21005 H 1935.42 0.514372 1.82905 0
M  V30 21006 H 1933.57 -1.07684 3.73278 0
M  V30 21007 H 1935.25 1.45172 4.37862 0
M  V30 21008 H 1933.49 1.43088 4.09522 0
M  V30 21009 H 1934.16 0.57932 5.48952 0
M  V30 21010 H 1936.64 -0.748451 4.09313 0
M  V30 21011 H 1935.51 -1.42096 5.30188 0
M  V30 21012 H 1935.77 -2.27624 3.78998 0
M  V30 21013 N 1934.83 -1.57178 0.115259 0
M  V30 21014 C 1936.06 -1.99842 -0.554802 0
M  V30 21015 C 1936.48 -0.994368 -1.59668 0
M  V30 21016 O 1935.84 0.0344531 -1.81267 0
M  V30 21017 C 1935.89 -3.41399 -1.16099 0
M  V30 21018 O 1934.99 -3.43868 -2.27659 0
M  V30 21019 H 1934.33 -0.649301 -0.138937 0
M  V30 21020 H 1936.86 -2.03594 0.202629 0
M  V30 21021 H 1936.87 -3.79527 -1.49743 0
M  V30 21022 H 1935.55 -4.13993 -0.397827 0
M  V30 21023 H 1934.13 -3.17555 -1.95482 0
M  V30 21024 N 1936.31 0.158505 -1.56801 0
M  V30 21025 C 1937.56 0.871313 -1.82353 0
M  V30 21026 C 1937.88 1.8222 -0.694324 0
M  V30 21027 O 1937.15 1.93817 0.284899 0
M  V30 21028 H 1935.73 0.324747 -0.672717 0
M  V30 21029 H 1938.39 0.155257 -1.94281 0
M  V30 21030 H 1937.49 1.44051 -2.76868 0
M  V30 21031 N 1937.79 1.51692 0.427485 0
M  V30 21032 C 1938.75 1.73114 1.50214 0
M  V30 21033 C 1939.75 0.601079 1.49143 0
M  V30 21034 O 1940.94 0.86875 1.50991 0
M  V30 21035 C 1938.07 1.79666 2.89712 0
M  V30 21036 H 1939.27 2.69033 1.32518 0
M  V30 21037 H 1936.82 1.4183 0.656804 0
M  V30 21038 H 1937.56 0.855968 3.128 0
M  V30 21039 H 1937.34 2.61803 2.91893 0
M  V30 21040 H 1938.83 1.98045 3.67652 0
M  V30 21041 N 1939.27 -0.683564 1.42004 0
M  V30 21042 C 1940.2 -1.8095 1.47578 0
M  V30 21043 C 1941.18 -1.66804 0.333208 0
M  V30 21044 O 1942.36 -1.86357 0.546314 0
M  V30 21045 C 1939.49 -3.19182 1.36895 0
M  V30 21046 C 1938.45 -3.4805 2.49089 0
M  V30 21047 C 1937.77 -4.85764 2.23467 0
M  V30 21048 C 1939.07 -3.4582 3.91415 0
M  V30 21049 H 1940.77 -1.76543 2.41812 0
M  V30 21050 H 1938.31 -0.84794 1.16387 0
M  V30 21051 H 1940.27 -3.97674 1.39404 0
M  V30 21052 H 1938.99 -3.24245 0.391513 0
M  V30 21053 H 1937.65 -2.71915 2.45882 0
M  V30 21054 H 1937.3 -4.87467 1.24037 0
M  V30 21055 H 1937 -5.06043 2.98654 0
M  V30 21056 H 1938.52 -5.66551 2.27711 0
M  V30 21057 H 1939.94 -4.14297 3.96272 0
M  V30 21058 H 1938.33 -3.77633 4.66383 0
M  V30 21059 H 1939.4 -2.4456 4.1871 0
M  V30 21060 N 1940.75 -1.28031 -0.919012 0
M  V30 21061 C 1941.69 -1.11355 -2.04213 0
M  V30 21062 C 1942.69 -0.0342517 -1.69365 0
M  V30 21063 O 1943.89 -0.192628 -1.78966 0
M  V30 21064 H 1940.27 -0.343397 -0.669016 0
M  V30 21065 H 1942.24 -2.06485 -2.15421 0
M  V30 21066 C 1940.99 -0.786653 -3.38684 0
M  V30 21067 H 1940.31 -1.6091 -3.65989 0
M  V30 21068 H 1941.75 -0.709897 -4.18015 0
M  V30 21069 C 1940.21 0.509383 -3.33027 0
M  V30 21070 O 1940.74 1.54125 -3.70956 0
M  V30 21071 N 1938.95 0.508188 -2.86122 0
M  V30 21072 H 1938.49 -0.331947 -2.55452 0
M  V30 21073 H 1938.45 1.37539 -2.82719 0
M  V30 21074 N 1942.22 1.12672 -1.10194 0
M  V30 21075 C 1943.13 2.2192 -0.76082 0
M  V30 21076 C 1944.15 1.72328 0.240604 0
M  V30 21077 O 1945.33 2.01241 0.0799808 0
M  V30 21078 C 1942.39 3.46151 -0.19501 0
M  V30 21079 C 1941.45 4.10595 -1.25339 0
M  V30 21080 C 1940.68 5.28896 -0.714485 0
M  V30 21081 O 1940.91 5.68543 0.459943 0
M  V30 21082 O 1939.84 5.83592 -1.47324 0
M  V30 21083 H 1943.67 2.53487 -1.67266 0
M  V30 21084 H 1941.25 1.20959 -0.876892 0
M  V30 21085 H 1943.13 4.21238 0.116809 0
M  V30 21086 H 1941.81 3.16266 0.689729 0
M  V30 21087 H 1940.72 3.37299 -1.61803 0
M  V30 21088 H 1942.05 4.44629 -2.11106 0
M  V30 21089 N 1943.7 0.89031 1.30043 0
M  V30 21090 C 1944.66 0.365912 2.2626 0
M  V30 21091 C 1945.66 -0.494616 1.53004 0
M  V30 21092 O 1946.85 -0.301009 1.7158 0
M  V30 21093 C 1943.99 -0.477952 3.37533 0
M  V30 21094 H 1945.18 1.21557 2.7416 0
M  V30 21095 H 1942.73 0.667628 1.41324 0
M  V30 21096 H 1943.47 -1.34798 2.94958 0
M  V30 21097 H 1943.25 0.138514 3.91855 0
M  V30 21098 H 1944.74 -0.836463 4.09137 0
M  V30 21099 N 1945.18 -1.43489 0.651812 0
M  V30 21100 C 1946.09 -2.34564 -0.0413115 0
M  V30 21101 C 1947.11 -1.53803 -0.81368 0
M  V30 21102 O 1948.28 -1.86459 -0.761246 0
M  V30 21103 C 1945.35 -3.32063 -0.996745 0
M  V30 21104 C 1944.41 -4.28728 -0.221464 0
M  V30 21105 C 1943.64 -5.2157 -1.13139 0
M  V30 21106 O 1943.86 -5.18804 -2.37062 0
M  V30 21107 O 1942.8 -5.98856 -0.604552 0
M  V30 21108 H 1946.62 -2.95325 0.708295 0
M  V30 21109 H 1944.21 -1.43607 0.411999 0
M  V30 21110 H 1946.09 -3.92022 -1.54586 0
M  V30 21111 H 1944.77 -2.73807 -1.7266 0
M  V30 21112 H 1943.67 -3.72254 0.371205 0
M  V30 21113 H 1945.01 -4.89962 0.468797 0
M  V30 21114 N 1946.66 -0.393643 -1.52605 0
M  V30 21115 C 1947.88 0.189618 -2.06531 0
M  V30 21116 C 1948.31 1.39382 -1.26311 0
M  V30 21117 O 1947.67 1.78977 -0.289278 0
M  V30 21118 C 1947.71 0.533717 -3.56628 0
M  V30 21119 O 1946.82 1.62703 -3.78948 0
M  V30 21120 H 1946.16 0.0209483 -0.663669 0
M  V30 21121 H 1948.69 -0.562368 -1.9672 0
M  V30 21122 H 1948.7 0.796786 -4.00144 0
M  V30 21123 H 1947.37 -0.34665 -4.14453 0
M  V30 21124 H 1945.95 1.35734 -3.47319 0
M  V30 21125 N 1948.14 1.57115 -0.123593 0
M  V30 21126 C 1949.08 2.15555 0.824912 0
M  V30 21127 C 1950.05 1.08181 1.2604 0
M  V30 21128 O 1951.24 1.36111 1.3371 0
M  V30 21129 C 1948.38 2.76288 2.06783 0
M  V30 21130 C 1947.49 3.97983 1.68029 0
M  V30 21131 C 1946.63 4.46788 2.87322 0
M  V30 21132 C 1945.66 5.61004 2.44829 0
M  V30 21133 N 1944.8 6.04532 3.57052 0
M  V30 21134 H 1949.64 2.9628 0.319726 0
M  V30 21135 H 1947.18 1.46372 0.14612 0
M  V30 21136 H 1949.14 3.09632 2.79613 0
M  V30 21137 H 1947.77 1.98245 2.54752 0
M  V30 21138 H 1946.82 3.70769 0.850542 0
M  V30 21139 H 1948.13 4.80796 1.32804 0
M  V30 21140 H 1947.28 4.82066 3.68372 0
M  V30 21141 H 1946.02 3.62934 3.25776 0
M  V30 21142 H 1945.03 5.25326 1.62213 0
M  V30 21143 H 1946.25 6.46627 2.07487 0
M  V30 21144 H 1944.2 5.23618 3.95171 0
M  V30 21145 H 1944.12 6.82212 3.25766 0
M  V30 21146 H 1945.38 6.44449 4.38527 0
M  V30 21147 N 1949.61 -0.150187 1.56883 0
M  V30 21148 C 1950.84 -0.87835 1.8733 0
M  V30 21149 C 1951.26 -1.74883 0.711426 0
M  V30 21150 O 1950.61 -1.79692 -0.318906 0
M  V30 21151 C 1950.66 -1.73769 3.16996 0
M  V30 21152 O 1950.39 -0.902296 4.28708 0
M  V30 21153 C 1951.89 -2.57371 3.60936 0
M  V30 21154 H 1949.11 -0.254139 0.621011 0
M  V30 21155 H 1951.65 -0.143933 2.03993 0
M  V30 21156 H 1949.81 -2.42521 3.02097 0
M  V30 21157 H 1950.22 -1.49198 5.02832 0
M  V30 21158 H 1951.69 -3.13249 4.5451 0
M  V30 21159 H 1952.17 -3.33257 2.86071 0
M  V30 21160 H 1952.78 -1.93916 3.78519 0
M  V30 21161 N 1951.09 -1.51916 -0.419434 0
M  V30 21162 C 1952.34 -1.64698 -1.16436 0
M  V30 21163 C 1952.65 -0.377878 -1.91915 0
M  V30 21164 O 1953.86 -0.385341 -2.68752 0
M  V30 21165 C 1952.32 -2.90939 -2.11854 0
M  V30 21166 C 1951.92 -4.2492 -1.4194 0
M  V30 21167 C 1953.67 -3.13083 -2.86669 0
M  V30 21168 C 1951.58 -5.42294 -2.35946 0
M  V30 21169 H 1950.51 -0.613496 -0.438337 0
M  V30 21170 H 1953.16 -1.78397 -0.429738 0
M  V30 21171 H 1951.54 -2.70916 -2.88826 0
M  V30 21172 H 1952.71 -4.5539 -0.70403 0
M  V30 21173 H 1951.03 -4.08797 -0.792071 0
M  V30 21174 H 1953.62 -3.97951 -3.57127 0
M  V30 21175 H 1953.97 -2.26891 -3.49036 0
M  V30 21176 H 1954.5 -3.33531 -2.168 0
M  V30 21177 H 1951.24 -6.30801 -1.78242 0
M  V30 21178 H 1950.76 -5.16177 -3.05485 0
M  V30 21179 H 1952.44 -5.74962 -2.96695 0
M  V30 21180 N 1952.57 0.676023 -1.42365 0
M  V30 21181 C 1953.99 0.989001 -1.25263 0
M  V30 21182 C 1954.19 2.00896 -0.155941 0
M  V30 21183 O 1953.24 2.48026 0.473229 0
M  V30 21184 C 1954.56 1.49498 -2.60904 0
M  V30 21185 C 1956.1 1.61281 -2.68249 0
M  V30 21186 C 1956.58 2.15275 -4.04253 0
M  V30 21187 N 1958.07 2.2261 -4.06201 0
M  V30 21188 C 1958.8 2.6546 -5.08251 0
M  V30 21189 N 1958.3 3.07771 -6.20684 0
M  V30 21190 N 1960.09 2.65198 -4.95607 0
M  V30 21191 H 1952.24 0.000697929 -2.124 0
M  V30 21192 H 1954.51 0.0628334 -0.945915 0
M  V30 21193 H 1954.21 0.820033 -3.42006 0
M  V30 21194 H 1954.09 2.47392 -2.8474 0
M  V30 21195 H 1956.47 2.27882 -1.87493 0
M  V30 21196 H 1956.56 0.618793 -2.48203 0
M  V30 21197 H 1956.2 1.49284 -4.85466 0
M  V30 21198 H 1956.13 3.15466 -4.2165 0
M  V30 21199 H 1958.62 1.92776 -3.25032 0
M  V30 21200 H 1958.93 3.3915 -6.94404 0
M  V30 21201 H 1957.28 3.05631 -6.24191 0
M  V30 21202 H 1960.47 2.31504 -4.06846 0
M  V30 21203 H 1960.64 2.98272 -5.75272 0
M  V30 21204 N 1954.05 1.28517 0.912209 0
M  V30 21205 C 1954.98 1.15113 2.03153 0
M  V30 21206 C 1955.96 0.0485128 1.70031 0
M  V30 21207 O 1957.14 0.225778 1.92883 0
M  V30 21208 C 1954.27 0.81381 3.37631 0
M  V30 21209 C 1953.23 1.87137 3.8492 0
M  V30 21210 C 1952.55 1.38765 5.1638 0
M  V30 21211 C 1953.85 3.27819 4.06611 0
M  V30 21212 H 1955.55 2.0875 2.14625 0
M  V30 21213 H 1953.09 1.00504 1.03126 0
M  V30 21214 H 1955.05 0.706804 4.1543 0
M  V30 21215 H 1953.77 -0.15826 3.26216 0
M  V30 21216 H 1952.43 1.96755 3.09327 0
M  V30 21217 H 1952.08 0.404598 5.0137 0
M  V30 21218 H 1951.78 2.09482 5.48991 0
M  V30 21219 H 1953.3 1.29389 5.96733 0
M  V30 21220 H 1954.72 3.21114 4.7493 0
M  V30 21221 H 1953.11 3.96384 4.50555 0
M  V30 21222 H 1954.18 3.71723 3.11368 0
M  V30 21223 N 1955.53 -1.12086 1.1079 0
M  V30 21224 C 1956.75 -1.88034 0.875097 0
M  V30 21225 C 1957.18 -1.79281 -0.569191 0
M  V30 21226 O 1956.53 -1.15037 -1.40129 0
M  V30 21227 C 1956.58 -3.35066 1.33278 0
M  V30 21228 O 1955.69 -4.09356 0.500163 0
M  V30 21229 H 1955.03 -0.584116 0.31576 0
M  V30 21230 H 1957.56 -1.41725 1.47564 0
M  V30 21231 H 1957.57 -3.85908 1.32434 0
M  V30 21232 H 1956.24 -3.40753 2.38453 0
M  V30 21233 H 1954.82 -3.68454 0.574137 0
M  V30 21234 N 1957 -0.897194 -1.29569 0
M  V30 21235 C 1957.95 -0.371435 -2.27792 0
M  V30 21236 C 1958.92 0.545087 -1.56901 0
M  V30 21237 O 1960.11 0.47087 -1.84899 0
M  V30 21238 C 1957.25 0.397236 -3.42806 0
M  V30 21239 C 1956.36 -0.549895 -4.28486 0
M  V30 21240 C 1955.49 0.23558 -5.30677 0
M  V30 21241 C 1954.53 -0.706236 -6.08012 0
M  V30 21242 N 1953.67 0.0446763 -7.02086 0
M  V30 21243 H 1958.51 -1.21414 -2.72145 0
M  V30 21244 H 1956.05 -0.610055 -1.33853 0
M  V30 21245 H 1958.01 0.858933 -4.08262 0
M  V30 21246 H 1956.64 1.20441 -2.99489 0
M  V30 21247 H 1955.69 -1.13011 -3.63226 0
M  V30 21248 H 1957 -1.27092 -4.82337 0
M  V30 21249 H 1956.15 0.758588 -6.01939 0
M  V30 21250 H 1954.89 0.989757 -4.77551 0
M  V30 21251 H 1953.9 -1.24077 -5.35617 0
M  V30 21252 H 1955.12 -1.4597 -6.63227 0
M  V30 21253 H 1953.07 0.781165 -6.51332 0
M  V30 21254 H 1952.99 -0.616488 -7.53482 0
M  V30 21255 H 1954.25 0.548029 -7.77571 0
M  V30 21256 N 1958.48 1.43142 -0.659413 0
M  V30 21257 C 1959.39 2.34582 0.0288714 0
M  V30 21258 C 1960.41 1.54232 0.805512 0
M  V30 21259 O 1961.58 1.8686 0.751347 0
M  V30 21260 C 1958.65 3.32587 0.97912 0
M  V30 21261 C 1957.71 4.2884 0.198725 0
M  V30 21262 C 1956.94 5.22163 1.10371 0
M  V30 21263 O 1957.17 5.20054 2.34308 0
M  V30 21264 O 1956.1 5.99168 0.572785 0
M  V30 21265 H 1959.93 2.94945 -0.723947 0
M  V30 21266 H 1957.51 1.43386 -0.419609 0
M  V30 21267 H 1959.39 3.92836 1.52505 0
M  V30 21268 H 1958.07 2.74719 1.71206 0
M  V30 21269 H 1956.98 3.72052 -0.390942 0
M  V30 21270 H 1958.31 4.89707 -0.494774 0
M  V30 21271 N 1959.96 0.40173 1.52394 0
M  V30 21272 C 1960.89 -0.41861 2.29717 0
M  V30 21273 C 1961.87 -1.05263 1.33618 0
M  V30 21274 O 1963.06 -1.06304 1.62521 0
M  V30 21275 C 1960.19 -1.5395 3.11314 0
M  V30 21276 C 1959.14 -1.03088 4.154 0
M  V30 21277 C 1958.47 -2.2448 4.85297 0
M  V30 21278 C 1959.77 -0.0900956 5.22222 0
M  V30 21279 H 1961.46 0.226577 2.98541 0
M  V30 21280 H 1959.01 0.110411 1.43576 0
M  V30 21281 H 1960.96 -2.12031 3.64171 0
M  V30 21282 H 1959.68 -2.21246 2.40246 0
M  V30 21283 H 1958.34 -0.472515 3.63542 0
M  V30 21284 H 1957.99 -2.90313 4.10764 0
M  V30 21285 H 1957.69 -1.91103 5.55656 0
M  V30 21286 H 1959.21 -2.83181 5.40963 0
M  V30 21287 H 1960.63 -0.579479 5.70364 0
M  V30 21288 H 1959.03 0.154505 5.99901 0
M  V30 21289 H 1960.1 0.857375 4.7726 0
M  V30 21290 N 1961.44 -1.57047 0.131923 0
M  V30 21291 C 1962.66 -2.00419 -0.533574 0
M  V30 21292 C 1963.09 -1.01125 -1.58605 0
M  V30 21293 O 1962.45 0.0152254 -1.81294 0
M  V30 21294 C 1962.49 -3.42611 -1.12472 0
M  V30 21295 O 1961.6 -3.46263 -2.23999 0
M  V30 21296 H 1960.94 -0.650739 -0.132043 0
M  V30 21297 H 1963.47 -2.03368 0.224211 0
M  V30 21298 H 1963.48 -3.81094 -1.45709 0
M  V30 21299 H 1962.15 -4.14392 -0.353895 0
M  V30 21300 H 1960.73 -3.1961 -1.92103 0
M  V30 21301 N 1962.92 0.141865 -1.5696 0
M  V30 21302 C 1964.14 0.872384 -1.8816 0
M  V30 21303 C 1964.57 1.73713 -0.721494 0
M  V30 21304 O 1963.92 1.78294 0.328757 0
M  V30 21305 C 1963.97 1.7007 -3.17976 0
M  V30 21306 O 1963.08 2.80545 -3.02271 0
M  V30 21307 H 1962.42 0.242672 -0.618066 0
M  V30 21308 H 1964.95 0.131136 -2.04179 0
M  V30 21309 H 1964.96 2.09466 -3.50126 0
M  V30 21310 H 1963.63 1.06573 -4.02014 0
M  V30 21311 H 1962.21 2.44519 -2.81541 0
M  V30 21312 N 1964.39 1.52136 0.411372 0
M  V30 21313 C 1965.62 1.6993 1.18031 0
M  V30 21314 C 1966.04 0.407806 1.84343 0
M  V30 21315 O 1965.39 -0.615981 1.7179 0
M  V30 21316 C 1965.45 2.83333 2.2451 0
M  V30 21317 O 1965.17 4.07482 1.60905 0
M  V30 21318 C 1966.67 3.12618 3.143 0
M  V30 21319 H 1963.89 0.569546 0.354765 0
M  V30 21320 H 1966.43 1.98683 0.484277 0
M  V30 21321 H 1964.59 2.57106 2.89785 0
M  V30 21322 H 1965 4.70657 2.31478 0
M  V30 21323 H 1966.47 3.95486 3.85091 0
M  V30 21324 H 1966.95 2.26078 3.76544 0
M  V30 21325 H 1967.56 3.40602 2.54697 0
M  V30 21326 N 1965.87 -0.668464 1.42721 0
M  V30 21327 C 1966.78 -1.81118 1.49109 0
M  V30 21328 C 1967.8 -1.69815 0.379331 0
M  V30 21329 O 1968.98 -1.91254 0.631187 0
M  V30 21330 C 1966.04 -3.17303 1.39713 0
M  V30 21331 C 1965.1 -3.40515 2.61434 0
M  V30 21332 C 1964.33 -4.70203 2.52477 0
M  V30 21333 O 1964.56 -5.48536 1.56411 0
M  V30 21334 O 1963.49 -4.948 3.42719 0
M  V30 21335 H 1967.32 -1.78684 2.45572 0
M  V30 21336 H 1964.9 -0.825017 1.24554 0
M  V30 21337 H 1966.78 -3.98557 1.36859 0
M  V30 21338 H 1965.46 -3.2036 0.463785 0
M  V30 21339 H 1964.37 -2.59085 2.69863 0
M  V30 21340 H 1965.7 -3.42293 3.53689 0
M  V30 21341 N 1967.35 -1.28999 -0.905381 0
M  V30 21342 C 1968.31 -1.13652 -1.99038 0
M  V30 21343 C 1969.31 -0.0736646 -1.60631 0
M  V30 21344 O 1970.5 -0.320139 -1.71233 0
M  V30 21345 C 1967.64 -0.736715 -3.32844 0
M  V30 21346 H 1968.83 -2.10022 -2.14081 0
M  V30 21347 H 1966.38 -1.12104 -1.08915 0
M  V30 21348 H 1967.12 0.227383 -3.23502 0
M  V30 21349 H 1966.9 -1.50459 -3.62084 0
M  V30 21350 H 1968.39 -0.65223 -4.12475 0
M  V30 21351 N 1968.83 1.11497 -1.11383 0
M  V30 21352 C 1969.76 2.17283 -0.729431 0
M  V30 21353 C 1970.77 1.61041 0.238642 0
M  V30 21354 O 1971.96 1.78487 0.0216271 0
M  V30 21355 C 1969.06 3.38852 -0.057216 0
M  V30 21356 C 1968.24 4.24562 -1.05196 0
M  V30 21357 C 1967.3 5.24605 -0.40941 0
M  V30 21358 O 1966.32 5.59183 -1.06315 0
M  V30 21359 N 1967.52 5.74565 0.827957 0
M  V30 21360 H 1970.29 2.50871 -1.63963 0
M  V30 21361 H 1967.85 1.27013 -1.00396 0
M  V30 21362 H 1969.84 4.02871 0.384356 0
M  V30 21363 H 1968.41 3.03332 0.755551 0
M  V30 21364 H 1967.63 3.57008 -1.6715 0
M  V30 21365 H 1968.92 4.78667 -1.72498 0
M  V30 21366 H 1968.32 5.48653 1.37827 0
M  V30 21367 H 1966.87 6.40423 1.21252 0
M  V30 21368 N 1970.31 0.904053 1.29092 0
M  V30 21369 C 1971.24 0.401805 2.30017 0
M  V30 21370 C 1972.22 -0.525477 1.6178 0
M  V30 21371 O 1973.4 -0.435279 1.89259 0
M  V30 21372 C 1970.53 -0.367656 3.45348 0
M  V30 21373 C 1969.49 0.469596 4.25416 0
M  V30 21374 C 1968.81 -0.427624 5.32987 0
M  V30 21375 C 1970.11 1.7218 4.93104 0
M  V30 21376 H 1971.81 1.24523 2.72276 0
M  V30 21377 H 1969.35 0.600215 1.30895 0
M  V30 21378 H 1971.31 -0.729791 4.15033 0
M  V30 21379 H 1970.03 -1.2449 3.01944 0
M  V30 21380 H 1968.69 0.814119 3.57446 0
M  V30 21381 H 1968.34 -1.30313 4.85827 0
M  V30 21382 H 1968.04 0.128909 5.87459 0
M  V30 21383 H 1969.56 -0.785855 6.05522 0
M  V30 21384 H 1970.98 1.42914 5.55201 0
M  V30 21385 H 1969.37 2.21999 5.57527 0
M  V30 21386 H 1970.44 2.45526 4.18145 0
M  V30 21387 N 1971.79 -1.4279 0.666995 0
M  V30 21388 C 1972.74 -2.27967 -0.0387665 0
M  V30 21389 C 1973.72 -1.40659 -0.781266 0
M  V30 21390 O 1974.91 -1.64176 -0.661464 0
M  V30 21391 C 1972.04 -3.28569 -0.994837 0
M  V30 21392 C 1971.13 -4.23362 -0.250089 0
M  V30 21393 N 1971.52 -5.00345 0.740833 0
M  V30 21394 C 1969.82 -4.43304 -0.489628 0
M  V30 21395 C 1970.52 -5.6952 1.18413 0
M  V30 21396 N 1969.49 -5.41149 0.515624 0
M  V30 21397 H 1973.29 -2.84908 0.721413 0
M  V30 21398 H 1970.81 -1.54659 0.49541 0
M  V30 21399 H 1972.81 -3.88384 -1.51536 0
M  V30 21400 H 1971.47 -2.73189 -1.75493 0
M  V30 21401 H 1972.48 -5.05643 1.12008 0
M  V30 21402 H 1969.15 -3.98976 -1.22982 0
M  V30 21403 H 1970.54 -6.41293 2.00482 0
M  V30 21404 N 1973.26 -0.409806 -1.52179 0
M  V30 21405 C 1974.54 0.224342 -1.94309 0
M  V30 21406 C 1974.92 1.62561 -1.34674 0
M  V30 21407 O 1974.27 2.22438 -0.522817 0
M  V30 21408 C 1974.48 0.22999 -3.48241 0
M  V30 21409 C 1975.83 0.449011 -4.22219 0
M  V30 21410 O 1976.85 0.309316 -3.54854 0
M  V30 21411 O 1975.71 0.724419 -5.41677 0
M  V30 21412 H 1972.8 0.144759 -0.814232 0
M  V30 21413 H 1975.35 -0.465799 -1.63182 0
M  V30 21414 H 1974.12 -0.750731 -3.84031 0
M  V30 21415 H 1973.74 0.964201 -3.85732 0
M  V30 21416 N 1974.74 1.56975 -0.14025 0
M  V30 21417 C 1975.7 2.15234 0.78784 0
M  V30 21418 C 1976.7 1.09243 1.17994 0
M  V30 21419 O 1977.89 1.34916 1.10197 0
M  V30 21420 C 1975.03 2.70994 2.06821 0
M  V30 21421 H 1976.22 2.98579 0.281166 0
M  V30 21422 H 1973.77 1.55918 0.109151 0
M  V30 21423 H 1974.51 1.91297 2.6187 0
M  V30 21424 H 1974.29 3.48532 1.79633 0
M  V30 21425 H 1975.78 3.15904 2.7312 0
M  V30 21426 N 1976.22 -0.133539 1.57033 0
M  V30 21427 C 1977.15 -1.18985 1.95896 0
M  V30 21428 C 1978.16 -1.38453 0.856426 0
M  V30 21429 O 1979.35 -1.37785 1.13479 0
M  V30 21430 C 1976.45 -2.55242 2.22946 0
M  V30 21431 C 1975.63 -2.56572 3.54245 0
M  V30 21432 C 1974.69 -3.74467 3.69677 0
M  V30 21433 O 1973.71 -3.5872 4.41937 0
M  V30 21434 N 1974.91 -4.92459 3.0735 0
M  V30 21435 H 1977.68 -0.859396 2.87114 0
M  V30 21436 H 1975.24 -0.32297 1.58646 0
M  V30 21437 H 1977.23 -3.32645 2.30498 0
M  V30 21438 H 1975.8 -2.80526 1.37926 0
M  V30 21439 H 1975.02 -1.64988 3.58012 0
M  V30 21440 H 1976.31 -2.54504 4.40574 0
M  V30 21441 H 1975.71 -5.08156 2.48584 0
M  V30 21442 H 1974.26 -5.6759 3.20445 0
M  V30 21443 N 1977.7 -1.52352 -0.403298 0
M  V30 21444 C 1978.61 -1.79011 -1.51631 0
M  V30 21445 C 1979.62 -0.676014 -1.60331 0
M  V30 21446 O 1980.8 -0.962058 -1.76936 0
M  V30 21447 C 1977.86 -1.94046 -2.8731 0
M  V30 21448 C 1976.93 -3.17955 -2.88449 0
M  V30 21449 C 1976.16 -3.32264 -4.17656 0
M  V30 21450 O 1976.38 -2.51703 -5.11861 0
M  V30 21451 O 1975.32 -4.25446 -4.25769 0
M  V30 21452 H 1979.14 -2.73495 -1.32038 0
M  V30 21453 H 1976.73 -1.37268 -0.589733 0
M  V30 21454 H 1978.61 -2.05724 -3.67771 0
M  V30 21455 H 1977.28 -1.02752 -3.06959 0
M  V30 21456 H 1976.19 -3.11731 -2.0682 0
M  V30 21457 H 1977.52 -4.0905 -2.7375 0
M  V30 21458 N 1979.18 0.660885 -1.43074 0
M  V30 21459 C 1980.11 1.78579 -1.50438 0
M  V30 21460 C 1981.09 1.66253 -0.359703 0
M  V30 21461 O 1982.27 1.85465 -0.575893 0
M  V30 21462 C 1979.4 3.16963 -1.41956 0
M  V30 21463 C 1978.36 3.44043 -2.54594 0
M  V30 21464 C 1977.68 4.82147 -2.31166 0
M  V30 21465 C 1978.98 3.3955 -3.96867 0
M  V30 21466 H 1980.68 1.72673 -2.4459 0
M  V30 21467 H 1978.22 0.829317 -1.17721 0
M  V30 21468 H 1980.17 3.95406 -1.45713 0
M  V30 21469 H 1978.9 3.23581 -0.443048 0
M  V30 21470 H 1977.56 2.67969 -2.50177 0
M  V30 21471 H 1977.21 4.85432 -1.31776 0
M  V30 21472 H 1976.91 5.01228 -3.06667 0
M  V30 21473 H 1978.43 5.62857 -2.36695 0
M  V30 21474 H 1979.84 4.0794 -4.02813 0
M  V30 21475 H 1978.24 3.70166 -4.72332 0
M  V30 21476 H 1979.31 2.37868 -4.22548 0
M  V30 21477 N 1980.65 1.29477 0.898527 0
M  V30 21478 C 1981.58 1.17262 2.01921 0
M  V30 21479 C 1982.57 0.0665442 1.6997 0
M  V30 21480 O 1983.75 0.246223 1.92633 0
M  V30 21481 C 1980.88 0.849575 3.36748 0
M  V30 21482 C 1979.83 1.91209 3.82914 0
M  V30 21483 C 1979.16 1.44234 5.14879 0
M  V30 21484 C 1980.46 3.32113 4.03111 0
M  V30 21485 H 1982.15 2.11015 2.12398 0
M  V30 21486 H 1979.7 1.01592 1.02054 0
M  V30 21487 H 1981.65 0.750826 4.14657 0
M  V30 21488 H 1980.38 -0.123652 3.26366 0
M  V30 21489 H 1979.04 2.00025 3.07222 0
M  V30 21490 H 1978.68 0.457753 5.00913 0
M  V30 21491 H 1978.38 2.15293 5.46738 0
M  V30 21492 H 1979.91 1.35711 5.95327 0
M  V30 21493 H 1981.32 3.26133 4.71498 0
M  V30 21494 H 1979.72 4.0114 4.46326 0
M  V30 21495 H 1980.79 3.75004 3.07408 0
M  V30 21496 N 1982.13 -1.10905 1.11972 0
M  V30 21497 C 1983.06 -2.16893 0.740943 0
M  V30 21498 C 1984.08 -1.61166 -0.230099 0
M  V30 21499 O 1985.27 -1.78496 -0.0121612 0
M  V30 21500 C 1982.37 -3.38817 0.0751853 0
M  V30 21501 C 1981.54 -4.23998 1.07446 0
M  V30 21502 C 1980.6 -5.2438 0.437225 0
M  V30 21503 O 1979.62 -5.58611 1.09279 0
M  V30 21504 N 1980.83 -5.74996 -0.797475 0
M  V30 21505 H 1983.59 -2.49998 1.65291 0
M  V30 21506 H 1981.15 -1.26479 1.01068 0
M  V30 21507 H 1983.14 -4.03069 -0.362985 0
M  V30 21508 H 1981.71 -3.03728 -0.739454 0
M  V30 21509 H 1980.93 -3.56116 1.69041 0
M  V30 21510 H 1982.22 -4.77745 1.75034 0
M  V30 21511 H 1981.62 -5.49376 -1.34915 0
M  V30 21512 H 1980.18 -6.41057 -1.17854 0
M  V30 21513 N 1983.61 -0.910886 -1.2861 0
M  V30 21514 C 1984.52 -0.402088 -2.31129 0
M  V30 21515 C 1985.54 0.508811 -1.66394 0
M  V30 21516 O 1986.71 0.395691 -1.97475 0
M  V30 21517 C 1983.78 0.352182 -3.44907 0
M  V30 21518 C 1982.84 -0.59159 -4.25204 0
M  V30 21519 C 1982.07 0.126778 -5.33549 0
M  V30 21520 O 1982.29 1.34897 -5.54219 0
M  V30 21521 O 1981.23 -0.536442 -5.99505 0
M  V30 21522 H 1985.05 -1.25289 -2.76652 0
M  V30 21523 H 1982.64 -0.675604 -1.33251 0
M  V30 21524 H 1984.52 0.778285 -4.14151 0
M  V30 21525 H 1983.2 1.17886 -3.01471 0
M  V30 21526 H 1982.1 -1.06703 -3.5856 0
M  V30 21527 H 1983.44 -1.38501 -4.72312 0
M  V30 21528 N 1985.09 1.42434 -0.674558 0
M  V30 21529 C 1986 2.346 0.00398919 0
M  V30 21530 C 1987.01 1.55078 0.789109 0
M  V30 21531 O 1988.19 1.87647 0.731485 0
M  V30 21532 C 1985.26 3.33607 0.94379 0
M  V30 21533 C 1984.32 4.29026 0.153229 0
M  V30 21534 C 1983.55 5.23304 1.04827 0
M  V30 21535 O 1983.77 5.2251 2.28779 0
M  V30 21536 O 1982.71 5.99742 0.509202 0
M  V30 21537 H 1986.53 2.94161 -0.755189 0
M  V30 21538 H 1984.12 1.42933 -0.434794 0
M  V30 21539 H 1986 3.94431 1.4833 0
M  V30 21540 H 1984.67 2.76519 1.68282 0
M  V30 21541 H 1983.58 3.71616 -0.430381 0
M  V30 21542 H 1984.91 4.89155 -0.546686 0
M  V30 21543 N 1986.57 0.417871 1.51959 0
M  V30 21544 C 1987.79 -0.154295 2.06324 0
M  V30 21545 C 1988.21 -1.38123 1.28714 0
M  V30 21546 O 1987.57 -1.79279 0.341355 0
M  V30 21547 C 1987.62 -0.496014 3.58081 0
M  V30 21548 O 1987.34 0.682208 4.32756 0
M  V30 21549 C 1988.84 -1.12097 4.28893 0
M  V30 21550 H 1986.06 -0.0165345 0.670796 0
M  V30 21551 H 1988.6 0.591345 1.95764 0
M  V30 21552 H 1986.76 -1.19155 3.6862 0
M  V30 21553 H 1987.17 0.394868 5.23012 0
M  V30 21554 H 1988.65 -1.31021 5.36225 0
M  V30 21555 H 1989.12 -2.09655 3.85929 0
M  V30 21556 H 1989.73 -0.465383 4.22746 0
M  V30 21557 N 1988.04 -1.56898 0.148573 0
M  V30 21558 C 1989.46 -1.58241 -0.207826 0
M  V30 21559 C 1989.66 -1.16291 -1.64556 0
M  V30 21560 O 1988.72 -0.863939 -2.3726 0
M  V30 21561 C 1990.03 -3.00654 0.0523559 0
M  V30 21562 C 1991.58 -3.12998 -0.0112297 0
M  V30 21563 C 1992.05 -4.57463 0.221641 0
M  V30 21564 N 1993.54 -4.62893 0.168624 0
M  V30 21565 C 1994.28 -5.72488 0.323296 0
M  V30 21566 N 1993.77 -6.90725 0.535776 0
M  V30 21567 N 1995.57 -5.61495 0.26079 0
M  V30 21568 H 1987.72 -1.82459 1.08731 0
M  V30 21569 H 1989.98 -0.8446 0.430529 0
M  V30 21570 H 1989.69 -3.3574 1.04745 0
M  V30 21571 H 1989.56 -3.71268 -0.666346 0
M  V30 21572 H 1991.95 -2.77752 -0.996873 0
M  V30 21573 H 1992.03 -2.44868 0.739826 0
M  V30 21574 H 1991.67 -4.93413 1.20439 0
M  V30 21575 H 1991.6 -5.23722 -0.549756 0
M  V30 21576 H 1994.09 -3.77899 0.00911581 0
M  V30 21577 H 1994.41 -7.70113 0.643862 0
M  V30 21578 H 1992.75 -6.92641 0.572117 0
M  V30 21579 H 1995.94 -4.68002 0.095543 0
M  V30 21580 H 1996.12 -6.46857 0.384765 0
M  V30 21581 N 1989.52 0.125209 -1.57102 0
M  V30 21582 C 1990.49 1.13792 -1.98957 0
M  V30 21583 C 1991.49 1.34656 -0.878887 0
M  V30 21584 O 1992.68 1.31278 -1.14506 0
M  V30 21585 C 1989.81 2.49371 -2.32437 0
M  V30 21586 H 1991 0.778319 -2.89624 0
M  V30 21587 H 1988.55 0.369299 -1.51875 0
M  V30 21588 H 1989.29 2.90263 -1.4463 0
M  V30 21589 H 1989.07 2.35583 -3.13437 0
M  V30 21590 H 1990.56 3.22268 -2.65581 0
M  V30 21591 N 1991 1.52564 0.395213 0
M  V30 21592 C 1991.95 1.769 1.48239 0
M  V30 21593 C 1992.92 0.611965 1.54416 0
M  V30 21594 O 1994.1 0.851019 1.7077 0
M  V30 21595 C 1991.24 1.93809 2.85538 0
M  V30 21596 C 1990.36 3.2149 2.88562 0
M  V30 21597 C 1989.49 3.28751 4.17248 0
M  V30 21598 C 1988.53 4.5058 4.143 0
M  V30 21599 N 1987.67 4.55156 5.34581 0
M  V30 21600 H 1992.51 2.69683 1.26788 0
M  V30 21601 H 1990.04 1.33618 0.615189 0
M  V30 21602 H 1992 2.01597 3.6526 0
M  V30 21603 H 1990.63 1.04394 3.05453 0
M  V30 21604 H 1989.68 3.22805 2.01249 0
M  V30 21605 H 1991 4.11262 2.82251 0
M  V30 21606 H 1990.15 3.35687 5.0537 0
M  V30 21607 H 1988.89 2.36943 4.26274 0
M  V30 21608 H 1987.89 4.43775 3.24567 0
M  V30 21609 H 1989.12 5.43698 4.06902 0
M  V30 21610 H 1987.06 3.66237 5.44248 0
M  V30 21611 H 1986.98 5.38791 5.30321 0
M  V30 21612 H 1988.25 4.6634 6.24618 0
M  V30 21613 N 1992.48 -0.653289 1.43422 0
M  V30 21614 C 1993.41 -1.77779 1.51383 0
M  V30 21615 C 1994.39 -1.6606 0.368515 0
M  V30 21616 O 1995.57 -1.85157 0.585721 0
M  V30 21617 C 1992.7 -3.16206 1.43635 0
M  V30 21618 C 1991.66 -3.42688 2.56415 0
M  V30 21619 C 1990.98 -4.80915 2.3372 0
M  V30 21620 C 1992.28 -3.3744 3.98662 0
M  V30 21621 H 1993.98 -1.71374 2.45502 0
M  V30 21622 H 1991.52 -0.823062 1.1816 0
M  V30 21623 H 1993.48 -3.94627 1.47808 0
M  V30 21624 H 1992.2 -3.23341 0.460202 0
M  V30 21625 H 1990.86 -2.66638 2.51594 0
M  V30 21626 H 1990.51 -4.84726 1.34349 0
M  V30 21627 H 1990.21 -4.99594 3.09321 0
M  V30 21628 H 1991.73 -5.61594 2.39677 0
M  V30 21629 H 1993.15 -4.05798 4.0497 0
M  V30 21630 H 1991.54 -3.67656 4.74288 0
M  V30 21631 H 1992.61 -2.35624 4.23803 0
M  V30 21632 N 1993.96 -1.29952 -0.891648 0
M  V30 21633 C 1994.92 -1.15756 -1.97821 0
M  V30 21634 C 1995.92 -0.0906975 -1.60544 0
M  V30 21635 O 1997.11 -0.338283 -1.70884 0
M  V30 21636 C 1994.24 -0.771976 -3.32044 0
M  V30 21637 H 1995.43 -2.12281 -2.11842 0
M  V30 21638 H 1992.99 -1.13253 -1.07719 0
M  V30 21639 H 1993.72 0.193059 -3.23725 0
M  V30 21640 H 1993.51 -1.54291 -3.60467 0
M  V30 21641 H 1995 -0.695941 -4.1176 0
M  V30 21642 N 1995.44 1.1031 -1.12559 0
M  V30 21643 C 1996.37 2.18738 -0.817073 0
M  V30 21644 C 1997.35 1.68675 0.219681 0
M  V30 21645 O 1998.53 1.94033 0.0805889 0
M  V30 21646 C 1995.66 3.46231 -0.272317 0
M  V30 21647 C 1994.62 4.09575 -1.24228 0
M  V30 21648 C 1993.94 5.31784 -0.557693 0
M  V30 21649 C 1995.24 4.53135 -2.59743 0
M  V30 21650 H 1996.94 2.44802 -1.72372 0
M  V30 21651 H 1994.48 1.17658 -0.830221 0
M  V30 21652 H 1996.43 4.21377 -0.0442049 0
M  V30 21653 H 1995.16 3.19661 0.669677 0
M  V30 21654 H 1993.82 3.36437 -1.45622 0
M  V30 21655 H 1993.47 5.0149 0.389484 0
M  V30 21656 H 1993.17 5.75117 -1.20473 0
M  V30 21657 H 1994.69 6.0966 -0.338649 0
M  V30 21658 H 1996.1 5.19548 -2.42369 0
M  V30 21659 H 1994.5 5.07322 -3.20537 0
M  V30 21660 H 1995.57 3.65989 -3.18088 0
M  V30 21661 N 1996.91 0.917694 1.28125 0
M  V30 21662 C 1998.16 0.551804 1.94421 0
M  V30 21663 C 1998.48 -0.908163 1.72561 0
M  V30 21664 O 1997.75 -1.64255 1.06758 0
M  V30 21665 H 1996.33 0.201081 0.719427 0
M  V30 21666 H 1998.99 1.16791 1.56032 0
M  V30 21667 H 1998.09 0.749587 3.02965 0
M  V30 21668 N 1998.39 -1.42074 0.682102 0
M  V30 21669 C 1999.62 -2.06288 0.214488 0
M  V30 21670 C 2000.04 -1.50942 -1.12241 0
M  V30 21671 O 1999.4 -0.63086 -1.6997 0
M  V30 21672 C 1999.45 -3.60208 0.167989 0
M  V30 21673 O 1998.55 -4.03306 -0.86129 0
M  V30 21674 H 1997.89 -0.655134 0.108148 0
M  V30 21675 H 2000.42 -1.8208 0.933171 0
M  V30 21676 H 2000.43 -4.08 -0.00570039 0
M  V30 21677 H 1999.11 -3.99863 1.14378 0
M  V30 21678 H 1997.68 -3.67048 -0.65805 0
M  V30 21679 N 1999.87 -0.425924 -1.51735 0
M  V30 21680 C 2001.29 -0.0776294 -1.59411 0
M  V30 21681 C 2001.49 1.41186 -1.43767 0
M  V30 21682 O 2000.54 2.18056 -1.27311 0
M  V30 21683 C 2001.85 -0.58755 -2.94904 0
M  V30 21684 C 2003.4 -0.54699 -3.08183 0
M  V30 21685 C 2003.88 -1.0337 -4.46182 0
M  V30 21686 N 2005.37 -0.991208 -4.5247 0
M  V30 21687 C 2006.1 -1.3388 -5.57552 0
M  V30 21688 N 2005.6 -1.75868 -6.70106 0
M  V30 21689 N 2007.39 -1.25769 -5.47849 0
M  V30 21690 H 1999.54 -1.39519 -1.60151 0
M  V30 21691 H 2001.81 -0.574214 -0.754309 0
M  V30 21692 H 2001.51 -1.62925 -3.11686 0
M  V30 21693 H 2001.39 -0.0062584 -3.77199 0
M  V30 21694 H 2003.77 0.485701 -2.91076 0
M  V30 21695 H 2003.85 -1.16454 -2.27754 0
M  V30 21696 H 2003.5 -2.0648 -4.64035 0
M  V30 21697 H 2003.43 -0.39279 -5.25133 0
M  V30 21698 H 2005.92 -0.682721 -3.71682 0
M  V30 21699 H 2006.23 -2.00657 -7.46295 0
M  V30 21700 H 2004.58 -1.79785 -6.71344 0
M  V30 21701 H 2007.77 -0.928407 -4.58801 0
M  V30 21702 H 2007.94 -1.53187 -6.29633 0
M  V30 21703 N 2001.35 1.56817 -0.156891 0
M  V30 21704 C 2002.59 1.9673 0.492464 0
M  V30 21705 C 2002.93 1.04226 1.63862 0
M  V30 21706 O 2002.2 0.0865469 1.94307 0
M  V30 21707 C 2002.48 3.46246 0.989218 0
M  V30 21708 C 2002.34 4.49529 -0.156119 0
M  V30 21709 C 2003.66 3.98502 1.86773 0
M  V30 21710 H 2000.78 0.715297 0.177537 0
M  V30 21711 H 2003.42 1.88477 -0.240116 0
M  V30 21712 H 2001.57 3.53411 1.61348 0
M  V30 21713 H 2003.24 4.54437 -0.792781 0
M  V30 21714 H 2001.48 4.26098 -0.813797 0
M  V30 21715 H 2002.15 5.51507 0.233341 0
M  V30 21716 H 2004.63 3.93879 1.34159 0
M  V30 21717 H 2003.51 5.03564 2.18436 0
M  V30 21718 H 2003.77 3.4145 2.80828 0
M  V30 21719 N 2002.83 -0.116876 1.57166 0
M  V30 21720 C 2004.24 -0.470473 1.52508 0
M  V30 21721 C 2004.44 -1.8174 0.870224 0
M  V30 21722 O 2003.5 -2.48395 0.453461 0
M  V30 21723 C 2004.81 -0.453012 2.97268 0
M  V30 21724 C 2006.36 -0.536413 3.08369 0
M  V30 21725 C 2006.83 -0.549319 4.54694 0
M  V30 21726 N 2008.32 -0.610698 4.59157 0
M  V30 21727 C 2009.06 -0.642166 5.69793 0
M  V30 21728 N 2008.56 -0.631152 6.89919 0
M  V30 21729 N 2010.35 -0.685335 5.57906 0
M  V30 21730 H 2002.5 0.765638 1.98121 0
M  V30 21731 H 2004.76 0.282662 0.904879 0
M  V30 21732 H 2004.47 0.469074 3.48558 0
M  V30 21733 H 2004.34 -1.28004 3.54817 0
M  V30 21734 H 2006.73 -1.44892 2.57081 0
M  V30 21735 H 2006.81 0.318339 2.53811 0
M  V30 21736 H 2006.45 0.35915 5.06629 0
M  V30 21737 H 2006.38 -1.42098 5.07066 0
M  V30 21738 H 2008.88 -0.625287 3.72691 0
M  V30 21739 H 2009.19 -0.657846 7.69995 0
M  V30 21740 H 2007.53 -0.598543 6.92418 0
M  V30 21741 H 2010.72 -0.691318 4.62967 0
M  V30 21742 H 2010.9 -0.706392 6.44138 0
M  V30 21743 N 2004.3 -1.52772 -0.387116 0
M  V30 21744 C 2005.27 -1.77036 -1.45571 0
M  V30 21745 C 2006.27 -0.64041 -1.47497 0
M  V30 21746 O 2007.46 -0.908478 -1.48635 0
M  V30 21747 C 2004.59 -1.87284 -2.84846 0
M  V30 21748 H 2005.78 -2.72452 -1.25339 0
M  V30 21749 H 2003.33 -1.43522 -0.61897 0
M  V30 21750 H 2004.07 -0.9386 -3.1042 0
M  V30 21751 H 2003.85 -2.6945 -2.84849 0
M  V30 21752 H 2005.34 -2.07723 -3.62272 0
M  V30 21753 N 2005.78 0.645673 -1.43767 0
M  V30 21754 C 2006.71 1.77057 -1.43966 0
M  V30 21755 C 2007.69 1.59805 -0.300185 0
M  V30 21756 O 2008.88 1.81886 -0.494937 0
M  V30 21757 C 2006 3.14453 -1.25845 0
M  V30 21758 C 2005.05 3.50389 -2.43166 0
M  V30 21759 S 2005.88 3.4951 -4.05713 0
M  V30 21760 C 2007.04 4.8955 -3.89989 0
M  V30 21761 H 2007.27 1.76619 -2.39151 0
M  V30 21762 H 2004.8 0.818994 -1.30889 0
M  V30 21763 H 2006.76 3.93747 -1.16077 0
M  V30 21764 H 2005.42 3.12446 -0.321954 0
M  V30 21765 H 2004.62 4.50332 -2.26312 0
M  V30 21766 H 2004.22 2.78525 -2.49599 0
M  V30 21767 H 2006.51 5.78405 -3.5278 0
M  V30 21768 H 2007.45 5.11457 -4.89711 0
M  V30 21769 H 2007.86 4.6344 -3.2231 0
M  V30 21770 N 2007.26 1.30423 0.884744 0
M  V30 21771 C 2008.17 1.18747 2.02327 0
M  V30 21772 C 2009.19 0.107354 1.73669 0
M  V30 21773 O 2010.36 0.322332 1.98804 0
M  V30 21774 C 2007.43 0.880361 3.35336 0
M  V30 21775 C 2006.49 2.04587 3.77416 0
M  V30 21776 C 2005.72 1.75332 5.04078 0
M  V30 21777 O 2005.94 0.68135 5.66316 0
M  V30 21778 O 2004.88 2.60579 5.4257 0
M  V30 21779 H 2008.7 2.14391 2.15105 0
M  V30 21780 H 2006.29 1.10019 1.01076 0
M  V30 21781 H 2008.17 0.7243 4.15129 0
M  V30 21782 H 2006.85 -0.0461673 3.23667 0
M  V30 21783 H 2005.75 2.25726 2.98326 0
M  V30 21784 H 2007.09 2.95413 3.9369 0
M  V30 21785 N 2008.74 -1.09711 1.13142 0
M  V30 21786 C 2009.7 -2.14443 0.809114 0
M  V30 21787 C 2010.7 -1.59789 -0.18005 0
M  V30 21788 O 2011.89 -1.74137 0.0466686 0
M  V30 21789 C 2009.02 -3.40291 0.203714 0
M  V30 21790 H 2010.22 -2.44466 1.73713 0
M  V30 21791 H 2007.77 -1.252 0.935663 0
M  V30 21792 H 2008.5 -3.15892 -0.733667 0
M  V30 21793 H 2008.29 -3.8125 0.916003 0
M  V30 21794 H 2009.78 -4.176 -0.00503851 0
M  V30 21795 N 2010.22 -0.924476 -1.27637 0
M  V30 21796 C 2011.13 -0.426579 -2.30689 0
M  V30 21797 C 2012.14 0.491134 -1.66925 0
M  V30 21798 O 2013.32 0.374724 -1.97883 0
M  V30 21799 C 2010.38 0.31558 -3.45261 0
M  V30 21800 C 2009.44 -0.636655 -4.24553 0
M  V30 21801 C 2008.68 0.0701807 -5.33654 0
M  V30 21802 O 2008.9 1.29011 -5.55619 0
M  V30 21803 O 2007.83 -0.599998 -5.98902 0
M  V30 21804 H 2011.66 -1.28216 -2.75308 0
M  V30 21805 H 2009.25 -0.689699 -1.32527 0
M  V30 21806 H 2011.13 0.734315 -4.14953 0
M  V30 21807 H 2009.8 1.14682 -3.02704 0
M  V30 21808 H 2008.71 -1.105 -3.57408 0
M  V30 21809 H 2010.04 -1.43502 -4.70816 0
M  V30 21810 N 2011.69 1.41711 -0.689627 0
M  V30 21811 C 2012.66 2.29181 -0.02958 0
M  V30 21812 C 2013.66 1.44079 0.714004 0
M  V30 21813 O 2014.85 1.65297 0.549783 0
M  V30 21814 C 2011.98 3.26851 0.968583 0
M  V30 21815 H 2013.17 2.89042 -0.799656 0
M  V30 21816 H 2010.73 1.49598 -0.45279 0
M  V30 21817 H 2011.46 2.71957 1.76663 0
M  V30 21818 H 2011.25 3.89639 0.4386 0
M  V30 21819 H 2012.74 3.92412 1.42839 0
M  V30 21820 N 2013.17 0.433965 1.51507 0
M  V30 21821 C 2014.14 -0.367505 2.26234 0
M  V30 21822 C 2015.14 -0.952583 1.29547 0
M  V30 21823 O 2016.33 -0.827563 1.53287 0
M  V30 21824 C 2013.46 -1.51964 3.05155 0
M  V30 21825 H 2014.65 0.28735 2.9852 0
M  V30 21826 H 2012.2 0.187052 1.55177 0
M  V30 21827 H 2012.94 -2.21064 2.37278 0
M  V30 21828 H 2012.72 -1.10632 3.76169 0
M  V30 21829 H 2014.21 -2.08597 3.61769 0
M  V30 21830 N 2014.65 -1.56732 0.165206 0
M  V30 21831 C 2015.9 -1.96308 -0.48036 0
M  V30 21832 C 2016.22 -1.05198 -1.6419 0
M  V30 21833 O 2015.49 -0.117108 -1.9555 0
M  V30 21834 H 2014.07 -0.724877 -0.180451 0
M  V30 21835 H 2016.73 -1.93354 0.244961 0
M  V30 21836 H 2015.83 -3.00459 -0.844437 0
M  V30 21837 N 2016.13 0.10854 -1.57226 0
M  V30 21838 C 2017.06 1.13362 -2.04135 0
M  V30 21839 C 2018.04 1.42573 -0.927733 0
M  V30 21840 O 2019.22 1.52835 -1.19813 0
M  V30 21841 C 2016.35 2.45708 -2.45449 0
M  V30 21842 C 2015.31 2.30935 -3.60351 0
M  V30 21843 C 2014.63 3.68337 -3.87597 0
M  V30 21844 C 2015.93 1.76112 -4.91713 0
M  V30 21845 H 2017.63 0.74341 -2.90024 0
M  V30 21846 H 2015.17 0.356157 -1.39526 0
M  V30 21847 H 2017.13 3.17679 -2.76872 0
M  V30 21848 H 2015.85 2.86639 -1.56544 0
M  V30 21849 H 2014.51 1.61411 -3.29153 0
M  V30 21850 H 2014.16 4.06772 -2.95881 0
M  V30 21851 H 2013.86 3.59303 -4.64946 0
M  V30 21852 H 2015.38 4.41797 -4.21483 0
M  V30 21853 H 2016.8 2.3791 -5.21605 0
M  V30 21854 H 2015.19 1.77872 -5.73133 0
M  V30 21855 H 2016.26 0.71947 -4.79533 0
M  V30 21856 N 2017.61 1.52975 0.379009 0
M  V30 21857 C 2019.02 1.42448 0.719772 0
M  V30 21858 C 2019.22 0.552842 1.93768 0
M  V30 21859 O 2018.28 0.0301168 2.52482 0
M  V30 21860 C 2019.59 2.85448 0.945527 0
M  V30 21861 C 2021.14 2.94991 1.04638 0
M  V30 21862 C 2021.61 4.39024 1.30469 0
M  V30 21863 N 2023.11 4.42393 1.37269 0
M  V30 21864 C 2023.84 5.50931 1.58941 0
M  V30 21865 N 2023.34 6.69538 1.78017 0
M  V30 21866 N 2025.13 5.38489 1.61202 0
M  V30 21867 H 2017.28 2.08161 -0.422247 0
M  V30 21868 H 2019.54 0.939485 -0.126776 0
M  V30 21869 H 2019.25 3.51486 0.122608 0
M  V30 21870 H 2019.12 3.28299 1.85741 0
M  V30 21871 H 2021.51 2.29115 1.85985 0
M  V30 21872 H 2021.59 2.55554 0.11218 0
M  V30 21873 H 2021.24 5.0547 0.496281 0
M  V30 21874 H 2021.17 4.76022 2.2519 0
M  V30 21875 H 2023.66 3.56909 1.24195 0
M  V30 21876 H 2023.97 7.4803 1.94089 0
M  V30 21877 H 2022.31 6.72549 1.75222 0
M  V30 21878 H 2025.51 4.44796 1.45856 0
M  V30 21879 H 2025.68 6.23144 1.77751 0
M  V30 21880 N 2019.08 -0.63804 1.44107 0
M  V30 21881 C 2019.99 -1.77914 1.52917 0
M  V30 21882 C 2021.01 -1.68972 0.415266 0
M  V30 21883 O 2022.19 -1.89872 0.671613 0
M  V30 21884 C 2019.25 -3.14268 1.46412 0
M  V30 21885 C 2018.31 -3.34893 2.68598 0
M  V30 21886 C 2017.55 -4.64742 2.62394 0
M  V30 21887 O 2017.77 -5.45095 1.68011 0
M  V30 21888 O 2016.7 -4.87419 3.53138 0
M  V30 21889 H 2020.53 -1.73435 2.49307 0
M  V30 21890 H 2018.11 -0.798412 1.26276 0
M  V30 21891 H 2020 -3.95564 1.45282 0
M  V30 21892 H 2018.67 -3.19304 0.531634 0
M  V30 21893 H 2017.58 -2.53302 2.75297 0
M  V30 21894 H 2018.91 -3.34714 3.6087 0
M  V30 21895 N 2020.56 -1.3089 -0.877815 0
M  V30 21896 C 2021.49 -1.13694 -1.99013 0
M  V30 21897 C 2022.51 -0.0781797 -1.62612 0
M  V30 21898 O 2023.7 -0.324906 -1.75518 0
M  V30 21899 C 2020.8 -0.713232 -3.3131 0
M  V30 21900 C 2019.97 -1.8553 -3.96103 0
M  V30 21901 C 2019.03 -1.41895 -5.06707 0
M  V30 21902 O 2018.05 -2.12734 -5.27952 0
M  V30 21903 N 2019.26 -0.301958 -5.79714 0
M  V30 21904 H 2022.02 -2.09499 -2.14313 0
M  V30 21905 H 2019.58 -1.2312 -1.05133 0
M  V30 21906 H 2021.57 -0.404189 -4.02677 0
M  V30 21907 H 2020.14 0.152987 -3.12225 0
M  V30 21908 H 2019.36 -2.33208 -3.17817 0
M  V30 21909 H 2020.65 -2.62046 -4.3613 0
M  V30 21910 H 2020.05 0.288154 -5.64966 0
M  V30 21911 H 2018.61 -0.0524068 -6.51779 0
M  V30 21912 N 2022.04 1.0911 -1.13723 0
M  V30 21913 C 2022.97 2.17859 -0.840227 0
M  V30 21914 C 2023.95 1.68899 0.201778 0
M  V30 21915 O 2025.14 1.94107 0.0600046 0
M  V30 21916 C 2022.27 3.45922 -0.309024 0
M  V30 21917 C 2021.22 4.08234 -1.28565 0
M  V30 21918 C 2020.55 5.31162 -0.614064 0
M  V30 21919 C 2021.85 4.50354 -2.64534 0
M  V30 21920 H 2023.54 2.4296 -1.74959 0
M  V30 21921 H 2021.09 1.16771 -0.842653 0
M  V30 21922 H 2023.04 4.21306 -0.088895 0
M  V30 21923 H 2021.76 3.20353 0.635735 0
M  V30 21924 H 2020.42 3.34873 -1.49183 0
M  V30 21925 H 2020.07 5.01875 0.336272 0
M  V30 21926 H 2019.77 5.73807 -1.26566 0
M  V30 21927 H 2021.29 6.09267 -0.403293 0
M  V30 21928 H 2022.71 5.16948 -2.47866 0
M  V30 21929 H 2021.11 5.03894 -3.259 0
M  V30 21930 H 2022.18 3.62594 -3.21952 0
M  V30 21931 N 2023.52 0.931232 1.27145 0
M  V30 21932 C 2024.43 0.438807 2.3046 0
M  V30 21933 C 2025.44 -0.482275 1.67183 0
M  V30 21934 O 2026.62 -0.364225 1.98079 0
M  V30 21935 C 2023.69 -0.297266 3.45423 0
M  V30 21936 C 2022.75 0.659161 4.24209 0
M  V30 21937 C 2021.98 -0.0418787 5.33684 0
M  V30 21938 O 2022.2 -1.26062 5.56295 0
M  V30 21939 O 2021.14 0.631751 5.98575 0
M  V30 21940 H 2024.96 1.29675 2.74624 0
M  V30 21941 H 2022.55 0.696718 1.3216 0
M  V30 21942 H 2024.43 -0.712299 4.15336 0
M  V30 21943 H 2023.1 -1.13075 3.03308 0
M  V30 21944 H 2022.01 1.12394 3.56817 0
M  V30 21945 H 2023.34 1.45997 4.70049 0
M  V30 21946 N 2025 -1.41343 0.697132 0
M  V30 21947 C 2025.91 -2.34576 0.0333341 0
M  V30 21948 C 2026.92 -1.56313 -0.764337 0
M  V30 21949 O 2028.1 -1.88787 -0.70154 0
M  V30 21950 C 2025.16 -3.35066 -0.890597 0
M  V30 21951 C 2024.23 -4.29216 -0.0849556 0
M  V30 21952 C 2023.46 -5.24905 -0.964881 0
M  V30 21953 O 2023.68 -5.26083 -2.20437 0
M  V30 21954 O 2022.62 -6.00476 -0.413724 0
M  V30 21955 H 2026.44 -2.92922 0.801892 0
M  V30 21956 H 2024.03 -1.42223 0.457478 0
M  V30 21957 H 2025.91 -3.96741 -1.42036 0
M  V30 21958 H 2024.58 -2.79161 -1.63862 0
M  V30 21959 H 2023.49 -3.70884 0.489447 0
M  V30 21960 H 2024.82 -4.88223 0.624437 0
M  V30 21961 N 2026.48 -0.441993 -1.51275 0
M  V30 21962 C 2027.39 0.373145 -2.31613 0
M  V30 21963 C 2028.4 1.02333 -1.40726 0
M  V30 21964 O 2029.58 1.01768 -1.73796 0
M  V30 21965 C 2026.64 1.45705 -3.14597 0
M  V30 21966 C 2025.7 0.826508 -4.21269 0
M  V30 21967 C 2024.94 1.85876 -5.00286 0
M  V30 21968 O 2025.16 3.08159 -4.79994 0
M  V30 21969 O 2024.09 1.44671 -5.84255 0
M  V30 21970 H 2027.92 -0.282837 -3.0238 0
M  V30 21971 H 2025.5 -0.204432 -1.47995 0
M  V30 21972 H 2027.39 2.08556 -3.66172 0
M  V30 21973 H 2026.06 2.09703 -2.46589 0
M  V30 21974 H 2024.97 0.15982 -3.73758 0
M  V30 21975 H 2026.3 0.229942 -4.91663 0
M  V30 21976 N 2027.95 1.56642 -0.173515 0
M  V30 21977 C 2028.92 2.16857 0.742008 0
M  V30 21978 C 2029.92 1.11721 1.1565 0
M  V30 21979 O 2031.11 1.37223 1.0731 0
M  V30 21980 C 2028.24 2.7532 2.01026 0
M  V30 21981 H 2029.43 2.99108 0.217769 0
M  V30 21982 H 2026.98 1.56115 0.0760536 0
M  V30 21983 H 2027.72 1.96808 2.57754 0
M  V30 21984 H 2027.5 3.52264 1.722 0
M  V30 21985 H 2028.99 3.21626 2.66358 0
M  V30 21986 N 2029.43 -0.1002 1.57281 0
M  V30 21987 C 2030.39 -1.10612 2.00743 0
M  V30 21988 C 2031.39 -1.33241 0.900199 0
M  V30 21989 O 2032.58 -1.2944 1.1658 0
M  V30 21990 C 2029.72 -2.45642 2.36375 0
M  V30 21991 H 2030.91 -0.732144 2.90826 0
M  V30 21992 H 2028.46 -0.345091 1.52443 0
M  V30 21993 H 2029.2 -2.87925 1.4923 0
M  V30 21994 H 2028.98 -2.30567 3.17146 0
M  V30 21995 H 2030.47 -3.18002 2.70674 0
M  V30 21996 N 2030.91 -1.53174 -0.370891 0
M  V30 21997 C 2031.87 -1.7857 -1.43685 0
M  V30 21998 C 2032.87 -0.656018 -1.4681 0
M  V30 21999 O 2034.06 -0.924191 -1.47663 0
M  V30 22000 C 2031.19 -1.90295 -2.82844 0
M  V30 22001 H 2032.39 -2.73766 -1.22442 0
M  V30 22002 H 2029.94 -1.4417 -0.603713 0
M  V30 22003 H 2030.68 -0.971472 -3.09407 0
M  V30 22004 H 2030.46 -2.72456 -2.81975 0
M  V30 22005 H 2031.95 -2.11554 -3.60048 0
M  V30 22006 N 2032.39 0.630389 -1.44443 0
M  V30 22007 C 2033.8 0.948649 -1.28346 0
M  V30 22008 C 2034 2.00298 -0.219776 0
M  V30 22009 O 2033.06 2.49406 0.394082 0
M  V30 22010 C 2034.37 1.41121 -2.65528 0
M  V30 22011 C 2035.92 1.52665 -2.73244 0
M  V30 22012 C 2036.4 2.02305 -4.10897 0
M  V30 22013 N 2037.89 2.09574 -4.13077 0
M  V30 22014 C 2038.62 2.49156 -5.16439 0
M  V30 22015 N 2038.12 2.87869 -6.30161 0
M  V30 22016 N 2039.91 2.49296 -5.03794 0
M  V30 22017 H 2032.06 -0.0668759 -2.12295 0
M  V30 22018 H 2034.32 0.032708 -0.947436 0
M  V30 22019 H 2034.03 0.710811 -3.44442 0
M  V30 22020 H 2033.9 2.38208 -2.92466 0
M  V30 22021 H 2036.29 2.21802 -1.94648 0
M  V30 22022 H 2036.37 0.539516 -2.50046 0
M  V30 22023 H 2036.02 1.33763 -4.89969 0
M  V30 22024 H 2035.95 3.01892 -4.31473 0
M  V30 22025 H 2038.44 1.82338 -3.31001 0
M  V30 22026 H 2038.75 3.16887 -7.04842 0
M  V30 22027 H 2037.1 2.85619 -6.33598 0
M  V30 22028 H 2040.29 2.18443 -4.14005 0
M  V30 22029 H 2040.46 2.79819 -5.8447 0
M  V30 22030 N 2033.87 1.31354 0.870861 0
M  V30 22031 C 2034.78 1.20887 2.01056 0
M  V30 22032 C 2035.79 0.125768 1.73545 0
M  V30 22033 O 2036.97 0.3434 1.98451 0
M  V30 22034 C 2034.03 0.915879 3.34384 0
M  V30 22035 C 2033.09 2.08579 3.75225 0
M  V30 22036 C 2032.33 1.80668 5.0219 0
M  V30 22037 O 2032.55 0.741377 5.65561 0
M  V30 22038 O 2031.48 2.66319 5.39776 0
M  V30 22039 H 2035.31 2.16661 2.12819 0
M  V30 22040 H 2032.89 1.11084 0.999031 0
M  V30 22041 H 2034.78 0.768289 4.14337 0
M  V30 22042 H 2033.45 -0.0118355 3.23698 0
M  V30 22043 H 2032.36 2.28877 2.95916 0
M  V30 22044 H 2033.69 2.99572 3.90535 0
M  V30 22045 N 2035.34 -1.08505 1.143 0
M  V30 22046 C 2036.76 -1.32937 0.883172 0
M  V30 22047 C 2036.96 -1.95791 -0.47623 0
M  V30 22048 O 2036.02 -2.2103 -1.22073 0
M  V30 22049 C 2037.33 -2.23189 2.01512 0
M  V30 22050 C 2038.88 -2.36672 2.0483 0
M  V30 22051 C 2039.35 -3.30266 3.17314 0
M  V30 22052 N 2040.84 -3.37843 3.16886 0
M  V30 22053 C 2041.58 -4.1029 4.00561 0
M  V30 22054 N 2041.07 -4.85454 4.94274 0
M  V30 22055 N 2042.87 -4.06111 3.88626 0
M  V30 22056 H 2035.02 -0.660869 2.01857 0
M  V30 22057 H 2037.28 -0.353741 0.879529 0
M  V30 22058 H 2036.99 -1.84248 2.99576 0
M  V30 22059 H 2036.86 -3.23644 1.93738 0
M  V30 22060 H 2039.25 -2.74873 1.07373 0
M  V30 22061 H 2039.33 -1.35963 2.16674 0
M  V30 22062 H 2038.97 -2.92787 4.15016 0
M  V30 22063 H 2038.9 -4.30901 3.02707 0
M  V30 22064 H 2041.39 -2.84257 2.49011 0
M  V30 22065 H 2041.71 -5.38193 5.54588 0
M  V30 22066 H 2040.05 -4.8451 4.98272 0
M  V30 22067 H 2043.24 -3.46497 3.14734 0
M  V30 22068 H 2043.42 -4.6231 4.54064 0
M  V30 22069 N 2036.82 -0.937962 -1.26649 0
M  V30 22070 C 2037.78 -0.449635 -2.24746 0
M  V30 22071 C 2038.78 0.437489 -1.54734 0
M  V30 22072 O 2039.97 0.237121 -1.72579 0
M  V30 22073 C 2037.11 0.35235 -3.39074 0
M  V30 22074 H 2038.3 -1.31648 -2.6946 0
M  V30 22075 H 2035.85 -0.71962 -1.38749 0
M  V30 22076 H 2036.59 1.23758 -2.99757 0
M  V30 22077 H 2036.37 -0.283853 -3.91071 0
M  V30 22078 H 2037.86 0.684038 -4.1196 0
M  V30 22079 N 2038.3 1.40971 -0.704618 0
M  V30 22080 C 2039.55 2.00682 -0.238954 0
M  V30 22081 C 2039.87 1.56119 1.16842 0
M  V30 22082 O 2039.14 0.795777 1.79009 0
M  V30 22083 H 2037.72 0.742108 -0.0853541 0
M  V30 22084 H 2040.38 1.72467 -0.9078 0
M  V30 22085 H 2039.48 3.10986 -0.26345 0
M  V30 22086 N 2039.78 0.45001 1.51039 0
M  V30 22087 C 2041.19 0.10298 1.59267 0
M  V30 22088 C 2041.39 -1.38881 1.45995 0
M  V30 22089 O 2040.45 -2.16003 1.30763 0
M  V30 22090 C 2041.76 0.634392 2.93932 0
M  V30 22091 C 2043.31 0.59595 3.07274 0
M  V30 22092 C 2043.79 1.10455 4.44481 0
M  V30 22093 N 2045.28 1.06307 4.50836 0
M  V30 22094 C 2046.01 1.42733 5.55351 0
M  V30 22095 N 2045.51 1.86506 6.67224 0
M  V30 22096 N 2047.3 1.34469 5.45779 0
M  V30 22097 H 2039.45 1.42049 1.57911 0
M  V30 22098 H 2041.72 0.586142 0.745078 0
M  V30 22099 H 2041.42 1.67863 3.09055 0
M  V30 22100 H 2041.3 0.0662668 3.77142 0
M  V30 22101 H 2043.68 -0.439332 2.91811 0
M  V30 22102 H 2043.76 1.20063 2.25873 0
M  V30 22103 H 2043.41 2.13836 4.60692 0
M  V30 22104 H 2043.34 0.476284 5.24442 0
M  V30 22105 H 2045.83 0.741765 3.70549 0
M  V30 22106 H 2046.14 2.12505 7.43009 0
M  V30 22107 H 2044.49 1.90443 6.68398 0
M  V30 22108 H 2047.68 1.00128 4.57266 0
M  V30 22109 H 2047.85 1.63185 6.27116 0
M  V30 22110 N 2041.26 -1.56548 0.18182 0
M  V30 22111 C 2042.17 -2.22065 -0.756597 0
M  V30 22112 C 2043.18 -1.21554 -1.24501 0
M  V30 22113 O 2044.36 -1.5425 -1.29495 0
M  V30 22114 C 2041.42 -2.85678 -1.9644 0
M  V30 22115 C 2040.48 -4.0142 -1.52185 0
M  V30 22116 C 2039.72 -4.61991 -2.67209 0
M  V30 22117 O 2039.94 -4.21463 -3.8435 0
M  V30 22118 O 2038.87 -5.51685 -2.40682 0
M  V30 22119 H 2042.7 -3.02838 -0.228696 0
M  V30 22120 H 2040.29 -1.49326 -0.0468661 0
M  V30 22121 H 2042.17 -3.25973 -2.67057 0
M  V30 22122 H 2040.84 -2.07894 -2.48116 0
M  V30 22123 H 2039.75 -3.65774 -0.784878 0
M  V30 22124 H 2041.08 -4.80828 -1.0519 0
M  V30 22125 N 2042.73 0.0918577 -1.57332 0
M  V30 22126 C 2043.66 1.11191 -2.05326 0
M  V30 22127 C 2044.65 1.41581 -0.942802 0
M  V30 22128 O 2045.83 1.51555 -1.21428 0
M  V30 22129 C 2042.96 2.4309 -2.48041 0
M  V30 22130 C 2041.91 2.271 -3.6278 0
M  V30 22131 C 2041.24 3.64205 -3.91482 0
M  V30 22132 C 2042.54 1.70886 -4.93554 0
M  V30 22133 H 2044.23 0.712608 -2.90796 0
M  V30 22134 H 2041.78 0.341338 -1.39896 0
M  V30 22135 H 2043.73 3.14724 -2.80226 0
M  V30 22136 H 2042.46 2.84962 -1.59575 0
M  V30 22137 H 2041.12 1.57911 -3.30847 0
M  V30 22138 H 2040.76 4.03611 -3.00179 0
M  V30 22139 H 2040.46 3.54352 -4.68731 0
M  V30 22140 H 2041.99 4.37302 -4.26145 0
M  V30 22141 H 2043.4 2.32364 -5.24099 0
M  V30 22142 H 2041.8 1.71783 -5.74987 0
M  V30 22143 H 2042.87 0.668569 -4.80269 0
M  V30 22144 N 2044.21 1.53368 0.362763 0
M  V30 22145 C 2045.14 1.76293 1.4647 0
M  V30 22146 C 2046.16 0.643758 1.49531 0
M  V30 22147 O 2047.35 0.920081 1.5296 0
M  V30 22148 C 2044.45 1.83034 2.85222 0
M  V30 22149 C 2043.62 3.12714 3.05825 0
M  V30 22150 C 2042.68 3.1066 4.24708 0
M  V30 22151 O 2041.7 3.84449 4.19747 0
M  V30 22152 N 2042.91 2.31677 5.32265 0
M  V30 22153 H 2045.67 2.71376 1.27183 0
M  V30 22154 H 2043.23 1.52181 0.552508 0
M  V30 22155 H 2045.22 1.79134 3.62895 0
M  V30 22156 H 2043.79 0.952227 2.97744 0
M  V30 22157 H 2043.01 3.29893 2.15788 0
M  V30 22158 H 2044.3 3.98409 3.16461 0
M  V30 22159 H 2043.7 1.71243 5.39159 0
M  V30 22160 H 2042.26 2.33593 6.08504 0
M  V30 22161 N 2045.69 -0.62272 1.44776 0
M  V30 22162 C 2046.92 -1.40911 1.51498 0
M  V30 22163 C 2047.33 -1.88261 0.142579 0
M  V30 22164 O 2046.69 -1.61333 -0.853105 0
M  V30 22165 C 2046.74 -2.62379 2.48676 0
M  V30 22166 O 2046.46 -2.17001 3.80582 0
M  V30 22167 C 2047.96 -3.55413 2.64947 0
M  V30 22168 H 2045.18 -0.431862 0.513552 0
M  V30 22169 H 2047.73 -0.760822 1.8982 0
M  V30 22170 H 2045.88 -3.23281 2.13467 0
M  V30 22171 H 2046.3 -2.95811 4.33124 0
M  V30 22172 H 2047.77 -4.37227 3.36952 0
M  V30 22173 H 2048.25 -4.04771 1.70462 0
M  V30 22174 H 2048.85 -3.00374 3.01091 0
M  V30 22175 N 2047.17 -1.31814 -0.863883 0
M  V30 22176 C 2048.13 -1.19926 -1.95321 0
M  V30 22177 C 2049.13 -0.124731 -1.60316 0
M  V30 22178 O 2050.32 -0.374454 -1.70128 0
M  V30 22179 C 2047.45 -0.842234 -3.30332 0
M  V30 22180 H 2048.65 -2.16727 -2.07291 0
M  V30 22181 H 2046.2 -1.15512 -1.05293 0
M  V30 22182 H 2046.93 0.124348 -3.24062 0
M  V30 22183 H 2046.72 -1.61902 -3.57114 0
M  V30 22184 H 2048.21 -0.783125 -4.10191 0
M  V30 22185 N 2048.65 1.07897 -1.14873 0
M  V30 22186 C 2049.58 2.14852 -0.798188 0
M  V30 22187 C 2050.59 1.61719 0.187287 0
M  V30 22188 O 2051.78 1.78465 -0.0351681 0
M  V30 22189 C 2048.88 3.38498 -0.16499 0
M  V30 22190 C 2048.05 4.21 -1.1865 0
M  V30 22191 C 2047.11 5.23037 -0.576101 0
M  V30 22192 O 2046.14 5.55518 -1.24051 0
M  V30 22193 N 2047.34 5.76908 0.644745 0
M  V30 22194 H 2050.11 2.45528 -1.71861 0
M  V30 22195 H 2047.67 1.23755 -1.04386 0
M  V30 22196 H 2049.66 4.0389 0.255991 0
M  V30 22197 H 2048.23 3.05582 0.658666 0
M  V30 22198 H 2047.45 3.51509 -1.78423 0
M  V30 22199 H 2048.74 4.72937 -1.87639 0
M  V30 22200 H 2048.13 5.5276 1.20302 0
M  V30 22201 H 2046.69 6.43956 1.00816 0
M  V30 22202 N 2050.12 0.944665 1.2615 0
M  V30 22203 C 2051.09 0.461547 2.24505 0
M  V30 22204 C 2052.09 -0.429277 1.54964 0
M  V30 22205 O 2053.28 -0.227965 1.72702 0
M  V30 22206 C 2050.41 -0.334363 3.39256 0
M  V30 22207 H 2051.6 1.33075 2.68758 0
M  V30 22208 H 2049.16 0.726968 1.38365 0
M  V30 22209 H 2049.89 -1.22167 3.00409 0
M  V30 22210 H 2049.68 0.304588 3.90915 0
M  V30 22211 H 2051.17 -0.662181 4.12317 0
M  V30 22212 N 2051.6 -1.40596 0.712085 0
M  V30 22213 C 2052.53 -2.29193 0.0179139 0
M  V30 22214 C 2053.55 -1.45646 -0.727389 0
M  V30 22215 O 2054.74 -1.68973 -0.575349 0
M  V30 22216 C 2051.84 -3.23845 -0.998876 0
M  V30 22217 C 2051.01 -4.36229 -0.319822 0
M  V30 22218 C 2050.07 -5.11344 -1.24151 0
M  V30 22219 O 2049.09 -5.6453 -0.727627 0
M  V30 22220 N 2050.3 -5.20369 -2.57287 0
M  V30 22221 H 2053.06 -2.89409 0.778623 0
M  V30 22222 H 2050.62 -1.51928 0.559432 0
M  V30 22223 H 2052.61 -3.70968 -1.61757 0
M  V30 22224 H 2051.18 -2.64821 -1.66098 0
M  V30 22225 H 2050.4 -3.91279 0.479012 0
M  V30 22226 H 2051.69 -5.08574 0.151681 0
M  V30 22227 H 2051.09 -4.78635 -3.01538 0
M  V30 22228 H 2049.65 -5.7101 -3.14309 0
M  V30 22229 N 2053.08 -0.458013 -1.50798 0
M  V30 22230 C 2054.01 0.333063 -2.31112 0
M  V30 22231 C 2054.99 1.00231 -1.37433 0
M  V30 22232 O 2056.18 1.00199 -1.66354 0
M  V30 22233 C 2053.31 1.4229 -3.16814 0
M  V30 22234 C 2052.26 0.875993 -4.1894 0
M  V30 22235 C 2051.59 2.06313 -4.93294 0
M  V30 22236 C 2052.89 -0.103786 -5.22197 0
M  V30 22237 H 2054.58 -0.337222 -2.97495 0
M  V30 22238 H 2052.13 -0.163622 -1.43067 0
M  V30 22239 H 2054.08 1.98369 -3.7179 0
M  V30 22240 H 2052.8 2.12177 -2.48291 0
M  V30 22241 H 2051.46 0.337263 -3.65045 0
M  V30 22242 H 2051.11 2.74868 -4.21256 0
M  V30 22243 H 2050.81 1.70348 -5.62366 0
M  V30 22244 H 2052.33 2.62908 -5.511 0
M  V30 22245 H 2053.75 0.367392 -5.72122 0
M  V30 22246 H 2052.15 -0.377048 -5.98914 0
M  V30 22247 H 2053.22 -1.03392 -4.73749 0
M  V30 22248 N 2054.56 1.56449 -0.190119 0
M  V30 22249 C 2055.78 2.02261 0.458823 0
M  V30 22250 C 2056.21 1.06942 1.54742 0
M  V30 22251 O 2055.57 0.0520711 1.81225 0
M  V30 22252 C 2055.62 3.46549 0.996786 0
M  V30 22253 O 2054.72 3.54338 2.10993 0
M  V30 22254 H 2054.06 0.655191 0.1078 0
M  V30 22255 H 2056.59 2.02396 -0.299535 0
M  V30 22256 H 2056.6 3.8624 1.31465 0
M  V30 22257 H 2055.28 4.1542 0.199852 0
M  V30 22258 H 2053.85 3.2652 1.80109 0
M  V30 22259 N 2056.04 -0.0835127 1.57379 0
M  V30 22260 C 2056.95 -1.11858 2.06216 0
M  V30 22261 C 2057.96 -1.43137 0.989333 0
M  V30 22262 O 2059.14 -1.53548 1.30327 0
M  V30 22263 C 2056.2 -2.41603 2.48655 0
M  V30 22264 C 2055.27 -2.17401 3.70183 0
M  V30 22265 C 2054.5 -3.40959 4.10588 0
M  V30 22266 O 2054.72 -4.49637 3.50974 0
M  V30 22267 O 2053.66 -3.29863 5.03462 0
M  V30 22268 H 2057.48 -0.733741 2.94703 0
M  V30 22269 H 2055.07 -0.296834 1.46421 0
M  V30 22270 H 2056.95 -3.1798 2.76526 0
M  V30 22271 H 2055.62 -2.7949 1.63301 0
M  V30 22272 H 2054.53 -1.38767 3.47411 0
M  V30 22273 H 2055.86 -1.84401 4.56352 0
M  V30 22274 N 2057.52 -1.53558 -0.354624 0
M  V30 22275 C 2058.76 -1.71466 -1.09411 0
M  V30 22276 C 2059.12 -0.466375 -1.86662 0
M  V30 22277 O 2058.41 0.540835 -1.83808 0
M  V30 22278 C 2058.6 -2.91096 -2.07359 0
M  V30 22279 C 2058.43 -4.27439 -1.39734 0
M  V30 22280 C 2057.2 -4.92113 -1.14685 0
M  V30 22281 C 2059.4 -5.0757 -0.829317 0
M  V30 22282 N 2057.38 -6.12355 -0.43525 0
M  V30 22283 C 2058.75 -6.19505 -0.247678 0
M  V30 22284 C 2060.81 -4.92533 -0.729077 0
M  V30 22285 C 2059.51 -7.18047 0.424437 0
M  V30 22286 C 2061.54 -5.91358 -0.0707225 0
M  V30 22287 C 2060.9 -7.02623 0.499994 0
M  V30 22288 H 2057 -0.680585 -0.385134 0
M  V30 22289 H 2059.58 -1.90974 -0.379095 0
M  V30 22290 H 2057.75 -2.73109 -2.76163 0
M  V30 22291 H 2059.49 -2.97776 -2.74065 0
M  V30 22292 H 2056.24 -4.51462 -1.43103 0
M  V30 22293 H 2056.66 -6.76934 -0.0944978 0
M  V30 22294 H 2061.31 -4.06688 -1.15607 0
M  V30 22295 H 2059.02 -8.03475 0.863349 0
M  V30 22296 H 2062.61 -5.818 0.00605785 0
M  V30 22297 H 2061.49 -7.7778 1.00136 0
M  V30 22298 N 2058.99 0.615033 -1.45104 0
M  V30 22299 C 2060.41 0.934983 -1.29345 0
M  V30 22300 C 2060.61 2.00053 -0.241008 0
M  V30 22301 O 2059.67 2.4981 0.367607 0
M  V30 22302 C 2060.98 1.38297 -2.6701 0
M  V30 22303 C 2062.53 1.49759 -2.74848 0
M  V30 22304 C 2063 1.97936 -4.1302 0
M  V30 22305 N 2064.49 2.05181 -4.15277 0
M  V30 22306 C 2065.23 2.43664 -5.19052 0
M  V30 22307 N 2064.72 2.81169 -6.33179 0
M  V30 22308 N 2066.52 2.43938 -5.06409 0
M  V30 22309 H 2058.67 -0.0893888 -2.12212 0
M  V30 22310 H 2060.93 0.0226574 -0.947729 0
M  V30 22311 H 2060.64 0.674238 -3.45177 0
M  V30 22312 H 2060.51 2.35093 -2.94976 0
M  V30 22313 H 2062.9 2.19725 -1.9699 0
M  V30 22314 H 2062.98 0.512965 -2.50604 0
M  V30 22315 H 2062.62 1.28559 -4.9136 0
M  V30 22316 H 2062.55 2.97298 -4.34651 0
M  V30 22317 H 2065.04 1.78817 -3.32916 0
M  V30 22318 H 2065.36 3.09393 -7.08164 0
M  V30 22319 H 2063.7 2.78882 -6.36592 0
M  V30 22320 H 2066.89 2.1404 -4.16299 0
M  V30 22321 H 2067.07 2.73604 -5.87405 0
M  V30 22322 N 2060.47 1.3227 0.85688 0
M  V30 22323 C 2061.89 1.11212 1.14473 0
M  V30 22324 C 2062.09 -0.108857 2.01206 0
M  V30 22325 O 2061.14 -0.7944 2.39678 0
M  V30 22326 C 2062.46 2.39046 1.82421 0
M  V30 22327 C 2064 2.44782 1.95066 0
M  V30 22328 C 2064.48 3.72531 2.66429 0
M  V30 22329 N 2065.97 3.735 2.73956 0
M  V30 22330 C 2066.71 4.69049 3.29819 0
M  V30 22331 N 2066.2 5.74963 3.86509 0
M  V30 22332 N 2067.99 4.5655 3.27901 0
M  V30 22333 H 2060.15 2.10557 0.279231 0
M  V30 22334 H 2062.41 0.929507 0.186337 0
M  V30 22335 H 2062.11 3.28299 1.26145 0
M  V30 22336 H 2061.99 2.49838 2.82596 0
M  V30 22337 H 2064.38 1.5599 2.50502 0
M  V30 22338 H 2064.46 2.37944 0.938939 0
M  V30 22339 H 2064.1 4.61696 2.11658 0
M  V30 22340 H 2064.03 3.76639 3.68036 0
M  V30 22341 H 2066.52 2.96945 2.33735 0
M  V30 22342 H 2066.83 6.43931 4.27285 0
M  V30 22343 H 2065.18 5.7872 3.84848 0
M  V30 22344 H 2068.37 3.72973 2.82858 0
M  V30 22345 H 2068.54 5.31189 3.71136 0
M  V30 22346 N 2061.95 -1.07287 1.15444 0
M  V30 22347 C 2063.37 -1.31993 0.897222 0
M  V30 22348 C 2063.57 -1.96286 -0.455437 0
M  V30 22349 O 2062.62 -2.22313 -1.19722 0
M  V30 22350 C 2063.93 -2.2104 2.03868 0
M  V30 22351 C 2065.48 -2.34486 2.07329 0
M  V30 22352 C 2065.96 -3.26882 3.20799 0
M  V30 22353 N 2067.45 -3.34463 3.20451 0
M  V30 22354 C 2068.18 -4.06019 4.0489 0
M  V30 22355 N 2067.68 -4.80184 4.99395 0
M  V30 22356 N 2069.47 -4.01967 3.92911 0
M  V30 22357 H 2061.62 -0.639423 2.02547 0
M  V30 22358 H 2063.89 -0.344393 0.883231 0
M  V30 22359 H 2063.59 -1.8106 3.01513 0
M  V30 22360 H 2063.47 -3.21571 1.9716 0
M  V30 22361 H 2065.85 -2.73719 1.10282 0
M  V30 22362 H 2065.93 -1.33658 2.18104 0
M  V30 22363 H 2065.58 -2.88368 4.18098 0
M  V30 22364 H 2065.51 -4.27667 3.0726 0
M  V30 22365 H 2068 -2.816 2.52012 0
M  V30 22366 H 2068.31 -5.32281 5.60265 0
M  V30 22367 H 2066.66 -4.79198 5.03383 0
M  V30 22368 H 2069.85 -3.43139 3.18392 0
M  V30 22369 H 2070.02 -4.57468 4.58942 0
M  V30 22370 N 2063.43 -0.951342 -1.25647 0
M  V30 22371 C 2064.36 -0.426252 -2.25202 0
M  V30 22372 C 2065.37 0.456064 -1.56281 0
M  V30 22373 O 2066.56 0.264871 -1.76524 0
M  V30 22374 C 2063.66 0.405493 -3.36465 0
M  V30 22375 C 2062.83 -0.46305 -4.34942 0
M  V30 22376 C 2061.89 0.309948 -5.25286 0
M  V30 22377 O 2060.92 -0.290524 -5.68458 0
M  V30 22378 N 2062.12 1.60389 -5.57903 0
M  V30 22379 H 2064.89 -1.28213 -2.7089 0
M  V30 22380 H 2062.45 -0.821338 -1.39519 0
M  V30 22381 H 2064.44 0.930256 -3.93863 0
M  V30 22382 H 2063.01 1.16222 -2.90192 0
M  V30 22383 H 2062.23 -1.16894 -3.7647 0
M  V30 22384 H 2063.52 -1.05598 -4.97721 0
M  V30 22385 H 2062.92 2.11372 -5.24727 0
M  V30 22386 H 2061.47 2.07469 -6.179 0
M  V30 22387 N 2064.91 1.40216 -0.719531 0
M  V30 22388 C 2065.82 2.34494 -0.0706489 0
M  V30 22389 C 2066.83 1.5751 0.739372 0
M  V30 22390 O 2068.01 1.89879 0.671417 0
M  V30 22391 C 2065.07 3.36441 0.837178 0
M  V30 22392 C 2064.13 4.29297 0.0166603 0
M  V30 22393 C 2063.37 5.26374 0.881251 0
M  V30 22394 O 2063.59 5.29524 2.1204 0
M  V30 22395 O 2062.52 6.01059 0.318141 0
M  V30 22396 H 2066.35 2.91609 -0.848392 0
M  V30 22397 H 2063.93 1.41478 -0.480047 0
M  V30 22398 H 2065.82 3.98951 1.35707 0
M  V30 22399 H 2064.49 2.81733 1.594 0
M  V30 22400 H 2063.4 3.70059 -0.54839 0
M  V30 22401 H 2064.73 4.87168 -0.70203 0
M  V30 22402 N 2066.38 0.466004 1.50553 0
M  V30 22403 C 2067.29 -0.33625 2.32178 0
M  V30 22404 C 2068.31 -1.00081 1.42337 0
M  V30 22405 O 2069.49 -0.989904 1.75393 0
M  V30 22406 C 2066.55 -1.40682 3.16875 0
M  V30 22407 C 2065.61 -0.759384 4.2253 0
M  V30 22408 C 2064.84 -1.77894 5.03179 0
M  V30 22409 O 2065.07 -3.00483 4.84836 0
M  V30 22410 O 2064 -1.35358 5.86483 0
M  V30 22411 H 2067.83 0.330908 3.01892 0
M  V30 22412 H 2065.41 0.22795 1.47651 0
M  V30 22413 H 2067.29 -2.02704 3.69444 0
M  V30 22414 H 2065.97 -2.05753 2.49894 0
M  V30 22415 H 2064.88 -0.100338 3.73965 0
M  V30 22416 H 2066.21 -0.151694 4.91966 0
M  V30 22417 N 2067.86 -1.56346 0.198413 0
M  V30 22418 C 2068.77 -2.22855 -0.733001 0
M  V30 22419 C 2069.79 -1.22868 -1.23205 0
M  V30 22420 O 2070.96 -1.55615 -1.27852 0
M  V30 22421 C 2068.03 -2.87746 -1.93399 0
M  V30 22422 C 2067.09 -4.03012 -1.47919 0
M  V30 22423 C 2066.32 -4.64799 -2.62293 0
M  V30 22424 O 2066.55 -4.25516 -3.79859 0
M  V30 22425 O 2065.48 -5.54206 -2.34817 0
M  V30 22426 H 2069.31 -3.03063 -0.196563 0
M  V30 22427 H 2066.89 -1.49368 -0.0310254 0
M  V30 22428 H 2068.77 -3.28788 -2.63584 0
M  V30 22429 H 2067.45 -2.10514 -2.45897 0
M  V30 22430 H 2066.35 -3.66586 -0.746038 0
M  V30 22431 H 2067.69 -4.81917 -1.00084 0
M  V30 22432 N 2069.34 0.0751653 -1.57421 0
M  V30 22433 C 2070.3 1.07404 -2.02477 0
M  V30 22434 C 2071.3 1.31792 -0.921282 0
M  V30 22435 O 2072.49 1.27569 -1.18625 0
M  V30 22436 C 2069.63 2.4185 -2.40253 0
M  V30 22437 H 2070.82 0.685783 -2.91954 0
M  V30 22438 H 2068.37 0.320795 -1.52973 0
M  V30 22439 H 2069.11 2.85515 -1.53791 0
M  V30 22440 H 2068.89 2.25492 -3.20774 0
M  V30 22441 H 2070.38 3.13655 -2.75699 0
M  V30 22442 N 2070.82 1.53744 0.346476 0
M  V30 22443 C 2072.07 1.70512 1.0849 0
M  V30 22444 C 2072.39 0.469467 1.89264 0
M  V30 22445 O 2071.66 -0.516594 1.88966 0
M  V30 22446 H 2070.24 0.628636 0.403517 0
M  V30 22447 H 2072.9 1.9099 0.388459 0
M  V30 22448 H 2072 2.57472 1.76394 0
M  V30 22449 N 2072.3 -0.607329 1.45428 0
M  V30 22450 C 2073.26 -1.69997 1.53732 0
M  V30 22451 C 2074.26 -1.55304 0.416799 0
M  V30 22452 O 2075.45 -1.60367 0.680287 0
M  V30 22453 C 2072.58 -3.09267 1.43411 0
M  V30 22454 H 2073.77 -1.64001 2.51085 0
M  V30 22455 H 2071.33 -0.82308 1.32872 0
M  V30 22456 H 2072.06 -3.2084 0.47243 0
M  V30 22457 H 2071.85 -3.2134 2.24685 0
M  V30 22458 H 2073.34 -3.88855 1.52255 0
M  V30 22459 N 2073.77 -1.32722 -0.849853 0
M  V30 22460 C 2074.7 -1.24675 -1.97429 0
M  V30 22461 C 2075.69 -0.129581 -1.69606 0
M  V30 22462 O 2076.87 -0.317548 -1.91586 0
M  V30 22463 C 2074 -0.973971 -3.33363 0
M  V30 22464 C 2072.95 -2.05289 -3.75553 0
M  V30 22465 C 2072.28 -1.63244 -5.09171 0
M  V30 22466 C 2073.58 -3.46845 -3.90507 0
M  V30 22467 H 2075.27 -2.18753 -2.0442 0
M  V30 22468 H 2072.82 -1.0531 -0.982132 0
M  V30 22469 H 2074.77 -0.904206 -4.11585 0
M  V30 22470 H 2073.5 0.00243816 -3.266 0
M  V30 22471 H 2072.16 -2.11289 -2.99587 0
M  V30 22472 H 2071.8 -0.643348 -4.98869 0
M  V30 22473 H 2071.5 -2.35437 -5.38371 0
M  V30 22474 H 2073.03 -1.57713 -5.8988 0
M  V30 22475 H 2074.44 -3.43408 -4.59069 0
M  V30 22476 H 2072.84 -4.17429 -4.3113 0
M  V30 22477 H 2073.91 -3.86155 -2.93278 0
M  V30 22478 N 2075.25 1.06673 -1.16011 0
M  V30 22479 C 2076.16 2.17576 -0.877386 0
M  V30 22480 C 2077.18 1.73362 0.148919 0
M  V30 22481 O 2078.35 2.01382 -0.0268051 0
M  V30 22482 C 2075.42 3.44631 -0.378223 0
M  V30 22483 C 2074.48 4.03374 -1.46928 0
M  V30 22484 C 2073.71 5.24365 -0.993837 0
M  V30 22485 O 2073.94 5.70181 0.157925 0
M  V30 22486 O 2072.87 5.74962 -1.78052 0
M  V30 22487 H 2076.7 2.44264 -1.80468 0
M  V30 22488 H 2074.28 1.1614 -0.939777 0
M  V30 22489 H 2076.16 4.21265 -0.106644 0
M  V30 22490 H 2074.84 3.19478 0.521114 0
M  V30 22491 H 2073.75 3.28248 -1.79455 0
M  V30 22492 H 2075.08 4.32814 -2.34378 0
M  V30 22493 N 2076.73 0.957992 1.25141 0
M  V30 22494 C 2077.69 0.485333 2.24003 0
M  V30 22495 C 2078.69 -0.412817 1.55411 0
M  V30 22496 O 2079.88 -0.209635 1.72934 0
M  V30 22497 C 2077.02 -0.298362 3.39592 0
M  V30 22498 H 2078.21 1.35918 2.67332 0
M  V30 22499 H 2075.76 0.741602 1.37586 0
M  V30 22500 H 2076.5 -1.18973 3.01688 0
M  V30 22501 H 2076.28 0.346033 3.9057 0
M  V30 22502 H 2077.77 -0.618412 4.12996 0
M  V30 22503 N 2078.21 -1.39832 0.726957 0
M  V30 22504 C 2079.46 -2.00277 0.27085 0
M  V30 22505 C 2079.78 -1.57958 -1.14343 0
M  V30 22506 O 2079.05 -0.824155 -1.7772 0
M  V30 22507 H 2077.63 -0.740656 0.0971496 0
M  V30 22508 H 2080.29 -1.71001 0.935123 0
M  V30 22509 H 2079.39 -3.10528 0.312892 0
M  V30 22510 N 2079.69 -0.473982 -1.50304 0
M  V30 22511 C 2080.6 0.323933 -2.32353 0
M  V30 22512 C 2081.61 0.993251 -1.42865 0
M  V30 22513 O 2082.79 0.980589 -1.75916 0
M  V30 22514 C 2079.85 1.38999 -3.17616 0
M  V30 22515 C 2078.91 0.736965 -4.22927 0
M  V30 22516 C 2078.15 1.75223 -5.04116 0
M  V30 22517 O 2078.37 2.97908 -4.86423 0
M  V30 22518 O 2077.3 1.32246 -5.87192 0
M  V30 22519 H 2081.13 -0.346913 -3.01712 0
M  V30 22520 H 2078.72 -0.235777 -1.47528 0
M  V30 22521 H 2080.6 2.00742 -3.70514 0
M  V30 22522 H 2079.27 2.04425 -2.50982 0
M  V30 22523 H 2078.18 0.0805047 -3.74013 0
M  V30 22524 H 2079.51 0.125602 -4.9204 0
M  V30 22525 N 2081.16 1.56239 -0.206702 0
M  V30 22526 C 2082.07 2.2324 0.721172 0
M  V30 22527 C 2083.09 1.2352 1.22552 0
M  V30 22528 O 2084.27 1.56291 1.27025 0
M  V30 22529 C 2081.33 2.88767 1.91871 0
M  V30 22530 C 2080.39 4.03791 1.45779 0
M  V30 22531 C 2079.63 4.66183 2.59825 0
M  V30 22532 O 2079.85 4.27524 3.77597 0
M  V30 22533 O 2078.78 5.55444 2.31874 0
M  V30 22534 H 2082.61 3.03163 0.180488 0
M  V30 22535 H 2080.19 1.49382 0.0231036 0
M  V30 22536 H 2082.08 3.30181 2.61837 0
M  V30 22537 H 2080.75 2.11815 2.44777 0
M  V30 22538 H 2079.66 3.66976 0.726587 0
M  V30 22539 H 2080.99 4.82441 0.975269 0
M  V30 22540 N 2082.64 -0.0668159 1.57458 0
M  V30 22541 C 2083.61 -1.06329 2.03044 0
M  V30 22542 C 2084.61 -1.31301 0.928259 0
M  V30 22543 O 2085.8 -1.26938 1.193 0
M  V30 22544 C 2082.93 -2.40573 2.41532 0
M  V30 22545 H 2084.12 -0.67029 2.92313 0
M  V30 22546 H 2081.67 -0.312678 1.53141 0
M  V30 22547 H 2082.41 -2.84695 1.55303 0
M  V30 22548 H 2082.19 -2.23788 3.21965 0
M  V30 22549 H 2083.68 -3.12189 2.77359 0
M  V30 22550 N 2084.12 -1.53926 -0.338317 0
M  V30 22551 C 2085.54 -1.44306 -0.681751 0
M  V30 22552 C 2085.74 -0.604022 -1.92234 0
M  V30 22553 O 2084.79 -0.0970474 -2.52313 0
M  V30 22554 C 2086.11 -2.87854 -0.869513 0
M  V30 22555 C 2087.65 -2.97662 -0.967798 0
M  V30 22556 C 2088.13 -4.42328 -1.18784 0
M  V30 22557 N 2089.62 -4.45877 -1.25492 0
M  V30 22558 C 2090.36 -5.54952 -1.44278 0
M  V30 22559 N 2089.85 -6.74023 -1.60203 0
M  V30 22560 N 2091.64 -5.42574 -1.46868 0
M  V30 22561 H 2083.8 -2.06968 0.477289 0
M  V30 22562 H 2086.06 -0.935793 0.15164 0
M  V30 22563 H 2085.76 -3.51688 -0.0293745 0
M  V30 22564 H 2085.64 -3.33108 -1.76971 0
M  V30 22565 H 2088.03 -2.33965 -1.79845 0
M  V30 22566 H 2088.11 -2.55761 -0.0443848 0
M  V30 22567 H 2087.75 -5.06608 -0.362091 0
M  V30 22568 H 2087.68 -4.81825 -2.1249 0
M  V30 22569 H 2090.17 -3.60076 -1.14688 0
M  V30 22570 H 2090.48 -7.52913 -1.74188 0
M  V30 22571 H 2088.83 -6.76958 -1.57329 0
M  V30 22572 H 2092.02 -4.48507 -1.34012 0
M  V30 22573 H 2092.19 -6.27638 -1.61167 0
M  V30 22574 N 2085.6 0.599608 -1.45748 0
M  V30 22575 C 2087.02 0.921212 -1.3033 0
M  V30 22576 C 2087.22 1.99787 -0.262213 0
M  V30 22577 O 2086.27 2.50186 0.34109 0
M  V30 22578 C 2087.58 1.35457 -2.68462 0
M  V30 22579 C 2089.13 1.46835 -2.76421 0
M  V30 22580 C 2089.61 1.93544 -4.15096 0
M  V30 22581 N 2091.1 2.00765 -4.1743 0
M  V30 22582 C 2091.83 2.38145 -5.21608 0
M  V30 22583 N 2091.33 2.74437 -6.36126 0
M  V30 22584 N 2093.12 2.38554 -5.08968 0
M  V30 22585 H 2085.27 -0.111892 -2.12105 0
M  V30 22586 H 2087.54 0.0126042 -0.947916 0
M  V30 22587 H 2087.24 0.63759 -3.45872 0
M  V30 22588 H 2087.12 2.31951 -2.97453 0
M  V30 22589 H 2089.5 2.17623 -1.99309 0
M  V30 22590 H 2089.58 0.486356 -2.51134 0
M  V30 22591 H 2089.23 1.2334 -4.92696 0
M  V30 22592 H 2089.16 2.92672 -4.3778 0
M  V30 22593 H 2091.65 1.75275 -3.34794 0
M  V30 22594 H 2091.96 3.01865 -7.11405 0
M  V30 22595 H 2090.31 2.72115 -6.39514 0
M  V30 22596 H 2093.5 2.09612 -4.18546 0
M  V30 22597 H 2093.67 2.67359 -5.90274 0
M  V30 22598 N 2087.08 1.33171 0.842803 0
M  V30 22599 C 2088.49 1.1242 1.13287 0
M  V30 22600 C 2088.69 -0.0875106 2.0131 0
M  V30 22601 O 2087.75 -0.768934 2.40507 0
M  V30 22602 C 2089.06 2.40967 1.79876 0
M  V30 22603 C 2090.61 2.46837 1.92459 0
M  V30 22604 C 2091.09 3.75336 2.62463 0
M  V30 22605 N 2092.58 3.76385 2.69979 0
M  V30 22606 C 2093.31 4.72521 3.24825 0
M  V30 22607 N 2092.81 5.7903 3.80389 0
M  V30 22608 N 2094.6 4.60002 3.2304 0
M  V30 22609 H 2086.75 2.10841 0.256882 0
M  V30 22610 H 2089.01 0.931431 0.176468 0
M  V30 22611 H 2088.72 3.29618 1.22656 0
M  V30 22612 H 2088.59 2.52821 2.79931 0
M  V30 22613 H 2090.98 1.58638 2.48833 0
M  V30 22614 H 2091.06 2.38927 0.913649 0
M  V30 22615 H 2090.71 4.63915 2.06749 0
M  V30 22616 H 2090.64 3.80521 3.64021 0
M  V30 22617 H 2093.13 2.99407 2.30573 0
M  V30 22618 H 2093.44 6.48427 4.20431 0
M  V30 22619 H 2091.79 5.8277 3.78688 0
M  V30 22620 H 2094.98 3.75953 2.78886 0
M  V30 22621 H 2095.15 5.35096 3.65482 0
M  V30 22622 N 2088.56 -1.06056 1.16576 0
M  V30 22623 C 2089.52 -2.11761 0.876928 0
M  V30 22624 C 2090.52 -1.60281 -0.129123 0
M  V30 22625 O 2091.71 -1.73901 0.102046 0
M  V30 22626 C 2088.84 -3.3947 0.311872 0
M  V30 22627 H 2090.03 -2.38816 1.81403 0
M  V30 22628 H 2087.59 -1.2216 0.975021 0
M  V30 22629 H 2088.32 -3.18066 -0.632797 0
M  V30 22630 H 2088.11 -3.78143 1.03683 0
M  V30 22631 H 2089.6 -4.17404 0.12782 0
M  V30 22632 N 2090.03 -0.964615 -1.24631 0
M  V30 22633 C 2091 -0.497206 -2.23742 0
M  V30 22634 C 2092 0.404569 -1.55627 0
M  V30 22635 O 2093.19 0.200461 -1.73043 0
M  V30 22636 C 2090.32 0.280348 -3.39745 0
M  V30 22637 H 2091.51 -1.37334 -2.66607 0
M  V30 22638 H 2089.06 -0.748889 -1.37191 0
M  V30 22639 H 2089.8 1.17372 -3.02315 0
M  V30 22640 H 2089.58 -0.366741 -3.90381 0
M  V30 22641 H 2091.07 0.596501 -4.13318 0
M  V30 22642 N 2091.51 1.39445 -0.734362 0
M  V30 22643 C 2092.93 1.54247 -0.409878 0
M  V30 22644 C 2093.13 1.70155 1.07933 0
M  V30 22645 O 2092.18 1.70169 1.86545 0
M  V30 22646 C 2093.5 2.7605 -1.19234 0
M  V30 22647 C 2095.04 2.89885 -1.1805 0
M  V30 22648 C 2095.52 4.14625 -1.94552 0
M  V30 22649 N 2097.01 4.21663 -1.91715 0
M  V30 22650 C 2097.75 5.1713 -2.47717 0
M  V30 22651 N 2097.24 6.1839 -3.12354 0
M  V30 22652 N 2099.03 5.09342 -2.37754 0
M  V30 22653 H 2091.19 1.27367 -1.69975 0
M  V30 22654 H 2093.45 0.61727 -0.719501 0
M  V30 22655 H 2093.15 2.70636 -2.24609 0
M  V30 22656 H 2093.03 3.68698 -0.796363 0
M  V30 22657 H 2095.42 2.94792 -0.13489 0
M  V30 22658 H 2095.5 1.98302 -1.61585 0
M  V30 22659 H 2095.14 4.10479 -2.99114 0
M  V30 22660 H 2095.07 5.0525 -1.48424 0
M  V30 22661 H 2097.56 3.4913 -1.44625 0
M  V30 22662 H 2097.87 6.87695 -3.52555 0
M  V30 22663 H 2096.22 6.1878 -3.16444 0
M  V30 22664 H 2099.41 4.29169 -1.86901 0
M  V30 22665 H 2099.58 5.83567 -2.81698 0
M  V30 22666 N 2092.99 0.481946 1.5005 0
M  V30 22667 C 2093.9 -0.311606 2.32521 0
M  V30 22668 C 2094.92 -0.985661 1.4339 0
M  V30 22669 O 2096.09 -0.971246 1.76433 0
M  V30 22670 C 2093.16 -1.37313 3.18349 0
M  V30 22671 C 2092.22 -0.714526 4.23312 0
M  V30 22672 C 2091.45 -1.72547 5.05038 0
M  V30 22673 O 2091.67 -2.95324 4.87996 0
M  V30 22674 O 2090.61 -1.2913 5.87885 0
M  V30 22675 H 2094.43 0.362909 3.01524 0
M  V30 22676 H 2092.02 0.243598 1.47401 0
M  V30 22677 H 2093.9 -1.98774 3.71573 0
M  V30 22678 H 2092.58 -2.03091 2.52063 0
M  V30 22679 H 2091.48 -0.0606687 3.74051 0
M  V30 22680 H 2092.82 -0.099506 4.92099 0
M  V30 22681 N 2094.47 -1.56127 0.214985 0
M  V30 22682 C 2095.43 -2.18748 -0.684252 0
M  V30 22683 C 2096.43 -1.14748 -1.12648 0
M  V30 22684 O 2097.62 -1.4002 -1.03634 0
M  V30 22685 C 2094.75 -2.80553 -1.93656 0
M  V30 22686 H 2095.95 -2.99581 -0.13839 0
M  V30 22687 H 2093.5 -1.56262 -0.0346358 0
M  V30 22688 H 2094.23 -2.03573 -2.52445 0
M  V30 22689 H 2094.02 -3.56705 -1.628 0
M  V30 22690 H 2095.51 -3.28575 -2.57737 0
M  V30 22691 N 2095.95 0.0584645 -1.57492 0
M  V30 22692 C 2096.86 1.08563 -2.07969 0
M  V30 22693 C 2097.87 1.41545 -1.01198 0
M  V30 22694 O 2099.05 1.51455 -1.32753 0
M  V30 22695 C 2096.11 2.37616 -2.52467 0
M  V30 22696 C 2095.17 2.11485 -3.73594 0
M  V30 22697 C 2094.41 3.34384 -4.1596 0
M  V30 22698 O 2094.63 4.43997 -3.58083 0
M  V30 22699 O 2093.56 3.21812 -5.08646 0
M  V30 22700 H 2097.39 0.686764 -2.95833 0
M  V30 22701 H 2094.97 0.273502 -1.46875 0
M  V30 22702 H 2096.86 3.13541 -2.81549 0
M  V30 22703 H 2095.53 2.76857 -1.67726 0
M  V30 22704 H 2094.44 1.33222 -3.49575 0
M  V30 22705 H 2095.77 1.77117 -4.59228 0
M  V30 22706 N 2097.42 1.54103 0.330149 0
M  V30 22707 C 2098.39 1.82317 1.389 0
M  V30 22708 C 2099.39 0.694711 1.45019 0
M  V30 22709 O 2100.58 0.963016 1.45161 0
M  V30 22710 C 2097.71 1.97727 2.77699 0
M  V30 22711 H 2098.9 2.76916 1.15141 0
M  V30 22712 H 2096.45 1.4572 0.565276 0
M  V30 22713 H 2097.19 1.05316 3.06723 0
M  V30 22714 H 2096.97 2.79837 2.74652 0
M  V30 22715 H 2098.46 2.21026 3.54313 0
M  V30 22716 N 2098.9 -0.59187 1.46064 0
M  V30 22717 C 2099.83 -1.71199 1.58787 0
M  V30 22718 C 2100.81 -1.64348 0.438615 0
M  V30 22719 O 2102 -1.82506 0.663725 0
M  V30 22720 C 2099.13 -3.0983 1.56917 0
M  V30 22721 C 2098.08 -3.31505 2.70719 0
M  V30 22722 C 2097.41 -4.70569 2.53907 0
M  V30 22723 C 2098.71 -3.20228 4.12615 0
M  V30 22724 H 2100.4 -1.60807 2.5255 0
M  V30 22725 H 2097.95 -0.772206 1.21544 0
M  V30 22726 H 2099.9 -3.88003 1.64413 0
M  V30 22727 H 2098.63 -3.21099 0.596928 0
M  V30 22728 H 2097.28 -2.55727 2.62677 0
M  V30 22729 H 2096.93 -4.78592 1.54787 0
M  V30 22730 H 2096.63 -4.86025 3.30232 0
M  V30 22731 H 2098.16 -5.50923 2.6328 0
M  V30 22732 H 2099.57 -3.88257 4.21817 0
M  V30 22733 H 2097.97 -3.47209 4.89455 0
M  V30 22734 H 2099.04 -2.17437 4.33416 0
M  V30 22735 N 2100.38 -1.33616 -0.835729 0
M  V30 22736 C 2101.61 -1.28297 -1.62319 0
M  V30 22737 C 2102.02 0.145496 -1.88239 0
M  V30 22738 O 2101.38 1.08862 -1.46476 0
M  V30 22739 C 2101.43 -2.05863 -2.97158 0
M  V30 22740 O 2101.15 -3.43137 -2.72375 0
M  V30 22741 C 2102.65 -2.07791 -3.91584 0
M  V30 22742 H 2099.87 -0.441872 -0.504966 0
M  V30 22743 H 2102.42 -1.76036 -1.04075 0
M  V30 22744 H 2100.57 -1.61799 -3.51994 0
M  V30 22745 H 2100.99 -3.83078 -3.58262 0
M  V30 22746 H 2102.46 -2.66511 -4.834 0
M  V30 22747 H 2102.94 -1.06897 -4.25993 0
M  V30 22748 H 2103.54 -2.51888 -3.42684 0
M  V30 22749 N 2101.86 1.05436 -1.17136 0
M  V30 22750 C 2102.79 2.13111 -0.843582 0
M  V30 22751 C 2103.8 1.6208 0.152942 0
M  V30 22752 O 2104.99 1.78351 -0.0730153 0
M  V30 22753 C 2102.09 3.38072 -0.236753 0
M  V30 22754 C 2101.27 4.18389 -1.27553 0
M  V30 22755 C 2100.32 5.21697 -0.686916 0
M  V30 22756 O 2099.35 5.52761 -1.35807 0
M  V30 22757 N 2100.55 5.78146 0.522229 0
M  V30 22758 H 2103.32 2.41827 -1.7703 0
M  V30 22759 H 2100.88 1.21513 -1.06987 0
M  V30 22760 H 2102.87 4.04342 0.170262 0
M  V30 22761 H 2101.44 3.0691 0.593699 0
M  V30 22762 H 2100.66 3.47645 -1.85839 0
M  V30 22763 H 2101.95 4.6885 -1.97628 0
M  V30 22764 H 2101.35 5.55188 1.0855 0
M  V30 22765 H 2099.9 6.4595 0.871341 0
M  V30 22766 N 2103.34 0.971211 1.24118 0
M  V30 22767 C 2104.75 0.678316 1.44468 0
M  V30 22768 C 2104.95 -0.75867 1.86672 0
M  V30 22769 O 2104.01 -1.53217 2.00701 0
M  V30 22770 C 2105.32 1.66541 2.50369 0
M  V30 22771 C 2106.87 1.67842 2.64193 0
M  V30 22772 C 2107.34 2.65358 3.73295 0
M  V30 22773 N 2108.84 2.63821 3.80727 0
M  V30 22774 C 2109.57 3.35947 4.6468 0
M  V30 22775 N 2109.07 4.17602 5.52794 0
M  V30 22776 N 2110.86 3.24755 4.58793 0
M  V30 22777 H 2103.01 1.8996 0.950216 0
M  V30 22778 H 2105.27 0.818026 0.479101 0
M  V30 22779 H 2104.98 2.69261 2.26255 0
M  V30 22780 H 2104.85 1.44095 3.48592 0
M  V30 22781 H 2107.24 0.658308 2.87664 0
M  V30 22782 H 2107.32 1.94351 1.66316 0
M  V30 22783 H 2106.97 3.67505 3.50574 0
M  V30 22784 H 2106.9 2.36127 4.70693 0
M  V30 22785 H 2109.39 2.04554 3.17751 0
M  V30 22786 H 2109.7 4.69515 6.13821 0
M  V30 22787 H 2108.04 4.21695 5.52447 0
M  V30 22788 H 2111.24 2.60422 3.8897 0
M  V30 22789 H 2111.41 3.81228 5.23994 0
M  V30 22790 N 2104.81 -1.39054 0.741747 0
M  V30 22791 C 2105.74 -2.33184 0.121433 0
M  V30 22792 C 2106.73 -1.54261 -0.716774 0
M  V30 22793 O 2107.91 -1.82627 -0.660379 0
M  V30 22794 C 2105.04 -3.38393 -0.78152 0
M  V30 22795 C 2103.99 -4.27974 -0.046955 0
M  V30 22796 C 2103.32 -5.23938 -1.06737 0
M  V30 22797 C 2104.62 -5.10272 1.11446 0
M  V30 22798 H 2106.31 -2.85308 0.907724 0
M  V30 22799 H 2103.86 -1.37179 0.437953 0
M  V30 22800 H 2105.81 -4.032 -1.22506 0
M  V30 22801 H 2104.54 -2.84724 -1.6 0
M  V30 22802 H 2103.2 -3.64656 0.377036 0
M  V30 22803 H 2102.84 -4.66562 -1.8796 0
M  V30 22804 H 2102.54 -5.84725 -0.580605 0
M  V30 22805 H 2104.07 -5.91622 -1.51048 0
M  V30 22806 H 2105.48 -5.68386 0.749042 0
M  V30 22807 H 2103.88 -5.80234 1.53131 0
M  V30 22808 H 2104.95 -4.44706 1.93299 0
M  V30 22809 N 2106.29 -0.489897 -1.49792 0
M  V30 22810 C 2107.26 0.283286 -2.27443 0
M  V30 22811 C 2108.26 0.903846 -1.32993 0
M  V30 22812 O 2109.45 0.770101 -1.56253 0
M  V30 22813 C 2106.58 1.40534 -3.10585 0
M  V30 22814 H 2107.77 -0.397946 -2.97248 0
M  V30 22815 H 2105.32 -0.244516 -1.54376 0
M  V30 22816 H 2106.06 2.12106 -2.4532 0
M  V30 22817 H 2105.84 0.965947 -3.80016 0
M  V30 22818 H 2107.33 1.95026 -3.69262 0
M  V30 22819 N 2107.77 1.56011 -0.223262 0
M  V30 22820 C 2108.68 2.23993 0.697454 0
M  V30 22821 C 2109.7 1.24812 1.21235 0
M  V30 22822 O 2110.87 1.57629 1.2536 0
M  V30 22823 C 2107.94 2.90786 1.88797 0
M  V30 22824 C 2107 4.05314 1.41489 0
M  V30 22825 C 2106.23 4.68913 2.54866 0
M  V30 22826 O 2106.45 4.31505 3.73041 0
M  V30 22827 O 2105.39 5.57872 2.2597 0
M  V30 22828 H 2109.21 3.03338 0.148324 0
M  V30 22829 H 2106.8 1.49398 0.00725836 0
M  V30 22830 H 2108.68 3.32939 2.5832 0
M  V30 22831 H 2107.36 2.144 2.42517 0
M  V30 22832 H 2106.26 3.67726 0.687623 0
M  V30 22833 H 2107.6 4.83448 0.924045 0
M  V30 22834 N 2109.25 -0.0501116 1.5752 0
M  V30 22835 C 2110.2 -1.05718 2.05164 0
M  V30 22836 C 2111.17 -1.37182 0.936492 0
M  V30 22837 O 2112.35 -1.4788 1.20565 0
M  V30 22838 C 2109.49 -2.3594 2.51846 0
M  V30 22839 C 2108.6 -2.10818 3.77067 0
M  V30 22840 C 2107.74 -3.34759 4.12444 0
M  V30 22841 C 2106.78 -3.05097 5.30643 0
M  V30 22842 N 2105.91 -4.21429 5.61553 0
M  V30 22843 H 2110.75 -0.643931 2.9096 0
M  V30 22844 H 2108.29 -0.30636 1.43874 0
M  V30 22845 H 2110.25 -3.11999 2.7697 0
M  V30 22846 H 2108.88 -2.75027 1.68997 0
M  V30 22847 H 2107.93 -1.25352 3.59153 0
M  V30 22848 H 2109.24 -1.84923 4.63255 0
M  V30 22849 H 2108.4 -4.19199 4.38585 0
M  V30 22850 H 2107.14 -3.63748 3.24867 0
M  V30 22851 H 2106.14 -2.19056 5.04276 0
M  V30 22852 H 2107.37 -2.77407 6.19856 0
M  V30 22853 H 2105.31 -4.5041 4.76935 0
M  V30 22854 H 2105.23 -3.98884 6.42205 0
M  V30 22855 H 2106.5 -5.06804 5.92258 0
M  V30 22856 N 2110.73 -1.54276 -0.321972 0
M  V30 22857 C 2111.95 -1.76523 -1.07923 0
M  V30 22858 C 2112.37 -0.514589 -1.81652 0
M  V30 22859 O 2111.73 0.514775 -1.75089 0
M  V30 22860 C 2111.78 -2.95941 -2.07609 0
M  V30 22861 O 2111.5 -4.1617 -1.36874 0
M  V30 22862 C 2113 -3.30411 -2.95539 0
M  V30 22863 H 2110.22 -0.589261 -0.320956 0
M  V30 22864 H 2112.76 -2.01169 -0.367616 0
M  V30 22865 H 2110.92 -2.73564 -2.74302 0
M  V30 22866 H 2111.33 -4.83352 -2.03644 0
M  V30 22867 H 2112.81 -4.17265 -3.61378 0
M  V30 22868 H 2113.28 -2.47647 -3.62723 0
M  V30 22869 H 2113.89 -3.54872 -2.34405 0
M  V30 22870 N 2112.2 0.584116 -1.46376 0
M  V30 22871 C 2113.11 1.72116 -1.59415 0
M  V30 22872 C 2114.13 1.67314 -0.477692 0
M  V30 22873 O 2115.31 1.87248 -0.74162 0
M  V30 22874 C 2112.37 3.08617 -1.57975 0
M  V30 22875 C 2111.43 3.24694 -2.80842 0
M  V30 22876 C 2110.67 4.54683 -2.79462 0
M  V30 22877 O 2110.89 5.38484 -1.88126 0
M  V30 22878 O 2109.82 4.73977 -3.70985 0
M  V30 22879 H 2113.65 1.64062 -2.55572 0
M  V30 22880 H 2111.23 0.750995 -1.29153 0
M  V30 22881 H 2113.12 3.899 -1.59863 0
M  V30 22882 H 2111.79 3.17111 -0.649775 0
M  V30 22883 H 2110.7 2.4291 -2.84509 0
M  V30 22884 H 2112.03 3.2109 -3.73044 0
M  V30 22885 N 2113.68 1.34058 0.828631 0
M  V30 22886 C 2114.91 1.29156 1.61636 0
M  V30 22887 C 2115.33 -0.135511 1.88313 0
M  V30 22888 O 2114.68 -1.08084 1.47051 0
M  V30 22889 C 2114.73 2.07436 2.96062 0
M  V30 22890 O 2114.46 3.44577 2.70552 0
M  V30 22891 C 2115.96 2.09865 3.90476 0
M  V30 22892 H 2113.18 0.444543 0.502615 0
M  V30 22893 H 2115.72 1.76585 1.0314 0
M  V30 22894 H 2113.88 1.63663 3.51131 0
M  V30 22895 H 2114.29 3.84972 3.56225 0
M  V30 22896 H 2115.76 2.69071 4.8198 0
M  V30 22897 H 2116.24 1.09155 4.2542 0
M  V30 22898 H 2116.85 2.53702 3.41344 0
M  V30 22899 N 2115.16 -1.04814 1.17694 0
M  V30 22900 C 2116.41 -1.78147 0.969105 0
M  V30 22901 C 2116.74 -1.87634 -0.500715 0
M  V30 22902 O 2116.02 -1.37892 -1.37172 0
M  V30 22903 C 2116.3 -3.2183 1.61548 0
M  V30 22904 C 2116.15 -3.20332 3.15765 0
M  V30 22905 C 2117.47 -4.19759 1.32251 0
M  V30 22906 H 2114.59 -0.646701 0.353479 0
M  V30 22907 H 2117.23 -1.22485 1.45249 0
M  V30 22908 H 2115.38 -3.69358 1.20445 0
M  V30 22909 H 2117.05 -2.8085 3.65952 0
M  V30 22910 H 2115.3 -2.58568 3.48318 0
M  V30 22911 H 2115.97 -4.21759 3.56123 0
M  V30 22912 H 2118.44 -3.80743 1.67851 0
M  V30 22913 H 2117.32 -5.18527 1.80057 0
M  V30 22914 H 2117.58 -4.41426 0.244002 0
M  V30 22915 N 2116.64 -0.977779 -1.23601 0
M  V30 22916 C 2117.92 -0.561714 -1.87361 0
M  V30 22917 C 2118.3 0.961166 -1.87949 0
M  V30 22918 O 2117.64 1.83678 -1.35922 0
M  V30 22919 C 2117.85 -1.16478 -3.28989 0
M  V30 22920 C 2119.2 -1.2559 -4.05601 0
M  V30 22921 O 2120.23 -1.11804 -3.38199 0
M  V30 22922 O 2119.09 -1.47493 -5.2622 0
M  V30 22923 H 2116.18 -0.18876 -0.80517 0
M  V30 22924 H 2118.73 -1.07269 -1.31497 0
M  V30 22925 H 2117.5 -2.20711 -3.23114 0
M  V30 22926 H 2117.12 -0.638457 -3.9244 0
M  V30 22927 N 2118.12 1.38658 -0.749111 0
M  V30 22928 C 2119.53 1.53804 -0.426214 0
M  V30 22929 C 2119.73 1.7129 1.06122 0
M  V30 22930 O 2118.79 1.72138 1.84729 0
M  V30 22931 C 2120.1 2.7477 -1.22155 0
M  V30 22932 C 2121.65 2.88616 -1.21118 0
M  V30 22933 C 2122.13 4.12538 -1.98939 0
M  V30 22934 N 2123.62 4.19606 -1.96176 0
M  V30 22935 C 2124.35 5.14474 -2.53188 0
M  V30 22936 N 2123.85 6.15043 -3.18895 0
M  V30 22937 N 2125.64 5.06792 -2.43143 0
M  V30 22938 H 2117.79 1.25557 -1.71316 0
M  V30 22939 H 2120.05 0.609604 -0.726008 0
M  V30 22940 H 2119.76 2.68239 -2.27466 0
M  V30 22941 H 2119.63 3.67832 -0.835424 0
M  V30 22942 H 2122.02 2.94632 -0.166149 0
M  V30 22943 H 2122.1 1.96577 -1.63679 0
M  V30 22944 H 2121.75 4.07284 -3.03451 0
M  V30 22945 H 2121.68 5.03648 -1.53775 0
M  V30 22946 H 2124.17 3.47577 -1.4832 0
M  V30 22947 H 2124.48 6.83917 -3.59829 0
M  V30 22948 H 2122.83 6.15389 -3.22989 0
M  V30 22949 H 2126.02 4.27162 -1.91442 0
M  V30 22950 H 2126.19 5.80546 -2.87871 0
M  V30 22951 N 2119.6 0.497834 1.49531 0
M  V30 22952 C 2120.53 -0.271671 2.31914 0
M  V30 22953 C 2121.51 -0.965521 1.40042 0
M  V30 22954 O 2122.69 -0.957536 1.68952 0
M  V30 22955 C 2119.82 -1.3384 3.20475 0
M  V30 22956 C 2118.78 -0.76461 4.21115 0
M  V30 22957 C 2118.1 -1.93162 4.98591 0
M  V30 22958 C 2119.4 0.242201 5.21738 0
M  V30 22959 H 2121.1 0.415979 2.96496 0
M  V30 22960 H 2118.64 0.201496 1.42583 0
M  V30 22961 H 2120.59 -1.88442 3.76918 0
M  V30 22962 H 2119.32 -2.05519 2.5383 0
M  V30 22963 H 2117.98 -0.240359 3.65811 0
M  V30 22964 H 2117.63 -2.63602 4.28396 0
M  V30 22965 H 2117.33 -1.55378 5.66685 0
M  V30 22966 H 2118.85 -2.48204 5.57877 0
M  V30 22967 H 2120.26 -0.215575 5.72895 0
M  V30 22968 H 2118.66 0.535707 5.97704 0
M  V30 22969 H 2119.73 1.15916 4.70841 0
M  V30 22970 N 2121.07 -1.5589 0.231532 0
M  V30 22971 C 2121.98 -2.24359 -0.685566 0
M  V30 22972 C 2123 -1.25454 -1.20571 0
M  V30 22973 O 2124.18 -1.58292 -1.24522 0
M  V30 22974 C 2121.24 -2.91783 -1.87252 0
M  V30 22975 C 2120.3 -4.06059 -1.39337 0
M  V30 22976 C 2119.53 -4.70258 -2.52375 0
M  V30 22977 O 2119.76 -4.33477 -3.70747 0
M  V30 22978 O 2118.69 -5.59063 -2.23008 0
M  V30 22979 H 2122.52 -3.03412 -0.132235 0
M  V30 22980 H 2120.1 -1.494 0.000664697 0
M  V30 22981 H 2121.98 -3.34305 -2.56551 0
M  V30 22982 H 2120.66 -2.15683 -2.41377 0
M  V30 22983 H 2119.57 -3.68086 -0.668112 0
M  V30 22984 H 2120.9 -4.83932 -0.898393 0
M  V30 22985 N 2122.55 0.0417572 -1.57545 0
M  V30 22986 C 2123.97 0.397174 -1.54579 0
M  V30 22987 C 2124.17 1.77381 -0.955943 0
M  V30 22988 O 2123.22 2.45948 -0.571457 0
M  V30 22989 C 2124.54 0.310665 -2.99091 0
M  V30 22990 C 2126.08 0.388675 -3.10577 0
M  V30 22991 C 2126.56 0.331754 -4.56797 0
M  V30 22992 N 2128.05 0.390933 -4.61547 0
M  V30 22993 C 2128.79 0.36958 -5.72208 0
M  V30 22994 N 2128.28 0.301264 -6.92145 0
M  V30 22995 N 2130.07 0.41837 -5.60541 0
M  V30 22996 H 2122.23 -0.859292 -1.94242 0
M  V30 22997 H 2124.49 -0.325513 -0.890362 0
M  V30 22998 H 2124.19 -0.634841 -3.45923 0
M  V30 22999 H 2124.07 1.10929 -3.6052 0
M  V30 23000 H 2126.46 1.32461 -2.63701 0
M  V30 23001 H 2126.54 -0.439073 -2.52004 0
M  V30 23002 H 2126.18 -0.60046 -5.04338 0
M  V30 23003 H 2126.11 1.17744 -5.13268 0
M  V30 23004 H 2128.6 0.44676 -3.7525 0
M  V30 23005 H 2128.91 0.289723 -7.72257 0
M  V30 23006 H 2127.26 0.2675 -6.94485 0
M  V30 23007 H 2130.45 0.469643 -4.65738 0
M  V30 23008 H 2130.62 0.398261 -6.46775 0
M  V30 23009 N 2124.03 1.54445 0.313786 0
M  V30 23010 C 2125.28 1.72775 1.04849 0
M  V30 23011 C 2125.6 0.509507 1.88226 0
M  V30 23012 O 2124.87 -0.476396 1.90019 0
M  V30 23013 H 2123.45 0.637053 0.390092 0
M  V30 23014 H 2126.11 1.91771 0.347859 0
M  V30 23015 H 2125.21 2.61155 1.70893 0
M  V30 23016 N 2125.51 -0.576345 1.46683 0
M  V30 23017 C 2126.92 -0.900361 1.31779 0
M  V30 23018 C 2127.12 -1.99344 0.293964 0
M  V30 23019 O 2126.18 -2.50697 -0.301245 0
M  V30 23020 C 2127.49 -1.31169 2.70583 0
M  V30 23021 C 2129.04 -1.42419 2.78722 0
M  V30 23022 C 2129.52 -1.86916 4.18123 0
M  V30 23023 N 2131.01 -1.94099 4.20571 0
M  V30 23024 C 2131.74 -2.29817 5.2533 0
M  V30 23025 N 2131.24 -2.64282 6.40411 0
M  V30 23026 N 2133.03 -2.30426 5.12699 0
M  V30 23027 H 2125.18 0.145622 2.119 0
M  V30 23028 H 2127.44 0.00247797 0.947997 0
M  V30 23029 H 2127.15 -0.582484 3.46843 0
M  V30 23030 H 2127.02 -2.2719 3.01106 0
M  V30 23031 H 2129.41 -2.14425 2.02746 0
M  V30 23032 H 2129.49 -0.446341 2.51876 0
M  V30 23033 H 2129.14 -1.15486 4.94596 0
M  V30 23034 H 2129.07 -2.8567 4.4238 0
M  V30 23035 H 2131.56 -1.69927 3.3754 0
M  V30 23036 H 2131.87 -2.90509 7.16118 0
M  V30 23037 H 2130.22 -2.61906 6.43762 0
M  V30 23038 H 2133.41 -2.02927 4.21827 0
M  V30 23039 H 2133.58 -2.57934 5.94453 0
M  V30 23040 N 2126.99 -1.34495 -0.82151 0
M  V30 23041 C 2128.4 -1.14208 -1.11484 0
M  V30 23042 C 2128.6 0.0554729 -2.01424 0
M  V30 23043 O 2127.66 0.730574 -2.417 0
M  V30 23044 C 2128.97 -2.43799 -1.76019 0
M  V30 23045 C 2130.52 -2.49868 -1.88508 0
M  V30 23046 C 2130.99 -3.79464 -2.56459 0
M  V30 23047 N 2132.48 -3.80632 -2.63957 0
M  V30 23048 C 2133.22 -4.77629 -3.17267 0
M  V30 23049 N 2132.72 -5.85009 -3.71129 0
M  V30 23050 N 2134.51 -4.65083 -3.15681 0
M  V30 23051 H 2126.66 -2.11223 -0.223307 0
M  V30 23052 H 2128.92 -0.93412 -0.161627 0
M  V30 23053 H 2128.63 -3.31528 -1.17397 0
M  V30 23054 H 2128.5 -2.57243 -2.75873 0
M  V30 23055 H 2130.89 -1.62577 -2.46278 0
M  V30 23056 H 2130.97 -2.4035 -0.875522 0
M  V30 23057 H 2130.61 -4.67146 -1.99342 0
M  V30 23058 H 2130.54 -3.86264 -3.57921 0
M  V30 23059 H 2133.04 -3.03038 -2.2578 0
M  V30 23060 H 2133.35 -6.55034 -4.10062 0
M  V30 23061 H 2131.69 -5.88721 -3.69369 0
M  V30 23062 H 2134.88 -3.80342 -2.72869 0
M  V30 23063 H 2135.06 -5.40842 -3.56922 0
M  V30 23064 N 2128.46 1.04188 -1.18248 0
M  V30 23065 C 2129.88 1.29568 -0.931902 0
M  V30 23066 C 2130.08 1.97424 0.403235 0
M  V30 23067 O 2129.14 2.25409 1.13785 0
M  V30 23068 C 2130.45 2.15557 -2.09656 0
M  V30 23069 C 2132 2.28907 -2.13473 0
M  V30 23070 C 2132.47 3.18262 -3.29353 0
M  V30 23071 N 2133.96 3.25849 -3.29206 0
M  V30 23072 C 2134.7 3.95141 -4.15513 0
M  V30 23073 N 2134.19 4.66775 -5.1195 0
M  V30 23074 N 2135.99 3.91408 -4.03431 0
M  V30 23075 H 2128.14 0.585496 -2.04171 0
M  V30 23076 H 2130.4 0.320854 -0.892052 0
M  V30 23077 H 2130.11 1.73002 -3.06208 0
M  V30 23078 H 2129.98 3.16231 -2.05616 0
M  V30 23079 H 2132.37 2.70698 -1.175 0
M  V30 23080 H 2132.45 1.27828 -2.21571 0
M  V30 23081 H 2132.09 2.77182 -4.25597 0
M  V30 23082 H 2132.02 4.1937 -3.18491 0
M  V30 23083 H 2134.51 2.74819 -2.59389 0
M  V30 23084 H 2134.83 5.17239 -5.74181 0
M  V30 23085 H 2133.17 4.65683 -5.15911 0
M  V30 23086 H 2136.36 3.34577 -3.27377 0
M  V30 23087 H 2136.54 4.45139 -4.70909 0
M  V30 23088 N 2129.94 0.98432 1.23081 0
M  V30 23089 C 2130.87 0.547274 2.26996 0
M  V30 23090 C 2131.85 -0.421528 1.64794 0
M  V30 23091 O 2133.04 -0.314036 1.91644 0
M  V30 23092 C 2130.17 -0.147283 3.46988 0
M  V30 23093 C 2129.12 0.739194 4.21568 0
M  V30 23094 C 2128.45 -0.0877981 5.34628 0
M  V30 23095 C 2129.75 2.03191 4.81156 0
M  V30 23096 H 2131.44 1.41586 2.63806 0
M  V30 23097 H 2128.99 0.682245 1.26813 0
M  V30 23098 H 2130.94 -0.464368 4.18834 0
M  V30 23099 H 2129.67 -1.05035 3.09249 0
M  V30 23100 H 2128.32 1.03979 3.51545 0
M  V30 23101 H 2127.97 -0.99152 4.93131 0
M  V30 23102 H 2127.67 0.50225 5.8545 0
M  V30 23103 H 2129.2 -0.399175 6.09294 0
M  V30 23104 H 2130.61 1.77933 5.44989 0
M  V30 23105 H 2129.01 2.57006 5.4228 0
M  V30 23106 H 2130.08 2.71622 4.01684 0
M  V30 23107 N 2131.42 -1.38259 0.756453 0
M  V30 23108 C 2132.35 -2.2902 0.0908208 0
M  V30 23109 C 2133.37 -1.47887 -0.680684 0
M  V30 23110 O 2134.55 -1.70718 -0.521301 0
M  V30 23111 C 2131.65 -3.26859 -0.895342 0
M  V30 23112 C 2130.83 -4.37026 -0.180877 0
M  V30 23113 C 2129.89 -5.15035 -1.0782 0
M  V30 23114 O 2128.91 -5.66559 -0.547658 0
M  V30 23115 N 2130.11 -5.28291 -2.40602 0
M  V30 23116 H 2132.88 -2.86785 0.870302 0
M  V30 23117 H 2130.44 -1.50071 0.607483 0
M  V30 23118 H 2132.43 -3.75926 -1.49873 0
M  V30 23119 H 2131 -2.69972 -1.57588 0
M  V30 23120 H 2130.22 -3.89557 0.603252 0
M  V30 23121 H 2131.51 -5.07834 0.313403 0
M  V30 23122 H 2130.91 -4.87986 -2.86158 0
M  V30 23123 H 2129.47 -5.80721 -2.95984 0
M  V30 23124 N 2132.9 -0.505757 -1.49264 0
M  V30 23125 C 2133.83 0.30691 -2.27136 0
M  V30 23126 C 2134.84 0.926357 -1.33875 0
M  V30 23127 O 2136.03 0.808892 -1.5912 0
M  V30 23128 C 2133.13 1.44752 -3.06431 0
M  V30 23129 C 2132.31 0.934498 -4.27301 0
M  V30 23130 C 2131.36 1.95329 -4.88603 0
M  V30 23131 O 2130.39 1.51993 -5.48532 0
M  V30 23132 N 2131.59 3.28401 -4.78678 0
M  V30 23133 H 2134.36 -0.360836 -2.9752 0
M  V30 23134 H 2131.92 -0.338592 -1.5832 0
M  V30 23135 H 2133.91 2.12672 -3.44315 0
M  V30 23136 H 2132.48 2.01934 -2.38624 0
M  V30 23137 H 2131.7 0.0800492 -3.94119 0
M  V30 23138 H 2132.99 0.570223 -5.05595 0
M  V30 23139 H 2132.39 3.66295 -4.31097 0
M  V30 23140 H 2130.94 3.92022 -5.20732 0
M  V30 23141 N 2134.38 1.55765 -0.239796 0
M  V30 23142 C 2135.29 2.2472 0.673658 0
M  V30 23143 C 2136.3 1.26091 1.19904 0
M  V30 23144 O 2137.48 1.5895 1.23681 0
M  V30 23145 C 2134.54 2.92772 1.85702 0
M  V30 23146 C 2133.6 4.06792 1.37182 0
M  V30 23147 C 2132.84 4.7159 2.49878 0
M  V30 23148 O 2133.06 4.35437 3.68443 0
M  V30 23149 O 2131.99 5.60237 2.2004 0
M  V30 23150 H 2135.82 3.03478 0.116142 0
M  V30 23151 H 2133.41 1.49398 -0.00858773 0
M  V30 23152 H 2135.29 3.3566 2.54774 0
M  V30 23153 H 2133.96 2.1696 2.40229 0
M  V30 23154 H 2132.87 3.68435 0.648582 0
M  V30 23155 H 2134.2 4.84401 0.872717 0
M  V30 23156 N 2135.85 -0.0334016 1.57565 0
M  V30 23157 C 2136.78 -1.03494 2.09312 0
M  V30 23158 C 2137.77 -1.37985 0.9947 0
M  V30 23159 O 2138.95 -1.46944 1.26969 0
M  V30 23160 C 2136.08 -2.33717 2.56892 0
M  V30 23161 C 2135.03 -2.1348 3.70959 0
M  V30 23162 C 2134.36 -3.49425 4.0473 0
M  V30 23163 C 2135.66 -1.52451 4.99556 0
M  V30 23164 H 2137.35 -0.60419 2.9324 0
M  V30 23165 H 2134.9 -0.289182 1.41066 0
M  V30 23166 H 2136.85 -3.04107 2.91714 0
M  V30 23167 H 2135.58 -2.78843 1.70041 0
M  V30 23168 H 2134.24 -1.45523 3.3648 0
M  V30 23169 H 2133.88 -3.92192 3.14952 0
M  V30 23170 H 2133.58 -3.36711 4.81559 0
M  V30 23171 H 2135.11 -4.21184 4.42082 0
M  V30 23172 H 2136.52 -2.12753 5.32362 0
M  V30 23173 H 2134.92 -1.50324 5.80967 0
M  V30 23174 H 2135.99 -0.48986 4.82419 0
M  V30 23175 N 2137.33 -1.54609 -0.305591 0
M  V30 23176 C 2138.61 -1.64344 -1.06068 0
M  V30 23177 C 2138.99 -0.488774 -2.05364 0
M  V30 23178 O 2138.34 0.515015 -2.2262 0
M  V30 23179 C 2138.55 -3.02149 -1.74663 0
M  V30 23180 C 2139.9 -3.58808 -2.27029 0
M  V30 23181 O 2140.92 -3.04571 -1.84703 0
M  V30 23182 O 2139.78 -4.53762 -3.04568 0
M  V30 23183 H 2136.87 -0.666216 -0.489984 0
M  V30 23184 H 2139.42 -1.66954 -0.304046 0
M  V30 23185 H 2138.19 -3.77626 -1.02538 0
M  V30 23186 H 2137.81 -3.03296 -2.57094 0
M  V30 23187 N 2138.81 0.568558 -1.46987 0
M  V30 23188 C 2140.09 1.3291 -1.43507 0
M  V30 23189 C 2140.47 2.10724 -0.12598 0
M  V30 23190 O 2139.82 2.10348 0.892528 0
M  V30 23191 C 2140.03 2.2432 -2.6736 0
M  V30 23192 C 2141.37 2.85701 -3.14102 0
M  V30 23193 O 2142.4 2.34627 -2.68009 0
M  V30 23194 O 2141.26 3.78504 -3.94204 0
M  V30 23195 H 2138.35 0.597891 -0.571363 0
M  V30 23196 H 2140.9 0.588401 -1.59173 0
M  V30 23197 H 2139.67 1.66345 -3.54182 0
M  V30 23198 H 2139.29 3.05705 -2.54224 0
M  V30 23199 N 2140.29 1.34929 0.814366 0
M  V30 23200 C 2141.25 1.27093 1.90736 0
M  V30 23201 C 2142.25 0.184145 1.59742 0
M  V30 23202 O 2143.44 0.437337 1.68621 0
M  V30 23203 C 2140.57 0.964254 3.26979 0
M  V30 23204 H 2141.77 2.24271 1.99105 0
M  V30 23205 H 2139.32 1.19341 1.00933 0
M  V30 23206 H 2140.05 -0.0039895 3.243 0
M  V30 23207 H 2139.84 1.75045 3.50859 0
M  V30 23208 H 2141.33 0.934826 4.07002 0
M  V30 23209 N 2141.77 -1.0356 1.18799 0
M  V30 23210 C 2142.99 -1.80487 1.01153 0
M  V30 23211 C 2143.41 -1.83603 -0.439927 0
M  V30 23212 O 2142.77 -1.27518 -1.30558 0
M  V30 23213 C 2142.82 -3.25853 1.56532 0
M  V30 23214 O 2142.54 -3.22983 2.95996 0
M  V30 23215 C 2144.04 -4.19406 1.43575 0
M  V30 23216 H 2141.26 -0.568214 0.356895 0
M  V30 23217 H 2143.8 -1.30482 1.57463 0
M  V30 23218 H 2141.96 -3.73071 1.04387 0
M  V30 23219 H 2142.37 -4.14085 3.21922 0
M  V30 23220 H 2143.85 -5.19319 1.87114 0
M  V30 23221 H 2144.32 -4.37507 0.385237 0
M  V30 23222 H 2144.93 -3.78055 1.94818 0
M  V30 23223 N 2143.25 -0.990834 -1.22557 0
M  V30 23224 C 2144.18 -0.484367 -2.23 0
M  V30 23225 C 2145.16 0.454224 -1.56127 0
M  V30 23226 O 2146.34 0.380249 -1.84625 0
M  V30 23227 C 2143.47 0.298068 -3.37386 0
M  V30 23228 C 2142.51 -0.586207 -4.22452 0
M  V30 23229 S 2143.35 -2.04028 -4.95109 0
M  V30 23230 C 2144.5 -1.26728 -6.12936 0
M  V30 23231 H 2144.74 -1.33551 -2.65615 0
M  V30 23232 H 2142.27 -0.79764 -1.32201 0
M  V30 23233 H 2144.23 0.743467 -4.03711 0
M  V30 23234 H 2142.89 1.12446 -2.93283 0
M  V30 23235 H 2142.08 0.0157123 -5.03998 0
M  V30 23236 H 2141.68 -0.968283 -3.61248 0
M  V30 23237 H 2143.97 -0.533875 -6.75393 0
M  V30 23238 H 2144.92 -2.05793 -6.77536 0
M  V30 23239 H 2145.33 -0.781474 -5.59065 0
M  V30 23240 N 2144.72 1.37856 -0.763775 0
M  V30 23241 C 2146 1.94001 -0.249566 0
M  V30 23242 C 2146.38 1.69818 1.254 0
M  V30 23243 O 2145.73 1.04245 2.03335 0
M  V30 23244 C 2145.94 3.43551 -0.614299 0
M  V30 23245 C 2147.29 4.20625 -0.579627 0
M  V30 23246 O 2148.31 3.51878 -0.553206 0
M  V30 23247 O 2147.17 5.43201 -0.599606 0
M  V30 23248 H 2144.26 0.825148 -0.055317 0
M  V30 23249 H 2146.81 1.4719 -0.844588 0
M  V30 23250 H 2145.58 3.54703 -1.65231 0
M  V30 23251 H 2145.2 3.97599 0.00819535 0
M  V30 23252 N 2146.2 0.513665 1.48994 0
M  V30 23253 C 2147.13 -0.247058 2.32189 0
M  V30 23254 C 2148.11 -0.950613 1.41058 0
M  V30 23255 O 2149.3 -0.939562 1.69958 0
M  V30 23256 C 2146.43 -1.30433 3.21876 0
M  V30 23257 C 2145.38 -0.719902 4.21902 0
M  V30 23258 C 2144.71 -1.87863 5.00611 0
M  V30 23259 C 2146.01 0.297524 5.21452 0
M  V30 23260 H 2147.7 0.447403 2.96038 0
M  V30 23261 H 2145.25 0.216608 1.42362 0
M  V30 23262 H 2147.2 -1.84434 3.78896 0
M  V30 23263 H 2145.92 -2.02815 2.55995 0
M  V30 23264 H 2144.58 -0.201546 3.66046 0
M  V30 23265 H 2144.23 -2.59044 4.31167 0
M  V30 23266 H 2143.93 -1.49359 5.68301 0
M  V30 23267 H 2145.46 -2.42273 5.60478 0
M  V30 23268 H 2146.87 -0.1548 5.73091 0
M  V30 23269 H 2145.27 0.599071 5.97102 0
M  V30 23270 H 2146.34 1.20903 4.69585 0
M  V30 23271 N 2147.68 -1.55636 0.248053 0
M  V30 23272 C 2148.59 -2.25074 -0.661731 0
M  V30 23273 C 2149.61 -1.26725 -1.19234 0
M  V30 23274 O 2150.78 -1.59603 -1.22836 0
M  V30 23275 C 2147.85 -2.93753 -1.84147 0
M  V30 23276 C 2146.91 -4.07514 -1.35022 0
M  V30 23277 C 2146.14 -4.72908 -2.47374 0
M  V30 23278 O 2146.36 -4.37385 -3.66129 0
M  V30 23279 O 2145.3 -5.61396 -2.17066 0
M  V30 23280 H 2149.12 -3.03535 -0.100047 0
M  V30 23281 H 2146.71 -1.49391 0.0165105 0
M  V30 23282 H 2148.59 -3.37007 -2.52991 0
M  V30 23283 H 2147.27 -2.18231 -2.39075 0
M  V30 23284 H 2146.17 -3.68774 -0.629034 0
M  V30 23285 H 2147.51 -4.84857 -0.847015 0
M  V30 23286 N 2149.16 0.0250451 -1.5758 0
M  V30 23287 C 2150.09 1.05207 -2.03627 0
M  V30 23288 C 2151.1 1.32224 -0.949769 0
M  V30 23289 O 2152.29 1.29641 -1.22701 0
M  V30 23290 C 2149.39 2.39277 -2.39999 0
M  V30 23291 C 2148.56 2.31559 -3.71078 0
M  V30 23292 C 2147.62 3.48111 -3.94595 0
M  V30 23293 O 2146.65 3.27424 -4.65599 0
M  V30 23294 N 2147.85 4.70117 -3.40545 0
M  V30 23295 H 2150.62 0.659567 -2.92352 0
M  V30 23296 H 2148.18 0.212915 -1.60494 0
M  V30 23297 H 2150.17 3.15976 -2.52866 0
M  V30 23298 H 2148.74 2.70358 -1.56924 0
M  V30 23299 H 2147.96 1.39933 -3.68527 0
M  V30 23300 H 2149.25 2.23549 -4.57059 0
M  V30 23301 H 2148.65 4.89824 -2.83 0
M  V30 23302 H 2147.2 5.44167 -3.58784 0
M  V30 23303 N 2150.64 1.54769 0.297388 0
M  V30 23304 C 2151.57 1.82346 1.38861 0
M  V30 23305 C 2152.58 0.7066 1.46666 0
M  V30 23306 O 2153.77 0.984128 1.4892 0
M  V30 23307 C 2150.87 1.94966 2.77203 0
M  V30 23308 C 2150.04 3.25403 2.92287 0
M  V30 23309 C 2149.1 3.28394 4.1115 0
M  V30 23310 O 2148.13 4.01906 4.03063 0
M  V30 23311 N 2149.33 2.54044 5.2196 0
M  V30 23312 H 2152.09 2.76526 1.15558 0
M  V30 23313 H 2149.66 1.54387 0.487465 0
M  V30 23314 H 2151.65 1.94365 3.54971 0
M  V30 23315 H 2150.22 1.07765 2.93437 0
M  V30 23316 H 2149.44 3.38748 2.01602 0
M  V30 23317 H 2150.73 4.11473 2.99278 0
M  V30 23318 H 2150.12 1.93956 5.31411 0
M  V30 23319 H 2148.68 2.59192 5.98049 0
M  V30 23320 N 2152.11 -0.560755 1.47286 0
M  V30 23321 C 2153.53 -0.886333 1.32726 0
M  V30 23322 C 2153.73 -1.99021 0.31509 0
M  V30 23323 O 2152.79 -2.51002 -0.274638 0
M  V30 23324 C 2154.1 -1.28292 2.71959 0
M  V30 23325 C 2155.65 -1.39455 2.80217 0
M  V30 23326 C 2156.12 -1.8247 4.20082 0
M  V30 23327 N 2157.61 -1.89627 4.22606 0
M  V30 23328 C 2158.35 -2.24232 5.27738 0
M  V30 23329 N 2157.84 -2.57475 6.43178 0
M  V30 23330 N 2159.64 -2.24975 5.15114 0
M  V30 23331 H 2151.79 0.168088 2.11734 0
M  V30 23332 H 2154.05 0.0125326 0.947917 0
M  V30 23333 H 2153.76 -0.545664 3.47441 0
M  V30 23334 H 2153.63 -2.23983 3.03499 0
M  V30 23335 H 2156.02 -2.12262 2.05009 0
M  V30 23336 H 2156.1 -0.419601 2.52335 0
M  V30 23337 H 2155.74 -1.10234 4.95793 0
M  V30 23338 H 2155.67 -2.80962 4.45385 0
M  V30 23339 H 2158.16 -1.66337 3.39323 0
M  V30 23340 H 2158.48 -2.82897 7.19159 0
M  V30 23341 H 2156.82 -2.55063 6.46504 0
M  V30 23342 H 2160.01 -1.98441 4.23956 0
M  V30 23343 H 2160.19 -2.51614 5.97155 0
M  V30 23344 N 2153.59 -1.35359 -0.807199 0
M  V30 23345 C 2154.52 -1.24083 -1.92707 0
M  V30 23346 C 2155.54 -0.164267 -1.61969 0
M  V30 23347 O 2156.73 -0.417487 -1.73549 0
M  V30 23348 C 2153.83 -0.88785 -3.27063 0
M  V30 23349 C 2153 -2.06266 -3.85711 0
M  V30 23350 C 2152.06 -1.68555 -4.98473 0
M  V30 23351 O 2151.08 -2.40421 -5.15933 0
M  V30 23352 N 2152.29 -0.608828 -5.77298 0
M  V30 23353 H 2155.05 -2.20565 -2.02907 0
M  V30 23354 H 2152.61 -1.2852 -0.984589 0
M  V30 23355 H 2154.6 -0.61707 -3.99968 0
M  V30 23356 H 2153.17 -0.0127324 -3.12597 0
M  V30 23357 H 2152.39 -2.49727 -3.05008 0
M  V30 23358 H 2153.68 -2.84796 -4.21626 0
M  V30 23359 H 2153.08 -0.0117274 -5.65699 0
M  V30 23360 H 2151.64 -0.397827 -6.50585 0
M  V30 23361 N 2155.07 1.02928 -1.19346 0
M  V30 23362 C 2156 2.13099 -0.954528 0
M  V30 23363 C 2156.98 1.69731 0.111965 0
M  V30 23364 O 2158.17 1.94152 -0.0429718 0
M  V30 23365 C 2155.3 3.43798 -0.491955 0
M  V30 23366 C 2154.25 4.00845 -1.50024 0
M  V30 23367 C 2153.58 5.2716 -0.894759 0
M  V30 23368 C 2154.88 4.35699 -2.88035 0
M  V30 23369 H 2156.57 2.33345 -1.87592 0
M  V30 23370 H 2154.12 1.1214 -0.903366 0
M  V30 23371 H 2156.07 4.20243 -0.312095 0
M  V30 23372 H 2154.79 3.23272 0.46503 0
M  V30 23373 H 2153.45 3.26495 -1.66724 0
M  V30 23374 H 2153.1 5.02952 0.0697668 0
M  V30 23375 H 2152.8 5.66291 -1.56805 0
M  V30 23376 H 2154.32 6.06272 -0.725685 0
M  V30 23377 H 2155.74 5.03083 -2.7492 0
M  V30 23378 H 2154.13 4.8591 -3.52152 0
M  V30 23379 H 2155.2 3.45019 -3.4072 0
M  V30 23380 N 2156.55 0.997319 1.2203 0
M  V30 23381 C 2157.79 0.676667 1.91178 0
M  V30 23382 C 2158.13 -0.789768 1.77416 0
M  V30 23383 O 2157.4 -1.57163 1.14586 0
M  V30 23384 C 2157.68 1.08886 3.43243 0
M  V30 23385 C 2157.54 2.61418 3.66034 0
M  V30 23386 C 2158.86 0.645428 4.35342 0
M  V30 23387 H 2155.98 0.247298 0.694271 0
M  V30 23388 H 2158.62 1.24163 1.43818 0
M  V30 23389 H 2156.77 0.608155 3.8371 0
M  V30 23390 H 2158.44 3.17192 3.34943 0
M  V30 23391 H 2156.68 3.03284 3.10163 0
M  V30 23392 H 2157.35 2.8531 4.72549 0
M  V30 23393 H 2159.83 1.05839 4.02414 0
M  V30 23394 H 2158.71 0.962088 5.40403 0
M  V30 23395 H 2158.97 -0.453741 4.39765 0
M  V30 23396 N 2158.03 -1.37449 0.771075 0
M  V30 23397 C 2159.25 -2.04506 0.345245 0
M  V30 23398 C 2159.68 -1.57774 -1.02415 0
M  V30 23399 O 2159.03 -0.737677 -1.65614 0
M  V30 23400 C 2159.08 -3.58411 0.396728 0
M  V30 23401 O 2158.19 -4.07967 -0.60306 0
M  V30 23402 H 2157.53 -0.64693 0.149593 0
M  V30 23403 H 2160.06 -1.75777 1.04708 0
M  V30 23404 H 2160.07 -4.0721 0.253784 0
M  V30 23405 H 2158.74 -3.9178 1.39576 0
M  V30 23406 H 2157.32 -3.7049 -0.423289 0
M  V30 23407 N 2159.5 -0.52156 -1.4872 0
M  V30 23408 C 2160.73 0.0117966 -2.06897 0
M  V30 23409 C 2161.15 1.28928 -1.37924 0
M  V30 23410 O 2160.5 1.76502 -0.464046 0
M  V30 23411 C 2160.56 0.248161 -3.60647 0
M  V30 23412 O 2160.28 -0.978703 -4.27028 0
M  V30 23413 C 2161.78 0.822848 -4.35596 0
M  V30 23414 H 2159 -0.0297145 -0.670342 0
M  V30 23415 H 2161.54 -0.724798 -1.91225 0
M  V30 23416 H 2159.7 0.934783 -3.75953 0
M  V30 23417 H 2160.11 -0.754221 -5.19049 0
M  V30 23418 H 2161.58 0.937703 -5.43977 0
M  V30 23419 H 2162.06 1.82571 -3.99455 0
M  V30 23420 H 2162.67 0.173056 -4.24948 0
M  V30 23421 N 2160.98 1.55502 -0.256304 0
M  V30 23422 C 2161.91 2.24749 0.633265 0
M  V30 23423 C 2162.89 1.23102 1.17388 0
M  V30 23424 O 2164.08 1.51778 1.2115 0
M  V30 23425 C 2161.21 2.95418 1.82607 0
M  V30 23426 C 2160.16 4.03834 1.41782 0
M  V30 23427 C 2159.49 4.61978 2.69222 0
M  V30 23428 C 2160.79 5.19048 0.581913 0
M  V30 23429 H 2162.48 2.99348 0.0558207 0
M  V30 23430 H 2160.03 1.43978 0.0254079 0
M  V30 23431 H 2161.98 3.42565 2.45412 0
M  V30 23432 H 2160.71 2.18323 2.42905 0
M  V30 23433 H 2159.36 3.5747 0.813066 0
M  V30 23434 H 2159.01 3.81572 3.27737 0
M  V30 23435 H 2158.71 5.3517 2.42625 0
M  V30 23436 H 2160.24 5.11864 3.32908 0
M  V30 23437 H 2161.65 5.62363 1.11449 0
M  V30 23438 H 2160.05 5.98687 0.411617 0
M  V30 23439 H 2161.12 4.83216 -0.403719 0
M  V30 23440 N 2162.46 -0.0166879 1.57591 0
M  V30 23441 C 2163.37 -1.03011 2.10774 0
M  V30 23442 C 2164.39 -1.38812 1.04915 0
M  V30 23443 O 2165.56 -1.47882 1.36722 0
M  V30 23444 C 2162.63 -2.30839 2.58678 0
M  V30 23445 C 2161.69 -2.01505 3.7907 0
M  V30 23446 C 2160.92 -3.23238 4.2468 0
M  V30 23447 O 2161.14 -4.34347 3.69729 0
M  V30 23448 O 2160.08 -3.08213 5.16999 0
M  V30 23449 H 2163.9 -0.608087 2.9755 0
M  V30 23450 H 2161.49 -0.234465 1.47549 0
M  V30 23451 H 2163.37 -3.05966 2.89763 0
M  V30 23452 H 2162.05 -2.72312 1.75008 0
M  V30 23453 H 2160.95 -1.23907 3.52984 0
M  V30 23454 H 2162.29 -1.64879 4.63762 0
M  V30 23455 N 2163.94 -1.54924 -0.289176 0
M  V30 23456 C 2164.89 -1.86692 -1.35701 0
M  V30 23457 C 2165.86 -0.716885 -1.49833 0
M  V30 23458 O 2167.04 -0.966637 -1.64502 0
M  V30 23459 C 2164.18 -2.13019 -2.71509 0
M  V30 23460 C 2163.29 -3.40605 -2.6573 0
M  V30 23461 C 2162.43 -3.56714 -3.9361 0
M  V30 23462 C 2161.47 -4.78049 -3.82276 0
M  V30 23463 N 2160.6 -4.90901 -5.01957 0
M  V30 23464 H 2165.44 -2.77776 -1.07909 0
M  V30 23465 H 2162.98 -1.37539 -0.52168 0
M  V30 23466 H 2164.94 -2.2628 -3.50504 0
M  V30 23467 H 2163.57 -1.25188 -2.97536 0
M  V30 23468 H 2162.62 -3.35902 -1.78533 0
M  V30 23469 H 2163.93 -4.29728 -2.53249 0
M  V30 23470 H 2163.09 -3.69704 -4.81045 0
M  V30 23471 H 2161.83 -2.65745 -4.08939 0
M  V30 23472 H 2160.83 -4.6508 -2.93225 0
M  V30 23473 H 2162.06 -5.70437 -3.68482 0
M  V30 23474 H 2160 -4.02859 -5.17726 0
M  V30 23475 H 2159.92 -5.74044 -4.91945 0
M  V30 23476 H 2161.19 -5.0826 -5.91009 0
M  V30 23477 N 2165.42 0.552936 -1.47582 0
M  V30 23478 C 2166.36 1.65963 -1.60389 0
M  V30 23479 C 2167.33 1.59979 -0.446754 0
M  V30 23480 O 2168.52 1.78749 -0.667351 0
M  V30 23481 C 2165.66 3.04278 -1.62815 0
M  V30 23482 C 2164.77 3.20668 -2.89476 0
M  V30 23483 C 2163.91 4.49406 -2.8321 0
M  V30 23484 C 2162.95 4.59243 -4.04676 0
M  V30 23485 N 2162.08 5.79341 -3.96621 0
M  V30 23486 H 2166.92 1.54355 -2.54909 0
M  V30 23487 H 2164.46 0.751844 -1.26435 0
M  V30 23488 H 2166.42 3.84377 -1.62204 0
M  V30 23489 H 2165.05 3.14712 -0.718048 0
M  V30 23490 H 2164.1 2.33973 -2.99935 0
M  V30 23491 H 2165.41 3.238 -3.79414 0
M  V30 23492 H 2164.57 5.3777 -2.80872 0
M  V30 23493 H 2163.3 4.4876 -1.90961 0
M  V30 23494 H 2162.31 3.69291 -4.07314 0
M  V30 23495 H 2163.53 4.61645 -4.98057 0
M  V30 23496 H 2161.48 5.79636 -3.07178 0
M  V30 23497 H 2161.4 5.8387 -4.80242 0
M  V30 23498 H 2162.67 6.70054 -3.98306 0
M  V30 23499 N 2166.89 1.35785 0.800009 0
M  V30 23500 C 2167.83 1.25104 1.92046 0
M  V30 23501 C 2168.84 0.172854 1.6188 0
M  V30 23502 O 2170.03 0.426685 1.73325 0
M  V30 23503 C 2167.13 0.905182 3.26588 0
M  V30 23504 C 2166.3 2.08308 3.84612 0
M  V30 23505 C 2165.36 1.71196 4.97572 0
M  V30 23506 O 2164.39 2.43153 5.1465 0
M  V30 23507 N 2165.59 0.639434 5.76967 0
M  V30 23508 H 2168.35 2.21638 2.01734 0
M  V30 23509 H 2165.91 1.29041 0.977759 0
M  V30 23510 H 2167.91 0.638273 3.99635 0
M  V30 23511 H 2166.48 0.02931 3.12586 0
M  V30 23512 H 2165.7 2.51341 3.0368 0
M  V30 23513 H 2166.98 2.87028 4.2011 0
M  V30 23514 H 2166.38 0.0417276 5.65685 0
M  V30 23515 H 2164.94 0.432323 6.50365 0
M  V30 23516 N 2168.37 -1.02294 1.19891 0
M  V30 23517 C 2169.79 -1.28069 0.952398 0
M  V30 23518 C 2169.99 -1.98041 -0.371776 0
M  V30 23519 O 2169.04 -2.2719 -1.10185 0
M  V30 23520 C 2170.36 -2.12194 2.13059 0
M  V30 23521 C 2171.91 -2.25482 2.17087 0
M  V30 23522 C 2172.38 -3.12982 3.34375 0
M  V30 23523 N 2173.87 -3.2057 3.34348 0
M  V30 23524 C 2174.61 -3.88481 4.21747 0
M  V30 23525 N 2174.1 -4.58571 5.19311 0
M  V30 23526 N 2175.9 -3.8494 4.09606 0
M  V30 23527 H 2168.05 -0.55294 2.05076 0
M  V30 23528 H 2170.31 -0.306622 0.897043 0
M  V30 23529 H 2170.02 -1.68109 3.08921 0
M  V30 23530 H 2169.89 -3.12919 2.10621 0
M  V30 23531 H 2172.28 -2.68795 1.21792 0
M  V30 23532 H 2172.36 -1.24287 2.23576 0
M  V30 23533 H 2172 -2.70376 4.29953 0
M  V30 23534 H 2171.93 -4.1425 3.25123 0
M  V30 23535 H 2174.42 -2.70658 2.63729 0
M  V30 23536 H 2174.74 -5.08039 5.82337 0
M  V30 23537 H 2173.08 -4.57417 5.23254 0
M  V30 23538 H 2176.27 -3.29326 3.32659 0
M  V30 23539 H 2176.44 -4.37591 4.77931 0
M  V30 23540 N 2169.85 -1.00378 -1.21499 0
M  V30 23541 C 2170.8 -0.563153 -2.23824 0
M  V30 23542 C 2171.77 0.410151 -1.60956 0
M  V30 23543 O 2172.95 0.312473 -1.88224 0
M  V30 23544 C 2170.09 0.105277 -3.44939 0
M  V30 23545 C 2169.21 -0.91106 -4.22284 0
M  V30 23546 C 2168.34 -0.215019 -5.30765 0
M  V30 23547 C 2167.38 -1.21899 -5.99839 0
M  V30 23548 N 2166.52 -0.550506 -6.99938 0
M  V30 23549 H 2171.36 -1.44041 -2.60876 0
M  V30 23550 H 2168.89 -0.721302 -1.28202 0
M  V30 23551 H 2170.85 0.509838 -4.14073 0
M  V30 23552 H 2169.48 0.946261 -3.08619 0
M  V30 23553 H 2168.53 -1.43387 -3.52341 0
M  V30 23554 H 2169.85 -1.67513 -4.69831 0
M  V30 23555 H 2169 0.245713 -6.06202 0
M  V30 23556 H 2167.74 0.581469 -4.84221 0
M  V30 23557 H 2166.74 -1.69024 -5.23174 0
M  V30 23558 H 2167.97 -2.01654 -6.48469 0
M  V30 23559 H 2165.91 0.226347 -6.55609 0
M  V30 23560 H 2165.83 -1.25285 -7.45547 0
M  V30 23561 H 2167.1 -0.112938 -7.79418 0
M  V30 23562 N 2171.33 1.37038 -0.778354 0
M  V30 23563 C 2172.58 1.99528 -0.345678 0
M  V30 23564 C 2172.9 1.61785 1.07962 0
M  V30 23565 O 2172.16 0.85887 1.75846 0
M  V30 23566 C 2172.46 3.54632 -0.443975 0
M  V30 23567 C 2172.12 4.12162 -1.82848 0
M  V30 23568 C 2170.79 4.27587 -2.20732 0
M  V30 23569 C 2173.14 4.43641 -2.73555 0
M  V30 23570 C 2170.47 4.71797 -3.48747 0
M  V30 23571 C 2172.82 4.89278 -4.00986 0
M  V30 23572 C 2171.48 5.02909 -4.38906 0
M  V30 23573 H 2170.75 0.730124 -0.126493 0
M  V30 23574 H 2173.4 1.63703 -0.993664 0
M  V30 23575 H 2171.7 3.90743 0.287537 0
M  V30 23576 H 2173.4 4.00898 -0.0903991 0
M  V30 23577 H 2169.99 4.00588 -1.52406 0
M  V30 23578 H 2174.17 4.31303 -2.45544 0
M  V30 23579 H 2169.43 4.80537 -3.78013 0
M  V30 23580 H 2173.6 5.12601 -4.71394 0
M  V30 23581 H 2171.23 5.36926 -5.38159 0
M  V30 23582 N 2172.81 0.529439 1.48441 0
M  V30 23583 C 2174.08 -0.0692247 1.95477 0
M  V30 23584 C 2174.46 -1.51345 1.47166 0
M  V30 23585 O 2173.81 -2.1758 0.697925 0
M  V30 23586 C 2174.02 0.0474683 3.48968 0
M  V30 23587 C 2175.37 -0.112074 4.24452 0
M  V30 23588 O 2176.39 -0.0263527 3.5619 0
M  V30 23589 O 2175.25 -0.291683 5.45721 0
M  V30 23590 H 2172.35 -0.079598 0.82316 0
M  V30 23591 H 2174.89 0.593999 1.58965 0
M  V30 23592 H 2173.67 1.05353 3.76851 0
M  V30 23593 H 2173.29 -0.65463 3.92174 0
M  V30 23594 N 2174.29 -1.55364 0.264547 0
M  V30 23595 C 2175.22 -2.19475 -0.660544 0
M  V30 23596 C 2176.23 -1.17628 -1.1255 0
M  V30 23597 O 2177.42 -1.44407 -1.04923 0
M  V30 23598 C 2174.52 -2.79832 -1.91173 0
M  V30 23599 C 2173.69 -4.07269 -1.59533 0
M  V30 23600 C 2172.75 -4.51774 -2.6979 0
M  V30 23601 O 2171.78 -5.17776 -2.36425 0
M  V30 23602 N 2172.98 -4.2103 -3.99642 0
M  V30 23603 H 2175.74 -2.99491 -0.111888 0
M  V30 23604 H 2173.31 -1.61676 0.0852139 0
M  V30 23605 H 2175.3 -3.06555 -2.64209 0
M  V30 23606 H 2173.87 -2.03871 -2.36971 0
M  V30 23607 H 2173.09 -3.87948 -0.699303 0
M  V30 23608 H 2174.38 -4.9032 -1.35881 0
M  V30 23609 H 2173.77 -3.68079 -4.29575 0
M  V30 23610 H 2172.33 -4.52548 -4.69088 0
M  V30 23611 N 2175.76 0.00833021 -1.57598 0
M  V30 23612 C 2176.69 1.0015 -2.10932 0
M  V30 23613 C 2177.67 1.36385 -1.01653 0
M  V30 23614 O 2178.86 1.44906 -1.2929 0
M  V30 23615 C 2175.99 2.296 -2.60578 0
M  V30 23616 C 2174.94 2.07551 -3.74308 0
M  V30 23617 C 2174.27 3.42942 -4.10238 0
M  V30 23618 C 2175.57 1.44484 -5.01918 0
M  V30 23619 H 2177.26 0.557461 -2.94164 0
M  V30 23620 H 2174.81 0.266703 -1.41509 0
M  V30 23621 H 2176.76 2.99428 -2.96515 0
M  V30 23622 H 2175.49 2.76103 -1.74456 0
M  V30 23623 H 2174.15 1.40152 -3.38752 0
M  V30 23624 H 2173.79 3.87132 -3.21151 0
M  V30 23625 H 2173.49 3.29007 -4.86855 0
M  V30 23626 H 2175.02 4.14098 -4.48726 0
M  V30 23627 H 2176.43 2.04256 -5.35679 0
M  V30 23628 H 2174.83 1.41063 -5.83285 0
M  V30 23629 H 2175.9 0.413049 -4.83138 0
M  V30 23630 N 2177.24 1.55075 0.280956 0
M  V30 23631 C 2178.17 1.90416 1.35145 0
M  V30 23632 C 2179.15 0.765149 1.51919 0
M  V30 23633 O 2180.34 1.02261 1.65095 0
M  V30 23634 C 2177.47 2.16909 2.71233 0
M  V30 23635 C 2176.42 3.32739 2.692 0
M  V30 23636 C 2175.75 3.44695 4.08766 0
M  V30 23637 C 2177.05 4.69338 2.2917 0
M  V30 23638 H 2178.74 2.80078 1.05815 0
M  V30 23639 H 2176.29 1.34758 0.507584 0
M  V30 23640 H 2178.24 2.40219 3.46226 0
M  V30 23641 H 2176.96 1.24039 3.02129 0
M  V30 23642 H 2175.62 3.09385 1.96664 0
M  V30 23643 H 2175.27 2.49305 4.36871 0
M  V30 23644 H 2174.97 4.22568 4.08301 0
M  V30 23645 H 2176.5 3.70288 4.85509 0
M  V30 23646 H 2177.91 4.92246 2.93883 0
M  V30 23647 H 2176.31 5.5007 2.39882 0
M  V30 23648 H 2177.38 4.68698 1.24297 0
M  V30 23649 N 2178.72 -0.545102 1.47873 0
M  V30 23650 C 2179.68 -1.63324 1.60804 0
M  V30 23651 C 2180.68 -1.53397 0.482294 0
M  V30 23652 O 2181.87 -1.57338 0.747692 0
M  V30 23653 C 2179 -3.02906 1.56399 0
M  V30 23654 H 2180.2 -1.53204 2.57815 0
M  V30 23655 H 2177.75 -0.765983 1.36244 0
M  V30 23656 H 2178.49 -3.18548 0.608084 0
M  V30 23657 H 2178.27 -3.11521 2.38112 0
M  V30 23658 H 2179.76 -3.82048 1.6861 0
M  V30 23659 N 2180.2 -1.36208 -0.792797 0
M  V30 23660 C 2181.11 -1.32403 -1.93666 0
M  V30 23661 C 2182.12 -0.226736 -1.72516 0
M  V30 23662 O 2183.3 -0.458518 -1.96111 0
M  V30 23663 C 2180.36 -1.10928 -3.28475 0
M  V30 23664 C 2179.43 -2.301 -3.62426 0
M  V30 23665 C 2178.66 -2.0964 -4.90802 0
M  V30 23666 O 2178.88 -1.06985 -5.60277 0
M  V30 23667 O 2177.82 -2.97336 -5.23331 0
M  V30 23668 H 2181.64 -2.287 -1.99825 0
M  V30 23669 H 2179.23 -1.1672 -0.932566 0
M  V30 23670 H 2181.11 -1.00855 -4.09153 0
M  V30 23671 H 2179.78 -0.17691 -3.23216 0
M  V30 23672 H 2178.69 -2.45741 -2.82068 0
M  V30 23673 H 2180.02 -3.21832 -3.72405 0
M  V30 23674 N 2181.68 1.01656 -1.20431 0
M  V30 23675 C 2182.59 2.13658 -0.968877 0
M  V30 23676 C 2183.6 1.73837 0.075256 0
M  V30 23677 O 2184.78 2.01087 -0.112194 0
M  V30 23678 C 2181.84 3.42716 -0.524052 0
M  V30 23679 C 2180.9 3.9678 -1.63904 0
M  V30 23680 C 2180.14 5.19678 -1.21534 0
M  V30 23681 O 2180.36 5.70338 -0.0840508 0
M  V30 23682 O 2179.29 5.66893 -2.02278 0
M  V30 23683 H 2183.12 2.3639 -1.90666 0
M  V30 23684 H 2180.7 1.1205 -0.98819 0
M  V30 23685 H 2182.59 4.20434 -0.285221 0
M  V30 23686 H 2181.26 3.21401 0.385143 0
M  V30 23687 H 2180.17 3.20341 -1.93215 0
M  V30 23688 H 2181.5 4.22484 -2.52524 0
M  V30 23689 N 2183.15 1.01021 1.20965 0
M  V30 23690 C 2184.1 0.575015 2.23522 0
M  V30 23691 C 2185.07 -0.401609 1.61172 0
M  V30 23692 O 2186.26 -0.302487 1.88387 0
M  V30 23693 C 2183.4 -0.0869827 3.4499 0
M  V30 23694 C 2182.51 0.933442 4.21795 0
M  V30 23695 C 2181.64 0.243164 5.30643 0
M  V30 23696 C 2180.68 1.25078 5.99184 0
M  V30 23697 N 2179.82 0.587617 6.99637 0
M  V30 23698 H 2184.66 1.45423 2.60108 0
M  V30 23699 H 2182.2 0.728091 1.27817 0
M  V30 23700 H 2184.15 -0.487872 4.14338 0
M  V30 23701 H 2182.78 -0.929881 3.09117 0
M  V30 23702 H 2181.84 1.45254 3.51576 0
M  V30 23703 H 2183.15 1.70003 4.68936 0
M  V30 23704 H 2182.3 -0.213561 6.06324 0
M  V30 23705 H 2181.04 -0.555781 4.84523 0
M  V30 23706 H 2180.05 1.71796 5.2227 0
M  V30 23707 H 2181.27 2.0509 6.47391 0
M  V30 23708 H 2179.22 -0.191575 6.5572 0
M  V30 23709 H 2179.13 1.29237 7.44872 0
M  V30 23710 H 2180.4 0.154271 7.79347 0
M  V30 23711 N 2184.63 -1.36623 0.78561 0
M  V30 23712 C 2185.59 -2.28433 0.187388 0
M  V30 23713 C 2186.59 -1.48655 -0.613055 0
M  V30 23714 O 2187.78 -1.68691 -0.434608 0
M  V30 23715 C 2184.92 -3.32746 -0.741121 0
M  V30 23716 H 2186.11 -2.82847 0.996872 0
M  V30 23717 H 2183.66 -1.46123 0.554769 0
M  V30 23718 H 2184.4 -2.83481 -1.57509 0
M  V30 23719 H 2184.18 -3.91735 -0.169144 0
M  V30 23720 H 2185.67 -4.01319 -1.15467 0
M  V30 23721 N 2186.11 -0.537304 -1.48158 0
M  V30 23722 C 2187.07 0.210784 -2.28229 0
M  V30 23723 C 2188.07 0.861078 -1.35802 0
M  V30 23724 O 2189.26 0.72 -1.58624 0
M  V30 23725 C 2186.39 1.30581 -3.14899 0
M  V30 23726 H 2187.59 -0.492311 -2.95832 0
M  V30 23727 H 2185.14 -0.293505 -1.53519 0
M  V30 23728 H 2185.88 2.04194 -2.51943 0
M  V30 23729 H 2185.66 0.844559 -3.82896 0
M  V30 23730 H 2187.15 1.8318 -3.7528 0
M  V30 23731 N 2187.59 1.55221 -0.272782 0
M  V30 23732 C 2188.83 1.99841 0.345178 0
M  V30 23733 C 2189.17 1.16093 1.55679 0
M  V30 23734 O 2188.44 0.230441 1.9313 0
M  V30 23735 C 2188.73 3.5263 0.729656 0
M  V30 23736 C 2188.58 4.47133 -0.489138 0
M  V30 23737 C 2189.9 4.11259 1.56698 0
M  V30 23738 H 2187.02 0.726495 0.123989 0
M  V30 23739 H 2189.66 1.86176 -0.379262 0
M  V30 23740 H 2187.81 3.64405 1.34689 0
M  V30 23741 H 2189.48 4.47304 -1.12769 0
M  V30 23742 H 2187.72 4.18888 -1.12762 0
M  V30 23743 H 2188.39 5.51718 -0.176396 0
M  V30 23744 H 2190.87 4.02745 1.04572 0
M  V30 23745 H 2189.75 5.1838 1.80481 0
M  V30 23746 H 2190.01 3.61341 2.54726 0
M  V30 23747 N 2189.07 2.77022e-05 1.576 0
M  V30 23748 C 2190 -0.990304 2.1146 0
M  V30 23749 C 2190.98 -1.35844 1.02374 0
M  V30 23750 O 2192.16 -1.44218 1.30057 0
M  V30 23751 C 2189.29 -2.28215 2.61792 0
M  V30 23752 C 2188.25 -2.05563 3.75404 0
M  V30 23753 C 2187.57 -3.40761 4.12051 0
M  V30 23754 C 2188.87 -1.4182 5.02677 0
M  V30 23755 H 2190.57 -0.541853 2.94456 0
M  V30 23756 H 2188.11 -0.259194 1.41648 0
M  V30 23757 H 2190.07 -2.97851 2.98099 0
M  V30 23758 H 2188.79 -2.75174 1.75918 0
M  V30 23759 H 2187.45 -1.38353 3.39491 0
M  V30 23760 H 2187.1 -3.85423 3.232 0
M  V30 23761 H 2186.8 -3.26421 4.88593 0
M  V30 23762 H 2188.32 -4.11712 4.50916 0
M  V30 23763 H 2189.73 -2.01413 5.36755 0
M  V30 23764 H 2188.13 -1.37967 5.84025 0
M  V30 23765 H 2189.2 -0.387421 4.8335 0
M  V30 23766 N 2190.54 -1.55222 -0.272728 0
M  V30 23767 C 2191.96 -1.47068 -0.619933 0
M  V30 23768 C 2192.16 -0.685012 -1.89499 0
M  V30 23769 O 2191.22 -0.203975 -2.51675 0
M  V30 23770 C 2192.53 -2.91283 -0.746642 0
M  V30 23771 C 2194.08 -3.01499 -0.840678 0
M  V30 23772 C 2194.55 -4.46968 -0.999161 0
M  V30 23773 N 2196.04 -4.50798 -1.06468 0
M  V30 23774 C 2196.78 -5.60572 -1.20611 0
M  V30 23775 N 2196.27 -6.80211 -1.31471 0
M  V30 23776 N 2198.07 -5.48315 -1.23723 0
M  V30 23777 H 2190.22 -2.04757 0.564642 0
M  V30 23778 H 2192.48 -0.92852 0.191194 0
M  V30 23779 H 2192.19 -3.51496 0.119815 0
M  V30 23780 H 2192.06 -3.40314 -1.62684 0
M  V30 23781 H 2194.45 -2.41382 -1.6976 0
M  V30 23782 H 2194.53 -2.5572 0.0641323 0
M  V30 23783 H 2194.17 -5.07688 -0.146895 0
M  V30 23784 H 2194.1 -4.90404 -1.91862 0
M  V30 23785 H 2196.59 -3.64617 -0.993132 0
M  V30 23786 H 2196.91 -7.59624 -1.42098 0
M  V30 23787 H 2195.25 -6.83022 -1.28475 0
M  V30 23788 H 2198.44 -4.53787 -1.14869 0
M  V30 23789 H 2198.62 -6.33909 -1.34401 0
M  V30 23790 N 2192.02 0.537252 -1.4816 0
M  V30 23791 C 2192.99 1.62469 -1.61668 0
M  V30 23792 C 2193.99 1.53139 -0.490422 0
M  V30 23793 O 2195.18 1.56939 -0.756026 0
M  V30 23794 C 2192.31 3.02073 -1.58003 0
M  V30 23795 H 2193.5 1.51834 -2.58624 0
M  V30 23796 H 2191.05 0.758747 -1.36648 0
M  V30 23797 H 2191.79 3.18221 -0.624969 0
M  V30 23798 H 2191.57 3.10254 -2.3976 0
M  V30 23799 H 2193.06 3.81148 -1.70634 0
M  V30 23800 N 2193.5 1.36626 0.785562 0
M  V30 23801 C 2194.75 1.31264 1.54588 0
M  V30 23802 C 2195.08 -0.106789 1.93906 0
M  V30 23803 O 2194.35 -1.06105 1.63009 0
M  V30 23804 C 2194.64 2.23894 2.82034 0
M  V30 23805 C 2194.49 3.74553 2.49059 0
M  V30 23806 C 2195.81 2.15224 3.83884 0
M  V30 23807 H 2192.93 0.478152 0.560838 0
M  V30 23808 H 2195.57 1.67211 0.902248 0
M  V30 23809 H 2193.72 1.93369 3.36958 0
M  V30 23810 H 2195.39 4.15614 2.00157 0
M  V30 23811 H 2193.64 3.93799 1.81947 0
M  V30 23812 H 2194.31 4.34782 3.40101 0
M  V30 23813 H 2196.78 2.42101 3.38417 0
M  V30 23814 H 2195.66 2.82201 4.70801 0
M  V30 23815 H 2195.92 1.14075 4.27129 0
M  V30 23816 N 2194.98 -1.01016 1.20969 0
M  V30 23817 C 2195.89 -2.13142 0.980194 0
M  V30 23818 C 2196.9 -1.73875 -0.0660359 0
M  V30 23819 O 2198.08 -2.01025 0.122857 0
M  V30 23820 C 2195.15 -3.42434 0.54222 0
M  V30 23821 C 2194.21 -3.95905 1.66006 0
M  V30 23822 C 2193.44 -5.19026 1.24289 0
M  V30 23823 O 2193.66 -5.70285 0.114296 0
M  V30 23824 O 2192.6 -5.65812 2.05281 0
M  V30 23825 H 2196.42 -2.35376 1.91917 0
M  V30 23826 H 2194.01 -1.11524 0.994118 0
M  V30 23827 H 2195.89 -4.20276 0.307514 0
M  V30 23828 H 2194.56 -3.216 -0.368093 0
M  V30 23829 H 2193.47 -3.19312 1.94912 0
M  V30 23830 H 2194.8 -4.21139 2.54761 0
M  V30 23831 N 2196.46 -1.01661 -1.20428 0
M  V30 23832 C 2197.37 -0.596524 -2.26889 0
M  V30 23833 C 2198.38 0.365961 -1.70108 0
M  V30 23834 O 2199.56 0.226907 -2.00118 0
M  V30 23835 C 2196.62 0.058605 -3.4665 0
M  V30 23836 C 2195.68 -0.949824 -4.18661 0
M  V30 23837 C 2194.92 -0.325864 -5.32704 0
M  V30 23838 O 2195.14 0.87441 -5.63658 0
M  V30 23839 O 2194.07 -1.0426 -5.92801 0
M  V30 23840 H 2197.9 -1.48285 -2.65038 0
M  V30 23841 H 2195.49 -0.786105 -1.27046 0
M  V30 23842 H 2197.37 0.42449 -4.19257 0
M  V30 23843 H 2196.04 0.919125 -3.10377 0
M  V30 23844 H 2194.95 -1.36708 -3.48227 0
M  V30 23845 H 2196.28 -1.78031 -4.58875 0
M  V30 23846 N 2197.93 1.36205 -0.792844 0
M  V30 23847 C 2199.35 1.5237 -0.47493 0
M  V30 23848 C 2199.55 1.7458 1.00619 0
M  V30 23849 O 2198.61 1.77927 1.79159 0
M  V30 23850 C 2199.92 2.70745 -1.30835 0
M  V30 23851 C 2201.47 2.84617 -1.30239 0
M  V30 23852 C 2201.94 4.06 -2.11963 0
M  V30 23853 N 2203.43 4.13152 -2.09427 0
M  V30 23854 C 2204.17 5.06158 -2.69428 0
M  V30 23855 N 2203.66 6.04586 -3.38301 0
M  V30 23856 N 2205.46 4.988 -2.59143 0
M  V30 23857 H 2197.61 1.20043 -1.75224 0
M  V30 23858 H 2199.87 0.586198 -0.745034 0
M  V30 23859 H 2199.58 2.60866 -2.35885 0
M  V30 23860 H 2199.45 3.64988 -0.952024 0
M  V30 23861 H 2201.84 2.93954 -0.259799 0
M  V30 23862 H 2201.92 1.91271 -1.6985 0
M  V30 23863 H 2201.56 3.97423 -3.16255 0
M  V30 23864 H 2201.49 4.985 -1.6972 0
M  V30 23865 H 2203.98 3.42682 -1.59303 0
M  V30 23866 H 2204.3 6.72123 -3.81405 0
M  V30 23867 H 2202.64 6.04801 -3.42404 0
M  V30 23868 H 2205.83 4.20855 -2.04935 0
M  V30 23869 H 2206.01 5.71094 -3.06195 0
M  V30 23870 N 2199.41 0.545154 1.47871 0
M  V30 23871 C 2200.32 -0.212705 2.33634 0
M  V30 23872 C 2201.34 -0.923957 1.47442 0
M  V30 23873 O 2202.51 -0.89554 1.80394 0
M  V30 23874 C 2199.58 -1.23687 3.23886 0
M  V30 23875 C 2198.64 -0.534342 4.25962 0
M  V30 23876 C 2197.87 -1.50971 5.11902 0
M  V30 23877 O 2198.1 -2.74361 5.00082 0
M  V30 23878 O 2197.03 -1.0408 5.92833 0
M  V30 23879 H 2200.86 0.490469 2.99713 0
M  V30 23880 H 2198.44 0.305896 1.46235 0
M  V30 23881 H 2200.32 -1.82836 3.7967 0
M  V30 23882 H 2199 -1.92218 2.6045 0
M  V30 23883 H 2197.91 0.0980336 3.73972 0
M  V30 23884 H 2199.24 0.1093 4.92079 0
M  V30 23885 N 2200.89 -1.55074 0.28101 0
M  V30 23886 C 2202.31 -1.59433 -0.0729684 0
M  V30 23887 C 2202.51 -1.29819 -1.54108 0
M  V30 23888 O 2201.56 -1.06191 -2.29085 0
M  V30 23889 C 2202.88 -2.99129 0.306974 0
M  V30 23890 C 2204.42 -3.11967 0.254078 0
M  V30 23891 C 2204.9 -4.53939 0.608547 0
M  V30 23892 N 2206.39 -4.59798 0.560322 0
M  V30 23893 C 2207.12 -5.67688 0.807319 0
M  V30 23894 N 2206.62 -6.83699 1.11924 0
M  V30 23895 N 2208.41 -5.57264 0.735721 0
M  V30 23896 H 2200.56 -1.72588 1.23803 0
M  V30 23897 H 2202.83 -0.805073 0.500561 0
M  V30 23898 H 2202.53 -3.25655 1.32822 0
M  V30 23899 H 2202.41 -3.75579 -0.349297 0
M  V30 23900 H 2204.79 -2.85202 -0.75789 0
M  V30 23901 H 2204.88 -2.37717 0.94469 0
M  V30 23902 H 2204.52 -4.81431 1.61823 0
M  V30 23903 H 2204.45 -5.26497 -0.10392 0
M  V30 23904 H 2206.94 -3.76462 0.329354 0
M  V30 23905 H 2207.25 -7.61886 1.29422 0
M  V30 23906 H 2205.6 -6.853 1.15708 0
M  V30 23907 H 2208.79 -4.65509 0.491834 0
M  V30 23908 H 2208.96 -6.41269 0.931595 0
M  V30 23909 N 2202.37 -0.00838561 -1.57598 0
M  V30 23910 C 2203.33 0.965206 -2.07886 0
M  V30 23911 C 2204.33 1.26723 -0.989847 0
M  V30 23912 O 2205.52 1.21101 -1.2522 0
M  V30 23913 C 2202.65 2.28775 -2.52735 0
M  V30 23914 H 2203.85 0.53006 -2.95179 0
M  V30 23915 H 2201.4 0.239256 -1.54458 0
M  V30 23916 H 2202.14 2.76961 -1.6871 0
M  V30 23917 H 2201.92 2.08172 -3.32276 0
M  V30 23918 H 2203.41 2.986 -2.91938 0
M  V30 23919 N 2203.85 1.55365 0.264492 0
M  V30 23920 C 2204.76 1.91936 1.34899 0
M  V30 23921 C 2205.77 0.81762 1.53594 0
M  V30 23922 O 2206.95 1.11745 1.67556 0
M  V30 23923 C 2204.01 2.19126 2.68672 0
M  V30 23924 C 2203.08 3.42634 2.58651 0
M  V30 23925 C 2202.31 3.68517 3.86045 0
M  V30 23926 O 2202.53 2.96765 4.87121 0
M  V30 23927 O 2201.47 4.62051 3.85736 0
M  V30 23928 H 2205.29 2.84272 1.06878 0
M  V30 23929 H 2202.88 1.4202 0.46375 0
M  V30 23930 H 2204.76 2.38001 3.47755 0
M  V30 23931 H 2203.43 1.29971 2.96461 0
M  V30 23932 H 2202.34 3.29086 1.77914 0
M  V30 23933 H 2203.67 4.32035 2.3581 0
M  V30 23934 N 2205.33 -0.529387 1.48443 0
M  V30 23935 C 2206.29 -1.61609 1.62527 0
M  V30 23936 C 2207.29 -1.52877 0.498536 0
M  V30 23937 O 2208.48 -1.56536 0.764338 0
M  V30 23938 C 2205.61 -3.01231 1.59603 0
M  V30 23939 H 2206.8 -1.50461 2.59425 0
M  V30 23940 H 2204.36 -0.75149 1.37049 0
M  V30 23941 H 2205.09 -3.17885 0.641837 0
M  V30 23942 H 2204.88 -3.08978 2.41402 0
M  V30 23943 H 2206.37 -3.80238 1.72653 0
M  V30 23944 N 2206.8 -1.37041 -0.778305 0
M  V30 23945 C 2207.71 -1.3445 -1.92251 0
M  V30 23946 C 2208.73 -0.245021 -1.72266 0
M  V30 23947 O 2209.91 -0.479293 -1.95614 0
M  V30 23948 C 2206.97 -1.14405 -3.2728 0
M  V30 23949 C 2206.03 -2.33931 -3.59965 0
M  V30 23950 C 2205.26 -2.14834 -4.88551 0
M  V30 23951 O 2205.49 -1.12922 -5.59111 0
M  V30 23952 O 2204.42 -3.0287 -5.20147 0
M  V30 23953 H 2208.25 -2.30807 -1.97388 0
M  V30 23954 H 2205.83 -1.17703 -0.920134 0
M  V30 23955 H 2207.71 -1.05189 -4.0806 0
M  V30 23956 H 2206.39 -0.211181 -3.2301 0
M  V30 23957 H 2205.3 -2.48718 -2.79446 0
M  V30 23958 H 2206.63 -3.25763 -3.6897 0
M  V30 23959 N 2208.28 1.00373 -1.21503 0
M  V30 23960 C 2209.53 1.73825 -1.03098 0
M  V30 23961 C 2209.85 1.90056 0.436307 0
M  V30 23962 O 2209.12 1.45238 1.31464 0
M  V30 23963 H 2207.7 0.644009 -0.378498 0
M  V30 23964 H 2210.36 1.20947 -1.52833 0
M  V30 23965 H 2209.46 2.73692 -1.49996 0
M  V30 23966 N 2209.76 1.02298 1.19887 0
M  V30 23967 C 2211.18 0.738979 1.41461 0
M  V30 23968 C 2211.38 -0.678813 1.89722 0
M  V30 23969 O 2210.43 -1.44566 2.07019 0
M  V30 23970 C 2211.74 1.7701 2.4308 0
M  V30 23971 C 2213.29 1.78896 2.56837 0
M  V30 23972 C 2213.77 2.80952 3.61704 0
M  V30 23973 N 2215.26 2.79732 3.69194 0
M  V30 23974 C 2215.99 3.55353 4.50013 0
M  V30 23975 N 2215.49 4.40672 5.34584 0
M  V30 23976 N 2217.28 3.43922 4.44606 0
M  V30 23977 H 2209.43 1.93819 0.868793 0
M  V30 23978 H 2211.7 0.83761 0.443975 0
M  V30 23979 H 2211.4 2.78615 2.14631 0
M  V30 23980 H 2211.28 1.5875 3.42167 0
M  V30 23981 H 2213.66 0.779724 2.84613 0
M  V30 23982 H 2213.74 2.01231 1.57924 0
M  V30 23983 H 2213.39 3.82044 3.34671 0
M  V30 23984 H 2213.32 2.55878 4.60254 0
M  V30 23985 H 2215.81 2.17847 3.0879 0
M  V30 23986 H 2216.12 4.95127 5.93354 0
M  V30 23987 H 2214.47 4.44747 5.34065 0
M  V30 23988 H 2217.66 2.76685 3.77575 0
M  V30 23989 H 2217.83 4.03109 5.07353 0
M  V30 23990 N 2211.24 -1.35782 0.800057 0
M  V30 23991 C 2212.15 -2.33683 0.207245 0
M  V30 23992 C 2213.16 -1.61552 -0.646282 0
M  V30 23993 O 2214.34 -1.9347 -0.55957 0
M  V30 23994 C 2211.4 -3.40749 -0.639599 0
M  V30 23995 C 2210.47 -4.28664 0.23366 0
M  V30 23996 C 2209.7 -5.30617 -0.572861 0
M  V30 23997 O 2209.92 -5.40986 -1.80806 0
M  V30 23998 O 2208.86 -6.01891 0.0328343 0
M  V30 23999 H 2212.68 -2.86167 1.01697 0
M  V30 24000 H 2210.27 -1.38438 0.561715 0
M  V30 24001 H 2212.15 -4.06184 -1.12216 0
M  V30 24002 H 2210.82 -2.90547 -1.42703 0
M  V30 24003 H 2209.73 -3.66232 0.763212 0
M  V30 24004 H 2211.06 -4.82246 0.984869 0
M  V30 24005 N 2212.72 -0.552988 -1.4758 0
M  V30 24006 C 2214.13 -0.212452 -1.5818 0
M  V30 24007 C 2214.33 1.28493 -1.55215 0
M  V30 24008 O 2213.39 2.06482 -1.45333 0
M  V30 24009 C 2214.7 -0.835368 -2.88863 0
M  V30 24010 C 2216.25 -0.806209 -3.02439 0
M  V30 24011 C 2216.72 -1.40812 -4.35817 0
M  V30 24012 N 2218.21 -1.37111 -4.42442 0
M  V30 24013 C 2218.95 -1.80651 -5.44199 0
M  V30 24014 N 2218.45 -2.32027 -6.5279 0
M  V30 24015 N 2220.24 -1.71747 -5.35219 0
M  V30 24016 H 2212.39 -1.5259 -1.4775 0
M  V30 24017 H 2214.65 -0.636076 -0.70293 0
M  V30 24018 H 2214.36 -1.88754 -2.96757 0
M  V30 24019 H 2214.23 -0.325914 -3.75789 0
M  V30 24020 H 2216.62 0.237265 -2.94145 0
M  V30 24021 H 2216.7 -1.35338 -2.17065 0
M  V30 24022 H 2216.34 -2.45064 -4.44866 0
M  V30 24023 H 2216.27 -0.83643 -5.19915 0
M  V30 24024 H 2218.77 -0.995266 -3.64558 0
M  V30 24025 H 2219.08 -2.63184 -7.26604 0
M  V30 24026 H 2217.42 -2.36035 -6.53691 0
M  V30 24027 H 2220.61 -1.3139 -4.49282 0
M  V30 24028 H 2220.79 -2.05998 -6.14385 0
M  V30 24029 N 2214.19 1.54923 -0.28923 0
M  V30 24030 C 2215.1 2.26749 0.601824 0
M  V30 24031 C 2216.12 1.29842 1.15832 0
M  V30 24032 O 2217.3 1.62804 1.18561 0
M  V30 24033 C 2214.36 2.98532 1.76294 0
M  V30 24034 C 2213.42 4.1095 1.2417 0
M  V30 24035 C 2212.65 4.793 2.34748 0
M  V30 24036 O 2212.88 4.46939 3.54404 0
M  V30 24037 O 2211.81 5.66954 2.02105 0
M  V30 24038 H 2215.64 3.03694 0.0195345 0
M  V30 24039 H 2213.22 1.49295 -0.0561131 0
M  V30 24040 H 2215.1 3.43596 2.43967 0
M  V30 24041 H 2213.78 2.24493 2.33205 0
M  V30 24042 H 2212.69 3.70312 0.531039 0
M  V30 24043 H 2214.02 4.86932 0.718166 0
M  V30 24044 N 2215.67 0.0167433 1.57591 0
M  V30 24045 C 2216.63 -0.954167 2.08395 0
M  V30 24046 C 2217.63 -1.26196 0.996553 0
M  V30 24047 O 2218.82 -1.20436 1.25861 0
M  V30 24048 C 2215.96 -2.27431 2.53944 0
M  V30 24049 H 2217.15 -0.514399 2.95455 0
M  V30 24050 H 2214.7 -0.231062 1.54583 0
M  V30 24051 H 2215.44 -2.76063 1.70176 0
M  V30 24052 H 2215.22 -2.06406 3.33375 0
M  V30 24053 H 2216.71 -2.97048 2.93517 0
M  V30 24054 N 2217.15 -1.55503 -0.256249 0
M  V30 24055 C 2218.57 -1.47717 -0.604299 0
M  V30 24056 C 2218.77 -0.705072 -1.88762 0
M  V30 24057 O 2217.82 -0.230657 -2.51444 0
M  V30 24058 C 2219.14 -2.92058 -0.715705 0
M  V30 24059 C 2220.68 -3.02374 -0.808653 0
M  V30 24060 C 2221.16 -4.48003 -0.951698 0
M  V30 24061 N 2222.65 -4.51902 -1.0168 0
M  V30 24062 C 2223.38 -5.61819 -1.14658 0
M  V30 24063 N 2222.88 -6.81567 -1.24249 0
M  V30 24064 N 2224.67 -5.49596 -1.17901 0
M  V30 24065 H 2216.82 -2.04147 0.586327 0
M  V30 24066 H 2219.09 -0.92644 0.201031 0
M  V30 24067 H 2218.79 -3.51349 0.157089 0
M  V30 24068 H 2218.67 -3.42021 -1.59065 0
M  V30 24069 H 2221.05 -2.43169 -1.6719 0
M  V30 24070 H 2221.14 -2.55637 0.0912512 0
M  V30 24071 H 2220.78 -5.07815 -0.0930398 0
M  V30 24072 H 2220.71 -4.92412 -1.8665 0
M  V30 24073 H 2223.2 -3.65649 -0.954404 0
M  V30 24074 H 2223.51 -7.61088 -1.34033 0
M  V30 24075 H 2221.86 -6.84346 -1.21224 0
M  V30 24076 H 2225.05 -4.5498 -1.10049 0
M  V30 24077 H 2225.22 -6.35299 -1.2767 0
M  V30 24078 N 2218.63 0.521507 -1.48721 0
M  V30 24079 C 2219.59 1.60745 -1.63382 0
M  V30 24080 C 2220.59 1.5261 -0.506637 0
M  V30 24081 O 2221.78 1.56128 -0.772629 0
M  V30 24082 C 2218.91 3.0038 -1.61198 0
M  V30 24083 H 2220.11 1.49083 -2.6022 0
M  V30 24084 H 2217.66 0.744211 -1.37445 0
M  V30 24085 H 2218.39 3.1754 -0.658686 0
M  V30 24086 H 2218.18 3.07693 -2.43038 0
M  V30 24087 H 2219.67 3.79317 -1.74667 0
M  V30 24088 N 2220.11 1.37452 0.771027 0
M  V30 24089 C 2221.04 1.35974 1.89825 0
M  V30 24090 C 2222.02 0.228246 1.68562 0
M  V30 24091 O 2223.2 0.428708 1.89409 0
M  V30 24092 C 2220.33 1.16668 3.27118 0
M  V30 24093 C 2219.29 2.26836 3.62946 0
M  V30 24094 C 2218.61 1.92652 4.98788 0
M  V30 24095 C 2219.91 3.69023 3.6962 0
M  V30 24096 H 2221.61 2.30299 1.91319 0
M  V30 24097 H 2219.15 1.10857 0.919062 0
M  V30 24098 H 2221.11 1.14263 4.05613 0
M  V30 24099 H 2219.83 0.187983 3.26059 0
M  V30 24100 H 2218.49 2.28397 2.86759 0
M  V30 24101 H 2218.14 0.933108 4.94269 0
M  V30 24102 H 2217.84 2.66425 5.23729 0
M  V30 24103 H 2219.36 1.91836 5.79682 0
M  V30 24104 H 2220.77 3.69588 4.38266 0
M  V30 24105 H 2219.17 4.41855 4.06059 0
M  V30 24106 H 2220.24 4.02597 2.70266 0
M  V30 24107 N 2221.58 -0.997276 1.22033 0
M  V30 24108 C 2222.81 -1.77713 1.06924 0
M  V30 24109 C 2223.23 -1.843 -0.376193 0
M  V30 24110 O 2222.59 -1.29226 -1.27163 0
M  V30 24111 C 2222.64 -3.19073 1.68002 0
M  V30 24112 O 2221.74 -4.0176 0.930723 0
M  V30 24113 H 2221.09 -0.547405 0.375824 0
M  V30 24114 H 2223.62 -1.25306 1.61739 0
M  V30 24115 H 2223.63 -3.6972 1.72544 0
M  V30 24116 H 2222.3 -3.13594 2.73188 0
M  V30 24117 H 2220.88 -3.60305 0.96098 0
M  V30 24118 N 2223.06 -1.02932 -1.19343 0
M  V30 24119 C 2223.99 -0.631145 -2.24808 0
M  V30 24120 C 2224.97 0.360075 -1.66245 0
M  V30 24121 O 2226.16 0.242692 -1.92678 0
M  V30 24122 C 2223.29 0.0183996 -3.47295 0
M  V30 24123 C 2222.24 -0.895147 -4.18534 0
M  V30 24124 C 2221.57 -0.110686 -5.34585 0
M  V30 24125 C 2222.87 -2.20909 -4.73283 0
M  V30 24126 H 2224.56 -1.5128 -2.5837 0
M  V30 24127 H 2222.11 -0.72884 -1.24193 0
M  V30 24128 H 2224.06 0.308601 -4.20269 0
M  V30 24129 H 2222.79 0.934852 -3.12935 0
M  V30 24130 H 2221.44 -1.16955 -3.47444 0
M  V30 24131 H 2221.09 0.807815 -4.96471 0
M  V30 24132 H 2220.79 -0.71919 -5.83182 0
M  V30 24133 H 2222.32 0.172764 -6.10356 0
M  V30 24134 H 2223.73 -1.98038 -5.38009 0
M  V30 24135 H 2222.13 -2.76955 -5.32368 0
M  V30 24136 H 2223.2 -2.86343 -3.91326 0
M  V30 24137 N 2224.54 1.35356 -0.807246 0
M  V30 24138 C 2225.77 2.02988 -0.400413 0
M  V30 24139 C 2226.18 1.60834 0.988831 0
M  V30 24140 O 2225.54 0.806204 1.63727 0
M  V30 24141 C 2225.59 3.58367 -0.47493 0
M  V30 24142 O 2225.31 3.98989 -1.8094 0
M  V30 24143 C 2226.81 4.43258 -0.0609891 0
M  V30 24144 H 2224.03 0.651001 -0.162598 0
M  V30 24145 H 2226.58 1.72963 -1.09105 0
M  V30 24146 H 2224.73 3.87038 0.167466 0
M  V30 24147 H 2225.15 4.93637 -1.77265 0
M  V30 24148 H 2226.62 5.51756 -0.164242 0
M  V30 24149 H 2227.1 4.2781 0.993756 0
M  V30 24150 H 2227.7 4.19884 -0.676566 0
M  V30 24151 N 2226.02 0.560807 1.47284 0
M  V30 24152 C 2227.43 0.220837 1.58065 0
M  V30 24153 C 2227.63 -1.27668 1.55894 0
M  V30 24154 O 2226.69 -2.05708 1.46426 0
M  V30 24155 C 2228 0.850676 2.88416 0
M  V30 24156 C 2229.55 0.822237 3.02007 0
M  V30 24157 C 2230.03 1.43121 4.35064 0
M  V30 24158 N 2231.52 1.39456 4.41708 0
M  V30 24159 C 2232.25 1.83534 5.43234 0
M  V30 24160 N 2231.75 2.35485 6.51551 0
M  V30 24161 N 2233.54 1.74583 5.34301 0
M  V30 24162 H 2225.69 1.53371 1.46939 0
M  V30 24163 H 2227.96 0.639795 0.699547 0
M  V30 24164 H 2227.66 1.90326 2.95752 0
M  V30 24165 H 2227.54 0.345839 3.75611 0
M  V30 24166 H 2229.92 -0.221663 2.94266 0
M  V30 24167 H 2230 1.36487 2.16345 0
M  V30 24168 H 2229.65 2.4742 4.43561 0
M  V30 24169 H 2229.58 0.86399 5.19464 0
M  V30 24170 H 2232.07 1.01459 3.64026 0
M  V30 24171 H 2232.38 2.67034 7.25198 0
M  V30 24172 H 2230.73 2.39498 6.5243 0
M  V30 24173 H 2233.92 1.33771 4.48579 0
M  V30 24174 H 2234.09 2.09253 6.13284 0
M  V30 24175 N 2227.5 -1.54768 0.297442 0
M  V30 24176 C 2228.46 -2.22067 -0.567336 0
M  V30 24177 C 2229.46 -1.20558 -1.06407 0
M  V30 24178 O 2230.65 -1.45316 -0.960666 0
M  V30 24179 C 2227.78 -2.90424 -1.78512 0
M  V30 24180 H 2228.97 -2.99893 0.0206061 0
M  V30 24181 H 2226.53 -1.56226 0.0482438 0
M  V30 24182 H 2227.26 -2.16668 -2.41299 0
M  V30 24183 H 2227.05 -3.64834 -1.43663 0
M  V30 24184 H 2228.54 -3.41775 -2.39958 0
M  V30 24185 N 2228.97 -0.0251005 -1.5758 0
M  V30 24186 C 2229.9 0.956538 -2.13008 0
M  V30 24187 C 2230.89 1.34198 -1.04523 0
M  V30 24188 O 2232.07 1.42131 -1.32335 0
M  V30 24189 C 2229.2 2.24022 -2.6539 0
M  V30 24190 C 2228.15 1.99565 -3.78626 0
M  V30 24191 C 2227.48 3.34163 -4.1742 0
M  V30 24192 C 2228.78 1.33805 -5.0487 0
M  V30 24193 H 2230.47 0.494939 -2.95281 0
M  V30 24194 H 2228.02 0.236627 -1.42043 0
M  V30 24195 H 2229.97 2.93071 -3.02799 0
M  V30 24196 H 2228.7 2.7234 -1.80273 0
M  V30 24197 H 2227.36 1.32935 -3.41649 0
M  V30 24198 H 2227 3.80232 -3.29291 0
M  V30 24199 H 2226.7 3.18606 -4.93724 0
M  V30 24200 H 2228.23 4.04486 -4.57409 0
M  V30 24201 H 2229.64 1.92848 -5.39891 0
M  V30 24202 H 2228.04 1.28659 -5.86146 0
M  V30 24203 H 2229.11 0.310476 -4.83905 0
M  V30 24204 N 2230.45 1.55637 0.247999 0
M  V30 24205 C 2231.36 1.93356 1.32855 0
M  V30 24206 C 2232.38 0.833865 1.52718 0
M  V30 24207 O 2233.55 1.13516 1.66361 0
M  V30 24208 C 2230.62 2.21963 2.66333 0
M  V30 24209 C 2229.68 3.45358 2.55002 0
M  V30 24210 C 2228.91 3.72591 3.82115 0
M  V30 24211 O 2229.14 3.01915 4.83946 0
M  V30 24212 O 2228.07 4.66117 3.80813 0
M  V30 24213 H 2231.9 2.8539 1.03857 0
M  V30 24214 H 2229.48 1.42504 0.448661 0
M  V30 24215 H 2231.36 2.41676 3.45211 0
M  V30 24216 H 2230.04 1.33108 2.95066 0
M  V30 24217 H 2228.95 3.30954 1.74414 0
M  V30 24218 H 2230.28 4.34512 2.31215 0
M  V30 24219 N 2231.93 -0.513613 1.48996 0
M  V30 24220 C 2232.84 -1.64314 1.67446 0
M  V30 24221 C 2233.86 -1.64845 0.556976 0
M  V30 24222 O 2235.03 -1.83497 0.830114 0
M  V30 24223 C 2232.1 -3.00729 1.7252 0
M  V30 24224 C 2231.16 -3.10925 2.96014 0
M  V30 24225 C 2230.39 -4.40832 3.00837 0
M  V30 24226 O 2230.62 -5.28895 2.13604 0
M  V30 24227 O 2229.55 -4.55737 3.93176 0
M  V30 24228 H 2233.38 -1.51682 2.63109 0
M  V30 24229 H 2230.96 -0.688519 1.32589 0
M  V30 24230 H 2232.84 -3.81828 1.78284 0
M  V30 24231 H 2231.52 -3.1365 0.800333 0
M  V30 24232 H 2230.42 -2.2906 2.95774 0
M  V30 24233 H 2231.76 -3.02926 3.87939 0
M  V30 24234 N 2233.41 -1.37859 -0.763727 0
M  V30 24235 C 2234.32 -1.36481 -1.90814 0
M  V30 24236 C 2235.34 -0.263278 -1.71997 0
M  V30 24237 O 2236.51 -0.500013 -1.95094 0
M  V30 24238 C 2233.58 -1.1787 -3.26048 0
M  V30 24239 C 2232.64 -2.37736 -3.57463 0
M  V30 24240 C 2231.87 -2.20003 -4.86245 0
M  V30 24241 O 2232.09 -1.18846 -5.57882 0
M  V30 24242 O 2231.03 -3.0837 -5.16906 0
M  V30 24243 H 2234.85 -2.32887 -1.94929 0
M  V30 24244 H 2232.44 -1.18672 -0.907598 0
M  V30 24245 H 2234.32 -1.09511 -4.06922 0
M  V30 24246 H 2233 -0.245429 -3.22768 0
M  V30 24247 H 2231.9 -2.51668 -2.76792 0
M  V30 24248 H 2233.24 -3.29658 -3.65494 0
M  V30 24249 N 2234.89 0.990791 -1.22561 0
M  V30 24250 C 2235.82 2.0834 -0.955362 0
M  V30 24251 C 2236.83 1.62663 0.0668122 0
M  V30 24252 O 2238.02 1.77713 -0.167452 0
M  V30 24253 C 2235.12 3.36342 -0.415625 0
M  V30 24254 C 2234.29 4.11039 -1.49552 0
M  V30 24255 C 2233.35 5.17322 -0.96249 0
M  V30 24256 O 2232.38 5.44785 -1.64917 0
M  V30 24257 N 2233.58 5.80102 0.215032 0
M  V30 24258 H 2236.35 2.32103 -1.896 0
M  V30 24259 H 2233.91 1.15671 -1.13278 0
M  V30 24260 H 2235.9 4.04676 -0.0443098 0
M  V30 24261 H 2234.47 3.09626 0.430178 0
M  V30 24262 H 2233.69 3.37306 -2.04006 0
M  V30 24263 H 2234.98 4.57715 -2.22203 0
M  V30 24264 H 2234.38 5.60161 0.789681 0
M  V30 24265 H 2232.93 6.4966 0.527712 0
M  V30 24266 N 2236.37 1.03564 1.18795 0
M  V30 24267 C 2237.28 0.632544 2.25912 0
M  V30 24268 C 2238.29 -0.338852 1.70669 0
M  V30 24269 O 2239.47 -0.195041 2.00453 0
M  V30 24270 C 2236.53 -0.00344848 3.467 0
M  V30 24271 C 2235.59 1.01631 4.17097 0
M  V30 24272 C 2234.83 0.410571 5.32118 0
M  V30 24273 O 2235.05 -0.784626 5.64978 0
M  V30 24274 O 2233.98 1.13677 5.91068 0
M  V30 24275 H 2237.81 1.52483 2.62646 0
M  V30 24276 H 2235.39 0.806217 1.2578 0
M  V30 24277 H 2237.28 -0.357736 4.19879 0
M  V30 24278 H 2235.95 -0.869631 3.118 0
M  V30 24279 H 2234.86 1.4223 3.46008 0
M  V30 24280 H 2236.19 1.85309 4.55984 0
M  V30 24281 N 2237.84 -1.34926 0.814413 0
M  V30 24282 C 2238.81 -2.27984 0.235799 0
M  V30 24283 C 2239.81 -1.49922 -0.581385 0
M  V30 24284 O 2241 -1.69575 -0.398728 0
M  V30 24285 C 2238.13 -3.34244 -0.670374 0
M  V30 24286 H 2239.32 -2.80669 1.05664 0
M  V30 24287 H 2236.87 -1.44914 0.585639 0
M  V30 24288 H 2237.61 -2.86758 -1.51461 0
M  V30 24289 H 2237.39 -3.92006 -0.0860133 0
M  V30 24290 H 2238.88 -4.03678 -1.06928 0
M  V30 24291 N 2239.32 -0.56861 -1.46985 0
M  V30 24292 C 2240.74 -0.229217 -1.57945 0
M  V30 24293 C 2240.94 1.2684 -1.56569 0
M  V30 24294 O 2239.99 2.04928 -1.47515 0
M  V30 24295 C 2241.31 -0.865959 -2.87961 0
M  V30 24296 C 2242.85 -0.838241 -3.01567 0
M  V30 24297 C 2243.33 -1.45426 -4.34298 0
M  V30 24298 N 2244.82 -1.41796 -4.40963 0
M  V30 24299 C 2245.56 -1.86413 -5.42253 0
M  V30 24300 N 2245.05 -2.38937 -6.50293 0
M  V30 24301 N 2246.84 -1.77414 -5.33367 0
M  V30 24302 H 2239 -1.54148 -1.46123 0
M  V30 24303 H 2241.26 -0.643496 -0.696144 0
M  V30 24304 H 2240.96 -1.91891 -2.94738 0
M  V30 24305 H 2240.84 -0.365753 -3.75423 0
M  V30 24306 H 2243.23 0.206054 -2.9438 0
M  V30 24307 H 2243.31 -1.37632 -2.15618 0
M  V30 24308 H 2242.95 -2.49768 -4.42242 0
M  V30 24309 H 2242.88 -0.891527 -5.18998 0
M  V30 24310 H 2245.37 -1.03388 -3.63482 0
M  V30 24311 H 2245.68 -2.70876 -7.23772 0
M  V30 24312 H 2244.03 -2.42955 -6.51151 0
M  V30 24313 H 2247.22 -1.36148 -4.47863 0
M  V30 24314 H 2247.39 -2.12503 -6.12166 0
M  V30 24315 N 2240.8 1.54608 -0.305646 0
M  V30 24316 C 2241.71 2.27375 0.57774 0
M  V30 24317 C 2242.73 1.31063 1.14448 0
M  V30 24318 O 2243.9 1.64052 1.16828 0
M  V30 24319 C 2240.97 3.00385 1.73118 0
M  V30 24320 C 2240.03 4.12244 1.19805 0
M  V30 24321 C 2239.26 4.81763 2.29651 0
M  V30 24322 O 2239.48 4.50673 3.49643 0
M  V30 24323 O 2238.42 5.69066 1.96081 0
M  V30 24324 H 2242.24 3.03697 -0.0126774 0
M  V30 24325 H 2239.83 1.49227 -0.0719446 0
M  V30 24326 H 2241.71 3.46164 2.40309 0
M  V30 24327 H 2240.39 2.26953 2.30811 0
M  V30 24328 H 2239.29 3.70854 0.491733 0
M  V30 24329 H 2240.63 4.87667 0.66648 0
M  V30 24330 N 2242.28 0.033457 1.57564 0
M  V30 24331 C 2243.19 -0.962535 2.13945 0
M  V30 24332 C 2244.2 -1.35404 1.09278 0
M  V30 24333 O 2245.38 -1.43457 1.41358 0
M  V30 24334 C 2242.44 -2.22492 2.65891 0
M  V30 24335 C 2241.51 -1.89343 3.85289 0
M  V30 24336 C 2240.74 -3.09564 4.34748 0
M  V30 24337 O 2240.96 -4.22364 3.8336 0
M  V30 24338 O 2239.9 -2.91609 5.26543 0
M  V30 24339 H 2243.72 -0.513116 2.99334 0
M  V30 24340 H 2241.31 -0.187404 1.4822 0
M  V30 24341 H 2243.19 -2.96592 2.99351 0
M  V30 24342 H 2241.86 -2.66607 1.83583 0
M  V30 24343 H 2240.77 -1.12614 3.56748 0
M  V30 24344 H 2242.1 -1.50042 4.68773 0
M  V30 24345 N 2243.76 -1.55766 -0.239741 0
M  V30 24346 C 2244.69 -1.93932 -1.30049 0
M  V30 24347 C 2245.67 -0.805158 -1.49837 0
M  V30 24348 O 2246.85 -1.06602 -1.62326 0
M  V30 24349 C 2243.98 -2.24024 -2.65387 0
M  V30 24350 C 2242.94 -3.3976 -2.60283 0
M  V30 24351 C 2242.26 -3.55412 -3.99483 0
M  V30 24352 C 2243.56 -4.7525 -2.16645 0
M  V30 24353 H 2245.26 -2.82785 -0.983523 0
M  V30 24354 H 2242.8 -1.36056 -0.471677 0
M  V30 24355 H 2244.75 -2.49314 -3.39736 0
M  V30 24356 H 2243.48 -1.32006 -2.98734 0
M  V30 24357 H 2242.14 -3.1449 -1.88392 0
M  V30 24358 H 2241.79 -2.608 -4.30107 0
M  V30 24359 H 2241.49 -4.33245 -3.96954 0
M  V30 24360 H 2243.01 -3.8303 -4.75521 0
M  V30 24361 H 2244.42 -4.99864 -2.80729 0
M  V30 24362 H 2242.82 -5.56236 -2.25213 0
M  V30 24363 H 2243.89 -4.71829 -1.11827 0
M  V30 24364 N 2245.23 0.505704 -1.49266 0
M  V30 24365 C 2246.14 1.63424 -1.68315 0
M  V30 24366 C 2247.16 1.64547 -0.56571 0
M  V30 24367 O 2248.34 1.83054 -0.839833 0
M  V30 24368 C 2245.4 2.9981 -1.74112 0
M  V30 24369 C 2244.46 3.0935 -2.97659 0
M  V30 24370 C 2243.69 4.3923 -3.03171 0
M  V30 24371 O 2243.92 5.27755 -2.16405 0
M  V30 24372 O 2242.85 4.53645 -3.95588 0
M  V30 24373 H 2246.68 1.50284 -2.6391 0
M  V30 24374 H 2244.26 0.681478 -1.32952 0
M  V30 24375 H 2246.14 3.80877 -1.80306 0
M  V30 24376 H 2244.82 3.13221 -0.816956 0
M  V30 24377 H 2243.73 2.27488 -2.96985 0
M  V30 24378 H 2245.06 3.00864 -3.8954 0
M  V30 24379 N 2246.71 1.38262 0.756405 0
M  V30 24380 C 2248.13 1.19397 1.05908 0
M  V30 24381 C 2248.33 0.0406921 2.01459 0
M  V30 24382 O 2247.38 -0.614424 2.4491 0
M  V30 24383 C 2248.7 2.51919 1.64187 0
M  V30 24384 C 2250.25 2.58577 1.76371 0
M  V30 24385 C 2250.72 3.91268 2.38062 0
M  V30 24386 N 2252.21 3.92793 2.45496 0
M  V30 24387 C 2252.95 4.92222 2.94117 0
M  V30 24388 N 2252.44 6.02049 3.42795 0
M  V30 24389 N 2254.24 4.79615 2.93131 0
M  V30 24390 H 2246.39 2.12048 0.122276 0
M  V30 24391 H 2248.65 0.940768 0.116875 0
M  V30 24392 H 2248.36 3.36752 1.01445 0
M  V30 24393 H 2248.23 2.70112 2.63285 0
M  V30 24394 H 2250.62 1.74142 2.38241 0
M  V30 24395 H 2250.7 2.44254 0.759851 0
M  V30 24396 H 2250.34 4.76125 1.76827 0
M  V30 24397 H 2250.27 4.02901 3.39084 0
M  V30 24398 H 2252.76 3.13465 2.11065 0
M  V30 24399 H 2253.08 6.73852 3.78342 0
M  V30 24400 H 2251.42 6.05673 3.40859 0
M  V30 24401 H 2254.61 3.92928 2.54412 0
M  V30 24402 H 2254.78 5.57256 3.30712 0
M  V30 24403 N 2248.19 -0.984277 1.23084 0
M  V30 24404 C 2249.12 -2.0783 0.966397 0
M  V30 24405 C 2250.14 -1.62696 -0.0581849 0
M  V30 24406 O 2251.32 -1.77622 0.176875 0
M  V30 24407 C 2248.42 -3.36117 0.433456 0
M  V30 24408 C 2247.6 -4.1024 1.51729 0
M  V30 24409 C 2246.66 -5.16805 0.989912 0
M  V30 24410 O 2245.68 -5.43903 1.67803 0
M  V30 24411 N 2246.88 -5.80207 -0.184265 0
M  V30 24412 H 2249.65 -2.31094 1.90829 0
M  V30 24413 H 2247.21 -1.15068 1.1389 0
M  V30 24414 H 2249.2 -4.04647 0.0657701 0
M  V30 24415 H 2247.77 -3.0985 -0.413752 0
M  V30 24416 H 2246.99 -3.36219 2.05792 0
M  V30 24417 H 2248.28 -4.5653 2.24627 0
M  V30 24418 H 2247.68 -5.60572 -0.759963 0
M  V30 24419 H 2246.24 -6.49931 -0.493252 0
M  V30 24420 N 2249.67 -1.04192 -1.18244 0
M  V30 24421 C 2250.62 -0.627831 -2.23967 0
M  V30 24422 C 2251.61 0.345989 -1.65829 0
M  V30 24423 O 2252.82 0.213143 -1.78734 0
M  V30 24424 H 2249.19 -0.184815 -0.728936 0
M  V30 24425 H 2251.16 -1.52985 -2.56199 0
M  V30 24426 C 2249.91 -0.00802703 -3.47699 0
M  V30 24427 H 2249.23 -0.748416 -3.92732 0
M  V30 24428 H 2250.67 0.244476 -4.23295 0
M  V30 24429 C 2249.13 1.2424 -3.13155 0
M  V30 24430 O 2249.66 2.33301 -3.27007 0
M  V30 24431 N 2247.87 1.13618 -2.67469 0
M  V30 24432 H 2247.42 0.248689 -2.56397 0
M  V30 24433 H 2247.37 1.97372 -2.44727 0
M  V30 24434 N 2251.15 1.34492 -0.821557 0
M  V30 24435 C 2252.56 1.51328 -0.507143 0
M  V30 24436 C 2252.76 1.76675 0.968932 0
M  V30 24437 O 2251.82 1.81688 1.75345 0
M  V30 24438 C 2253.13 2.67908 -1.36549 0
M  V30 24439 C 2254.68 2.8179 -1.36247 0
M  V30 24440 C 2255.15 4.01412 -2.20527 0
M  V30 24441 N 2256.65 4.08617 -2.18143 0
M  V30 24442 C 2257.38 5.0033 -2.80103 0
M  V30 24443 N 2256.88 5.97274 -3.51049 0
M  V30 24444 N 2258.67 4.93191 -2.69665 0
M  V30 24445 H 2250.82 1.16299 -1.77731 0
M  V30 24446 H 2253.08 0.570263 -0.757301 0
M  V30 24447 H 2252.79 2.55804 -2.41365 0
M  V30 24448 H 2252.66 3.62887 -1.02923 0
M  V30 24449 H 2255.05 2.93337 -0.322093 0
M  V30 24450 H 2255.13 1.87625 -1.73869 0
M  V30 24451 H 2254.78 3.90626 -3.24614 0
M  V30 24452 H 2254.71 4.94788 -1.80256 0
M  V30 24453 H 2257.2 3.39226 -1.66536 0
M  V30 24454 H 2257.51 6.63882 -3.95576 0
M  V30 24455 H 2255.85 5.97402 -3.55155 0
M  V30 24456 H 2259.05 4.16414 -2.13816 0
M  V30 24457 H 2259.22 5.64471 -3.1824 0
M  V30 24458 N 2252.62 0.576397 1.46681 0
M  V30 24459 C 2253.59 -0.150199 2.28707 0
M  V30 24460 C 2254.59 -0.82477 1.38037 0
M  V30 24461 O 2255.78 -0.677691 1.60477 0
M  V30 24462 C 2252.91 -1.22187 3.1825 0
M  V30 24463 H 2254.1 0.570573 2.94422 0
M  V30 24464 H 2251.66 0.334105 1.52687 0
M  V30 24465 H 2252.39 -1.97442 2.57269 0
M  V30 24466 H 2252.18 -0.742744 3.85001 0
M  V30 24467 H 2253.67 -1.73166 3.80004 0
M  V30 24468 N 2254.1 -1.54444 0.313841 0
M  V30 24469 C 2255.03 -2.26944 -0.549415 0
M  V30 24470 C 2256.01 -1.27374 -1.12739 0
M  V30 24471 O 2257.2 -1.56169 -1.15433 0
M  V30 24472 C 2254.33 -3.01992 -1.71517 0
M  V30 24473 C 2253.28 -4.08818 -1.26696 0
M  V30 24474 C 2252.61 -4.71652 -2.5189 0
M  V30 24475 C 2253.91 -5.2085 -0.38887 0
M  V30 24476 H 2255.6 -2.99349 0.0553188 0
M  V30 24477 H 2253.15 -1.43973 0.028046 0
M  V30 24478 H 2255.1 -3.51437 -2.32529 0
M  V30 24479 H 2253.83 -2.27187 -2.34635 0
M  V30 24480 H 2252.48 -3.60241 -0.679833 0
M  V30 24481 H 2252.13 -3.93473 -3.13349 0
M  V30 24482 H 2251.83 -5.43806 -2.22595 0
M  V30 24483 H 2253.36 -5.23867 -3.13681 0
M  V30 24484 H 2254.77 -5.66112 -0.905007 0
M  V30 24485 H 2253.17 -5.99802 -0.189135 0
M  V30 24486 H 2254.24 -4.81385 0.582784 0
M  V30 24487 N 2255.58 -0.0418125 -1.57545 0
M  V30 24488 C 2257 0.314677 -1.56467 0
M  V30 24489 C 2257.2 1.72064 -1.04862 0
M  V30 24490 O 2256.25 2.42573 -0.701025 0
M  V30 24491 C 2257.57 0.151687 -3.00317 0
M  V30 24492 C 2259.11 0.223498 -3.12201 0
M  V30 24493 C 2259.59 0.089149 -4.57913 0
M  V30 24494 N 2261.08 0.145727 -4.62971 0
M  V30 24495 C 2261.81 0.0657451 -5.73362 0
M  V30 24496 N 2261.31 -0.06605 -6.92769 0
M  V30 24497 N 2263.1 0.120652 -5.6197 0
M  V30 24498 H 2255.25 -0.961048 -1.89414 0
M  V30 24499 H 2257.52 -0.372252 -0.871856 0
M  V30 24500 H 2257.22 -0.817315 -3.42071 0
M  V30 24501 H 2257.1 0.916628 -3.65893 0
M  V30 24502 H 2259.48 1.18297 -2.70351 0
M  V30 24503 H 2259.57 -0.572037 -2.49322 0
M  V30 24504 H 2259.21 -0.866955 -5.00446 0
M  V30 24505 H 2259.14 0.903711 -5.18788 0
M  V30 24506 H 2261.63 0.24722 -3.7709 0
M  V30 24507 H 2261.94 -0.120041 -7.72707 0
M  V30 24508 H 2260.29 -0.101007 -6.94927 0
M  V30 24509 H 2263.48 0.222105 -4.67573 0
M  V30 24510 H 2263.65 0.0548596 -6.47977 0
M  V30 24511 N 2257.06 1.55891 0.231477 0
M  V30 24512 C 2258.02 1.90781 1.27024 0
M  V30 24513 C 2259.02 0.785531 1.40307 0
M  V30 24514 O 2260.21 1.05338 1.38742 0
M  V30 24515 C 2257.34 2.14988 2.64562 0
M  V30 24516 H 2258.54 2.83678 0.972968 0
M  V30 24517 H 2256.09 1.4902 0.47146 0
M  V30 24518 H 2256.82 1.2461 2.99404 0
M  V30 24519 H 2256.61 2.96737 2.563 0
M  V30 24520 H 2258.1 2.43111 3.39539 0
M  V30 24521 N 2258.54 -0.497781 1.49532 0
M  V30 24522 C 2259.45 -1.62529 1.69179 0
M  V30 24523 C 2260.46 -1.64245 0.574429 0
M  V30 24524 O 2261.64 -1.82606 0.849529 0
M  V30 24525 C 2258.7 -2.98882 1.757 0
M  V30 24526 C 2257.76 -3.07768 2.99295 0
M  V30 24527 C 2257 -4.37616 3.05496 0
M  V30 24528 O 2257.22 -5.26599 2.19201 0
M  V30 24529 O 2256.15 -4.51541 3.97988 0
M  V30 24530 H 2259.98 -1.48883 2.64703 0
M  V30 24531 H 2257.57 -0.674418 1.33312 0
M  V30 24532 H 2259.45 -3.79916 1.82324 0
M  V30 24533 H 2258.12 -3.12784 0.833555 0
M  V30 24534 H 2257.03 -2.2591 2.98187 0
M  V30 24535 H 2258.36 -2.98794 3.9113 0
M  V30 24536 N 2260.01 -1.38661 -0.749062 0
M  V30 24537 C 2260.94 -1.38976 -1.87637 0
M  V30 24538 C 2261.93 -0.255034 -1.68177 0
M  V30 24539 O 2263.11 -0.458787 -1.88703 0
M  V30 24540 C 2260.24 -1.21857 -3.2522 0
M  V30 24541 C 2259.19 -2.32581 -3.59291 0
M  V30 24542 C 2258.52 -2.00563 -4.9566 0
M  V30 24543 C 2259.82 -3.74857 -3.63703 0
M  V30 24544 H 2261.51 -2.33313 -1.87631 0
M  V30 24545 H 2259.06 -1.12305 -0.90131 0
M  V30 24546 H 2261.01 -1.20702 -4.03744 0
M  V30 24547 H 2259.74 -0.239832 -3.25718 0
M  V30 24548 H 2258.4 -2.3293 -2.83089 0
M  V30 24549 H 2258.04 -1.01162 -4.92722 0
M  V30 24550 H 2257.74 -2.74723 -5.19424 0
M  V30 24551 H 2259.27 -2.01034 -5.76557 0
M  V30 24552 H 2260.68 -3.76514 -4.32331 0
M  V30 24553 H 2259.08 -4.48259 -3.98978 0
M  V30 24554 H 2260.15 -4.06846 -2.63826 0
M  V30 24555 N 2261.49 0.977736 -1.23605 0
M  V30 24556 C 2262.4 2.10468 -1.03636 0
M  V30 24557 C 2263.42 1.73989 0.0199129 0
M  V30 24558 O 2264.6 2.00629 -0.176112 0
M  V30 24559 C 2261.66 3.40876 -0.63282 0
M  V30 24560 C 2260.72 3.91364 -1.76444 0
M  V30 24561 C 2259.95 5.15548 -1.38006 0
M  V30 24562 O 2260.18 5.69782 -0.265457 0
M  V30 24563 O 2259.11 5.6017 -2.2021 0
M  V30 24564 H 2262.94 2.30204 -1.9809 0
M  V30 24565 H 2260.52 1.08849 -1.02334 0
M  V30 24566 H 2262.4 4.19313 -0.418834 0
M  V30 24567 H 2261.08 3.22463 0.282697 0
M  V30 24568 H 2259.99 3.14032 -2.03309 0
M  V30 24569 H 2261.32 4.14236 -2.65837 0
M  V30 24570 N 2262.97 1.04818 1.1769 0
M  V30 24571 C 2263.93 0.650156 2.19785 0
M  V30 24572 C 2264.93 -0.296399 1.58045 0
M  V30 24573 O 2266.12 -0.0807791 1.74013 0
M  V30 24574 C 2263.26 -0.0456387 3.40869 0
M  V30 24575 H 2264.45 1.55374 2.56513 0
M  V30 24576 H 2262 0.841617 1.31706 0
M  V30 24577 H 2262.74 -0.962672 3.09682 0
M  V30 24578 H 2262.52 0.634795 3.86927 0
M  V30 24579 H 2264.01 -0.310358 4.16445 0
M  V30 24580 N 2264.45 -1.34055 0.828678 0
M  V30 24581 C 2265.38 -2.3194 0.269483 0
M  V30 24582 C 2266.36 -1.58507 -0.617219 0
M  V30 24583 O 2267.55 -1.86457 -0.542898 0
M  V30 24584 C 2264.68 -3.42678 -0.564733 0
M  V30 24585 C 2263.63 -4.27407 0.225316 0
M  V30 24586 C 2262.96 -5.29666 -0.732007 0
M  V30 24587 C 2264.26 -5.02151 1.43672 0
M  V30 24588 H 2265.95 -2.78958 1.08733 0
M  V30 24589 H 2263.5 -1.34116 0.524307 0
M  V30 24590 H 2265.45 -4.10175 -0.966161 0
M  V30 24591 H 2264.17 -2.94323 -1.41569 0
M  V30 24592 H 2262.83 -3.6152 0.608181 0
M  V30 24593 H 2262.48 -4.77571 -1.57908 0
M  V30 24594 H 2262.18 -5.87233 -0.207566 0
M  V30 24595 H 2263.7 -6.00031 -1.13117 0
M  V30 24596 H 2265.12 -5.62471 1.109 0
M  V30 24597 H 2263.51 -5.6932 1.89721 0
M  V30 24598 H 2264.58 -4.31513 2.21189 0
M  V30 24599 N 2265.93 -0.584167 -1.46374 0
M  V30 24600 C 2266.86 0.135996 -2.33104 0
M  V30 24601 C 2267.84 0.88223 -1.45433 0
M  V30 24602 O 2269.02 0.857403 -1.74248 0
M  V30 24603 C 2266.15 1.14928 -3.27733 0
M  V30 24604 C 2265.11 0.517788 -4.24856 0
M  V30 24605 C 2264.43 1.63764 -5.09004 0
M  V30 24606 C 2265.73 -0.545977 -5.19439 0
M  V30 24607 H 2267.43 -0.588137 -2.93567 0
M  V30 24608 H 2264.97 -0.284284 -1.41166 0
M  V30 24609 H 2266.93 1.66146 -3.87264 0
M  V30 24610 H 2265.65 1.9037 -2.6538 0
M  V30 24611 H 2264.31 0.0266716 -3.6659 0
M  V30 24612 H 2263.96 2.38177 -4.43036 0
M  V30 24613 H 2263.66 1.22075 -5.7478 0
M  V30 24614 H 2265.18 2.15256 -5.71399 0
M  V30 24615 H 2266.6 -0.118805 -5.73177 0
M  V30 24616 H 2264.99 -0.883274 -5.93564 0
M  V30 24617 H 2266.06 -1.4317 -4.63282 0
M  V30 24618 N 2267.41 1.54275 -0.322027 0
M  V30 24619 C 2268.63 2.05422 0.285755 0
M  V30 24620 C 2269.06 1.19671 1.45122 0
M  V30 24621 O 2268.41 0.205473 1.80132 0
M  V30 24622 C 2268.46 3.5375 0.699497 0
M  V30 24623 O 2267.57 3.70945 1.80203 0
M  V30 24624 H 2266.91 0.66197 0.0518846 0
M  V30 24625 H 2269.44 1.99129 -0.469989 0
M  V30 24626 H 2269.45 3.95992 0.982579 0
M  V30 24627 H 2268.12 4.15619 -0.152937 0
M  V30 24628 H 2266.7 3.40609 1.51788 0
M  V30 24629 N 2268.88 0.0501669 1.5752 0
M  V30 24630 C 2270.11 -0.636962 1.97377 0
M  V30 24631 C 2270.53 -1.63643 0.927495 0
M  V30 24632 O 2269.89 -1.8097 -0.109378 0
M  V30 24633 C 2269.94 -1.30117 3.36306 0
M  V30 24634 O 2269.04 -2.41683 3.3416 0
M  V30 24635 H 2268.38 -0.165667 0.643001 0
M  V30 24636 H 2270.91 0.118269 2.04258 0
M  V30 24637 H 2270.92 -1.65309 3.73011 0
M  V30 24638 H 2269.6 -0.568673 4.11994 0
M  V30 24639 H 2268.18 -2.08446 3.092 0
M  V30 24640 N 2270.36 -1.56011 -0.223207 0
M  V30 24641 C 2271.31 -1.9228 -1.2766 0
M  V30 24642 C 2272.28 -0.779789 -1.46658 0
M  V30 24643 O 2273.46 -1.03554 -1.60254 0
M  V30 24644 C 2270.6 -2.24343 -2.6223 0
M  V30 24645 C 2269.72 -3.51569 -2.51045 0
M  V30 24646 C 2268.85 -3.73087 -3.78126 0
M  V30 24647 C 2267.89 -4.93833 -3.61657 0
M  V30 24648 N 2267.03 -5.11749 -4.80684 0
M  V30 24649 H 2271.87 -2.82103 -0.960308 0
M  V30 24650 H 2269.4 -1.39628 -0.462876 0
M  V30 24651 H 2271.36 -2.40942 -3.40592 0
M  V30 24652 H 2269.99 -1.37695 -2.91959 0
M  V30 24653 H 2269.04 -3.43172 -1.64126 0
M  V30 24654 H 2270.36 -4.40083 -2.34795 0
M  V30 24655 H 2269.51 -3.89774 -4.64931 0
M  V30 24656 H 2268.25 -2.82851 -3.97299 0
M  V30 24657 H 2267.25 -4.77098 -2.73236 0
M  V30 24658 H 2268.48 -5.85552 -3.43956 0
M  V30 24659 H 2266.43 -4.24455 -5.00174 0
M  V30 24660 H 2266.34 -5.94393 -4.67155 0
M  V30 24661 H 2267.61 -5.3287 -5.6892 0
M  V30 24662 N 2271.84 0.489844 -1.49794 0
M  V30 24663 C 2273.12 1.25117 -1.5035 0
M  V30 24664 C 2273.5 2.0976 -0.237503 0
M  V30 24665 O 2272.84 2.14783 0.779772 0
M  V30 24666 C 2273.05 2.09832 -2.78875 0
M  V30 24667 C 2274.4 2.68649 -3.28805 0
M  V30 24668 O 2275.43 2.20091 -2.80069 0
M  V30 24669 O 2274.29 3.57076 -4.13714 0
M  V30 24670 H 2271.38 0.566764 -0.602252 0
M  V30 24671 H 2273.93 0.5032 -1.62068 0
M  V30 24672 H 2272.7 1.47337 -3.62502 0
M  V30 24673 H 2272.32 2.918 -2.70072 0
M  V30 24674 N 2273.32 1.39056 0.741698 0
M  V30 24675 C 2274.59 1.26428 1.49249 0
M  V30 24676 C 2274.97 -0.129107 2.10705 0
M  V30 24677 O 2274.32 -1.13973 1.98047 0
M  V30 24678 C 2274.53 2.38352 2.5493 0
M  V30 24679 C 2275.88 2.77349 3.21501 0
M  V30 24680 O 2276.9 2.37752 2.6524 0
M  V30 24681 O 2275.76 3.45672 4.23288 0
M  V30 24682 H 2272.86 0.495075 0.662442 0
M  V30 24683 H 2275.4 1.50913 0.776094 0
M  V30 24684 H 2274.18 3.31532 2.07851 0
M  V30 24685 H 2273.8 2.15495 3.34137 0
M  V30 24686 N 2274.8 -0.971167 1.24121 0
M  V30 24687 C 2276.04 -1.71623 1.08044 0
M  V30 24688 C 2276.37 -1.90438 -0.380373 0
M  V30 24689 O 2275.65 -1.46336 -1.28125 0
M  V30 24690 C 2275.93 -3.10904 1.81688 0
M  V30 24691 C 2275.79 -2.99602 3.35498 0
M  V30 24692 C 2277.1 -4.10499 1.58679 0
M  V30 24693 H 2274.22 -0.622912 0.393891 0
M  V30 24694 H 2276.87 -1.13 1.52745 0
M  V30 24695 H 2275.02 -3.6095 1.43691 0
M  V30 24696 H 2276.69 -2.57009 3.83072 0
M  V30 24697 H 2274.93 -2.35893 3.64056 0
M  V30 24698 H 2275.6 -3.98257 3.82224 0
M  V30 24699 H 2278.08 -3.69298 1.91725 0
M  V30 24700 H 2276.95 -5.06027 2.12669 0
M  V30 24701 H 2277.21 -4.38981 0.524238 0
M  V30 24702 N 2276.27 -1.05441 -1.17133 0
M  V30 24703 C 2277.52 -0.764462 -1.87084 0
M  V30 24704 C 2277.84 0.710755 -1.81585 0
M  V30 24705 O 2277.11 1.51372 -1.24352 0
M  V30 24706 H 2275.69 -0.279791 -0.692622 0
M  V30 24707 H 2278.36 -1.33409 -1.42085 0
M  V30 24708 H 2277.45 -1.08165 -2.92757 0
M  V30 24709 N 2277.75 1.33613 -0.835776 0
M  V30 24710 C 2278.7 2.29276 -0.26477 0
M  V30 24711 C 2279.67 1.54188 0.617685 0
M  V30 24712 O 2280.85 1.82501 0.556609 0
M  V30 24713 C 2277.99 3.4058 0.556717 0
M  V30 24714 C 2277.11 4.30585 -0.349415 0
M  V30 24715 C 2276.24 5.29001 0.482876 0
M  V30 24716 C 2275.28 6.10645 -0.42184 0
M  V30 24717 N 2274.42 7.01113 0.372139 0
M  V30 24718 H 2279.26 2.77512 -1.08586 0
M  V30 24719 H 2276.8 1.36553 -0.546951 0
M  V30 24720 H 2278.75 4.03811 1.04845 0
M  V30 24721 H 2277.38 2.93545 1.34281 0
M  V30 24722 H 2276.44 3.68102 -0.959437 0
M  V30 24723 H 2277.75 4.87741 -1.04454 0
M  V30 24724 H 2276.9 5.97745 1.03856 0
M  V30 24725 H 2275.64 4.72414 1.21145 0
M  V30 24726 H 2274.65 5.40821 -0.989559 0
M  V30 24727 H 2275.87 6.69314 -1.14873 0
M  V30 24728 H 2273.82 6.46979 1.08415 0
M  V30 24729 H 2273.73 7.55538 -0.26433 0
M  V30 24730 H 2275 7.74168 0.910157 0
M  V30 24731 N 2279.23 0.591922 1.46062 0
M  V30 24732 C 2280.46 0.0850678 2.07225 0
M  V30 24733 C 2280.88 -1.21461 1.43628 0
M  V30 24734 O 2280.24 -1.73583 0.523336 0
M  V30 24735 C 2280.29 -0.0575933 3.60554 0
M  V30 24736 O 2279.39 -1.11181 3.9713 0
M  V30 24737 H 2278.73 0.0669684 0.660614 0
M  V30 24738 H 2281.26 0.817483 1.87559 0
M  V30 24739 H 2281.27 -0.260829 4.07165 0
M  V30 24740 H 2279.95 0.891488 4.06233 0
M  V30 24741 H 2278.52 -0.886292 3.62214 0
M  V30 24742 N 2280.71 -1.54102 0.330204 0
M  V30 24743 C 2281.95 -2.00984 -0.27077 0
M  V30 24744 C 2282.29 -1.21791 -1.51263 0
M  V30 24745 O 2281.56 -0.301961 -1.92142 0
M  V30 24746 C 2281.85 -3.55095 -0.598277 0
M  V30 24747 C 2281.7 -4.45009 0.654752 0
M  V30 24748 C 2283.02 -4.16791 -1.41327 0
M  V30 24749 H 2280.14 -0.730597 -0.0969403 0
M  V30 24750 H 2282.78 -1.8464 0.448098 0
M  V30 24751 H 2280.93 -3.69153 -1.21071 0
M  V30 24752 H 2282.6 -4.42811 1.29292 0
M  V30 24753 H 2280.84 -4.14414 1.28232 0
M  V30 24754 H 2281.51 -5.50683 0.381041 0
M  V30 24755 H 2283.99 -4.06349 -0.895525 0
M  V30 24756 H 2282.87 -5.24721 -1.61118 0
M  V30 24757 H 2283.13 -3.70546 -2.4114 0
M  V30 24758 N 2282.19 -0.0585199 -1.57491 0
M  V30 24759 C 2283.14 0.923151 -2.08475 0
M  V30 24760 C 2284.12 1.2672 -0.991501 0
M  V30 24761 O 2285.31 1.2484 -1.25475 0
M  V30 24762 C 2282.44 2.19543 -2.63923 0
M  V30 24763 C 2281.53 1.87845 -3.8023 0
M  V30 24764 N 2281.92 1.26538 -4.89716 0
M  V30 24765 C 2280.22 2.17672 -3.89275 0
M  V30 24766 C 2280.92 1.12634 -5.70691 0
M  V30 24767 N 2279.89 1.63167 -5.18534 0
M  V30 24768 H 2283.7 0.444602 -2.90518 0
M  V30 24769 H 2281.21 0.145736 -1.61745 0
M  V30 24770 H 2283.21 2.90775 -2.98757 0
M  V30 24771 H 2281.87 2.67998 -1.83322 0
M  V30 24772 H 2282.88 0.936668 -5.09359 0
M  V30 24773 H 2279.55 2.68597 -3.19628 0
M  V30 24774 H 2280.94 0.649782 -6.68751 0
M  V30 24775 N 2283.66 1.56128 0.21493 0
M  V30 24776 C 2284.57 1.96131 1.28724 0
M  V30 24777 C 2285.59 0.866071 1.50915 0
M  V30 24778 O 2286.77 1.17019 1.63916 0
M  V30 24779 C 2283.83 2.27562 2.61565 0
M  V30 24780 C 2282.89 3.5069 2.47619 0
M  V30 24781 C 2282.13 3.80612 3.74125 0
M  V30 24782 O 2282.35 3.12112 4.77433 0
M  V30 24783 O 2281.28 4.74089 3.70841 0
M  V30 24784 H 2285.11 2.87529 0.977805 0
M  V30 24785 H 2282.69 1.43424 0.418333 0
M  V30 24786 H 2284.58 2.48944 3.40007 0
M  V30 24787 H 2283.25 1.39337 2.92176 0
M  V30 24788 H 2282.16 3.34579 1.67355 0
M  V30 24789 H 2283.49 4.39319 2.21946 0
M  V30 24790 N 2285.14 -0.481893 1.50052 0
M  V30 24791 C 2286.07 -1.58948 1.71049 0
M  V30 24792 C 2287.05 -1.60641 0.559316 0
M  V30 24793 O 2288.24 -1.7708 0.797274 0
M  V30 24794 C 2285.37 -2.97336 1.79467 0
M  V30 24795 C 2284.32 -3.1051 2.94563 0
M  V30 24796 C 2283.65 -4.50439 2.88113 0
M  V30 24797 C 2284.95 -2.88739 4.35232 0
M  V30 24798 H 2286.64 -1.41631 2.63782 0
M  V30 24799 H 2284.19 -0.67992 1.26937 0
M  V30 24800 H 2286.14 -3.74738 1.92741 0
M  V30 24801 H 2284.87 -3.15786 0.833467 0
M  V30 24802 H 2283.52 -2.35538 2.80923 0
M  V30 24803 H 2283.17 -4.65791 1.89861 0
M  V30 24804 H 2282.87 -4.6019 3.65375 0
M  V30 24805 H 2284.4 -5.29875 3.03421 0
M  V30 24806 H 2285.81 -3.55898 4.49455 0
M  V30 24807 H 2284.21 -3.09946 5.13862 0
M  V30 24808 H 2285.28 -1.84688 4.48351 0
M  V30 24809 N 2286.62 -1.39448 -0.734313 0
M  V30 24810 C 2287.53 -1.40498 -1.87876 0
M  V30 24811 C 2288.55 -0.299702 -1.71399 0
M  V30 24812 O 2289.72 -0.541283 -1.9399 0
M  V30 24813 C 2286.79 -1.2476 -3.23475 0
M  V30 24814 C 2285.85 -2.45265 -3.5234 0
M  V30 24815 C 2285.08 -2.30268 -4.81469 0
M  V30 24816 O 2285.3 -1.30652 -5.55235 0
M  V30 24817 O 2284.24 -3.19265 -5.10249 0
M  V30 24818 H 2288.06 -2.3697 -1.89945 0
M  V30 24819 H 2285.65 -1.2057 -0.882222 0
M  V30 24820 H 2287.53 -1.18118 -4.04507 0
M  V30 24821 H 2286.21 -0.313838 -3.22175 0
M  V30 24822 H 2285.11 -2.57483 -2.71392 0
M  V30 24823 H 2286.45 -3.37337 -3.5842 0
M  V30 24824 N 2288.1 0.964571 -1.24635 0
M  V30 24825 C 2289.51 1.23379 -1.01242 0
M  V30 24826 C 2289.71 1.99589 0.276865 0
M  V30 24827 O 2288.77 2.32189 0.9922 0
M  V30 24828 C 2290.08 2.01787 -2.22941 0
M  V30 24829 C 2291.63 2.14868 -2.27598 0
M  V30 24830 C 2292.11 2.96672 -3.48927 0
M  V30 24831 N 2293.6 3.04253 -3.49262 0
M  V30 24832 C 2294.33 3.67916 -4.39801 0
M  V30 24833 N 2293.83 4.33272 -5.40599 0
M  V30 24834 N 2295.62 3.64959 -4.27506 0
M  V30 24835 H 2287.77 0.454466 -2.07481 0
M  V30 24836 H 2290.04 0.263474 -0.910651 0
M  V30 24837 H 2289.74 1.53178 -3.1659 0
M  V30 24838 H 2289.62 3.02514 -2.25311 0
M  V30 24839 H 2292 2.62678 -1.34478 0
M  V30 24840 H 2292.08 1.13478 -2.29252 0
M  V30 24841 H 2291.73 2.49555 -4.42363 0
M  V30 24842 H 2291.66 3.98266 -3.44517 0
M  V30 24843 H 2294.15 2.57767 -2.76342 0
M  V30 24844 H 2294.46 4.79676 -6.05913 0
M  V30 24845 H 2292.81 4.31931 -5.44482 0
M  V30 24846 H 2296 3.13079 -3.47993 0
M  V30 24847 H 2296.17 4.1429 -4.98265 0
M  V30 24848 N 2289.58 1.0606 1.16572 0
M  V30 24849 C 2290.54 0.67343 2.19083 0
M  V30 24850 C 2291.54 -0.27962 1.5835 0
M  V30 24851 O 2292.73 -0.0623182 1.74088 0
M  V30 24852 C 2289.86 -0.00948241 3.40899 0
M  V30 24853 H 2291.05 1.58086 2.54851 0
M  V30 24854 H 2288.61 0.855539 1.30806 0
M  V30 24855 H 2289.34 -0.929772 3.10686 0
M  V30 24856 H 2289.13 0.675798 3.86232 0
M  V30 24857 H 2290.62 -0.266171 4.16751 0
M  V30 24858 N 2291.06 -1.33168 0.84285 0
M  V30 24859 C 2292.3 -1.99461 0.446609 0
M  V30 24860 C 2292.66 -1.65296 -0.976788 0
M  V30 24861 O 2293.86 -2.24587 -1.47697 0
M  V30 24862 C 2292.13 -3.51151 0.665414 0
M  V30 24863 S 2293.69 -4.37279 0.364987 0
M  V30 24864 H 2290.51 -0.690912 0.167815 0
M  V30 24865 H 2293.11 -1.62092 1.093 0
M  V30 24866 H 2291.81 -3.73504 1.70067 0
M  V30 24867 H 2291.35 -3.934 0.00501483 0
M  V30 24868 H 2293.36 -4.89483 -0.813675 0
M  V30 24869 N 2292.53 -0.599659 -1.45746 0
M  V30 24870 C 2293.95 -0.262668 -1.57424 0
M  V30 24871 C 2294.15 1.2349 -1.59224 0
M  V30 24872 O 2293.21 2.01753 -1.51828 0
M  V30 24873 C 2294.52 -0.926845 -2.8606 0
M  V30 24874 C 2296.07 -0.90202 -2.99721 0
M  V30 24875 C 2296.54 -1.54606 -4.31116 0
M  V30 24876 N 2298.03 -1.51118 -4.37856 0
M  V30 24877 C 2298.77 -1.97873 -5.38177 0
M  V30 24878 N 2298.26 -2.52677 -6.45078 0
M  V30 24879 N 2300.06 -1.88688 -5.29484 0
M  V30 24880 H 2292.21 -1.57213 -1.42821 0
M  V30 24881 H 2294.47 -0.658117 -0.682338 0
M  V30 24882 H 2294.18 -1.981 -2.90602 0
M  V30 24883 H 2294.05 -0.445304 -3.74562 0
M  V30 24884 H 2296.44 0.143565 -2.94751 0
M  V30 24885 H 2296.52 -1.42175 -2.1265 0
M  V30 24886 H 2296.16 -2.59093 -4.36845 0
M  V30 24887 H 2296.09 -1.00141 -5.16991 0
M  V30 24888 H 2298.58 -1.11074 -3.61208 0
M  V30 24889 H 2298.9 -2.86167 -7.17864 0
M  V30 24890 H 2297.24 -2.56712 -6.45851 0
M  V30 24891 H 2300.43 -1.45617 -4.44874 0
M  V30 24892 H 2300.61 -2.2544 -6.0752 0
M  V30 24893 N 2294.01 1.53925 -0.338371 0
M  V30 24894 C 2295.26 2.01125 0.260108 0
M  V30 24895 C 2295.59 1.22592 1.50615 0
M  V30 24896 O 2294.87 0.312147 1.91979 0
M  V30 24897 C 2295.15 3.55408 0.579437 0
M  V30 24898 C 2295 4.44656 -0.678342 0
M  V30 24899 C 2296.32 4.17535 1.39114 0
M  V30 24900 H 2293.44 0.731101 0.0930644 0
M  V30 24901 H 2296.08 1.844 -0.457884 0
M  V30 24902 H 2294.23 3.6979 1.19112 0
M  V30 24903 H 2295.9 4.42119 -1.31639 0
M  V30 24904 H 2294.15 4.13728 -1.30427 0
M  V30 24905 H 2294.82 5.50473 -0.41024 0
M  V30 24906 H 2297.29 4.06818 0.873963 0
M  V30 24907 H 2296.17 5.25568 1.58333 0
M  V30 24908 H 2296.43 3.71819 2.39171 0
M  V30 24909 N 2295.49 0.0668712 1.57458 0
M  V30 24910 C 2296.45 -0.887385 2.11325 0
M  V30 24911 C 2297.45 -1.22962 1.0362 0
M  V30 24912 O 2298.64 -1.16371 1.29628 0
M  V30 24913 C 2295.77 -2.19237 2.61051 0
M  V30 24914 H 2296.97 -0.420142 2.96942 0
M  V30 24915 H 2294.52 -0.181765 1.5524 0
M  V30 24916 H 2295.26 -2.70509 1.78873 0
M  V30 24917 H 2295.04 -1.95696 3.39773 0
M  V30 24918 H 2296.53 -2.87559 3.02819 0
M  V30 24919 N 2296.97 -1.56239 -0.206647 0
M  V30 24920 C 2297.88 -1.96811 -1.27682 0
M  V30 24921 C 2298.89 -0.874062 -1.50453 0
M  V30 24922 O 2300.07 -1.17887 -1.63293 0
M  V30 24923 C 2297.13 -2.28946 -2.60354 0
M  V30 24924 C 2296.2 -3.51998 -2.45756 0
M  V30 24925 C 2295.43 -3.82591 -3.72102 0
M  V30 24926 O 2295.65 -3.1464 -4.75771 0
M  V30 24927 O 2294.59 -4.76049 -3.68321 0
M  V30 24928 H 2298.41 -2.88043 -0.962543 0
M  V30 24929 H 2296 -1.43643 -0.410721 0
M  V30 24930 H 2297.88 -2.50743 -3.38682 0
M  V30 24931 H 2296.55 -1.40885 -2.91433 0
M  V30 24932 H 2295.46 -3.35462 -1.65578 0
M  V30 24933 H 2296.79 -4.40489 -2.19613 0
M  V30 24934 N 2298.45 0.473929 -1.50305 0
M  V30 24935 C 2299.38 1.58968 -1.65112 0
M  V30 24936 C 2300.39 1.53838 -0.532703 0
M  V30 24937 O 2301.58 1.59278 -0.805779 0
M  V30 24938 C 2298.68 2.97842 -1.61689 0
M  V30 24939 C 2297.85 3.27871 -2.89516 0
M  V30 24940 C 2296.91 4.46285 -2.78775 0
M  V30 24941 O 2295.94 4.46733 -3.5273 0
M  V30 24942 N 2297.14 5.4778 -1.9214 0
M  V30 24943 H 2299.9 1.46684 -2.6135 0
M  V30 24944 H 2297.47 0.662298 -1.47734 0
M  V30 24945 H 2299.46 3.75022 -1.52121 0
M  V30 24946 H 2298.03 3.03909 -0.731979 0
M  V30 24947 H 2297.25 2.39331 -3.13232 0
M  V30 24948 H 2298.54 3.44744 -3.74205 0
M  V30 24949 H 2297.93 5.50237 -1.31363 0
M  V30 24950 H 2296.49 6.23955 -1.88477 0
M  V30 24951 N 2299.92 1.39835 0.726907 0
M  V30 24952 C 2300.89 1.38966 1.82267 0
M  V30 24953 C 2301.89 0.285362 1.58248 0
M  V30 24954 O 2303.08 0.543689 1.65498 0
M  V30 24955 C 2300.21 1.17025 3.20184 0
M  V30 24956 H 2301.4 2.36479 1.84439 0
M  V30 24957 H 2298.95 1.25518 0.931393 0
M  V30 24958 H 2299.69 0.202261 3.23669 0
M  V30 24959 H 2299.47 1.97003 3.39016 0
M  V30 24960 H 2300.96 1.19177 4.00233 0
M  V30 24961 N 2301.4 -0.957948 1.25144 0
M  V30 24962 C 2302.36 -2.03567 1.05324 0
M  V30 24963 C 2303.36 -1.60798 0.00718027 0
M  V30 24964 O 2304.55 -1.7241 0.24906 0
M  V30 24965 C 2301.69 -3.35606 0.598453 0
M  V30 24966 H 2302.88 -2.22583 2.0099 0
M  V30 24967 H 2300.43 -1.13457 1.07504 0
M  V30 24968 H 2301.17 -3.22285 -0.360957 0
M  V30 24969 H 2300.95 -3.67995 1.35358 0
M  V30 24970 H 2302.44 -4.14819 0.481113 0
M  V30 24971 N 2302.88 -1.06677 -1.16008 0
M  V30 24972 C 2303.83 -0.675196 -2.22584 0
M  V30 24973 C 2304.82 0.310737 -1.66526 0
M  V30 24974 O 2306.03 0.175183 -1.79145 0
M  V30 24975 H 2302.4 -0.200235 -0.724852 0
M  V30 24976 H 2304.37 -1.58385 -2.52897 0
M  V30 24977 C 2303.12 -0.0817773 -3.47604 0
M  V30 24978 H 2302.45 -0.831552 -3.91057 0
M  V30 24979 H 2303.89 0.154634 -4.23718 0
M  V30 24980 C 2302.34 1.1757 -3.1572 0
M  V30 24981 O 2302.87 2.26312 -3.31882 0
M  V30 24982 N 2301.08 1.07919 -2.69818 0
M  V30 24983 H 2300.63 0.194248 -2.56867 0
M  V30 24984 H 2300.59 1.92137 -2.48859 0
M  V30 24985 N 2304.36 1.32719 -0.8499 0
M  V30 24986 C 2305.63 1.92021 -0.372439 0
M  V30 24987 C 2306.01 1.77449 1.14346 0
M  V30 24988 O 2305.36 1.16965 1.96294 0
M  V30 24989 C 2305.57 3.38949 -0.831541 0
M  V30 24990 C 2306.92 4.16087 -0.845955 0
M  V30 24991 O 2307.94 3.47647 -0.775867 0
M  V30 24992 O 2306.8 5.38288 -0.943848 0
M  V30 24993 H 2303.9 0.81996 -0.107681 0
M  V30 24994 H 2306.44 1.4152 -0.936485 0
M  V30 24995 H 2305.22 3.43477 -1.87454 0
M  V30 24996 H 2304.84 3.96846 -0.244679 0
M  V30 24997 N 2305.84 0.60738 1.45426 0
M  V30 24998 C 2306.77 -0.0988942 2.3329 0
M  V30 24999 C 2307.75 -0.858981 1.46818 0
M  V30 25000 O 2308.93 -0.829573 1.7559 0
M  V30 25001 C 2306.06 -1.09699 3.2952 0
M  V30 25002 C 2305.02 -0.450131 4.25626 0
M  V30 25003 C 2304.34 -1.55646 5.11545 0
M  V30 25004 C 2305.64 0.628546 5.18504 0
M  V30 25005 H 2307.34 0.634767 2.92594 0
M  V30 25006 H 2304.88 0.306706 1.40696 0
M  V30 25007 H 2306.84 -1.59964 3.89858 0
M  V30 25008 H 2305.56 -1.86124 2.68375 0
M  V30 25009 H 2304.22 0.0316531 3.66586 0
M  V30 25010 H 2303.87 -2.31099 4.46769 0
M  V30 25011 H 2303.57 -1.12915 5.76649 0
M  V30 25012 H 2305.09 -2.06138 5.74752 0
M  V30 25013 H 2306.5 0.209978 5.72915 0
M  V30 25014 H 2304.9 0.977593 5.92084 0
M  V30 25015 H 2305.97 1.50522 4.60946 0
M  V30 25016 N 2307.31 -1.53743 0.34653 0
M  V30 25017 C 2308.73 -1.59599 -0.00528169 0
M  V30 25018 C 2308.93 -1.36239 -1.48463 0
M  V30 25019 O 2307.99 -1.15812 -2.24374 0
M  V30 25020 C 2309.3 -2.97558 0.433568 0
M  V30 25021 C 2310.85 -3.10609 0.386165 0
M  V30 25022 C 2311.32 -4.5095 0.80053 0
M  V30 25023 N 2312.81 -4.57008 0.754834 0
M  V30 25024 C 2313.55 -5.63753 1.04737 0
M  V30 25025 N 2313.04 -6.78337 1.40821 0
M  V30 25026 N 2314.84 -5.53642 0.971414 0
M  V30 25027 H 2306.99 -1.67182 1.31012 0
M  V30 25028 H 2309.25 -0.783118 0.534256 0
M  V30 25029 H 2308.96 -3.19729 1.46515 0
M  V30 25030 H 2308.83 -3.76723 -0.189687 0
M  V30 25031 H 2311.22 -2.8816 -0.636245 0
M  V30 25032 H 2311.3 -2.33496 1.04466 0
M  V30 25033 H 2310.94 -4.74134 1.82096 0
M  V30 25034 H 2310.87 -5.26464 0.119479 0
M  V30 25035 H 2313.36 -3.74726 0.488728 0
M  V30 25036 H 2313.68 -7.55711 1.6162 0
M  V30 25037 H 2312.02 -6.79776 1.44669 0
M  V30 25038 H 2315.21 -4.63004 0.688829 0
M  V30 25039 H 2315.39 -6.3674 1.20274 0
M  V30 25040 N 2308.79 -0.0752207 -1.5742 0
M  V30 25041 C 2309.76 0.876166 -2.11792 0
M  V30 25042 C 2310.76 1.22411 -1.0427 0
M  V30 25043 O 2311.95 1.15681 -1.30244 0
M  V30 25044 C 2309.08 2.1785 -2.6221 0
M  V30 25045 H 2310.27 0.404388 -2.97161 0
M  V30 25046 H 2307.82 0.17353 -1.55334 0
M  V30 25047 H 2308.56 2.69556 -1.80305 0
M  V30 25048 H 2308.34 1.93891 -3.40806 0
M  V30 25049 H 2309.83 2.85949 -3.0434 0
M  V30 25050 N 2310.27 1.56347 0.198358 0
M  V30 25051 C 2311.2 1.90808 1.26984 0
M  V30 25052 C 2312.22 0.798444 1.41876 0
M  V30 25053 O 2313.4 1.07684 1.4236 0
M  V30 25054 C 2310.5 2.12201 2.64242 0
M  V30 25055 C 2309.68 3.43333 2.71001 0
M  V30 25056 C 2308.74 3.53877 3.89433 0
M  V30 25057 O 2307.76 4.26726 3.76688 0
M  V30 25058 N 2308.96 2.86724 5.04747 0
M  V30 25059 H 2311.73 2.83315 0.977383 0
M  V30 25060 H 2309.29 1.57175 0.388294 0
M  V30 25061 H 2311.28 2.16546 3.41892 0
M  V30 25062 H 2309.85 1.26209 2.8599 0
M  V30 25063 H 2309.07 3.50884 1.7965 0
M  V30 25064 H 2310.36 4.29673 2.72504 0
M  V30 25065 H 2309.76 2.27359 5.18 0
M  V30 25066 H 2308.32 2.96701 5.80355 0
M  V30 25067 N 2311.75 -0.465951 1.50554 0
M  V30 25068 C 2312.99 -1.21946 1.6204 0
M  V30 25069 C 2313.33 -1.91509 0.32215 0
M  V30 25070 O 2312.6 -1.82349 -0.676691 0
M  V30 25071 C 2312.89 -2.25907 2.80425 0
M  V30 25072 C 2312.74 -1.60615 4.20146 0
M  V30 25073 C 2314.06 -3.27171 2.94359 0
M  V30 25074 H 2311.18 -0.441987 0.589759 0
M  V30 25075 H 2313.82 -0.512538 1.82956 0
M  V30 25076 H 2311.97 -2.86198 2.62722 0
M  V30 25077 H 2313.64 -1.03881 4.49451 0
M  V30 25078 H 2311.88 -0.909137 4.24166 0
M  V30 25079 H 2312.55 -2.36187 4.98919 0
M  V30 25080 H 2315.03 -2.76907 3.10583 0
M  V30 25081 H 2313.91 -3.97236 3.78807 0
M  V30 25082 H 2314.17 -3.91597 2.05193 0
M  V30 25083 N 2313.23 -1.40218 -0.719481 0
M  V30 25084 C 2314.45 -1.41592 -1.50862 0
M  V30 25085 C 2314.87 -0.0145607 -1.88794 0
M  V30 25086 O 2314.23 0.960566 -1.55175 0
M  V30 25087 C 2314.28 -2.30307 -2.78641 0
M  V30 25088 O 2314 -3.64987 -2.42314 0
M  V30 25089 C 2315.5 -2.4023 -3.72564 0
M  V30 25090 H 2312.72 -0.483078 -0.4657 0
M  V30 25091 H 2315.26 -1.84223 -0.887817 0
M  V30 25092 H 2313.42 -1.91048 -3.37015 0
M  V30 25093 H 2313.83 -4.12062 -3.24507 0
M  V30 25094 H 2315.31 -3.0652 -4.59074 0
M  V30 25095 H 2315.78 -1.42616 -4.154 0
M  V30 25096 H 2316.39 -2.80024 -3.20104 0
M  V30 25097 N 2314.7 0.951297 -1.25651 0
M  V30 25098 C 2315.61 2.08222 -1.08077 0
M  V30 25099 C 2316.63 1.73992 -0.0169971 0
M  V30 25100 O 2317.81 2.0021 -0.218628 0
M  V30 25101 C 2314.87 3.39457 -0.704982 0
M  V30 25102 C 2313.93 3.87534 -1.84706 0
M  V30 25103 C 2313.17 5.12505 -1.48911 0
M  V30 25104 O 2313.39 5.69091 -0.386256 0
M  V30 25105 O 2312.32 5.55373 -2.32043 0
M  V30 25106 H 2316.15 2.25951 -2.02928 0
M  V30 25107 H 2313.73 1.06654 -1.0462 0
M  V30 25108 H 2315.62 4.18331 -0.507683 0
M  V30 25109 H 2314.29 3.2299 0.214234 0
M  V30 25110 H 2313.2 3.09649 -2.09924 0
M  V30 25111 H 2314.53 4.08504 -2.74564 0
M  V30 25112 N 2316.18 1.07291 1.1544 0
M  V30 25113 C 2317.11 0.714146 2.22311 0
M  V30 25114 C 2318.09 -0.298126 1.67467 0
M  V30 25115 O 2319.28 -0.171014 1.93446 0
M  V30 25116 C 2316.41 0.110509 3.47124 0
M  V30 25117 C 2315.36 1.04987 4.14924 0
M  V30 25118 C 2314.69 0.309018 5.33806 0
M  V30 25119 C 2315.99 2.38322 4.64758 0
M  V30 25120 H 2317.68 1.60765 2.52577 0
M  V30 25121 H 2315.23 0.774431 1.21402 0
M  V30 25122 H 2317.18 -0.152408 4.21124 0
M  V30 25123 H 2315.91 -0.818065 3.16189 0
M  V30 25124 H 2314.56 1.2977 3.42864 0
M  V30 25125 H 2314.21 -0.622997 4.99127 0
M  V30 25126 H 2313.91 0.935138 5.80111 0
M  V30 25127 H 2315.44 0.0538844 6.10576 0
M  V30 25128 H 2316.85 2.17869 5.30289 0
M  V30 25129 H 2315.25 2.96523 5.21722 0
M  V30 25130 H 2316.32 3.00669 3.80429 0
M  V30 25131 N 2317.66 -1.32267 0.856927 0
M  V30 25132 C 2318.57 -2.32594 0.306172 0
M  V30 25133 C 2319.59 -1.64148 -0.57718 0
M  V30 25134 O 2320.76 -1.9567 -0.477009 0
M  V30 25135 C 2317.83 -3.43155 -0.4945 0
M  V30 25136 C 2316.89 -4.27287 0.415261 0
M  V30 25137 C 2316.12 -5.32569 -0.347293 0
M  V30 25138 O 2316.34 -5.48167 -1.57698 0
M  V30 25139 O 2315.28 -6.0121 0.288087 0
M  V30 25140 H 2319.1 -2.81596 1.13742 0
M  V30 25141 H 2316.69 -1.35931 0.619926 0
M  V30 25142 H 2318.57 -4.10578 -0.948871 0
M  V30 25143 H 2317.25 -2.96338 -1.30251 0
M  V30 25144 H 2316.15 -3.62665 0.917856 0
M  V30 25145 H 2317.49 -4.77635 1.18852 0
M  V30 25146 N 2319.14 -0.615084 -1.45102 0
M  V30 25147 C 2320.42 -0.044862 -1.95549 0
M  V30 25148 C 2320.8 1.42508 -1.55739 0
M  V30 25149 O 2320.14 2.13141 -0.823593 0
M  V30 25150 C 2320.35 -0.250846 -3.48097 0
M  V30 25151 C 2321.7 -0.135584 -4.24383 0
M  V30 25152 O 2322.73 -0.181361 -3.55738 0
M  V30 25153 O 2321.58 -0.0269839 -5.46493 0
M  V30 25154 H 2318.68 0.03147 -0.826401 0
M  V30 25155 H 2321.22 -0.685669 -1.55231 0
M  V30 25156 H 2320 -1.27145 -3.70067 0
M  V30 25157 H 2319.62 0.424867 -3.95323 0
M  V30 25158 N 2320.62 1.53557 -0.354678 0
M  V30 25159 C 2321.53 2.29098 0.50511 0
M  V30 25160 C 2322.54 1.34638 1.10221 0
M  V30 25161 O 2323.72 1.67686 1.1155 0
M  V30 25162 C 2320.78 3.0574 1.63474 0
M  V30 25163 C 2319.85 4.15847 1.06629 0
M  V30 25164 C 2319.08 4.88826 2.14208 0
M  V30 25165 O 2319.3 4.61568 3.35129 0
M  V30 25166 O 2318.24 5.75016 1.77877 0
M  V30 25167 H 2322.06 3.03503 -0.10929 0
M  V30 25168 H 2319.65 1.48922 -0.119384 0
M  V30 25169 H 2321.53 3.53634 2.29174 0
M  V30 25170 H 2320.2 2.34182 2.23474 0
M  V30 25171 H 2319.11 3.72231 0.373499 0
M  V30 25172 H 2320.44 4.8954 0.510995 0
M  V30 25173 N 2322.1 0.083568 1.57378 0
M  V30 25174 C 2323.03 -0.876822 2.16412 0
M  V30 25175 C 2324.01 -1.30226 1.09431 0
M  V30 25176 O 2325.19 -1.37121 1.37519 0
M  V30 25177 C 2322.32 -2.14017 2.73521 0
M  V30 25178 C 2321.28 -1.85375 3.85772 0
M  V30 25179 C 2320.6 -3.1844 4.29534 0
M  V30 25180 C 2321.9 -1.14975 5.09488 0
M  V30 25181 H 2323.6 -0.385006 2.96914 0
M  V30 25182 H 2321.14 -0.183745 1.42823 0
M  V30 25183 H 2323.09 -2.81631 3.13468 0
M  V30 25184 H 2321.82 -2.65462 1.90257 0
M  V30 25185 H 2320.48 -1.20163 3.46347 0
M  V30 25186 H 2320.13 -3.67749 3.43176 0
M  V30 25187 H 2319.83 -3.00063 5.05209 0
M  V30 25188 H 2321.35 -3.87231 4.72106 0
M  V30 25189 H 2322.76 -1.72677 5.46677 0
M  V30 25190 H 2321.16 -1.06816 5.90517 0
M  V30 25191 H 2322.23 -0.130663 4.84724 0
M  V30 25192 N 2323.57 -1.5645 -0.190064 0
M  V30 25193 C 2324.8 -1.85034 -0.92574 0
M  V30 25194 C 2325.22 -0.666689 -1.76637 0
M  V30 25195 O 2324.57 0.364534 -1.78822 0
M  V30 25196 C 2324.62 -3.12471 -1.8178 0
M  V30 25197 O 2324.35 -4.26272 -1.01111 0
M  V30 25198 C 2325.85 -3.54269 -2.66474 0
M  V30 25199 H 2323.07 -0.614342 -0.269861 0
M  V30 25200 H 2325.61 -2.0356 -0.195802 0
M  V30 25201 H 2323.77 -2.95827 -2.50131 0
M  V30 25202 H 2324.18 -4.98872 -1.61947 0
M  V30 25203 H 2325.65 -4.46391 -3.24714 0
M  V30 25204 H 2326.13 -2.77497 -3.40429 0
M  V30 25205 H 2326.74 -3.73461 -2.03487 0
M  V30 25206 N 2325.05 0.45796 -1.50799 0
M  V30 25207 C 2326.01 1.53671 -1.70053 0
M  V30 25208 C 2327.01 1.50324 -0.570908 0
M  V30 25209 O 2328.2 1.52711 -0.838153 0
M  V30 25210 C 2325.34 2.93273 -1.73793 0
M  V30 25211 H 2326.53 1.37912 -2.66309 0
M  V30 25212 H 2324.08 0.685246 -1.40478 0
M  V30 25213 H 2324.82 3.14461 -0.792773 0
M  V30 25214 H 2324.6 2.97108 -2.55869 0
M  V30 25215 H 2326.09 3.71567 -1.90598 0
M  V30 25216 N 2326.53 1.40598 0.712035 0
M  V30 25217 C 2327.49 1.40891 1.80783 0
M  V30 25218 C 2328.49 0.30213 1.57936 0
M  V30 25219 O 2329.68 0.561211 1.64912 0
M  V30 25220 C 2326.81 1.20414 3.18925 0
M  V30 25221 H 2328.01 2.38422 1.8192 0
M  V30 25222 H 2325.56 1.26499 0.918028 0
M  V30 25223 H 2326.3 0.236579 3.23436 0
M  V30 25224 H 2326.08 2.00588 3.36908 0
M  V30 25225 H 2327.57 1.23415 3.98947 0
M  V30 25226 N 2328.01 -0.94462 1.26153 0
M  V30 25227 C 2328.92 -2.07646 1.0918 0
M  V30 25228 C 2329.93 -1.7398 0.0262241 0
M  V30 25229 O 2331.11 -2.00091 0.229243 0
M  V30 25230 C 2328.17 -3.39078 0.722974 0
M  V30 25231 C 2327.24 -3.86549 1.86758 0
M  V30 25232 C 2326.47 -5.11708 1.51626 0
M  V30 25233 O 2326.69 -5.68878 0.416431 0
M  V30 25234 O 2325.63 -5.54135 2.34985 0
M  V30 25235 H 2329.45 -2.24872 2.04124 0
M  V30 25236 H 2327.04 -1.06098 1.05184 0
M  V30 25237 H 2328.92 -4.18056 0.529861 0
M  V30 25238 H 2327.59 -3.23099 -0.197102 0
M  V30 25239 H 2326.5 -3.08531 2.11564 0
M  V30 25240 H 2327.83 -4.07042 2.76726 0
M  V30 25241 N 2329.49 -1.07901 -1.1487 0
M  V30 25242 C 2330.76 -0.718482 -1.81926 0
M  V30 25243 C 2331.14 0.798421 -1.95419 0
M  V30 25244 O 2330.49 1.71497 -1.51 0
M  V30 25245 C 2330.7 -1.43941 -3.17934 0
M  V30 25246 C 2332.05 -1.59513 -3.93498 0
M  V30 25247 O 2333.07 -1.40064 -3.27507 0
M  V30 25248 O 2331.93 -1.9156 -5.11827 0
M  V30 25249 H 2329.03 -0.256319 -0.786276 0
M  V30 25250 H 2331.57 -1.18028 -1.21932 0
M  V30 25251 H 2330.34 -2.47301 -3.03246 0
M  V30 25252 H 2329.97 -0.968755 -3.85618 0
M  V30 25253 N 2330.96 1.31811 -0.863929 0
M  V30 25254 C 2331.93 2.26952 -0.320252 0
M  V30 25255 C 2332.93 1.51976 0.525342 0
M  V30 25256 O 2334.12 1.70938 0.335517 0
M  V30 25257 C 2331.25 3.36501 0.54586 0
M  V30 25258 H 2332.44 2.76554 -1.16008 0
M  V30 25259 H 2329.99 1.4264 -0.63902 0
M  V30 25260 H 2330.73 2.92182 1.40713 0
M  V30 25261 H 2330.51 3.92055 -0.0595363 0
M  V30 25262 H 2332 4.07369 0.918724 0
M  V30 25263 N 2332.44 0.62277 1.44773 0
M  V30 25264 C 2333.39 -0.0871274 2.30635 0
M  V30 25265 C 2334.36 -0.845072 1.42996 0
M  V30 25266 O 2335.54 -0.827782 1.71908 0
M  V30 25267 C 2332.68 -1.06839 3.28146 0
M  V30 25268 C 2331.8 -0.309733 4.30888 0
M  V30 25269 C 2330.93 -1.28206 5.15496 0
M  V30 25270 C 2329.97 -0.51209 6.09954 0
M  V30 25271 N 2329.11 -1.43446 6.8729 0
M  V30 25272 H 2333.95 0.651025 2.90802 0
M  V30 25273 H 2331.48 0.332835 1.43285 0
M  V30 25274 H 2333.44 -1.65059 3.8316 0
M  V30 25275 H 2332.07 -1.77377 2.69699 0
M  V30 25276 H 2331.12 0.388247 3.78414 0
M  V30 25277 H 2332.44 0.290341 4.97954 0
M  V30 25278 H 2331.59 -1.93586 5.74986 0
M  V30 25279 H 2330.33 -1.91607 4.48484 0
M  V30 25280 H 2329.33 0.155248 5.49581 0
M  V30 25281 H 2330.56 0.117077 6.78999 0
M  V30 25282 H 2328.51 -2.05583 6.22954 0
M  V30 25283 H 2328.42 -0.888203 7.50764 0
M  V30 25284 H 2329.69 -2.07736 7.51309 0
M  V30 25285 N 2333.92 -1.53367 0.362817 0
M  V30 25286 C 2334.85 -2.28577 -0.476936 0
M  V30 25287 C 2335.83 -1.30896 -1.08629 0
M  V30 25288 O 2337.02 -1.59763 -1.10406 0
M  V30 25289 C 2334.15 -3.07296 -1.61823 0
M  V30 25290 C 2333.1 -4.12642 -1.13626 0
M  V30 25291 C 2332.43 -4.79427 -2.36757 0
M  V30 25292 C 2333.73 -5.21824 -0.222969 0
M  V30 25293 H 2335.42 -2.99021 0.150526 0
M  V30 25294 H 2332.97 -1.43811 0.0738356 0
M  V30 25295 H 2334.92 -3.58657 -2.21231 0
M  V30 25296 H 2333.64 -2.34537 -2.27288 0
M  V30 25297 H 2332.3 -3.62222 -0.564881 0
M  V30 25298 H 2331.95 -4.03243 -3.00673 0
M  V30 25299 H 2331.65 -5.50612 -2.05182 0
M  V30 25300 H 2333.17 -5.33581 -2.96856 0
M  V30 25301 H 2334.59 -5.68704 -0.724445 0
M  V30 25302 H 2332.98 -6.001 0.00178349 0
M  V30 25303 H 2334.05 -4.79287 0.735638 0
M  V30 25304 N 2335.4 -0.091913 -1.57332 0
M  V30 25305 C 2336.81 0.264738 -1.57389 0
M  V30 25306 C 2337.01 1.68641 -1.10283 0
M  V30 25307 O 2336.07 2.4022 -0.777843 0
M  V30 25308 C 2337.38 0.0560667 -3.00648 0
M  V30 25309 C 2338.93 0.124061 -3.12754 0
M  V30 25310 C 2339.41 -0.0565777 -4.57965 0
M  V30 25311 N 2340.9 -0.00163753 -4.632 0
M  V30 25312 C 2341.63 -0.116699 -5.73281 0
M  V30 25313 N 2341.13 -0.286416 -6.92208 0
M  V30 25314 N 2342.92 -0.0581961 -5.6207 0
M  V30 25315 H 2335.07 -1.02082 -1.86261 0
M  V30 25316 H 2337.34 -0.399801 -0.859572 0
M  V30 25317 H 2337.04 -0.925728 -3.39298 0
M  V30 25318 H 2336.92 0.799758 -3.68624 0
M  V30 25319 H 2339.3 1.09636 -2.73978 0
M  V30 25320 H 2339.38 -0.651068 -2.47376 0
M  V30 25321 H 2339.03 -1.02573 -4.97435 0
M  V30 25322 H 2338.96 0.738205 -5.214 0
M  V30 25323 H 2341.45 0.127126 -3.77686 0
M  V30 25324 H 2341.76 -0.365811 -7.71934 0
M  V30 25325 H 2340.11 -0.322042 -6.94253 0
M  V30 25326 H 2343.3 0.0732382 -4.68043 0
M  V30 25327 H 2343.47 -0.151317 -6.47823 0
M  V30 25328 N 2336.88 1.56548 0.181765 0
M  V30 25329 C 2337.81 1.98625 1.22761 0
M  V30 25330 C 2338.79 0.860215 1.46746 0
M  V30 25331 O 2339.97 1.12553 1.58257 0
M  V30 25332 C 2337.1 2.3372 2.5689 0
M  V30 25333 C 2336.06 3.49186 2.47494 0
M  V30 25334 C 2335.38 3.69993 3.86017 0
M  V30 25335 C 2336.68 4.82963 1.98857 0
M  V30 25336 H 2338.38 2.8624 0.877892 0
M  V30 25337 H 2335.92 1.37713 0.420856 0
M  V30 25338 H 2337.88 2.61752 3.30248 0
M  V30 25339 H 2336.6 1.43002 2.93629 0
M  V30 25340 H 2335.26 3.21265 1.7659 0
M  V30 25341 H 2334.91 2.76584 4.20132 0
M  V30 25342 H 2334.61 4.47679 3.80601 0
M  V30 25343 H 2336.13 4.00415 4.60977 0
M  V30 25344 H 2337.54 5.09939 2.61983 0
M  V30 25345 H 2335.94 5.64212 2.04414 0
M  V30 25346 H 2337.01 4.75654 0.942381 0
M  V30 25347 N 2338.35 -0.449957 1.5104 0
M  V30 25348 C 2339.26 -1.57064 1.74264 0
M  V30 25349 C 2340.28 -1.62334 0.626391 0
M  V30 25350 O 2341.46 -1.79811 0.907194 0
M  V30 25351 C 2338.52 -2.93141 1.8512 0
M  V30 25352 C 2337.58 -2.9809 3.08935 0
M  V30 25353 C 2336.82 -4.27676 3.19263 0
M  V30 25354 O 2337.04 -5.19359 2.35844 0
M  V30 25355 O 2335.97 -4.38651 4.12152 0
M  V30 25356 H 2339.8 -1.40386 2.69305 0
M  V30 25357 H 2337.38 -0.631665 1.3539 0
M  V30 25358 H 2339.27 -3.73923 1.94318 0
M  V30 25359 H 2337.94 -3.09973 0.932643 0
M  V30 25360 H 2336.85 -2.16309 3.05224 0
M  V30 25361 H 2338.18 -2.86199 4.00438 0
M  V30 25362 N 2339.83 -1.40974 -0.704569 0
M  V30 25363 C 2341.08 -1.40054 -1.46672 0
M  V30 25364 C 2341.41 -0.00644516 -1.94199 0
M  V30 25365 O 2340.69 0.964205 -1.68918 0
M  V30 25366 C 2340.97 -2.39957 -2.68501 0
M  V30 25367 C 2340.82 -3.88436 -2.26798 0
M  V30 25368 C 2342.14 -2.3724 -3.70682 0
M  V30 25369 H 2339.26 -0.510038 -0.532006 0
M  V30 25370 H 2341.9 -1.72187 -0.803225 0
M  V30 25371 H 2340.05 -2.12686 -3.25111 0
M  V30 25372 H 2341.72 -4.26577 -1.75585 0
M  V30 25373 H 2339.97 -4.03737 -1.58678 0
M  V30 25374 H 2340.64 -4.53871 -3.14173 0
M  V30 25375 H 2343.11 -2.6142 -3.23726 0
M  V30 25376 H 2341.99 -3.0917 -4.53547 0
M  V30 25377 H 2342.25 -1.38784 -4.19752 0
M  V30 25378 N 2341.31 0.937917 -1.26653 0
M  V30 25379 C 2342.54 1.71878 -1.15176 0
M  V30 25380 C 2342.95 1.86518 0.292635 0
M  V30 25381 O 2342.31 1.3749 1.20011 0
M  V30 25382 C 2342.36 3.12383 -1.81931 0
M  V30 25383 O 2342.08 2.9844 -3.20726 0
M  V30 25384 C 2343.58 4.0667 -1.76449 0
M  V30 25385 H 2340.8 0.538056 -0.40092 0
M  V30 25386 H 2343.35 1.17557 -1.67334 0
M  V30 25387 H 2341.5 3.63596 -1.33703 0
M  V30 25388 H 2341.92 3.87194 -3.53809 0
M  V30 25389 H 2343.39 5.02808 -2.2779 0
M  V30 25390 H 2343.87 4.33062 -0.731684 0
M  V30 25391 H 2344.47 3.61379 -2.24245 0
M  V30 25392 N 2342.79 1.08509 1.14296 0
M  V30 25393 C 2344.03 0.816614 1.85632 0
M  V30 25394 C 2344.37 -0.655989 1.82785 0
M  V30 25395 O 2343.64 -1.48231 1.25928 0
M  V30 25396 C 2343.93 1.34047 3.34221 0
M  V30 25397 C 2343.78 2.87849 3.45634 0
M  V30 25398 C 2345.1 0.966576 4.29355 0
M  V30 25399 H 2342.22 0.298116 0.674015 0
M  V30 25400 H 2344.86 1.34489 1.34211 0
M  V30 25401 H 2343.01 0.891107 3.78142 0
M  V30 25402 H 2344.68 3.41164 3.10492 0
M  V30 25403 H 2342.92 3.25456 2.86812 0
M  V30 25404 H 2343.59 3.19576 4.50083 0
M  V30 25405 H 2346.07 1.35398 3.93455 0
M  V30 25406 H 2344.95 1.3603 5.31777 0
M  V30 25407 H 2345.21 -0.126284 4.4192 0
M  V30 25408 N 2344.27 -1.31351 0.870907 0
M  V30 25409 C 2345.2 -2.27426 0.28459 0
M  V30 25410 C 2346.21 -1.53124 -0.5529 0
M  V30 25411 O 2347.4 -1.74522 -0.37474 0
M  V30 25412 C 2344.5 -3.33271 -0.615106 0
M  V30 25413 C 2343.67 -4.36986 0.190156 0
M  V30 25414 C 2342.73 -5.2232 -0.637825 0
M  V30 25415 O 2341.76 -5.69162 -0.0655259 0
M  V30 25416 N 2342.96 -5.46781 -1.94963 0
M  V30 25417 H 2345.73 -2.78378 1.11022 0
M  V30 25418 H 2343.29 -1.44382 0.732483 0
M  V30 25419 H 2345.28 -3.87275 -1.17474 0
M  V30 25420 H 2343.85 -2.82356 -1.34141 0
M  V30 25421 H 2343.07 -3.83043 0.931232 0
M  V30 25422 H 2344.36 -5.03351 0.742667 0
M  V30 25423 H 2343.75 -5.10482 -2.43772 0
M  V30 25424 H 2342.31 -6.03716 -2.45703 0
M  V30 25425 N 2345.74 -0.630439 -1.44441 0
M  V30 25426 C 2346.71 0.065212 -2.29107 0
M  V30 25427 C 2347.71 0.77297 -1.41003 0
M  V30 25428 O 2348.9 0.617664 -1.62882 0
M  V30 25429 C 2346.03 1.10291 -3.22566 0
M  V30 25430 H 2347.22 -0.679453 -2.92102 0
M  V30 25431 H 2344.78 -0.390544 -1.51342 0
M  V30 25432 H 2345.51 1.87758 -2.64419 0
M  V30 25433 H 2345.3 0.599342 -3.87492 0
M  V30 25434 H 2346.79 1.58943 -3.8617 0
M  V30 25435 N 2347.22 1.53172 -0.370945 0
M  V30 25436 C 2348.15 2.28827 0.464807 0
M  V30 25437 C 2349.13 1.3147 1.07933 0
M  V30 25438 O 2350.32 1.60346 1.09557 0
M  V30 25439 C 2347.45 3.0815 1.60191 0
M  V30 25440 C 2346.4 4.13238 1.11436 0
M  V30 25441 C 2345.73 4.80676 2.34211 0
M  V30 25442 C 2347.03 5.21935 0.195292 0
M  V30 25443 H 2348.72 2.98937 -0.166382 0
M  V30 25444 H 2346.27 1.43769 -0.0814612 0
M  V30 25445 H 2348.22 3.59825 2.19325 0
M  V30 25446 H 2346.95 2.35739 2.26041 0
M  V30 25447 H 2345.6 3.62516 0.545664 0
M  V30 25448 H 2345.25 4.04832 2.9853 0
M  V30 25449 H 2344.95 5.51693 2.02259 0
M  V30 25450 H 2346.48 5.35148 2.94022 0
M  V30 25451 H 2347.89 5.69081 0.694275 0
M  V30 25452 H 2346.29 6.00091 -0.0336082 0
M  V30 25453 H 2347.36 4.78891 -0.761045 0
M  V30 25454 N 2348.7 0.100255 1.57281 0
M  V30 25455 C 2349.65 -0.85682 2.14306 0
M  V30 25456 C 2350.62 -1.27632 1.06298 0
M  V30 25457 O 2351.8 -1.35716 1.34112 0
M  V30 25458 C 2348.94 -2.10862 2.73187 0
M  V30 25459 C 2348.06 -1.73918 3.95445 0
M  V30 25460 C 2347.19 -2.93923 4.42473 0
M  V30 25461 C 2346.23 -2.5313 5.57307 0
M  V30 25462 N 2345.37 -3.65987 5.99165 0
M  V30 25463 H 2350.21 -0.363674 2.95773 0
M  V30 25464 H 2347.74 -0.167833 1.46139 0
M  V30 25465 H 2349.7 -2.84179 3.05447 0
M  V30 25466 H 2348.33 -2.57667 1.94441 0
M  V30 25467 H 2347.38 -0.905489 3.69466 0
M  V30 25468 H 2348.7 -1.39927 4.78771 0
M  V30 25469 H 2347.85 -3.75487 4.76544 0
M  V30 25470 H 2346.59 -3.31128 3.58058 0
M  V30 25471 H 2345.59 -1.69994 5.2286 0
M  V30 25472 H 2346.82 -2.17063 6.43475 0
M  V30 25473 H 2344.76 -4.029 5.17694 0
M  V30 25474 H 2344.68 -3.35857 6.773 0
M  V30 25475 H 2345.95 -4.48046 6.37868 0
M  V30 25476 N 2350.18 -1.56643 -0.17346 0
M  V30 25477 C 2351.41 -1.86006 -0.906062 0
M  V30 25478 C 2351.82 -0.685386 -1.7592 0
M  V30 25479 O 2351.18 0.345547 -1.79199 0
M  V30 25480 C 2351.23 -3.14381 -1.78456 0
M  V30 25481 O 2350.95 -4.27321 -0.965839 0
M  V30 25482 C 2352.45 -3.57076 -2.62701 0
M  V30 25483 H 2349.67 -0.61717 -0.26333 0
M  V30 25484 H 2352.22 -2.03757 -0.1742 0
M  V30 25485 H 2350.37 -2.98463 -2.46979 0
M  V30 25486 H 2350.79 -5.00562 -1.56646 0
M  V30 25487 H 2352.26 -4.4981 -3.19961 0
M  V30 25488 H 2352.74 -2.81092 -3.37467 0
M  V30 25489 H 2353.34 -3.75599 -1.99514 0
M  V30 25490 N 2351.66 0.44194 -1.51277 0
M  V30 25491 C 2352.59 1.5543 -1.68446 0
M  V30 25492 C 2353.6 1.52673 -0.565214 0
M  V30 25493 O 2354.79 1.57533 -0.839383 0
M  V30 25494 C 2351.89 2.94345 -1.67971 0
M  V30 25495 C 2351.06 3.21656 -2.96405 0
M  V30 25496 C 2350.12 4.40272 -2.88179 0
M  V30 25497 O 2349.15 4.39151 -3.62126 0
M  V30 25498 N 2350.35 5.43581 -2.03716 0
M  V30 25499 H 2353.12 1.41108 -2.64403 0
M  V30 25500 H 2350.68 0.630812 -1.49105 0
M  V30 25501 H 2352.67 3.71711 -1.60042 0
M  V30 25502 H 2351.24 3.02288 -0.796278 0
M  V30 25503 H 2350.46 2.32633 -3.18238 0
M  V30 25504 H 2351.75 3.36729 -3.81433 0
M  V30 25505 H 2351.15 5.47326 -1.43005 0
M  V30 25506 H 2349.7 6.19817 -2.01669 0
M  V30 25507 N 2353.14 1.41345 0.697083 0
M  V30 25508 C 2354.09 1.39542 1.80311 0
M  V30 25509 C 2355.07 0.270029 1.58618 0
M  V30 25510 O 2356.26 0.510581 1.69476 0
M  V30 25511 C 2353.39 1.27854 3.18604 0
M  V30 25512 C 2352.48 2.4525 3.45996 0
M  V30 25513 N 2352.87 3.70717 3.44097 0
M  V30 25514 C 2351.17 2.3903 3.76538 0
M  V30 25515 C 2351.87 4.48569 3.70352 0
M  V30 25516 N 2350.84 3.78662 3.90021 0
M  V30 25517 H 2354.64 2.34471 1.77202 0
M  V30 25518 H 2352.16 1.35379 0.897008 0
M  V30 25519 H 2354.16 1.24644 3.97831 0
M  V30 25520 H 2352.82 0.339089 3.22925 0
M  V30 25521 H 2353.83 4.03624 3.24513 0
M  V30 25522 H 2350.5 1.53549 3.88238 0
M  V30 25523 H 2351.89 5.57495 3.75032 0
M  V30 25524 N 2354.61 -0.931187 1.27148 0
M  V30 25525 C 2355.52 -2.06476 1.11376 0
M  V30 25526 C 2356.54 -1.73943 0.0446756 0
M  V30 25527 O 2357.72 -1.99837 0.250452 0
M  V30 25528 C 2354.78 -3.38292 0.758897 0
M  V30 25529 C 2353.84 -3.84546 1.90848 0
M  V30 25530 C 2353.07 -5.10071 1.57045 0
M  V30 25531 O 2353.3 -5.68404 0.476745 0
M  V30 25532 O 2352.23 -5.51612 2.40849 0
M  V30 25533 H 2356.06 -2.22694 2.06497 0
M  V30 25534 H 2353.64 -1.04976 1.06303 0
M  V30 25535 H 2355.52 -4.1747 0.574171 0
M  V30 25536 H 2354.2 -3.2329 -0.162822 0
M  V30 25537 H 2353.11 -3.0627 2.14824 0
M  V30 25538 H 2354.44 -4.04084 2.81028 0
M  V30 25539 N 2356.09 -1.09114 -1.13719 0
M  V30 25540 C 2357.51 -0.820198 -1.36912 0
M  V30 25541 C 2357.71 0.567045 -1.93357 0
M  V30 25542 O 2356.76 1.32251 -2.15095 0
M  V30 25543 C 2358.08 -1.90881 -2.32347 0
M  V30 25544 C 2359.62 -1.93566 -2.4597 0
M  V30 25545 C 2360.1 -3.01562 -3.44709 0
M  V30 25546 N 2361.59 -3.00781 -3.52257 0
M  V30 25547 C 2362.33 -3.80986 -4.28529 0
M  V30 25548 N 2361.82 -4.7109 -5.07982 0
M  V30 25549 N 2363.61 -3.69258 -4.23798 0
M  V30 25550 H 2355.77 -1.98554 -0.754313 0
M  V30 25551 H 2358.03 -0.86207 -0.394385 0
M  V30 25552 H 2357.73 -2.90655 -1.98022 0
M  V30 25553 H 2357.61 -1.7843 -3.32329 0
M  V30 25554 H 2360 -0.944335 -2.79582 0
M  V30 25555 H 2360.08 -2.10096 -1.45923 0
M  V30 25556 H 2359.72 -4.00906 -3.11828 0
M  V30 25557 H 2359.65 -2.82277 -4.44553 0
M  V30 25558 H 2362.14 -2.3548 -2.95563 0
M  V30 25559 H 2362.45 -5.28879 -5.63478 0
M  V30 25560 H 2360.8 -4.75128 -5.07226 0
M  V30 25561 H 2363.99 -2.98228 -3.60801 0
M  V30 25562 H 2364.16 -4.32003 -4.82988 0
M  V30 25563 N 2357.57 1.30887 -0.877861 0
M  V30 25564 C 2358.85 1.91188 -0.413085 0
M  V30 25565 C 2359.23 1.79834 1.10557 0
M  V30 25566 O 2358.57 1.21102 1.93769 0
M  V30 25567 C 2358.78 3.37109 -0.90325 0
M  V30 25568 C 2360.13 4.14199 -0.934023 0
M  V30 25569 O 2361.16 3.45923 -0.849434 0
M  V30 25570 O 2360.02 5.36165 -1.05781 0
M  V30 25571 H 2357.11 0.817491 -0.12505 0
M  V30 25572 H 2359.66 1.39502 -0.966293 0
M  V30 25573 H 2358.43 3.39424 -1.94698 0
M  V30 25574 H 2358.05 3.96238 -0.328801 0
M  V30 25575 N 2359.05 0.638091 1.44105 0
M  V30 25576 C 2359.98 -0.0493876 2.33448 0
M  V30 25577 C 2360.96 -0.827646 1.48607 0
M  V30 25578 O 2362.14 -0.792141 1.7731 0
M  V30 25579 C 2359.27 -1.02685 3.31773 0
M  V30 25580 C 2358.23 -0.359748 4.26485 0
M  V30 25581 C 2357.55 -1.4476 5.14732 0
M  V30 25582 C 2358.85 0.738387 5.17054 0
M  V30 25583 H 2360.55 0.696688 2.91181 0
M  V30 25584 H 2358.09 0.336481 1.40014 0
M  V30 25585 H 2360.05 -1.51659 3.93164 0
M  V30 25586 H 2358.77 -1.8039 2.72263 0
M  V30 25587 H 2357.43 0.109404 3.66437 0
M  V30 25588 H 2357.08 -2.2157 4.5157 0
M  V30 25589 H 2356.78 -1.00658 5.78914 0
M  V30 25590 H 2358.3 -1.93901 5.78995 0
M  V30 25591 H 2359.72 0.331454 5.72341 0
M  V30 25592 H 2358.11 1.10296 5.89877 0
M  V30 25593 H 2359.18 1.60266 4.57649 0
M  V30 25594 N 2360.53 -1.52973 0.379063 0
M  V30 25595 C 2361.46 -2.23771 -0.495923 0
M  V30 25596 C 2362.47 -1.25652 -1.03515 0
M  V30 25597 O 2363.66 -1.51792 -0.939222 0
M  V30 25598 C 2360.76 -2.93242 -1.69889 0
M  V30 25599 C 2359.93 -4.17981 -1.28883 0
M  V30 25600 C 2358.99 -4.70542 -2.35535 0
M  V30 25601 O 2358.02 -5.33887 -1.97366 0
M  V30 25602 N 2359.22 -4.49515 -3.6731 0
M  V30 25603 H 2361.98 -2.99496 0.110575 0
M  V30 25604 H 2359.55 -1.60598 0.204906 0
M  V30 25605 H 2361.54 -3.25309 -2.40741 0
M  V30 25606 H 2360.11 -2.20887 -2.21196 0
M  V30 25607 H 2359.33 -3.92066 -0.409607 0
M  V30 25608 H 2360.62 -4.99049 -0.991356 0
M  V30 25609 H 2360.01 -3.9893 -4.01088 0
M  V30 25610 H 2358.57 -4.86097 -4.34227 0
M  V30 25611 N 2362 -0.108595 -1.57225 0
M  V30 25612 C 2363.25 0.550819 -1.94449 0
M  V30 25613 C 2363.57 1.67876 -0.992103 0
M  V30 25614 O 2362.84 1.95845 -0.0465344 0
M  V30 25615 H 2361.42 0.206466 -0.7179 0
M  V30 25616 H 2364.08 -0.175096 -1.94112 0
M  V30 25617 H 2363.18 0.952207 -2.9722 0
M  V30 25618 N 2363.48 1.56732 0.16515 0
M  V30 25619 C 2364.9 1.50989 0.517148 0
M  V30 25620 C 2365.1 0.813926 1.8433 0
M  V30 25621 O 2364.15 0.376864 2.49672 0
M  V30 25622 C 2365.47 2.95734 0.544209 0
M  V30 25623 C 2367.01 3.06574 0.630985 0
M  V30 25624 C 2367.49 4.5279 0.688881 0
M  V30 25625 N 2368.98 4.57061 0.751602 0
M  V30 25626 C 2369.72 5.67549 0.817077 0
M  V30 25627 N 2369.21 6.87652 0.843008 0
M  V30 25628 N 2371 5.55535 0.856571 0
M  V30 25629 H 2363.16 2.00381 -0.704353 0
M  V30 25630 H 2365.42 0.913143 -0.254703 0
M  V30 25631 H 2365.12 3.49835 -0.361668 0
M  V30 25632 H 2365 3.50713 1.38854 0
M  V30 25633 H 2367.39 2.52503 1.52729 0
M  V30 25634 H 2367.47 2.5467 -0.24014 0
M  V30 25635 H 2367.11 5.07493 -0.203189 0
M  V30 25636 H 2367.04 5.02456 1.57624 0
M  V30 25637 H 2369.53 3.70592 0.739596 0
M  V30 25638 H 2369.84 7.67608 0.894313 0
M  V30 25639 H 2368.19 6.9025 0.811183 0
M  V30 25640 H 2371.38 4.60622 0.833356 0
M  V30 25641 H 2371.55 6.41661 0.904134 0
M  V30 25642 N 2364.96 -0.433911 1.51509 0
M  V30 25643 C 2366.24 -1.1945 1.5489 0
M  V30 25644 C 2366.62 -2.08734 0.315191 0
M  V30 25645 O 2365.97 -2.17529 -0.69952 0
M  V30 25646 C 2366.18 -1.99337 2.86471 0
M  V30 25647 C 2367.52 -2.56261 3.38549 0
M  V30 25648 O 2368.55 -2.09544 2.88044 0
M  V30 25649 O 2367.41 -3.41475 4.26681 0
M  V30 25650 H 2364.5 -0.544021 0.622872 0
M  V30 25651 H 2367.05 -0.442703 1.63824 0
M  V30 25652 H 2365.82 -1.33782 3.6772 0
M  V30 25653 H 2365.44 -2.81575 2.80715 0
M  V30 25654 N 2366.44 -1.41713 -0.689577 0
M  V30 25655 C 2367.35 -1.46404 -1.83311 0
M  V30 25656 C 2368.36 -0.35408 -1.70359 0
M  V30 25657 O 2369.54 -0.602726 -1.9217 0
M  V30 25658 C 2366.61 -1.34988 -3.19342 0
M  V30 25659 C 2365.67 -2.5635 -3.44359 0
M  V30 25660 C 2364.9 -2.45469 -4.73899 0
M  V30 25661 O 2365.12 -1.48251 -5.50798 0
M  V30 25662 O 2364.06 -3.35336 -4.99833 0
M  V30 25663 H 2367.88 -2.42893 -1.8231 0
M  V30 25664 H 2365.47 -1.23316 -0.843417 0
M  V30 25665 H 2367.35 -1.30927 -4.00545 0
M  V30 25666 H 2366.02 -0.416176 -3.21013 0
M  V30 25667 H 2364.93 -2.65987 -2.63063 0
M  V30 25668 H 2366.26 -3.48569 -3.47506 0
M  V30 25669 N 2367.92 0.924431 -1.2764 0
M  V30 25670 C 2368.88 2.00703 -1.10684 0
M  V30 25671 C 2369.88 1.60723 -0.0498106 0
M  V30 25672 O 2371.07 1.71689 -0.294684 0
M  V30 25673 C 2368.2 3.33901 -0.687223 0
M  V30 25674 H 2369.39 2.17175 -2.06821 0
M  V30 25675 H 2366.95 1.10567 -1.10475 0
M  V30 25676 H 2367.68 3.23129 0.275382 0
M  V30 25677 H 2367.47 3.64277 -1.45067 0
M  V30 25678 H 2368.96 4.13398 -0.590925 0
M  V30 25679 N 2369.39 1.09715 1.13139 0
M  V30 25680 C 2370.64 0.83337 1.84118 0
M  V30 25681 C 2370.96 -0.642871 1.84098 0
M  V30 25682 O 2370.23 -1.46653 1.29884 0
M  V30 25683 H 2368.81 0.305305 0.681761 0
M  V30 25684 H 2371.48 1.3859 1.37036 0
M  V30 25685 H 2370.57 1.18956 2.88541 0
M  V30 25686 N 2370.87 -1.30419 0.88479 0
M  V30 25687 C 2371.78 -2.31892 0.355439 0
M  V30 25688 C 2372.8 -1.65336 -0.542232 0
M  V30 25689 O 2373.97 -1.96637 -0.435397 0
M  V30 25690 C 2371.04 -3.44127 -0.421601 0
M  V30 25691 C 2370.1 -4.2631 0.505801 0
M  V30 25692 C 2369.33 -5.33186 -0.234249 0
M  V30 25693 O 2369.56 -5.51389 -1.46035 0
M  V30 25694 O 2368.49 -6.00464 0.415548 0
M  V30 25695 H 2372.32 -2.7912 1.1969 0
M  V30 25696 H 2369.9 -1.34586 0.64862 0
M  V30 25697 H 2371.78 -4.12498 -0.861568 0
M  V30 25698 H 2370.46 -2.99034 -1.23936 0
M  V30 25699 H 2369.37 -3.60637 0.994577 0
M  V30 25700 H 2370.7 -4.75006 1.28957 0
M  V30 25701 N 2372.35 -0.645724 -1.43764 0
M  V30 25702 C 2373.26 0.0512544 -2.34544 0
M  V30 25703 C 2374.28 0.820193 -1.53456 0
M  V30 25704 O 2375.45 0.769143 -1.86135 0
M  V30 25705 C 2372.52 1.01081 -3.31638 0
M  V30 25706 C 2371.58 0.239637 -4.28631 0
M  V30 25707 C 2370.81 1.15349 -5.21086 0
M  V30 25708 O 2371.03 2.39259 -5.17794 0
M  V30 25709 O 2369.97 0.629932 -5.98595 0
M  V30 25710 H 2373.79 -0.69577 -2.95623 0
M  V30 25711 H 2371.38 -0.405908 -1.4378 0
M  V30 25712 H 2373.26 1.56247 -3.91363 0
M  V30 25713 H 2371.94 1.73819 -2.73072 0
M  V30 25714 H 2370.84 -0.355422 -3.72408 0
M  V30 25715 H 2372.18 -0.448023 -4.90157 0
M  V30 25716 N 2373.83 1.5277 -0.38717 0
M  V30 25717 C 2375.24 1.59557 -0.0370351 0
M  V30 25718 C 2375.44 1.40127 1.44799 0
M  V30 25719 O 2374.5 1.2172 2.21225 0
M  V30 25720 C 2375.81 2.96304 -0.512308 0
M  V30 25721 C 2377.36 3.09476 -0.468382 0
M  V30 25722 C 2377.84 4.48669 -0.91981 0
M  V30 25723 N 2379.33 4.54846 -0.875736 0
M  V30 25724 C 2380.06 5.60778 -1.19647 0
M  V30 25725 N 2379.56 6.74365 -1.58757 0
M  V30 25726 N 2381.35 5.50872 -1.11786 0
M  V30 25727 H 2373.5 1.63649 -1.35398 0
M  V30 25728 H 2375.77 0.768678 -0.554831 0
M  V30 25729 H 2375.47 3.15732 -1.5494 0
M  V30 25730 H 2375.35 3.77093 0.0897387 0
M  V30 25731 H 2377.73 2.89745 0.55962 0
M  V30 25732 H 2377.81 2.30644 -1.1062 0
M  V30 25733 H 2377.46 4.6914 -1.94603 0
M  V30 25734 H 2377.39 5.25963 -0.25902 0
M  V30 25735 H 2379.88 3.73299 -0.587909 0
M  V30 25736 H 2380.19 7.5116 -1.81599 0
M  V30 25737 H 2378.54 6.75702 -1.62642 0
M  V30 25738 H 2381.73 4.61015 -0.811345 0
M  V30 25739 H 2381.9 6.33328 -1.37114 0
M  V30 25740 N 2375.31 0.116931 1.57166 0
M  V30 25741 C 2376.72 -0.239666 1.5779 0
M  V30 25742 C 2376.92 -1.66865 1.12952 0
M  V30 25743 O 2375.98 -2.38953 0.815962 0
M  V30 25744 C 2377.29 -0.00822916 3.00699 0
M  V30 25745 C 2378.84 -0.0742888 3.12912 0
M  V30 25746 C 2379.31 0.129429 4.57817 0
M  V30 25747 N 2380.81 0.0753284 4.63139 0
M  V30 25748 C 2381.54 0.207888 5.73023 0
M  V30 25749 N 2381.04 0.396504 6.91664 0
M  V30 25750 N 2382.83 0.147609 5.61906 0
M  V30 25751 H 2374.98 1.05033 1.84613 0
M  V30 25752 H 2377.24 0.413425 0.853102 0
M  V30 25753 H 2376.95 0.97959 3.37782 0
M  V30 25754 H 2376.82 -0.741012 3.6985 0
M  V30 25755 H 2379.21 -1.05263 2.75688 0
M  V30 25756 H 2379.29 0.690341 2.46309 0
M  V30 25757 H 2378.94 1.10474 4.9574 0
M  V30 25758 H 2378.87 -0.655161 5.22509 0
M  V30 25759 H 2381.36 -0.0670234 3.77841 0
M  V30 25760 H 2381.67 0.488573 7.71254 0
M  V30 25761 H 2380.01 0.432451 6.93653 0
M  V30 25762 H 2383.21 0.00123264 4.681 0
M  V30 25763 H 2383.38 0.254361 6.47501 0
M  V30 25764 N 2376.78 -1.56818 -0.156836 0
M  V30 25765 C 2378.2 -1.51261 -0.509133 0
M  V30 25766 C 2378.4 -0.82369 -1.83896 0
M  V30 25767 O 2377.46 -0.390099 -2.49468 0
M  V30 25768 C 2378.77 -2.96019 -0.528518 0
M  V30 25769 C 2380.32 -3.06904 -0.614718 0
M  V30 25770 C 2380.79 -4.53149 -0.664858 0
M  V30 25771 N 2382.28 -4.57454 -0.727353 0
M  V30 25772 C 2383.02 -5.67974 -0.786967 0
M  V30 25773 N 2382.51 -6.88089 -0.806528 0
M  V30 25774 N 2384.31 -5.55982 -0.827097 0
M  V30 25775 H 2376.46 -2.00005 0.71497 0
M  V30 25776 H 2378.72 -0.911779 0.259542 0
M  V30 25777 H 2378.43 -3.49639 0.380216 0
M  V30 25778 H 2378.3 -3.51444 -1.36992 0
M  V30 25779 H 2380.69 -2.5331 -1.51387 0
M  V30 25780 H 2380.77 -2.54539 0.253642 0
M  V30 25781 H 2380.41 -5.07379 0.2301 0
M  V30 25782 H 2380.34 -5.03285 -1.54957 0
M  V30 25783 H 2382.83 -3.70979 -0.719933 0
M  V30 25784 H 2383.15 -7.68071 -0.853592 0
M  V30 25785 H 2381.49 -6.9067 -0.774566 0
M  V30 25786 H 2384.68 -4.61058 -0.808917 0
M  V30 25787 H 2384.86 -6.42132 -0.870093 0
M  V30 25788 N 2378.26 0.425871 -1.51737 0
M  V30 25789 C 2379.19 1.53635 -1.70085 0
M  V30 25790 C 2380.21 1.52065 -0.581375 0
M  V30 25791 O 2381.4 1.56634 -0.856044 0
M  V30 25792 C 2378.5 2.92547 -1.71083 0
M  V30 25793 C 2377.67 3.18494 -2.998 0
M  V30 25794 C 2376.73 4.37191 -2.92833 0
M  V30 25795 O 2375.75 4.35285 -3.66764 0
M  V30 25796 N 2376.96 5.4139 -2.0947 0
M  V30 25797 H 2379.72 1.38295 -2.65884 0
M  V30 25798 H 2377.28 0.614962 -1.49766 0
M  V30 25799 H 2379.27 3.69992 -1.63975 0
M  V30 25800 H 2377.84 3.01427 -0.828295 0
M  V30 25801 H 2377.06 2.29244 -3.20688 0
M  V30 25802 H 2378.35 3.32664 -3.84983 0
M  V30 25803 H 2377.75 5.45779 -1.48802 0
M  V30 25804 H 2376.31 6.17643 -2.08232 0
M  V30 25805 N 2379.74 1.42077 0.682052 0
M  V30 25806 C 2380.67 1.4777 1.80793 0
M  V30 25807 C 2381.65 0.334983 1.66769 0
M  V30 25808 O 2382.84 0.548297 1.86299 0
M  V30 25809 C 2379.97 1.37235 3.19036 0
M  V30 25810 C 2378.92 2.49459 3.47785 0
M  V30 25811 C 2378.25 2.23983 4.85526 0
M  V30 25812 C 2379.55 3.91783 3.45404 0
M  V30 25813 H 2381.24 2.42 1.76285 0
M  V30 25814 H 2378.79 1.16477 0.846701 0
M  V30 25815 H 2380.74 1.39828 3.97525 0
M  V30 25816 H 2379.46 0.394964 3.24203 0
M  V30 25817 H 2378.12 2.46171 2.71653 0
M  V30 25818 H 2377.77 1.24556 4.87334 0
M  V30 25819 H 2377.47 2.99193 5.05725 0
M  V30 25820 H 2378.99 2.28314 5.66308 0
M  V30 25821 H 2380.41 3.96712 4.13875 0
M  V30 25822 H 2378.81 4.66784 3.77137 0
M  V30 25823 H 2379.88 4.1897 2.44115 0
M  V30 25824 N 2381.22 -0.917649 1.28129 0
M  V30 25825 C 2382.18 -2.00113 1.11747 0
M  V30 25826 C 2383.18 -1.60694 0.0583334 0
M  V30 25827 O 2384.37 -1.71531 0.303785 0
M  V30 25828 C 2381.5 -3.33532 0.704921 0
M  V30 25829 H 2382.7 -2.16076 2.0797 0
M  V30 25830 H 2380.25 -1.09979 1.1106 0
M  V30 25831 H 2380.99 -3.2327 -0.258242 0
M  V30 25832 H 2380.77 -3.63503 1.46997 0
M  V30 25833 H 2382.26 -4.13079 0.612841 0
M  V30 25834 N 2382.7 -1.10314 -1.12555 0
M  V30 25835 C 2383.64 -0.750819 -2.18246 0
M  V30 25836 C 2384.61 0.272264 -1.63853 0
M  V30 25837 O 2385.8 0.151828 -1.90195 0
M  V30 25838 C 2382.94 -0.18744 -3.44591 0
M  V30 25839 C 2382.05 -1.26567 -4.13043 0
M  V30 25840 C 2381.19 -0.664071 -5.27033 0
M  V30 25841 C 2380.23 -1.72297 -5.8735 0
M  V30 25842 N 2379.36 -1.14173 -6.92755 0
M  V30 25843 H 2384.2 -1.65632 -2.47729 0
M  V30 25844 H 2381.74 -0.827358 -1.21627 0
M  V30 25845 H 2383.7 0.157075 -4.16904 0
M  V30 25846 H 2382.33 0.6813 -3.15528 0
M  V30 25847 H 2381.38 -1.72733 -3.38921 0
M  V30 25848 H 2382.69 -2.06729 -4.53943 0
M  V30 25849 H 2381.85 -0.26893 -6.06104 0
M  V30 25850 H 2380.59 0.168997 -4.87407 0
M  V30 25851 H 2379.59 -2.12755 -5.06967 0
M  V30 25852 H 2380.82 -2.55886 -6.29046 0
M  V30 25853 H 2378.76 -0.330099 -6.55169 0
M  V30 25854 H 2378.68 -1.8802 -7.32246 0
M  V30 25855 H 2379.95 -0.773092 -7.75657 0
M  V30 25856 N 2384.18 1.29948 -0.891694 0
M  V30 25857 C 2385.11 2.26945 -0.320735 0
M  V30 25858 C 2386.12 1.53984 0.52847 0
M  V30 25859 O 2387.31 1.75096 0.346928 0
M  V30 25860 C 2384.41 3.34208 0.562007 0
M  V30 25861 C 2383.58 4.36629 -0.259652 0
M  V30 25862 C 2382.64 5.23269 0.554648 0
M  V30 25863 O 2381.67 5.69194 -0.0250312 0
M  V30 25864 N 2382.87 5.49814 1.8624 0
M  V30 25865 H 2385.63 2.76576 -1.15437 0
M  V30 25866 H 2383.2 1.43199 -0.755361 0
M  V30 25867 H 2385.19 3.89095 1.11297 0
M  V30 25868 H 2383.76 2.84454 1.29632 0
M  V30 25869 H 2382.98 3.81513 -0.992053 0
M  V30 25870 H 2384.27 5.02105 -0.822652 0
M  V30 25871 H 2383.66 5.14296 2.35619 0
M  V30 25872 H 2382.22 6.07549 2.36067 0
M  V30 25873 N 2385.65 0.653339 1.4342 0
M  V30 25874 C 2386.58 -0.0246246 2.33487 0
M  V30 25875 C 2387.56 -0.811837 1.49476 0
M  V30 25876 O 2388.75 -0.773291 1.7814 0
M  V30 25877 C 2385.88 -0.991601 3.32843 0
M  V30 25878 C 2384.83 -0.314493 4.26843 0
M  V30 25879 C 2384.16 -1.39292 5.16238 0
M  V30 25880 C 2385.46 0.793186 5.16242 0
M  V30 25881 H 2387.15 0.727532 2.90426 0
M  V30 25882 H 2384.7 0.351312 1.39649 0
M  V30 25883 H 2386.65 -1.4748 3.9475 0
M  V30 25884 H 2385.38 -1.77492 2.74161 0
M  V30 25885 H 2384.04 0.148264 3.663 0
M  V30 25886 H 2383.68 -2.16768 4.53895 0
M  V30 25887 H 2383.38 -0.945121 5.79949 0
M  V30 25888 H 2384.91 -1.87749 5.81019 0
M  V30 25889 H 2386.32 0.39214 5.71957 0
M  V30 25890 H 2384.72 1.16547 5.88674 0
M  V30 25891 H 2385.79 1.65111 4.55924 0
M  V30 25892 N 2387.13 -1.52563 0.395266 0
M  V30 25893 C 2388.55 -1.59535 0.0454962 0
M  V30 25894 C 2388.75 -1.40893 -1.44054 0
M  V30 25895 O 2387.8 -1.22891 -2.20576 0
M  V30 25896 C 2389.12 -2.96028 0.528015 0
M  V30 25897 C 2390.66 -3.09223 0.484788 0
M  V30 25898 C 2391.14 -4.48174 0.943591 0
M  V30 25899 N 2392.63 -4.54375 0.899845 0
M  V30 25900 C 2393.37 -5.60136 1.22619 0
M  V30 25901 N 2392.86 -6.73514 1.62331 0
M  V30 25902 N 2394.65 -5.50272 1.14706 0
M  V30 25903 H 2386.81 -1.62929 1.36264 0
M  V30 25904 H 2389.07 -0.765725 0.5589 0
M  V30 25905 H 2388.77 -3.14905 1.56612 0
M  V30 25906 H 2388.65 -3.77136 -0.0697393 0
M  V30 25907 H 2391.04 -2.90038 -0.544247 0
M  V30 25908 H 2391.12 -2.30054 1.11842 0
M  V30 25909 H 2390.76 -4.68101 1.97088 0
M  V30 25910 H 2390.69 -5.25818 0.286909 0
M  V30 25911 H 2393.18 -3.72982 0.607697 0
M  V30 25912 H 2393.49 -7.50186 1.8558 0
M  V30 25913 H 2391.84 -6.7483 1.66223 0
M  V30 25914 H 2395.03 -4.60578 0.835782 0
M  V30 25915 H 2395.2 -6.32592 1.40471 0
M  V30 25916 N 2388.61 -0.125265 -1.57101 0
M  V30 25917 C 2389.89 0.575109 -1.86954 0
M  V30 25918 C 2390.27 1.84405 -1.02752 0
M  V30 25919 O 2389.61 2.28244 -0.108184 0
M  V30 25920 C 2389.82 0.861524 -3.38199 0
M  V30 25921 C 2391.17 1.21185 -4.06939 0
M  V30 25922 O 2392.2 0.951585 -3.43254 0
M  V30 25923 O 2391.06 1.70059 -5.19367 0
M  V30 25924 H 2388.15 0.290892 -0.774152 0
M  V30 25925 H 2390.7 -0.16024 -1.68942 0
M  V30 25926 H 2389.47 -0.0374335 -3.91282 0
M  V30 25927 H 2389.09 1.65181 -3.61664 0
M  V30 25928 N 2390.09 1.56899 0.148518 0
M  V30 25929 C 2391.05 1.97246 1.16733 0
M  V30 25930 C 2392.05 0.858801 1.35946 0
M  V30 25931 O 2393.24 1.12545 1.32964 0
M  V30 25932 C 2390.37 2.28709 2.52794 0
M  V30 25933 H 2391.57 2.88437 0.821228 0
M  V30 25934 H 2389.12 1.5131 0.391804 0
M  V30 25935 H 2389.85 1.40305 2.92378 0
M  V30 25936 H 2389.64 3.09906 2.4021 0
M  V30 25937 H 2391.13 2.60768 3.26175 0
M  V30 25938 N 2391.57 -0.417818 1.51961 0
M  V30 25939 C 2392.48 -1.53333 1.77556 0
M  V30 25940 C 2393.49 -1.60969 0.660684 0
M  V30 25941 O 2394.67 -1.77846 0.945131 0
M  V30 25942 C 2391.73 -2.89148 1.91296 0
M  V30 25943 C 2390.79 -2.9147 3.15189 0
M  V30 25944 C 2390.03 -4.20808 3.28263 0
M  V30 25945 O 2390.25 -5.1424 2.46807 0
M  V30 25946 O 2389.18 -4.2981 4.21364 0
M  V30 25947 H 2393.01 -1.34642 2.72223 0
M  V30 25948 H 2390.59 -0.602804 1.36699 0
M  V30 25949 H 2392.48 -3.69717 2.02206 0
M  V30 25950 H 2391.15 -3.07925 0.998183 0
M  V30 25951 H 2390.06 -2.09786 3.09743 0
M  V30 25952 H 2391.39 -2.77641 4.06419 0
M  V30 25953 N 2393.04 -1.42436 -0.674508 0
M  V30 25954 C 2394.29 -1.43133 -1.43669 0
M  V30 25955 C 2394.62 -0.0476362 -1.94142 0
M  V30 25956 O 2393.9 0.928158 -1.70925 0
M  V30 25957 C 2394.18 -2.45598 -2.63351 0
M  V30 25958 C 2394.03 -3.9316 -2.18507 0
M  V30 25959 C 2395.35 -2.45049 -3.65567 0
M  V30 25960 H 2392.47 -0.521207 -0.521068 0
M  V30 25961 H 2395.11 -1.73852 -0.766521 0
M  V30 25962 H 2393.26 -2.19534 -3.20526 0
M  V30 25963 H 2394.94 -4.30205 -1.66497 0
M  V30 25964 H 2393.18 -4.07012 -1.50079 0
M  V30 25965 H 2393.85 -4.60433 -3.04475 0
M  V30 25966 H 2396.33 -2.68228 -3.18108 0
M  V30 25967 H 2395.2 -3.18721 -4.46887 0
M  V30 25968 H 2395.46 -1.47656 -4.16713 0
M  V30 25969 N 2394.52 0.910841 -1.28614 0
M  V30 25970 C 2395.43 2.04678 -1.14647 0
M  V30 25971 C 2396.45 1.7385 -0.0723427 0
M  V30 25972 O 2397.62 1.99413 -0.282213 0
M  V30 25973 C 2394.69 3.37042 -0.812621 0
M  V30 25974 C 2393.75 3.81461 -1.96941 0
M  V30 25975 C 2392.98 5.07508 -1.6514 0
M  V30 25976 O 2393.21 5.67574 -0.567113 0
M  V30 25977 O 2392.14 5.4771 -2.49594 0
M  V30 25978 H 2395.97 2.19381 -2.10014 0
M  V30 25979 H 2393.55 1.03272 -1.0796 0
M  V30 25980 H 2395.43 4.16504 -0.640515 0
M  V30 25981 H 2394.11 3.23508 0.111369 0
M  V30 25982 H 2393.01 3.02814 -2.19669 0
M  V30 25983 H 2394.35 3.99562 -2.87421 0
M  V30 25984 N 2396 1.10909 1.11969 0
M  V30 25985 C 2397.42 0.841876 1.3559 0
M  V30 25986 C 2397.62 -0.536212 1.94234 0
M  V30 25987 O 2396.67 -1.28812 2.17172 0
M  V30 25988 C 2397.99 1.94553 2.29281 0
M  V30 25989 C 2399.53 1.97455 2.42859 0
M  V30 25990 C 2400.01 3.07008 3.39868 0
M  V30 25991 N 2401.5 3.06347 3.47427 0
M  V30 25992 C 2402.23 3.87755 4.22414 0
M  V30 25993 N 2401.73 4.79112 5.00424 0
M  V30 25994 N 2403.52 3.75954 4.1787 0
M  V30 25995 H 2395.67 1.99729 0.722629 0
M  V30 25996 H 2397.94 0.868235 0.38062 0
M  V30 25997 H 2397.64 2.93769 1.93373 0
M  V30 25998 H 2397.52 1.83694 3.29449 0
M  V30 25999 H 2399.9 0.988694 2.78045 0
M  V30 26000 H 2399.99 2.12391 1.42562 0
M  V30 26001 H 2399.63 4.05816 3.0541 0
M  V30 26002 H 2399.56 2.89313 4.40006 0
M  V30 26003 H 2402.05 2.40152 2.9178 0
M  V30 26004 H 2402.36 5.37776 5.54993 0
M  V30 26005 H 2400.71 4.83137 4.99603 0
M  V30 26006 H 2403.9 3.03931 3.56011 0
M  V30 26007 H 2404.07 4.39633 4.76054 0
M  V30 26008 N 2397.48 -1.29474 0.898573 0
M  V30 26009 C 2398.76 -1.90507 0.44345 0
M  V30 26010 C 2399.14 -1.81571 -1.07682 0
M  V30 26011 O 2398.48 -1.2417 -1.91818 0
M  V30 26012 C 2398.69 -3.35629 0.956767 0
M  V30 26013 C 2400.04 -4.12661 0.9998 0
M  V30 26014 O 2401.07 -3.44528 0.904359 0
M  V30 26015 O 2399.92 -5.34414 1.14298 0
M  V30 26016 H 2397.02 -0.815398 0.138039 0
M  V30 26017 H 2399.56 -1.37947 0.988364 0
M  V30 26018 H 2398.34 -3.36283 2.00073 0
M  V30 26019 H 2397.96 -3.95665 0.391798 0
M  V30 26020 N 2398.96 -0.660936 -1.43071 0
M  V30 26021 C 2399.87 0.026375 -2.34585 0
M  V30 26022 C 2400.88 0.80387 -1.54318 0
M  V30 26023 O 2402.06 0.749358 -1.8694 0
M  V30 26024 C 2399.12 0.975581 -3.32691 0
M  V30 26025 C 2398.18 0.194161 -4.28861 0
M  V30 26026 C 2397.42 1.09815 -5.2228 0
M  V30 26027 O 2397.64 2.33754 -5.20303 0
M  V30 26028 O 2396.57 0.566408 -5.99229 0
M  V30 26029 H 2400.4 -0.727085 -2.94868 0
M  V30 26030 H 2397.99 -0.421135 -1.43342 0
M  V30 26031 H 2399.87 1.52087 -3.92998 0
M  V30 26032 H 2398.54 1.70913 -2.74901 0
M  V30 26033 H 2397.45 -0.394901 -3.7201 0
M  V30 26034 H 2398.78 -0.499985 -4.89654 0
M  V30 26035 N 2400.43 1.52351 -0.403352 0
M  V30 26036 C 2401.34 2.30589 0.431969 0
M  V30 26037 C 2402.36 1.38077 1.05881 0
M  V30 26038 O 2403.54 1.7115 1.06158 0
M  V30 26039 C 2400.6 3.10787 1.53664 0
M  V30 26040 C 2399.66 4.19029 0.933451 0
M  V30 26041 C 2398.9 4.95393 1.98548 0
M  V30 26042 O 2399.12 4.71996 3.20274 0
M  V30 26043 O 2398.05 5.80384 1.59493 0
M  V30 26044 H 2401.88 3.03002 -0.205792 0
M  V30 26045 H 2399.46 1.48467 -0.166702 0
M  V30 26046 H 2401.35 3.60746 2.17808 0
M  V30 26047 H 2400.02 2.41173 2.15911 0
M  V30 26048 H 2398.93 3.73231 0.254888 0
M  V30 26049 H 2400.26 4.90918 0.354993 0
M  V30 26050 N 2401.91 0.133594 1.57033 0
M  V30 26051 C 2403.33 -0.222916 1.58036 0
M  V30 26052 C 2403.53 -1.65658 1.14716 0
M  V30 26053 O 2402.58 -2.38074 0.84126 0
M  V30 26054 C 2403.9 0.0236644 3.00691 0
M  V30 26055 C 2405.45 -0.0410961 3.12973 0
M  V30 26056 C 2405.92 0.177979 4.57654 0
M  V30 26057 N 2407.41 0.124446 4.63033 0
M  V30 26058 C 2408.15 0.268653 5.7277 0
M  V30 26059 N 2407.64 0.469842 6.91205 0
M  V30 26060 N 2409.44 0.207199 5.61718 0
M  V30 26061 H 2401.59 1.06985 1.83489 0
M  V30 26062 H 2403.85 0.42245 0.848669 0
M  V30 26063 H 2403.56 1.01536 3.36724 0
M  V30 26064 H 2403.43 -0.701743 3.70615 0
M  V30 26065 H 2405.82 -1.02333 2.76789 0
M  V30 26066 H 2405.9 0.716426 2.45563 0
M  V30 26067 H 2405.54 1.15725 4.9454 0
M  V30 26068 H 2405.47 -0.599705 5.23174 0
M  V30 26069 H 2407.96 -0.0269446 3.7789 0
M  V30 26070 H 2408.28 0.570347 7.70692 0
M  V30 26071 H 2406.62 0.505997 6.93156 0
M  V30 26072 H 2409.81 0.0508808 4.68072 0
M  V30 26073 H 2409.98 0.323023 6.47194 0
M  V30 26074 N 2403.39 -1.56975 -0.140195 0
M  V30 26075 C 2404.34 -1.98776 -1.17289 0
M  V30 26076 C 2405.31 -0.856433 -1.42318 0
M  V30 26077 O 2406.49 -1.11903 -1.54539 0
M  V30 26078 C 2403.63 -2.37927 -2.49969 0
M  V30 26079 C 2402.75 -3.64382 -2.32056 0
M  V30 26080 C 2401.88 -3.92606 -3.57818 0
M  V30 26081 C 2400.92 -5.12309 -3.34971 0
M  V30 26082 N 2400.06 -5.3651 -4.52882 0
M  V30 26083 H 2404.9 -2.86797 -0.809422 0
M  V30 26084 H 2402.43 -1.41885 -0.388212 0
M  V30 26085 H 2404.39 -2.58657 -3.27341 0
M  V30 26086 H 2403.02 -1.52977 -2.8425 0
M  V30 26087 H 2402.07 -3.51389 -1.45704 0
M  V30 26088 H 2403.39 -4.5191 -2.11137 0
M  V30 26089 H 2402.54 -4.13871 -4.43617 0
M  V30 26090 H 2401.28 -3.03513 -3.81748 0
M  V30 26091 H 2400.28 -4.90911 -2.47561 0
M  V30 26092 H 2401.51 -6.02961 -3.12433 0
M  V30 26093 H 2399.45 -4.50372 -4.76971 0
M  V30 26094 H 2399.37 -6.1832 -4.3499 0
M  V30 26095 H 2400.64 -5.62278 -5.39874 0
M  V30 26096 N 2404.87 0.409753 -1.5218 0
M  V30 26097 C 2405.8 1.51822 -1.71705 0
M  V30 26098 C 2406.81 1.5144 -0.597471 0
M  V30 26099 O 2408 1.55717 -0.872609 0
M  V30 26100 C 2405.1 2.90716 -1.74176 0
M  V30 26101 C 2404.28 3.15297 -3.03161 0
M  V30 26102 C 2403.33 4.3406 -2.97453 0
M  V30 26103 O 2402.36 4.3137 -3.7136 0
M  V30 26104 N 2403.56 5.39137 -2.152 0
M  V30 26105 H 2406.33 1.35467 -2.67336 0
M  V30 26106 H 2403.89 0.599043 -1.5041 0
M  V30 26107 H 2405.88 3.68232 -1.6789 0
M  V30 26108 H 2404.45 3.00531 -0.860218 0
M  V30 26109 H 2403.67 2.2583 -3.23101 0
M  V30 26110 H 2404.96 3.28562 -3.8849 0
M  V30 26111 H 2404.36 5.4417 -1.54582 0
M  V30 26112 H 2402.91 6.154 -2.14771 0
M  V30 26113 N 2406.35 1.42792 0.666944 0
M  V30 26114 C 2407.76 1.25891 0.981005 0
M  V30 26115 C 2407.96 0.16873 2.00792 0
M  V30 26116 O 2407.02 -0.457426 2.48322 0
M  V30 26117 C 2408.33 2.61851 1.47833 0
M  V30 26118 C 2409.88 2.6927 1.5957 0
M  V30 26119 C 2410.35 4.05616 2.12697 0
M  V30 26120 N 2411.85 4.0761 2.20019 0
M  V30 26121 C 2412.58 5.09931 2.62218 0
M  V30 26122 N 2412.08 6.22631 3.03813 0
M  V30 26123 N 2413.87 4.97286 2.62036 0
M  V30 26124 H 2406.02 2.12396 -0.0128264 0
M  V30 26125 H 2408.28 0.946296 0.0568091 0
M  V30 26126 H 2407.99 3.42522 0.798239 0
M  V30 26127 H 2407.86 2.86309 2.45574 0
M  V30 26128 H 2410.25 1.8894 2.26684 0
M  V30 26129 H 2410.33 2.48592 0.602976 0
M  V30 26130 H 2409.98 4.86406 1.46189 0
M  V30 26131 H 2409.91 4.2365 3.12775 0
M  V30 26132 H 2412.4 3.26253 1.90702 0
M  V30 26133 H 2412.71 6.96549 3.34722 0
M  V30 26134 H 2411.05 6.26124 3.01651 0
M  V30 26135 H 2414.25 4.08312 2.28908 0
M  V30 26136 H 2414.42 5.7716 2.94603 0
M  V30 26137 N 2407.82 -0.904008 1.29095 0
M  V30 26138 C 2409.05 -1.68764 1.19692 0
M  V30 26139 C 2409.47 -1.87229 -0.24308 0
M  V30 26140 O 2408.82 -1.40624 -1.16324 0
M  V30 26141 C 2408.88 -3.0745 1.90149 0
M  V30 26142 O 2408.6 -2.89832 3.28526 0
M  V30 26143 C 2410.1 -4.01849 1.8717 0
M  V30 26144 H 2407.32 -0.527237 0.415045 0
M  V30 26145 H 2409.86 -1.13079 1.70392 0
M  V30 26146 H 2408.02 -3.59924 1.43296 0
M  V30 26147 H 2408.43 -3.77677 3.63951 0
M  V30 26148 H 2409.9 -4.96592 2.41041 0
M  V30 26149 H 2410.38 -4.3097 0.846246 0
M  V30 26150 H 2410.99 -3.55306 2.33747 0
M  V30 26151 N 2409.3 -1.11501 -1.11379 0
M  V30 26152 C 2410.23 -0.796163 -2.19507 0
M  V30 26153 C 2411.21 0.235766 -1.68458 0
M  V30 26154 O 2412.4 0.0991003 -1.93947 0
M  V30 26155 C 2409.53 -0.239266 -3.46475 0
M  V30 26156 C 2408.48 -1.20314 -4.10741 0
M  V30 26157 C 2407.81 -0.506924 -5.32292 0
M  V30 26158 C 2409.11 -2.55407 -4.55593 0
M  V30 26159 H 2410.8 -1.70028 -2.46436 0
M  V30 26160 H 2408.35 -0.818956 -1.18445 0
M  V30 26161 H 2410.3 -0.00399414 -4.214 0
M  V30 26162 H 2409.03 0.70015 -3.19007 0
M  V30 26163 H 2407.68 -1.42405 -3.37811 0
M  V30 26164 H 2407.33 0.43732 -5.01095 0
M  V30 26165 H 2407.03 -1.1498 -5.76241 0
M  V30 26166 H 2408.56 -0.280459 -6.09956 0
M  V30 26167 H 2409.97 -2.374 -5.21837 0
M  V30 26168 H 2408.37 -3.15682 -5.10358 0
M  V30 26169 H 2409.44 -3.14581 -3.69007 0
M  V30 26170 N 2410.78 1.28995 -0.905426 0
M  V30 26171 C 2411.74 2.25818 -0.392292 0
M  V30 26172 C 2412.74 1.53571 0.476726 0
M  V30 26173 O 2413.93 1.71919 0.280964 0
M  V30 26174 C 2411.07 3.38068 0.438528 0
M  V30 26175 H 2412.26 2.72723 -1.24748 0
M  V30 26176 H 2409.81 1.40535 -0.684076 0
M  V30 26177 H 2410.55 2.96511 1.31347 0
M  V30 26178 H 2410.33 3.91667 -0.184235 0
M  V30 26179 H 2411.82 4.10085 0.788658 0
M  V30 26180 N 2412.26 0.668514 1.42719 0
M  V30 26181 C 2413.51 0.188454 2.01922 0
M  V30 26182 C 2413.84 -1.19976 1.52707 0
M  V30 26183 O 2413.11 -1.80418 0.726597 0
M  V30 26184 C 2413.4 0.216148 3.59451 0
M  V30 26185 C 2413.25 1.63937 4.18861 0
M  V30 26186 C 2414.57 -0.439102 4.37904 0
M  V30 26187 H 2411.69 0.0699541 0.733673 0
M  V30 26188 H 2414.33 0.852106 1.69821 0
M  V30 26189 H 2412.48 -0.348944 3.8693 0
M  V30 26190 H 2414.15 2.25623 4.02358 0
M  V30 26191 H 2412.39 2.18199 3.74929 0
M  V30 26192 H 2413.07 1.61048 5.27984 0
M  V30 26193 H 2415.54 0.0418609 4.16079 0
M  V30 26194 H 2414.42 -0.389061 5.47519 0
M  V30 26195 H 2414.68 -1.5157 4.15306 0
M  V30 26196 N 2413.74 -1.52135 0.411426 0
M  V30 26197 C 2414.7 -2.25664 -0.401049 0
M  V30 26198 C 2415.7 -1.28119 -0.97171 0
M  V30 26199 O 2416.89 -1.52042 -0.850227 0
M  V30 26200 C 2414.02 -3.02866 -1.56477 0
M  V30 26201 H 2415.22 -2.98914 0.243003 0
M  V30 26202 H 2412.77 -1.55437 0.163995 0
M  V30 26203 H 2413.5 -2.33971 -2.24562 0
M  V30 26204 H 2413.29 -3.74485 -1.16204 0
M  V30 26205 H 2414.78 -3.58633 -2.13945 0
M  V30 26206 N 2415.22 -0.14192 -1.5696 0
M  V30 26207 C 2416.18 0.785549 -2.15318 0
M  V30 26208 C 2417.18 1.17878 -1.09368 0
M  V30 26209 O 2418.37 1.10053 -1.35033 0
M  V30 26210 C 2415.5 2.06532 -2.71214 0
M  V30 26211 H 2416.69 0.277988 -2.98609 0
M  V30 26212 H 2414.25 0.107491 -1.5593 0
M  V30 26213 H 2414.98 2.61667 -1.91575 0
M  V30 26214 H 2414.77 1.79262 -3.48723 0
M  V30 26215 H 2416.26 2.72784 -3.16194 0
M  V30 26216 N 2416.69 1.57047 0.131868 0
M  V30 26217 C 2418.11 1.52052 0.485005 0
M  V30 26218 C 2418.31 0.852842 1.82562 0
M  V30 26219 O 2417.37 0.429738 2.48816 0
M  V30 26220 C 2418.68 2.96822 0.481357 0
M  V30 26221 C 2420.23 3.07843 0.565814 0
M  V30 26222 C 2420.7 4.54149 0.592682 0
M  V30 26223 N 2422.19 4.58553 0.654484 0
M  V30 26224 C 2422.93 5.69154 0.696508 0
M  V30 26225 N 2422.42 6.89285 0.696957 0
M  V30 26226 N 2424.22 5.57227 0.738541 0
M  V30 26227 H 2416.37 1.98842 -0.746699 0
M  V30 26228 H 2418.63 0.907535 -0.274015 0
M  V30 26229 H 2418.34 3.4899 -0.435792 0
M  V30 26230 H 2418.21 3.53579 1.31384 0
M  V30 26231 H 2420.6 2.55686 1.47338 0
M  V30 26232 H 2420.68 2.54104 -0.294105 0
M  V30 26233 H 2420.32 5.06948 -0.31079 0
M  V30 26234 H 2420.25 5.05687 1.4693 0
M  V30 26235 H 2422.74 3.72077 0.660822 0
M  V30 26236 H 2423.06 7.69332 0.731291 0
M  V30 26237 H 2421.4 6.91815 0.664588 0
M  V30 26238 H 2424.59 4.62286 0.735464 0
M  V30 26239 H 2424.77 6.43435 0.767825 0
M  V30 26240 N 2418.17 -0.401677 1.52395 0
M  V30 26241 C 2419.12 -1.48988 1.7627 0
M  V30 26242 C 2420.09 -1.54674 0.605413 0
M  V30 26243 O 2421.27 -1.71129 0.843772 0
M  V30 26244 C 2418.41 -2.86357 1.92597 0
M  V30 26245 C 2417.53 -2.89922 3.20264 0
M  V30 26246 C 2416.66 -4.18638 3.2698 0
M  V30 26247 C 2415.7 -4.16206 4.48819 0
M  V30 26248 N 2414.84 -5.36506 4.52886 0
M  V30 26249 H 2419.68 -1.2793 2.69143 0
M  V30 26250 H 2417.21 -0.620847 1.33356 0
M  V30 26251 H 2419.17 -3.66111 2.00046 0
M  V30 26252 H 2417.8 -3.05893 1.03098 0
M  V30 26253 H 2416.85 -2.02615 3.21949 0
M  V30 26254 H 2418.17 -2.83991 4.10061 0
M  V30 26255 H 2417.32 -5.06789 3.33542 0
M  V30 26256 H 2416.06 -4.27274 2.35134 0
M  V30 26257 H 2415.06 -3.26445 4.42395 0
M  V30 26258 H 2416.29 -4.09204 5.41968 0
M  V30 26259 H 2414.24 -5.45796 3.63927 0
M  V30 26260 H 2414.15 -5.326 5.36538 0
M  V30 26261 H 2415.42 -6.26589 4.63688 0
M  V30 26262 N 2419.65 -1.43144 -0.659362 0
M  V30 26263 C 2420.6 -1.47825 -1.77246 0
M  V30 26264 C 2421.57 -0.328587 -1.62817 0
M  V30 26265 O 2422.75 -0.534871 -1.8315 0
M  V30 26266 C 2419.89 -1.40131 -3.15368 0
M  V30 26267 C 2419 -2.65255 -3.40975 0
M  V30 26268 C 2418.14 -2.49593 -4.6891 0
M  V30 26269 C 2417.18 -3.70015 -4.87602 0
M  V30 26270 N 2416.32 -3.532 -6.0679 0
M  V30 26271 H 2421.16 -2.42941 -1.7258 0
M  V30 26272 H 2418.69 -1.20599 -0.842275 0
M  V30 26273 H 2420.65 -1.33666 -3.95208 0
M  V30 26274 H 2419.28 -0.48602 -3.1912 0
M  V30 26275 H 2418.33 -2.82025 -2.55277 0
M  V30 26276 H 2419.64 -3.54724 -3.50674 0
M  V30 26277 H 2418.8 -2.408 -5.56866 0
M  V30 26278 H 2417.54 -1.57638 -4.61521 0
M  V30 26279 H 2416.54 -3.79222 -3.98083 0
M  V30 26280 H 2417.77 -4.6297 -4.96826 0
M  V30 26281 H 2415.71 -2.63975 -6.00544 0
M  V30 26282 H 2415.63 -4.36266 -6.1742 0
M  V30 26283 H 2416.9 -3.48248 -6.97383 0
M  V30 26284 N 2421.13 0.897149 -1.29572 0
M  V30 26285 C 2422.06 2.01796 -1.17476 0
M  V30 26286 C 2423.04 1.69963 -0.0683529 0
M  V30 26287 O 2424.22 1.92606 -0.248273 0
M  V30 26288 C 2421.35 3.36658 -0.853158 0
M  V30 26289 C 2420.31 3.8271 -1.91617 0
M  V30 26290 C 2419.63 5.14726 -1.44782 0
M  V30 26291 C 2420.93 4.02757 -3.32542 0
M  V30 26292 H 2422.63 2.12174 -2.11241 0
M  V30 26293 H 2420.17 1.01946 -1.01701 0
M  V30 26294 H 2422.13 4.14577 -0.755238 0
M  V30 26295 H 2420.85 3.26379 0.120179 0
M  V30 26296 H 2419.51 3.07009 -2.00352 0
M  V30 26297 H 2419.16 5.00864 -0.463083 0
M  V30 26298 H 2418.86 5.46509 -2.15875 0
M  V30 26299 H 2420.38 5.95183 -1.36345 0
M  V30 26300 H 2421.8 4.71151 -3.26634 0
M  V30 26301 H 2420.19 4.45898 -4.01615 0
M  V30 26302 H 2421.26 3.07009 -3.75331 0
M  V30 26303 N 2422.61 1.1209 1.10786 0
M  V30 26304 C 2423.52 0.798377 2.20597 0
M  V30 26305 C 2424.53 -0.21132 1.72712 0
M  V30 26306 O 2425.71 -0.0458123 2.01348 0
M  V30 26307 C 2422.77 0.253734 3.4577 0
M  V30 26308 C 2421.83 1.3229 4.08409 0
M  V30 26309 C 2421.07 0.804153 5.27607 0
M  V30 26310 O 2421.29 -0.363378 5.69241 0
M  V30 26311 O 2420.22 1.57208 5.81007 0
M  V30 26312 H 2424.05 1.71545 2.50611 0
M  V30 26313 H 2421.63 0.897296 1.19453 0
M  V30 26314 H 2423.52 -0.045295 4.21376 0
M  V30 26315 H 2422.19 -0.635949 3.17392 0
M  V30 26316 H 2421.1 1.67505 3.34504 0
M  V30 26317 H 2422.43 2.18622 4.40982 0
M  V30 26318 N 2424.08 -1.28513 0.912254 0
M  V30 26319 C 2425.33 -1.94653 0.543557 0
M  V30 26320 C 2425.65 -1.72175 -0.91547 0
M  V30 26321 O 2424.92 -1.06061 -1.64706 0
M  V30 26322 H 2423.5 -0.720273 0.19803 0
M  V30 26323 H 2426.16 -1.56525 1.16129 0
M  V30 26324 H 2425.26 -3.0328 0.736738 0
M  V30 26325 N 2425.56 -0.676073 -1.42362 0
M  V30 26326 C 2426.47 0.00149265 -2.346 0
M  V30 26327 C 2427.49 0.787458 -1.55162 0
M  V30 26328 O 2428.66 0.729488 -1.87724 0
M  V30 26329 C 2425.73 0.940239 -3.33707 0
M  V30 26330 C 2424.79 0.148664 -4.29043 0
M  V30 26331 C 2424.02 1.0427 -5.23415 0
M  V30 26332 O 2424.25 2.28222 -5.22753 0
M  V30 26333 O 2423.18 0.50282 -5.99796 0
M  V30 26334 H 2427.01 -0.758319 -2.9408 0
M  V30 26335 H 2424.59 -0.436314 -1.42887 0
M  V30 26336 H 2426.47 1.4791 -3.94589 0
M  V30 26337 H 2425.15 1.67988 -2.76698 0
M  V30 26338 H 2424.06 -0.434335 -3.7157 0
M  V30 26339 H 2425.39 -0.551891 -4.89096 0
M  V30 26340 N 2427.04 1.51915 -0.419488 0
M  V30 26341 C 2427.97 2.3019 0.391772 0
M  V30 26342 C 2428.95 1.34837 1.03696 0
M  V30 26343 O 2430.14 1.6375 1.04401 0
M  V30 26344 C 2427.27 3.1309 1.50306 0
M  V30 26345 C 2426.22 4.16575 0.982327 0
M  V30 26346 C 2425.55 4.87884 2.18801 0
M  V30 26347 C 2426.85 5.22292 0.0291438 0
M  V30 26348 H 2428.54 2.98257 -0.261402 0
M  V30 26349 H 2426.09 1.43437 -0.127159 0
M  V30 26350 H 2428.04 3.66621 2.07767 0
M  V30 26351 H 2426.76 2.42811 2.18427 0
M  V30 26352 H 2425.42 3.64069 0.430055 0
M  V30 26353 H 2425.07 4.14124 2.855 0
M  V30 26354 H 2424.77 5.57848 1.84605 0
M  V30 26355 H 2426.29 5.44231 2.76848 0
M  V30 26356 H 2427.71 5.71001 0.512875 0
M  V30 26357 H 2426.11 5.9968 -0.224505 0
M  V30 26358 H 2427.18 4.76227 -0.913015 0
M  V30 26359 N 2428.52 0.150242 1.56882 0
M  V30 26360 C 2429.43 -0.801184 2.20495 0
M  V30 26361 C 2430.44 -1.26925 1.19021 0
M  V30 26362 O 2431.62 -1.32576 1.5161 0
M  V30 26363 C 2428.69 -2.02156 2.81662 0
M  V30 26364 C 2427.75 -1.60242 3.98273 0
M  V30 26365 C 2426.98 -2.76462 4.56513 0
M  V30 26366 O 2427.2 -3.92764 4.13634 0
M  V30 26367 O 2426.14 -2.51748 5.46724 0
M  V30 26368 H 2429.96 -0.289664 3.02315 0
M  V30 26369 H 2427.55 -0.0769422 1.49202 0
M  V30 26370 H 2429.43 -2.7357 3.20527 0
M  V30 26371 H 2428.1 -2.52254 2.02853 0
M  V30 26372 H 2427.01 -0.858413 3.64118 0
M  V30 26373 H 2428.34 -1.14856 4.78611 0
M  V30 26374 N 2430 -1.57115 -0.123538 0
M  V30 26375 C 2430.91 -2.03302 -1.1707 0
M  V30 26376 C 2431.92 -0.952585 -1.45608 0
M  V30 26377 O 2433.1 -1.26377 -1.56815 0
M  V30 26378 C 2430.16 -2.42425 -2.47852 0
M  V30 26379 C 2429.22 -3.6453 -2.26752 0
M  V30 26380 C 2428.46 -4.01778 -3.51298 0
M  V30 26381 O 2428.68 -3.39417 -4.58424 0
M  V30 26382 O 2427.61 -4.94904 -3.42569 0
M  V30 26383 H 2431.44 -2.9274 -0.808504 0
M  V30 26384 H 2429.03 -1.45619 -0.334001 0
M  V30 26385 H 2430.91 -2.68344 -3.24915 0
M  V30 26386 H 2429.58 -1.56135 -2.83555 0
M  V30 26387 H 2428.49 -3.43767 -1.47563 0
M  V30 26388 H 2429.82 -4.51511 -1.95955 0
M  V30 26389 N 2431.47 0.393589 -1.52606 0
M  V30 26390 C 2432.4 1.48705 -1.80025 0
M  V30 26391 C 2433.39 1.57107 -0.652023 0
M  V30 26392 O 2434.57 1.7213 -0.899161 0
M  V30 26393 C 2431.7 2.86367 -1.96497 0
M  V30 26394 C 2430.65 2.92808 -3.12166 0
M  V30 26395 C 2429.98 4.32874 -3.13885 0
M  V30 26396 C 2431.28 2.62872 -4.51326 0
M  V30 26397 H 2432.97 1.2601 -2.71591 0
M  V30 26398 H 2430.52 0.604755 -1.30686 0
M  V30 26399 H 2432.47 3.62864 -2.14261 0
M  V30 26400 H 2431.2 3.1039 -1.01616 0
M  V30 26401 H 2429.86 2.18759 -2.94177 0
M  V30 26402 H 2429.5 4.5393 -2.16695 0
M  V30 26403 H 2429.2 4.38105 -3.91583 0
M  V30 26404 H 2430.73 5.11284 -3.33798 0
M  V30 26405 H 2432.14 3.29088 -4.6944 0
M  V30 26406 H 2430.54 2.79459 -5.31058 0
M  V30 26407 H 2431.61 1.58234 -4.58356 0
M  V30 26408 N 2432.95 1.43492 0.651762 0
M  V30 26409 C 2433.9 1.48763 1.7646 0
M  V30 26410 C 2434.87 0.337217 1.62641 0
M  V30 26411 O 2436.05 0.544576 1.82863 0
M  V30 26412 C 2433.19 1.41802 3.14621 0
M  V30 26413 C 2432.31 2.67059 3.39563 0
M  V30 26414 C 2431.44 2.52076 4.6758 0
M  V30 26415 C 2430.48 3.72595 4.85633 0
M  V30 26416 N 2429.62 3.56413 6.04908 0
M  V30 26417 H 2434.46 2.43852 1.71289 0
M  V30 26418 H 2432 1.21044 0.835868 0
M  V30 26419 H 2433.95 1.3576 3.94494 0
M  V30 26420 H 2432.58 0.502936 3.18858 0
M  V30 26421 H 2431.64 2.83374 2.53778 0
M  V30 26422 H 2432.95 3.56578 3.48788 0
M  V30 26423 H 2432.1 2.4375 5.55582 0
M  V30 26424 H 2430.84 1.60084 4.60678 0
M  V30 26425 H 2429.85 3.81328 3.96067 0
M  V30 26426 H 2431.07 4.65598 4.94364 0
M  V30 26427 H 2429.02 2.67156 5.99136 0
M  V30 26428 H 2428.93 4.39534 6.15098 0
M  V30 26429 H 2430.2 3.51941 6.95527 0
M  V30 26430 N 2434.43 -0.890264 1.30046 0
M  V30 26431 C 2435.39 -1.97698 1.15967 0
M  V30 26432 C 2436.39 -1.60534 0.0924059 0
M  V30 26433 O 2437.58 -1.70848 0.340101 0
M  V30 26434 C 2434.72 -3.31962 0.775509 0
M  V30 26435 H 2435.91 -2.11616 2.12506 0
M  V30 26436 H 2433.46 -1.07599 1.13367 0
M  V30 26437 H 2434.2 -3.23745 -0.189614 0
M  V30 26438 H 2433.98 -3.60303 1.54674 0
M  V30 26439 H 2435.47 -4.11686 0.700323 0
M  V30 26440 N 2435.91 -1.12676 -1.1019 0
M  V30 26441 C 2436.84 -0.754739 -2.16417 0
M  V30 26442 C 2437.85 0.219832 -1.61309 0
M  V30 26443 O 2439.04 0.000795465 -1.785 0
M  V30 26444 C 2436.14 -0.0967576 -3.38762 0
M  V30 26445 C 2435.32 -1.10144 -4.23305 0
M  V30 26446 C 2434.37 -0.470605 -5.24091 0
M  V30 26447 O 2433.4 -1.12834 -5.57904 0
M  V30 26448 N 2434.6 0.760847 -5.75492 0
M  V30 26449 H 2437.37 -1.66879 -2.4894 0
M  V30 26450 H 2434.93 -1.01871 -1.25833 0
M  V30 26451 H 2436.92 0.337313 -4.03292 0
M  V30 26452 H 2435.49 0.720099 -3.04193 0
M  V30 26453 H 2434.71 -1.71305 -3.55033 0
M  V30 26454 H 2436 -1.78072 -4.76621 0
M  V30 26455 H 2435.4 1.31414 -5.50224 0
M  V30 26456 H 2433.95 1.1377 -6.41794 0
M  V30 26457 N 2437.39 1.28028 -0.919057 0
M  V30 26458 C 2438.32 2.25407 -0.355926 0
M  V30 26459 C 2439.3 1.53271 0.542847 0
M  V30 26460 O 2440.48 1.82146 0.485306 0
M  V30 26461 C 2437.61 3.35127 0.490701 0
M  V30 26462 C 2436.65 4.25115 -0.343432 0
M  V30 26463 S 2437.49 5.05976 -1.75353 0
M  V30 26464 C 2438.64 6.19185 -0.914352 0
M  V30 26465 H 2438.88 2.72824 -1.18128 0
M  V30 26466 H 2436.41 1.3655 -0.72066 0
M  V30 26467 H 2438.37 3.98794 0.973334 0
M  V30 26468 H 2437.03 2.86365 1.29049 0
M  V30 26469 H 2436.22 5.03081 0.304177 0
M  V30 26470 H 2435.82 3.66198 -0.759916 0
M  V30 26471 H 2438.12 6.77342 -0.146401 0
M  V30 26472 H 2439.06 6.88205 -1.66673 0
M  V30 26473 H 2439.47 5.62621 -0.460181 0
M  V30 26474 N 2438.86 0.683613 1.42002 0
M  V30 26475 C 2439.83 0.0198645 2.29191 0
M  V30 26476 C 2440.83 -0.720105 1.43775 0
M  V30 26477 O 2442.02 -0.556786 1.65062 0
M  V30 26478 C 2439.15 -0.98243 3.26437 0
M  V30 26479 H 2440.34 0.787396 2.89379 0
M  V30 26480 H 2437.9 0.446445 1.49788 0
M  V30 26481 H 2438.63 -1.77814 2.71206 0
M  V30 26482 H 2438.42 -0.455113 3.8945 0
M  V30 26483 H 2439.91 -1.44501 3.91803 0
M  V30 26484 N 2440.34 -1.5169 0.427538 0
M  V30 26485 C 2441.57 -2.06903 -0.143565 0
M  V30 26486 C 2441.99 -1.29384 -1.36533 0
M  V30 26487 O 2441.35 -0.329074 -1.78289 0
M  V30 26488 C 2441.4 -3.57729 -0.454144 0
M  V30 26489 O 2440.5 -3.82478 -1.54222 0
M  V30 26490 H 2439.84 -0.663971 -0.00615961 0
M  V30 26491 H 2442.37 -1.95418 0.606048 0
M  V30 26492 H 2442.38 -4.0182 -0.707455 0
M  V30 26493 H 2441.06 -4.13578 0.438885 0
M  V30 26494 H 2439.64 -3.50257 -1.27963 0
M  V30 26495 N 2441.82 -0.15856 -1.568 0
M  V30 26496 C 2442.78 0.762667 -2.16139 0
M  V30 26497 C 2443.78 1.16711 -1.10612 0
M  V30 26498 O 2444.97 1.08615 -1.36193 0
M  V30 26499 C 2442.11 2.03644 -2.7339 0
M  V30 26500 H 2443.3 0.246301 -2.98887 0
M  V30 26501 H 2440.85 0.090947 -1.56035 0
M  V30 26502 H 2441.59 2.5962 -1.9434 0
M  V30 26503 H 2441.37 1.75553 -3.50604 0
M  V30 26504 H 2442.86 2.69415 -3.1907 0
M  V30 26505 N 2443.3 1.57178 0.115204 0
M  V30 26506 C 2444.55 1.84686 0.820694 0
M  V30 26507 C 2444.87 0.74431 1.80236 0
M  V30 26508 O 2444.14 -0.231341 1.94529 0
M  V30 26509 H 2442.72 0.681417 0.306072 0
M  V30 26510 H 2445.38 1.94635 0.101622 0
M  V30 26511 H 2444.48 2.80735 1.36361 0
M  V30 26512 N 2444.78 -0.38549 1.52813 0
M  V30 26513 C 2445.71 -1.49071 1.74099 0
M  V30 26514 C 2446.72 -1.5047 0.621489 0
M  V30 26515 O 2447.91 -1.54309 0.897272 0
M  V30 26516 C 2445.01 -2.87908 1.78779 0
M  V30 26517 C 2444.18 -3.10434 3.08139 0
M  V30 26518 C 2443.24 -4.29273 3.04321 0
M  V30 26519 O 2442.27 -4.25408 3.78176 0
M  V30 26520 N 2443.47 -5.35646 2.2375 0
M  V30 26521 H 2446.24 -1.31197 2.69458 0
M  V30 26522 H 2443.8 -0.575038 1.51344 0
M  V30 26523 H 2445.79 -3.65515 1.73727 0
M  V30 26524 H 2444.36 -2.99125 0.907921 0
M  V30 26525 H 2443.58 -2.20661 3.26653 0
M  V30 26526 H 2444.87 -3.2234 3.93668 0
M  V30 26527 H 2444.27 -5.41642 1.6322 0
M  V30 26528 H 2442.82 -6.11905 2.24534 0
M  V30 26529 N 2446.26 -1.43835 -0.644143 0
M  V30 26530 C 2447.5 -1.45644 -1.40115 0
M  V30 26531 C 2447.82 -0.0852755 -1.94813 0
M  V30 26532 O 2447.09 0.880657 -1.74989 0
M  V30 26533 H 2445.67 -0.536253 -0.520041 0
M  V30 26534 H 2448.34 -1.79511 -0.759069 0
M  V30 26535 H 2447.43 -2.17431 -2.23898 0
M  V30 26536 N 2447.73 0.883355 -1.30517 0
M  V30 26537 C 2448.68 1.98925 -1.17036 0
M  V30 26538 C 2449.65 1.65994 -0.0594533 0
M  V30 26539 O 2450.84 1.8941 -0.229929 0
M  V30 26540 C 2447.98 3.33958 -0.869835 0
M  V30 26541 C 2447.09 3.7957 -2.06278 0
M  V30 26542 C 2446.22 5.03256 -1.7002 0
M  V30 26543 C 2445.26 5.41281 -2.858 0
M  V30 26544 N 2444.4 6.56148 -2.49828 0
M  V30 26545 H 2449.24 2.09788 -2.11644 0
M  V30 26546 H 2446.78 1.02717 -1.05297 0
M  V30 26547 H 2448.73 4.11683 -0.676211 0
M  V30 26548 H 2447.36 3.22776 0.0393764 0
M  V30 26549 H 2446.42 2.9774 -2.3676 0
M  V30 26550 H 2447.73 4.03689 -2.92979 0
M  V30 26551 H 2446.88 5.88612 -1.47042 0
M  V30 26552 H 2445.62 4.81012 -0.804913 0
M  V30 26553 H 2444.63 4.54451 -3.09442 0
M  V30 26554 H 2445.85 5.65497 -3.76018 0
M  V30 26555 H 2443.8 6.35476 -1.62806 0
M  V30 26556 H 2443.71 6.80145 -3.3006 0
M  V30 26557 H 2444.98 7.44731 -2.3021 0
M  V30 26558 N 2449.21 1.13259 1.09591 0
M  V30 26559 C 2450.12 0.82173 2.19738 0
M  V30 26560 C 2451.14 -0.19299 1.72926 0
M  V30 26561 O 2452.31 -0.0244541 2.01385 0
M  V30 26562 C 2449.38 0.290394 3.45482 0
M  V30 26563 C 2448.44 1.36614 4.06983 0
M  V30 26564 C 2447.67 0.860067 5.26724 0
M  V30 26565 O 2447.9 -0.302981 5.69595 0
M  V30 26566 O 2446.83 1.63362 5.79307 0
M  V30 26567 H 2450.66 1.74193 2.48778 0
M  V30 26568 H 2448.24 0.909915 1.18494 0
M  V30 26569 H 2450.12 -0.00059995 4.214 0
M  V30 26570 H 2448.8 -0.60225 3.18048 0
M  V30 26571 H 2447.7 1.71043 3.32709 0
M  V30 26572 H 2449.04 2.23287 4.38639 0
M  V30 26573 N 2450.69 -1.27539 0.925834 0
M  V30 26574 C 2451.6 -2.30644 0.429034 0
M  V30 26575 C 2452.62 -1.66977 -0.489358 0
M  V30 26576 O 2453.79 -1.97923 -0.372618 0
M  V30 26577 C 2450.86 -3.45294 -0.311906 0
M  V30 26578 C 2449.92 -4.24485 0.641173 0
M  V30 26579 C 2449.15 -5.33661 -0.0645016 0
M  V30 26580 O 2449.37 -5.55756 -1.28419 0
M  V30 26581 O 2448.31 -5.98838 0.606371 0
M  V30 26582 H 2452.13 -2.75171 1.28509 0
M  V30 26583 H 2449.72 -1.32454 0.691109 0
M  V30 26584 H 2451.6 -4.15031 -0.729899 0
M  V30 26585 H 2450.28 -3.02826 -1.1436 0
M  V30 26586 H 2449.18 -3.5729 1.10881 0
M  V30 26587 H 2450.52 -4.70663 1.44003 0
M  V30 26588 N 2452.17 -0.691135 -1.41637 0
M  V30 26589 C 2453.13 -0.0320188 -2.29178 0
M  V30 26590 C 2454.13 0.71247 -1.44154 0
M  V30 26591 O 2455.32 0.548024 -1.65355 0
M  V30 26592 C 2452.45 0.965104 -3.26953 0
M  V30 26593 H 2453.65 -0.802732 -2.88957 0
M  V30 26594 H 2451.2 -0.454382 -1.4955 0
M  V30 26595 H 2451.93 1.76374 -2.72145 0
M  V30 26596 H 2451.72 0.434454 -3.89686 0
M  V30 26597 H 2453.21 1.42421 -3.92563 0
M  V30 26598 N 2453.65 1.51461 -0.435577 0
M  V30 26599 C 2454.89 2.02372 0.131673 0
M  V30 26600 C 2455.22 1.31922 1.42514 0
M  V30 26601 O 2454.5 0.433606 1.89605 0
M  V30 26602 C 2454.78 3.58373 0.352238 0
M  V30 26603 C 2454.64 4.39441 -0.959754 0
M  V30 26604 C 2455.95 4.25537 1.12279 0
M  V30 26605 H 2453.07 0.735539 0.0463807 0
M  V30 26606 H 2455.72 1.81115 -0.574229 0
M  V30 26607 H 2453.87 3.76616 0.953534 0
M  V30 26608 H 2455.54 4.32852 -1.5949 0
M  V30 26609 H 2453.78 4.04596 -1.56475 0
M  V30 26610 H 2454.45 5.4675 -0.75949 0
M  V30 26611 H 2456.93 4.11553 0.613473 0
M  V30 26612 H 2455.8 5.34574 1.24588 0
M  V30 26613 H 2456.06 3.86277 2.15041 0
M  V30 26614 N 2455.12 0.166873 1.56714 0
M  V30 26615 C 2456.07 -0.765154 2.17748 0
M  V30 26616 C 2457.04 -1.23009 1.11616 0
M  V30 26617 O 2458.23 -1.29905 1.39747 0
M  V30 26618 C 2455.37 -1.99085 2.81885 0
M  V30 26619 C 2454.48 -1.5699 4.02465 0
M  V30 26620 C 2453.61 -2.74892 4.54542 0
M  V30 26621 C 2452.65 -2.29265 5.67542 0
M  V30 26622 N 2451.79 -3.40245 6.14148 0
M  V30 26623 H 2456.63 -0.237899 2.97049 0
M  V30 26624 H 2454.17 -0.105699 1.4672 0
M  V30 26625 H 2456.13 -2.70968 3.17225 0
M  V30 26626 H 2454.76 -2.49188 2.05195 0
M  V30 26627 H 2453.81 -0.747971 3.72974 0
M  V30 26628 H 2455.12 -1.19495 4.84275 0
M  V30 26629 H 2454.27 -3.54938 4.92041 0
M  V30 26630 H 2453.01 -3.15644 3.7178 0
M  V30 26631 H 2452.02 -1.47664 5.29599 0
M  V30 26632 H 2453.24 -1.89576 6.52103 0
M  V30 26633 H 2451.19 -3.80581 5.34317 0
M  V30 26634 H 2451.11 -3.06828 6.90936 0
M  V30 26635 H 2452.37 -4.20589 6.56297 0
M  V30 26636 N 2456.6 -1.57237 -0.106866 0
M  V30 26637 C 2457.53 -1.97887 -1.15643 0
M  V30 26638 C 2458.55 -0.879803 -1.36979 0
M  V30 26639 O 2459.74 -1.15801 -1.35839 0
M  V30 26640 C 2456.84 -2.27246 -2.51421 0
M  V30 26641 C 2456.01 -3.58549 -2.50522 0
M  V30 26642 C 2455.07 -3.7598 -3.68138 0
M  V30 26643 O 2454.09 -4.47962 -3.51168 0
M  V30 26644 N 2455.3 -3.15665 -4.87171 0
M  V30 26645 H 2458.06 -2.88531 -0.81054 0
M  V30 26646 H 2455.62 -1.59171 -0.295996 0
M  V30 26647 H 2457.61 -2.36111 -3.28685 0
M  V30 26648 H 2456.18 -1.42668 -2.78145 0
M  V30 26649 H 2455.4 -3.60761 -1.58887 0
M  V30 26650 H 2456.69 -4.4483 -2.46989 0
M  V30 26651 H 2456.09 -2.57174 -5.03863 0
M  V30 26652 H 2454.65 -3.30033 -5.62069 0
M  V30 26653 N 2458.08 0.377381 -1.53015 0
M  V30 26654 C 2459.01 1.46788 -1.81592 0
M  V30 26655 C 2459.99 1.56407 -0.66865 0
M  V30 26656 O 2461.18 1.71167 -0.917367 0
M  V30 26657 C 2458.31 2.84267 -1.99524 0
M  V30 26658 C 2457.26 2.8948 -3.15254 0
M  V30 26659 C 2456.59 4.29521 -3.18459 0
M  V30 26660 C 2457.89 2.58071 -4.54089 0
M  V30 26661 H 2459.58 1.23123 -2.72912 0
M  V30 26662 H 2457.13 0.59086 -1.3132 0
M  V30 26663 H 2459.08 3.60571 -2.18098 0
M  V30 26664 H 2457.8 3.09294 -1.04903 0
M  V30 26665 H 2456.46 2.15626 -2.96481 0
M  V30 26666 H 2456.11 4.51606 -2.21498 0
M  V30 26667 H 2455.81 4.33927 -3.96208 0
M  V30 26668 H 2457.33 5.07715 -3.39202 0
M  V30 26669 H 2458.75 3.2409 -4.72904 0
M  V30 26670 H 2457.15 2.73811 -5.33992 0
M  V30 26671 H 2458.22 1.53364 -4.60008 0
M  V30 26672 N 2459.56 1.44175 0.636506 0
M  V30 26673 C 2460.97 1.27943 0.954081 0
M  V30 26674 C 2461.17 0.211283 2.00389 0
M  V30 26675 O 2460.23 -0.404651 2.49236 0
M  V30 26676 C 2461.54 2.64928 1.42246 0
M  V30 26677 C 2463.09 2.72594 1.53822 0
M  V30 26678 C 2463.57 4.10036 2.04045 0
M  V30 26679 N 2465.06 4.12185 2.11323 0
M  V30 26680 C 2465.79 5.15378 2.51343 0
M  V30 26681 N 2465.29 6.28935 2.90538 0
M  V30 26682 N 2467.08 5.02732 2.51429 0
M  V30 26683 H 2459.23 2.12321 -0.0578759 0
M  V30 26684 H 2461.5 0.947288 0.036724 0
M  V30 26685 H 2461.2 3.44138 0.725406 0
M  V30 26686 H 2461.08 2.91454 2.39446 0
M  V30 26687 H 2463.46 1.93706 2.22625 0
M  V30 26688 H 2463.54 2.49815 0.550111 0
M  V30 26689 H 2463.19 4.89398 1.35839 0
M  V30 26690 H 2463.12 4.30189 3.03718 0
M  V30 26691 H 2465.61 3.30225 1.83739 0
M  V30 26692 H 2465.92 7.03493 3.19872 0
M  V30 26693 H 2464.27 6.32382 2.88302 0
M  V30 26694 H 2467.46 4.13075 2.20196 0
M  V30 26695 H 2467.63 5.83279 2.82294 0
M  V30 26696 N 2461.04 -0.876421 1.30983 0
M  V30 26697 C 2461.98 -1.98302 1.18089 0
M  V30 26698 C 2462.95 -1.6596 0.0682555 0
M  V30 26699 O 2464.14 -1.89285 0.23997 0
M  V30 26700 C 2461.28 -3.33492 0.887534 0
M  V30 26701 C 2460.39 -3.78471 2.08288 0
M  V30 26702 C 2459.53 -5.02347 1.72687 0
M  V30 26703 C 2458.57 -5.39757 2.88666 0
M  V30 26704 N 2457.7 -6.54814 2.53304 0
M  V30 26705 H 2462.54 -2.08663 2.12753 0
M  V30 26706 H 2460.08 -1.02157 1.05841 0
M  V30 26707 H 2462.04 -4.11319 0.698034 0
M  V30 26708 H 2460.67 -3.22792 -0.0222583 0
M  V30 26709 H 2459.72 -2.9648 2.38335 0
M  V30 26710 H 2461.03 -4.0213 2.95115 0
M  V30 26711 H 2460.19 -5.87823 1.50161 0
M  V30 26712 H 2458.92 -4.80578 0.830411 0
M  V30 26713 H 2457.93 -4.52804 3.11848 0
M  V30 26714 H 2459.15 -5.63495 3.79012 0
M  V30 26715 H 2457.1 -6.34604 1.66174 0
M  V30 26716 H 2457.02 -6.78385 3.33662 0
M  V30 26717 H 2458.29 -7.43499 2.34156 0
M  V30 26718 N 2462.51 -1.13839 -1.08989 0
M  V30 26719 C 2463.45 -0.763515 -2.15048 0
M  V30 26720 C 2464.43 0.25237 -1.6063 0
M  V30 26721 O 2465.61 0.14282 -1.87958 0
M  V30 26722 C 2462.74 -0.132604 -3.3844 0
M  V30 26723 C 2461.78 -1.11771 -4.11594 0
M  V30 26724 S 2462.62 -2.65224 -4.65206 0
M  V30 26725 C 2463.77 -2.03506 -5.91892 0
M  V30 26726 H 2464 -1.66186 -2.46515 0
M  V30 26727 H 2461.54 -0.958997 -1.21007 0
M  V30 26728 H 2463.5 0.225002 -4.09883 0
M  V30 26729 H 2462.16 0.743082 -3.05184 0
M  V30 26730 H 2461.35 -0.624164 -5.0012 0
M  V30 26731 H 2460.95 -1.419 -3.46035 0
M  V30 26732 H 2463.24 -1.38687 -6.63153 0
M  V30 26733 H 2464.19 -2.90132 -6.45933 0
M  V30 26734 H 2464.59 -1.4848 -5.44623 0
M  V30 26735 N 2463.99 1.27046 -0.932584 0
M  V30 26736 C 2464.92 2.25809 -0.392774 0
M  V30 26737 C 2465.94 1.55587 0.479213 0
M  V30 26738 O 2467.13 1.76111 0.291047 0
M  V30 26739 C 2464.23 3.35826 0.455397 0
M  V30 26740 C 2463.4 4.35582 -0.398431 0
M  V30 26741 C 2462.46 5.24768 0.387893 0
M  V30 26742 O 2461.48 5.68827 -0.206103 0
M  V30 26743 N 2462.69 5.5546 1.68654 0
M  V30 26744 H 2465.45 2.72764 -1.24178 0
M  V30 26745 H 2463.01 1.40723 -0.800536 0
M  V30 26746 H 2465 3.92439 0.988623 0
M  V30 26747 H 2463.57 2.88434 1.20517 0
M  V30 26748 H 2462.79 3.78163 -1.11293 0
M  V30 26749 H 2464.08 4.99234 -0.981977 0
M  V30 26750 H 2463.48 5.21531 2.19138 0
M  V30 26751 H 2462.04 6.14752 2.16619 0
M  V30 26752 N 2465.47 0.698636 1.41269 0
M  V30 26753 C 2466.43 0.0441722 2.29157 0
M  V30 26754 C 2467.43 -0.704815 1.4453 0
M  V30 26755 O 2468.62 -0.539247 1.65643 0
M  V30 26756 C 2465.76 -0.947751 3.27461 0
M  V30 26757 H 2466.95 0.818044 2.88527 0
M  V30 26758 H 2464.5 0.462307 1.49306 0
M  V30 26759 H 2465.24 -1.74928 2.73076 0
M  V30 26760 H 2465.02 -0.413782 3.89911 0
M  V30 26761 H 2466.51 -1.40337 3.93313 0
M  V30 26762 N 2466.95 -1.51228 0.443603 0
M  V30 26763 C 2467.88 -2.25673 -0.400568 0
M  V30 26764 C 2468.89 -1.2993 -0.980922 0
M  V30 26765 O 2470.08 -1.55639 -0.873997 0
M  V30 26766 C 2467.18 -3.00184 -1.57299 0
M  V30 26767 C 2466.36 -4.23071 -1.11039 0
M  V30 26768 C 2465.41 -4.80108 -2.15366 0
M  V30 26769 O 2464.44 -5.41778 -1.74544 0
M  V30 26770 N 2465.64 -4.64689 -3.47914 0
M  V30 26771 H 2468.41 -2.98757 0.237502 0
M  V30 26772 H 2465.97 -1.59584 0.272837 0
M  V30 26773 H 2467.96 -3.35227 -2.26727 0
M  V30 26774 H 2466.53 -2.3007 -2.11628 0
M  V30 26775 H 2465.75 -3.93451 -0.24295 0
M  V30 26776 H 2467.04 -5.02804 -0.7788 0
M  V30 26777 H 2466.44 -4.15582 -3.83807 0
M  V30 26778 H 2464.99 -5.04077 -4.13219 0
M  V30 26779 N 2468.43 -0.175182 -1.56623 0
M  V30 26780 C 2469.36 0.792375 -2.14002 0
M  V30 26781 C 2470.34 1.22331 -1.07116 0
M  V30 26782 O 2471.52 1.3144 -1.35114 0
M  V30 26783 C 2468.65 2.06755 -2.68272 0
M  V30 26784 C 2467.69 1.78033 -3.87565 0
M  V30 26785 S 2468.53 0.946129 -5.27076 0
M  V30 26786 C 2469.68 2.23189 -5.84754 0
M  V30 26787 H 2469.92 0.304536 -2.95736 0
M  V30 26788 H 2467.45 0.0395434 -1.54349 0
M  V30 26789 H 2469.41 2.79997 -3.00186 0
M  V30 26790 H 2468.07 2.52653 -1.86616 0
M  V30 26791 H 2467.26 2.72659 -4.23879 0
M  V30 26792 H 2466.86 1.12885 -3.56557 0
M  V30 26793 H 2469.16 3.18618 -5.97904 0
M  V30 26794 H 2470.1 1.91338 -6.81759 0
M  V30 26795 H 2470.51 2.35125 -5.13202 0
M  V30 26796 N 2469.91 1.57292 0.0985263 0
M  V30 26797 C 2470.85 2.01816 1.11977 0
M  V30 26798 C 2471.82 0.893865 1.39997 0
M  V30 26799 O 2473.01 1.15961 1.51518 0
M  V30 26800 C 2470.15 2.44471 2.43573 0
M  V30 26801 C 2469.26 3.70406 2.22313 0
M  V30 26802 C 2468.4 4.01955 3.47283 0
M  V30 26803 C 2467.43 5.2101 3.2127 0
M  V30 26804 N 2466.57 5.48328 4.38498 0
M  V30 26805 H 2471.41 2.88842 0.733098 0
M  V30 26806 H 2468.95 1.42864 0.350457 0
M  V30 26807 H 2470.91 2.67245 3.20368 0
M  V30 26808 H 2469.54 1.6046 2.80094 0
M  V30 26809 H 2468.59 3.55129 1.36337 0
M  V30 26810 H 2469.9 4.57349 1.99081 0
M  V30 26811 H 2469.05 4.25487 4.32488 0
M  V30 26812 H 2467.79 3.13528 3.73566 0
M  V30 26813 H 2466.8 4.97302 2.34459 0
M  V30 26814 H 2468.02 6.11033 2.96337 0
M  V30 26815 H 2465.97 4.62859 4.64863 0
M  V30 26816 H 2465.89 6.29635 4.18444 0
M  V30 26817 H 2467.15 5.76394 5.24777 0
M  V30 26818 N 2471.38 -0.369261 1.53213 0
M  V30 26819 C 2472.29 -1.47606 1.82345 0
M  V30 26820 C 2473.31 -1.58785 0.71156 0
M  V30 26821 O 2474.49 -1.74749 1.00123 0
M  V30 26822 C 2471.55 -2.82916 2.00398 0
M  V30 26823 C 2470.61 -2.81295 3.24302 0
M  V30 26824 C 2469.84 -4.10151 3.41485 0
M  V30 26825 O 2470.07 -5.06127 2.63042 0
M  V30 26826 O 2469 -4.16187 4.34824 0
M  V30 26827 H 2472.83 -1.25913 2.76368 0
M  V30 26828 H 2470.41 -0.559009 1.38548 0
M  V30 26829 H 2472.29 -3.63097 2.13866 0
M  V30 26830 H 2470.97 -3.04594 1.09564 0
M  V30 26831 H 2469.88 -1.99825 3.1626 0
M  V30 26832 H 2471.21 -2.64571 4.15046 0
M  V30 26833 N 2472.86 -1.4451 -0.628851 0
M  V30 26834 C 2473.79 -1.54379 -1.75184 0
M  V30 26835 C 2474.77 -0.396647 -1.65411 0
M  V30 26836 O 2475.96 -0.617063 -1.84136 0
M  V30 26837 C 2473.09 -1.48981 -3.13723 0
M  V30 26838 C 2472.04 -2.62195 -3.38287 0
M  V30 26839 C 2471.37 -2.41849 -4.76879 0
M  V30 26840 C 2472.67 -4.04332 -3.30625 0
M  V30 26841 H 2474.36 -2.48376 -1.67182 0
M  V30 26842 H 2471.91 -1.1954 -0.802888 0
M  V30 26843 H 2473.86 -1.54485 -3.92062 0
M  V30 26844 H 2472.58 -0.515017 -3.22514 0
M  V30 26845 H 2471.24 -2.56084 -2.62329 0
M  V30 26846 H 2470.89 -1.42557 -4.82376 0
M  V30 26847 H 2470.59 -3.17756 -4.94272 0
M  V30 26848 H 2472.12 -2.49174 -5.57445 0
M  V30 26849 H 2473.53 -4.118 -3.98866 0
M  V30 26850 H 2471.93 -4.8046 -3.59553 0
M  V30 26851 H 2473 -4.27742 -2.28397 0
M  V30 26852 N 2474.34 0.869463 -1.31446 0
M  V30 26853 C 2475.59 1.62487 -1.2235 0
M  V30 26854 C 2475.94 1.91182 0.21617 0
M  V30 26855 O 2475.23 1.5327 1.14974 0
M  V30 26856 C 2475.43 2.96099 -2.00151 0
M  V30 26857 C 2475.26 2.8045 -3.51536 0
M  V30 26858 C 2474.03 2.79611 -4.20887 0
M  V30 26859 C 2476.22 2.55272 -4.46476 0
M  V30 26860 N 2474.21 2.55017 -5.58426 0
M  V30 26861 C 2475.58 2.39947 -5.71686 0
M  V30 26862 C 2477.63 2.40621 -4.35897 0
M  V30 26863 C 2476.34 2.1146 -6.87515 0
M  V30 26864 C 2478.36 2.13522 -5.51509 0
M  V30 26865 C 2477.72 1.98986 -6.7571 0
M  V30 26866 H 2473.82 0.598908 -0.502825 0
M  V30 26867 H 2476.41 1.02329 -1.65641 0
M  V30 26868 H 2474.58 3.54261 -1.59228 0
M  V30 26869 H 2476.31 3.60926 -1.83069 0
M  V30 26870 H 2473.06 2.92011 -3.72862 0
M  V30 26871 H 2473.49 2.4569 -6.30845 0
M  V30 26872 H 2478.13 2.50587 -3.40538 0
M  V30 26873 H 2475.85 2.00231 -7.829 0
M  V30 26874 H 2479.43 2.02985 -5.45241 0
M  V30 26875 H 2478.31 1.78313 -7.63658 0
M  V30 26876 N 2475.82 1.14415 1.08383 0
M  V30 26877 C 2477.23 0.884586 1.32843 0
M  V30 26878 C 2477.43 -0.474146 1.95842 0
M  V30 26879 O 2476.49 -1.21838 2.2116 0
M  V30 26880 C 2477.8 2.01749 2.22975 0
M  V30 26881 C 2479.35 2.05082 2.36454 0
M  V30 26882 C 2479.83 3.17665 3.29928 0
M  V30 26883 N 2481.32 3.17245 3.37505 0
M  V30 26884 C 2482.05 4.00998 4.09864 0
M  V30 26885 N 2481.55 4.9479 4.84928 0
M  V30 26886 N 2483.34 3.89058 4.05698 0
M  V30 26887 H 2475.49 2.01927 0.658721 0
M  V30 26888 H 2477.75 0.879905 0.352805 0
M  V30 26889 H 2477.46 2.99772 1.83929 0
M  V30 26890 H 2477.33 1.94082 3.23438 0
M  V30 26891 H 2479.72 1.07665 2.74758 0
M  V30 26892 H 2479.8 2.16819 1.35733 0
M  V30 26893 H 2479.45 4.15327 2.92345 0
M  V30 26894 H 2479.38 3.03165 4.30579 0
M  V30 26895 H 2481.87 2.49313 2.83992 0
M  V30 26896 H 2482.18 5.55161 5.37603 0
M  V30 26897 H 2480.53 4.98787 4.8398 0
M  V30 26898 H 2483.72 3.15103 3.46161 0
M  V30 26899 H 2483.89 4.54555 4.61826 0
M  V30 26900 N 2477.3 -1.26549 0.939309 0
M  V30 26901 C 2478.21 -2.30176 0.453473 0
M  V30 26902 C 2479.22 -1.67487 -0.47162 0
M  V30 26903 O 2480.4 -1.98307 -0.351605 0
M  V30 26904 C 2477.46 -3.45606 -0.275265 0
M  V30 26905 C 2476.52 -4.23781 0.686159 0
M  V30 26906 C 2475.76 -5.33699 -0.00789613 0
M  V30 26907 O 2475.98 -5.57087 -1.22518 0
M  V30 26908 O 2474.91 -5.98161 0.669851 0
M  V30 26909 H 2478.74 -2.73792 1.31421 0
M  V30 26910 H 2476.32 -1.31713 0.705119 0
M  V30 26911 H 2478.21 -4.15781 -0.685838 0
M  V30 26912 H 2476.88 -3.04022 -1.11142 0
M  V30 26913 H 2475.79 -3.56094 1.14664 0
M  V30 26914 H 2477.12 -4.69109 1.48987 0
M  V30 26915 N 2478.77 -0.706118 -1.40896 0
M  V30 26916 C 2480.02 -0.241924 -2.01352 0
M  V30 26917 C 2480.35 1.15885 -1.55834 0
M  V30 26918 O 2479.63 1.78429 -0.774177 0
M  V30 26919 C 2479.91 -0.311374 -3.58751 0
M  V30 26920 C 2479.76 -1.74985 -4.14367 0
M  V30 26921 C 2481.08 0.322845 -4.38914 0
M  V30 26922 H 2478.2 -0.0893815 -0.73156 0
M  V30 26923 H 2480.84 -0.896832 -1.67502 0
M  V30 26924 H 2478.99 0.246234 -3.87719 0
M  V30 26925 H 2480.67 -2.36211 -3.96235 0
M  V30 26926 H 2478.91 -2.28063 -3.69012 0
M  V30 26927 H 2479.58 -1.7499 -5.23529 0
M  V30 26928 H 2482.06 -0.152162 -4.15822 0
M  V30 26929 H 2480.93 0.243759 -5.48358 0
M  V30 26930 H 2481.19 1.40506 -4.19178 0
M  V30 26931 N 2480.25 1.50991 -0.451617 0
M  V30 26932 C 2481.16 2.31846 0.35839 0
M  V30 26933 C 2482.18 1.41375 1.01435 0
M  V30 26934 O 2483.35 1.74441 1.0066 0
M  V30 26935 C 2480.42 3.15518 1.43699 0
M  V30 26936 C 2479.48 4.21786 0.799668 0
M  V30 26937 C 2478.71 5.01459 1.82687 0
M  V30 26938 O 2478.94 4.81947 3.05096 0
M  V30 26939 O 2477.87 5.85164 1.40948 0
M  V30 26940 H 2481.7 3.02194 -0.302085 0
M  V30 26941 H 2479.28 1.47862 -0.213851 0
M  V30 26942 H 2481.16 3.67493 2.0622 0
M  V30 26943 H 2479.84 2.4792 2.08129 0
M  V30 26944 H 2478.74 3.73853 0.136018 0
M  V30 26945 H 2480.08 4.91799 0.198632 0
M  V30 26946 N 2481.73 0.183486 1.56528 0
M  V30 26947 C 2482.64 -0.754233 2.22145 0
M  V30 26948 C 2483.66 -1.24372 1.21687 0
M  V30 26949 O 2484.83 -1.29331 1.54388 0
M  V30 26950 C 2481.9 -1.96136 2.85887 0
M  V30 26951 C 2480.96 -1.51758 4.01582 0
M  V30 26952 C 2480.19 -2.66717 4.62275 0
M  V30 26953 O 2480.41 -3.83902 4.21872 0
M  V30 26954 O 2479.35 -2.40094 5.5194 0
M  V30 26955 H 2483.17 -0.225473 3.02862 0
M  V30 26956 H 2480.76 -0.045277 1.49331 0
M  V30 26957 H 2482.64 -2.6671 3.26257 0
M  V30 26958 H 2481.32 -2.47895 2.08158 0
M  V30 26959 H 2480.22 -0.780985 3.65857 0
M  V30 26960 H 2481.56 -1.04678 4.8094 0
M  V30 26961 N 2483.21 -1.57342 -0.0901833 0
M  V30 26962 C 2484.44 -1.90547 -0.806191 0
M  V30 26963 C 2484.85 -0.777674 -1.7204 0
M  V30 26964 O 2484.21 0.250071 -1.80779 0
M  V30 26965 C 2484.26 -3.23399 -1.6154 0
M  V30 26966 O 2483.98 -4.3184 -0.737967 0
M  V30 26967 C 2485.48 -3.70499 -2.43404 0
M  V30 26968 H 2482.7 -0.630261 -0.230245 0
M  V30 26969 H 2485.24 -2.04394 -0.0659484 0
M  V30 26970 H 2483.4 -3.11135 -2.30811 0
M  V30 26971 H 2483.81 -5.08162 -1.29893 0
M  V30 26972 H 2485.29 -4.66138 -2.95668 0
M  V30 26973 H 2485.76 -2.98585 -3.22093 0
M  V30 26974 H 2486.37 -3.85646 -1.79324 0
M  V30 26975 N 2484.69 0.36113 -1.53407 0
M  V30 26976 C 2486.1 0.703099 -1.43278 0
M  V30 26977 C 2486.3 1.93109 -0.575418 0
M  V30 26978 O 2485.36 2.5243 -0.0595806 0
M  V30 26979 C 2486.67 0.912149 -2.86532 0
M  V30 26980 C 2488.22 1.01188 -2.96193 0
M  V30 26981 C 2488.69 1.25337 -4.40516 0
M  V30 26982 N 2490.19 1.32097 -4.43965 0
M  V30 26983 C 2490.92 1.525 -5.52749 0
M  V30 26984 N 2490.42 1.70191 -6.7157 0
M  V30 26985 N 2492.21 1.54906 -5.40334 0
M  V30 26986 H 2484.36 -0.446512 -2.07654 0
M  V30 26987 H 2486.62 -0.137731 -0.937941 0
M  V30 26988 H 2486.33 0.0815796 -3.51605 0
M  V30 26989 H 2486.2 1.81897 -3.30444 0
M  V30 26990 H 2488.59 1.83299 -2.3127 0
M  V30 26991 H 2488.67 0.0823479 -2.55667 0
M  V30 26992 H 2488.32 0.437257 -5.06014 0
M  V30 26993 H 2488.25 2.19619 -4.78618 0
M  V30 26994 H 2490.74 1.20021 -3.58334 0
M  V30 26995 H 2491.05 1.85346 -7.50244 0
M  V30 26996 H 2489.39 1.67361 -6.74548 0
M  V30 26997 H 2492.59 1.40656 -4.46468 0
M  V30 26998 H 2492.76 1.70466 -6.25176 0
M  V30 26999 N 2486.16 1.44842 0.621179 0
M  V30 27000 C 2487.39 1.51648 1.40749 0
M  V30 27001 C 2487.81 0.144583 1.88246 0
M  V30 27002 O 2487.16 -0.851388 1.61424 0
M  V30 27003 C 2487.22 2.48955 2.62114 0
M  V30 27004 O 2486.94 3.80812 2.16596 0
M  V30 27005 C 2488.44 2.65325 3.5513 0
M  V30 27006 H 2485.66 0.514012 0.431316 0
M  V30 27007 H 2488.2 1.89901 0.758801 0
M  V30 27008 H 2486.36 2.13811 3.23054 0
M  V30 27009 H 2486.77 4.33438 2.9535 0
M  V30 27010 H 2488.24 3.37417 4.36868 0
M  V30 27011 H 2488.72 1.70893 4.04589 0
M  V30 27012 H 2489.33 3.0141 3.00053 0
M  V30 27013 N 2487.64 -0.862479 1.31905 0
M  V30 27014 C 2488.87 -1.65395 1.25137 0
M  V30 27015 C 2489.29 -1.87247 -0.178967 0
M  V30 27016 O 2488.65 -1.41962 -1.12768 0
M  V30 27017 C 2488.7 -2.99494 2.00837 0
M  V30 27018 O 2487.8 -3.89649 1.35082 0
M  V30 27019 H 2487.14 -0.504542 0.431664 0
M  V30 27020 H 2489.67 -1.07479 1.74096 0
M  V30 27021 H 2489.68 -3.49375 2.10715 0
M  V30 27022 H 2488.36 -2.8291 3.04852 0
M  V30 27023 H 2486.94 -3.48106 1.33702 0
M  V30 27024 N 2489.12 -1.14988 -1.07775 0
M  V30 27025 C 2490.54 -0.891619 -1.32372 0
M  V30 27026 C 2490.74 0.463754 -1.96091 0
M  V30 27027 O 2489.79 1.20663 -2.21803 0
M  V30 27028 C 2491.11 -2.02929 -2.21902 0
M  V30 27029 C 2492.65 -2.06333 -2.35363 0
M  V30 27030 C 2493.13 -3.19411 -3.28239 0
M  V30 27031 N 2494.62 -3.1903 -3.35818 0
M  V30 27032 C 2495.35 -4.03166 -4.07732 0
M  V30 27033 N 2494.85 -4.97355 -4.82297 0
M  V30 27034 N 2496.64 -3.91204 -4.03629 0
M  V30 27035 H 2488.79 -2.02274 -0.648003 0
M  V30 27036 H 2491.06 -0.881763 -0.348134 0
M  V30 27037 H 2490.76 -3.00743 -1.82336 0
M  V30 27038 H 2490.64 -1.95795 -3.22404 0
M  V30 27039 H 2493.02 -1.09121 -2.74184 0
M  V30 27040 H 2493.11 -2.17535 -1.34581 0
M  V30 27041 H 2492.75 -4.16872 -2.90138 0
M  V30 27042 H 2492.68 -3.05445 -4.28965 0
M  V30 27043 H 2495.17 -2.50816 -2.82666 0
M  V30 27044 H 2495.48 -5.58004 -5.34651 0
M  V30 27045 H 2493.83 -5.01347 -4.81328 0
M  V30 27046 H 2497.02 -3.16934 -3.44486 0
M  V30 27047 H 2497.19 -4.56998 -4.59409 0
M  V30 27048 N 2490.6 1.26049 -0.946007 0
M  V30 27049 C 2491.51 2.29932 -0.465673 0
M  V30 27050 C 2492.52 1.67734 0.462731 0
M  V30 27051 O 2493.7 1.98491 0.341083 0
M  V30 27052 C 2490.77 3.45747 0.256933 0
M  V30 27053 C 2489.83 4.23411 -0.708623 0
M  V30 27054 C 2489.06 5.33696 -0.0204074 0
M  V30 27055 O 2489.28 5.57729 1.19562 0
M  V30 27056 O 2488.22 5.97797 -0.701564 0
M  V30 27057 H 2492.04 2.73092 -1.32871 0
M  V30 27058 H 2489.63 1.31338 -0.712094 0
M  V30 27059 H 2491.51 4.16139 0.663779 0
M  V30 27060 H 2490.18 3.04607 1.09528 0
M  V30 27061 H 2489.09 3.55481 -1.16551 0
M  V30 27062 H 2490.42 4.68313 -1.51473 0
M  V30 27063 N 2492.08 0.71358 1.4052 0
M  V30 27064 C 2492.99 0.0607079 2.34521 0
M  V30 27065 C 2494 -0.746043 1.57195 0
M  V30 27066 O 2495.18 -0.67946 1.89592 0
M  V30 27067 C 2492.24 -0.851432 3.36083 0
M  V30 27068 C 2491.3 -0.0348584 4.29286 0
M  V30 27069 C 2490.54 -0.903557 5.25996 0
M  V30 27070 O 2490.76 -2.14282 5.2862 0
M  V30 27071 O 2489.69 -0.343618 6.00918 0
M  V30 27072 H 2493.52 0.836023 2.91966 0
M  V30 27073 H 2491.11 0.474045 1.4168 0
M  V30 27074 H 2492.99 -1.37397 3.98372 0
M  V30 27075 H 2491.66 -1.60593 2.81055 0
M  V30 27076 H 2490.57 0.532698 3.70288 0
M  V30 27077 H 2491.9 0.681372 4.87461 0
M  V30 27078 N 2493.55 -1.50749 0.459618 0
M  V30 27079 C 2494.8 -2.01447 -0.100936 0
M  V30 27080 C 2495.12 -1.34715 -1.41814 0
M  V30 27081 O 2496.32 -1.76506 -2.06296 0
M  V30 27082 C 2494.78 -3.59162 -0.230407 0
M  V30 27083 C 2494.39 -4.34845 1.07768 0
M  V30 27084 C 2496.13 -4.17938 -0.743535 0
M  V30 27085 C 2494.04 -5.84316 0.912632 0
M  V30 27086 H 2492.97 -0.752857 -0.041497 0
M  V30 27087 H 2495.62 -1.73662 0.592772 0
M  V30 27088 H 2494 -3.83486 -0.987635 0
M  V30 27089 H 2495.17 -4.22253 1.84497 0
M  V30 27090 H 2493.49 -3.87625 1.52104 0
M  V30 27091 H 2496.09 -5.27344 -0.883866 0
M  V30 27092 H 2496.43 -3.78565 -1.73189 0
M  V30 27093 H 2496.96 -3.97776 -0.04401 0
M  V30 27094 H 2493.7 -6.28141 1.87402 0
M  V30 27095 H 2493.22 -5.99513 0.185527 0
M  V30 27096 H 2494.9 -6.44443 0.57466 0
M  V30 27097 N 2495.03 -0.191784 -1.56429 0
M  V30 27098 C 2496.28 0.447856 -1.97485 0
M  V30 27099 C 2496.61 1.61857 -1.07855 0
M  V30 27100 O 2495.86 1.9535 -0.116938 0
M  V30 27101 C 2496.16 0.953323 -3.44451 0
M  V30 27102 C 2495.83 -0.103665 -4.50781 0
M  V30 27103 C 2494.49 -0.394107 -4.79583 0
M  V30 27104 C 2496.84 -0.820037 -5.14708 0
M  V30 27105 C 2494.17 -1.40595 -5.69605 0
M  V30 27106 C 2496.52 -1.82101 -6.05823 0
M  V30 27107 C 2495.19 -2.11868 -6.32983 0
M  V30 27108 H 2494.46 0.163882 -0.72265 0
M  V30 27109 H 2497.1 -0.288054 -1.89321 0
M  V30 27110 H 2495.41 1.76744 -3.49669 0
M  V30 27111 H 2497.1 1.45758 -3.73571 0
M  V30 27112 H 2493.69 0.132876 -4.28394 0
M  V30 27113 H 2497.88 -0.608875 -4.92551 0
M  V30 27114 H 2493.13 -1.64253 -5.88923 0
M  V30 27115 H 2497.31 -2.38135 -6.54419 0
M  V30 27116 H 2494.94 -2.9042 -7.02539 0
M  V30 27117 N 2496.51 1.57387 0.0818378 0
M  V30 27118 C 2497.74 1.91354 0.799912 0
M  V30 27119 C 2498.16 0.787288 1.70831 0
M  V30 27120 O 2497.52 -0.260448 1.7942 0
M  V30 27121 C 2497.57 3.24237 1.57806 0
M  V30 27122 O 2496.67 3.12762 2.68801 0
M  V30 27123 H 2496.01 0.626881 0.218899 0
M  V30 27124 H 2498.54 2.04531 0.0530896 0
M  V30 27125 H 2498.55 3.57868 1.95946 0
M  V30 27126 H 2497.23 4.05789 0.911476 0
M  V30 27127 H 2495.8 2.9067 2.33592 0
M  V30 27128 N 2497.99 -0.35299 1.53596 0
M  V30 27129 C 2498.92 -1.45345 1.77222 0
M  V30 27130 C 2499.93 -1.49118 0.653266 0
M  V30 27131 O 2501.12 -1.52371 0.929802 0
M  V30 27132 C 2498.22 -2.84051 1.84846 0
M  V30 27133 C 2497.4 -3.03828 3.14655 0
M  V30 27134 C 2496.45 -4.22721 3.13358 0
M  V30 27135 O 2495.48 -4.1729 3.87114 0
M  V30 27136 N 2496.68 -5.30779 2.35062 0
M  V30 27137 H 2499.45 -1.25452 2.7218 0
M  V30 27138 H 2497.01 -0.542806 1.52529 0
M  V30 27139 H 2499 -3.61747 1.81441 0
M  V30 27140 H 2497.57 -2.97131 0.971166 0
M  V30 27141 H 2496.79 -2.13683 3.3126 0
M  V30 27142 H 2498.08 -3.13917 4.00416 0
M  V30 27143 H 2497.48 -5.38058 1.74672 0
M  V30 27144 H 2496.03 -6.07004 2.37463 0
M  V30 27145 N 2499.47 -1.45169 -0.613489 0
M  V30 27146 C 2500.42 -1.53715 -1.74569 0
M  V30 27147 C 2501.41 -0.407534 -1.64425 0
M  V30 27148 O 2502.62 -0.583206 -1.7029 0
M  V30 27149 H 2498.99 -0.4827 -0.576632 0
M  V30 27150 H 2500.96 -2.48971 -1.64487 0
M  V30 27151 C 2499.71 -1.51537 -3.1294 0
M  V30 27152 H 2499.03 -2.37782 -3.21403 0
M  V30 27153 H 2500.47 -1.61576 -3.92007 0
M  V30 27154 C 2498.93 -0.238857 -3.36052 0
M  V30 27155 O 2499.46 0.68373 -3.95838 0
M  V30 27156 N 2497.67 -0.13641 -2.9028 0
M  V30 27157 H 2497.22 -0.888041 -2.41809 0
M  V30 27158 H 2497.17 0.71689 -3.06118 0
M  V30 27159 N 2500.95 0.855472 -1.32361 0
M  V30 27160 C 2502.36 1.14355 -1.11334 0
M  V30 27161 C 2502.56 2.01217 0.106716 0
M  V30 27162 O 2501.62 2.39762 0.791849 0
M  V30 27163 C 2502.93 1.82167 -2.3924 0
M  V30 27164 C 2504.48 1.94805 -2.44989 0
M  V30 27165 C 2504.95 2.66033 -3.72814 0
M  V30 27166 N 2506.44 2.73558 -3.73791 0
M  V30 27167 C 2507.18 3.29319 -4.694 0
M  V30 27168 N 2506.68 3.85897 -5.75374 0
M  V30 27169 N 2508.47 3.27415 -4.56898 0
M  V30 27170 H 2500.62 0.27699 -2.10586 0
M  V30 27171 H 2502.88 0.185348 -0.929704 0
M  V30 27172 H 2502.59 1.25796 -3.28433 0
M  V30 27173 H 2502.46 2.8233 -2.50139 0
M  V30 27174 H 2504.85 2.50336 -1.56256 0
M  V30 27175 H 2504.93 0.936406 -2.38044 0
M  V30 27176 H 2504.57 2.11166 -4.61921 0
M  V30 27177 H 2504.5 3.67635 -3.7703 0
M  V30 27178 H 2507 2.33419 -2.97193 0
M  V30 27179 H 2507.31 4.26599 -6.44386 0
M  V30 27180 H 2505.65 3.84232 -5.7913 0
M  V30 27181 H 2508.84 2.82461 -3.73274 0
M  V30 27182 H 2509.02 3.70571 -5.31584 0
M  V30 27183 N 2502.42 1.15558 1.07164 0
M  V30 27184 C 2503.33 0.868154 2.17945 0
M  V30 27185 C 2504.35 -0.156266 1.73297 0
M  V30 27186 O 2505.53 0.0182681 2.01392 0
M  V30 27187 C 2502.59 0.36361 3.44788 0
M  V30 27188 C 2501.65 1.45216 4.03993 0
M  V30 27189 C 2500.88 0.9716 5.24782 0
M  V30 27190 O 2501.11 -0.182094 5.70109 0
M  V30 27191 O 2500.04 1.75613 5.75712 0
M  V30 27192 H 2503.87 1.79431 2.45027 0
M  V30 27193 H 2501.45 0.934845 1.16538 0
M  V30 27194 H 2503.33 0.0887854 4.21306 0
M  V30 27195 H 2502.01 -0.534652 3.19254 0
M  V30 27196 H 2500.92 1.78062 3.29006 0
M  V30 27197 H 2502.25 2.32541 4.33804 0
M  V30 27198 N 2503.9 -1.25546 0.952678 0
M  V30 27199 C 2505.13 -1.9782 0.623059 0
M  V30 27200 C 2505.55 -1.70354 -0.79757 0
M  V30 27201 O 2504.91 -0.95831 -1.53903 0
M  V30 27202 C 2504.96 -3.49556 0.885593 0
M  V30 27203 O 2504.06 -4.12384 -0.0365917 0
M  V30 27204 H 2503.4 -0.620228 0.237093 0
M  V30 27205 H 2505.93 -1.59716 1.27874 0
M  V30 27206 H 2505.94 -3.99857 0.811079 0
M  V30 27207 H 2504.62 -3.68877 1.92101 0
M  V30 27208 H 2503.19 -3.72791 0.089961 0
M  V30 27209 N 2505.38 -0.721022 -1.40139 0
M  V30 27210 C 2506.29 -0.0731443 -2.34486 0
M  V30 27211 C 2507.31 0.737696 -1.57588 0
M  V30 27212 O 2508.48 0.669396 -1.8995 0
M  V30 27213 C 2505.55 0.833597 -3.36529 0
M  V30 27214 C 2504.61 0.0120918 -4.29298 0
M  V30 27215 C 2503.84 0.875649 -5.26468 0
M  V30 27216 O 2504.06 2.11476 -5.29749 0
M  V30 27217 O 2503 0.311745 -6.01092 0
M  V30 27218 H 2506.82 -0.851495 -2.91519 0
M  V30 27219 H 2504.41 -0.481552 -1.41426 0
M  V30 27220 H 2506.29 1.35282 -3.99095 0
M  V30 27221 H 2504.97 1.591 -2.81902 0
M  V30 27222 H 2503.87 -0.552327 -3.7 0
M  V30 27223 H 2505.21 -0.707214 -4.87093 0
M  V30 27224 N 2506.86 1.50503 -0.467606 0
M  V30 27225 C 2507.8 2.28452 0.328373 0
M  V30 27226 C 2508.77 1.33351 0.990289 0
M  V30 27227 O 2509.96 1.62286 1.0034 0
M  V30 27228 C 2507.1 3.15141 1.40643 0
M  V30 27229 C 2506.21 4.25269 0.759634 0
M  V30 27230 C 2505.35 4.9922 1.81529 0
M  V30 27231 C 2504.39 6.01228 1.14855 0
M  V30 27232 N 2503.52 6.6847 2.1469 0
M  V30 27233 H 2508.36 2.96023 -0.342655 0
M  V30 27234 H 2505.9 1.45984 -0.180827 0
M  V30 27235 H 2507.86 3.6375 2.04308 0
M  V30 27236 H 2506.49 2.49623 2.04667 0
M  V30 27237 H 2505.54 3.80399 0.0105002 0
M  V30 27238 H 2506.85 4.98255 0.233155 0
M  V30 27239 H 2506.01 5.5153 2.52783 0
M  V30 27240 H 2504.75 4.25932 2.37556 0
M  V30 27241 H 2503.75 5.48181 0.421614 0
M  V30 27242 H 2504.98 6.76487 0.595216 0
M  V30 27243 H 2502.92 5.97976 2.69741 0
M  V30 27244 H 2502.84 7.3732 1.67017 0
M  V30 27245 H 2504.11 7.25399 2.85336 0
M  V30 27246 N 2508.34 0.200077 1.56325 0
M  V30 27247 C 2509.75 -0.155688 1.58839 0
M  V30 27248 C 2509.95 -1.60643 1.21639 0
M  V30 27249 O 2509.01 -2.34291 0.941478 0
M  V30 27250 C 2510.32 0.151176 3.0032 0
M  V30 27251 C 2511.87 0.0916834 3.12866 0
M  V30 27252 C 2512.34 0.371926 4.56487 0
M  V30 27253 N 2513.83 0.320722 4.62088 0
M  V30 27254 C 2514.57 0.511343 5.71115 0
M  V30 27255 N 2514.07 0.762582 6.8859 0
M  V30 27256 N 2515.86 0.445256 5.60334 0
M  V30 27257 H 2508.01 1.14671 1.78786 0
M  V30 27258 H 2510.27 0.458065 0.829988 0
M  V30 27259 H 2509.98 1.15726 3.32115 0
M  V30 27260 H 2509.85 -0.543921 3.73258 0
M  V30 27261 H 2512.24 -0.905016 2.8088 0
M  V30 27262 H 2512.32 0.819933 2.42303 0
M  V30 27263 H 2511.96 1.36596 4.89187 0
M  V30 27264 H 2511.89 -0.37727 5.25247 0
M  V30 27265 H 2514.39 0.133356 3.77665 0
M  V30 27266 H 2514.7 0.896711 7.6758 0
M  V30 27267 H 2513.04 0.799533 6.90386 0
M  V30 27268 H 2516.23 0.249361 4.67435 0
M  V30 27269 H 2516.41 0.597229 6.45242 0
M  V30 27270 N 2509.81 -1.57429 -0.0734901 0
M  V30 27271 C 2510.74 -2.0661 -1.08787 0
M  V30 27272 C 2511.72 -0.959261 -1.40471 0
M  V30 27273 O 2512.91 -1.23188 -1.50128 0
M  V30 27274 C 2510.04 -2.50861 -2.40179 0
M  V30 27275 C 2508.99 -3.65406 -2.22851 0
M  V30 27276 C 2508.32 -3.95706 -3.59612 0
M  V30 27277 C 2509.62 -4.95514 -1.65115 0
M  V30 27278 H 2511.31 -2.91608 -0.678622 0
M  V30 27279 H 2508.86 -1.40285 -0.324989 0
M  V30 27280 H 2510.81 -2.8388 -3.11432 0
M  V30 27281 H 2509.54 -1.6289 -2.8308 0
M  V30 27282 H 2508.2 -3.32667 -1.54039 0
M  V30 27283 H 2507.84 -3.04869 -4.0008 0
M  V30 27284 H 2507.54 -4.72834 -3.48857 0
M  V30 27285 H 2509.07 -4.3122 -4.32299 0
M  V30 27286 H 2510.48 -5.26775 -2.26232 0
M  V30 27287 H 2508.88 -5.76953 -1.65061 0
M  V30 27288 H 2509.95 -4.81016 -0.612474 0
M  V30 27289 N 2511.29 0.344839 -1.53781 0
M  V30 27290 C 2512.24 1.42343 -1.81679 0
M  V30 27291 C 2513.21 1.5232 -0.662402 0
M  V30 27292 O 2514.39 1.67879 -0.906705 0
M  V30 27293 C 2511.53 2.79012 -2.03092 0
M  V30 27294 C 2510.65 2.77836 -3.30804 0
M  V30 27295 C 2509.78 4.06214 -3.42292 0
M  V30 27296 C 2508.82 3.99262 -4.63957 0
M  V30 27297 N 2507.96 5.19328 -4.72486 0
M  V30 27298 H 2512.8 1.17853 -2.73705 0
M  V30 27299 H 2510.33 0.570925 -1.35569 0
M  V30 27300 H 2512.29 3.58434 -2.13497 0
M  V30 27301 H 2510.92 3.01856 -1.1438 0
M  V30 27302 H 2509.97 1.90527 -3.29247 0
M  V30 27303 H 2511.29 2.68577 -4.20319 0
M  V30 27304 H 2510.44 4.9406 -3.52121 0
M  V30 27305 H 2509.18 4.18253 -2.5083 0
M  V30 27306 H 2508.18 3.09801 -4.54206 0
M  V30 27307 H 2509.41 3.88807 -5.56782 0
M  V30 27308 H 2507.36 5.31913 -3.83933 0
M  V30 27309 H 2507.27 5.1232 -5.55936 0
M  V30 27310 H 2508.54 6.08948 -4.86623 0
M  V30 27311 N 2512.77 1.45492 0.605781 0
M  V30 27312 C 2514.02 1.49308 1.36204 0
M  V30 27313 C 2514.34 0.136897 1.94519 0
M  V30 27314 O 2513.61 -0.833952 1.77263 0
M  V30 27315 H 2512.19 0.549852 0.50564 0
M  V30 27316 H 2514.85 1.8146 0.711208 0
M  V30 27317 H 2513.95 2.2329 2.18055 0
M  V30 27318 N 2514.25 -0.848441 1.32813 0
M  V30 27319 C 2515.18 -1.97297 1.24885 0
M  V30 27320 C 2516.16 -1.69592 0.131386 0
M  V30 27321 O 2517.34 -1.91552 0.319586 0
M  V30 27322 C 2514.47 -3.33259 0.977518 0
M  V30 27323 C 2513.43 -3.75335 2.05689 0
M  V30 27324 C 2512.75 -5.08997 1.63786 0
M  V30 27325 C 2514.05 -3.90137 3.47261 0
M  V30 27326 H 2515.75 -2.04187 2.1897 0
M  V30 27327 H 2513.29 -0.98101 1.05414 0
M  V30 27328 H 2515.25 -4.11488 0.908585 0
M  V30 27329 H 2513.97 -3.266 0.00103742 0
M  V30 27330 H 2512.63 -2.99362 2.11608 0
M  V30 27331 H 2512.28 -4.988 0.648656 0
M  V30 27332 H 2511.98 -5.3812 2.36009 0
M  V30 27333 H 2513.5 -5.89712 1.58341 0
M  V30 27334 H 2514.92 -4.58703 3.43896 0
M  V30 27335 H 2513.31 -4.30685 4.17888 0
M  V30 27336 H 2514.38 -2.92867 3.86467 0
M  V30 27337 N 2515.73 -1.16125 -1.06549 0
M  V30 27338 C 2516.64 -0.8797 -2.17482 0
M  V30 27339 C 2517.65 0.147074 -1.73377 0
M  V30 27340 O 2518.83 -0.0289482 -2.01379 0
M  V30 27341 C 2515.89 -0.38189 -3.4459 0
M  V30 27342 C 2514.95 -1.47357 -4.03218 0
M  V30 27343 C 2514.19 -0.999417 -5.24259 0
M  V30 27344 O 2514.41 0.151857 -5.70198 0
M  V30 27345 O 2513.34 -1.78663 -5.74772 0
M  V30 27346 H 2517.17 -1.80728 -2.44072 0
M  V30 27347 H 2514.76 -0.941012 -1.1604 0
M  V30 27348 H 2516.64 -0.111127 -4.21253 0
M  V30 27349 H 2515.31 0.517714 -3.19533 0
M  V30 27350 H 2514.22 -1.79804 -3.28057 0
M  V30 27351 H 2515.55 -2.34838 -4.32564 0
M  V30 27352 N 2517.2 1.25039 -0.959323 0
M  V30 27353 C 2518.17 2.23951 -0.487717 0
M  V30 27354 C 2519.17 1.55454 0.411162 0
M  V30 27355 O 2520.36 1.72956 0.207794 0
M  V30 27356 C 2517.49 3.39623 0.294748 0
M  V30 27357 H 2518.68 2.67187 -1.36203 0
M  V30 27358 H 2516.24 1.37507 -0.743066 0
M  V30 27359 H 2516.97 3.01815 1.18652 0
M  V30 27360 H 2516.76 3.90533 -0.350189 0
M  V30 27361 H 2518.25 4.13061 0.614017 0
M  V30 27362 N 2518.68 0.728444 1.39755 0
M  V30 27363 C 2519.59 0.0855786 2.34444 0
M  V30 27364 C 2520.61 -0.729328 1.57977 0
M  V30 27365 O 2521.78 -0.659313 1.90302 0
M  V30 27366 C 2518.85 -0.815738 3.36967 0
M  V30 27367 C 2517.91 0.0106751 4.29299 0
M  V30 27368 C 2517.14 -0.847717 5.26925 0
M  V30 27369 O 2517.37 -2.08664 5.30863 0
M  V30 27370 O 2516.3 -0.279863 6.01249 0
M  V30 27371 H 2520.13 0.866943 2.91063 0
M  V30 27372 H 2517.71 0.489045 1.41169 0
M  V30 27373 H 2519.59 -1.33164 3.99807 0
M  V30 27374 H 2518.27 -1.57603 2.82742 0
M  V30 27375 H 2517.18 0.571942 3.69702 0
M  V30 27376 H 2518.51 0.733036 4.86711 0
M  V30 27377 N 2520.16 -1.50253 0.475581 0
M  V30 27378 C 2521.41 -2.0265 -0.0779717 0
M  V30 27379 C 2521.74 -1.35654 -1.38966 0
M  V30 27380 O 2521.01 -0.483724 -1.88389 0
M  V30 27381 C 2521.3 -3.59181 -0.257098 0
M  V30 27382 C 2521.15 -4.36742 1.07593 0
M  V30 27383 C 2522.47 -4.28364 -1.00957 0
M  V30 27384 H 2519.59 -0.73651 -0.0268629 0
M  V30 27385 H 2522.23 -1.79529 0.622046 0
M  V30 27386 H 2520.38 -3.79012 -0.853345 0
M  V30 27387 H 2522.05 -4.28471 1.7091 0
M  V30 27388 H 2520.3 -4.00305 1.67147 0
M  V30 27389 H 2520.97 -5.44544 0.904184 0
M  V30 27390 H 2523.44 -4.13035 -0.504141 0
M  V30 27391 H 2522.32 -5.37689 -1.10371 0
M  V30 27392 H 2522.58 -3.91843 -2.04724 0
M  V30 27393 N 2521.64 -0.208365 -1.56217 0
M  V30 27394 C 2522.57 0.702077 -2.22695 0
M  V30 27395 C 2523.55 1.21118 -1.19434 0
M  V30 27396 O 2524.73 1.2576 -1.4798 0
M  V30 27397 C 2521.86 1.91605 -2.89663 0
M  V30 27398 C 2520.82 1.54133 -3.99283 0
M  V30 27399 C 2520.14 2.833 -4.53481 0
M  V30 27400 C 2521.44 0.741248 -5.17013 0
M  V30 27401 H 2523.14 0.147846 -2.99035 0
M  V30 27402 H 2520.68 0.0696698 -1.43831 0
M  V30 27403 H 2522.64 2.5583 -3.34857 0
M  V30 27404 H 2521.36 2.49504 -2.1075 0
M  V30 27405 H 2520.02 0.922606 -3.54801 0
M  V30 27406 H 2519.67 3.39316 -3.71314 0
M  V30 27407 H 2519.37 2.58967 -5.27456 0
M  V30 27408 H 2520.89 3.48491 -5.01385 0
M  V30 27409 H 2522.31 1.2869 -5.5867 0
M  V30 27410 H 2520.7 0.595522 -5.97138 0
M  V30 27411 H 2521.77 -0.254936 -4.84229 0
M  V30 27412 N 2523.12 1.57465 0.0651402 0
M  V30 27413 C 2524.53 1.53972 0.420078 0
M  V30 27414 C 2524.73 0.929505 1.7878 0
M  V30 27415 O 2523.79 0.534883 2.4677 0
M  V30 27416 C 2525.1 2.98597 0.355032 0
M  V30 27417 C 2526.65 3.09966 0.434738 0
M  V30 27418 C 2527.12 4.56254 0.399529 0
M  V30 27419 N 2528.62 4.60916 0.459407 0
M  V30 27420 C 2529.35 5.71596 0.454484 0
M  V30 27421 N 2528.85 6.91621 0.403981 0
M  V30 27422 N 2530.64 5.59858 0.501537 0
M  V30 27423 H 2522.79 1.95496 -0.830362 0
M  V30 27424 H 2525.05 0.895096 -0.31226 0
M  V30 27425 H 2524.76 3.46827 -0.583418 0
M  V30 27426 H 2524.63 3.58833 1.16269 0
M  V30 27427 H 2527.02 2.61705 1.36361 0
M  V30 27428 H 2527.1 2.52628 -0.401614 0
M  V30 27429 H 2526.75 5.05174 -0.525525 0
M  V30 27430 H 2526.68 5.11463 1.2535 0
M  V30 27431 H 2529.17 3.74545 0.502416 0
M  V30 27432 H 2529.48 7.71742 0.404333 0
M  V30 27433 H 2527.82 6.94011 0.370568 0
M  V30 27434 H 2531.02 4.6499 0.538731 0
M  V30 27435 H 2531.19 6.46112 0.494231 0
M  V30 27436 N 2524.59 -0.336679 1.53962 0
M  V30 27437 C 2525.52 -1.41921 1.8542 0
M  V30 27438 C 2526.51 -1.54579 0.709883 0
M  V30 27439 O 2527.69 -1.68674 0.962426 0
M  V30 27440 C 2524.82 -2.78877 2.0699 0
M  V30 27441 C 2523.77 -2.8102 3.22818 0
M  V30 27442 C 2523.1 -4.20927 3.29735 0
M  V30 27443 C 2524.4 -2.45941 4.60772 0
M  V30 27444 H 2526.09 -1.15844 2.76081 0
M  V30 27445 H 2523.64 -0.555835 1.3284 0
M  V30 27446 H 2525.59 -3.54661 2.27581 0
M  V30 27447 H 2524.32 -3.06404 1.13066 0
M  V30 27448 H 2522.98 -2.0769 3.02094 0
M  V30 27449 H 2522.62 -4.45574 2.33393 0
M  V30 27450 H 2522.32 -4.2327 4.07574 0
M  V30 27451 H 2523.85 -4.98543 3.52544 0
M  V30 27452 H 2525.26 -3.11438 4.81331 0
M  V30 27453 H 2523.66 -2.59556 5.41064 0
M  V30 27454 H 2524.73 -1.41113 4.63913 0
M  V30 27455 N 2526.07 -1.45812 -0.598057 0
M  V30 27456 C 2527 -1.51228 -1.72229 0
M  V30 27457 C 2528.02 -0.402087 -1.57756 0
M  V30 27458 O 2529.21 -0.669653 -1.65463 0
M  V30 27459 C 2526.31 -1.36196 -3.10329 0
M  V30 27460 C 2525.48 -2.61061 -3.5095 0
M  V30 27461 C 2524.54 -2.40448 -4.68051 0
M  V30 27462 O 2523.56 -3.14105 -4.74686 0
M  V30 27463 N 2524.77 -1.45622 -5.61938 0
M  V30 27464 H 2527.53 -2.48157 -1.68042 0
M  V30 27465 H 2525.09 -1.41673 -0.783613 0
M  V30 27466 H 2527.08 -1.20202 -3.86437 0
M  V30 27467 H 2525.65 -0.475069 -3.08969 0
M  V30 27468 H 2524.87 -2.92104 -2.64705 0
M  V30 27469 H 2526.16 -3.4404 -3.74852 0
M  V30 27470 H 2525.56 -0.848529 -5.593 0
M  V30 27471 H 2524.12 -1.35597 -6.3754 0
M  V30 27472 N 2527.55 0.841385 -1.33261 0
M  V30 27473 C 2528.46 1.98314 -1.25335 0
M  V30 27474 C 2529.48 1.73222 -0.164395 0
M  V30 27475 O 2530.65 1.97637 -0.387521 0
M  V30 27476 C 2527.72 3.32261 -0.990137 0
M  V30 27477 C 2526.78 3.70485 -2.16885 0
M  V30 27478 C 2526.01 4.98041 -1.9181 0
M  V30 27479 O 2526.23 5.6377 -0.867174 0
M  V30 27480 O 2525.17 5.3371 -2.78276 0
M  V30 27481 H 2528.99 2.0794 -2.21348 0
M  V30 27482 H 2526.58 0.974038 -1.13282 0
M  V30 27483 H 2528.46 4.12523 -0.860394 0
M  V30 27484 H 2527.14 3.23644 -0.0602724 0
M  V30 27485 H 2526.04 2.90744 -2.35412 0
M  V30 27486 H 2527.38 3.83765 -3.08197 0
M  V30 27487 N 2529.03 1.16688 1.05932 0
M  V30 27488 C 2529.94 0.891222 2.17012 0
M  V30 27489 C 2530.96 -0.137877 1.73453 0
M  V30 27490 O 2532.13 0.0396274 2.01361 0
M  V30 27491 C 2529.2 0.400159 3.44383 0
M  V30 27492 C 2528.26 1.49493 4.0243 0
M  V30 27493 C 2527.49 1.02721 5.23721 0
M  V30 27494 O 2527.71 -0.121616 5.7027 0
M  V30 27495 O 2526.65 1.81709 5.73817 0
M  V30 27496 H 2530.47 1.8202 2.4311 0
M  V30 27497 H 2528.06 0.947153 1.1554 0
M  V30 27498 H 2529.94 0.133466 4.21189 0
M  V30 27499 H 2528.62 -0.500761 3.19803 0
M  V30 27500 H 2527.52 1.81541 3.27099 0
M  V30 27501 H 2528.86 2.37129 4.31313 0
M  V30 27502 N 2530.51 -1.24529 0.96594 0
M  V30 27503 C 2531.44 -2.27783 0.513516 0
M  V30 27504 C 2532.42 -1.6415 -0.445945 0
M  V30 27505 O 2533.6 -1.91157 -0.342451 0
M  V30 27506 C 2530.73 -3.46731 -0.198778 0
M  V30 27507 C 2529.69 -4.22619 0.67653 0
M  V30 27508 C 2529.01 -5.34439 -0.167154 0
M  V30 27509 C 2530.31 -4.84119 1.96026 0
M  V30 27510 H 2532.01 -2.65879 1.37654 0
M  V30 27511 H 2529.55 -1.27811 0.663344 0
M  V30 27512 H 2531.51 -4.18098 -0.526493 0
M  V30 27513 H 2530.23 -3.07656 -1.09614 0
M  V30 27514 H 2528.89 -3.5305 0.987492 0
M  V30 27515 H 2528.54 -4.91604 -1.06462 0
M  V30 27516 H 2528.24 -5.86131 0.415284 0
M  V30 27517 H 2529.76 -6.08634 -0.489581 0
M  V30 27518 H 2531.18 -5.4757 1.69823 0
M  V30 27519 H 2529.57 -5.46036 2.48927 0
M  V30 27520 H 2530.64 -4.05672 2.65629 0
M  V30 27521 N 2531.99 -0.735845 -1.39367 0
M  V30 27522 C 2532.95 -0.104914 -2.2896 0
M  V30 27523 C 2533.95 0.666248 -1.46348 0
M  V30 27524 O 2535.14 0.49514 -1.67015 0
M  V30 27525 C 2532.27 0.860598 -3.29858 0
M  V30 27526 H 2533.46 -0.894255 -2.86257 0
M  V30 27527 H 2531.02 -0.50173 -1.48028 0
M  V30 27528 H 2531.75 1.67626 -2.77618 0
M  V30 27529 H 2531.54 0.310258 -3.90871 0
M  V30 27530 H 2533.03 1.2986 -3.96896 0
M  V30 27531 N 2533.46 1.49999 -0.483543 0
M  V30 27532 C 2534.43 2.2732 0.292925 0
M  V30 27533 C 2535.43 1.32609 0.909476 0
M  V30 27534 O 2536.62 1.55925 0.776718 0
M  V30 27535 C 2533.75 3.09987 1.41849 0
M  V30 27536 H 2534.94 2.97414 -0.385342 0
M  V30 27537 H 2532.49 1.54478 -0.23797 0
M  V30 27538 H 2533.23 2.44418 2.13144 0
M  V30 27539 H 2533.01 3.79603 0.982048 0
M  V30 27540 H 2534.5 3.68432 1.9659 0
M  V30 27541 N 2534.94 0.216646 1.56104 0
M  V30 27542 C 2536.17 -0.424426 2.03011 0
M  V30 27543 C 2536.59 -1.52905 1.09553 0
M  V30 27544 O 2535.95 -1.81111 0.0828232 0
M  V30 27545 C 2536 -0.937822 3.48191 0
M  V30 27546 O 2535.1 -2.04948 3.57869 0
M  V30 27547 H 2534.44 -0.096664 0.656926 0
M  V30 27548 H 2536.97 0.333845 2.01858 0
M  V30 27549 H 2536.98 -1.2489 3.88415 0
M  V30 27550 H 2535.66 -0.129313 4.15699 0
M  V30 27551 H 2534.23 -1.74541 3.2953 0
M  V30 27552 N 2536.42 -1.57498 -0.0567885 0
M  V30 27553 C 2537.7 -1.79072 -0.786923 0
M  V30 27554 C 2538.08 -0.807954 -1.95026 0
M  V30 27555 O 2537.42 0.155818 -2.27968 0
M  V30 27556 C 2537.63 -3.26004 -1.24589 0
M  V30 27557 C 2538.98 -3.90244 -1.67316 0
M  V30 27558 O 2540.01 -3.29986 -1.34118 0
M  V30 27559 O 2538.87 -4.96284 -2.28833 0
M  V30 27560 H 2535.96 -0.73543 -0.378249 0
M  V30 27561 H 2538.51 -1.69662 -0.0357042 0
M  V30 27562 H 2537.28 -3.89102 -0.414162 0
M  V30 27563 H 2536.9 -3.40196 -2.05797 0
M  V30 27564 N 2537.9 0.328509 -1.54138 0
M  V30 27565 C 2539.31 0.672549 -1.44737 0
M  V30 27566 C 2539.51 1.91845 -0.61625 0
M  V30 27567 O 2538.57 2.52247 -0.113111 0
M  V30 27568 C 2539.88 0.851166 -2.88402 0
M  V30 27569 C 2541.43 0.948825 -2.98272 0
M  V30 27570 C 2541.91 1.15965 -4.43076 0
M  V30 27571 N 2543.4 1.2265 -4.46667 0
M  V30 27572 C 2544.13 1.40742 -5.55859 0
M  V30 27573 N 2543.63 1.55908 -6.75029 0
M  V30 27574 N 2545.42 1.4341 -5.43498 0
M  V30 27575 H 2537.57 -0.490458 -2.0666 0
M  V30 27576 H 2539.83 -0.157595 -0.934809 0
M  V30 27577 H 2539.54 0.00698054 -3.51699 0
M  V30 27578 H 2539.41 1.74847 -3.34228 0
M  V30 27579 H 2541.8 1.78352 -2.35106 0
M  V30 27580 H 2541.88 0.0280986 -2.55785 0
M  V30 27581 H 2541.53 0.329826 -5.06828 0
M  V30 27582 H 2541.46 2.09417 -4.83169 0
M  V30 27583 H 2543.95 1.12393 -3.60799 0
M  V30 27584 H 2544.26 1.6939 -7.54007 0
M  V30 27585 H 2542.61 1.53015 -6.77946 0
M  V30 27586 H 2545.8 1.31154 -4.49351 0
M  V30 27587 H 2545.97 1.57167 -6.28651 0
M  V30 27588 N 2539.38 1.46127 0.590316 0
M  V30 27589 C 2540.34 1.55706 1.68192 0
M  V30 27590 C 2541.34 0.434895 1.54807 0
M  V30 27591 O 2542.53 0.698956 1.59563 0
M  V30 27592 C 2539.66 1.4701 3.07573 0
M  V30 27593 H 2540.85 2.52982 1.61059 0
M  V30 27594 H 2538.41 1.33824 0.807517 0
M  V30 27595 H 2539.14 0.509842 3.20267 0
M  V30 27596 H 2538.93 2.2842 3.18696 0
M  V30 27597 H 2540.42 1.56782 3.87052 0
M  V30 27598 N 2540.85 -0.834306 1.33705 0
M  V30 27599 C 2542.27 -1.12569 1.13139 0
M  V30 27600 C 2542.47 -2.01362 -0.0746907 0
M  V30 27601 O 2541.53 -2.40992 -0.753605 0
M  V30 27602 C 2542.84 -1.78338 2.42108 0
M  V30 27603 C 2544.39 -1.90883 2.48058 0
M  V30 27604 C 2544.86 -2.60068 3.77 0
M  V30 27605 N 2546.35 -2.67577 3.78096 0
M  V30 27606 C 2547.09 -3.2181 4.7458 0
M  V30 27607 N 2546.58 -3.76694 5.81441 0
M  V30 27608 N 2548.38 -3.20104 4.62049 0
M  V30 27609 H 2540.53 -0.243452 2.11 0
M  V30 27610 H 2542.79 -0.170533 0.932535 0
M  V30 27611 H 2542.5 -1.20555 3.30393 0
M  V30 27612 H 2542.37 -2.78315 2.54599 0
M  V30 27613 H 2544.76 -2.47818 1.60219 0
M  V30 27614 H 2544.84 -0.898417 2.39504 0
M  V30 27615 H 2544.48 -2.03791 4.65222 0
M  V30 27616 H 2544.41 -3.6159 3.82832 0
M  V30 27617 H 2546.9 -2.28661 3.00869 0
M  V30 27618 H 2547.22 -4.16294 6.51091 0
M  V30 27619 H 2545.56 -3.74969 5.85169 0
M  V30 27620 H 2548.75 -2.76486 3.77721 0
M  V30 27621 H 2548.93 -3.62067 5.37412 0
M  V30 27622 N 2542.33 -1.17248 -1.05312 0
M  V30 27623 C 2543.75 -0.919496 -1.30451 0
M  V30 27624 C 2543.95 0.422056 -1.9703 0
M  V30 27625 O 2543 1.15931 -2.24313 0
M  V30 27626 C 2544.32 -2.0759 -2.17547 0
M  V30 27627 C 2545.86 -2.11279 -2.30934 0
M  V30 27628 C 2546.34 -3.26301 -3.2139 0
M  V30 27629 N 2547.83 -3.26082 -3.28976 0
M  V30 27630 C 2548.57 -4.11723 -3.99088 0
M  V30 27631 N 2548.06 -5.07473 -4.71639 0
M  V30 27632 N 2549.85 -3.99677 -3.9524 0
M  V30 27633 H 2542.01 -2.03603 -0.604952 0
M  V30 27634 H 2544.27 -0.88895 -0.329352 0
M  V30 27635 H 2543.97 -3.04543 -1.75916 0
M  V30 27636 H 2543.85 -2.02589 -3.18178 0
M  V30 27637 H 2546.24 -1.14912 -2.71807 0
M  V30 27638 H 2546.32 -2.20341 -1.29936 0
M  V30 27639 H 2545.96 -4.22932 -2.8123 0
M  V30 27640 H 2545.89 -3.14475 -4.2239 0
M  V30 27641 H 2548.38 -2.56755 -2.77282 0
M  V30 27642 H 2548.69 -5.69219 -5.22695 0
M  V30 27643 H 2547.04 -5.11444 -4.70585 0
M  V30 27644 H 2550.23 -3.2417 -3.37685 0
M  V30 27645 H 2550.4 -4.6664 -4.49612 0
M  V30 27646 N 2543.81 1.24015 -0.972531 0
M  V30 27647 C 2544.74 2.24446 -0.464414 0
M  V30 27648 C 2545.76 1.57033 0.429472 0
M  V30 27649 O 2546.94 1.76948 0.234871 0
M  V30 27650 C 2544.04 3.37105 0.348326 0
M  V30 27651 C 2543.22 4.34093 -0.536806 0
M  V30 27652 C 2542.28 5.25737 0.220745 0
M  V30 27653 O 2541.3 5.67883 -0.386967 0
M  V30 27654 N 2542.5 5.60545 1.50897 0
M  V30 27655 H 2545.27 2.68675 -1.32793 0
M  V30 27656 H 2542.83 1.38105 -0.844901 0
M  V30 27657 H 2544.82 3.95386 0.863271 0
M  V30 27658 H 2543.39 2.92123 1.1128 0
M  V30 27659 H 2542.61 3.74431 -1.23267 0
M  V30 27660 H 2543.9 4.95857 -1.14031 0
M  V30 27661 H 2543.3 5.28239 2.02435 0
M  V30 27662 H 2541.86 6.21332 1.96951 0
M  V30 27663 N 2545.29 0.743226 1.38974 0
M  V30 27664 C 2546.25 0.117055 2.28901 0
M  V30 27665 C 2547.25 -0.658477 1.46699 0
M  V30 27666 O 2548.44 -0.486276 1.67275 0
M  V30 27667 C 2545.57 -0.843092 3.3031 0
M  V30 27668 H 2546.77 0.909423 2.85779 0
M  V30 27669 H 2544.32 0.509573 1.4776 0
M  V30 27670 H 2545.05 -1.66152 2.78503 0
M  V30 27671 H 2544.84 -0.289525 3.9103 0
M  V30 27672 H 2546.33 -1.27753 3.97579 0
M  V30 27673 N 2546.77 -1.4974 0.491491 0
M  V30 27674 C 2547.7 -2.26833 -0.328569 0
M  V30 27675 C 2548.71 -1.32985 -0.93909 0
M  V30 27676 O 2549.9 -1.58341 -0.824039 0
M  V30 27677 C 2547 -3.05036 -1.47669 0
M  V30 27678 C 2546.17 -4.2639 -0.97523 0
M  V30 27679 C 2545.23 -4.86717 -1.99982 0
M  V30 27680 O 2544.26 -5.47056 -1.5722 0
M  V30 27681 N 2545.46 -4.75523 -3.32954 0
M  V30 27682 H 2548.23 -2.97851 0.33243 0
M  V30 27683 H 2545.79 -1.58636 0.323469 0
M  V30 27684 H 2547.78 -3.4227 -2.15948 0
M  V30 27685 H 2546.35 -2.36686 -2.04202 0
M  V30 27686 H 2545.57 -3.94024 -0.117653 0
M  V30 27687 H 2546.86 -5.05027 -0.618442 0
M  V30 27688 H 2546.25 -4.27582 -3.70392 0
M  V30 27689 H 2544.81 -5.16968 -3.96973 0
M  V30 27690 N 2548.24 -0.224922 -1.55987 0
M  V30 27691 C 2549.18 0.716186 -2.17723 0
M  V30 27692 C 2550.19 1.15507 -1.14725 0
M  V30 27693 O 2551.38 1.08564 -1.4169 0
M  V30 27694 C 2548.48 1.98233 -2.74876 0
M  V30 27695 C 2547.65 1.69846 -4.03077 0
M  V30 27696 C 2546.71 2.812 -4.44762 0
M  V30 27697 O 2545.74 2.49525 -5.11591 0
M  V30 27698 N 2546.94 4.10227 -4.10723 0
M  V30 27699 H 2549.7 0.188071 -2.99109 0
M  V30 27700 H 2547.26 -0.0440408 -1.6184 0
M  V30 27701 H 2549.26 2.71925 -2.99732 0
M  V30 27702 H 2547.83 2.42083 -1.97774 0
M  V30 27703 H 2547.05 0.797807 -3.86042 0
M  V30 27704 H 2548.33 1.48315 -4.86703 0
M  V30 27705 H 2547.73 4.38803 -3.57027 0
M  V30 27706 H 2546.29 4.80453 -4.40464 0
M  V30 27707 N 2549.72 1.57526 0.0484352 0
M  V30 27708 C 2551 1.79487 0.777415 0
M  V30 27709 C 2551.38 0.818286 1.94595 0
M  V30 27710 O 2550.73 -0.143726 2.28048 0
M  V30 27711 C 2550.94 3.2666 1.22858 0
M  V30 27712 C 2552.29 3.91126 1.65245 0
M  V30 27713 O 2553.31 3.30693 1.32366 0
M  V30 27714 O 2552.17 4.9749 2.26198 0
M  V30 27715 H 2549.26 0.737425 0.374344 0
M  V30 27716 H 2551.81 1.69679 0.026706 0
M  V30 27717 H 2550.58 3.89316 0.393521 0
M  V30 27718 H 2550.2 3.41283 2.0399 0
M  V30 27719 N 2551.2 -0.32033 1.5431 0
M  V30 27720 C 2552.62 -0.664864 1.45092 0
M  V30 27721 C 2552.82 -1.91516 0.626416 0
M  V30 27722 O 2551.87 -2.52183 0.126487 0
M  V30 27723 C 2553.19 -0.83586 2.88849 0
M  V30 27724 C 2554.73 -0.932993 2.98771 0
M  V30 27725 C 2555.21 -1.13613 4.43685 0
M  V30 27726 N 2556.7 -1.2028 4.47311 0
M  V30 27727 C 2557.43 -1.37792 5.56598 0
M  V30 27728 N 2556.93 -1.52326 6.75847 0
M  V30 27729 N 2558.72 -1.40526 5.44251 0
M  V30 27730 H 2550.87 0.50141 2.06397 0
M  V30 27731 H 2553.14 0.162551 0.93396 0
M  V30 27732 H 2552.84 0.011671 3.51698 0
M  V30 27733 H 2552.72 -1.73072 3.35151 0
M  V30 27734 H 2555.1 -1.77103 2.36048 0
M  V30 27735 H 2555.19 -0.0145333 2.55796 0
M  V30 27736 H 2554.83 -0.302943 5.06996 0
M  V30 27737 H 2554.76 -2.06852 4.84272 0
M  V30 27738 H 2557.25 -1.10478 3.6139 0
M  V30 27739 H 2557.56 -1.65389 7.54895 0
M  V30 27740 H 2555.91 -1.49418 6.78748 0
M  V30 27741 H 2559.1 -1.28769 4.5004 0
M  V30 27742 H 2559.27 -1.53831 6.29476 0
M  V30 27743 N 2552.68 -1.46438 -0.582558 0
M  V30 27744 C 2553.96 -1.42232 -1.34274 0
M  V30 27745 C 2554.34 -0.105867 -2.10834 0
M  V30 27746 O 2553.68 0.912559 -2.09487 0
M  V30 27747 C 2553.89 -2.65208 -2.26861 0
M  V30 27748 C 2555.24 -3.11362 -2.88685 0
M  V30 27749 O 2556.27 -2.65757 -2.37174 0
M  V30 27750 O 2555.12 -3.90574 -3.82248 0
M  V30 27751 H 2552.22 -0.565631 -0.603316 0
M  V30 27752 H 2554.76 -1.58604 -0.603563 0
M  V30 27753 H 2553.54 -3.52579 -1.69717 0
M  V30 27754 H 2553.16 -2.51295 -3.08117 0
M  V30 27755 N 2554.16 0.827204 -1.34146 0
M  V30 27756 C 2555.07 1.96973 -1.27432 0
M  V30 27757 C 2556.08 1.73038 -0.182758 0
M  V30 27758 O 2557.26 1.97214 -0.408461 0
M  V30 27759 C 2554.32 3.31192 -1.02532 0
M  V30 27760 C 2553.38 3.68164 -2.20802 0
M  V30 27761 C 2552.62 4.95978 -1.97081 0
M  V30 27762 O 2552.84 5.62818 -0.926921 0
M  V30 27763 O 2551.77 5.30728 -2.83921 0
M  V30 27764 H 2555.6 2.0558 -2.23541 0
M  V30 27765 H 2553.19 0.961969 -1.14309 0
M  V30 27766 H 2555.07 4.11587 -0.904099 0
M  V30 27767 H 2553.74 3.23562 -0.0945958 0
M  V30 27768 H 2552.65 2.88231 -2.38483 0
M  V30 27769 H 2553.98 3.80474 -3.1225 0
M  V30 27770 N 2555.63 1.17805 1.04688 0
M  V30 27771 C 2556.57 0.842802 2.12066 0
M  V30 27772 C 2557.55 -0.192579 1.61456 0
M  V30 27773 O 2558.73 -0.0729619 1.88359 0
M  V30 27774 C 2555.86 0.258123 3.37715 0
M  V30 27775 C 2554.9 1.2697 4.07162 0
M  V30 27776 S 2555.74 2.82307 4.55042 0
M  V30 27777 C 2556.89 2.25333 5.83931 0
M  V30 27778 H 2557.12 1.75221 2.40177 0
M  V30 27779 H 2554.66 1.00325 1.17364 0
M  V30 27780 H 2556.62 -0.0727213 4.10436 0
M  V30 27781 H 2555.28 -0.629303 3.07731 0
M  V30 27782 H 2554.47 0.809351 4.97459 0
M  V30 27783 H 2554.07 1.54645 3.4053 0
M  V30 27784 H 2556.36 1.63204 6.57549 0
M  V30 27785 H 2557.31 3.13905 6.3472 0
M  V30 27786 H 2557.71 1.68591 5.38737 0
M  V30 27787 N 2557.11 -1.23497 0.979094 0
M  V30 27788 C 2558.08 -2.23147 0.523283 0
M  V30 27789 C 2559.08 -1.56089 -0.386379 0
M  V30 27790 O 2560.27 -1.73265 -0.180252 0
M  V30 27791 C 2557.4 -3.40049 -0.240679 0
M  V30 27792 H 2558.59 -2.64986 1.40436 0
M  V30 27793 H 2556.14 -1.36308 0.764848 0
M  V30 27794 H 2556.88 -3.03664 -1.13836 0
M  V30 27795 H 2556.66 -3.89927 0.412275 0
M  V30 27796 H 2558.15 -4.13986 -0.548225 0
M  V30 27797 N 2558.59 -0.750586 -1.38578 0
M  V30 27798 C 2559.87 -0.231043 -1.94231 0
M  V30 27799 C 2560.25 1.27015 -1.68613 0
M  V30 27800 O 2559.6 2.04321 -1.023 0
M  V30 27801 C 2559.81 -0.581489 -3.44122 0
M  V30 27802 C 2561.15 -0.539463 -4.21159 0
M  V30 27803 O 2562.18 -0.519603 -3.5239 0
M  V30 27804 O 2561.04 -0.547745 -5.43748 0
M  V30 27805 H 2558.13 -0.0474408 -0.825638 0
M  V30 27806 H 2560.68 -0.830504 -1.47989 0
M  V30 27807 H 2559.45 -1.61839 -3.56264 0
M  V30 27808 H 2559.07 0.0461348 -3.97573 0
M  V30 27809 N 2560.07 1.49477 -0.499425 0
M  V30 27810 C 2560.98 2.32869 0.284448 0
M  V30 27811 C 2562 1.44531 0.968859 0
M  V30 27812 O 2563.17 1.77555 0.950589 0
M  V30 27813 C 2560.24 3.1993 1.33588 0
M  V30 27814 C 2559.3 4.24117 0.665075 0
M  V30 27815 C 2558.53 5.07017 1.66641 0
M  V30 27816 O 2558.75 4.91409 2.89609 0
M  V30 27817 O 2557.69 5.89352 1.2226 0
M  V30 27818 H 2561.51 3.0108 -0.398073 0
M  V30 27819 H 2559.1 1.47106 -0.260784 0
M  V30 27820 H 2560.98 3.73868 1.94424 0
M  V30 27821 H 2559.66 2.54416 2.00136 0
M  V30 27822 H 2558.56 3.74096 0.0170112 0
M  V30 27823 H 2559.9 4.92182 0.042069 0
M  V30 27824 N 2561.55 0.233191 1.55865 0
M  V30 27825 C 2562.79 -0.395924 1.98898 0
M  V30 27826 C 2563.13 -1.58583 1.12094 0
M  V30 27827 O 2562.4 -1.93654 0.181216 0
M  V30 27828 C 2562.68 -0.819162 3.50659 0
M  V30 27829 C 2562.54 0.375187 4.48233 0
M  V30 27830 C 2563.86 -1.67114 4.07138 0
M  V30 27831 H 2560.98 -0.142438 0.723105 0
M  V30 27832 H 2563.62 0.331758 1.87081 0
M  V30 27833 H 2561.77 -1.43919 3.6086 0
M  V30 27834 H 2563.44 1.01349 4.50029 0
M  V30 27835 H 2561.68 1.02065 4.21622 0
M  V30 27836 H 2562.35 0.0359299 5.51988 0
M  V30 27837 H 2564.83 -1.14788 3.99954 0
M  V30 27838 H 2563.71 -1.93615 5.13619 0
M  V30 27839 H 2563.97 -2.6384 3.54741 0
M  V30 27840 N 2563.03 -1.57549 -0.0400806 0
M  V30 27841 C 2563.99 -2.04819 -1.02868 0
M  V30 27842 C 2564.99 -0.950411 -1.29707 0
M  V30 27843 O 2566.18 -1.21437 -1.24895 0
M  V30 27844 C 2563.31 -2.4558 -2.36438 0
M  V30 27845 H 2564.5 -2.93409 -0.620579 0
M  V30 27846 H 2562.06 -1.53649 -0.28664 0
M  V30 27847 H 2562.79 -1.60113 -2.82018 0
M  V30 27848 H 2562.58 -3.25717 -2.18291 0
M  V30 27849 H 2564.07 -2.82618 -3.07436 0
M  V30 27850 N 2564.5 0.312142 -1.54478 0
M  V30 27851 C 2565.45 1.40466 -1.85397 0
M  V30 27852 C 2566.45 1.53017 -0.726776 0
M  V30 27853 O 2567.65 1.55267 -0.910609 0
M  V30 27854 H 2564.03 0.46897 -0.587853 0
M  V30 27855 H 2566 1.11618 -2.76738 0
M  V30 27856 C 2564.75 2.765 -2.10816 0
M  V30 27857 H 2564.07 2.67619 -2.97018 0
M  V30 27858 H 2565.51 3.51984 -2.36396 0
M  V30 27859 C 2563.97 3.24567 -0.903222 0
M  V30 27860 O 2564.5 4.01526 -0.118155 0
M  V30 27861 N 2562.7 2.81751 -0.711684 0
M  V30 27862 H 2562.25 2.19284 -1.35175 0
M  V30 27863 H 2562.21 3.14262 0.0929921 0
M  V30 27864 N 2565.98 1.46745 0.574784 0
M  V30 27865 C 2567.23 1.52163 1.33006 0
M  V30 27866 C 2567.55 0.178126 1.94185 0
M  V30 27867 O 2566.82 -0.796165 1.78992 0
M  V30 27868 H 2565.4 0.560454 0.493863 0
M  V30 27869 H 2568.06 1.82928 0.672557 0
M  V30 27870 H 2567.16 2.27866 2.13269 0
M  V30 27871 N 2567.46 -0.820078 1.34583 0
M  V30 27872 C 2568.41 -1.95255 1.26404 0
M  V30 27873 C 2569.4 -1.68628 0.161583 0
M  V30 27874 O 2570.61 -1.7701 0.326734 0
M  V30 27875 H 2566.98 -0.641283 0.39276 0
M  V30 27876 H 2568.95 -1.99275 2.22108 0
M  V30 27877 C 2567.7 -3.31806 1.03925 0
M  V30 27878 H 2567.03 -3.52845 1.87991 0
M  V30 27879 H 2568.47 -4.11489 1.02239 0
M  V30 27880 C 2566.92 -3.35915 -0.257374 0
M  V30 27881 O 2567.45 -3.81501 -1.25778 0
M  V30 27882 N 2565.66 -2.89135 -0.291473 0
M  V30 27883 H 2565.21 -2.52231 0.523205 0
M  V30 27884 H 2565.17 -2.92266 -1.15878 0
M  V30 27885 N 2568.94 -1.18359 -1.04062 0
M  V30 27886 C 2569.87 -0.93415 -2.14 0
M  V30 27887 C 2570.85 0.128156 -1.69617 0
M  V30 27888 O 2572.03 -0.0244434 -1.94185 0
M  V30 27889 C 2569.16 -0.459127 -3.44252 0
M  V30 27890 C 2568.12 -1.46192 -4.02258 0
M  V30 27891 C 2567.44 -0.844415 -5.2799 0
M  V30 27892 C 2568.74 -2.83864 -4.38427 0
M  V30 27893 H 2570.44 -1.85356 -2.35124 0
M  V30 27894 H 2567.98 -0.892624 -1.12997 0
M  V30 27895 H 2569.94 -0.271981 -4.20521 0
M  V30 27896 H 2568.66 0.495856 -3.22814 0
M  V30 27897 H 2567.32 -1.63601 -3.28071 0
M  V30 27898 H 2566.97 0.117756 -5.02862 0
M  V30 27899 H 2566.67 -1.51394 -5.67762 0
M  V30 27900 H 2568.19 -0.6678 -6.06937 0
M  V30 27901 H 2569.61 -2.70107 -5.05683 0
M  V30 27902 H 2568 -3.475 -4.89248 0
M  V30 27903 H 2569.07 -3.37412 -3.48254 0
M  V30 27904 N 2570.42 1.22976 -0.98563 0
M  V30 27905 C 2571.64 1.96098 -0.675289 0
M  V30 27906 C 2572.07 1.72409 0.752124 0
M  V30 27907 O 2571.42 0.998778 1.51308 0
M  V30 27908 C 2571.47 3.47085 -0.97796 0
M  V30 27909 O 2570.58 4.12336 -0.0727575 0
M  V30 27910 H 2569.92 0.613724 -0.253454 0
M  V30 27911 H 2572.45 1.5627 -1.32064 0
M  V30 27912 H 2572.46 3.97566 -0.916809 0
M  V30 27913 H 2571.13 3.63654 -2.01813 0
M  V30 27914 H 2569.71 3.72422 -0.188768 0
M  V30 27915 N 2571.89 0.757924 1.38178 0
M  V30 27916 C 2572.84 0.133097 2.30416 0
M  V30 27917 C 2573.81 -0.70493 1.50399 0
M  V30 27918 O 2575 -0.660161 1.79015 0
M  V30 27919 C 2572.14 -0.750754 3.36835 0
M  V30 27920 C 2571.25 0.102373 4.31879 0
M  V30 27921 C 2570.38 -0.784887 5.25369 0
M  V30 27922 C 2569.42 0.0716122 6.12058 0
M  V30 27923 N 2568.56 -0.772849 6.97833 0
M  V30 27924 H 2573.4 0.925235 2.83273 0
M  V30 27925 H 2570.94 0.46789 1.3946 0
M  V30 27926 H 2572.89 -1.27787 3.97148 0
M  V30 27927 H 2571.52 -1.50863 2.85377 0
M  V30 27928 H 2570.58 0.74716 3.7299 0
M  V30 27929 H 2571.89 0.763639 4.9292 0
M  V30 27930 H 2571.04 -1.37901 5.9082 0
M  V30 27931 H 2569.78 -1.47987 4.64705 0
M  V30 27932 H 2568.79 0.678368 5.45599 0
M  V30 27933 H 2570.01 0.763725 6.74792 0
M  V30 27934 H 2567.96 -1.45271 6.39713 0
M  V30 27935 H 2567.87 -0.168576 7.55812 0
M  V30 27936 H 2569.14 -1.3518 7.67689 0
M  V30 27937 N 2573.37 -1.4921 0.507345 0
M  V30 27938 C 2574.34 -2.27758 -0.256723 0
M  V30 27939 C 2575.34 -1.34039 -0.888264 0
M  V30 27940 O 2576.53 -1.57141 -0.751813 0
M  V30 27941 C 2573.66 -3.12204 -1.36899 0
M  V30 27942 H 2574.85 -2.96763 0.432609 0
M  V30 27943 H 2572.4 -1.5408 0.262515 0
M  V30 27944 H 2573.14 -2.47778 -2.09228 0
M  V30 27945 H 2572.92 -3.81117 -0.921532 0
M  V30 27946 H 2574.41 -3.71513 -1.90704 0
M  V30 27947 N 2574.85 -0.241454 -1.55739 0
M  V30 27948 C 2575.81 0.647025 -2.19878 0
M  V30 27949 C 2576.81 1.10684 -1.16644 0
M  V30 27950 O 2578 1.01243 -1.41759 0
M  V30 27951 C 2575.14 1.88866 -2.838 0
M  V30 27952 H 2576.33 0.0875213 -2.99772 0
M  V30 27953 H 2573.88 0.00810826 -1.56298 0
M  V30 27954 H 2574.62 2.48953 -2.07829 0
M  V30 27955 H 2574.4 1.56722 -3.59417 0
M  V30 27956 H 2575.89 2.52123 -3.32902 0
M  V30 27957 N 2576.33 1.57568 0.0317248 0
M  V30 27958 C 2577.58 1.88331 0.722098 0
M  V30 27959 C 2577.89 0.839618 1.76663 0
M  V30 27960 O 2579.1 1.03639 2.50941 0
M  V30 27961 C 2577.55 3.34209 1.33538 0
M  V30 27962 C 2577.16 4.46803 0.327336 0
M  V30 27963 C 2578.9 3.74124 2.00579 0
M  V30 27964 C 2576.81 5.83739 0.948812 0
M  V30 27965 H 2575.74 0.702666 0.273453 0
M  V30 27966 H 2578.39 1.83485 -0.0236134 0
M  V30 27967 H 2576.77 3.33792 2.13071 0
M  V30 27968 H 2577.95 4.58684 -0.441086 0
M  V30 27969 H 2576.26 4.15703 -0.240831 0
M  V30 27970 H 2578.86 4.73749 2.47924 0
M  V30 27971 H 2579.2 3.0598 2.8228 0
M  V30 27972 H 2579.74 3.76704 1.27824 0
M  V30 27973 H 2576.48 6.55276 0.171271 0
M  V30 27974 H 2576 5.75583 1.68714 0
M  V30 27975 H 2577.67 6.30383 1.45694 0
M  V30 27976 N 2577.81 -0.303946 1.54641 0
M  V30 27977 C 2578.74 -1.37957 1.88389 0
M  V30 27978 C 2579.72 -1.53038 0.742512 0
M  V30 27979 O 2580.9 -1.66595 0.997988 0
M  V30 27980 C 2578.03 -2.74424 2.12859 0
M  V30 27981 C 2576.99 -2.7411 3.28706 0
M  V30 27982 C 2576.31 -4.13838 3.38589 0
M  V30 27983 C 2577.61 -2.36112 4.65885 0
M  V30 27984 H 2579.31 -1.09961 2.78476 0
M  V30 27985 H 2576.85 -0.527533 1.33989 0
M  V30 27986 H 2578.81 -3.49754 2.35053 0
M  V30 27987 H 2577.53 -3.03937 1.1954 0
M  V30 27988 H 2576.19 -2.01235 3.06431 0
M  V30 27989 H 2575.84 -4.40524 2.42792 0
M  V30 27990 H 2575.54 -4.1453 4.1646 0
M  V30 27991 H 2577.06 -4.90953 3.6304 0
M  V30 27992 H 2578.47 -3.01158 4.87829 0
M  V30 27993 H 2576.87 -2.48021 5.46448 0
M  V30 27994 H 2577.94 -1.31241 4.66802 0
M  V30 27995 N 2579.28 -1.47047 -0.566994 0
M  V30 27996 C 2580.19 -1.61413 -1.70244 0
M  V30 27997 C 2581.21 -0.497186 -1.66745 0
M  V30 27998 O 2582.39 -0.763422 -1.8637 0
M  V30 27999 C 2579.45 -1.61566 -3.06753 0
M  V30 28000 C 2578.51 -2.84613 -3.21394 0
M  V30 28001 C 2577.75 -2.84749 -4.51391 0
M  V30 28002 O 2577.97 -1.94398 -5.36252 0
M  V30 28003 O 2576.9 -3.76491 -4.69615 0
M  V30 28004 H 2580.73 -2.5747 -1.61069 0
M  V30 28005 H 2578.31 -1.3002 -0.735871 0
M  V30 28006 H 2580.2 -1.64403 -3.88007 0
M  V30 28007 H 2578.87 -0.686739 -3.16331 0
M  V30 28008 H 2577.78 -2.87324 -2.39574 0
M  V30 28009 H 2579.11 -3.76766 -3.16714 0
M  V30 28010 N 2580.76 0.812929 -1.35016 0
M  V30 28011 C 2581.67 1.9561 -1.29514 0
M  V30 28012 C 2582.69 1.72834 -0.201101 0
M  V30 28013 O 2583.86 1.9677 -0.429355 0
M  V30 28014 C 2580.93 3.30086 -1.06039 0
M  V30 28015 C 2579.99 3.65802 -2.24695 0
M  V30 28016 C 2579.22 4.9386 -2.02331 0
M  V30 28017 O 2579.45 5.61803 -0.986563 0
M  V30 28018 O 2578.38 5.27687 -2.89534 0
M  V30 28019 H 2582.21 2.03198 -2.25709 0
M  V30 28020 H 2579.79 0.94979 -1.15323 0
M  V30 28021 H 2581.67 4.10605 -0.947702 0
M  V30 28022 H 2580.35 3.23443 -0.128909 0
M  V30 28023 H 2579.26 2.85685 -2.41526 0
M  V30 28024 H 2580.59 3.77141 -3.16268 0
M  V30 28025 N 2582.24 1.18909 1.03433 0
M  V30 28026 C 2583.19 0.921874 2.11589 0
M  V30 28027 C 2584.16 -0.141197 1.65499 0
M  V30 28028 O 2585.34 -0.000209291 1.908 0
M  V30 28029 C 2582.48 0.460676 3.42011 0
M  V30 28030 C 2581.6 1.58989 4.01679 0
M  V30 28031 C 2580.73 1.08078 5.20089 0
M  V30 28032 C 2579.77 2.18426 5.71801 0
M  V30 28033 N 2578.91 1.68861 6.81491 0
M  V30 28034 H 2583.75 1.84795 2.33784 0
M  V30 28035 H 2581.28 0.921393 1.14668 0
M  V30 28036 H 2583.24 0.174715 4.16834 0
M  V30 28037 H 2581.87 -0.42841 3.19945 0
M  V30 28038 H 2580.92 1.99119 3.24123 0
M  V30 28039 H 2582.24 2.42148 4.3608 0
M  V30 28040 H 2581.39 0.749721 6.0205 0
M  V30 28041 H 2580.13 0.218857 4.87209 0
M  V30 28042 H 2579.13 2.52368 4.88457 0
M  V30 28043 H 2580.36 3.05064 6.06723 0
M  V30 28044 H 2578.3 0.849686 6.50474 0
M  V30 28045 H 2578.22 2.45613 7.1499 0
M  V30 28046 H 2579.49 1.38702 7.67061 0
M  V30 28047 N 2583.72 -1.22452 0.992137 0
M  V30 28048 C 2585.13 -1.43296 0.702739 0
M  V30 28049 C 2585.33 -1.87933 -0.726876 0
M  V30 28050 O 2584.39 -2.03273 -1.49788 0
M  V30 28051 C 2585.7 -2.47506 1.70766 0
M  V30 28052 C 2587.25 -2.61306 1.72302 0
M  V30 28053 C 2587.73 -3.68737 2.71656 0
M  V30 28054 N 2589.22 -3.76194 2.70245 0
M  V30 28055 C 2589.95 -4.58911 3.43786 0
M  V30 28056 N 2589.45 -5.45626 4.26924 0
M  V30 28057 N 2591.24 -4.53214 3.32495 0
M  V30 28058 H 2583.39 -0.917837 1.91545 0
M  V30 28059 H 2585.66 -0.465148 0.82604 0
M  V30 28060 H 2585.36 -2.21652 2.73063 0
M  V30 28061 H 2585.24 -3.46096 1.49991 0
M  V30 28062 H 2587.62 -2.86505 0.707039 0
M  V30 28063 H 2587.7 -1.62994 1.97146 0
M  V30 28064 H 2587.35 -3.44286 3.73403 0
M  V30 28065 H 2587.28 -4.66617 2.44082 0
M  V30 28066 H 2589.77 -3.14234 2.09918 0
M  V30 28067 H 2590.08 -6.05763 4.79866 0
M  V30 28068 H 2588.43 -5.4521 4.31011 0
M  V30 28069 H 2591.62 -3.84494 2.66987 0
M  V30 28070 H 2591.79 -5.17448 3.90067 0
M  V30 28071 N 2585.2 -0.765242 -1.37774 0
M  V30 28072 C 2586.13 -0.105402 -2.28958 0
M  V30 28073 C 2587.14 0.671254 -1.48317 0
M  V30 28074 O 2588.33 0.51042 -1.71047 0
M  V30 28075 C 2585.43 0.874511 -3.27423 0
M  V30 28076 C 2584.6 0.153046 -4.37132 0
M  V30 28077 C 2583.66 1.04538 -5.15711 0
M  V30 28078 O 2582.69 0.511572 -5.66896 0
M  V30 28079 N 2583.89 2.37233 -5.29812 0
M  V30 28080 H 2586.66 -0.888545 -2.86225 0
M  V30 28081 H 2584.22 -0.617027 -1.49681 0
M  V30 28082 H 2586.21 1.47476 -3.76873 0
M  V30 28083 H 2584.78 1.55866 -2.7097 0
M  V30 28084 H 2584 -0.628044 -3.89165 0
M  V30 28085 H 2585.29 -0.345732 -5.07624 0
M  V30 28086 H 2584.68 2.83045 -4.89798 0
M  V30 28087 H 2583.24 2.9228 -5.82594 0
M  V30 28088 N 2586.67 1.48939 -0.515251 0
M  V30 28089 C 2587.6 2.32215 0.244587 0
M  V30 28090 C 2588.59 1.41159 0.949111 0
M  V30 28091 O 2589.77 1.70058 0.937753 0
M  V30 28092 C 2586.9 3.22015 1.30091 0
M  V30 28093 C 2585.85 4.21978 0.715412 0
M  V30 28094 C 2585.18 5.00811 1.8733 0
M  V30 28095 C 2586.48 5.2142 -0.303073 0
M  V30 28096 H 2588.17 2.95991 -0.450553 0
M  V30 28097 H 2585.72 1.42338 -0.218123 0
M  V30 28098 H 2587.67 3.79092 1.84031 0
M  V30 28099 H 2586.4 2.56211 2.02543 0
M  V30 28100 H 2585.06 3.66067 0.197651 0
M  V30 28101 H 2584.7 4.31443 2.58585 0
M  V30 28102 H 2584.4 5.68459 1.48754 0
M  V30 28103 H 2585.93 5.60736 2.41677 0
M  V30 28104 H 2587.34 5.73107 0.148701 0
M  V30 28105 H 2585.74 5.97038 -0.605425 0
M  V30 28106 H 2586.81 4.69456 -1.21403 0
M  V30 28107 N 2588.15 0.249709 1.55609 0
M  V30 28108 C 2589.06 -0.659335 2.25144 0
M  V30 28109 C 2590.08 -1.19099 1.26852 0
M  V30 28110 O 2591.26 -1.22666 1.59734 0
M  V30 28111 C 2588.32 -1.83834 2.93949 0
M  V30 28112 C 2587.38 -1.34589 4.07657 0
M  V30 28113 C 2586.61 -2.4687 4.73171 0
M  V30 28114 O 2586.84 -3.65663 4.37775 0
M  V30 28115 O 2585.77 -2.16469 5.61627 0
M  V30 28116 H 2589.6 -0.0968165 3.03546 0
M  V30 28117 H 2587.18 0.0181003 1.49389 0
M  V30 28118 H 2589.06 -2.52632 3.37276 0
M  V30 28119 H 2587.74 -2.38843 2.18485 0
M  V30 28120 H 2586.65 -0.625109 3.6884 0
M  V30 28121 H 2587.98 -0.841855 4.84947 0
M  V30 28122 N 2589.63 -1.57583 -0.0233682 0
M  V30 28123 C 2590.88 -1.89157 -0.711621 0
M  V30 28124 C 2591.2 -0.848127 -1.7559 0
M  V30 28125 O 2590.47 0.117532 -1.95547 0
M  V30 28126 H 2589.05 -0.698102 -0.265823 0
M  V30 28127 H 2591.71 -1.94896 0.012029 0
M  V30 28128 H 2590.81 -2.88208 -1.19761 0
M  V30 28129 N 2591.11 0.29574 -1.548 0
M  V30 28130 C 2592.53 0.641697 -1.46131 0
M  V30 28131 C 2592.73 1.90495 -0.656805 0
M  V30 28132 O 2591.78 2.5195 -0.166591 0
M  V30 28133 C 2593.09 0.789801 -2.90142 0
M  V30 28134 C 2594.64 0.885343 -3.00218 0
M  V30 28135 C 2595.12 1.0654 -4.45436 0
M  V30 28136 N 2596.61 1.13148 -4.49168 0
M  V30 28137 C 2597.34 1.28919 -5.58719 0
M  V30 28138 N 2596.84 1.41555 -6.78184 0
M  V30 28139 N 2598.63 1.31849 -5.46418 0
M  V30 28140 H 2590.78 -0.534183 -2.05573 0
M  V30 28141 H 2593.05 -0.177389 -0.931256 0
M  V30 28142 H 2592.75 -0.0676217 -3.51635 0
M  V30 28143 H 2592.63 1.67718 -3.37862 0
M  V30 28144 H 2595.01 1.73325 -2.38836 0
M  V30 28145 H 2595.09 -0.0261635 -2.55787 0
M  V30 28146 H 2594.74 0.222246 -5.07414 0
M  V30 28147 H 2594.67 1.99121 -4.87502 0
M  V30 28148 H 2597.16 1.04715 -3.63102 0
M  V30 28149 H 2597.47 1.53359 -7.5743 0
M  V30 28150 H 2595.82 1.38601 -6.8104 0
M  V30 28151 H 2599.01 1.21593 -4.52032 0
M  V30 28152 H 2599.18 1.43797 -6.31844 0
M  V30 28153 N 2592.59 1.47346 0.559187 0
M  V30 28154 C 2593.52 1.62561 1.67619 0
M  V30 28155 C 2594.5 0.475115 1.6333 0
M  V30 28156 O 2595.68 0.704214 1.80982 0
M  V30 28157 C 2592.81 1.6378 3.06257 0
M  V30 28158 C 2591.77 2.78036 3.25392 0
M  V30 28159 C 2591.09 2.64326 4.64796 0
M  V30 28160 C 2592.39 4.19646 3.10957 0
M  V30 28161 H 2594.09 2.56069 1.55142 0
M  V30 28162 H 2591.63 1.23234 0.74494 0
M  V30 28163 H 2593.59 1.73015 3.84244 0
M  V30 28164 H 2592.31 0.668306 3.19689 0
M  V30 28165 H 2590.97 2.68308 2.49812 0
M  V30 28166 H 2590.62 1.65409 4.75025 0
M  V30 28167 H 2590.32 3.40977 4.78549 0
M  V30 28168 H 2591.84 2.75487 5.44921 0
M  V30 28169 H 2593.26 4.30361 3.78764 0
M  V30 28170 H 2591.65 4.97068 3.3622 0
M  V30 28171 H 2592.72 4.38152 2.07729 0
M  V30 28172 N 2594.07 -0.805758 1.35445 0
M  V30 28173 C 2595.31 -1.5598 1.2851 0
M  V30 28174 C 2595.63 -1.94497 -0.140012 0
M  V30 28175 O 2594.9 -1.63663 -1.07663 0
M  V30 28176 H 2593.48 -0.578426 0.472686 0
M  V30 28177 H 2596.15 -0.961068 1.69557 0
M  V30 28178 H 2595.24 -2.47484 1.90153 0
M  V30 28179 N 2595.54 -1.19456 -1.02801 0
M  V30 28180 C 2596.48 -0.890844 -2.11179 0
M  V30 28181 C 2597.49 0.1168 -1.6238 0
M  V30 28182 O 2598.68 -0.112725 -1.78144 0
M  V30 28183 C 2595.78 -0.312002 -3.37461 0
M  V30 28184 C 2594.95 -1.36841 -4.15443 0
M  V30 28185 C 2594.01 -0.802955 -5.20038 0
M  V30 28186 O 2593.04 -1.48086 -5.49599 0
M  V30 28187 N 2594.24 0.393315 -5.79166 0
M  V30 28188 H 2597 -1.82373 -2.37824 0
M  V30 28189 H 2594.56 -1.09668 -1.19099 0
M  V30 28190 H 2596.56 0.0801514 -4.04621 0
M  V30 28191 H 2595.13 0.525186 -3.08157 0
M  V30 28192 H 2594.35 -1.93537 -3.4342 0
M  V30 28193 H 2595.63 -2.08023 -4.64332 0
M  V30 28194 H 2595.03 0.96156 -5.57468 0
M  V30 28195 H 2593.59 0.727237 -6.4773 0
M  V30 28196 N 2597.02 1.21924 -0.998617 0
M  V30 28197 C 2597.95 2.26342 -0.573728 0
M  V30 28198 C 2598.93 1.65275 0.402267 0
M  V30 28199 O 2600.12 1.91998 0.291649 0
M  V30 28200 C 2597.25 3.47136 0.106778 0
M  V30 28201 C 2596.2 4.20677 -0.788342 0
M  V30 28202 C 2595.53 5.34694 0.0253987 0
M  V30 28203 C 2596.83 4.78752 -2.08792 0
M  V30 28204 H 2598.52 2.62136 -1.44655 0
M  V30 28205 H 2596.07 1.26008 -0.696998 0
M  V30 28206 H 2598.02 4.19347 0.415457 0
M  V30 28207 H 2596.74 3.10454 1.01419 0
M  V30 28208 H 2595.4 3.50308 -1.08075 0
M  V30 28209 H 2595.05 4.94254 0.933902 0
M  V30 28210 H 2594.75 5.84824 -0.57054 0
M  V30 28211 H 2596.28 6.09718 0.32804 0
M  V30 28212 H 2597.69 5.42875 -1.84282 0
M  V30 28213 H 2596.09 5.39244 -2.63317 0
M  V30 28214 H 2597.16 3.98486 -2.76291 0
M  V30 28215 N 2598.5 0.772537 1.37367 0
M  V30 28216 C 2599.41 0.160122 2.34053 0
M  V30 28217 C 2600.43 -0.6787 1.60218 0
M  V30 28218 O 2601.6 -0.598436 1.92304 0
M  V30 28219 C 2598.67 -0.708122 3.39391 0
M  V30 28220 C 2597.73 0.147248 4.29047 0
M  V30 28221 C 2596.96 -0.679651 5.29355 0
M  V30 28222 O 2597.18 -1.91669 5.37233 0
M  V30 28223 O 2596.12 -0.0884386 6.01835 0
M  V30 28224 H 2599.94 0.959103 2.88158 0
M  V30 28225 H 2597.53 0.53371 1.39542 0
M  V30 28226 H 2599.41 -1.20377 4.03841 0
M  V30 28227 H 2598.09 -1.48528 2.87613 0
M  V30 28228 H 2596.99 0.68927 3.67695 0
M  V30 28229 H 2598.33 0.887508 4.84132 0
M  V30 28230 N 2599.98 -1.48664 0.523142 0
M  V30 28231 C 2600.89 -2.33292 -0.247365 0
M  V30 28232 C 2601.9 -1.46054 -0.945743 0
M  V30 28233 O 2603.08 -1.79045 -0.922221 0
M  V30 28234 C 2600.14 -3.22015 -1.28481 0
M  V30 28235 C 2599.21 -4.25121 -0.597517 0
M  V30 28236 C 2598.44 -5.09604 -1.58554 0
M  V30 28237 O 2598.66 -4.95954 -2.81754 0
M  V30 28238 O 2597.6 -5.91223 -1.12869 0
M  V30 28239 H 2601.42 -3.00408 0.445922 0
M  V30 28240 H 2599.01 -1.46673 0.284154 0
M  V30 28241 H 2600.89 -3.76914 -1.88452 0
M  V30 28242 H 2599.56 -2.57567 -1.96063 0
M  V30 28243 H 2598.47 -3.74076 0.0425064 0
M  V30 28244 H 2599.8 -4.92187 0.0362382 0
M  V30 28245 N 2601.46 -0.257958 -1.55475 0
M  V30 28246 C 2602.37 0.647386 -2.25491 0
M  V30 28247 C 2603.38 1.18424 -1.27482 0
M  V30 28248 O 2604.56 1.21817 -1.60382 0
M  V30 28249 C 2601.62 1.82273 -2.94919 0
M  V30 28250 C 2600.68 1.32425 -4.08365 0
M  V30 28251 C 2599.92 2.44357 -4.74474 0
M  V30 28252 O 2600.14 3.63336 -4.39708 0
M  V30 28253 O 2599.07 2.13487 -5.62767 0
M  V30 28254 H 2602.9 0.0807173 -3.03593 0
M  V30 28255 H 2600.48 -0.0260225 -1.49377 0
M  V30 28256 H 2602.37 2.5084 -3.38611 0
M  V30 28257 H 2601.04 2.37681 -2.19748 0
M  V30 28258 H 2599.95 0.60554 -3.69167 0
M  V30 28259 H 2601.28 0.816126 -4.85387 0
M  V30 28260 N 2602.93 1.57593 0.0150108 0
M  V30 28261 C 2603.86 2.10505 1.01044 0
M  V30 28262 C 2604.85 1.01074 1.36814 0
M  V30 28263 O 2606.03 1.28675 1.45452 0
M  V30 28264 C 2603.16 2.59602 2.30703 0
M  V30 28265 C 2602.11 3.73425 2.09136 0
M  V30 28266 C 2601.44 4.0878 3.44678 0
M  V30 28267 C 2602.74 5.01301 1.4661 0
M  V30 28268 H 2604.43 2.93926 0.569926 0
M  V30 28269 H 2601.98 1.41394 0.272699 0
M  V30 28270 H 2603.93 2.95243 3.00682 0
M  V30 28271 H 2602.66 1.73284 2.7684 0
M  V30 28272 H 2601.32 3.38155 1.41586 0
M  V30 28273 H 2600.96 3.19507 3.8849 0
M  V30 28274 H 2600.66 4.85456 3.31068 0
M  V30 28275 H 2602.19 4.46967 4.15996 0
M  V30 28276 H 2603.6 5.34809 2.06525 0
M  V30 28277 H 2602 5.82682 1.43534 0
M  V30 28278 H 2603.07 4.82958 0.433526 0
M  V30 28279 N 2604.41 -0.287527 1.54955 0
M  V30 28280 C 2605.32 -1.37733 1.89913 0
M  V30 28281 C 2606.34 -1.5479 0.794729 0
M  V30 28282 O 2607.51 -1.69196 1.09246 0
M  V30 28283 C 2604.58 -2.71896 2.15113 0
M  V30 28284 C 2603.64 -2.63709 3.38757 0
M  V30 28285 C 2602.87 -3.91473 3.62746 0
M  V30 28286 O 2603.1 -4.91473 2.89501 0
M  V30 28287 O 2602.03 -3.92553 4.56274 0
M  V30 28288 H 2605.86 -1.11087 2.82654 0
M  V30 28289 H 2603.44 -0.484782 1.41316 0
M  V30 28290 H 2605.32 -3.5125 2.32812 0
M  V30 28291 H 2604 -2.98358 1.25556 0
M  V30 28292 H 2602.91 -1.8278 3.26408 0
M  V30 28293 H 2604.24 -2.42198 4.28487 0
M  V30 28294 N 2605.89 -1.47641 -0.551365 0
M  V30 28295 C 2606.8 -1.6321 -1.68522 0
M  V30 28296 C 2607.82 -0.514844 -1.66209 0
M  V30 28297 O 2608.99 -0.783146 -1.8555 0
M  V30 28298 C 2606.06 -1.64811 -3.05022 0
M  V30 28299 C 2605.12 -2.88005 -3.18357 0
M  V30 28300 C 2604.35 -2.89521 -4.48345 0
M  V30 28301 O 2604.57 -2.00074 -5.3416 0
M  V30 28302 O 2603.51 -3.81451 -4.65595 0
M  V30 28303 H 2607.33 -2.59163 -1.58329 0
M  V30 28304 H 2604.92 -1.30794 -0.72204 0
M  V30 28305 H 2606.8 -1.68509 -3.86242 0
M  V30 28306 H 2605.48 -0.720252 -3.15585 0
M  V30 28307 H 2604.38 -2.89849 -2.36513 0
M  V30 28308 H 2605.72 -3.80104 -3.127 0
M  V30 28309 N 2607.37 0.798563 -1.3587 0
M  V30 28310 C 2608.28 1.94226 -1.31581 0
M  V30 28311 C 2609.29 1.72611 -0.219421 0
M  V30 28312 O 2610.47 1.96304 -0.450201 0
M  V30 28313 C 2607.54 3.28942 -1.09534 0
M  V30 28314 C 2606.6 3.63398 -2.28562 0
M  V30 28315 C 2605.83 4.91686 -2.07558 0
M  V30 28316 O 2606.05 5.60725 -1.04609 0
M  V30 28317 O 2604.99 5.24586 -2.95115 0
M  V30 28318 H 2608.81 2.00792 -2.27851 0
M  V30 28319 H 2606.4 0.937505 -1.16324 0
M  V30 28320 H 2608.28 4.09577 -0.991199 0
M  V30 28321 H 2606.95 3.23288 -0.163207 0
M  V30 28322 H 2605.86 2.83107 -2.44543 0
M  V30 28323 H 2607.19 3.73766 -3.2025 0
M  V30 28324 N 2608.85 1.19999 1.02166 0
M  V30 28325 C 2609.78 0.902031 2.10704 0
M  V30 28326 C 2610.79 -0.108187 1.6244 0
M  V30 28327 O 2611.98 0.122171 1.78081 0
M  V30 28328 C 2609.08 0.329894 3.37291 0
M  V30 28329 C 2608.25 1.39042 4.14712 0
M  V30 28330 C 2607.31 0.830523 5.19604 0
M  V30 28331 O 2606.34 1.50999 5.48806 0
M  V30 28332 N 2607.54 -0.362595 5.79366 0
M  V30 28333 H 2610.31 1.83632 2.36853 0
M  V30 28334 H 2607.87 1.10298 1.18516 0
M  V30 28335 H 2609.86 -0.0586922 4.04657 0
M  V30 28336 H 2608.43 -0.508837 3.08431 0
M  V30 28337 H 2607.65 1.95356 3.42388 0
M  V30 28338 H 2608.94 2.10482 4.63222 0
M  V30 28339 H 2608.33 -0.931983 5.5797 0
M  V30 28340 H 2606.89 -0.692876 6.48107 0
M  V30 28341 N 2610.32 -1.21392 1.00507 0
M  V30 28342 C 2611.55 -1.94999 0.706401 0
M  V30 28343 C 2611.97 -1.73583 -0.7246 0
M  V30 28344 O 2611.33 -1.02272 -1.497 0
M  V30 28345 C 2611.38 -3.45486 1.03306 0
M  V30 28346 O 2610.48 -4.12168 0.138347 0
M  V30 28347 H 2609.83 -0.609614 0.263186 0
M  V30 28348 H 2612.36 -1.54149 1.34533 0
M  V30 28349 H 2612.37 -3.96057 0.979942 0
M  V30 28350 H 2611.04 -3.60397 2.07573 0
M  V30 28351 H 2609.62 -3.72074 0.247994 0
M  V30 28352 N 2611.8 -0.779811 -1.36955 0
M  V30 28353 C 2612.75 -0.159461 -2.32053 0
M  V30 28354 C 2613.74 0.675851 -1.55334 0
M  V30 28355 O 2614.95 0.57201 -1.70669 0
M  V30 28356 H 2611.33 -0.0327839 -0.751285 0
M  V30 28357 H 2613.3 -0.977128 -2.81948 0
M  V30 28358 C 2612.05 0.698917 -3.40603 0
M  V30 28359 H 2611.37 0.0655263 -3.99746 0
M  V30 28360 H 2612.81 1.09981 -4.09488 0
M  V30 28361 C 2611.27 1.85302 -2.81362 0
M  V30 28362 O 2611.8 2.94902 -2.72756 0
M  V30 28363 N 2610 1.65614 -2.38789 0
M  V30 28364 H 2609.55 0.764681 -2.45989 0
M  V30 28365 H 2609.51 2.42998 -1.99498 0
M  V30 28366 N 2613.28 1.48384 -0.531019 0
M  V30 28367 C 2614.51 2.074 0.000693079 0
M  V30 28368 C 2614.93 1.38482 1.27296 0
M  V30 28369 O 2614.29 0.451111 1.75598 0
M  V30 28370 C 2614.34 3.60007 0.206634 0
M  V30 28371 O 2613.44 3.92193 1.27507 0
M  V30 28372 H 2612.78 0.662818 -0.0395946 0
M  V30 28373 H 2615.31 1.90779 -0.739228 0
M  V30 28374 H 2615.32 4.05739 0.428969 0
M  V30 28375 H 2614 4.09572 -0.722747 0
M  V30 28376 H 2612.57 3.5824 1.03531 0
M  V30 28377 N 2614.76 0.2662 1.55336 0
M  V30 28378 C 2615.67 -0.635418 2.25831 0
M  V30 28379 C 2616.68 -1.17747 1.28108 0
M  V30 28380 O 2617.86 -1.20965 1.61026 0
M  V30 28381 C 2614.93 -1.80706 2.95882 0
M  V30 28382 C 2613.99 -1.30257 4.09062 0
M  V30 28383 C 2613.22 -2.41838 4.75763 0
M  V30 28384 O 2613.44 -3.60999 4.41628 0
M  V30 28385 O 2612.38 -2.105 5.63891 0
M  V30 28386 H 2616.2 -0.0646159 3.03631 0
M  V30 28387 H 2613.79 0.033944 1.49361 0
M  V30 28388 H 2615.67 -2.49041 3.39936 0
M  V30 28389 H 2614.34 -2.36512 2.21006 0
M  V30 28390 H 2613.25 -0.585954 3.69483 0
M  V30 28391 H 2614.58 -0.790373 4.85813 0
M  V30 28392 N 2616.24 -1.57599 -0.0066531 0
M  V30 28393 C 2617.17 -2.11038 -0.999259 0
M  V30 28394 C 2618.15 -1.01798 -1.36276 0
M  V30 28395 O 2619.33 -1.29445 -1.44768 0
M  V30 28396 C 2616.46 -2.60822 -2.29323 0
M  V30 28397 C 2615.42 -3.74529 -2.07153 0
M  V30 28398 C 2614.74 -4.10602 -3.42505 0
M  V30 28399 C 2616.04 -5.02071 -1.4395 0
M  V30 28400 H 2617.74 -2.94224 -0.55433 0
M  V30 28401 H 2615.28 -1.41537 -0.265197 0
M  V30 28402 H 2617.24 -2.96833 -2.99112 0
M  V30 28403 H 2615.96 -1.7475 -2.75917 0
M  V30 28404 H 2614.62 -3.38901 -1.39791 0
M  V30 28405 H 2614.27 -3.21563 -3.8679 0
M  V30 28406 H 2613.97 -4.87205 -3.28489 0
M  V30 28407 H 2615.49 -4.49167 -4.1362 0
M  V30 28408 H 2616.9 -5.35896 -2.03686 0
M  V30 28409 H 2615.3 -5.83435 -1.40442 0
M  V30 28410 H 2616.37 -4.83181 -0.407908 0
M  V30 28411 N 2617.72 0.279305 -1.55105 0
M  V30 28412 C 2618.65 1.34942 -1.90559 0
M  V30 28413 C 2619.63 1.51838 -0.766765 0
M  V30 28414 O 2620.81 1.64986 -1.02437 0
M  V30 28415 C 2617.94 2.71002 -2.17198 0
M  V30 28416 C 2616.9 2.68845 -3.33026 0
M  V30 28417 C 2616.22 4.08399 -3.4513 0
M  V30 28418 C 2617.52 2.2867 -4.69582 0
M  V30 28419 H 2619.22 1.05517 -2.8019 0
M  V30 28420 H 2616.76 0.50615 -1.34811 0
M  V30 28421 H 2618.71 3.45971 -2.40587 0
M  V30 28422 H 2617.44 3.01997 -1.2436 0
M  V30 28423 H 2616.1 1.96335 -3.09594 0
M  V30 28424 H 2615.75 4.36605 -2.4977 0
M  V30 28425 H 2615.45 4.07852 -4.23002 0
M  V30 28426 H 2616.97 4.85115 -3.70805 0
M  V30 28427 H 2618.38 2.93359 -4.92558 0
M  V30 28428 H 2616.78 2.39296 -5.50325 0
M  V30 28429 H 2617.85 1.23798 -4.6883 0
M  V30 28430 N 2619.19 1.47931 0.543528 0
M  V30 28431 C 2620.14 1.61869 1.67037 0
M  V30 28432 C 2621.14 0.485519 1.62293 0
M  V30 28433 O 2622.34 0.663789 1.67314 0
M  V30 28434 H 2618.72 0.509662 0.552945 0
M  V30 28435 H 2620.69 2.56535 1.52421 0
M  V30 28436 C 2619.44 1.66296 3.05354 0
M  V30 28437 H 2618.76 2.52846 3.09692 0
M  V30 28438 H 2620.2 1.80095 3.83851 0
M  V30 28439 C 2618.66 0.39892 3.3453 0
M  V30 28440 O 2619.19 -0.494092 3.9865 0
M  V30 28441 N 2617.39 0.274751 2.89298 0
M  V30 28442 H 2616.94 1.0024 2.37297 0
M  V30 28443 H 2616.9 -0.570021 3.09189 0
M  V30 28444 N 2620.67 -0.791347 1.36292 0
M  V30 28445 C 2621.95 -1.5371 1.20965 0
M  V30 28446 C 2622.33 -2.10102 -0.204984 0
M  V30 28447 O 2621.68 -1.93809 -1.21038 0
M  V30 28448 C 2621.89 -2.63357 2.29006 0
M  V30 28449 C 2623.23 -3.31291 2.65578 0
M  V30 28450 O 2624.26 -2.73639 2.28035 0
M  V30 28451 O 2623.12 -4.35475 3.30188 0
M  V30 28452 H 2620.21 -0.679859 0.470872 0
M  V30 28453 H 2622.76 -0.829995 1.48017 0
M  V30 28454 H 2621.53 -2.19668 3.23823 0
M  V30 28455 H 2621.15 -3.41689 2.03309 0
M  V30 28456 N 2622.15 -1.2054 -1.01528 0
M  V30 28457 C 2623.57 -0.960533 -1.2746 0
M  V30 28458 C 2623.77 0.359158 -1.98273 0
M  V30 28459 O 2622.82 1.08736 -2.27887 0
M  V30 28460 C 2624.13 -2.14406 -2.10833 0
M  V30 28461 C 2625.68 -2.18519 -2.24095 0
M  V30 28462 C 2626.16 -3.36361 -3.10846 0
M  V30 28463 N 2627.65 -3.36383 -3.18435 0
M  V30 28464 C 2628.38 -4.24212 -3.85787 0
M  V30 28465 N 2627.88 -5.22221 -4.55255 0
M  V30 28466 N 2629.67 -4.12049 -3.82324 0
M  V30 28467 H 2621.82 -2.05424 -0.539871 0
M  V30 28468 H 2624.09 -0.898978 -0.300904 0
M  V30 28469 H 2623.79 -3.09985 -1.66138 0
M  V30 28470 H 2623.67 -2.12609 -3.11572 0
M  V30 28471 H 2626.05 -1.23501 -2.68014 0
M  V30 28472 H 2626.13 -2.24363 -1.22861 0
M  V30 28473 H 2625.78 -4.31665 -2.67633 0
M  V30 28474 H 2625.71 -3.27754 -4.12171 0
M  V30 28475 H 2628.2 -2.65447 -2.68973 0
M  V30 28476 H 2628.51 -5.8556 -5.04321 0
M  V30 28477 H 2626.86 -5.26156 -4.54076 0
M  V30 28478 H 2630.05 -3.34749 -3.27201 0
M  V30 28479 H 2630.22 -4.80708 -4.34539 0
M  V30 28480 N 2623.63 1.20858 -1.01149 0
M  V30 28481 C 2624.86 1.938 -0.715906 0
M  V30 28482 C 2625.27 1.74693 0.726561 0
M  V30 28483 O 2624.61 1.05484 1.50395 0
M  V30 28484 C 2624.67 3.46297 -0.96533 0
M  V30 28485 C 2624.33 3.8916 -2.39591 0
M  V30 28486 C 2625.33 3.95336 -3.37647 0
M  V30 28487 C 2623.02 4.21292 -2.73529 0
M  V30 28488 C 2625.01 4.33047 -4.67706 0
M  V30 28489 C 2622.7 4.5868 -4.03802 0
M  V30 28490 C 2623.7 4.64529 -5.00702 0
M  V30 28491 O 2623.38 5.01061 -6.28644 0
M  V30 28492 H 2623.12 0.622938 -0.262535 0
M  V30 28493 H 2625.67 1.5444 -1.35415 0
M  V30 28494 H 2623.9 3.85757 -0.269915 0
M  V30 28495 H 2625.59 4.00463 -0.662121 0
M  V30 28496 H 2626.35 3.70681 -3.12763 0
M  V30 28497 H 2622.23 4.15933 -1.98797 0
M  V30 28498 H 2625.78 4.37528 -5.43337 0
M  V30 28499 H 2621.67 4.8279 -4.28468 0
M  V30 28500 H 2622.44 5.19072 -6.32856 0
M  V30 28501 N 2625.11 0.787064 1.3654 0
M  V30 28502 C 2626.52 0.468467 1.5257 0
M  V30 28503 C 2626.72 -1.01358 1.74152 0
M  V30 28504 O 2625.78 -1.79912 1.77166 0
M  V30 28505 C 2627.09 1.29686 2.71297 0
M  V30 28506 C 2628.64 1.29032 2.85166 0
M  V30 28507 C 2629.11 2.1024 4.06895 0
M  V30 28508 N 2630.6 2.07673 4.14036 0
M  V30 28509 C 2631.34 2.6728 5.07296 0
M  V30 28510 N 2630.84 3.35735 6.06015 0
M  V30 28511 N 2632.63 2.57026 4.99894 0
M  V30 28512 H 2624.78 1.74714 1.20785 0
M  V30 28513 H 2627.04 0.742543 0.589351 0
M  V30 28514 H 2626.75 2.34777 2.61864 0
M  V30 28515 H 2626.62 0.936543 3.65388 0
M  V30 28516 H 2629.01 0.247336 2.94062 0
M  V30 28517 H 2629.09 1.69038 1.91989 0
M  V30 28518 H 2628.73 3.14567 3.9876 0
M  V30 28519 H 2628.66 1.67605 4.99215 0
M  V30 28520 H 2631.16 1.57849 3.43354 0
M  V30 28521 H 2631.47 3.78553 6.73734 0
M  V30 28522 H 2629.81 3.39837 6.06247 0
M  V30 28523 H 2633 2.03149 4.2172 0
M  V30 28524 H 2633.18 3.03772 5.72387 0
M  V30 28525 N 2626.58 -1.48101 0.53888 0
M  V30 28526 C 2627.53 -2.29759 -0.219001 0
M  V30 28527 C 2628.5 -1.37924 -0.925538 0
M  V30 28528 O 2629.69 -1.66888 -0.924826 0
M  V30 28529 C 2626.83 -3.21492 -1.25447 0
M  V30 28530 C 2625.94 -4.28409 -0.555868 0
M  V30 28531 C 2625.07 -5.07313 -1.57503 0
M  V30 28532 C 2624.11 -6.06023 -0.860391 0
M  V30 28533 N 2623.25 -6.77952 -1.82552 0
M  V30 28534 H 2628.09 -2.94051 0.483501 0
M  V30 28535 H 2625.63 -1.44955 0.250272 0
M  V30 28536 H 2627.58 -3.73083 -1.86721 0
M  V30 28537 H 2626.21 -2.59103 -1.92524 0
M  V30 28538 H 2625.27 -3.80015 0.171005 0
M  V30 28539 H 2626.58 -4.988 0.00483384 0
M  V30 28540 H 2625.73 -5.62963 -2.26181 0
M  V30 28541 H 2624.47 -4.36781 -2.16964 0
M  V30 28542 H 2623.48 -5.49568 -0.15959 0
M  V30 28543 H 2624.7 -6.78556 -0.271777 0
M  V30 28544 H 2622.65 -6.10165 -2.40904 0
M  V30 28545 H 2622.56 -7.44449 -1.31649 0
M  V30 28546 H 2623.83 -7.38187 -2.50401 0
M  V30 28547 N 2628.06 -0.274434 -1.55192 0
M  V30 28548 C 2628.99 0.606993 -2.25473 0
M  V30 28549 C 2629.97 1.15944 -1.24463 0
M  V30 28550 O 2631.16 1.1937 -1.53181 0
M  V30 28551 C 2628.29 1.79147 -2.97529 0
M  V30 28552 C 2627.24 1.37059 -4.05461 0
M  V30 28553 C 2626.57 2.63812 -4.65089 0
M  V30 28554 C 2627.87 0.521298 -5.19692 0
M  V30 28555 H 2629.56 0.0208817 -2.99393 0
M  V30 28556 H 2627.11 0.00860334 -1.43997 0
M  V30 28557 H 2629.06 2.41398 -3.45406 0
M  V30 28558 H 2627.78 2.4034 -2.21143 0
M  V30 28559 H 2626.44 0.771292 -3.58395 0
M  V30 28560 H 2626.09 3.23262 -3.85371 0
M  V30 28561 H 2625.79 2.36363 -5.37965 0
M  V30 28562 H 2627.32 3.26912 -5.15714 0
M  V30 28563 H 2628.73 1.04879 -5.63625 0
M  V30 28564 H 2627.13 0.34172 -5.99126 0
M  V30 28565 H 2628.2 -0.460085 -4.82712 0
M  V30 28566 N 2629.54 1.576 -0.00170483 0
M  V30 28567 C 2630.47 2.11565 0.988053 0
M  V30 28568 C 2631.45 1.02519 1.35735 0
M  V30 28569 O 2632.64 1.3021 1.44079 0
M  V30 28570 C 2629.77 2.62035 2.27937 0
M  V30 28571 C 2628.72 3.75622 2.05163 0
M  V30 28572 C 2628.05 4.12413 3.40323 0
M  V30 28573 C 2629.35 5.02828 1.41285 0
M  V30 28574 H 2631.04 2.94513 0.538719 0
M  V30 28575 H 2628.59 1.41676 0.257687 0
M  V30 28576 H 2630.54 2.98415 2.97533 0
M  V30 28577 H 2629.26 1.7621 2.74986 0
M  V30 28578 H 2627.92 3.39638 1.37992 0
M  V30 28579 H 2627.57 3.2361 3.85079 0
M  V30 28580 H 2627.27 4.8894 3.25901 0
M  V30 28581 H 2628.79 4.51354 4.11232 0
M  V30 28582 H 2630.21 5.36969 2.00841 0
M  V30 28583 H 2628.6 5.84171 1.37346 0
M  V30 28584 H 2629.67 4.83391 0.382278 0
M  V30 28585 N 2631.02 -0.271076 1.55251 0
M  V30 28586 C 2631.95 -1.33929 1.91272 0
M  V30 28587 C 2632.93 -1.51429 0.774806 0
M  V30 28588 O 2634.11 -1.6444 1.0331 0
M  V30 28589 C 2631.24 -2.69847 2.18632 0
M  V30 28590 C 2630.2 -2.67076 3.34447 0
M  V30 28591 C 2629.52 -4.06563 3.47291 0
M  V30 28592 C 2630.82 -2.26176 4.70788 0
M  V30 28593 H 2632.52 -1.0403 2.80746 0
M  V30 28594 H 2630.06 -0.498993 1.35078 0
M  V30 28595 H 2632.02 -3.4469 2.42419 0
M  V30 28596 H 2630.74 -3.01333 1.2596 0
M  V30 28597 H 2629.4 -1.9469 3.10631 0
M  V30 28598 H 2629.05 -4.35274 2.52082 0
M  V30 28599 H 2628.75 -4.05603 4.25159 0
M  V30 28600 H 2630.27 -4.83142 3.73372 0
M  V30 28601 H 2631.69 -2.90743 4.94107 0
M  V30 28602 H 2630.08 -2.36375 5.51586 0
M  V30 28603 H 2631.15 -1.2131 4.6948 0
M  V30 28604 N 2632.5 -1.48217 -0.535675 0
M  V30 28605 C 2633.43 -1.58397 -1.65659 0
M  V30 28606 C 2634.44 -0.468635 -1.55909 0
M  V30 28607 O 2635.63 -0.739228 -1.62474 0
M  V30 28608 C 2632.73 -1.49235 -3.04273 0
M  V30 28609 C 2631.9 -2.75711 -3.39562 0
M  V30 28610 C 2630.96 -2.60083 -4.57431 0
M  V30 28611 O 2629.99 -3.33956 -4.60936 0
M  V30 28612 N 2631.19 -1.69325 -5.55256 0
M  V30 28613 H 2633.96 -2.55061 -1.57366 0
M  V30 28614 H 2631.52 -1.44869 -0.722819 0
M  V30 28615 H 2633.51 -1.36484 -3.80991 0
M  V30 28616 H 2632.08 -0.605686 -3.06676 0
M  V30 28617 H 2631.3 -3.03068 -2.52078 0
M  V30 28618 H 2632.59 -3.59629 -3.59922 0
M  V30 28619 H 2631.98 -1.08498 -5.55198 0
M  V30 28620 H 2630.54 -1.62515 -6.31215 0
M  V30 28621 N 2633.97 0.784108 -1.3671 0
M  V30 28622 C 2635.22 1.54449 -1.31429 0
M  V30 28623 C 2635.55 1.93917 0.104726 0
M  V30 28624 O 2634.83 1.63122 1.05931 0
M  V30 28625 C 2635.11 2.81796 -2.24194 0
M  V30 28626 C 2634.96 2.4866 -3.74817 0
M  V30 28627 C 2636.28 3.83654 -2.15633 0
M  V30 28628 H 2633.4 0.560329 -0.478749 0
M  V30 28629 H 2636.04 0.900468 -1.67307 0
M  V30 28630 H 2634.19 3.36752 -1.93728 0
M  V30 28631 H 2635.87 1.99714 -4.15827 0
M  V30 28632 H 2634.11 1.81528 -3.93992 0
M  V30 28633 H 2634.78 3.39638 -4.35144 0
M  V30 28634 H 2637.26 3.38159 -2.42461 0
M  V30 28635 H 2636.13 4.70501 -2.82702 0
M  V30 28636 H 2636.39 4.27007 -1.1453 0
M  V30 28637 N 2635.45 1.21076 1.00888 0
M  V30 28638 C 2636.36 0.982462 2.13037 0
M  V30 28639 C 2637.38 -0.0641856 1.73882 0
M  V30 28640 O 2638.55 0.124996 2.01012 0
M  V30 28641 C 2635.62 0.545864 3.42376 0
M  V30 28642 C 2634.68 1.66427 3.95728 0
M  V30 28643 C 2633.91 1.24841 5.18893 0
M  V30 28644 O 2634.14 0.120365 5.70273 0
M  V30 28645 O 2633.07 2.05883 5.65593 0
M  V30 28646 H 2636.9 1.92167 2.35171 0
M  V30 28647 H 2634.48 0.995305 1.11418 0
M  V30 28648 H 2636.36 0.311986 4.20244 0
M  V30 28649 H 2635.04 -0.364671 3.21639 0
M  V30 28650 H 2633.95 1.95251 3.19105 0
M  V30 28651 H 2635.28 2.55209 4.20867 0
M  V30 28652 N 2636.93 -1.2032 1.01789 0
M  V30 28653 C 2638.16 -1.94239 0.727043 0
M  V30 28654 C 2638.58 -1.74342 -0.706148 0
M  V30 28655 O 2637.94 -1.03854 -1.48607 0
M  V30 28656 C 2637.99 -3.44371 1.06964 0
M  V30 28657 O 2637.09 -4.11998 0.182055 0
M  V30 28658 H 2636.43 -0.606788 0.269637 0
M  V30 28659 H 2638.96 -1.52714 1.36161 0
M  V30 28660 H 2638.97 -3.94995 1.02189 0
M  V30 28661 H 2637.65 -3.58175 2.11384 0
M  V30 28662 H 2636.22 -3.7179 0.287443 0
M  V30 28663 N 2638.41 -0.794293 -1.3612 0
M  V30 28664 C 2639.34 -0.210369 -2.3255 0
M  V30 28665 C 2640.32 0.657359 -1.56885 0
M  V30 28666 O 2641.5 0.590174 -1.85015 0
M  V30 28667 C 2638.63 0.651759 -3.4113 0
M  V30 28668 C 2637.59 -0.11647 -4.27841 0
M  V30 28669 C 2636.91 0.866567 -5.27631 0
M  V30 28670 C 2638.21 -1.30846 -5.05645 0
M  V30 28671 H 2639.91 -1.01599 -2.81635 0
M  V30 28672 H 2637.45 -0.490005 -1.35407 0
M  V30 28673 H 2639.41 1.07023 -4.07583 0
M  V30 28674 H 2638.13 1.49013 -2.90624 0
M  V30 28675 H 2636.79 -0.515979 -3.62951 0
M  V30 28676 H 2636.44 1.70011 -4.73398 0
M  V30 28677 H 2636.14 0.356947 -5.86515 0
M  V30 28678 H 2637.66 1.28351 -5.96958 0
M  V30 28679 H 2639.08 -0.965492 -5.65112 0
M  V30 28680 H 2637.47 -1.75171 -5.73964 0
M  V30 28681 H 2638.54 -2.10136 -4.37002 0
M  V30 28682 N 2639.89 1.47813 -0.546727 0
M  V30 28683 C 2641.11 2.06887 -0.023322 0
M  V30 28684 C 2641.53 1.40092 1.26569 0
M  V30 28685 O 2640.89 0.493937 1.75689 0
M  V30 28686 C 2640.94 3.61016 0.186912 0
M  V30 28687 O 2640.66 4.25305 -1.05104 0
M  V30 28688 C 2642.16 4.3693 0.748795 0
M  V30 28689 H 2639.38 0.669741 -0.041088 0
M  V30 28690 H 2641.92 1.89967 -0.75715 0
M  V30 28691 H 2640.08 3.77485 0.870837 0
M  V30 28692 H 2640.49 5.17694 -0.842212 0
M  V30 28693 H 2641.97 5.4549 0.845238 0
M  V30 28694 H 2642.44 4.02496 1.75765 0
M  V30 28695 H 2643.05 4.2518 0.100904 0
M  V30 28696 N 2641.36 0.28266 1.55044 0
M  V30 28697 C 2642.59 -0.335085 2.04169 0
M  V30 28698 C 2643.01 -1.48904 1.16073 0
M  V30 28699 O 2642.36 -1.81586 0.182423 0
M  V30 28700 C 2642.42 -0.808895 3.52334 0
M  V30 28701 O 2642.14 0.299115 4.37078 0
M  V30 28702 C 2643.64 -1.49368 4.17378 0
M  V30 28703 H 2640.86 -0.0754426 0.666745 0
M  V30 28704 H 2643.4 0.416953 2.00204 0
M  V30 28705 H 2641.56 -1.511 3.56718 0
M  V30 28706 H 2641.97 -0.0664593 5.24458 0
M  V30 28707 H 2643.44 -1.77655 5.2263 0
M  V30 28708 H 2643.92 -2.42772 3.66003 0
M  V30 28709 H 2644.53 -0.835232 4.17018 0
M  V30 28710 N 2642.84 -1.57597 0.0100627 0
M  V30 28711 C 2643.75 -2.12492 -0.994189 0
M  V30 28712 C 2644.77 -1.07256 -1.37011 0
M  V30 28713 O 2645.94 -1.39212 -1.4554 0
M  V30 28714 C 2643.01 -2.62559 -2.26415 0
M  V30 28715 C 2642.07 -3.82436 -1.95042 0
M  V30 28716 C 2641.3 -4.30105 -3.15983 0
M  V30 28717 O 2641.53 -3.77048 -4.28009 0
M  V30 28718 O 2640.46 -5.22156 -2.99393 0
M  V30 28719 H 2644.29 -2.98539 -0.557496 0
M  V30 28720 H 2641.87 -1.47925 -0.209387 0
M  V30 28721 H 2643.75 -2.94915 -3.01004 0
M  V30 28722 H 2642.43 -1.79605 -2.69303 0
M  V30 28723 H 2641.34 -3.55037 -1.17898 0
M  V30 28724 H 2642.67 -4.66494 -1.56984 0
M  V30 28725 N 2644.32 0.262839 -1.55393 0
M  V30 28726 C 2645.25 1.32913 -1.9198 0
M  V30 28727 C 2646.23 1.51016 -0.782826 0
M  V30 28728 O 2647.42 1.6389 -1.04181 0
M  V30 28729 C 2644.55 2.68684 -2.2006 0
M  V30 28730 C 2643.5 2.65298 -3.35858 0
M  V30 28731 C 2642.83 4.04715 -3.49442 0
M  V30 28732 C 2644.13 2.23677 -4.71981 0
M  V30 28733 H 2645.82 1.02539 -2.81293 0
M  V30 28734 H 2643.37 0.491823 -1.35341 0
M  V30 28735 H 2645.32 3.43399 -2.44243 0
M  V30 28736 H 2644.04 3.00661 -1.27556 0
M  V30 28737 H 2642.7 1.9304 -3.11659 0
M  V30 28738 H 2642.35 4.33932 -2.54386 0
M  V30 28739 H 2642.05 4.03342 -4.27304 0
M  V30 28740 H 2643.57 4.81155 -3.75929 0
M  V30 28741 H 2644.99 2.88118 -4.95642 0
M  V30 28742 H 2643.39 2.33446 -5.52832 0
M  V30 28743 H 2644.46 1.18819 -4.70117 0
M  V30 28744 N 2645.8 1.48499 0.527807 0
M  V30 28745 C 2647.02 1.60549 1.31297 0
M  V30 28746 C 2647.45 0.266753 1.86199 0
M  V30 28747 O 2646.81 -0.761889 1.64514 0
M  V30 28748 C 2646.85 2.65682 2.43814 0
M  V30 28749 O 2645.96 2.22993 3.46912 0
M  V30 28750 H 2645.3 0.538284 0.388775 0
M  V30 28751 H 2647.83 1.94501 0.634862 0
M  V30 28752 H 2647.84 2.87023 2.89968 0
M  V30 28753 H 2646.51 3.62872 2.03215 0
M  V30 28754 H 2645.09 2.11875 3.06861 0
M  V30 28755 N 2647.28 -0.776847 1.37123 0
M  V30 28756 C 2648.24 -1.87158 1.32304 0
M  V30 28757 C 2649.24 -1.59174 0.228127 0
M  V30 28758 O 2650.43 -1.67351 0.483672 0
M  V30 28759 C 2647.56 -3.24195 1.05406 0
M  V30 28760 H 2648.76 -1.92844 2.29676 0
M  V30 28761 H 2646.31 -0.976038 1.22079 0
M  V30 28762 H 2647.04 -3.24187 0.0854442 0
M  V30 28763 H 2646.83 -3.45898 1.84654 0
M  V30 28764 H 2648.32 -4.04269 1.04671 0
M  V30 28765 N 2648.76 -1.2161 -1.00244 0
M  V30 28766 C 2649.67 -0.993746 -2.12513 0
M  V30 28767 C 2650.68 0.0549633 -1.73913 0
M  V30 28768 O 2651.86 -0.135654 -2.00943 0
M  V30 28769 C 2648.92 -0.564013 -3.42082 0
M  V30 28770 C 2647.98 -1.68523 -3.9484 0
M  V30 28771 C 2647.22 -1.27591 -5.18224 0
M  V30 28772 O 2647.44 -0.150606 -5.70201 0
M  V30 28773 O 2646.37 -2.0888 -5.64493 0
M  V30 28774 H 2650.2 -1.93412 -2.34149 0
M  V30 28775 H 2647.78 -1.0012 -1.10889 0
M  V30 28776 H 2649.67 -0.334268 -4.20072 0
M  V30 28777 H 2648.34 0.347608 -3.21828 0
M  V30 28778 H 2647.25 -1.96941 -3.18065 0
M  V30 28779 H 2648.58 -2.57437 -4.19508 0
M  V30 28780 N 2650.23 1.19778 -1.02425 0
M  V30 28781 C 2651.65 1.41382 -0.740484 0
M  V30 28782 C 2651.85 1.89794 0.676794 0
M  V30 28783 O 2650.91 2.07173 1.44346 0
M  V30 28784 C 2652.22 2.42892 -1.77268 0
M  V30 28785 C 2653.77 2.56646 -1.7917 0
M  V30 28786 C 2654.24 3.61405 -2.81337 0
M  V30 28787 N 2655.73 3.68897 -2.80124 0
M  V30 28788 C 2656.47 4.49634 -3.55832 0
M  V30 28789 N 2655.96 5.34115 -4.4124 0
M  V30 28790 N 2657.76 4.4424 -3.44394 0
M  V30 28791 H 2649.91 0.86673 -1.93911 0
M  V30 28792 H 2652.17 0.443083 -0.838082 0
M  V30 28793 H 2651.88 2.14334 -2.78844 0
M  V30 28794 H 2651.75 3.41998 -1.59114 0
M  V30 28795 H 2654.14 2.84529 -0.782752 0
M  V30 28796 H 2654.22 1.57709 -2.01398 0
M  V30 28797 H 2653.86 3.34265 -3.824 0
M  V30 28798 H 2653.79 4.59982 -2.56367 0
M  V30 28799 H 2656.28 3.08558 -2.18176 0
M  V30 28800 H 2656.6 5.92827 -4.95758 0
M  V30 28801 H 2654.94 5.33591 -4.45315 0
M  V30 28802 H 2658.13 3.7728 -2.77087 0
M  V30 28803 H 2658.31 5.06924 -4.03649 0
M  V30 28804 N 2651.71 0.801501 1.35697 0
M  V30 28805 C 2652.94 0.390714 2.03686 0
M  V30 28806 C 2653.36 -0.98875 1.60017 0
M  V30 28807 O 2652.72 -1.6393 0.774386 0
M  V30 28808 C 2652.77 0.476467 3.57438 0
M  V30 28809 O 2651.87 -0.512034 4.09209 0
M  V30 28810 H 2651.21 0.163967 0.643437 0
M  V30 28811 H 2653.74 1.08597 1.73401 0
M  V30 28812 H 2653.75 0.344428 4.06544 0
M  V30 28813 H 2652.43 1.48268 3.88573 0
M  V30 28814 H 2651 -0.340656 3.71341 0
M  V30 28815 N 2653.19 -1.47521 0.554558 0
M  V30 28816 C 2654.44 -2.02478 0.0295146 0
M  V30 28817 C 2654.76 -1.42919 -1.31926 0
M  V30 28818 O 2654.02 -0.573418 -1.87111 0
M  V30 28819 C 2654.32 -3.57212 -0.115864 0
M  V30 28820 C 2653.98 -4.35678 1.16168 0
M  V30 28821 C 2652.65 -4.56836 1.51176 0
M  V30 28822 C 2655 -4.8095 2.00839 0
M  V30 28823 C 2652.33 -5.20515 2.70705 0
M  V30 28824 C 2654.68 -5.45947 3.19569 0
M  V30 28825 C 2653.34 -5.65339 3.54892 0
M  V30 28826 H 2652.61 -0.740921 0.0108002 0
M  V30 28827 H 2655.26 -1.77224 0.725537 0
M  V30 28828 H 2653.56 -3.81445 -0.894835 0
M  V30 28829 H 2655.26 -3.97382 -0.53742 0
M  V30 28830 H 2651.85 -4.19488 0.8791 0
M  V30 28831 H 2656.04 -4.64385 1.75101 0
M  V30 28832 H 2651.29 -5.33723 2.98245 0
M  V30 28833 H 2655.47 -5.7999 3.85466 0
M  V30 28834 H 2653.09 -6.14453 4.47607 0
M  V30 28835 N 2654.67 -0.290879 -1.54892 0
M  V30 28836 C 2655.89 0.327084 -2.04805 0
M  V30 28837 C 2656.32 1.47504 -1.16723 0
M  V30 28838 O 2655.68 1.80509 -0.169139 0
M  V30 28839 C 2655.72 0.770627 -3.52269 0
M  V30 28840 O 2654.83 1.8764 -3.67239 0
M  V30 28841 H 2654.17 0.0652111 -0.66079 0
M  V30 28842 H 2656.7 -0.429774 -2.00035 0
M  V30 28843 H 2656.71 1.06216 -3.93932 0
M  V30 28844 H 2655.38 -0.0691691 -4.15842 0
M  V30 28845 H 2653.96 1.5862 -3.37482 0
M  V30 28846 N 2656.15 1.57589 -0.0184203 0
M  V30 28847 C 2657.11 2.08496 0.951949 0
M  V30 28848 C 2658.11 0.997896 1.2609 0
M  V30 28849 O 2659.3 1.25989 1.20302 0
M  V30 28850 C 2656.43 2.54186 2.27161 0
M  V30 28851 H 2657.62 2.9551 0.511255 0
M  V30 28852 H 2655.18 1.54607 0.229416 0
M  V30 28853 H 2655.91 1.7047 2.75881 0
M  V30 28854 H 2655.7 3.33594 2.06052 0
M  V30 28855 H 2657.19 2.93833 2.96735 0
M  V30 28856 N 2657.62 -0.254594 1.5553 0
M  V30 28857 C 2658.57 -1.31508 1.89669 0
M  V30 28858 C 2659.54 -1.48199 0.750083 0
M  V30 28859 O 2660.73 -1.62308 1.00304 0
M  V30 28860 C 2657.87 -2.66696 2.19014 0
M  V30 28861 C 2656.98 -2.58077 3.46439 0
M  V30 28862 C 2656.11 -3.85566 3.65393 0
M  V30 28863 C 2655.15 -3.71533 4.86446 0
M  V30 28864 N 2654.29 -4.90897 5.01961 0
M  V30 28865 H 2659.13 -1.01695 2.80111 0
M  V30 28866 H 2656.67 -0.490914 1.38667 0
M  V30 28867 H 2658.62 -3.45377 2.34031 0
M  V30 28868 H 2657.25 -2.94674 1.31784 0
M  V30 28869 H 2656.31 -1.71007 3.39795 0
M  V30 28870 H 2657.62 -2.43614 4.35263 0
M  V30 28871 H 2656.77 -4.7269 3.80328 0
M  V30 28872 H 2655.51 -4.02918 2.74789 0
M  V30 28873 H 2654.52 -2.82792 4.71496 0
M  V30 28874 H 2655.74 -3.55683 5.78503 0
M  V30 28875 H 2653.69 -5.08624 4.14292 0
M  V30 28876 H 2653.6 -4.79035 5.8486 0
M  V30 28877 H 2654.87 -5.79541 5.21299 0
M  V30 28878 N 2659.1 -1.48777 -0.519925 0
M  V30 28879 C 2660.06 -1.63553 -1.60571 0
M  V30 28880 C 2661.06 -0.50826 -1.52556 0
M  V30 28881 O 2662.25 -0.77429 -1.56046 0
M  V30 28882 C 2659.39 -1.61517 -3.00208 0
M  V30 28883 H 2660.58 -2.60378 -1.48806 0
M  V30 28884 H 2658.13 -1.37524 -0.742748 0
M  V30 28885 H 2658.87 -0.662065 -3.1747 0
M  V30 28886 H 2658.65 -2.43365 -3.07435 0
M  V30 28887 H 2660.14 -1.75071 -3.79131 0
M  V30 28888 N 2660.58 0.769564 -1.37534 0
M  V30 28889 C 2661.49 1.91391 -1.35671 0
M  V30 28890 C 2662.51 1.72107 -0.255985 0
M  V30 28891 O 2663.68 1.95305 -0.491739 0
M  V30 28892 C 2660.75 3.26545 -1.16487 0
M  V30 28893 C 2659.81 3.58468 -2.36219 0
M  V30 28894 C 2659.04 4.87173 -2.1794 0
M  V30 28895 O 2659.26 5.5838 -1.1648 0
M  V30 28896 O 2658.2 5.18208 -3.06176 0
M  V30 28897 H 2662.02 1.95914 -2.32059 0
M  V30 28898 H 2659.61 0.912621 -1.18286 0
M  V30 28899 H 2661.49 4.07382 -1.07785 0
M  V30 28900 H 2660.17 3.22869 -0.231744 0
M  V30 28901 H 2659.07 2.77856 -2.50493 0
M  V30 28902 H 2660.41 3.66889 -3.28106 0
M  V30 28903 N 2662.06 1.22139 0.995977 0
M  V30 28904 C 2663.28 1.07113 1.77599 0
M  V30 28905 C 2663.71 -0.374232 1.8434 0
M  V30 28906 O 2663.07 -1.27026 1.29361 0
M  V30 28907 C 2663.11 1.68341 3.18894 0
M  V30 28908 O 2662.22 0.934998 4.01661 0
M  V30 28909 H 2661.56 0.376406 0.547005 0
M  V30 28910 H 2664.09 1.61872 1.25134 0
M  V30 28911 H 2664.1 1.72937 3.69536 0
M  V30 28912 H 2662.77 2.73521 3.13303 0
M  V30 28913 H 2661.35 0.964814 3.60202 0
M  V30 28914 N 2663.54 -1.19233 1.03059 0
M  V30 28915 C 2664.78 -1.88586 0.726614 0
M  V30 28916 C 2665.11 -1.80117 -0.747196 0
M  V30 28917 O 2664.38 -1.21277 -1.53847 0
M  V30 28918 H 2662.96 -0.698119 0.26578 0
M  V30 28919 H 2665.62 -1.44744 1.30519 0
M  V30 28920 H 2664.71 -2.94877 1.02245 0
M  V30 28921 N 2665.01 -0.808686 -1.3527 0
M  V30 28922 C 2666.43 -0.49268 -1.51805 0
M  V30 28923 C 2666.63 0.985747 -1.75742 0
M  V30 28924 O 2665.69 1.77071 -1.80006 0
M  V30 28925 C 2667 -1.33986 -2.69199 0
M  V30 28926 C 2668.55 -1.33552 -2.83078 0
M  V30 28927 C 2669.02 -2.16686 -4.03498 0
M  V30 28928 N 2670.51 -2.14234 -4.1068 0
M  V30 28929 C 2671.25 -2.75316 -5.0298 0
M  V30 28930 N 2670.74 -3.45334 -6.00597 0
M  V30 28931 N 2672.54 -2.64947 -4.95742 0
M  V30 28932 H 2664.69 -1.76613 -1.1799 0
M  V30 28933 H 2666.95 -0.751825 -0.577463 0
M  V30 28934 H 2666.66 -2.38913 -2.58095 0
M  V30 28935 H 2666.53 -0.994555 -3.63852 0
M  V30 28936 H 2668.92 -0.294087 -2.93631 0
M  V30 28937 H 2669 -1.72071 -1.89275 0
M  V30 28938 H 2668.64 -3.20871 -3.93706 0
M  V30 28939 H 2668.57 -1.75526 -4.96486 0
M  V30 28940 H 2671.06 -1.63291 -3.408 0
M  V30 28941 H 2671.38 -3.89223 -6.67626 0
M  V30 28942 H 2669.72 -3.49439 -6.00764 0
M  V30 28943 H 2672.91 -2.09832 -4.18435 0
M  V30 28944 H 2673.09 -3.12839 -5.67482 0
M  V30 28945 N 2666.49 1.47225 -0.562374 0
M  V30 28946 C 2667.42 2.28142 0.21997 0
M  V30 28947 C 2668.44 1.37314 0.874571 0
M  V30 28948 O 2669.63 1.62092 0.747554 0
M  V30 28949 C 2666.73 3.11734 1.32947 0
M  V30 28950 C 2665.9 4.30557 0.770683 0
M  V30 28951 C 2664.96 4.95704 1.76533 0
M  V30 28952 O 2663.98 5.53934 1.3094 0
M  V30 28953 N 2665.19 4.90867 3.09887 0
M  V30 28954 H 2667.95 2.95925 -0.474159 0
M  V30 28955 H 2665.51 1.56912 -0.398788 0
M  V30 28956 H 2667.5 3.52183 1.99372 0
M  V30 28957 H 2666.07 2.4616 1.92676 0
M  V30 28958 H 2665.29 3.94137 -0.0704749 0
M  V30 28959 H 2666.58 5.07403 0.376783 0
M  V30 28960 H 2665.98 4.44767 3.49569 0
M  V30 28961 H 2664.54 5.35319 3.71855 0
M  V30 28962 N 2667.97 0.299089 1.54736 0
M  V30 28963 C 2668.9 -0.611492 2.20892 0
M  V30 28964 C 2669.92 -1.09902 1.20106 0
M  V30 28965 O 2671.1 -1.0168 1.46708 0
M  V30 28966 C 2668.2 -1.84892 2.84021 0
M  V30 28967 C 2667.38 -1.50421 4.10722 0
M  V30 28968 C 2666.44 -2.59659 4.57672 0
M  V30 28969 O 2665.46 -2.24832 5.22914 0
M  V30 28970 N 2666.66 -3.90164 4.29828 0
M  V30 28971 H 2669.43 -0.0451474 2.99666 0
M  V30 28972 H 2666.99 0.121207 1.61446 0
M  V30 28973 H 2668.98 -2.57315 3.12364 0
M  V30 28974 H 2667.55 -2.32371 2.09099 0
M  V30 28975 H 2666.77 -0.612713 3.89409 0
M  V30 28976 H 2668.06 -1.24925 4.93225 0
M  V30 28977 H 2667.46 -4.21269 3.77556 0
M  V30 28978 H 2666.02 -4.58891 4.62885 0
M  V30 28979 N 2669.45 -1.57577 0.0267774 0
M  V30 28980 C 2670.38 -2.1311 -0.95427 0
M  V30 28981 C 2671.36 -1.04665 -1.34086 0
M  V30 28982 O 2672.54 -1.32486 -1.4199 0
M  V30 28983 C 2669.67 -2.65628 -2.23739 0
M  V30 28984 C 2668.63 -3.78839 -1.99162 0
M  V30 28985 C 2667.95 -4.17775 -3.33719 0
M  V30 28986 C 2669.25 -5.05012 -1.33268 0
M  V30 28987 H 2670.95 -2.95333 -0.491796 0
M  V30 28988 H 2668.49 -1.42068 -0.235115 0
M  V30 28989 H 2670.45 -3.03111 -2.92748 0
M  V30 28990 H 2669.17 -1.80563 -2.72148 0
M  V30 28991 H 2667.83 -3.4179 -1.32571 0
M  V30 28992 H 2667.48 -3.29695 -3.79882 0
M  V30 28993 H 2667.18 -4.94063 -3.18081 0
M  V30 28994 H 2668.7 -4.57839 -4.03999 0
M  V30 28995 H 2670.12 -5.40096 -1.92273 0
M  V30 28996 H 2668.51 -5.86282 -1.28035 0
M  V30 28997 H 2669.58 -4.83938 -0.305326 0
M  V30 28998 N 2670.93 0.246342 -1.55663 0
M  V30 28999 C 2671.84 1.32649 -1.93498 0
M  V30 29000 C 2672.85 1.52629 -0.835489 0
M  V30 29001 O 2674.03 1.6624 -1.13693 0
M  V30 29002 C 2671.09 2.66097 -2.22246 0
M  V30 29003 C 2670.15 2.54635 -3.45629 0
M  V30 29004 C 2669.39 3.81718 -3.72998 0
M  V30 29005 O 2669.61 4.83624 -3.0243 0
M  V30 29006 O 2668.54 3.80317 -4.66522 0
M  V30 29007 H 2672.37 1.03554 -2.855 0
M  V30 29008 H 2669.96 0.447144 -1.42552 0
M  V30 29009 H 2671.84 3.44954 -2.42043 0
M  V30 29010 H 2670.51 2.94924 -1.33422 0
M  V30 29011 H 2669.42 1.74062 -3.31139 0
M  V30 29012 H 2670.75 2.30752 -4.34758 0
M  V30 29013 N 2672.4 1.4905 0.512027 0
M  V30 29014 C 2673.82 1.35569 0.842216 0
M  V30 29015 C 2674.02 0.380354 1.97878 0
M  V30 29016 O 2673.08 -0.191966 2.51769 0
M  V30 29017 C 2674.39 2.7603 1.19281 0
M  V30 29018 C 2675.94 2.8465 1.30166 0
M  V30 29019 C 2676.41 4.25854 1.6856 0
M  V30 29020 N 2677.9 4.28612 1.7563 0
M  V30 29021 C 2678.64 5.34825 2.0676 0
M  V30 29022 N 2678.13 6.51296 2.3619 0
M  V30 29023 N 2679.93 5.22232 2.07918 0
M  V30 29024 H 2672.08 2.11067 -0.237611 0
M  V30 29025 H 2674.34 0.946993 -0.0436913 0
M  V30 29026 H 2674.05 3.49047 0.431137 0
M  V30 29027 H 2673.92 3.10699 2.13884 0
M  V30 29028 H 2676.31 2.11877 2.05407 0
M  V30 29029 H 2676.39 2.53578 0.336412 0
M  V30 29030 H 2676.03 4.99149 0.938736 0
M  V30 29031 H 2675.96 4.54382 2.66167 0
M  V30 29032 H 2678.45 3.44609 1.55091 0
M  V30 29033 H 2678.77 7.28071 2.591 0
M  V30 29034 H 2677.11 6.54541 2.3367 0
M  V30 29035 H 2680.3 4.30251 1.84395 0
M  V30 29036 H 2680.48 6.05105 2.31845 0
M  V30 29037 N 2673.88 -0.762259 1.3794 0
M  V30 29038 C 2674.81 -1.88523 1.30352 0
M  V30 29039 C 2675.83 -1.61342 0.21743 0
M  V30 29040 O 2677.02 -1.72083 0.474321 0
M  V30 29041 C 2674.12 -3.23967 0.994901 0
M  V30 29042 C 2673.29 -3.78721 2.18836 0
M  V30 29043 C 2672.35 -4.92662 1.84853 0
M  V30 29044 O 2671.37 -5.07749 2.57253 0
M  V30 29045 N 2672.58 -5.74985 0.798302 0
M  V30 29046 H 2675.34 -1.95545 2.27117 0
M  V30 29047 H 2672.9 -0.941802 1.31688 0
M  V30 29048 H 2674.89 -3.97723 0.748238 0
M  V30 29049 H 2673.46 -3.12387 0.115501 0
M  V30 29050 H 2672.68 -2.96633 2.5962 0
M  V30 29051 H 2673.97 -4.12035 2.98504 0
M  V30 29052 H 2673.37 -5.65354 0.197711 0
M  V30 29053 H 2671.93 -6.48925 0.61151 0
M  V30 29054 N 2675.36 -1.22666 -0.989486 0
M  V30 29055 C 2676.61 -1.0474 -1.72373 0
M  V30 29056 C 2676.92 0.417282 -1.91097 0
M  V30 29057 O 2678.13 0.716288 -2.61881 0
M  V30 29058 C 2676.58 -1.82566 -3.10157 0
M  V30 29059 C 2676.19 -3.33305 -2.99352 0
M  V30 29060 C 2677.94 -1.73099 -3.87604 0
M  V30 29061 C 2675.84 -4.03559 -4.32312 0
M  V30 29062 H 2674.77 -0.388314 -0.646319 0
M  V30 29063 H 2677.42 -1.46548 -1.10435 0
M  V30 29064 H 2675.81 -1.33558 -3.72798 0
M  V30 29065 H 2676.98 -3.89732 -2.45856 0
M  V30 29066 H 2675.3 -3.43486 -2.35386 0
M  V30 29067 H 2677.89 -2.22907 -4.86021 0
M  V30 29068 H 2678.24 -0.692048 -4.10507 0
M  V30 29069 H 2678.77 -2.19669 -3.31648 0
M  V30 29070 H 2675.51 -5.07722 -4.14607 0
M  V30 29071 H 2675.03 -3.5192 -4.85708 0
M  V30 29072 H 2676.71 -4.09346 -5.01044 0
M  V30 29073 N 2676.84 1.18685 -1.0369 0
M  V30 29074 C 2677.77 2.21668 -0.582735 0
M  V30 29075 C 2678.78 1.59089 0.345628 0
M  V30 29076 O 2679.97 1.77944 0.140745 0
M  V30 29077 C 2677.07 3.38478 0.169144 0
M  V30 29078 C 2676.25 4.30638 -0.766155 0
M  V30 29079 C 2675.31 5.26168 -0.0582466 0
M  V30 29080 O 2674.33 5.65033 -0.687445 0
M  V30 29081 N 2675.53 5.67755 1.20972 0
M  V30 29082 H 2678.3 2.61258 -1.46848 0
M  V30 29083 H 2675.86 1.33432 -0.91692 0
M  V30 29084 H 2677.85 3.99406 0.652472 0
M  V30 29085 H 2676.42 2.97611 0.956383 0
M  V30 29086 H 2675.64 3.67371 -1.42942 0
M  V30 29087 H 2676.93 4.89116 -1.40155 0
M  V30 29088 H 2676.33 5.38227 1.7415 0
M  V30 29089 H 2674.88 6.30898 1.63739 0
M  V30 29090 N 2678.32 0.815849 1.34839 0
M  V30 29091 C 2679.23 0.234503 2.33425 0
M  V30 29092 C 2680.24 -0.627384 1.62296 0
M  V30 29093 O 2681.42 -0.536953 1.9411 0
M  V30 29094 C 2678.48 -0.599789 3.41472 0
M  V30 29095 C 2677.55 0.283671 4.28362 0
M  V30 29096 C 2676.78 -0.510897 5.31249 0
M  V30 29097 O 2677 -1.7448 5.43059 0
M  V30 29098 O 2675.94 0.103075 6.01812 0
M  V30 29099 H 2679.76 1.05029 2.84961 0
M  V30 29100 H 2677.35 0.577834 1.37773 0
M  V30 29101 H 2679.23 -1.07468 4.07466 0
M  V30 29102 H 2677.9 -1.39302 2.92193 0
M  V30 29103 H 2676.81 0.805901 3.65316 0
M  V30 29104 H 2678.14 1.04108 4.81064 0
M  V30 29105 N 2679.8 -1.46924 0.570174 0
M  V30 29106 C 2680.73 -2.32963 -0.158233 0
M  V30 29107 C 2681.71 -1.44584 -0.896067 0
M  V30 29108 O 2682.89 -1.73422 -0.873991 0
M  V30 29109 C 2680.02 -3.26621 -1.1805 0
M  V30 29110 C 2678.98 -4.24343 -0.558305 0
M  V30 29111 C 2678.3 -5.07418 -1.68614 0
M  V30 29112 C 2679.6 -5.19936 0.496386 0
M  V30 29113 H 2681.3 -2.94114 0.560098 0
M  V30 29114 H 2678.84 -1.41431 0.2708 0
M  V30 29115 H 2680.79 -3.85661 -1.69834 0
M  V30 29116 H 2679.52 -2.63552 -1.92894 0
M  V30 29117 H 2678.18 -3.66548 -0.0616513 0
M  V30 29118 H 2677.83 -4.40743 -2.42394 0
M  V30 29119 H 2677.53 -5.73589 -1.27554 0
M  V30 29120 H 2679.05 -5.69319 -2.20699 0
M  V30 29121 H 2680.46 -5.73264 0.064106 0
M  V30 29122 H 2678.86 -5.9438 0.826595 0
M  V30 29123 H 2679.93 -4.64627 1.38743 0
M  V30 29124 N 2681.27 -0.307291 -1.54575 0
M  V30 29125 C 2682.69 0.045897 -1.59534 0
M  V30 29126 C 2682.89 1.51882 -1.32416 0
M  V30 29127 O 2681.95 2.27249 -1.10064 0
M  V30 29128 C 2683.26 -0.357701 -2.98565 0
M  V30 29129 C 2684.81 -0.306992 -3.11491 0
M  V30 29130 C 2685.28 -0.685507 -4.52841 0
M  V30 29131 N 2686.77 -0.638283 -4.58781 0
M  V30 29132 C 2687.51 -0.903558 -5.66236 0
M  V30 29133 N 2687 -1.23513 -6.81701 0
M  V30 29134 N 2688.8 -0.8302 -5.55935 0
M  V30 29135 H 2680.95 -1.26715 -1.70462 0
M  V30 29136 H 2683.21 -0.514153 -0.796461 0
M  V30 29137 H 2682.92 -1.3833 -3.23354 0
M  V30 29138 H 2682.79 0.285499 -3.76118 0
M  V30 29139 H 2685.18 0.709373 -2.86447 0
M  V30 29140 H 2685.26 -0.984902 -2.36079 0
M  V30 29141 H 2684.9 -1.69971 -4.78615 0
M  V30 29142 H 2684.83 0.0145421 -5.26598 0
M  V30 29143 H 2687.32 -0.393204 -3.75849 0
M  V30 29144 H 2687.64 -1.42335 -7.59579 0
M  V30 29145 H 2685.98 -1.27323 -6.83238 0
M  V30 29146 H 2689.17 -0.570774 -4.64607 0
M  V30 29147 H 2689.35 -1.0403 -6.39595 0
M  V30 29148 N 2682.75 1.57561 -0.0351337 0
M  V30 29149 C 2684 1.91668 0.640926 0
M  V30 29150 C 2684.32 0.912712 1.72321 0
M  V30 29151 O 2683.59 -0.0448745 1.95849 0
M  V30 29152 H 2682.17 0.707487 0.23973 0
M  V30 29153 H 2684.83 1.94717 -0.0843552 0
M  V30 29154 H 2683.93 2.92454 1.08982 0
M  V30 29155 N 2684.23 -0.238084 1.55791 0
M  V30 29156 C 2685.65 -0.587019 1.48412 0
M  V30 29157 C 2685.85 -1.87926 0.727053 0
M  V30 29158 O 2684.9 -2.51158 0.259986 0
M  V30 29159 C 2686.21 -0.681572 2.92874 0
M  V30 29160 C 2687.76 -0.773309 3.03297 0
M  V30 29161 C 2688.24 -0.899349 4.49083 0
M  V30 29162 N 2689.73 -0.963995 4.53058 0
M  V30 29163 C 2690.46 -1.08094 5.63119 0
M  V30 29164 N 2689.96 -1.16287 6.82971 0
M  V30 29165 N 2691.75 -1.11479 5.50935 0
M  V30 29166 H 2683.9 0.610112 2.03449 0
M  V30 29167 H 2686.17 0.211829 0.92403 0
M  V30 29168 H 2685.87 0.198082 3.51142 0
M  V30 29169 H 2685.75 -1.55063 3.43854 0
M  V30 29170 H 2688.13 -1.64341 2.45104 0
M  V30 29171 H 2688.21 0.121079 2.55513 0
M  V30 29172 H 2687.86 -0.0337693 5.07889 0
M  V30 29173 H 2687.79 -1.80891 4.94556 0
M  V30 29174 H 2690.28 -0.911666 3.66738 0
M  V30 29175 H 2690.59 -1.25142 7.626 0
M  V30 29176 H 2688.94 -1.13229 6.85714 0
M  V30 29177 H 2692.13 -1.04732 4.56233 0
M  V30 29178 H 2692.3 -1.20247 6.36745 0
M  V30 29179 N 2685.71 -1.4932 -0.504115 0
M  V30 29180 C 2686.64 -1.6867 -1.6147 0
M  V30 29181 C 2687.62 -0.535407 -1.61454 0
M  V30 29182 O 2688.8 -0.770899 -1.78244 0
M  V30 29183 C 2685.93 -1.75033 -2.99968 0
M  V30 29184 C 2684.89 -2.89921 -3.14849 0
M  V30 29185 C 2684.21 -2.81395 -4.54666 0
M  V30 29186 C 2685.51 -4.30898 -2.95168 0
M  V30 29187 H 2687.21 -2.61651 -1.45531 0
M  V30 29188 H 2684.75 -1.25914 -0.698689 0
M  V30 29189 H 2686.71 -1.87157 -3.77558 0
M  V30 29190 H 2685.43 -0.786496 -3.16989 0
M  V30 29191 H 2684.09 -2.77395 -2.39682 0
M  V30 29192 H 2683.74 -1.82926 -4.68559 0
M  V30 29193 H 2683.44 -3.58503 -4.65564 0
M  V30 29194 H 2684.96 -2.95522 -5.34321 0
M  V30 29195 H 2686.38 -4.44122 -3.62531 0
M  V30 29196 H 2684.77 -5.09204 -3.1754 0
M  V30 29197 H 2685.84 -4.45559 -1.91324 0
M  V30 29198 N 2687.19 0.754933 -1.38342 0
M  V30 29199 C 2688.43 1.51103 -1.3421 0
M  V30 29200 C 2688.75 1.94882 0.0677291 0
M  V30 29201 O 2688.02 1.67546 1.01515 0
M  V30 29202 H 2686.6 0.560484 -0.493828 0
M  V30 29203 H 2689.27 0.897476 -1.73007 0
M  V30 29204 H 2688.36 2.40256 -1.99207 0
M  V30 29205 N 2688.66 1.23189 0.982967 0
M  V30 29206 C 2689.57 1.02743 2.10905 0
M  V30 29207 C 2690.59 -0.0272883 1.73979 0
M  V30 29208 O 2691.77 0.167605 2.00701 0
M  V30 29209 C 2688.83 0.618364 3.41141 0
M  V30 29210 C 2687.89 1.74784 3.92109 0
M  V30 29211 C 2687.12 1.35819 5.16129 0
M  V30 29212 O 2687.35 0.241301 5.69889 0
M  V30 29213 O 2686.28 2.17834 5.61099 0
M  V30 29214 H 2690.11 1.97112 2.31042 0
M  V30 29215 H 2687.69 1.01871 1.09282 0
M  V30 29216 H 2689.57 0.401056 4.19487 0
M  V30 29217 H 2688.25 -0.296364 3.2234 0
M  V30 29218 H 2687.16 2.01976 3.14891 0
M  V30 29219 H 2688.49 2.64079 4.15359 0
M  V30 29220 N 2690.14 -1.18133 1.04318 0
M  V30 29221 C 2691.05 -2.25504 0.646916 0
M  V30 29222 C 2692.07 -1.70881 -0.327977 0
M  V30 29223 O 2693.24 -2.00573 -0.182273 0
M  V30 29224 C 2690.31 -3.46695 0.0186273 0
M  V30 29225 C 2689.37 -4.16441 1.04285 0
M  V30 29226 C 2688.6 -5.31846 0.444445 0
M  V30 29227 O 2688.83 -5.65466 -0.748636 0
M  V30 29228 O 2687.76 -5.90332 1.17439 0
M  V30 29229 H 2691.59 -2.61669 1.54152 0
M  V30 29230 H 2689.17 -1.25264 0.81421 0
M  V30 29231 H 2691.05 -4.20098 -0.330994 0
M  V30 29232 H 2689.73 -3.12347 -0.84976 0
M  V30 29233 H 2688.63 -3.45095 1.44431 0
M  V30 29234 H 2689.97 -4.54795 1.88208 0
M  V30 29235 N 2691.62 -0.822988 -1.34405 0
M  V30 29236 C 2692.9 -0.333675 -1.92733 0
M  V30 29237 C 2693.28 1.17898 -1.75109 0
M  V30 29238 O 2692.63 1.98611 -1.12986 0
M  V30 29239 C 2692.84 -0.763083 -3.40555 0
M  V30 29240 C 2694.18 -0.761952 -4.17707 0
M  V30 29241 O 2695.21 -0.705667 -3.4914 0
M  V30 29242 O 2694.07 -0.835204 -5.4008 0
M  V30 29243 H 2691.16 -0.0911394 -0.821963 0
M  V30 29244 H 2693.71 -0.907782 -1.43379 0
M  V30 29245 H 2692.48 -1.80496 -3.47184 0
M  V30 29246 H 2692.1 -0.164675 -3.97259 0
M  V30 29247 N 2693.1 1.4662 -0.577957 0
M  V30 29248 C 2694.06 2.28723 0.147765 0
M  V30 29249 C 2695.06 1.38125 0.8233 0
M  V30 29250 O 2696.25 1.60549 0.675983 0
M  V30 29251 C 2693.38 3.1838 1.21848 0
M  V30 29252 H 2694.58 2.94361 -0.573706 0
M  V30 29253 H 2692.13 1.52652 -0.33573 0
M  V30 29254 H 2692.86 2.57479 1.97168 0
M  V30 29255 H 2692.65 3.8508 0.738647 0
M  V30 29256 H 2694.14 3.80189 1.72761 0
M  V30 29257 N 2694.58 0.315484 1.5441 0
M  V30 29258 C 2695.82 -0.288936 2.00024 0
M  V30 29259 C 2696.15 -1.53288 1.20532 0
M  V30 29260 O 2695.42 -1.93511 0.30502 0
M  V30 29261 H 2694 -0.109753 0.738893 0
M  V30 29262 H 2696.66 0.430163 1.90094 0
M  V30 29263 H 2695.75 -0.550945 3.07199 0
M  V30 29264 N 2696.05 -1.5754 0.0434891 0
M  V30 29265 C 2697.02 -2.09984 -0.918659 0
M  V30 29266 C 2698.02 -1.01783 -1.24486 0
M  V30 29267 O 2699.21 -1.27887 -1.18282 0
M  V30 29268 C 2696.34 -2.57768 -2.23088 0
M  V30 29269 H 2697.53 -2.96286 -0.464177 0
M  V30 29270 H 2695.09 -1.54953 -0.204791 0
M  V30 29271 H 2695.82 -1.74837 -2.73134 0
M  V30 29272 H 2695.61 -3.3683 -2.00718 0
M  V30 29273 H 2697.1 -2.98517 -2.92023 0
M  V30 29274 N 2697.53 0.229818 -1.55915 0
M  V30 29275 C 2698.95 0.57914 -1.48722 0
M  V30 29276 C 2699.15 1.87538 -0.737009 0
M  V30 29277 O 2698.2 2.51017 -0.273302 0
M  V30 29278 C 2699.52 0.66603 -2.93231 0
M  V30 29279 C 2701.07 0.757214 -3.03703 0
M  V30 29280 C 2701.54 0.875521 -4.49554 0
M  V30 29281 N 2703.03 0.939955 -4.53563 0
M  V30 29282 C 2703.77 1.05106 -5.63685 0
M  V30 29283 N 2703.26 1.12663 -6.83578 0
M  V30 29284 N 2705.06 1.08555 -5.51518 0
M  V30 29285 H 2697.21 -0.620893 -2.03122 0
M  V30 29286 H 2699.47 -0.216727 -0.922894 0
M  V30 29287 H 2699.18 -0.216701 -3.51032 0
M  V30 29288 H 2699.05 1.53237 -3.44671 0
M  V30 29289 H 2701.44 1.63039 -2.45972 0
M  V30 29290 H 2701.52 -0.134628 -2.55445 0
M  V30 29291 H 2701.16 0.00683423 -5.079 0
M  V30 29292 H 2701.09 1.78266 -4.95509 0
M  V30 29293 H 2703.58 0.892204 -3.67217 0
M  V30 29294 H 2703.9 1.21096 -7.63253 0
M  V30 29295 H 2702.24 1.09591 -6.86305 0
M  V30 29296 H 2705.43 1.02311 -4.56782 0
M  V30 29297 H 2705.6 1.16869 -6.37374 0
M  V30 29298 N 2699.01 1.49585 0.49619 0
M  V30 29299 C 2699.97 1.66087 1.57949 0
M  V30 29300 C 2700.97 0.532466 1.51728 0
M  V30 29301 O 2702.16 0.799017 1.54795 0
M  V30 29302 C 2699.3 1.66273 2.97601 0
M  V30 29303 H 2700.49 2.62713 1.44645 0
M  V30 29304 H 2698.04 1.38689 0.720775 0
M  V30 29305 H 2698.78 0.712487 3.16377 0
M  V30 29306 H 2698.56 2.48225 3.03524 0
M  V30 29307 H 2700.05 1.8108 3.76297 0
M  V30 29308 N 2700.49 -0.747586 1.3874 0
M  V30 29309 C 2701.9 -1.05146 1.20069 0
M  V30 29310 C 2702.1 -2.01429 0.0535189 0
M  V30 29311 O 2701.16 -2.45297 -0.598817 0
M  V30 29312 C 2702.47 -1.62579 2.52959 0
M  V30 29313 C 2704.02 -1.74721 2.59695 0
M  V30 29314 C 2704.5 -2.35566 3.92776 0
M  V30 29315 N 2705.99 -2.4299 3.94348 0
M  V30 29316 C 2706.72 -2.90977 4.94085 0
M  V30 29317 N 2706.22 -3.38954 6.0422 0
M  V30 29318 N 2708.01 -2.90072 4.81472 0
M  V30 29319 H 2700.16 -0.108771 2.12121 0
M  V30 29320 H 2702.43 -0.110882 0.941493 0
M  V30 29321 H 2702.13 -0.992991 3.37391 0
M  V30 29322 H 2702.01 -2.6156 2.71783 0
M  V30 29323 H 2704.39 -2.37127 1.75655 0
M  V30 29324 H 2704.47 -0.744283 2.44733 0
M  V30 29325 H 2704.12 -1.73792 4.77241 0
M  V30 29326 H 2704.05 -3.36512 4.05052 0
M  V30 29327 H 2706.54 -2.09064 3.14802 0
M  V30 29328 H 2706.85 -3.74044 6.76248 0
M  V30 29329 H 2705.2 -3.36996 6.07831 0
M  V30 29330 H 2708.39 -2.51905 3.9454 0
M  V30 29331 H 2708.56 -3.27157 5.5935 0
M  V30 29332 N 2701.97 -1.23709 -0.97642 0
M  V30 29333 C 2702.92 -0.988887 -2.05439 0
M  V30 29334 C 2703.9 0.0665619 -1.60762 0
M  V30 29335 O 2705.09 -0.146071 -1.76396 0
M  V30 29336 C 2702.22 -0.586283 -3.38257 0
M  V30 29337 C 2701.31 -1.67734 -3.8952 0
M  V30 29338 N 2701.7 -2.90841 -4.13817 0
M  V30 29339 C 2700 -1.55284 -4.18094 0
M  V30 29340 C 2700.7 -3.6151 -4.55725 0
M  V30 29341 N 2699.67 -2.89038 -4.60389 0
M  V30 29342 H 2703.48 -1.92379 -2.22188 0
M  V30 29343 H 2700.99 -1.13706 -1.15952 0
M  V30 29344 H 2702.99 -0.389731 -4.15074 0
M  V30 29345 H 2701.65 0.341537 -3.22899 0
M  V30 29346 H 2702.66 -3.27107 -4.01524 0
M  V30 29347 H 2699.33 -0.692423 -4.11718 0
M  V30 29348 H 2700.72 -4.67067 -4.83009 0
M  V30 29349 N 2703.44 1.17579 -1.04943 0
M  V30 29350 C 2704.39 2.21511 -0.648194 0
M  V30 29351 C 2705.36 1.62405 0.348402 0
M  V30 29352 O 2706.55 1.8928 0.240386 0
M  V30 29353 C 2703.69 3.4509 -0.0264898 0
M  V30 29354 C 2702.8 4.18498 -1.07161 0
M  V30 29355 C 2701.93 5.29557 -0.417496 0
M  V30 29356 C 2700.97 5.94748 -1.4471 0
M  V30 29357 N 2700.11 6.97326 -0.817325 0
M  V30 29358 H 2704.95 2.55186 -1.53896 0
M  V30 29359 H 2702.49 1.25354 -0.769721 0
M  V30 29360 H 2704.45 4.15718 0.351383 0
M  V30 29361 H 2703.08 3.12007 0.827747 0
M  V30 29362 H 2702.13 3.4661 -1.56735 0
M  V30 29363 H 2703.44 4.63093 -1.85328 0
M  V30 29364 H 2702.59 6.06698 0.0140994 0
M  V30 29365 H 2701.33 4.86088 0.39618 0
M  V30 29366 H 2700.34 5.1634 -1.88874 0
M  V30 29367 H 2701.56 6.40298 -2.26264 0
M  V30 29368 H 2699.51 6.55996 -0.0241148 0
M  V30 29369 H 2699.43 7.4022 -1.53657 0
M  V30 29370 H 2700.69 7.78419 -0.41042 0
M  V30 29371 N 2704.92 0.830104 1.33967 0
M  V30 29372 C 2705.86 0.202222 2.27302 0
M  V30 29373 C 2706.83 -0.645554 1.49236 0
M  V30 29374 O 2708.02 -0.607731 1.78435 0
M  V30 29375 C 2705.14 -0.716874 3.31027 0
M  V30 29376 C 2704.19 0.0543021 4.26465 0
M  V30 29377 S 2705.02 1.40631 5.16704 0
M  V30 29378 C 2706.18 0.492277 6.23961 0
M  V30 29379 H 2706.41 0.99351 2.80208 0
M  V30 29380 H 2703.95 0.626384 1.41123 0
M  V30 29381 H 2705.9 -1.24158 3.91274 0
M  V30 29382 H 2704.56 -1.48175 2.76953 0
M  V30 29383 H 2703.76 -0.644698 4.9986 0
M  V30 29384 H 2703.36 0.509787 3.70509 0
M  V30 29385 H 2705.65 -0.313351 6.76775 0
M  V30 29386 H 2706.59 1.19611 6.97925 0
M  V30 29387 H 2707 0.0775168 5.64447 0
M  V30 29388 N 2706.4 -1.46311 0.585725 0
M  V30 29389 C 2707.63 -2.06752 0.0781662 0
M  V30 29390 C 2708.04 -1.43399 -1.2281 0
M  V30 29391 O 2707.4 -0.540344 -1.74317 0
M  V30 29392 C 2707.45 -3.61385 -0.0911292 0
M  V30 29393 O 2707.17 -4.22369 1.16344 0
M  V30 29394 C 2708.67 -4.38762 -0.632688 0
M  V30 29395 H 2705.89 -0.668416 0.0588306 0
M  V30 29396 H 2708.44 -1.87893 0.807251 0
M  V30 29397 H 2706.59 -3.79662 -0.770447 0
M  V30 29398 H 2707.01 -5.15279 0.979173 0
M  V30 29399 H 2708.48 -5.4754 -0.700314 0
M  V30 29400 H 2708.96 -4.07015 -1.65032 0
M  V30 29401 H 2709.56 -4.25298 0.0118603 0
M  V30 29402 N 2707.88 -0.323668 -1.54241 0
M  V30 29403 C 2709.13 0.279771 -1.9975 0
M  V30 29404 C 2709.44 1.53238 -1.21563 0
M  V30 29405 O 2710.65 2.21182 -1.57451 0
M  V30 29406 C 2709.1 0.549052 -3.55687 0
M  V30 29407 C 2708.71 -0.68651 -4.42709 0
M  V30 29408 C 2710.46 1.11244 -4.09665 0
M  V30 29409 C 2708.36 -0.389126 -5.90118 0
M  V30 29410 H 2707.29 0.108317 -0.746179 0
M  V30 29411 H 2709.94 -0.435908 -1.78247 0
M  V30 29412 H 2708.33 1.32492 -3.73178 0
M  V30 29413 H 2709.5 -1.46196 -4.36994 0
M  V30 29414 H 2707.81 -1.17012 -3.99621 0
M  V30 29415 H 2710.41 1.34956 -5.17389 0
M  V30 29416 H 2710.75 2.06184 -3.61654 0
M  V30 29417 H 2711.29 0.397751 -3.95806 0
M  V30 29418 H 2708.03 -1.30771 -6.42323 0
M  V30 29419 H 2707.55 0.348617 -5.98786 0
M  V30 29420 H 2709.23 0.00100267 -6.47 0
M  V30 29421 N 2709.36 1.57515 -0.0518432 0
M  V30 29422 C 2710.32 2.10468 0.90751 0
M  V30 29423 C 2711.32 1.02442 1.23945 0
M  V30 29424 O 2712.51 1.28512 1.17602 0
M  V30 29425 C 2709.64 2.58948 2.21718 0
M  V30 29426 H 2710.84 2.96528 0.448457 0
M  V30 29427 H 2708.39 1.55059 0.19657 0
M  V30 29428 H 2709.12 1.76283 2.72203 0
M  V30 29429 H 2708.91 3.3789 1.98929 0
M  V30 29430 H 2710.4 3.00061 2.90436 0
M  V30 29431 N 2710.84 -0.221546 1.56035 0
M  V30 29432 C 2711.8 -1.25807 1.91586 0
M  V30 29433 C 2712.8 -1.39804 0.794449 0
M  V30 29434 O 2713.99 -1.38069 1.0622 0
M  V30 29435 C 2711.12 -2.63188 2.16668 0
M  V30 29436 H 2712.31 -0.954885 2.84292 0
M  V30 29437 H 2709.87 -0.461961 1.49317 0
M  V30 29438 H 2710.6 -2.98605 1.26514 0
M  V30 29439 H 2710.39 -2.54405 2.98363 0
M  V30 29440 H 2711.88 -3.37984 2.45268 0
M  V30 29441 N 2712.31 -1.49846 -0.48825 0
M  V30 29442 C 2713.24 -1.70373 -1.59672 0
M  V30 29443 C 2714.22 -0.552501 -1.60877 0
M  V30 29444 O 2715.41 -0.789761 -1.77416 0
M  V30 29445 C 2712.54 -1.78205 -2.98094 0
M  V30 29446 C 2711.49 -2.93244 -3.11756 0
M  V30 29447 C 2710.82 -2.86201 -4.51656 0
M  V30 29448 C 2712.12 -4.34004 -2.90581 0
M  V30 29449 H 2713.81 -2.6318 -1.42747 0
M  V30 29450 H 2711.36 -1.26648 -0.685295 0
M  V30 29451 H 2713.31 -1.91151 -3.75552 0
M  V30 29452 H 2712.04 -0.820073 -3.16137 0
M  V30 29453 H 2710.7 -2.79922 -2.36727 0
M  V30 29454 H 2710.34 -1.87885 -4.66592 0
M  V30 29455 H 2710.04 -3.6342 -4.61735 0
M  V30 29456 H 2711.57 -3.01172 -5.31157 0
M  V30 29457 H 2712.98 -4.47942 -3.578 0
M  V30 29458 H 2711.38 -5.12543 -3.12121 0
M  V30 29459 H 2712.45 -4.47564 -1.86587 0
M  V30 29460 N 2713.79 0.740218 -1.39135 0
M  V30 29461 C 2714.7 1.8847 -1.397 0
M  V30 29462 C 2715.72 1.71525 -0.292434 0
M  V30 29463 O 2716.89 1.94218 -0.533055 0
M  V30 29464 C 2713.96 3.24001 -1.23387 0
M  V30 29465 C 2713.02 3.53377 -2.43769 0
M  V30 29466 C 2712.25 4.82441 -2.28225 0
M  V30 29467 O 2712.48 5.55784 -1.28298 0
M  V30 29468 O 2711.41 5.11597 -3.17099 0
M  V30 29469 H 2715.24 1.90948 -2.36162 0
M  V30 29470 H 2712.82 0.887325 -1.20195 0
M  V30 29471 H 2714.7 4.05004 -1.16402 0
M  V30 29472 H 2713.38 3.22305 -0.300177 0
M  V30 29473 H 2712.28 2.72481 -2.5633 0
M  V30 29474 H 2713.62 3.59846 -3.35815 0
M  V30 29475 N 2715.27 1.24225 0.969846 0
M  V30 29476 C 2716.49 1.10857 1.75287 0
M  V30 29477 C 2716.92 -0.335046 1.85092 0
M  V30 29478 O 2716.28 -1.24253 1.32026 0
M  V30 29479 C 2716.33 1.75068 3.15252 0
M  V30 29480 O 2715.43 1.01999 3.99587 0
M  V30 29481 H 2714.77 0.387924 0.538898 0
M  V30 29482 H 2717.3 1.6449 1.21672 0
M  V30 29483 H 2717.31 1.80737 3.65784 0
M  V30 29484 H 2715.99 2.80105 3.07431 0
M  V30 29485 H 2714.56 1.041 3.58075 0
M  V30 29486 N 2716.75 -1.1702 1.05565 0
M  V30 29487 C 2717.69 -2.21164 0.659932 0
M  V30 29488 C 2718.66 -1.62587 -0.339785 0
M  V30 29489 O 2719.85 -1.89404 -0.230344 0
M  V30 29490 C 2716.99 -3.45071 0.0447904 0
M  V30 29491 C 2716.1 -4.17924 1.09379 0
M  V30 29492 C 2715.24 -5.29328 0.445574 0
M  V30 29493 C 2714.28 -5.93972 1.47863 0
M  V30 29494 N 2713.41 -6.96883 0.854295 0
M  V30 29495 H 2718.25 -2.54367 1.55247 0
M  V30 29496 H 2715.79 -1.24944 0.776358 0
M  V30 29497 H 2717.75 -4.15898 -0.329331 0
M  V30 29498 H 2716.38 -3.12441 -0.811189 0
M  V30 29499 H 2715.43 -3.45774 1.58571 0
M  V30 29500 H 2716.74 -4.62103 1.87782 0
M  V30 29501 H 2715.9 -6.06697 0.0180755 0
M  V30 29502 H 2714.64 -4.86291 -0.370396 0
M  V30 29503 H 2713.64 -5.15331 1.9161 0
M  V30 29504 H 2714.87 -6.39089 2.29656 0
M  V30 29505 H 2712.81 -6.55974 0.0589035 0
M  V30 29506 H 2712.73 -7.39395 1.5758 0
M  V30 29507 H 2714 -7.7819 0.451696 0
M  V30 29508 N 2718.23 -0.837197 -1.33524 0
M  V30 29509 C 2719.16 -0.284246 -2.31763 0
M  V30 29510 C 2720.14 0.607114 -1.58897 0
M  V30 29511 O 2721.32 0.531015 -1.86799 0
M  V30 29512 C 2718.45 0.542901 -3.4303 0
M  V30 29513 C 2717.41 -0.252526 -4.27254 0
M  V30 29514 C 2716.73 0.698266 -5.30121 0
M  V30 29515 C 2718.03 -1.46866 -5.01226 0
M  V30 29516 H 2719.73 -1.10507 -2.7826 0
M  V30 29517 H 2717.27 -0.532836 -1.33779 0
M  V30 29518 H 2719.22 0.940024 -4.10782 0
M  V30 29519 H 2717.95 1.39692 -2.95218 0
M  V30 29520 H 2716.61 -0.631188 -3.61125 0
M  V30 29521 H 2716.26 1.54864 -4.78567 0
M  V30 29522 H 2715.96 0.170171 -5.87354 0
M  V30 29523 H 2717.48 1.09294 -6.00739 0
M  V30 29524 H 2718.89 -1.14479 -5.61754 0
M  V30 29525 H 2717.29 -1.93343 -5.68101 0
M  V30 29526 H 2718.36 -2.23932 -4.30096 0
M  V30 29527 N 2719.7 1.45999 -0.593476 0
M  V30 29528 C 2720.67 2.28867 0.123497 0
M  V30 29529 C 2721.67 1.3899 0.808604 0
M  V30 29530 O 2722.86 1.61257 0.658916 0
M  V30 29531 C 2719.99 3.19655 1.18464 0
M  V30 29532 H 2721.18 2.93736 -0.604894 0
M  V30 29533 H 2718.73 1.52287 -0.351902 0
M  V30 29534 H 2719.47 2.59555 1.94426 0
M  V30 29535 H 2719.25 3.85842 0.697762 0
M  V30 29536 H 2720.74 3.82 1.68719 0
M  V30 29537 N 2721.18 0.331843 1.54067 0
M  V30 29538 C 2722.11 -0.564499 2.2214 0
M  V30 29539 C 2723.13 -1.0733 1.2241 0
M  V30 29540 O 2724.32 -0.985455 1.48832 0
M  V30 29541 C 2721.42 -1.78826 2.87879 0
M  V30 29542 C 2720.59 -1.41675 4.1382 0
M  V30 29543 C 2719.65 -2.49893 4.63077 0
M  V30 29544 O 2718.67 -2.1369 5.27565 0
M  V30 29545 N 2719.88 -3.80959 4.38007 0
M  V30 29546 H 2722.64 0.0184263 2.99694 0
M  V30 29547 H 2720.2 0.155424 1.61152 0
M  V30 29548 H 2722.19 -2.50631 3.17752 0
M  V30 29549 H 2720.76 -2.27884 2.13981 0
M  V30 29550 H 2719.98 -0.529976 3.90621 0
M  V30 29551 H 2721.27 -1.14435 4.95764 0
M  V30 29552 H 2720.67 -4.13166 3.86407 0
M  V30 29553 H 2719.23 -4.48969 4.72515 0
M  V30 29554 N 2722.66 -1.57485 0.0601958 0
M  V30 29555 C 2723.62 -2.10947 -0.896336 0
M  V30 29556 C 2724.62 -1.03098 -1.234 0
M  V30 29557 O 2725.81 -1.29134 -1.16919 0
M  V30 29558 C 2722.95 -2.6012 -2.20342 0
M  V30 29559 H 2724.14 -2.96762 -0.432726 0
M  V30 29560 H 2721.69 -1.55161 -0.188344 0
M  V30 29561 H 2722.43 -1.77724 -2.71265 0
M  V30 29562 H 2722.21 -3.3894 -1.97134 0
M  V30 29563 H 2723.7 -3.01597 -2.8884 0
M  V30 29564 N 2724.14 0.213268 -1.5615 0
M  V30 29565 C 2725.05 1.28515 -1.96268 0
M  V30 29566 C 2726.06 1.50822 -0.867676 0
M  V30 29567 O 2727.24 1.63791 -1.17194 0
M  V30 29568 C 2724.31 2.61323 -2.27841 0
M  V30 29569 C 2723.37 2.47246 -3.50953 0
M  V30 29570 C 2722.6 3.7372 -3.8101 0
M  V30 29571 O 2722.82 4.771 -3.1262 0
M  V30 29572 O 2721.76 3.70336 -4.74484 0
M  V30 29573 H 2725.58 0.974744 -2.87632 0
M  V30 29574 H 2723.17 0.416807 -1.43468 0
M  V30 29575 H 2725.05 3.39742 -2.49305 0
M  V30 29576 H 2723.72 2.92028 -1.39648 0
M  V30 29577 H 2722.63 1.66999 -3.34757 0
M  V30 29578 H 2723.96 2.21478 -4.39554 0
M  V30 29579 N 2725.62 1.50103 0.480296 0
M  V30 29580 C 2726.53 1.71064 1.60544 0
M  V30 29581 C 2727.54 0.593558 1.63563 0
M  V30 29582 O 2728.72 0.870782 1.81602 0
M  V30 29583 C 2725.78 1.79176 2.96811 0
M  V30 29584 C 2724.84 3.02867 3.04254 0
M  V30 29585 C 2724.08 3.10582 4.34021 0
M  V30 29586 O 2724.3 2.25332 5.24005 0
M  V30 29587 O 2723.23 4.0323 4.46866 0
M  V30 29588 H 2727.06 2.66422 1.45783 0
M  V30 29589 H 2724.65 1.3409 0.658814 0
M  V30 29590 H 2726.53 1.86745 3.77762 0
M  V30 29591 H 2725.2 0.870002 3.11789 0
M  V30 29592 H 2724.11 3.00803 2.22414 0
M  V30 29593 H 2725.44 3.94591 2.94209 0
M  V30 29594 N 2727.09 -0.732829 1.39526 0
M  V30 29595 C 2728.03 -1.85716 1.34322 0
M  V30 29596 C 2729.04 -1.60844 0.251604 0
M  V30 29597 O 2730.23 -1.71038 0.510715 0
M  V30 29598 C 2727.33 -3.21784 1.0634 0
M  V30 29599 C 2726.5 -3.73994 2.2682 0
M  V30 29600 C 2725.56 -4.8863 1.95261 0
M  V30 29601 O 2724.59 -5.02178 2.67966 0
M  V30 29602 N 2725.79 -5.73162 0.920085 0
M  V30 29603 H 2728.55 -1.90684 2.31214 0
M  V30 29604 H 2726.11 -0.913657 1.33656 0
M  V30 29605 H 2728.11 -3.96046 0.832432 0
M  V30 29606 H 2726.68 -3.12071 0.181737 0
M  V30 29607 H 2725.9 -2.91059 2.65854 0
M  V30 29608 H 2727.18 -4.0561 3.07177 0
M  V30 29609 H 2726.58 -5.64808 0.317586 0
M  V30 29610 H 2725.14 -6.47482 0.749019 0
M  V30 29611 N 2728.57 -1.24737 -0.963244 0
M  V30 29612 C 2729.5 -1.06836 -2.07626 0
M  V30 29613 C 2730.48 0.0200267 -1.70088 0
M  V30 29614 O 2731.67 -0.147888 -1.93636 0
M  V30 29615 C 2728.8 -0.677129 -3.40635 0
M  V30 29616 C 2727.75 -1.71478 -3.92147 0
M  V30 29617 C 2727.08 -1.17849 -5.21551 0
M  V30 29618 C 2728.38 -3.11172 -4.19487 0
M  V30 29619 H 2730.07 -1.99934 -2.2286 0
M  V30 29620 H 2727.62 -0.962679 -1.07091 0
M  V30 29621 H 2729.57 -0.538866 -4.1794 0
M  V30 29622 H 2728.3 0.289554 -3.25314 0
M  V30 29623 H 2726.95 -1.84134 -3.17002 0
M  V30 29624 H 2726.6 -0.202284 -5.02593 0
M  V30 29625 H 2726.3 -1.87195 -5.56985 0
M  V30 29626 H 2727.83 -1.05244 -6.01462 0
M  V30 29627 H 2729.24 -3.01719 -4.87482 0
M  V30 29628 H 2727.64 -3.77911 -4.66158 0
M  V30 29629 H 2728.71 -3.58877 -3.26091 0
M  V30 29630 N 2730.05 1.16459 -1.06184 0
M  V30 29631 C 2730.96 2.24446 -0.68271 0
M  V30 29632 C 2731.98 1.71381 0.30075 0
M  V30 29633 O 2733.15 2.00838 0.150341 0
M  V30 29634 C 2730.22 3.46621 -0.0737811 0
M  V30 29635 C 2729.28 4.14729 -1.10897 0
M  V30 29636 C 2728.51 5.31072 -0.529001 0
M  V30 29637 O 2728.73 5.66585 0.65858 0
M  V30 29638 O 2727.67 5.88389 -1.26815 0
M  V30 29639 H 2731.49 2.59184 -1.58295 0
M  V30 29640 H 2729.08 1.23952 -0.834035 0
M  V30 29641 H 2730.96 4.20571 0.264118 0
M  V30 29642 H 2729.64 3.1366 0.79996 0
M  V30 29643 H 2728.54 3.42754 -1.49903 0
M  V30 29644 H 2729.88 4.51743 -1.9542 0
M  V30 29645 N 2731.53 0.844266 1.33079 0
M  V30 29646 C 2732.46 0.238711 2.27954 0
M  V30 29647 C 2733.47 -0.583639 1.51979 0
M  V30 29648 O 2734.66 -0.409826 1.73732 0
M  V30 29649 C 2731.76 -0.682127 3.31964 0
M  V30 29650 C 2730.94 0.102075 4.37281 0
M  V30 29651 C 2729.99 -0.74293 5.20929 0
M  V30 29652 O 2729.02 -0.180185 5.68915 0
M  V30 29653 N 2730.22 -2.0594 5.42742 0
M  V30 29654 H 2732.99 1.05391 2.80558 0
M  V30 29655 H 2730.55 0.703245 1.45829 0
M  V30 29656 H 2732.54 -1.25252 3.8483 0
M  V30 29657 H 2731.11 -1.39803 2.79596 0
M  V30 29658 H 2730.33 0.85387 3.84841 0
M  V30 29659 H 2731.62 0.641104 5.04745 0
M  V30 29660 H 2731.02 -2.54007 5.05467 0
M  V30 29661 H 2729.57 -2.57816 5.98644 0
M  V30 29662 N 2733.01 -1.45682 0.60121 0
M  V30 29663 C 2733.92 -2.34275 -0.123354 0
M  V30 29664 C 2734.93 -1.50862 -0.866994 0
M  V30 29665 O 2736.11 -1.83682 -0.826017 0
M  V30 29666 C 2733.17 -3.28372 -1.11231 0
M  V30 29667 C 2732.23 -4.27691 -0.37133 0
M  V30 29668 C 2731.47 -5.17292 -1.31318 0
M  V30 29669 O 2731.69 -5.10192 -2.55069 0
M  V30 29670 O 2730.62 -5.96374 -0.813706 0
M  V30 29671 H 2734.45 -2.97622 0.604535 0
M  V30 29672 H 2732.04 -1.4496 0.361503 0
M  V30 29673 H 2733.92 -3.86373 -1.68208 0
M  V30 29674 H 2732.59 -2.67598 -1.82134 0
M  V30 29675 H 2731.5 -3.73325 0.240736 0
M  V30 29676 H 2732.83 -4.91303 0.297085 0
M  V30 29677 N 2734.48 -0.340009 -1.53889 0
M  V30 29678 C 2735.71 0.259078 -2.05272 0
M  V30 29679 C 2736.13 1.44494 -1.2152 0
M  V30 29680 O 2735.48 1.80784 -0.249692 0
M  V30 29681 C 2735.54 0.677571 -3.55093 0
M  V30 29682 O 2735.26 -0.461128 -4.35666 0
M  V30 29683 C 2736.76 1.33775 -4.22634 0
M  V30 29684 H 2733.98 0.0506448 -0.669086 0
M  V30 29685 H 2736.52 -0.49097 -1.98519 0
M  V30 29686 H 2734.68 1.37757 -3.6208 0
M  V30 29687 H 2735.09 -0.128236 -5.24343 0
M  V30 29688 H 2736.56 1.58136 -5.28864 0
M  V30 29689 H 2737.04 2.2902 -3.74762 0
M  V30 29690 H 2737.65 0.679883 -4.19831 0
M  V30 29691 N 2735.96 1.57451 -0.0685468 0
M  V30 29692 C 2737.38 1.56979 0.288074 0
M  V30 29693 C 2737.58 1.07768 1.7026 0
M  V30 29694 O 2736.64 0.742097 2.41349 0
M  V30 29695 C 2737.95 3.00531 0.100692 0
M  V30 29696 C 2739.5 3.12535 0.170476 0
M  V30 29697 C 2739.97 4.57999 0.0114139 0
M  V30 29698 N 2741.46 4.63151 0.0671251 0
M  V30 29699 C 2742.2 5.73391 -0.0315821 0
M  V30 29700 N 2741.69 6.92557 -0.183625 0
M  V30 29701 N 2743.49 5.62094 0.0252501 0
M  V30 29702 H 2735.64 1.87755 -0.993059 0
M  V30 29703 H 2737.9 0.865412 -0.386996 0
M  V30 29704 H 2737.61 3.40635 -0.875257 0
M  V30 29705 H 2737.48 3.67396 0.854392 0
M  V30 29706 H 2739.87 2.7232 1.13691 0
M  V30 29707 H 2739.95 2.48315 -0.614273 0
M  V30 29708 H 2739.59 4.98903 -0.951771 0
M  V30 29709 H 2739.52 5.20247 0.815526 0
M  V30 29710 H 2742.01 3.77456 0.18318 0
M  V30 29711 H 2742.33 7.72392 -0.251177 0
M  V30 29712 H 2740.67 6.94655 -0.218944 0
M  V30 29713 H 2743.86 4.67882 0.142711 0
M  V30 29714 H 2744.04 6.47977 -0.0551305 0
M  V30 29715 N 2737.44 -0.204984 1.56261 0
M  V30 29716 C 2738.35 -1.27473 1.96946 0
M  V30 29717 C 2739.37 -1.5036 0.875662 0
M  V30 29718 O 2740.54 -1.63167 1.18061 0
M  V30 29719 C 2737.61 -2.60111 2.29223 0
M  V30 29720 C 2736.67 -2.45381 3.52259 0
M  V30 29721 C 2735.9 -3.71694 3.82987 0
M  V30 29722 O 2736.13 -4.75436 3.15146 0
M  V30 29723 O 2735.06 -3.67815 4.76441 0
M  V30 29724 H 2738.89 -0.959477 2.88145 0
M  V30 29725 H 2736.47 -0.409192 1.43687 0
M  V30 29726 H 2738.35 -3.38415 2.51104 0
M  V30 29727 H 2737.03 -2.91283 1.41195 0
M  V30 29728 H 2735.93 -1.65221 3.35638 0
M  V30 29729 H 2737.27 -2.19144 4.40723 0
M  V30 29730 N 2738.92 -1.50356 -0.472329 0
M  V30 29731 C 2740.34 -1.37754 -0.805977 0
M  V30 29732 C 2740.54 -0.432684 -1.968 0
M  V30 29733 O 2739.59 0.125146 -2.5219 0
M  V30 29734 C 2740.9 -2.79095 -1.11921 0
M  V30 29735 C 2742.45 -2.88001 -1.22574 0
M  V30 29736 C 2742.93 -4.30173 -1.5721 0
M  V30 29737 N 2744.42 -4.33118 -1.64204 0
M  V30 29738 C 2745.15 -5.40119 -1.92507 0
M  V30 29739 N 2744.65 -6.57329 -2.18839 0
M  V30 29740 N 2746.44 -5.27561 -1.93999 0
M  V30 29741 H 2738.59 -2.10363 0.293488 0
M  V30 29742 H 2740.86 -0.945501 0.0687838 0
M  V30 29743 H 2740.56 -3.50068 -0.338442 0
M  V30 29744 H 2740.44 -3.1626 -2.05571 0
M  V30 29745 H 2742.82 -2.17248 -1.99718 0
M  V30 29746 H 2742.9 -2.54381 -0.269062 0
M  V30 29747 H 2742.55 -5.01463 -0.806066 0
M  V30 29748 H 2742.48 -4.61279 -2.54026 0
M  V30 29749 H 2744.97 -3.48599 -1.459 0
M  V30 29750 H 2745.28 -7.34685 -2.39705 0
M  V30 29751 H 2743.63 -6.60506 -2.16234 0
M  V30 29752 H 2746.82 -4.34989 -1.72923 0
M  V30 29753 H 2746.99 -6.11039 -2.15721 0
M  V30 29754 N 2740.4 0.725419 -1.39912 0
M  V30 29755 C 2741.65 1.48066 -1.36965 0
M  V30 29756 C 2741.96 1.95579 0.0284134 0
M  V30 29757 O 2743.17 2.70899 0.180487 0
M  V30 29758 C 2741.62 2.67594 -2.40669 0
M  V30 29759 C 2741.23 2.2699 -3.86238 0
M  V30 29760 C 2742.97 3.45375 -2.46813 0
M  V30 29761 C 2740.88 3.43298 -4.8156 0
M  V30 29762 H 2739.81 0.556056 -0.509233 0
M  V30 29763 H 2742.46 0.790425 -1.65604 0
M  V30 29764 H 2740.84 3.38739 -2.05115 0
M  V30 29765 H 2742.02 1.63329 -4.30883 0
M  V30 29766 H 2740.33 1.62278 -3.83477 0
M  V30 29767 H 2742.93 4.31903 -3.1522 0
M  V30 29768 H 2743.27 3.88507 -1.49559 0
M  V30 29769 H 2743.81 2.81266 -2.81308 0
M  V30 29770 H 2740.54 3.05207 -5.80111 0
M  V30 29771 H 2740.06 4.05908 -4.41587 0
M  V30 29772 H 2741.74 4.09501 -5.00917 0
M  V30 29773 N 2741.88 1.25246 0.956615 0
M  V30 29774 C 2742.81 1.07935 2.07056 0
M  V30 29775 C 2743.79 -0.0110062 1.70096 0
M  V30 29776 O 2744.97 0.158155 1.93555 0
M  V30 29777 C 2742.1 0.695184 3.40271 0
M  V30 29778 C 2741.06 1.73555 3.91232 0
M  V30 29779 C 2740.38 1.20613 5.20919 0
M  V30 29780 C 2741.68 3.13392 4.17831 0
M  V30 29781 H 2743.38 2.01113 2.21797 0
M  V30 29782 H 2740.92 0.968345 1.06579 0
M  V30 29783 H 2742.87 0.561023 4.17649 0
M  V30 29784 H 2741.6 -0.272298 3.25463 0
M  V30 29785 H 2740.26 1.85812 3.16021 0
M  V30 29786 H 2739.91 0.228934 5.02479 0
M  V30 29787 H 2739.61 1.90146 5.55984 0
M  V30 29788 H 2741.13 1.08432 6.00895 0
M  V30 29789 H 2742.54 3.043 4.85875 0
M  V30 29790 H 2740.94 3.80377 4.64148 0
M  V30 29791 H 2742.01 3.60601 3.24183 0
M  V30 29792 N 2743.35 -1.15894 1.068 0
M  V30 29793 C 2744.58 -1.90981 0.808773 0
M  V30 29794 C 2745 -1.7718 -0.631568 0
M  V30 29795 O 2744.36 -1.10064 -1.44068 0
M  V30 29796 C 2744.41 -3.39524 1.21474 0
M  V30 29797 O 2743.51 -4.10855 0.356634 0
M  V30 29798 H 2742.85 -0.594806 0.29513 0
M  V30 29799 H 2745.38 -1.46801 1.42515 0
M  V30 29800 H 2745.39 -3.90306 1.18851 0
M  V30 29801 H 2744.07 -3.48888 2.26385 0
M  V30 29802 H 2742.65 -3.70237 0.444874 0
M  V30 29803 N 2744.83 -0.851312 -1.32629 0
M  V30 29804 C 2746.08 -0.452163 -1.96977 0
M  V30 29805 C 2746.4 0.99479 -1.67717 0
M  V30 29806 O 2745.67 1.69474 -0.98262 0
M  V30 29807 H 2744.25 -0.164214 -0.728727 0
M  V30 29808 H 2746.91 -1.08701 -1.61772 0
M  V30 29809 H 2746.01 -0.594461 -3.06386 0
M  V30 29810 N 2746.31 1.45361 -0.608928 0
M  V30 29811 C 2747.26 2.30542 0.109131 0
M  V30 29812 C 2748.23 1.42183 0.858679 0
M  V30 29813 O 2749.41 1.7111 0.844148 0
M  V30 29814 C 2746.55 3.27111 1.09965 0
M  V30 29815 C 2745.66 4.30573 0.350836 0
M  V30 29816 C 2744.8 5.1425 1.33119 0
M  V30 29817 C 2743.84 6.09438 0.57027 0
M  V30 29818 N 2742.98 6.8589 1.49998 0
M  V30 29819 H 2747.82 2.9141 -0.623246 0
M  V30 29820 H 2745.35 1.43596 -0.319147 0
M  V30 29821 H 2747.31 3.81567 1.68708 0
M  V30 29822 H 2745.94 2.67994 1.79942 0
M  V30 29823 H 2744.99 3.78767 -0.35212 0
M  V30 29824 H 2746.3 4.98209 -0.242812 0
M  V30 29825 H 2745.46 5.73113 1.99064 0
M  V30 29826 H 2744.2 4.46636 1.95877 0
M  V30 29827 H 2743.2 5.49704 -0.102798 0
M  V30 29828 H 2744.43 6.7908 -0.05228 0
M  V30 29829 H 2742.37 6.20964 2.11518 0
M  V30 29830 H 2742.29 7.49883 0.959802 0
M  V30 29831 H 2743.56 7.49293 2.14896 0
M  V30 29832 N 2747.79 0.348166 1.53706 0
M  V30 29833 C 2748.72 -0.498726 2.28112 0
M  V30 29834 C 2749.7 -1.09873 1.29853 0
M  V30 29835 O 2750.88 -1.11926 1.58702 0
M  V30 29836 C 2748.01 -1.64748 3.05738 0
M  V30 29837 C 2746.97 -1.17558 4.11539 0
M  V30 29838 C 2746.29 -2.41321 4.77146 0
M  V30 29839 C 2747.59 -0.272752 5.21587 0
M  V30 29840 H 2749.29 0.121986 2.99151 0
M  V30 29841 H 2746.83 0.0601095 1.43874 0
M  V30 29842 H 2748.79 -2.24643 3.5653 0
M  V30 29843 H 2747.51 -2.29516 2.32358 0
M  V30 29844 H 2746.17 -0.599419 3.61666 0
M  V30 29845 H 2745.82 -3.04507 4.00356 0
M  V30 29846 H 2745.52 -2.10427 5.4863 0
M  V30 29847 H 2747.04 -3.01934 5.30724 0
M  V30 29848 H 2748.46 -0.778679 5.67987 0
M  V30 29849 H 2746.85 -0.0554795 6.00074 0
M  V30 29850 H 2747.92 0.689869 4.79968 0
M  V30 29851 N 2749.27 -1.57412 0.0768958 0
M  V30 29852 C 2750.51 -1.93969 -0.591927 0
M  V30 29853 C 2750.84 -0.957529 -1.68953 0
M  V30 29854 O 2750.12 0.0124334 -1.94496 0
M  V30 29855 C 2750.4 -3.40764 -1.16412 0
M  V30 29856 C 2750.26 -4.49741 -0.0728142 0
M  V30 29857 C 2751.57 -3.88483 -2.06807 0
M  V30 29858 H 2748.69 -0.705337 -0.213703 0
M  V30 29859 H 2751.34 -1.89454 0.143903 0
M  V30 29860 H 2749.49 -3.44743 -1.79122 0
M  V30 29861 H 2751.16 -4.57882 0.560526 0
M  V30 29862 H 2749.4 -4.29687 0.595934 0
M  V30 29863 H 2750.07 -5.49605 -0.513658 0
M  V30 29864 H 2752.55 -3.86542 -1.54027 0
M  V30 29865 H 2751.42 -4.91797 -2.43776 0
M  V30 29866 H 2751.68 -3.26719 -2.97838 0
M  V30 29867 N 2750.74 0.196695 -1.56368 0
M  V30 29868 C 2752.16 0.547464 -1.49917 0
M  V30 29869 C 2752.36 1.85932 -0.776623 0
M  V30 29870 O 2751.42 2.5038 -0.326484 0
M  V30 29871 C 2752.73 0.603682 -2.94578 0
M  V30 29872 C 2754.28 0.692624 -3.0524 0
M  V30 29873 C 2754.75 0.779967 -4.5131 0
M  V30 29874 N 2756.24 0.843536 -4.55454 0
M  V30 29875 C 2756.98 0.931259 -5.65787 0
M  V30 29876 N 2756.47 0.981382 -6.85814 0
M  V30 29877 N 2758.27 0.968323 -5.53697 0
M  V30 29878 H 2750.42 -0.663838 -2.0176 0
M  V30 29879 H 2752.68 -0.236254 -0.918089 0
M  V30 29880 H 2752.39 -0.291111 -3.50493 0
M  V30 29881 H 2752.26 1.45892 -3.47844 0
M  V30 29882 H 2754.65 1.57785 -2.49375 0
M  V30 29883 H 2754.73 -0.188781 -2.55102 0
M  V30 29884 H 2754.37 -0.1009 -5.078 0
M  V30 29885 H 2754.3 1.67715 -4.99179 0
M  V30 29886 H 2756.79 0.814111 -3.69027 0
M  V30 29887 H 2757.11 1.04879 -7.6565 0
M  V30 29888 H 2755.45 0.950087 -6.88475 0
M  V30 29889 H 2758.64 0.925991 -4.5885 0
M  V30 29890 H 2758.82 1.03323 -6.3971 0
M  V30 29891 N 2752.22 1.50604 0.464349 0
M  V30 29892 C 2753.64 1.3818 0.79866 0
M  V30 29893 C 2753.84 0.443115 1.96567 0
M  V30 29894 O 2752.89 -0.11177 2.52253 0
M  V30 29895 C 2754.21 2.79685 1.10439 0
M  V30 29896 C 2755.76 2.88647 1.21045 0
M  V30 29897 C 2756.23 4.31001 1.54927 0
M  V30 29898 N 2757.72 4.33983 1.61905 0
M  V30 29899 C 2758.46 5.41132 1.8964 0
M  V30 29900 N 2757.95 6.5848 2.1535 0
M  V30 29901 N 2759.75 5.28583 1.91198 0
M  V30 29902 H 2751.9 2.10204 -0.30464 0
M  V30 29903 H 2754.16 0.945123 -0.073797 0
M  V30 29904 H 2753.87 3.50242 0.319872 0
M  V30 29905 H 2753.74 3.17346 2.03891 0
M  V30 29906 H 2756.13 2.18304 1.98563 0
M  V30 29907 H 2756.21 2.5452 0.255568 0
M  V30 29908 H 2755.85 5.01883 0.77946 0
M  V30 29909 H 2755.78 4.6262 2.51576 0
M  V30 29910 H 2758.27 3.49368 1.44049 0
M  V30 29911 H 2758.59 7.35945 2.35805 0
M  V30 29912 H 2756.93 6.61643 2.12728 0
M  V30 29913 H 2760.12 4.359 1.70614 0
M  V30 29914 H 2760.29 6.12174 2.12477 0
M  V30 29915 N 2753.7 -0.717989 1.40295 0
M  V30 29916 C 2754.66 -1.81378 1.40123 0
M  V30 29917 C 2755.66 -1.58063 0.295433 0
M  V30 29918 O 2756.85 -1.65149 0.554216 0
M  V30 29919 C 2753.99 -3.19433 1.19061 0
M  V30 29920 H 2755.18 -1.82929 2.37649 0
M  V30 29921 H 2752.73 -0.923382 1.26108 0
M  V30 29922 H 2753.47 -3.23533 0.222866 0
M  V30 29923 H 2753.25 -3.37755 1.99158 0
M  V30 29924 H 2754.74 -3.99466 1.21723 0
M  V30 29925 N 2755.18 -1.25752 -0.94996 0
M  V30 29926 C 2756.09 -1.08299 -2.08107 0
M  V30 29927 C 2757.1 -0.0188487 -1.7399 0
M  V30 29928 O 2758.28 -0.220759 -2.00186 0
M  V30 29929 C 2755.35 -0.708594 -3.39382 0
M  V30 29930 C 2754.41 -1.85118 -3.87337 0
M  V30 29931 C 2753.64 -1.49456 -5.12346 0
M  V30 29932 O 2753.86 -0.392312 -5.69049 0
M  V30 29933 O 2752.8 -2.32634 -5.55126 0
M  V30 29934 H 2756.62 -2.03169 -2.25735 0
M  V30 29935 H 2754.21 -1.04733 -1.06543 0
M  V30 29936 H 2756.09 -0.512134 -4.18276 0
M  V30 29937 H 2754.76 0.210797 -3.23013 0
M  V30 29938 H 2753.67 -2.10254 -3.09426 0
M  V30 29939 H 2755 -2.74998 -4.08212 0
M  V30 29940 N 2756.66 1.15326 -1.07413 0
M  V30 29941 C 2757.6 2.20086 -0.695034 0
M  V30 29942 C 2758.57 1.63107 0.313875 0
M  V30 29943 O 2759.76 1.89747 0.200182 0
M  V30 29944 C 2756.9 3.44956 -0.0996825 0
M  V30 29945 C 2756.01 4.16131 -1.16014 0
M  V30 29946 C 2755.15 5.28552 -0.529729 0
M  V30 29947 C 2754.19 5.91545 -1.57293 0
M  V30 29948 N 2753.32 6.95436 -0.965055 0
M  V30 29949 H 2758.16 2.51864 -1.59274 0
M  V30 29950 H 2755.7 1.23693 -0.796137 0
M  V30 29951 H 2757.66 4.16369 0.263124 0
M  V30 29952 H 2756.29 3.13692 0.761379 0
M  V30 29953 H 2755.34 3.43207 -1.64051 0
M  V30 29954 H 2756.65 4.59057 -1.95109 0
M  V30 29955 H 2755.81 6.06592 -0.114593 0
M  V30 29956 H 2754.54 4.86819 0.292984 0
M  V30 29957 H 2753.55 5.12217 -1.99784 0
M  V30 29958 H 2754.77 6.35355 -2.39794 0
M  V30 29959 H 2752.72 6.55797 -0.163256 0
M  V30 29960 H 2752.64 7.36794 -1.69324 0
M  V30 29961 H 2753.91 7.77373 -0.575442 0
M  V30 29962 N 2758.13 0.858334 1.32176 0
M  V30 29963 C 2759.55 0.548682 1.49872 0
M  V30 29964 C 2759.75 -0.919842 1.7928 0
M  V30 29965 O 2758.81 -1.70268 1.86454 0
M  V30 29966 C 2760.12 1.43885 2.64041 0
M  V30 29967 C 2761.67 1.43966 2.77926 0
M  V30 29968 C 2762.14 2.31513 3.95178 0
M  V30 29969 N 2763.63 2.29329 4.02446 0
M  V30 29970 C 2764.37 2.93795 4.92415 0
M  V30 29971 N 2763.86 3.67387 5.87366 0
M  V30 29972 N 2765.66 2.83163 4.85567 0
M  V30 29973 H 2757.81 1.8087 1.11354 0
M  V30 29974 H 2760.07 0.772739 0.549162 0
M  V30 29975 H 2759.78 2.48328 2.4905 0
M  V30 29976 H 2759.65 1.12891 3.5991 0
M  V30 29977 H 2762.04 0.402864 2.92337 0
M  V30 29978 H 2762.12 1.78977 1.82759 0
M  V30 29979 H 2761.76 3.35262 3.81525 0
M  V30 29980 H 2761.69 1.93832 4.89629 0
M  V30 29981 H 2764.18 1.75827 3.34504 0
M  V30 29982 H 2764.5 4.13734 6.52721 0
M  V30 29983 H 2762.84 3.71495 5.87381 0
M  V30 29984 H 2766.03 2.25218 4.10359 0
M  V30 29985 H 2766.21 3.33685 5.5548 0
M  V30 29986 N 2759.61 -1.45036 0.616628 0
M  V30 29987 C 2760.54 -2.33349 -0.0840377 0
M  V30 29988 C 2761.52 -1.47362 -0.849615 0
M  V30 29989 O 2762.71 -1.76114 -0.818376 0
M  V30 29990 C 2759.84 -3.30212 -1.07599 0
M  V30 29991 C 2758.79 -4.25904 -0.423021 0
M  V30 29992 C 2758.12 -5.12526 -1.52385 0
M  V30 29993 C 2759.42 -5.18093 0.661549 0
M  V30 29994 H 2761.11 -2.92184 0.653385 0
M  V30 29995 H 2758.66 -1.40498 0.315658 0
M  V30 29996 H 2760.61 -3.90869 -1.57479 0
M  V30 29997 H 2759.34 -2.69555 -1.84412 0
M  V30 29998 H 2757.99 -3.66559 0.0549944 0
M  V30 29999 H 2757.64 -4.48231 -2.28249 0
M  V30 30000 H 2757.34 -5.77356 -1.09241 0
M  V30 30001 H 2758.87 -5.76052 -2.02474 0
M  V30 30002 H 2760.28 -5.7277 0.246453 0
M  V30 30003 H 2758.68 -5.91449 1.01527 0
M  V30 30004 H 2759.75 -4.59978 1.53454 0
M  V30 30005 N 2761.09 -0.356312 -1.53519 0
M  V30 30006 C 2762.04 0.49453 -2.2544 0
M  V30 30007 C 2763.01 1.08514 -1.25753 0
M  V30 30008 O 2764.19 1.11937 -1.54515 0
M  V30 30009 C 2761.33 1.63308 -3.04014 0
M  V30 30010 C 2760.45 1.06854 -4.18576 0
M  V30 30011 C 2759.58 2.17544 -4.84611 0
M  V30 30012 C 2758.62 1.58507 -5.91221 0
M  V30 30013 N 2757.76 2.62991 -6.50984 0
M  V30 30014 H 2762.6 -0.125296 -2.97736 0
M  V30 30015 H 2760.13 -0.0736047 -1.46916 0
M  V30 30016 H 2762.09 2.30357 -3.47838 0
M  V30 30017 H 2760.72 2.2237 -2.3399 0
M  V30 30018 H 2759.77 0.288605 -3.79304 0
M  V30 30019 H 2761.09 0.596837 -4.95216 0
M  V30 30020 H 2760.24 2.92433 -5.31571 0
M  V30 30021 H 2758.98 2.68063 -4.07423 0
M  V30 30022 H 2757.98 0.821295 -5.43631 0
M  V30 30023 H 2759.21 1.08824 -6.70324 0
M  V30 30024 H 2757.15 3.12741 -5.76653 0
M  V30 30025 H 2757.07 2.20481 -7.23135 0
M  V30 30026 H 2758.34 3.3761 -7.02595 0
M  V30 30027 N 2762.57 1.57369 -0.0852427 0
M  V30 30028 C 2763.48 2.16994 0.891674 0
M  V30 30029 C 2764.49 1.13671 1.31738 0
M  V30 30030 O 2765.67 1.45998 1.38732 0
M  V30 30031 C 2762.74 2.73062 2.1363 0
M  V30 30032 C 2761.8 3.91306 1.76573 0
M  V30 30033 C 2761.03 4.44691 2.95103 0
M  V30 30034 O 2761.25 3.97039 4.09532 0
M  V30 30035 O 2760.19 5.35846 2.7414 0
M  V30 30036 H 2764.01 3.00859 0.414424 0
M  V30 30037 H 2761.6 1.48756 0.138572 0
M  V30 30038 H 2763.48 3.0894 2.8659 0
M  V30 30039 H 2762.15 1.92249 2.60427 0
M  V30 30040 H 2761.06 3.60257 1.00824 0
M  V30 30041 H 2762.39 4.73453 1.34548 0
M  V30 30042 N 2764.05 -0.188399 1.5647 0
M  V30 30043 C 2765.29 -0.909092 1.81283 0
M  V30 30044 C 2765.63 -1.82627 0.660372 0
M  V30 30045 O 2764.9 -1.91528 -0.338703 0
M  V30 30046 C 2765.18 -1.71955 3.16391 0
M  V30 30047 C 2765.04 -0.826637 4.42139 0
M  V30 30048 C 2766.36 -2.69077 3.48261 0
M  V30 30049 H 2763.47 -0.329057 0.659462 0
M  V30 30050 H 2766.12 -0.176122 1.89182 0
M  V30 30051 H 2764.27 -2.34443 3.09788 0
M  V30 30052 H 2765.94 -0.215944 4.60794 0
M  V30 30053 H 2764.18 -0.133716 4.33594 0
M  V30 30054 H 2764.85 -1.42884 5.33187 0
M  V30 30055 H 2767.33 -2.1672 3.55207 0
M  V30 30056 H 2766.2 -3.22862 4.43905 0
M  V30 30057 H 2766.47 -3.4845 2.72094 0
M  V30 30058 N 2765.53 -1.50848 -0.456355 0
M  V30 30059 C 2766.77 -1.62814 -1.20912 0
M  V30 30060 C 2767.1 -0.334337 -1.913 0
M  V30 30061 O 2766.38 0.665066 -1.82776 0
M  V30 30062 C 2766.66 -2.81857 -2.24117 0
M  V30 30063 C 2766.52 -4.21161 -1.57936 0
M  V30 30064 C 2767.83 -2.96437 -3.2529 0
M  V30 30065 H 2764.95 -0.592562 -0.438223 0
M  V30 30066 H 2767.6 -1.83279 -0.500878 0
M  V30 30067 H 2765.75 -2.64539 -2.8452 0
M  V30 30068 H 2767.42 -4.50104 -1.01017 0
M  V30 30069 H 2765.66 -4.24737 -0.88211 0
M  V30 30070 H 2766.33 -5.00412 -2.33005 0
M  V30 30071 H 2768.81 -3.12339 -2.74924 0
M  V30 30072 H 2767.68 -3.81329 -3.94816 0
M  V30 30073 H 2767.94 -2.07683 -3.90282 0
M  V30 30074 N 2767 0.710538 -1.40674 0
M  V30 30075 C 2767.93 1.83734 -1.44098 0
M  V30 30076 C 2768.91 1.6741 -0.301315 0
M  V30 30077 O 2770.1 1.87366 -0.510651 0
M  V30 30078 C 2767.23 3.21736 -1.30779 0
M  V30 30079 C 2766.18 3.5274 -2.42401 0
M  V30 30080 C 2765.51 4.8994 -2.14156 0
M  V30 30081 C 2766.81 3.53227 -3.84744 0
M  V30 30082 H 2768.5 1.81125 -2.38399 0
M  V30 30083 H 2766.05 0.869996 -1.14748 0
M  V30 30084 H 2768 4.00262 -1.3179 0
M  V30 30085 H 2766.73 3.24933 -0.329565 0
M  V30 30086 H 2765.39 2.76558 -2.40648 0
M  V30 30087 H 2765.03 4.89745 -1.14712 0
M  V30 30088 H 2764.73 5.1165 -2.88943 0
M  V30 30089 H 2766.26 5.70793 -2.16858 0
M  V30 30090 H 2767.67 4.21783 -3.88293 0
M  V30 30091 H 2766.07 3.86465 -4.59091 0
M  V30 30092 H 2767.14 2.52506 -4.13967 0
M  V30 30093 N 2768.48 1.26254 0.943277 0
M  V30 30094 C 2769.41 1.0342 2.04541 0
M  V30 30095 C 2770.43 -0.00466249 1.62799 0
M  V30 30096 O 2771.62 0.235177 1.76944 0
M  V30 30097 C 2768.72 0.54373 3.3451 0
M  V30 30098 C 2767.89 1.65135 4.0503 0
M  V30 30099 C 2766.95 1.15929 5.13271 0
M  V30 30100 O 2765.97 1.85595 5.38092 0
M  V30 30101 N 2767.18 0.00659483 5.805 0
M  V30 30102 H 2769.94 1.98323 2.24695 0
M  V30 30103 H 2767.5 1.17612 1.11262 0
M  V30 30104 H 2769.49 0.198774 4.04212 0
M  V30 30105 H 2768.06 -0.311656 3.11043 0
M  V30 30106 H 2767.28 2.16735 3.29271 0
M  V30 30107 H 2768.57 2.39516 4.48898 0
M  V30 30108 H 2767.97 -0.575248 5.62768 0
M  V30 30109 H 2766.53 -0.279302 6.51201 0
M  V30 30110 N 2769.96 -1.14755 1.08024 0
M  V30 30111 C 2771.21 -1.85977 0.808738 0
M  V30 30112 C 2771.54 -1.82505 -0.663732 0
M  V30 30113 O 2770.81 -1.25299 -1.48763 0
M  V30 30114 C 2771.1 -3.34786 1.32629 0
M  V30 30115 C 2770.95 -3.46851 2.86381 0
M  V30 30116 C 2772.27 -4.2976 0.948366 0
M  V30 30117 H 2769.39 -0.675272 0.295256 0
M  V30 30118 H 2772.03 -1.3478 1.33919 0
M  V30 30119 H 2770.18 -3.78517 0.875069 0
M  V30 30120 H 2771.85 -3.11935 3.39844 0
M  V30 30121 H 2770.09 -2.88189 3.24237 0
M  V30 30122 H 2770.77 -4.51434 3.17666 0
M  V30 30123 H 2773.24 -3.94025 1.33729 0
M  V30 30124 H 2772.12 -5.32349 1.33774 0
M  V30 30125 H 2772.38 -4.41862 -0.145016 0
M  V30 30126 N 2771.44 -0.865331 -1.31719 0
M  V30 30127 C 2772.35 -0.320976 -2.32394 0
M  V30 30128 C 2773.36 0.566717 -1.64512 0
M  V30 30129 O 2774.54 0.46454 -1.95969 0
M  V30 30130 C 2771.6 0.47264 -3.43463 0
M  V30 30131 C 2770.67 -0.44246 -4.27014 0
M  V30 30132 C 2769.9 0.313375 -5.32779 0
M  V30 30133 O 2770.12 1.54205 -5.4916 0
M  V30 30134 O 2769.06 -0.326363 -6.01015 0
M  V30 30135 H 2772.88 -1.15533 -2.80866 0
M  V30 30136 H 2770.47 -0.628569 -1.35534 0
M  V30 30137 H 2772.35 0.922709 -4.11174 0
M  V30 30138 H 2771.02 1.28362 -2.97161 0
M  V30 30139 H 2769.93 -0.94093 -3.62074 0
M  V30 30140 H 2771.26 -1.21891 -4.76868 0
M  V30 30141 N 2772.92 1.44707 -0.624311 0
M  V30 30142 C 2773.83 2.34442 0.0860671 0
M  V30 30143 C 2774.84 1.52222 0.842883 0
M  V30 30144 O 2776.02 1.84972 0.79669 0
M  V30 30145 C 2773.08 3.301 1.05993 0
M  V30 30146 C 2772.14 4.28228 0.303241 0
M  V30 30147 C 2771.38 5.19316 1.23072 0
M  V30 30148 O 2771.6 5.14186 2.4692 0
M  V30 30149 O 2770.53 5.97593 0.718725 0
M  V30 30150 H 2774.36 2.96623 -0.651808 0
M  V30 30151 H 2771.94 1.44367 -0.384519 0
M  V30 30152 H 2773.83 3.89 1.6204 0
M  V30 30153 H 2772.5 2.70462 1.77854 0
M  V30 30154 H 2771.41 3.72894 -0.300098 0
M  V30 30155 H 2772.74 4.90768 -0.375209 0
M  V30 30156 N 2774.39 0.364449 1.53328 0
M  V30 30157 C 2775.3 -0.490512 2.29415 0
M  V30 30158 C 2776.32 -1.09361 1.35337 0
M  V30 30159 O 2777.5 -1.1048 1.68393 0
M  V30 30160 C 2774.56 -1.61524 3.06775 0
M  V30 30161 C 2773.62 -1.03979 4.16518 0
M  V30 30162 C 2772.85 -2.11091 4.9018 0
M  V30 30163 O 2773.08 -3.32183 4.63693 0
M  V30 30164 O 2772.01 -1.74212 5.76137 0
M  V30 30165 H 2775.84 0.128613 3.03428 0
M  V30 30166 H 2773.42 0.128864 1.48843 0
M  V30 30167 H 2775.3 -2.26918 3.55086 0
M  V30 30168 H 2773.98 -2.21978 2.356 0
M  V30 30169 H 2772.89 -0.34979 3.72461 0
M  V30 30170 H 2774.22 -0.479814 4.89856 0
M  V30 30171 N 2775.87 -1.57322 0.0935872 0
M  V30 30172 C 2777.29 -1.57417 -0.263063 0
M  V30 30173 C 2777.49 -1.10463 -1.68524 0
M  V30 30174 O 2776.54 -0.780399 -2.40137 0
M  V30 30175 C 2777.86 -3.00654 -0.0528673 0
M  V30 30176 C 2779.4 -3.12767 -0.120733 0
M  V30 30177 C 2779.88 -4.57959 0.0614512 0
M  V30 30178 N 2781.37 -4.632 0.00656676 0
M  V30 30179 C 2782.11 -5.73268 0.1228 0
M  V30 30180 N 2781.6 -6.92177 0.293782 0
M  V30 30181 N 2783.39 -5.62063 0.0641775 0
M  V30 30182 H 2775.55 -1.86152 1.0228 0
M  V30 30183 H 2777.81 -0.859146 0.400715 0
M  V30 30184 H 2777.51 -3.39199 0.929338 0
M  V30 30185 H 2777.39 -3.68709 -0.795835 0
M  V30 30186 H 2779.78 -2.74095 -1.09344 0
M  V30 30187 H 2779.86 -2.47306 0.6537 0
M  V30 30188 H 2779.5 -4.97325 1.03102 0
M  V30 30189 H 2779.43 -5.21478 -0.732656 0
M  V30 30190 H 2781.92 -3.77699 -0.123107 0
M  V30 30191 H 2782.23 -7.71894 0.374026 0
M  V30 30192 H 2780.58 -6.94219 0.329429 0
M  V30 30193 H 2783.77 -4.6805 -0.0682574 0
M  V30 30194 H 2783.94 -6.47807 0.158211 0
M  V30 30195 N 2777.35 0.180099 -1.56568 0
M  V30 30196 C 2778.77 0.531532 -1.50489 0
M  V30 30197 C 2778.97 1.85098 -0.7963 0
M  V30 30198 O 2778.02 2.5002 -0.353022 0
M  V30 30199 C 2779.33 0.572404 -2.95202 0
M  V30 30200 C 2780.88 0.66021 -3.05958 0
M  V30 30201 C 2781.36 0.732056 -4.52112 0
M  V30 30202 N 2782.85 0.795182 -4.56323 0
M  V30 30203 C 2783.58 0.871197 -5.66743 0
M  V30 30204 N 2783.08 0.908587 -6.86816 0
M  V30 30205 N 2784.87 0.909542 -5.54692 0
M  V30 30206 H 2777.02 -0.6852 -2.01044 0
M  V30 30207 H 2779.29 -0.245978 -0.915532 0
M  V30 30208 H 2778.99 -0.32827 -3.50165 0
M  V30 30209 H 2778.87 1.42194 -3.49372 0
M  V30 30210 H 2781.25 1.55131 -2.51035 0
M  V30 30211 H 2781.33 -0.215828 -2.54888 0
M  V30 30212 H 2780.98 -0.154754 -5.07664 0
M  V30 30213 H 2780.91 1.62411 -5.00929 0
M  V30 30214 H 2783.4 0.774925 -3.69869 0
M  V30 30215 H 2783.71 0.967519 -7.6672 0
M  V30 30216 H 2782.06 0.877011 -6.89444 0
M  V30 30217 H 2785.25 0.877272 -4.59806 0
M  V30 30218 H 2785.42 0.965322 -6.40769 0
M  V30 30219 N 2778.83 1.51088 0.448349 0
M  V30 30220 C 2780.07 1.63452 1.20046 0
M  V30 30221 C 2780.41 0.344478 1.9112 0
M  V30 30222 O 2779.68 -0.655364 1.83126 0
M  V30 30223 C 2779.96 2.83042 2.22619 0
M  V30 30224 C 2779.82 4.21992 1.55701 0
M  V30 30225 C 2781.14 2.98157 3.23713 0
M  V30 30226 H 2778.26 0.594878 0.435074 0
M  V30 30227 H 2780.9 1.83542 0.491151 0
M  V30 30228 H 2779.05 2.66044 2.83113 0
M  V30 30229 H 2780.72 4.50633 0.986288 0
M  V30 30230 H 2778.96 4.25199 0.859573 0
M  V30 30231 H 2779.63 5.01641 2.30348 0
M  V30 30232 H 2782.11 3.13793 2.73264 0
M  V30 30233 H 2780.99 3.83417 3.92788 0
M  V30 30234 H 2781.25 2.09749 3.89175 0
M  V30 30235 N 2780.31 -0.703068 1.41049 0
M  V30 30236 C 2781.27 -1.79882 1.42039 0
M  V30 30237 C 2782.27 -1.57741 0.312181 0
M  V30 30238 O 2783.46 -1.64552 0.571701 0
M  V30 30239 C 2780.59 -3.18152 1.22443 0
M  V30 30240 H 2781.78 -1.80398 2.39575 0
M  V30 30241 H 2779.34 -0.909955 1.27081 0
M  V30 30242 H 2780.07 -3.23279 0.257169 0
M  V30 30243 H 2779.86 -3.35624 2.02729 0
M  V30 30244 H 2781.35 -3.98153 1.25953 0
M  V30 30245 N 2781.78 -1.26752 -0.936569 0
M  V30 30246 C 2783.06 -1.03309 -1.66092 0
M  V30 30247 C 2783.44 0.435021 -2.06569 0
M  V30 30248 O 2782.79 1.41637 -1.79307 0
M  V30 30249 C 2783 -1.98624 -2.86966 0
M  V30 30250 C 2784.35 -2.27495 -3.58512 0
M  V30 30251 O 2785.37 -1.96527 -2.97078 0
M  V30 30252 O 2784.23 -2.80243 -4.69176 0
M  V30 30253 H 2781.32 -0.393171 -0.727561 0
M  V30 30254 H 2783.87 -1.37981 -0.98789 0
M  V30 30255 H 2782.64 -2.97674 -2.5398 0
M  V30 30256 H 2782.27 -1.6446 -3.61993 0
M  V30 30257 N 2783.26 1.1418 -1.08631 0
M  V30 30258 C 2784.19 2.18997 -0.676228 0
M  V30 30259 C 2785.21 1.60412 0.277842 0
M  V30 30260 O 2786.4 1.78381 0.0651458 0
M  V30 30261 C 2783.5 3.3889 0.025432 0
M  V30 30262 C 2782.67 4.27001 -0.948114 0
M  V30 30263 C 2781.73 5.25447 -0.28136 0
M  V30 30264 O 2780.75 5.61609 -0.926477 0
M  V30 30265 N 2781.96 5.72375 0.967822 0
M  V30 30266 H 2784.72 2.54795 -1.57796 0
M  V30 30267 H 2782.28 1.29423 -0.972688 0
M  V30 30268 H 2784.27 4.01814 0.482484 0
M  V30 30269 H 2782.84 3.01399 0.829296 0
M  V30 30270 H 2782.06 3.60978 -1.58395 0
M  V30 30271 H 2783.35 4.82731 -1.60774 0
M  V30 30272 H 2782.75 5.45129 1.51165 0
M  V30 30273 H 2781.31 6.37275 1.36833 0
M  V30 30274 N 2784.74 0.872304 1.31258 0
M  V30 30275 C 2785.67 0.345595 2.30928 0
M  V30 30276 C 2786.65 -0.564772 1.6045 0
M  V30 30277 O 2787.84 -0.481301 1.88141 0
M  V30 30278 C 2784.97 -0.451762 3.44349 0
M  V30 30279 C 2783.92 0.365716 4.26435 0
M  V30 30280 C 2783.25 -0.557469 5.31786 0
M  V30 30281 C 2784.55 1.60104 4.97156 0
M  V30 30282 H 2786.24 1.17846 2.75232 0
M  V30 30283 H 2783.79 0.568117 1.32319 0
M  V30 30284 H 2785.74 -0.830782 4.13129 0
M  V30 30285 H 2784.46 -1.31816 2.98818 0
M  V30 30286 H 2783.12 0.726712 3.59325 0
M  V30 30287 H 2782.77 -1.42121 4.82505 0
M  V30 30288 H 2782.47 -0.0143845 5.87598 0
M  V30 30289 H 2783.99 -0.933281 6.03425 0
M  V30 30290 H 2785.41 1.29333 5.58521 0
M  V30 30291 H 2783.81 2.08337 5.62775 0
M  V30 30292 H 2784.88 2.35257 4.24007 0
M  V30 30293 N 2786.22 -1.44374 0.631976 0
M  V30 30294 C 2787.63 -1.568 0.297669 0
M  V30 30295 C 2787.83 -1.61936 -1.19913 0
M  V30 30296 O 2786.89 -1.56285 -1.98321 0
M  V30 30297 C 2788.2 -2.83924 0.990336 0
M  V30 30298 C 2789.75 -2.97637 0.96856 0
M  V30 30299 C 2790.23 -4.27565 1.64171 0
M  V30 30300 N 2791.72 -4.34381 1.60834 0
M  V30 30301 C 2792.45 -5.33635 2.09812 0
M  V30 30302 N 2791.95 -6.3929 2.66984 0
M  V30 30303 N 2793.74 -5.2515 2.00436 0
M  V30 30304 H 2785.89 -1.39283 1.60356 0
M  V30 30305 H 2788.16 -0.667509 0.673153 0
M  V30 30306 H 2787.86 -2.86117 2.04524 0
M  V30 30307 H 2787.74 -3.73477 0.528629 0
M  V30 30308 H 2790.12 -2.94997 -0.0778728 0
M  V30 30309 H 2790.2 -2.0943 1.46877 0
M  V30 30310 H 2789.85 -4.30965 2.6876 0
M  V30 30311 H 2789.78 -5.14632 1.11633 0
M  V30 30312 H 2792.27 -3.58644 1.19093 0
M  V30 30313 H 2792.58 -7.11311 3.02087 0
M  V30 30314 H 2790.93 -6.39973 2.71035 0
M  V30 30315 H 2794.12 -4.4152 1.55491 0
M  V30 30316 H 2794.29 -6.02348 2.38917 0
M  V30 30317 N 2787.7 -0.372575 -1.53133 0
M  V30 30318 C 2788.97 0.271659 -1.93704 0
M  V30 30319 C 2789.35 1.65797 -1.3067 0
M  V30 30320 O 2788.7 2.23647 -0.468419 0
M  V30 30321 C 2788.91 0.314842 -3.47577 0
M  V30 30322 C 2790.26 0.551838 -4.20999 0
M  V30 30323 O 2791.28 0.395758 -3.53995 0
M  V30 30324 O 2790.14 0.856295 -5.3975 0
M  V30 30325 H 2787.24 0.164571 -0.81046 0
M  V30 30326 H 2789.78 -0.425867 -1.64269 0
M  V30 30327 H 2788.55 -0.65686 -3.85747 0
M  V30 30328 H 2788.18 1.05798 -3.83266 0
M  V30 30329 N 2789.17 1.5727 -0.101929 0
M  V30 30330 C 2790.11 2.11438 0.884685 0
M  V30 30331 C 2791.12 1.05316 1.24147 0
M  V30 30332 O 2792.31 1.32742 1.19339 0
M  V30 30333 C 2789.41 2.58488 2.19174 0
M  V30 30334 C 2788.58 3.8852 2.00926 0
M  V30 30335 C 2787.64 4.21346 3.15205 0
M  V30 30336 O 2786.67 4.90453 2.88868 0
M  V30 30337 N 2787.87 3.77295 4.41167 0
M  V30 30338 H 2790.63 2.96714 0.422006 0
M  V30 30339 H 2788.19 1.61687 0.0829844 0
M  V30 30340 H 2790.19 2.77489 2.94588 0
M  V30 30341 H 2788.76 1.78185 2.56844 0
M  V30 30342 H 2787.98 3.78599 1.09803 0
M  V30 30343 H 2789.26 4.73577 1.86018 0
M  V30 30344 H 2788.66 3.21524 4.65445 0
M  V30 30345 H 2787.22 4.01438 5.13508 0
M  V30 30346 N 2790.65 -0.171793 1.56661 0
M  V30 30347 C 2791.58 -1.21494 1.99403 0
M  V30 30348 C 2792.56 -1.46195 0.869541 0
M  V30 30349 O 2793.75 -1.57537 1.13559 0
M  V30 30350 C 2790.88 -2.55396 2.35351 0
M  V30 30351 C 2789.83 -2.45265 3.50755 0
M  V30 30352 C 2789.16 -3.83653 3.72444 0
M  V30 30353 C 2790.46 -1.95778 4.84219 0
M  V30 30354 H 2792.15 -0.859648 2.86793 0
M  V30 30355 H 2789.7 -0.412079 1.37978 0
M  V30 30356 H 2791.65 -3.28575 2.63849 0
M  V30 30357 H 2790.38 -2.92713 1.44869 0
M  V30 30358 H 2789.03 -1.74541 3.22383 0
M  V30 30359 H 2788.68 -4.18362 2.79253 0
M  V30 30360 H 2788.38 -3.77743 4.50093 0
M  V30 30361 H 2789.91 -4.58418 4.03342 0
M  V30 30362 H 2791.32 -2.58731 5.11597 0
M  V30 30363 H 2789.72 -2.00817 5.65502 0
M  V30 30364 H 2790.79 -0.912075 4.76245 0
M  V30 30365 N 2792.13 -1.51324 -0.44033 0
M  V30 30366 C 2793.04 -1.75261 -1.55952 0
M  V30 30367 C 2794.06 -0.636715 -1.61932 0
M  V30 30368 O 2795.23 -0.918625 -1.7923 0
M  V30 30369 C 2792.3 -1.86982 -2.91956 0
M  V30 30370 C 2791.36 -3.10827 -2.96117 0
M  V30 30371 C 2790.59 -3.2198 -4.25634 0
M  V30 30372 O 2790.81 -2.39146 -5.17847 0
M  V30 30373 O 2789.75 -4.14937 -4.36017 0
M  V30 30374 H 2793.57 -2.70194 -1.38668 0
M  V30 30375 H 2791.16 -1.35789 -0.623031 0
M  V30 30376 H 2793.04 -1.96695 -3.72678 0
M  V30 30377 H 2791.72 -0.952361 -3.09373 0
M  V30 30378 H 2790.62 -3.06595 -2.14361 0
M  V30 30379 H 2791.96 -4.02252 -2.83644 0
M  V30 30380 N 2793.61 0.695578 -1.41419 0
M  V30 30381 C 2794.56 1.80951 -1.43267 0
M  V30 30382 C 2795.53 1.63601 -0.287045 0
M  V30 30383 O 2796.71 1.84451 -0.488087 0
M  V30 30384 C 2793.85 3.18833 -1.3206 0
M  V30 30385 C 2792.96 3.47615 -2.56491 0
M  V30 30386 C 2792.1 4.75111 -2.37578 0
M  V30 30387 C 2791.14 4.96861 -3.57486 0
M  V30 30388 N 2790.27 6.15582 -3.37643 0
M  V30 30389 H 2795.11 1.78707 -2.3847 0
M  V30 30390 H 2792.65 0.872694 -1.18416 0
M  V30 30391 H 2794.61 3.98482 -1.23565 0
M  V30 30392 H 2793.24 3.20254 -0.404648 0
M  V30 30393 H 2792.29 2.62372 -2.75437 0
M  V30 30394 H 2793.6 3.59588 -3.45684 0
M  V30 30395 H 2792.76 5.62814 -2.2655 0
M  V30 30396 H 2791.5 4.65383 -1.45842 0
M  V30 30397 H 2790.5 4.07605 -3.68969 0
M  V30 30398 H 2791.73 5.08447 -4.50176 0
M  V30 30399 H 2789.67 6.07067 -2.48606 0
M  V30 30400 H 2789.59 6.28323 -4.20412 0
M  V30 30401 H 2790.86 7.0602 -3.30387 0
M  V30 30402 N 2795.09 1.27247 0.929833 0
M  V30 30403 C 2796.34 1.13236 1.67398 0
M  V30 30404 C 2796.66 -0.32271 1.92311 0
M  V30 30405 O 2795.93 -1.2261 1.52786 0
M  V30 30406 H 2794.51 0.416063 0.620404 0
M  V30 30407 H 2797.17 1.59743 1.1166 0
M  V30 30408 H 2796.26 1.6598 2.64305 0
M  V30 30409 N 2796.57 -1.13603 1.09235 0
M  V30 30410 C 2797.51 -2.21025 0.72461 0
M  V30 30411 C 2798.51 -1.67176 -0.273565 0
M  V30 30412 O 2799.71 -1.79491 -0.135234 0
M  V30 30413 H 2796.09 -0.720211 0.216332 0
M  V30 30414 H 2798.06 -2.49306 1.63979 0
M  V30 30415 C 2796.81 -3.47335 0.159187 0
M  V30 30416 H 2796.13 -3.89107 0.918455 0
M  V30 30417 H 2797.57 -4.23957 -0.0602105 0
M  V30 30418 C 2796.03 -3.1826 -1.10508 0
M  V30 30419 O 2796.56 -3.36841 -2.18863 0
M  V30 30420 N 2794.77 -2.72155 -1.01881 0
M  V30 30421 H 2794.31 -2.57236 -0.136981 0
M  V30 30422 H 2794.27 -2.53077 -1.86546 0
M  V30 30423 N 2798.04 -0.879253 -1.30793 0
M  V30 30424 C 2798.97 -0.357836 -2.30742 0
M  V30 30425 C 2799.95 0.556255 -1.60748 0
M  V30 30426 O 2801.14 0.471317 -1.88394 0
M  V30 30427 C 2798.27 0.433494 -3.44584 0
M  V30 30428 C 2797.22 -0.388326 -4.26235 0
M  V30 30429 C 2796.55 0.529259 -5.32074 0
M  V30 30430 C 2797.85 -1.62738 -4.963 0
M  V30 30431 H 2799.54 -1.19304 -2.74603 0
M  V30 30432 H 2797.09 -0.575127 -1.32016 0
M  V30 30433 H 2799.04 0.808861 -4.13564 0
M  V30 30434 H 2797.77 1.30229 -2.99513 0
M  V30 30435 H 2796.43 -0.745758 -3.58935 0
M  V30 30436 H 2796.07 1.3956 -4.83251 0
M  V30 30437 H 2795.77 -0.0167774 -5.87598 0
M  V30 30438 H 2797.3 0.901267 -6.03912 0
M  V30 30439 H 2798.71 -1.32293 -5.57827 0
M  V30 30440 H 2797.11 -2.11318 -5.61662 0
M  V30 30441 H 2798.18 -2.37502 -4.22754 0
M  V30 30442 N 2799.52 1.44037 -0.639624 0
M  V30 30443 C 2800.94 1.56639 -0.305981 0
M  V30 30444 C 2801.14 1.62569 1.19052 0
M  V30 30445 O 2800.19 1.57334 1.9749 0
M  V30 30446 C 2801.51 2.83395 -1.00538 0
M  V30 30447 C 2803.05 2.97119 -0.984331 0
M  V30 30448 C 2803.53 4.26689 -1.66436 0
M  V30 30449 N 2805.02 4.33522 -1.63135 0
M  V30 30450 C 2805.76 5.32515 -2.12639 0
M  V30 30451 N 2805.25 6.37865 -2.70371 0
M  V30 30452 N 2807.04 5.24079 -2.03218 0
M  V30 30453 H 2799.2 1.38431 -1.61092 0
M  V30 30454 H 2801.46 0.66393 -0.676684 0
M  V30 30455 H 2801.16 2.85028 -2.06039 0
M  V30 30456 H 2801.04 3.73192 -0.548428 0
M  V30 30457 H 2803.43 2.95034 0.0622273 0
M  V30 30458 H 2803.51 2.08648 -1.47985 0
M  V30 30459 H 2803.15 4.29534 -2.71041 0
M  V30 30460 H 2803.08 5.14032 -1.1436 0
M  V30 30461 H 2805.57 3.58007 -1.20993 0
M  V30 30462 H 2805.88 7.09699 -3.05855 0
M  V30 30463 H 2804.23 6.38526 -2.74425 0
M  V30 30464 H 2807.42 4.40689 -1.5783 0
M  V30 30465 H 2807.59 6.01072 -2.42108 0
M  V30 30466 N 2801 0.380691 1.52933 0
M  V30 30467 C 2802.25 -0.204545 2.01766 0
M  V30 30468 C 2802.58 -1.47177 1.26699 0
M  V30 30469 O 2801.85 -1.91045 0.36497 0
M  V30 30470 C 2802.14 -0.481206 3.5687 0
M  V30 30471 C 2801.99 0.800707 4.42616 0
M  V30 30472 C 2803.31 -1.27547 4.21212 0
M  V30 30473 H 2800.43 -0.0728674 0.733389 0
M  V30 30474 H 2803.07 0.508562 1.83067 0
M  V30 30475 H 2801.22 -1.08869 3.72934 0
M  V30 30476 H 2802.89 1.43781 4.3832 0
M  V30 30477 H 2801.13 1.41787 4.09974 0
M  V30 30478 H 2801.81 0.561888 5.49133 0
M  V30 30479 H 2804.28 -0.761442 4.09074 0
M  V30 30480 H 2803.16 -1.43779 5.29735 0
M  V30 30481 H 2803.42 -2.28827 3.78273 0
M  V30 30482 N 2802.48 -1.57214 0.110268 0
M  V30 30483 C 2803.42 -2.14848 -0.843157 0
M  V30 30484 C 2804.39 -1.07109 -1.26952 0
M  V30 30485 O 2805.58 -1.34973 -1.34859 0
M  V30 30486 C 2802.72 -2.74525 -2.09118 0
M  V30 30487 C 2801.83 -3.96544 -1.71397 0
M  V30 30488 C 2800.97 -4.44336 -2.911 0
M  V30 30489 C 2800.01 -5.58908 -2.49577 0
M  V30 30490 N 2799.14 -6.01483 -3.62164 0
M  V30 30491 H 2803.98 -2.95998 -0.344834 0
M  V30 30492 H 2801.52 -1.46243 -0.158524 0
M  V30 30493 H 2803.48 -3.07251 -2.82228 0
M  V30 30494 H 2802.11 -1.96078 -2.56424 0
M  V30 30495 H 2801.16 -3.70035 -0.881945 0
M  V30 30496 H 2802.47 -4.79653 -1.36876 0
M  V30 30497 H 2801.63 -4.78925 -3.72445 0
M  V30 30498 H 2800.37 -3.60159 -3.28841 0
M  V30 30499 H 2799.37 -5.23931 -1.66661 0
M  V30 30500 H 2800.6 -6.44844 -2.12962 0
M  V30 30501 H 2798.54 -5.20249 -3.99596 0
M  V30 30502 H 2798.46 -6.79425 -3.31538 0
M  V30 30503 H 2799.73 -6.40707 -4.43975 0
M  V30 30504 N 2803.96 0.163482 -1.5675 0
M  V30 30505 C 2804.89 1.22702 -1.9359 0
M  V30 30506 C 2805.9 1.40062 -0.829849 0
M  V30 30507 O 2807.09 1.39926 -1.10829 0
M  V30 30508 C 2804.19 2.5945 -2.18034 0
M  V30 30509 C 2803.36 2.63285 -3.49284 0
M  V30 30510 C 2802.42 3.81453 -3.62464 0
M  V30 30511 O 2801.45 3.67089 -4.35011 0
M  V30 30512 N 2802.65 4.98235 -2.97897 0
M  V30 30513 H 2805.41 0.914031 -2.85422 0
M  V30 30514 H 2802.98 0.353186 -1.58001 0
M  V30 30515 H 2804.97 3.36983 -2.24108 0
M  V30 30516 H 2803.54 2.83107 -1.32548 0
M  V30 30517 H 2802.76 1.7179 -3.54798 0
M  V30 30518 H 2804.05 2.62865 -4.35637 0
M  V30 30519 H 2803.44 5.12807 -2.38842 0
M  V30 30520 H 2802 5.73602 -3.09555 0
M  V30 30521 N 2805.43 1.51555 0.432299 0
M  V30 30522 C 2806.36 1.76182 1.53239 0
M  V30 30523 C 2807.34 0.611829 1.58716 0
M  V30 30524 O 2808.53 0.855063 1.74363 0
M  V30 30525 C 2805.66 1.89146 2.91275 0
M  V30 30526 C 2804.61 3.04613 3.00657 0
M  V30 30527 C 2803.94 3.02767 4.40722 0
M  V30 30528 C 2805.24 4.4449 2.74273 0
M  V30 30529 H 2806.93 2.68296 1.32881 0
M  V30 30530 H 2804.48 1.29104 0.637818 0
M  V30 30531 H 2806.43 2.04957 3.68199 0
M  V30 30532 H 2805.16 0.93684 3.12875 0
M  V30 30533 H 2803.82 2.88515 2.26174 0
M  V30 30534 H 2803.46 2.05073 4.59297 0
M  V30 30535 H 2803.16 3.80307 4.47929 0
M  V30 30536 H 2804.69 3.20678 5.19613 0
M  V30 30537 H 2806.1 4.60913 3.40928 0
M  V30 30538 H 2804.5 5.23774 2.92883 0
M  V30 30539 H 2805.57 4.5418 1.69848 0
M  V30 30540 N 2806.91 -0.688069 1.41786 0
M  V30 30541 C 2807.86 -1.80189 1.44224 0
M  V30 30542 C 2808.83 -1.63446 0.295717 0
M  V30 30543 O 2810.01 -1.8419 0.497862 0
M  V30 30544 C 2807.15 -3.18128 1.33749 0
M  V30 30545 C 2806.27 -3.4625 2.58331 0
M  V30 30546 C 2805.4 -4.73844 2.40095 0
M  V30 30547 C 2804.44 -4.94958 3.60116 0
M  V30 30548 N 2803.58 -6.13783 3.40903 0
M  V30 30549 H 2808.42 -1.7744 2.39414 0
M  V30 30550 H 2805.95 -0.866402 1.18878 0
M  V30 30551 H 2807.91 -3.97821 1.25676 0
M  V30 30552 H 2806.54 -3.20035 0.421626 0
M  V30 30553 H 2805.59 -2.60907 2.76824 0
M  V30 30554 H 2806.91 -3.5775 3.47586 0
M  V30 30555 H 2806.06 -5.61605 2.29532 0
M  V30 30556 H 2804.8 -4.64603 1.48308 0
M  V30 30557 H 2803.8 -4.05643 3.71125 0
M  V30 30558 H 2805.03 -5.06053 4.52866 0
M  V30 30559 H 2802.98 -6.05741 2.51822 0
M  V30 30560 H 2802.89 -6.26085 4.23738 0
M  V30 30561 H 2804.16 -7.04258 3.34127 0
M  V30 30562 N 2808.39 -1.27739 -0.923072 0
M  V30 30563 C 2809.81 -1.05243 -1.19983 0
M  V30 30564 C 2810.01 0.211095 -2.00391 0
M  V30 30565 O 2809.06 0.915325 -2.35325 0
M  V30 30566 C 2810.37 -2.29454 -1.94348 0
M  V30 30567 C 2811.92 -2.34539 -2.07268 0
M  V30 30568 C 2812.4 -3.58492 -2.8504 0
M  V30 30569 N 2813.89 -3.59077 -2.92606 0
M  V30 30570 C 2814.62 -4.5166 -3.53258 0
M  V30 30571 N 2814.12 -5.54552 -4.15264 0
M  V30 30572 N 2815.91 -4.39274 -3.50706 0
M  V30 30573 H 2808.06 -2.08863 -0.386005 0
M  V30 30574 H 2810.33 -0.918821 -0.233391 0
M  V30 30575 H 2810.03 -3.21455 -1.42687 0
M  V30 30576 H 2809.91 -2.35135 -2.94943 0
M  V30 30577 H 2812.29 -1.43042 -2.58115 0
M  V30 30578 H 2812.37 -2.32859 -1.05879 0
M  V30 30579 H 2812.02 -4.50329 -2.34876 0
M  V30 30580 H 2811.95 -3.57425 -3.86724 0
M  V30 30581 H 2814.44 -2.84667 -2.48542 0
M  V30 30582 H 2814.75 -6.21356 -4.59496 0
M  V30 30583 H 2813.1 -5.58389 -4.13796 0
M  V30 30584 H 2816.29 -3.58098 -3.01469 0
M  V30 30585 H 2816.46 -5.11617 -3.97684 0
M  V30 30586 N 2809.87 1.13022 -1.09836 0
M  V30 30587 C 2810.8 2.18268 -0.699417 0
M  V30 30588 C 2811.81 1.60697 0.260813 0
M  V30 30589 O 2813 1.7844 0.0462224 0
M  V30 30590 C 2810.1 3.38898 -0.0105133 0
M  V30 30591 C 2809.28 4.25971 -0.99335 0
M  V30 30592 C 2808.33 5.25119 -0.337075 0
M  V30 30593 O 2807.36 5.60595 -0.985991 0
M  V30 30594 N 2808.56 5.7337 0.90706 0
M  V30 30595 H 2811.33 2.53107 -1.6049 0
M  V30 30596 H 2808.89 1.28384 -0.98636 0
M  V30 30597 H 2810.88 4.02303 0.439839 0
M  V30 30598 H 2809.45 3.02262 0.797281 0
M  V30 30599 H 2808.67 3.59277 -1.62214 0
M  V30 30600 H 2809.96 4.80999 -1.65885 0
M  V30 30601 H 2809.36 5.46702 1.45375 0
M  V30 30602 H 2807.91 6.38691 1.30066 0
M  V30 30603 N 2811.35 0.886177 1.30325 0
M  V30 30604 C 2812.28 0.370068 2.30549 0
M  V30 30605 C 2813.26 -0.547722 1.6104 0
M  V30 30606 O 2814.44 -0.461319 1.88641 0
M  V30 30607 C 2811.57 -0.415214 3.44809 0
M  V30 30608 C 2810.53 0.410925 4.26023 0
M  V30 30609 C 2809.85 -0.501034 5.32347 0
M  V30 30610 C 2811.15 1.65368 4.9543 0
M  V30 30611 H 2812.85 1.20758 2.73967 0
M  V30 30612 H 2810.39 0.58212 1.31709 0
M  V30 30613 H 2812.35 -0.786917 4.13987 0
M  V30 30614 H 2811.07 -1.28639 3.00199 0
M  V30 30615 H 2809.73 0.764782 3.58534 0
M  V30 30616 H 2809.38 -1.36995 4.83985 0
M  V30 30617 H 2809.08 0.0479389 5.8758 0
M  V30 30618 H 2810.6 -0.869227 6.04381 0
M  V30 30619 H 2812.01 1.35249 5.57118 0
M  V30 30620 H 2810.41 2.14294 5.60534 0
M  V30 30621 H 2811.48 2.3974 4.21488 0
M  V30 30622 N 2812.82 -1.43695 0.647253 0
M  V30 30623 C 2813.73 -2.34549 -0.0487585 0
M  V30 30624 C 2814.75 -1.53544 -0.818559 0
M  V30 30625 O 2815.93 -1.86217 -0.767162 0
M  V30 30626 C 2812.99 -3.31745 -1.00728 0
M  V30 30627 C 2812.05 -4.28656 -0.235075 0
M  V30 30628 C 2811.29 -5.21208 -1.14794 0
M  V30 30629 O 2811.51 -5.18049 -2.38708 0
M  V30 30630 O 2810.44 -5.98661 -0.623562 0
M  V30 30631 H 2814.27 -2.95548 0.698915 0
M  V30 30632 H 2811.85 -1.43737 0.407438 0
M  V30 30633 H 2813.74 -3.91529 -1.5583 0
M  V30 30634 H 2812.41 -2.73257 -1.73529 0
M  V30 30635 H 2811.32 -3.7237 0.359385 0
M  V30 30636 H 2812.65 -4.90109 0.453238 0
M  V30 30637 N 2814.3 -0.388796 -1.52729 0
M  V30 30638 C 2815.21 0.453952 -2.30166 0
M  V30 30639 C 2816.23 1.07194 -1.3706 0
M  V30 30640 O 2817.4 1.07787 -1.70129 0
M  V30 30641 C 2814.47 1.56623 -3.09306 0
M  V30 30642 C 2813.53 0.973393 -4.18119 0
M  V30 30643 C 2812.76 2.03266 -4.93476 0
M  V30 30644 O 2812.99 3.24764 -4.68919 0
M  V30 30645 O 2811.92 1.65024 -5.78836 0
M  V30 30646 H 2815.75 -0.176869 -3.03185 0
M  V30 30647 H 2813.33 -0.152527 -1.48619 0
M  V30 30648 H 2815.21 2.2124 -3.58651 0
M  V30 30649 H 2813.89 2.18202 -2.39101 0
M  V30 30650 H 2812.8 0.290491 -3.7297 0
M  V30 30651 H 2814.13 0.401822 -4.90557 0
M  V30 30652 N 2815.78 1.57153 -0.118604 0
M  V30 30653 C 2816.74 2.14128 0.817427 0
M  V30 30654 C 2817.74 1.07606 1.19488 0
M  V30 30655 O 2818.93 1.33384 1.12046 0
M  V30 30656 C 2816.07 2.68118 2.10536 0
M  V30 30657 H 2817.26 2.98163 0.322286 0
M  V30 30658 H 2814.81 1.55753 0.130628 0
M  V30 30659 H 2815.55 1.8767 2.64482 0
M  V30 30660 H 2815.33 3.46023 1.84419 0
M  V30 30661 H 2816.82 3.1211 2.77448 0
M  V30 30662 N 2817.26 -0.155167 1.56834 0
M  V30 30663 C 2818.17 -1.21142 2.00902 0
M  V30 30664 C 2819.18 -1.47498 0.923055 0
M  V30 30665 O 2820.36 -1.59329 1.23192 0
M  V30 30666 C 2817.43 -2.52686 2.37382 0
M  V30 30667 C 2816.49 -2.3405 3.59887 0
M  V30 30668 C 2815.72 -3.59322 3.94618 0
M  V30 30669 O 2815.94 -4.65169 3.30112 0
M  V30 30670 O 2814.88 -3.52471 4.87902 0
M  V30 30671 H 2818.7 -0.86732 2.91052 0
M  V30 30672 H 2816.29 -0.363272 1.44916 0
M  V30 30673 H 2818.17 -3.30255 2.61743 0
M  V30 30674 H 2816.84 -2.86643 1.5039 0
M  V30 30675 H 2815.75 -1.54459 3.40724 0
M  V30 30676 H 2817.08 -2.05012 4.47472 0
M  V30 30677 N 2818.74 -1.51782 -0.424256 0
M  V30 30678 C 2819.65 -1.76905 -1.54084 0
M  V30 30679 C 2820.66 -0.653854 -1.61247 0
M  V30 30680 O 2821.84 -0.937583 -1.78245 0
M  V30 30681 C 2818.9 -1.90068 -2.89957 0
M  V30 30682 C 2817.96 -3.1395 -2.92803 0
M  V30 30683 C 2817.2 -3.26476 -4.22195 0
M  V30 30684 O 2817.42 -2.44625 -5.15281 0
M  V30 30685 O 2816.35 -4.19538 -4.31592 0
M  V30 30686 H 2820.18 -2.71649 -1.35795 0
M  V30 30687 H 2817.77 -1.36442 -0.608594 0
M  V30 30688 H 2819.65 -2.00637 -3.70571 0
M  V30 30689 H 2818.32 -0.985121 -3.08346 0
M  V30 30690 H 2817.23 -3.08851 -2.11097 0
M  V30 30691 H 2818.56 -4.05238 -2.79361 0
M  V30 30692 N 2820.21 0.68054 -1.42149 0
M  V30 30693 C 2821.12 1.82375 -1.47568 0
M  V30 30694 C 2822.14 1.7013 -0.36492 0
M  V30 30695 O 2823.32 1.91782 -0.61495 0
M  V30 30696 C 2820.38 3.18476 -1.37018 0
M  V30 30697 C 2819.44 3.4272 -2.58538 0
M  V30 30698 C 2818.68 4.72327 -2.48481 0
M  V30 30699 O 2818.9 5.49842 -1.51755 0
M  V30 30700 O 2817.83 4.97688 -3.38512 0
M  V30 30701 H 2821.66 1.8076 -2.44049 0
M  V30 30702 H 2819.24 0.835548 -1.23851 0
M  V30 30703 H 2821.13 3.99703 -1.33475 0
M  V30 30704 H 2819.8 3.20742 -0.436608 0
M  V30 30705 H 2818.71 2.61364 -2.67656 0
M  V30 30706 H 2820.04 3.4528 -3.50775 0
M  V30 30707 N 2821.69 1.28226 0.916285 0
M  V30 30708 C 2822.66 1.1196 1.99994 0
M  V30 30709 C 2823.66 0.0600434 1.60688 0
M  V30 30710 O 2824.85 0.30561 1.71498 0
M  V30 30711 C 2821.98 0.70847 3.33457 0
M  V30 30712 H 2823.17 2.08199 2.15854 0
M  V30 30713 H 2820.72 1.11177 1.09861 0
M  V30 30714 H 2821.46 -0.254802 3.23297 0
M  V30 30715 H 2821.24 1.47384 3.63346 0
M  V30 30716 H 2822.73 0.617236 4.13013 0
M  V30 30717 N 2823.17 -1.12438 1.10433 0
M  V30 30718 C 2824.4 -1.88311 0.869122 0
M  V30 30719 C 2824.82 -1.791 -0.57488 0
M  V30 30720 O 2824.18 -1.14592 -1.40494 0
M  V30 30721 C 2824.23 -3.35487 1.32214 0
M  V30 30722 O 2823.33 -4.09512 0.487164 0
M  V30 30723 H 2822.67 -0.585116 0.313904 0
M  V30 30724 H 2825.2 -1.42193 1.47114 0
M  V30 30725 H 2825.21 -3.86327 1.31208 0
M  V30 30726 H 2823.89 -3.41509 2.3737 0
M  V30 30727 H 2822.46 -3.68634 0.562436 0
M  V30 30728 N 2824.65 -0.893076 -1.29853 0
M  V30 30729 C 2826.07 -0.588225 -1.48365 0
M  V30 30730 C 2826.27 0.871986 -1.81655 0
M  V30 30731 O 2825.32 1.65265 -1.90903 0
M  V30 30732 C 2826.63 -1.50835 -2.60133 0
M  V30 30733 C 2828.18 -1.51284 -2.74011 0
M  V30 30734 C 2828.66 -2.41909 -3.88901 0
M  V30 30735 N 2830.15 -2.39918 -3.96224 0
M  V30 30736 C 2830.88 -3.06747 -4.84452 0
M  V30 30737 N 2830.38 -3.8283 -5.77419 0
M  V30 30738 N 2832.17 -2.95938 -4.77888 0
M  V30 30739 H 2824.32 -1.83759 -1.06519 0
M  V30 30740 H 2826.59 -0.787027 -0.528481 0
M  V30 30741 H 2826.29 -2.54844 -2.42379 0
M  V30 30742 H 2826.17 -1.22394 -3.56791 0
M  V30 30743 H 2828.55 -0.48023 -2.91166 0
M  V30 30744 H 2828.63 -1.8376 -1.77949 0
M  V30 30745 H 2828.28 -3.4526 -3.72502 0
M  V30 30746 H 2828.21 -2.06746 -4.84318 0
M  V30 30747 H 2830.7 -1.84634 -3.29725 0
M  V30 30748 H 2831.01 -4.30894 -6.41522 0
M  V30 30749 H 2829.36 -3.86938 -5.77325 0
M  V30 30750 H 2832.55 -2.36019 -4.04244 0
M  V30 30751 H 2832.72 -3.48296 -5.46438 0
M  V30 30752 N 2826.13 1.4335 -0.654865 0
M  V30 30753 C 2827.09 2.29185 0.0263159 0
M  V30 30754 C 2828.09 1.42295 0.748926 0
M  V30 30755 O 2829.28 1.63907 0.589929 0
M  V30 30756 C 2826.41 3.24391 1.048 0
M  V30 30757 H 2827.61 2.90906 -0.728934 0
M  V30 30758 H 2825.16 1.50657 -0.416175 0
M  V30 30759 H 2825.89 2.67568 1.83243 0
M  V30 30760 H 2825.68 3.88454 0.533486 0
M  V30 30761 H 2827.17 3.88812 1.52365 0
M  V30 30762 N 2827.61 0.39689 1.52521 0
M  V30 30763 C 2828.54 -0.469774 2.24334 0
M  V30 30764 C 2829.55 -1.02041 1.26852 0
M  V30 30765 O 2830.74 -0.921444 1.52878 0
M  V30 30766 C 2827.84 -1.66455 2.95205 0
M  V30 30767 C 2827.01 -1.23996 4.19456 0
M  V30 30768 C 2826.07 -2.30027 4.73259 0
M  V30 30769 O 2825.1 -1.91122 5.36154 0
M  V30 30770 N 2826.3 -3.62039 4.53771 0
M  V30 30771 H 2829.06 0.14552 2.99347 0
M  V30 30772 H 2826.63 0.223635 1.60348 0
M  V30 30773 H 2828.62 -2.36929 3.28096 0
M  V30 30774 H 2827.19 -2.18603 2.23454 0
M  V30 30775 H 2826.41 -0.363823 3.92517 0
M  V30 30776 H 2827.7 -0.933047 5.00172 0
M  V30 30777 H 2827.09 -3.96405 4.03583 0
M  V30 30778 H 2825.65 -4.28524 4.91132 0
M  V30 30779 N 2829.08 -1.57088 0.126936 0
M  V30 30780 C 2830.05 -2.14558 -0.806059 0
M  V30 30781 C 2831.05 -1.08239 -1.18916 0
M  V30 30782 O 2832.24 -1.33977 -1.11337 0
M  V30 30783 C 2829.37 -2.69231 -2.09111 0
M  V30 30784 H 2830.56 -2.9833 -0.306469 0
M  V30 30785 H 2828.11 -1.5582 -0.122366 0
M  V30 30786 H 2828.85 -1.8907 -2.63483 0
M  V30 30787 H 2828.63 -3.46996 -1.82581 0
M  V30 30788 H 2830.12 -3.13577 -2.75789 0
M  V30 30789 N 2830.56 0.146848 -1.56914 0
M  V30 30790 C 2831.81 0.857738 -1.82995 0
M  V30 30791 C 2832.13 1.81699 -0.707846 0
M  V30 30792 O 2831.4 1.94024 0.270487 0
M  V30 30793 H 2829.98 0.319739 -0.675112 0
M  V30 30794 H 2832.64 0.140815 -1.94391 0
M  V30 30795 H 2831.74 1.41989 -2.77931 0
M  V30 30796 N 2832.04 1.52005 0.4162 0
M  V30 30797 C 2833.46 1.4065 0.754295 0
M  V30 30798 C 2833.66 0.505427 1.95058 0
M  V30 30799 O 2832.71 -0.0314613 2.5248 0
M  V30 30800 C 2834.02 2.83057 1.01485 0
M  V30 30801 C 2835.57 2.92352 1.118 0
M  V30 30802 C 2836.05 4.35711 1.41137 0
M  V30 30803 N 2837.54 4.38914 1.48016 0
M  V30 30804 C 2838.27 5.46892 1.72328 0
M  V30 30805 N 2837.77 6.64998 1.94292 0
M  V30 30806 N 2839.56 5.34398 1.74285 0
M  V30 30807 H 2831.71 2.09128 -0.37136 0
M  V30 30808 H 2833.98 0.942297 -0.103828 0
M  V30 30809 H 2833.68 3.51083 0.208283 0
M  V30 30810 H 2833.56 3.23672 1.93692 0
M  V30 30811 H 2835.94 2.24511 1.91517 0
M  V30 30812 H 2836.02 2.55204 0.174465 0
M  V30 30813 H 2835.67 5.04109 0.619395 0
M  V30 30814 H 2835.6 4.70389 2.36731 0
M  V30 30815 H 2838.09 3.53774 1.32861 0
M  V30 30816 H 2838.4 7.43075 2.12272 0
M  V30 30817 H 2836.75 6.68076 1.91571 0
M  V30 30818 H 2839.94 4.41107 1.5666 0
M  V30 30819 H 2840.11 6.18624 1.92894 0
M  V30 30820 N 2833.52 -0.672992 1.42508 0
M  V30 30821 C 2834.93 -0.986333 1.25474 0
M  V30 30822 C 2835.13 -2.00862 0.160217 0
M  V30 30823 O 2834.19 -2.48126 -0.467949 0
M  V30 30824 C 2835.5 -1.48942 2.61222 0
M  V30 30825 C 2837.05 -1.6071 2.68591 0
M  V30 30826 C 2837.53 -2.14414 4.0471 0
M  V30 30827 N 2839.02 -2.21745 4.06674 0
M  V30 30828 C 2839.75 -2.64377 5.08814 0
M  V30 30829 N 2839.25 -3.06449 6.21338 0
M  V30 30830 N 2841.04 -2.64142 4.96171 0
M  V30 30831 H 2833.19 0.00382266 2.124 0
M  V30 30832 H 2835.45 -0.06082 0.946047 0
M  V30 30833 H 2835.16 -0.812752 3.4218 0
M  V30 30834 H 2835.03 -2.46786 2.85266 0
M  V30 30835 H 2837.42 -2.27483 1.87978 0
M  V30 30836 H 2837.5 -0.613509 2.48334 0
M  V30 30837 H 2837.15 -1.4825 4.85782 0
M  V30 30838 H 2837.08 -3.14568 4.22321 0
M  V30 30839 H 2839.57 -1.92084 3.25442 0
M  V30 30840 H 2839.88 -3.37672 6.95124 0
M  V30 30841 H 2838.23 -3.04302 6.2484 0
M  V30 30842 H 2841.42 -2.30637 4.07338 0
M  V30 30843 H 2841.59 -2.97047 5.75906 0
M  V30 30844 N 2835 -1.2871 -0.909472 0
M  V30 30845 C 2836.41 -1.0651 -1.1886 0
M  V30 30846 C 2836.61 0.189828 -2.00604 0
M  V30 30847 O 2835.67 0.890314 -2.36283 0
M  V30 30848 C 2836.98 -2.31503 -1.91903 0
M  V30 30849 C 2838.53 -2.36725 -2.04769 0
M  V30 30850 C 2839 -3.61495 -2.81221 0
M  V30 30851 N 2840.49 -3.6216 -2.88781 0
M  V30 30852 C 2841.23 -4.55381 -3.48447 0
M  V30 30853 N 2840.73 -5.58925 -4.09359 0
M  V30 30854 N 2842.52 -4.42969 -3.46027 0
M  V30 30855 H 2834.67 -2.09261 -0.363831 0
M  V30 30856 H 2836.93 -0.921245 -0.223633 0
M  V30 30857 H 2836.64 -3.2295 -1.39269 0
M  V30 30858 H 2836.51 -2.3825 -2.92432 0
M  V30 30859 H 2838.9 -1.45771 -2.56583 0
M  V30 30860 H 2838.98 -2.33969 -1.03404 0
M  V30 30861 H 2838.62 -4.52794 -2.30086 0
M  V30 30862 H 2838.55 -3.61506 -3.82911 0
M  V30 30863 H 2841.05 -2.87287 -2.45508 0
M  V30 30864 H 2841.36 -6.26195 -4.5288 0
M  V30 30865 H 2839.7 -5.62746 -4.0785 0
M  V30 30866 H 2842.89 -3.61275 -2.97654 0
M  V30 30867 H 2843.07 -5.15806 -3.92235 0
M  V30 30868 N 2836.47 1.1185 -1.11028 0
M  V30 30869 C 2837.4 2.19843 -0.786851 0
M  V30 30870 C 2838.38 1.68357 0.242905 0
M  V30 30871 O 2839.57 1.93903 0.107321 0
M  V30 30872 C 2836.7 3.46573 -0.224577 0
M  V30 30873 C 2835.65 4.11248 -1.18572 0
M  V30 30874 C 2834.98 5.32502 -0.484355 0
M  V30 30875 C 2836.28 4.56671 -2.53473 0
M  V30 30876 H 2837.97 2.47155 -1.68982 0
M  V30 30877 H 2835.52 1.18791 -0.813927 0
M  V30 30878 H 2837.47 4.21398 0.0138694 0
M  V30 30879 H 2836.2 3.18707 0.713666 0
M  V30 30880 H 2834.86 3.38412 -1.40972 0
M  V30 30881 H 2834.5 5.00905 0.458558 0
M  V30 30882 H 2834.2 5.76723 -1.12536 0
M  V30 30883 H 2835.73 6.10069 -0.2546 0
M  V30 30884 H 2837.14 5.22839 -2.35186 0
M  V30 30885 H 2835.54 5.11691 -3.13516 0
M  V30 30886 H 2836.61 3.70338 -3.13014 0
M  V30 30887 N 2837.95 0.89995 1.29378 0
M  V30 30888 C 2838.88 0.335179 2.26736 0
M  V30 30889 C 2839.9 -0.518654 1.54317 0
M  V30 30890 O 2841.09 -0.335772 1.75313 0
M  V30 30891 C 2838.19 -0.540715 3.34559 0
M  V30 30892 C 2837.36 0.287449 4.36454 0
M  V30 30893 C 2836.42 -0.521318 5.23611 0
M  V30 30894 O 2835.44 0.0612735 5.69167 0
M  V30 30895 N 2836.65 -1.82735 5.50988 0
M  V30 30896 H 2839.41 1.17196 2.75836 0
M  V30 30897 H 2836.97 0.764463 1.42715 0
M  V30 30898 H 2838.96 -1.08818 3.89796 0
M  V30 30899 H 2837.53 -1.27818 2.85274 0
M  V30 30900 H 2836.75 1.01633 3.80873 0
M  V30 30901 H 2838.04 0.854606 5.01571 0
M  V30 30902 H 2837.44 -2.3234 5.15786 0
M  V30 30903 H 2836 -2.32194 6.0904 0
M  V30 30904 N 2839.43 -1.43001 0.662458 0
M  V30 30905 C 2840.85 -1.56133 0.330862 0
M  V30 30906 C 2841.05 -1.64443 -1.16451 0
M  V30 30907 O 2840.1 -1.60456 -1.94962 0
M  V30 30908 C 2841.42 -2.81759 1.05034 0
M  V30 30909 C 2842.96 -2.95516 1.03148 0
M  V30 30910 C 2843.44 -4.23987 1.73203 0
M  V30 30911 N 2844.93 -4.30872 1.70011 0
M  V30 30912 C 2845.66 -5.29065 2.21084 0
M  V30 30913 N 2845.16 -6.33483 2.80484 0
M  V30 30914 N 2846.95 -5.2078 2.1153 0
M  V30 30915 H 2839.1 -1.35851 1.63274 0
M  V30 30916 H 2841.37 -0.65308 0.687161 0
M  V30 30917 H 2841.07 -2.81714 2.10547 0
M  V30 30918 H 2840.95 -3.72272 0.60773 0
M  V30 30919 H 2843.33 -2.95096 -0.015282 0
M  V30 30920 H 2843.42 -2.06267 1.51286 0
M  V30 30921 H 2843.06 -4.25167 2.7784 0
M  V30 30922 H 2842.99 -5.12148 1.22524 0
M  V30 30923 H 2845.48 -3.56037 1.26673 0
M  V30 30924 H 2845.79 -7.04743 3.17107 0
M  V30 30925 H 2844.14 -6.3408 2.84549 0
M  V30 30926 H 2847.33 -4.38123 1.64821 0
M  V30 30927 H 2847.5 -5.97145 2.51639 0
M  V30 30928 N 2840.91 -0.404973 -1.52308 0
M  V30 30929 C 2841.82 0.429514 -2.30635 0
M  V30 30930 C 2842.83 1.05734 -1.38189 0
M  V30 30931 O 2844.01 1.05976 -1.71263 0
M  V30 30932 C 2841.08 1.53333 -3.1095 0
M  V30 30933 C 2840.14 0.928991 -4.19128 0
M  V30 30934 C 2839.37 1.98021 -4.95604 0
M  V30 30935 O 2839.59 3.19772 -4.72337 0
M  V30 30936 O 2838.53 1.58876 -5.80553 0
M  V30 30937 H 2842.35 -0.209016 -3.0298 0
M  V30 30938 H 2839.94 -0.168281 -1.48449 0
M  V30 30939 H 2841.82 2.17423 -3.60978 0
M  V30 30940 H 2840.49 2.15654 -2.41402 0
M  V30 30941 H 2839.4 0.250916 -3.73258 0
M  V30 30942 H 2840.73 0.349769 -4.90956 0
M  V30 30943 N 2842.39 1.57018 -0.135265 0
M  V30 30944 C 2843.32 2.19178 0.805196 0
M  V30 30945 C 2844.3 1.13654 1.26558 0
M  V30 30946 O 2845.48 1.41953 1.32526 0
M  V30 30947 C 2842.61 2.8041 2.04909 0
M  V30 30948 C 2841.57 3.91658 1.72591 0
M  V30 30949 C 2840.89 4.39772 3.04146 0
M  V30 30950 C 2842.19 5.12993 0.981619 0
M  V30 30951 H 2843.89 2.9802 0.287179 0
M  V30 30952 H 2841.43 1.4335 0.136689 0
M  V30 30953 H 2843.39 3.22558 2.71172 0
M  V30 30954 H 2842.11 1.98882 2.59063 0
M  V30 30955 H 2840.77 3.50111 1.08711 0
M  V30 30956 H 2840.42 3.55081 3.56267 0
M  V30 30957 H 2840.12 5.14801 2.8329 0
M  V30 30958 H 2841.64 4.84582 3.715 0
M  V30 30959 H 2843.05 5.52058 1.5461 0
M  V30 30960 H 2841.45 5.9371 0.873428 0
M  V30 30961 H 2842.52 4.84891 -0.028774 0
M  V30 30962 N 2843.86 -0.138524 1.5699 0
M  V30 30963 C 2844.77 -1.19005 2.02176 0
M  V30 30964 C 2845.79 -1.46511 0.938647 0
M  V30 30965 O 2846.97 -1.58013 1.24875 0
M  V30 30966 C 2844.03 -2.50154 2.40049 0
M  V30 30967 C 2843.09 -2.3022 3.6235 0
M  V30 30968 C 2842.33 -3.55116 3.98407 0
M  V30 30969 O 2842.55 -4.61642 3.35027 0
M  V30 30970 O 2841.48 -3.47276 4.91613 0
M  V30 30971 H 2845.31 -0.836401 2.91956 0
M  V30 30972 H 2842.89 -0.347881 1.45293 0
M  V30 30973 H 2844.78 -3.27461 2.65231 0
M  V30 30974 H 2843.45 -2.85032 1.53422 0
M  V30 30975 H 2842.36 -1.50837 3.42344 0
M  V30 30976 H 2843.69 -2.00255 4.49621 0
M  V30 30977 N 2845.34 -1.52224 -0.408133 0
M  V30 30978 C 2846.62 -1.56895 -1.16804 0
M  V30 30979 C 2847 -0.350574 -2.08169 0
M  V30 30980 O 2846.35 0.662497 -2.18685 0
M  V30 30981 C 2846.56 -2.89813 -1.94446 0
M  V30 30982 C 2847.91 -3.4285 -2.50478 0
M  V30 30983 O 2848.93 -2.91559 -2.04625 0
M  V30 30984 O 2847.79 -4.32416 -3.34184 0
M  V30 30985 H 2844.88 -0.632016 -0.533371 0
M  V30 30986 H 2847.43 -1.64552 -0.414833 0
M  V30 30987 H 2846.2 -3.69938 -1.27521 0
M  V30 30988 H 2845.82 -2.85454 -2.7677 0
M  V30 30989 N 2846.82 0.665425 -1.42863 0
M  V30 30990 C 2848.07 1.42754 -1.44045 0
M  V30 30991 C 2848.4 1.94107 -0.059997 0
M  V30 30992 O 2847.67 1.71513 0.917256 0
M  V30 30993 C 2847.96 2.61781 -2.4727 0
M  V30 30994 C 2847.81 2.16 -3.94543 0
M  V30 30995 C 2849.13 3.63999 -2.47372 0
M  V30 30996 H 2846.25 0.517739 -0.524515 0
M  V30 30997 H 2848.89 0.755435 -1.74336 0
M  V30 30998 H 2847.04 3.19122 -2.21571 0
M  V30 30999 H 2848.71 1.63754 -4.31257 0
M  V30 31000 H 2846.96 1.47484 -4.07959 0
M  V30 31001 H 2847.63 3.01538 -4.62363 0
M  V30 31002 H 2850.1 3.16394 -2.70248 0
M  V30 31003 H 2848.98 4.44849 -3.2156 0
M  V30 31004 H 2849.24 4.15765 -1.50307 0
M  V30 31005 N 2848.3 1.29191 0.902633 0
M  V30 31006 C 2849.53 1.19872 1.68637 0
M  V30 31007 C 2849.94 -0.241088 1.87254 0
M  V30 31008 O 2849.3 -1.16174 1.40747 0
M  V30 31009 C 2849.35 1.90476 3.07247 0
M  V30 31010 O 2849.07 3.28834 2.89482 0
M  V30 31011 C 2850.57 1.87597 4.01649 0
M  V30 31012 H 2847.79 0.415606 0.526795 0
M  V30 31013 H 2850.34 1.70512 1.12898 0
M  V30 31014 H 2848.49 1.43679 3.59771 0
M  V30 31015 H 2848.9 3.64352 3.7729 0
M  V30 31016 H 2850.38 2.41569 4.96335 0
M  V30 31017 H 2850.86 0.850832 4.3088 0
M  V30 31018 H 2851.46 2.34125 3.55057 0
M  V30 31019 N 2849.78 -1.1126 1.1162 0
M  V30 31020 C 2850.69 -2.20934 0.789019 0
M  V30 31021 C 2851.7 -1.72621 -0.21864 0
M  V30 31022 O 2852.88 -2.01327 -0.0543472 0
M  V30 31023 C 2849.94 -3.45875 0.239075 0
M  V30 31024 C 2849 -4.08966 1.30558 0
M  V30 31025 C 2848.24 -5.27943 0.78178 0
M  V30 31026 O 2848.46 -5.69082 -0.387505 0
M  V30 31027 O 2847.39 -5.81668 1.54744 0
M  V30 31028 H 2851.22 -2.51336 1.70481 0
M  V30 31029 H 2848.81 -1.19832 0.892224 0
M  V30 31030 H 2850.69 -4.21353 -0.0631571 0
M  V30 31031 H 2849.36 -3.17119 -0.649398 0
M  V30 31032 H 2848.27 -3.35211 1.66085 0
M  V30 31033 H 2849.6 -4.41905 2.16751 0
M  V30 31034 N 2851.25 -0.906798 -1.28899 0
M  V30 31035 C 2852.48 -0.551338 -1.99938 0
M  V30 31036 C 2852.9 0.858466 -1.67368 0
M  V30 31037 O 2852.26 1.57258 -0.902204 0
M  V30 31038 C 2852.31 -0.758999 -3.52522 0
M  V30 31039 O 2851.41 0.185236 -4.11984 0
M  V30 31040 H 2850.76 -0.214579 -0.628372 0
M  V30 31041 H 2853.29 -1.22033 -1.64223 0
M  V30 31042 H 2853.3 -0.6664 -4.02521 0
M  V30 31043 H 2851.97 -1.78678 -3.75562 0
M  V30 31044 H 2850.55 0.0444922 -3.72873 0
M  V30 31045 N 2852.73 1.42648 -0.670032 0
M  V30 31046 C 2853.7 2.292 0.00200631 0
M  V30 31047 C 2854.7 1.43081 0.733792 0
M  V30 31048 O 2855.89 1.64523 0.572511 0
M  V30 31049 C 2853.02 3.25485 1.01353 0
M  V30 31050 H 2854.21 2.90117 -0.759747 0
M  V30 31051 H 2851.76 1.50208 -0.432131 0
M  V30 31052 H 2852.5 2.69497 1.80394 0
M  V30 31053 H 2852.28 3.88998 0.492255 0
M  V30 31054 H 2853.77 3.90406 1.48233 0
M  V30 31055 N 2854.21 0.413044 1.52091 0
M  V30 31056 C 2855.12 -0.417277 2.30859 0
M  V30 31057 C 2856.14 -1.05 1.38748 0
M  V30 31058 O 2857.31 -1.05066 1.71823 0
M  V30 31059 C 2854.38 -1.51682 3.11759 0
M  V30 31060 C 2853.44 -0.906751 4.19615 0
M  V30 31061 C 2852.67 -1.9539 4.96647 0
M  V30 31062 O 2852.9 -3.17263 4.74026 0
M  V30 31063 O 2851.83 -1.55795 5.81388 0
M  V30 31064 H 2855.66 0.225081 3.02865 0
M  V30 31065 H 2853.24 0.176152 1.48358 0
M  V30 31066 H 2855.12 -2.15506 3.62126 0
M  V30 31067 H 2853.8 -2.14371 2.42543 0
M  V30 31068 H 2852.7 -0.231118 3.73385 0
M  V30 31069 H 2854.04 -0.323727 4.91134 0
M  V30 31070 N 2855.69 -1.56945 0.143591 0
M  V30 31071 C 2856.91 -2.0081 -0.518666 0
M  V30 31072 C 2857.34 -1.02301 -1.57849 0
M  V30 31073 O 2856.7 0.00175203 -1.813 0
M  V30 31074 C 2856.75 -3.43438 -1.09923 0
M  V30 31075 O 2855.85 -3.47919 -2.21419 0
M  V30 31076 H 2855.19 -0.651702 -0.127203 0
M  V30 31077 H 2857.72 -2.03196 0.239318 0
M  V30 31078 H 2857.73 -3.82167 -1.42873 0
M  V30 31079 H 2856.41 -4.14643 -0.323089 0
M  V30 31080 H 2854.98 -3.21029 -1.89723 0
M  V30 31081 N 2857.17 0.130197 -1.57061 0
M  V30 31082 C 2858.1 1.19025 -1.947 0
M  V30 31083 C 2859.08 1.40694 -0.815099 0
M  V30 31084 O 2860.26 1.55032 -1.07226 0
M  V30 31085 C 2857.39 2.54617 -2.23356 0
M  V30 31086 C 2856.44 2.49442 -3.45949 0
M  V30 31087 S 2857.27 1.94497 -4.9893 0
M  V30 31088 C 2858.42 3.31783 -5.30727 0
M  V30 31089 H 2858.66 0.869222 -2.84309 0
M  V30 31090 H 2856.19 0.336504 -1.50688 0
M  V30 31091 H 2858.15 3.32638 -2.40545 0
M  V30 31092 H 2856.81 2.83902 -1.34381 0
M  V30 31093 H 2856 3.49295 -3.6333 0
M  V30 31094 H 2855.6 1.79537 -3.28089 0
M  V30 31095 H 2857.9 4.27957 -5.25223 0
M  V30 31096 H 2858.84 3.1924 -6.32053 0
M  V30 31097 H 2859.25 3.29695 -4.58216 0
M  V30 31098 N 2858.65 1.52438 0.400055 0
M  V30 31099 C 2859.59 1.77053 1.50848 0
M  V30 31100 C 2860.59 0.637996 1.56927 0
M  V30 31101 O 2861.79 0.82024 1.60225 0
M  V30 31102 H 2858.17 0.560045 0.50185 0
M  V30 31103 H 2860.14 2.69895 1.27276 0
M  V30 31104 C 2858.89 1.94643 2.88114 0
M  V30 31105 H 2858.21 2.81213 2.84182 0
M  V30 31106 H 2859.65 2.15861 3.64938 0
M  V30 31107 C 2858.11 0.715957 3.29205 0
M  V30 31108 O 2858.64 -0.111874 4.01544 0
M  V30 31109 N 2856.85 0.549241 2.85362 0
M  V30 31110 H 2856.39 1.22401 2.26662 0
M  V30 31111 H 2856.35 -0.272725 3.13215 0
M  V30 31112 N 2860.12 -0.657839 1.43214 0
M  V30 31113 C 2861.54 -0.972969 1.26513 0
M  V30 31114 C 2861.74 -2.00681 0.181512 0
M  V30 31115 O 2860.8 -2.48608 -0.441606 0
M  V30 31116 C 2862.11 -1.46163 2.62787 0
M  V30 31117 C 2863.66 -1.57852 2.70281 0
M  V30 31118 C 2864.13 -2.1011 4.06962 0
M  V30 31119 N 2865.62 -2.17419 4.09003 0
M  V30 31120 C 2866.36 -2.58966 5.1159 0
M  V30 31121 N 2865.85 -2.99842 6.24553 0
M  V30 31122 N 2867.65 -2.58865 4.98944 0
M  V30 31123 H 2859.8 0.0263503 2.12384 0
M  V30 31124 H 2862.06 -0.0507825 0.946639 0
M  V30 31125 H 2861.77 -0.776413 3.43023 0
M  V30 31126 H 2861.64 -2.43746 2.87867 0
M  V30 31127 H 2864.03 -2.25476 1.9038 0
M  V30 31128 H 2864.11 -0.587135 2.48971 0
M  V30 31129 H 2863.75 -1.43089 4.87327 0
M  V30 31130 H 2863.68 -3.10071 4.25633 0
M  V30 31131 H 2866.17 -1.88621 3.27461 0
M  V30 31132 H 2866.49 -3.3028 6.98667 0
M  V30 31133 H 2864.83 -2.97658 6.28032 0
M  V30 31134 H 2868.02 -2.26304 4.09761 0
M  V30 31135 H 2868.2 -2.90922 5.79024 0
M  V30 31136 N 2861.6 -1.29668 -0.895769 0
M  V30 31137 C 2862.51 -1.17028 -2.03327 0
M  V30 31138 C 2863.53 -0.0926267 -1.73753 0
M  V30 31139 O 2864.7 -0.305466 -1.9907 0
M  V30 31140 C 2861.77 -0.8519 -3.36071 0
M  V30 31141 C 2860.83 -2.0138 -3.79137 0
M  V30 31142 C 2860.06 -1.71052 -5.05546 0
M  V30 31143 O 2860.29 -0.633312 -5.66873 0
M  V30 31144 O 2859.22 -2.55969 -5.4476 0
M  V30 31145 H 2863.05 -2.1256 -2.16915 0
M  V30 31146 H 2860.63 -1.09158 -1.02005 0
M  V30 31147 H 2862.51 -0.689079 -4.15728 0
M  V30 31148 H 2861.19 0.0736065 -3.23616 0
M  V30 31149 H 2860.09 -2.23188 -3.0023 0
M  V30 31150 H 2861.43 -2.92065 -3.96181 0
M  V30 31151 N 2863.08 1.10667 -1.12208 0
M  V30 31152 C 2864.33 1.82847 -0.877204 0
M  V30 31153 C 2864.66 1.84843 0.595539 0
M  V30 31154 O 2863.93 1.30734 1.4401 0
M  V30 31155 C 2864.22 3.29633 -1.44963 0
M  V30 31156 C 2864.07 3.35984 -2.99057 0
M  V30 31157 C 2865.39 4.25945 -1.10722 0
M  V30 31158 H 2862.51 0.663849 -0.320115 0
M  V30 31159 H 2865.15 1.29717 -1.38829 0
M  V30 31160 H 2863.3 3.75008 -1.01495 0
M  V30 31161 H 2864.97 2.99107 -3.51188 0
M  V30 31162 H 2863.21 2.75956 -3.3471 0
M  V30 31163 H 2863.89 4.39333 -3.34201 0
M  V30 31164 H 2866.36 3.88791 -1.4826 0
M  V30 31165 H 2865.24 5.27018 -1.5344 0
M  V30 31166 H 2865.5 4.42096 -0.0190777 0
M  V30 31167 N 2864.56 0.913621 1.28416 0
M  V30 31168 C 2865.79 0.562571 1.99105 0
M  V30 31169 C 2866.2 -0.856107 1.68274 0
M  V30 31170 O 2865.56 -1.56703 0.935429 0
M  V30 31171 C 2865.61 0.761965 3.53378 0
M  V30 31172 O 2865.33 2.12482 3.83123 0
M  V30 31173 C 2866.83 0.417729 4.41327 0
M  V30 31174 H 2864.05 0.214492 0.635794 0
M  V30 31175 H 2866.59 1.22679 1.63616 0
M  V30 31176 H 2864.75 0.144744 3.8713 0
M  V30 31177 H 2865.16 2.1644 4.77759 0
M  V30 31178 H 2866.64 0.608015 5.48641 0
M  V30 31179 H 2867.11 -0.646031 4.34423 0
M  V30 31180 H 2867.72 1.01248 4.13072 0
M  V30 31181 N 2866.04 -1.4229 0.677588 0
M  V30 31182 C 2867.26 -2.05837 0.209495 0
M  V30 31183 C 2867.68 -1.50919 -1.13442 0
M  V30 31184 O 2867.04 -0.65011 -1.70528 0
M  V30 31185 C 2867.09 -3.61233 0.138883 0
M  V30 31186 O 2866.81 -4.14115 1.42969 0
M  V30 31187 C 2868.31 -4.41897 -0.352371 0
M  V30 31188 H 2865.53 -0.663322 0.10122 0
M  V30 31189 H 2868.07 -1.82379 0.925109 0
M  V30 31190 H 2866.23 -3.83793 -0.527437 0
M  V30 31191 H 2866.64 -5.08009 1.30489 0
M  V30 31192 H 2868.12 -5.50885 -0.350682 0
M  V30 31193 H 2868.59 -4.16686 -1.38813 0
M  V30 31194 H 2869.2 -4.24362 0.28231 0
M  V30 31195 N 2867.51 -0.421104 -1.5187 0
M  V30 31196 C 2868.44 0.389322 -2.30231 0
M  V30 31197 C 2869.42 1.03553 -1.34948 0
M  V30 31198 O 2870.61 1.04226 -1.63861 0
M  V30 31199 C 2867.74 1.49973 -3.1325 0
M  V30 31200 C 2866.69 0.977893 -4.16679 0
M  V30 31201 C 2866.02 2.18281 -4.88116 0
M  V30 31202 C 2867.32 0.0235857 -5.22295 0
M  V30 31203 H 2869.01 -0.264576 -2.98229 0
M  V30 31204 H 2866.56 -0.128685 -1.43424 0
M  V30 31205 H 2868.51 2.07377 -3.66842 0
M  V30 31206 H 2867.24 2.18168 -2.43044 0
M  V30 31207 H 2865.9 0.426181 -3.64114 0
M  V30 31208 H 2865.54 2.85059 -4.14428 0
M  V30 31209 H 2865.24 1.84011 -5.58044 0
M  V30 31210 H 2866.77 2.76269 -5.44525 0
M  V30 31211 H 2868.18 0.506798 -5.71056 0
M  V30 31212 H 2866.58 -0.230887 -5.99656 0
M  V30 31213 H 2867.65 -0.918083 -4.76129 0
M  V30 31214 N 2868.99 1.56866 -0.151912 0
M  V30 31215 C 2870.41 1.58285 0.204458 0
M  V30 31216 C 2870.61 1.16641 1.64308 0
M  V30 31217 O 2869.66 0.868987 2.37076 0
M  V30 31218 C 2870.98 3.00643 -0.0587548 0
M  V30 31219 C 2872.53 3.13 0.00456802 0
M  V30 31220 C 2873 4.57415 -0.231377 0
M  V30 31221 N 2874.49 4.62856 -0.178476 0
M  V30 31222 C 2875.23 5.72418 -0.33548 0
M  V30 31223 N 2874.72 6.9061 -0.550476 0
M  V30 31224 N 2876.52 5.61438 -0.272739 0
M  V30 31225 H 2868.67 1.82227 -1.09119 0
M  V30 31226 H 2870.93 0.843681 -0.432326 0
M  V30 31227 H 2870.64 3.35516 -1.05459 0
M  V30 31228 H 2870.51 3.71409 0.658442 0
M  V30 31229 H 2872.9 2.77964 0.99096 0
M  V30 31230 H 2872.98 2.4471 -0.745035 0
M  V30 31231 H 2872.62 4.93156 -1.21489 0
M  V30 31232 H 2872.55 5.23838 0.538608 0
M  V30 31233 H 2875.04 3.77896 -0.0171588 0
M  V30 31234 H 2875.36 7.69974 -0.660252 0
M  V30 31235 H 2873.7 6.92518 -0.586857 0
M  V30 31236 H 2876.89 4.67981 -0.105503 0
M  V30 31237 H 2877.06 6.46773 -0.398531 0
M  V30 31238 N 2870.47 -0.121866 1.57128 0
M  V30 31239 C 2871.42 -1.16864 2.01111 0
M  V30 31240 C 2872.41 -1.43038 0.907557 0
M  V30 31241 O 2873.62 -1.43034 1.09276 0
M  V30 31242 H 2869.99 -0.39396 0.640546 0
M  V30 31243 H 2871.96 -0.771174 2.88263 0
M  V30 31244 C 2870.71 -2.48795 2.42892 0
M  V30 31245 H 2870.04 -2.29492 3.27374 0
M  V30 31246 H 2871.48 -3.20606 2.77467 0
M  V30 31247 C 2869.94 -3.11165 1.29142 0
M  V30 31248 O 2870.47 -3.97105 0.605826 0
M  V30 31249 N 2868.67 -2.70998 1.04921 0
M  V30 31250 H 2868.22 -2.01208 1.60851 0
M  V30 31251 H 2868.18 -3.13059 0.290071 0
M  V30 31252 N 2871.95 -1.52648 -0.391965 0
M  V30 31253 C 2873.36 -1.41833 -0.731823 0
M  V30 31254 C 2873.56 -0.536395 -1.94229 0
M  V30 31255 O 2872.62 -0.0087101 -2.52498 0
M  V30 31256 C 2873.93 -2.84636 -0.969693 0
M  V30 31257 C 2875.48 -2.94094 -1.07135 0
M  V30 31258 C 2875.96 -4.37902 -1.34187 0
M  V30 31259 N 2877.45 -4.41213 -1.41015 0
M  V30 31260 C 2878.18 -5.49564 -1.63606 0
M  V30 31261 N 2877.68 -6.68005 -1.83687 0
M  V30 31262 N 2879.47 -5.37103 -1.65761 0
M  V30 31263 H 2871.62 -2.08511 0.404584 0
M  V30 31264 H 2873.89 -0.940526 0.118806 0
M  V30 31265 H 2873.59 -3.5137 -0.152403 0
M  V30 31266 H 2873.47 -3.26712 -1.88518 0
M  V30 31267 H 2875.85 -2.2753 -1.87921 0
M  V30 31268 H 2875.93 -2.5545 -0.133842 0
M  V30 31269 H 2875.58 -5.05031 -0.539118 0
M  V30 31270 H 2875.51 -4.74096 -2.29217 0
M  V30 31271 H 2878 -3.55843 -1.27216 0
M  V30 31272 H 2878.31 -7.46358 -2.00424 0
M  V30 31273 H 2876.66 -6.71039 -1.80918 0
M  V30 31274 H 2879.85 -4.43543 -1.49622 0
M  V30 31275 H 2880.02 -6.21615 -1.83027 0
M  V30 31276 N 2873.43 0.650235 -1.43561 0
M  V30 31277 C 2874.36 1.77457 -1.51761 0
M  V30 31278 C 2875.34 1.65981 -0.372048 0
M  V30 31279 O 2876.52 1.85031 -0.58966 0
M  V30 31280 C 2873.65 3.159 -1.44307 0
M  V30 31281 C 2872.61 3.42142 -2.57144 0
M  V30 31282 C 2871.93 4.80416 -2.34743 0
M  V30 31283 C 2873.23 3.36591 -3.99379 0
M  V30 31284 H 2874.93 1.70851 -2.45866 0
M  V30 31285 H 2872.47 0.820545 -1.18335 0
M  V30 31286 H 2874.43 3.94312 -1.48648 0
M  V30 31287 H 2873.15 3.23243 -0.467083 0
M  V30 31288 H 2871.81 2.66102 -2.52161 0
M  V30 31289 H 2871.46 4.84439 -1.3538 0
M  V30 31290 H 2871.16 4.98935 -3.10384 0
M  V30 31291 H 2872.68 5.61082 -2.40872 0
M  V30 31292 H 2874.09 4.04935 -4.05833 0
M  V30 31293 H 2872.49 3.66646 -4.7507 0
M  V30 31294 H 2873.56 2.34721 -4.24304 0
M  V30 31295 N 2874.9 1.30141 0.88888 0
M  V30 31296 C 2876.32 1.08387 1.17151 0
M  V30 31297 C 2876.52 -0.15789 2.0088 0
M  V30 31298 O 2875.58 -0.852611 2.3767 0
M  V30 31299 C 2876.89 2.34527 1.88196 0
M  V30 31300 C 2878.44 2.39952 2.00977 0
M  V30 31301 C 2878.91 3.65923 2.75435 0
M  V30 31302 N 2880.4 3.66708 2.82983 0
M  V30 31303 C 2881.14 4.60867 3.41158 0
M  V30 31304 N 2880.63 5.65367 4.00415 0
M  V30 31305 N 2882.43 4.48418 3.38936 0
M  V30 31306 H 2874.58 2.09813 0.330493 0
M  V30 31307 H 2876.84 0.924686 0.208948 0
M  V30 31308 H 2876.55 3.25125 1.34114 0
M  V30 31309 H 2876.42 2.42873 2.88605 0
M  V30 31310 H 2878.81 1.49835 2.54231 0
M  V30 31311 H 2878.89 2.35584 0.996684 0
M  V30 31312 H 2878.53 4.56398 2.22853 0
M  V30 31313 H 2878.46 3.67552 3.77111 0
M  V30 31314 H 2880.95 2.91157 2.40907 0
M  V30 31315 H 2881.27 6.3332 4.4286 0
M  V30 31316 H 2879.61 5.69164 3.98846 0
M  V30 31317 H 2882.8 3.65965 2.91869 0
M  V30 31318 H 2882.98 5.21981 3.83979 0
M  V30 31319 N 2876.38 -1.1007 1.12794 0
M  V30 31320 C 2877.8 -1.34141 0.864768 0
M  V30 31321 C 2878 -1.95117 -0.503167 0
M  V30 31322 O 2877.05 -2.19327 -1.25107 0
M  V30 31323 C 2878.37 -2.25945 1.98417 0
M  V30 31324 C 2879.92 -2.39473 2.01549 0
M  V30 31325 C 2880.39 -3.34608 3.12733 0
M  V30 31326 N 2881.88 -3.42178 3.122 0
M  V30 31327 C 2882.62 -4.15772 3.94869 0
M  V30 31328 N 2882.11 -4.92219 4.87537 0
M  V30 31329 N 2883.91 -4.11428 3.82992 0
M  V30 31330 H 2876.06 -0.688625 2.00927 0
M  V30 31331 H 2878.32 -0.365828 0.87457 0
M  V30 31332 H 2878.03 -1.88359 2.97008 0
M  V30 31333 H 2877.9 -3.26283 1.89259 0
M  V30 31334 H 2880.29 -2.76327 1.03574 0
M  V30 31335 H 2880.37 -1.38936 2.1478 0
M  V30 31336 H 2880.01 -2.98478 4.10942 0
M  V30 31337 H 2879.94 -4.35032 2.9674 0
M  V30 31338 H 2882.43 -2.87661 2.4507 0
M  V30 31339 H 2882.75 -5.45785 5.47119 0
M  V30 31340 H 2881.09 -4.91331 4.91547 0
M  V30 31341 H 2884.28 -3.50801 3.09929 0
M  V30 31342 H 2884.45 -4.68523 4.47649 0
M  V30 31343 N 2877.86 -0.920419 -1.2793 0
M  V30 31344 C 2879.11 -0.55594 -1.94303 0
M  V30 31345 C 2879.43 0.904489 -1.72754 0
M  V30 31346 O 2878.7 1.64027 -1.07107 0
M  V30 31347 H 2877.28 -0.202612 -0.718998 0
M  V30 31348 H 2879.94 -1.17123 -1.55783 0
M  V30 31349 H 2879.04 -0.756034 -3.02804 0
M  V30 31350 N 2879.34 1.41929 -0.685124 0
M  V30 31351 C 2880.75 1.84469 -0.287732 0
M  V30 31352 C 2881.1 1.5734 1.17212 0
M  V30 31353 O 2880.23 1.03848 1.89854 0
M  V30 31354 C 2880.82 3.34856 -0.515444 0
M  V30 31355 C 2879.38 3.76006 -0.172072 0
M  V30 31356 C 2878.53 2.65423 -0.802855 0
M  V30 31357 H 2881.48 1.31629 -0.886543 0
M  V30 31358 H 2881.5 3.79809 0.229184 0
M  V30 31359 H 2881.01 3.5457 -1.57802 0
M  V30 31360 H 2879.11 3.61897 0.886653 0
M  V30 31361 H 2879.22 4.75074 -0.6198 0
M  V30 31362 H 2877.59 2.53629 -0.233312 0
M  V30 31363 H 2878.37 2.87958 -1.86909 0
M  V30 31364 N 2880.82 0.429152 1.51644 0
M  V30 31365 C 2881.75 -0.377107 2.30435 0
M  V30 31366 C 2882.73 -1.02836 1.35495 0
M  V30 31367 O 2883.91 -1.03356 1.64412 0
M  V30 31368 C 2881.04 -1.4831 3.14041 0
M  V30 31369 C 2880 -0.955782 4.17192 0
M  V30 31370 C 2879.32 -2.1569 4.89267 0
M  V30 31371 C 2880.62 0.00411317 5.223 0
M  V30 31372 H 2882.32 0.280388 2.98084 0
M  V30 31373 H 2879.86 0.13629 1.43354 0
M  V30 31374 H 2881.82 -2.05428 3.67936 0
M  V30 31375 H 2880.54 -2.16876 2.44197 0
M  V30 31376 H 2879.2 -0.406865 3.64335 0
M  V30 31377 H 2878.85 -2.82857 4.15934 0
M  V30 31378 H 2878.55 -1.81049 5.59012 0
M  V30 31379 H 2880.07 -2.73377 5.45983 0
M  V30 31380 H 2881.48 -0.476507 5.71316 0
M  V30 31381 H 2879.88 0.262685 5.99525 0
M  V30 31382 H 2880.95 0.94332 4.75636 0
M  V30 31383 N 2882.29 -1.56783 0.160229 0
M  V30 31384 C 2883.52 -2.00913 -0.49413 0
M  V30 31385 C 2883.94 -1.04041 -1.57546 0
M  V30 31386 O 2883.29 -0.0394902 -1.82457 0
M  V30 31387 C 2883.35 -3.44907 -1.08265 0
M  V30 31388 O 2883.07 -4.38077 -0.0444934 0
M  V30 31389 C 2884.57 -4.04382 -1.81633 0
M  V30 31390 H 2881.79 -0.658778 -0.127486 0
M  V30 31391 H 2884.33 -2.02857 0.258701 0
M  V30 31392 H 2882.49 -3.43773 -1.78603 0
M  V30 31393 H 2882.9 -5.22322 -0.477452 0
M  V30 31394 H 2884.37 -5.07093 -2.18085 0
M  V30 31395 H 2884.85 -3.45842 -2.70721 0
M  V30 31396 H 2885.46 -4.09186 -1.15962 0
M  V30 31397 N 2883.77 0.113531 -1.57191 0
M  V30 31398 C 2885.02 0.820349 -1.85139 0
M  V30 31399 C 2885.35 1.7962 -0.746111 0
M  V30 31400 O 2884.6 1.93938 0.262043 0
M  V30 31401 C 2884.9 1.59979 -3.19596 0
M  V30 31402 C 2884.57 0.76773 -4.44316 0
M  V30 31403 C 2883.23 0.538295 -4.7818 0
M  V30 31404 C 2885.58 0.188111 -5.2086 0
M  V30 31405 C 2882.91 -0.280923 -5.86027 0
M  V30 31406 C 2885.26 -0.618328 -6.29571 0
M  V30 31407 C 2883.93 -0.858028 -6.61962 0
M  V30 31408 H 2883.2 0.300187 -0.677472 0
M  V30 31409 H 2885.84 0.0825106 -1.91322 0
M  V30 31410 H 2884.15 2.40869 -3.09014 0
M  V30 31411 H 2885.85 2.15074 -3.38444 0
M  V30 31412 H 2882.44 0.956651 -4.17787 0
M  V30 31413 H 2886.62 0.352571 -4.95046 0
M  V30 31414 H 2881.88 -0.4758 -6.09546 0
M  V30 31415 H 2886.05 -1.07442 -6.88062 0
M  V30 31416 H 2883.68 -1.49464 -7.45362 0
M  V30 31417 N 2885.25 1.52854 0.383864 0
M  V30 31418 C 2886.48 1.72032 1.14947 0
M  V30 31419 C 2886.89 0.44099 1.83578 0
M  V30 31420 O 2886.25 -0.584895 1.72873 0
M  V30 31421 C 2886.3 2.87337 2.19363 0
M  V30 31422 O 2886.02 4.10318 1.53529 0
M  V30 31423 C 2887.52 3.18236 3.08611 0
M  V30 31424 H 2884.74 0.575852 0.344435 0
M  V30 31425 H 2887.29 1.99524 0.448362 0
M  V30 31426 H 2885.44 2.62291 2.851 0
M  V30 31427 H 2885.86 4.74756 2.22951 0
M  V30 31428 H 2887.33 4.02368 3.77895 0
M  V30 31429 H 2887.81 2.32833 3.72405 0
M  V30 31430 H 2888.41 3.4514 2.48512 0
M  V30 31431 N 2886.73 -0.642612 1.43904 0
M  V30 31432 C 2887.96 -1.42985 1.49542 0
M  V30 31433 C 2888.37 -1.88439 0.116621 0
M  V30 31434 O 2887.73 -1.60142 -0.875257 0
M  V30 31435 C 2887.78 -2.65781 2.45036 0
M  V30 31436 O 2887.5 -2.22225 3.77555 0
M  V30 31437 C 2889 -3.5903 2.60024 0
M  V30 31438 H 2886.22 -0.438899 0.507552 0
M  V30 31439 H 2888.77 -0.786909 1.88754 0
M  V30 31440 H 2886.92 -3.26192 2.08991 0
M  V30 31441 H 2887.34 -3.01752 4.29006 0
M  V30 31442 H 2888.81 -4.41829 3.30894 0
M  V30 31443 H 2889.29 -4.07081 1.64868 0
M  V30 31444 H 2889.89 -3.04495 2.96923 0
M  V30 31445 N 2888.21 -1.30611 -0.881966 0
M  V30 31446 C 2889.62 -1.09007 -1.16574 0
M  V30 31447 C 2889.82 0.147235 -2.00961 0
M  V30 31448 O 2888.88 0.839994 -2.38118 0
M  V30 31449 C 2890.19 -2.35521 -1.8695 0
M  V30 31450 C 2891.74 -2.41015 -1.99702 0
M  V30 31451 C 2892.22 -3.67379 -2.7349 0
M  V30 31452 N 2893.71 -3.68204 -2.81034 0
M  V30 31453 C 2894.44 -4.6267 -3.3871 0
M  V30 31454 N 2893.94 -5.67482 -3.97411 0
M  V30 31455 N 2895.73 -4.50209 -3.36553 0
M  V30 31456 H 2887.88 -2.09985 -0.319361 0
M  V30 31457 H 2890.14 -0.925781 -0.204041 0
M  V30 31458 H 2889.85 -3.25832 -1.32388 0
M  V30 31459 H 2889.72 -2.444 -2.87313 0
M  V30 31460 H 2892.11 -1.51181 -2.53433 0
M  V30 31461 H 2892.19 -2.36109 -0.984176 0
M  V30 31462 H 2891.84 -4.57573 -2.2043 0
M  V30 31463 H 2891.77 -3.69547 -3.75157 0
M  V30 31464 H 2894.26 -2.9243 -2.39359 0
M  V30 31465 H 2894.57 -6.3566 -4.39495 0
M  V30 31466 H 2892.92 -5.71271 -3.95822 0
M  V30 31467 H 2896.11 -3.67508 -2.89924 0
M  V30 31468 H 2896.28 -5.2401 -3.81206 0
M  V30 31469 N 2889.69 1.0947 -1.13376 0
M  V30 31470 C 2890.91 1.854 -0.918384 0
M  V30 31471 C 2891.33 1.81127 0.532778 0
M  V30 31472 O 2890.69 1.2071 1.36877 0
M  V30 31473 C 2890.74 3.33395 -1.39749 0
M  V30 31474 O 2890.46 3.37626 -2.79178 0
M  V30 31475 C 2891.96 4.26168 -1.22049 0
M  V30 31476 H 2889.18 0.585637 -0.327521 0
M  V30 31477 H 2891.72 1.38325 -1.5062 0
M  V30 31478 H 2889.88 3.779 -0.852686 0
M  V30 31479 H 2890.29 4.29929 -3.00435 0
M  V30 31480 H 2891.77 5.28167 -1.60447 0
M  V30 31481 H 2892.24 4.38901 -0.162124 0
M  V30 31482 H 2892.85 3.87478 -1.7533 0
M  V30 31483 N 2891.16 0.92719 1.2744 0
M  V30 31484 C 2892.41 0.568198 1.94678 0
M  V30 31485 C 2892.74 -0.888189 1.72699 0
M  V30 31486 O 2892.02 -1.63352 1.05576 0
M  V30 31487 C 2892.3 0.894314 3.48818 0
M  V30 31488 C 2892.15 2.40442 3.80142 0
M  V30 31489 C 2893.47 0.399843 4.3828 0
M  V30 31490 H 2890.59 0.207905 0.707068 0
M  V30 31491 H 2893.23 1.15888 1.50566 0
M  V30 31492 H 2891.38 0.391634 3.86521 0
M  V30 31493 H 2893.06 2.97875 3.52233 0
M  V30 31494 H 2891.3 2.85381 3.26711 0
M  V30 31495 H 2891.97 2.58313 4.87831 0
M  V30 31496 H 2894.45 0.830652 4.07725 0
M  V30 31497 H 2893.32 0.656981 5.44954 0
M  V30 31498 H 2893.58 -0.700076 4.36522 0
M  V30 31499 N 2892.64 -1.41564 0.692641 0
M  V30 31500 C 2894.06 -1.55396 0.363906 0
M  V30 31501 C 2894.26 -1.66876 -1.12937 0
M  V30 31502 O 2893.31 -1.64556 -1.91514 0
M  V30 31503 C 2894.63 -2.79468 1.10987 0
M  V30 31504 C 2896.17 -2.93261 1.09393 0
M  V30 31505 C 2896.65 -4.20217 1.82157 0
M  V30 31506 N 2898.14 -4.27168 1.79113 0
M  V30 31507 C 2898.88 -5.24256 2.32256 0
M  V30 31508 N 2898.37 -6.27391 2.93858 0
M  V30 31509 N 2900.16 -5.16176 2.22529 0
M  V30 31510 H 2892.32 -1.32357 1.66119 0
M  V30 31511 H 2894.58 -0.638358 0.700859 0
M  V30 31512 H 2894.28 -2.77185 2.16475 0
M  V30 31513 H 2894.16 -3.70899 0.686557 0
M  V30 31514 H 2896.55 -2.95062 0.0473156 0
M  V30 31515 H 2896.63 -2.03012 1.55627 0
M  V30 31516 H 2896.27 -4.19178 2.86796 0
M  V30 31517 H 2896.2 -5.09434 1.33359 0
M  V30 31518 H 2898.69 -3.5327 1.34197 0
M  V30 31519 H 2899 -6.97858 3.31984 0
M  V30 31520 H 2897.35 -6.27901 2.97935 0
M  V30 31521 H 2900.54 -4.34528 1.74077 0
M  V30 31522 H 2900.71 -5.91673 2.64249 0
M  V30 31523 N 2894.12 -0.437188 -1.51415 0
M  V30 31524 C 2895.05 0.410131 -2.25501 0
M  V30 31525 C 2896.06 0.986421 -1.29513 0
M  V30 31526 O 2897.25 0.880587 -1.55267 0
M  V30 31527 C 2894.35 1.5857 -2.99514 0
M  V30 31528 C 2893.53 1.12831 -4.22597 0
M  V30 31529 C 2892.59 2.17399 -4.79191 0
M  V30 31530 O 2891.61 1.7684 -5.41033 0
M  V30 31531 N 2892.81 3.49881 -4.6321 0
M  V30 31532 H 2895.58 -0.224836 -2.98855 0
M  V30 31533 H 2893.14 -0.266069 -1.59699 0
M  V30 31534 H 2895.13 2.28146 -3.34262 0
M  V30 31535 H 2893.7 2.12602 -2.29171 0
M  V30 31536 H 2892.92 0.259626 -3.93344 0
M  V30 31537 H 2894.21 0.800107 -5.0247 0
M  V30 31538 H 2893.61 3.85565 -4.13951 0
M  V30 31539 H 2892.16 4.15352 -5.02321 0
M  V30 31540 N 2895.6 1.56696 -0.168541 0
M  V30 31541 C 2896.84 1.9709 0.47783 0
M  V30 31542 C 2897.18 1.0544 1.63083 0
M  V30 31543 O 2896.45 0.100985 1.94238 0
M  V30 31544 C 2896.73 3.46972 0.96346 0
M  V30 31545 C 2896.59 4.49401 -0.189522 0
M  V30 31546 C 2897.91 3.99879 1.83806 0
M  V30 31547 H 2895.03 0.716596 0.172217 0
M  V30 31548 H 2897.67 1.88293 -0.254116 0
M  V30 31549 H 2895.82 3.546 1.58717 0
M  V30 31550 H 2897.49 4.53835 -0.826531 0
M  V30 31551 H 2895.73 4.25482 -0.845441 0
M  V30 31552 H 2896.4 5.51665 0.192349 0
M  V30 31553 H 2898.88 3.94865 1.31228 0
M  V30 31554 H 2897.76 5.05173 2.14688 0
M  V30 31555 H 2898.02 3.43528 2.78282 0
M  V30 31556 N 2897.08 -0.105193 1.57249 0
M  V30 31557 C 2898.32 -0.810519 1.85572 0
M  V30 31558 C 2898.65 -1.79222 0.755626 0
M  V30 31559 O 2897.91 -1.94074 -0.251754 0
M  V30 31560 C 2898.2 -1.58282 3.2044 0
M  V30 31561 C 2897.87 -0.744156 4.44717 0
M  V30 31562 C 2896.53 -0.512929 4.78458 0
M  V30 31563 C 2898.88 -0.160486 5.20953 0
M  V30 31564 C 2896.21 0.311997 5.8587 0
M  V30 31565 C 2898.56 0.651707 6.29234 0
M  V30 31566 C 2897.23 0.893121 6.61498 0
M  V30 31567 H 2896.5 -0.29659 0.679055 0
M  V30 31568 H 2899.15 -0.0723632 1.91363 0
M  V30 31569 H 2897.45 -2.39226 3.10287 0
M  V30 31570 H 2899.15 -2.13276 3.3958 0
M  V30 31571 H 2895.74 -0.934481 4.18289 0
M  V30 31572 H 2899.92 -0.326313 4.95226 0
M  V30 31573 H 2895.18 0.508119 6.09285 0
M  V30 31574 H 2899.35 1.11089 6.87482 0
M  V30 31575 H 2896.98 1.53414 7.44559 0
M  V30 31576 N 2898.55 -1.53055 -0.375752 0
M  V30 31577 C 2899.97 -1.42601 -0.716739 0
M  V30 31578 C 2900.17 -0.556965 -1.9365 0
M  V30 31579 O 2899.23 -0.0354904 -2.52475 0
M  V30 31580 C 2900.54 -2.85648 -0.939449 0
M  V30 31581 C 2902.09 -2.95213 -1.0401 0
M  V30 31582 C 2902.56 -4.393 -1.29535 0
M  V30 31583 N 2904.05 -4.42684 -1.36327 0
M  V30 31584 C 2904.79 -5.51268 -1.57768 0
M  V30 31585 N 2904.28 -6.69916 -1.76592 0
M  V30 31586 N 2906.08 -5.38831 -1.60055 0
M  V30 31587 H 2898.23 -2.0807 0.426677 0
M  V30 31588 H 2900.49 -0.939213 0.128775 0
M  V30 31589 H 2900.2 -3.51512 -0.115127 0
M  V30 31590 H 2900.07 -3.28693 -1.85042 0
M  V30 31591 H 2902.46 -2.2951 -1.85497 0
M  V30 31592 H 2902.54 -2.55577 -0.106741 0
M  V30 31593 H 2902.18 -5.05574 -0.485522 0
M  V30 31594 H 2902.11 -4.765 -2.24176 0
M  V30 31595 H 2904.6 -3.57173 -1.23435 0
M  V30 31596 H 2904.92 -7.48442 -1.92497 0
M  V30 31597 H 2903.26 -6.7292 -1.7379 0
M  V30 31598 H 2906.45 -4.45105 -1.44909 0
M  V30 31599 H 2906.63 -6.23521 -1.76424 0
M  V30 31600 N 2900.03 0.634971 -1.44242 0
M  V30 31601 C 2900.96 1.75837 -1.53635 0
M  V30 31602 C 2901.94 1.65577 -0.389632 0
M  V30 31603 O 2903.13 1.84396 -0.609252 0
M  V30 31604 C 2900.26 3.14351 -1.4765 0
M  V30 31605 C 2899.21 3.39395 -2.60758 0
M  V30 31606 C 2898.54 4.77899 -2.39825 0
M  V30 31607 C 2899.84 3.32336 -4.02927 0
M  V30 31608 H 2901.53 1.68234 -2.47665 0
M  V30 31609 H 2899.08 0.807948 -1.19198 0
M  V30 31610 H 2901.03 3.92713 -1.52822 0
M  V30 31611 H 2899.76 3.22729 -0.501341 0
M  V30 31612 H 2898.41 2.63412 -2.54969 0
M  V30 31613 H 2898.06 4.82976 -1.40511 0
M  V30 31614 H 2897.76 4.95615 -3.15658 0
M  V30 31615 H 2899.29 5.58496 -2.46809 0
M  V30 31616 H 2900.7 4.00608 -4.10105 0
M  V30 31617 H 2899.1 3.61586 -4.78932 0
M  V30 31618 H 2900.17 2.30208 -4.2677 0
M  V30 31619 N 2901.51 1.31076 0.875027 0
M  V30 31620 C 2902.42 1.20248 2.01439 0
M  V30 31621 C 2903.44 0.120258 1.73584 0
M  V30 31622 O 2904.61 0.337098 1.98559 0
M  V30 31623 C 2901.68 0.905258 3.34673 0
M  V30 31624 C 2900.74 2.07386 3.75885 0
M  V30 31625 C 2899.97 1.79073 5.02761 0
M  V30 31626 O 2900.19 0.723417 5.65794 0
M  V30 31627 O 2899.13 2.64604 5.40619 0
M  V30 31628 H 2902.95 2.15984 2.13506 0
M  V30 31629 H 2900.54 1.10767 1.00255 0
M  V30 31630 H 2902.42 0.75513 4.14579 0
M  V30 31631 H 2901.1 -0.0221126 3.23692 0
M  V30 31632 H 2900 2.27937 2.96641 0
M  V30 31633 H 2901.34 2.9833 3.91484 0
M  V30 31634 N 2902.99 -1.08867 1.13955 0
M  V30 31635 C 2903.9 -2.1921 0.835705 0
M  V30 31636 C 2904.91 -1.73046 -0.181975 0
M  V30 31637 O 2906.09 -2.01397 -0.0116307 0
M  V30 31638 C 2903.16 -3.4529 0.312386 0
M  V30 31639 C 2902.22 -4.06105 1.39203 0
M  V30 31640 C 2901.45 -5.26166 0.893589 0
M  V30 31641 O 2901.67 -5.69776 -0.266707 0
M  V30 31642 O 2900.61 -5.78255 1.67047 0
M  V30 31643 H 2904.43 -2.47664 1.75774 0
M  V30 31644 H 2902.02 -1.17913 0.917442 0
M  V30 31645 H 2903.9 -4.21392 0.0262323 0
M  V30 31646 H 2902.57 -3.18425 -0.581986 0
M  V30 31647 H 2901.48 -3.31613 1.73158 0
M  V30 31648 H 2902.81 -4.37208 2.26075 0
M  V30 31649 N 2904.47 -0.933936 -1.26946 0
M  V30 31650 C 2905.71 -0.576518 -1.93703 0
M  V30 31651 C 2906.04 0.886115 -1.73704 0
M  V30 31652 O 2905.31 1.62882 -1.08841 0
M  V30 31653 H 2903.89 -0.210226 -0.716808 0
M  V30 31654 H 2906.55 -1.18769 -1.54532 0
M  V30 31655 H 2905.64 -0.788108 -3.01986 0
M  V30 31656 N 2905.94 1.41194 -0.700139 0
M  V30 31657 C 2907.19 2.01453 -0.233387 0
M  V30 31658 C 2907.52 1.55341 1.16545 0
M  V30 31659 O 2906.8 0.766606 1.78755 0
M  V30 31660 C 2907.08 3.5888 -0.296163 0
M  V30 31661 C 2906.93 4.15105 -1.73227 0
M  V30 31662 C 2908.25 4.38773 0.341448 0
M  V30 31663 H 2905.37 0.731932 -0.0862796 0
M  V30 31664 H 2908.01 1.67881 -0.889723 0
M  V30 31665 H 2906.16 3.87611 0.262667 0
M  V30 31666 H 2907.84 3.97232 -2.3453 0
M  V30 31667 H 2906.08 3.69975 -2.26497 0
M  V30 31668 H 2906.75 5.24266 -1.7277 0
M  V30 31669 H 2909.23 4.15882 -0.134534 0
M  V30 31670 H 2908.1 5.4825 0.267002 0
M  V30 31671 H 2908.36 4.18579 1.42281 0
M  V30 31672 N 2907.42 0.445212 1.51181 0
M  V30 31673 C 2908.39 -0.350682 2.26501 0
M  V30 31674 C 2909.39 -0.942929 1.30252 0
M  V30 31675 O 2910.58 -0.816148 1.53898 0
M  V30 31676 C 2907.71 -1.49692 3.06276 0
M  V30 31677 H 2908.9 0.309527 2.98298 0
M  V30 31678 H 2906.45 0.198579 1.55033 0
M  V30 31679 H 2907.19 -2.19295 2.38915 0
M  V30 31680 H 2906.97 -1.07834 3.76981 0
M  V30 31681 H 2908.46 -2.05903 3.6331 0
M  V30 31682 N 2908.9 -1.56605 0.176849 0
M  V30 31683 C 2910.13 -2.01865 -0.475954 0
M  V30 31684 C 2910.55 -1.05626 -1.55643 0
M  V30 31685 O 2909.91 -0.0367048 -1.81263 0
M  V30 31686 C 2909.96 -3.45692 -1.02613 0
M  V30 31687 O 2909.06 -3.52537 -2.13989 0
M  V30 31688 H 2908.4 -0.654253 -0.113351 0
M  V30 31689 H 2910.93 -2.02642 0.282365 0
M  V30 31690 H 2910.94 -3.85111 -1.34735 0
M  V30 31691 H 2909.62 -4.15235 -0.235065 0
M  V30 31692 H 2908.19 -3.24981 -1.8287 0
M  V30 31693 N 2910.38 0.0968524 -1.57302 0
M  V30 31694 C 2911.66 0.832241 -1.77012 0
M  V30 31695 C 2912.04 1.97019 -0.758059 0
M  V30 31696 O 2911.38 2.27498 0.213784 0
M  V30 31697 C 2911.59 1.32845 -3.22728 0
M  V30 31698 C 2912.94 1.77194 -3.85859 0
M  V30 31699 O 2913.97 1.42472 -3.26466 0
M  V30 31700 O 2912.82 2.41389 -4.90299 0
M  V30 31701 H 2909.92 0.396843 -0.725565 0
M  V30 31702 H 2912.46 0.0788707 -1.69517 0
M  V30 31703 H 2911.24 0.513052 -3.87922 0
M  V30 31704 H 2910.86 2.14388 -3.34849 0
M  V30 31705 N 2911.86 1.53252 0.36763 0
M  V30 31706 C 2912.77 1.82502 1.47412 0
M  V30 31707 C 2913.78 0.71325 1.5871 0
M  V30 31708 O 2914.96 1.00309 1.74643 0
M  V30 31709 C 2912.02 2.00699 2.82703 0
M  V30 31710 C 2911.08 3.24601 2.8095 0
M  V30 31711 C 2910.32 3.41921 4.09787 0
M  V30 31712 O 2910.54 2.63581 5.05847 0
M  V30 31713 O 2909.47 4.35267 4.15724 0
M  V30 31714 H 2913.3 2.76502 1.25619 0
M  V30 31715 H 2910.89 1.38607 0.557535 0
M  V30 31716 H 2912.77 2.14252 3.62869 0
M  V30 31717 H 2911.44 1.09888 3.04477 0
M  V30 31718 H 2910.35 3.16473 1.99489 0
M  V30 31719 H 2911.68 4.15327 2.64129 0
M  V30 31720 N 2913.34 -0.627313 1.44577 0
M  V30 31721 C 2914.25 -1.76773 1.54235 0
M  V30 31722 C 2915.26 -1.68659 0.427811 0
M  V30 31723 O 2916.44 -1.89368 0.685705 0
M  V30 31724 C 2913.5 -3.13171 1.48744 0
M  V30 31725 C 2912.56 -3.32888 2.71079 0
M  V30 31726 C 2911.8 -4.62779 2.6584 0
M  V30 31727 O 2912.02 -5.43831 1.72057 0
M  V30 31728 O 2910.95 -4.84781 3.5675 0
M  V30 31729 H 2914.78 -1.71577 2.50589 0
M  V30 31730 H 2912.36 -0.789006 1.26866 0
M  V30 31731 H 2914.25 -3.94474 1.48218 0
M  V30 31732 H 2912.92 -3.18901 0.555348 0
M  V30 31733 H 2911.83 -2.5125 2.77172 0
M  V30 31734 H 2913.16 -3.32023 3.63348 0
M  V30 31735 N 2914.81 -1.31539 -0.868063 0
M  V30 31736 C 2915.78 -1.19306 -1.95701 0
M  V30 31737 C 2916.78 -0.11964 -1.60354 0
M  V30 31738 O 2917.97 -0.36905 -1.70246 0
M  V30 31739 C 2915.1 -0.831742 -3.30598 0
M  V30 31740 H 2916.29 -2.16067 -2.07978 0
M  V30 31741 H 2913.84 -1.15177 -1.05659 0
M  V30 31742 H 2914.58 0.134637 -3.2402 0
M  V30 31743 H 2914.36 -1.60767 -3.57626 0
M  V30 31744 H 2915.85 -0.770098 -4.10438 0
M  V30 31745 N 2916.29 1.08262 -1.1453 0
M  V30 31746 C 2917.2 2.18764 -0.847318 0
M  V30 31747 C 2918.22 1.7314 0.172795 0
M  V30 31748 O 2919.39 2.014 0.000949935 0
M  V30 31749 C 2916.46 3.45119 -0.330693 0
M  V30 31750 C 2915.52 4.05361 -1.41355 0
M  V30 31751 C 2914.75 5.25685 -0.92148 0
M  V30 31752 O 2914.98 5.6991 0.236487 0
M  V30 31753 O 2913.91 5.77361 -1.70111 0
M  V30 31754 H 2917.74 2.46728 -1.77085 0
M  V30 31755 H 2915.32 1.17424 -0.923682 0
M  V30 31756 H 2917.2 4.21372 -0.0485793 0
M  V30 31757 H 2915.88 3.18729 0.565091 0
M  V30 31758 H 2914.78 3.3069 -1.74914 0
M  V30 31759 H 2916.12 4.36003 -2.28391 0
M  V30 31760 N 2917.77 0.940655 1.26449 0
M  V30 31761 C 2918.68 0.455922 2.30127 0
M  V30 31762 C 2919.7 -0.469837 1.67537 0
M  V30 31763 O 2920.87 -0.349494 1.98344 0
M  V30 31764 C 2917.94 -0.271587 3.45635 0
M  V30 31765 C 2917 0.690668 4.23708 0
M  V30 31766 C 2916.23 -0.00221666 5.337 0
M  V30 31767 O 2916.45 -1.21925 5.57217 0
M  V30 31768 O 2915.39 0.676216 5.98089 0
M  V30 31769 H 2919.21 1.31712 2.73652 0
M  V30 31770 H 2916.8 0.70652 1.31638 0
M  V30 31771 H 2918.68 -0.681413 4.15854 0
M  V30 31772 H 2917.36 -1.10818 3.0414 0
M  V30 31773 H 2916.26 1.15043 3.55972 0
M  V30 31774 H 2917.6 1.49486 4.68951 0
M  V30 31775 N 2919.25 -1.40821 0.707617 0
M  V30 31776 C 2920.21 -2.29125 0.0587627 0
M  V30 31777 C 2921.21 -1.44976 -0.695598 0
M  V30 31778 O 2922.4 -1.65983 -0.528689 0
M  V30 31779 C 2919.53 -3.28057 -0.926881 0
M  V30 31780 H 2920.73 -2.88001 0.8364 0
M  V30 31781 H 2918.28 -1.49009 0.471804 0
M  V30 31782 H 2919.01 -2.74185 -1.73186 0
M  V30 31783 H 2918.8 -3.90166 -0.388946 0
M  V30 31784 H 2920.29 -3.94199 -1.3783 0
M  V30 31785 N 2920.73 -0.453223 -1.50943 0
M  V30 31786 C 2921.66 0.386191 -2.25923 0
M  V30 31787 C 2922.67 0.972629 -1.30552 0
M  V30 31788 O 2923.86 0.864069 -1.56192 0
M  V30 31789 C 2920.96 1.55384 -3.01179 0
M  V30 31790 C 2920.13 1.08343 -4.2377 0
M  V30 31791 C 2919.19 2.12304 -4.8147 0
M  V30 31792 O 2918.22 1.71091 -5.42878 0
M  V30 31793 N 2919.42 3.44948 -4.66895 0
M  V30 31794 H 2922.18 -0.256521 -2.986 0
M  V30 31795 H 2919.75 -0.282993 -1.59408 0
M  V30 31796 H 2921.74 2.24588 -3.36663 0
M  V30 31797 H 2920.31 2.10159 -2.31413 0
M  V30 31798 H 2919.53 0.217892 -3.93597 0
M  V30 31799 H 2920.82 0.746769 -5.0329 0
M  V30 31800 H 2920.21 3.81153 -4.18018 0
M  V30 31801 H 2918.77 4.10001 -5.06698 0
M  V30 31802 N 2922.2 1.56509 -0.185151 0
M  V30 31803 C 2923.61 1.83775 0.329189 0
M  V30 31804 C 2923.97 1.10548 1.62091 0
M  V30 31805 O 2923.09 0.363018 2.13333 0
M  V30 31806 C 2923.69 3.33372 0.60404 0
M  V30 31807 C 2922.24 3.61084 1.06278 0
M  V30 31808 C 2921.39 2.77097 0.106031 0
M  V30 31809 H 2924.34 1.53335 -0.409143 0
M  V30 31810 H 2924.36 3.51602 1.45452 0
M  V30 31811 H 2923.88 3.8664 -0.336269 0
M  V30 31812 H 2921.98 3.1324 2.01771 0
M  V30 31813 H 2922.09 4.69335 0.96237 0
M  V30 31814 H 2920.45 2.47385 0.606038 0
M  V30 31815 H 2921.24 3.33152 -0.828544 0
M  V30 31816 N 2923.68 -0.0885089 1.57351 0
M  V30 31817 C 2924.93 -0.789229 1.86053 0
M  V30 31818 C 2925.25 -1.78947 0.774795 0
M  V30 31819 O 2924.52 -1.94894 -0.19829 0
M  V30 31820 H 2923.1 -0.294462 0.686514 0
M  V30 31821 H 2925.76 -0.0685712 1.94779 0
M  V30 31822 H 2924.86 -1.31576 2.83009 0
M  V30 31823 N 2925.16 -1.53445 -0.359498 0
M  V30 31824 C 2926.38 -1.74146 -1.12641 0
M  V30 31825 C 2926.81 -0.472039 -1.82081 0
M  V30 31826 O 2926.17 0.57433 -1.71963 0
M  V30 31827 C 2926.22 -2.91134 -2.12776 0
M  V30 31828 O 2925.32 -2.60167 -3.19979 0
M  V30 31829 H 2924.66 -0.578157 -0.326542 0
M  V30 31830 H 2927.19 -2.00352 -0.414763 0
M  V30 31831 H 2927.2 -3.17472 -2.56273 0
M  V30 31832 H 2925.88 -3.83209 -1.61627 0
M  V30 31833 H 2924.45 -2.44666 -2.81412 0
M  V30 31834 N 2926.64 0.619637 -1.44908 0
M  V30 31835 C 2927.89 1.37623 -1.48001 0
M  V30 31836 C 2928.21 1.94641 -0.118329 0
M  V30 31837 O 2927.48 1.76459 0.850829 0
M  V30 31838 H 2926.06 0.510864 -0.545002 0
M  V30 31839 H 2928.72 0.728491 -1.80773 0
M  V30 31840 H 2927.81 2.20175 -2.212 0
M  V30 31841 N 2928.12 1.31997 0.861075 0
M  V30 31842 C 2929.53 1.19957 1.43063 0
M  V30 31843 C 2929.88 -0.190455 1.95273 0
M  V30 31844 O 2929 -1.08879 1.87014 0
M  V30 31845 C 2929.6 2.17164 2.60048 0
M  V30 31846 C 2928.16 2.09031 3.13022 0
M  V30 31847 C 2927.3 2.05892 1.85752 0
M  V30 31848 H 2930.26 1.43919 0.668809 0
M  V30 31849 H 2930.28 1.76643 3.37013 0
M  V30 31850 H 2929.79 3.18323 2.22018 0
M  V30 31851 H 2927.89 1.11098 3.55651 0
M  V30 31852 H 2928 2.98555 3.74702 0
M  V30 31853 H 2926.37 1.51036 2.05086 0
M  V30 31854 H 2927.15 3.08821 1.49948 0
M  V30 31855 N 2929.59 -1.07653 1.15103 0
M  V30 31856 C 2930.82 -1.84455 0.948209 0
M  V30 31857 C 2931.24 -1.81377 -0.498401 0
M  V30 31858 O 2930.6 -1.20447 -1.35507 0
M  V30 31859 C 2930.65 -3.29578 1.46324 0
M  V30 31860 O 2929.75 -4.07078 0.660414 0
M  V30 31861 H 2929.1 -0.571275 0.338438 0
M  V30 31862 H 2931.63 -1.35825 1.53012 0
M  V30 31863 H 2931.64 -3.80414 1.47475 0
M  V30 31864 H 2930.31 -3.31134 2.51641 0
M  V30 31865 H 2928.89 -3.65917 0.718281 0
M  V30 31866 N 2931.07 -0.947348 -1.25949 0
M  V30 31867 C 2932.48 -0.639994 -1.75388 0
M  V30 31868 C 2932.83 0.844757 -1.77083 0
M  V30 31869 O 2931.96 1.66112 -1.38693 0
M  V30 31870 C 2932.55 -1.15501 -3.18504 0
M  V30 31871 C 2931.11 -0.897959 -3.65532 0
M  V30 31872 C 2930.26 -1.30232 -2.44816 0
M  V30 31873 H 2933.21 -1.12497 -1.11938 0
M  V30 31874 H 2933.23 -0.511694 -3.77044 0
M  V30 31875 H 2932.74 -2.23565 -3.17239 0
M  V30 31876 H 2930.85 0.168031 -3.72221 0
M  V30 31877 H 2930.96 -1.5293 -4.54037 0
M  V30 31878 H 2929.32 -0.720721 -2.4429 0
M  V30 31879 H 2930.11 -2.39202 -2.46246 0
M  V30 31880 N 2932.55 1.40444 -0.715075 0
M  V30 31881 C 2933.46 2.34515 -0.0632036 0
M  V30 31882 C 2934.48 1.57274 0.744369 0
M  V30 31883 O 2935.65 1.89665 0.677442 0
M  V30 31884 C 2932.72 3.36173 0.847855 0
M  V30 31885 C 2931.78 4.29289 0.0302901 0
M  V30 31886 C 2931.01 5.26092 0.897959 0
M  V30 31887 O 2931.23 5.28848 2.1372 0
M  V30 31888 O 2930.17 6.00955 0.337223 0
M  V30 31889 H 2933.99 2.91877 -0.839129 0
M  V30 31890 H 2931.58 1.41629 -0.475552 0
M  V30 31891 H 2933.46 3.98518 1.36973 0
M  V30 31892 H 2932.14 2.81225 1.60294 0
M  V30 31893 H 2931.04 3.70231 -0.536638 0
M  V30 31894 H 2932.38 4.87388 -0.68656 0
M  V30 31895 N 2934.03 0.461222 1.507 0
M  V30 31896 C 2935.44 0.00373509 1.867 0
M  V30 31897 C 2935.79 -1.39785 1.37676 0
M  V30 31898 O 2934.92 -2.03443 0.737551 0
M  V30 31899 C 2935.51 1.97394e-06 3.388 0
M  V30 31900 C 2934.07 -0.401978 3.74247 0
M  V30 31901 C 2933.22 0.3897 2.74548 0
M  V30 31902 H 2936.17 0.675967 1.43584 0
M  V30 31903 H 2936.19 -0.804348 3.71901 0
M  V30 31904 H 2935.7 1.02022 3.74451 0
M  V30 31905 H 2933.8 -1.42691 3.44195 0
M  V30 31906 H 2933.91 -0.11018 4.78973 0
M  V30 31907 H 2932.28 -0.155269 2.54226 0
M  V30 31908 H 2933.06 1.40924 3.13042 0
M  V30 31909 N 2935.51 -1.56408 0.193449 0
M  V30 31910 C 2936.42 -2.22621 -0.740073 0
M  V30 31911 C 2937.43 -1.22476 -1.23594 0
M  V30 31912 O 2938.61 -1.55208 -1.28345 0
M  V30 31913 C 2935.67 -2.8713 -1.94312 0
M  V30 31914 C 2934.73 -4.0254 -1.49198 0
M  V30 31915 C 2933.97 -4.63964 -2.63768 0
M  V30 31916 O 2934.19 -4.24308 -3.81208 0
M  V30 31917 O 2933.12 -5.53458 -2.36575 0
M  V30 31918 H 2936.95 -3.02999 -0.206184 0
M  V30 31919 H 2934.54 -1.49357 -0.0357676 0
M  V30 31920 H 2936.42 -3.27949 -2.64627 0
M  V30 31921 H 2935.09 -2.09732 -2.46564 0
M  V30 31922 H 2934 -3.66347 -0.757673 0
M  V30 31923 H 2935.33 -4.81597 -1.01614 0
M  V30 31924 N 2936.98 0.0801629 -1.57396 0
M  V30 31925 C 2938.23 0.779351 -1.86469 0
M  V30 31926 C 2938.55 1.78533 -0.784274 0
M  V30 31927 O 2937.82 1.94996 0.187952 0
M  V30 31928 H 2936.4 0.290818 -0.688065 0
M  V30 31929 H 2939.07 0.0582406 -1.94813 0
M  V30 31930 H 2938.16 1.30073 -2.83703 0
M  V30 31931 N 2938.46 1.53634 0.351355 0
M  V30 31932 C 2939.69 1.74741 1.11715 0
M  V30 31933 C 2940.11 0.481688 1.81828 0
M  V30 31934 O 2939.47 -0.565202 1.72265 0
M  V30 31935 C 2939.52 2.92258 2.11229 0
M  V30 31936 O 2938.62 2.6186 3.18595 0
M  V30 31937 H 2937.96 0.579881 0.323472 0
M  V30 31938 H 2940.49 2.00569 0.404132 0
M  V30 31939 H 2940.5 3.18826 2.54585 0
M  V30 31940 H 2939.18 3.84061 1.59593 0
M  V30 31941 H 2937.76 2.46155 2.80111 0
M  V30 31942 N 2939.94 -0.611943 1.45234 0
M  V30 31943 C 2941.35 -1.19384 1.43542 0
M  V30 31944 C 2941.7 -1.9554 0.160747 0
M  V30 31945 O 2940.83 -2.0343 -0.737919 0
M  V30 31946 C 2941.42 -2.17164 2.60049 0
M  V30 31947 C 2939.98 -2.70739 2.6149 0
M  V30 31948 C 2939.13 -1.46068 2.3571 0
M  V30 31949 H 2942.08 -0.401502 1.53537 0
M  V30 31950 H 2942.1 -3.0012 2.33898 0
M  V30 31951 H 2941.61 -1.61708 3.52806 0
M  V30 31952 H 2939.71 -3.30146 1.72727 0
M  V30 31953 H 2939.83 -3.15469 3.60577 0
M  V30 31954 H 2938.19 -1.74872 1.85181 0
M  V30 31955 H 2938.97 -0.924864 3.30607 0
M  V30 31956 N 2941.42 -1.32452 -0.854063 0
M  V30 31957 C 2942.83 -1.20714 -1.42425 0
M  V30 31958 C 2943.18 0.180096 -1.95372 0
M  V30 31959 O 2942.31 1.07886 -1.87589 0
M  V30 31960 C 2942.9 -2.1854 -2.58893 0
M  V30 31961 C 2941.46 -2.10688 -3.11909 0
M  V30 31962 C 2940.61 -2.06874 -1.84658 0
M  V30 31963 H 2943.56 -1.44272 -0.661167 0
M  V30 31964 H 2943.58 -1.78428 -3.36071 0
M  V30 31965 H 2943.09 -3.19496 -2.20327 0
M  V30 31966 H 2941.19 -1.12983 -3.55057 0
M  V30 31967 H 2941.3 -3.00538 -3.73113 0
M  V30 31968 H 2939.67 -1.52122 -2.04282 0
M  V30 31969 H 2940.45 -3.09612 -1.48308 0
M  V30 31970 N 2942.9 1.07041 -1.15672 0
M  V30 31971 C 2943.86 2.12497 -0.858943 0
M  V30 31972 C 2944.86 1.60165 0.142707 0
M  V30 31973 O 2946.05 1.73981 -0.0872984 0
M  V30 31974 C 2943.18 3.39723 -0.28308 0
M  V30 31975 H 2944.38 2.40345 -1.79372 0
M  V30 31976 H 2941.93 1.22982 -0.964629 0
M  V30 31977 H 2942.66 3.17518 0.65974 0
M  V30 31978 H 2942.45 3.79009 -1.00473 0
M  V30 31979 H 2943.94 4.17498 -0.0924277 0
M  V30 31980 N 2944.38 0.954014 1.25445 0
M  V30 31981 C 2945.33 0.444452 2.23626 0
M  V30 31982 C 2946.31 -0.465966 1.54005 0
M  V30 31983 O 2947.5 -0.299119 1.74454 0
M  V30 31984 C 2944.63 -0.277115 3.4218 0
M  V30 31985 C 2943.72 0.651337 4.19069 0
M  V30 31986 N 2944.11 1.78271 4.73343 0
M  V30 31987 C 2942.41 0.459416 4.43628 0
M  V30 31988 C 2943.11 2.36233 5.31572 0
M  V30 31989 N 2942.08 1.64893 5.17988 0
M  V30 31990 H 2945.88 1.3079 2.63194 0
M  V30 31991 H 2943.4 0.811427 1.40676 0
M  V30 31992 H 2945.4 -0.659294 4.11654 0
M  V30 31993 H 2944.06 -1.13717 3.04136 0
M  V30 31994 H 2945.07 2.16458 4.70496 0
M  V30 31995 H 2941.74 -0.357812 4.15964 0
M  V30 31996 H 2943.13 3.3163 5.84355 0
M  V30 31997 N 2945.85 -1.40063 0.722513 0
M  V30 31998 C 2947.26 -1.83642 0.336539 0
M  V30 31999 C 2947.62 -1.60392 -1.12999 0
M  V30 32000 O 2946.74 -1.08845 -1.87034 0
M  V30 32001 C 2947.34 -3.33372 0.604044 0
M  V30 32002 C 2945.89 -3.75418 0.271703 0
M  V30 32003 C 2945.04 -2.63201 0.872945 0
M  V30 32004 H 2947.99 -1.29232 0.921131 0
M  V30 32005 H 2948.01 -3.80283 -0.128404 0
M  V30 32006 H 2947.53 -3.50262 1.67147 0
M  V30 32007 H 2945.63 -3.6412 -0.790391 0
M  V30 32008 H 2945.74 -4.73264 0.74554 0
M  V30 32009 H 2944.1 -2.52921 0.300475 0
M  V30 32010 H 2944.89 -2.82901 1.94478 0
M  V30 32011 N 2947.33 -0.469207 -1.50453 0
M  V30 32012 C 2948.26 0.362207 -2.2632 0
M  V30 32013 C 2949.28 0.958728 -1.31576 0
M  V30 32014 O 2950.47 0.847454 -1.571 0
M  V30 32015 C 2947.57 1.52181 -3.0281 0
M  V30 32016 C 2946.74 1.03842 -4.24895 0
M  V30 32017 C 2945.8 2.07186 -4.83695 0
M  V30 32018 O 2944.82 1.65324 -5.44662 0
M  V30 32019 N 2946.03 3.39977 -4.70528 0
M  V30 32020 H 2948.79 -0.288177 -2.98311 0
M  V30 32021 H 2946.35 -0.299884 -1.59098 0
M  V30 32022 H 2948.34 2.21005 -3.39026 0
M  V30 32023 H 2946.91 2.07693 -2.33629 0
M  V30 32024 H 2946.13 0.176134 -3.93806 0
M  V30 32025 H 2947.42 0.693346 -5.04054 0
M  V30 32026 H 2946.82 3.76698 -4.22037 0
M  V30 32027 H 2945.38 4.04603 -5.11018 0
M  V30 32028 O 2948.85 1.57813 -0.343136 0
M  V30 32029 H 2949.54 1.92531 0.212448 0
M  V30 END ATOM
M  V30 BEGIN BOND
M  V30 END BOND
M  V30 END CTAB
M  END
$$$$
