drugbank_target|P0A9S1 Lactaldehyde reductase (DB02059)
 OpenBabel12092120033D

  0  0  0     0  0            999 V3000
M  V30 BEGIN CTAB
M  V30 COUNTS 5688 5742 0 0 0
M  V30 BEGIN ATOM
M  V30 1 H -0.908 1.98254 -0.117106 0
M  V30 2 N 0 1.576 0 0
M  V30 3 C 0.933 2.03868 1.02534 0
M  V30 4 C 1.911 0.928543 1.3348 0
M  V30 5 O 3.095 1.19667 1.45644 0
M  V30 6 C 0.222 2.43627 2.35294 0
M  V30 7 C -0.732 3.65373 2.2001 0
M  V30 8 S 0.101 5.13292 1.52614 0
M  V30 9 C 1.257 5.56322 2.86805 0
M  V30 10 H 1.49 2.90518 0.631377 0
M  V30 11 H -0.977 1.52953 0.210867 0
M  V30 12 H 0.981 2.67203 3.11629 0
M  V30 13 H -0.358 1.57376 2.7183 0
M  V30 14 H -1.165 3.90944 3.18086 0
M  V30 15 H -1.563 3.418 1.51819 0
M  V30 16 H 0.729 5.58782 3.83104 0
M  V30 17 H 1.672 6.56266 2.65933 0
M  V30 18 H 2.08 4.83886 2.90714 0
M  V30 19 N 1.4781 -0.272755 1.55222 0
M  V30 20 C 2.4411 -1.32041 1.87344 0
M  V30 21 C 3.4411 -1.42342 0.74803 0
M  V30 22 O 4.6311 -1.41488 1.0162 0
M  V30 23 C 1.7631 -2.70173 2.07893 0
M  V30 24 H 2.9561 -1.04789 2.80997 0
M  V30 25 H 0.5091 -0.51083 1.47717 0
M  V30 26 H 1.2441 -3.02605 1.16622 0
M  V30 27 H 1.0291 -2.64082 2.89833 0
M  V30 28 H 2.5191 -3.45869 2.34017 0
M  V30 29 N 2.9562 -1.48159 -0.537278 0
M  V30 30 C 3.9042 -1.62573 -1.66352 0
M  V30 31 C 4.8982 -0.492366 -1.62087 0
M  V30 32 O 6.1042 -0.670847 -1.67032 0
M  V30 33 H 2.4792 -0.511992 -0.550789 0
M  V30 34 H 4.4502 -2.57176 -1.51337 0
M  V30 35 C 3.1992 -1.67583 -3.04649 0
M  V30 36 H 2.5222 -2.54151 -3.08622 0
M  V30 37 H 3.9622 -1.81713 -3.83088 0
M  V30 38 C 2.4212 -0.413039 -3.34358 0
M  V30 39 O 2.9512 0.477259 -3.98855 0
M  V30 40 N 1.1572 -0.286961 -2.8918 0
M  V30 41 H 0.7042 -1.01241 -2.36871 0
M  V30 42 H 0.6622 0.556963 -3.09427 0
M  V30 43 N 4.4343 0.785586 -1.36625 0
M  V30 44 C 5.8503 1.08419 -1.17122 0
M  V30 45 C 6.0503 2.015 0.00208491 0
M  V30 46 O 5.1063 2.43551 0.666278 0
M  V30 47 C 6.4193 1.69498 -2.48377 0
M  V30 48 C 7.9673 1.81821 -2.54775 0
M  V30 49 C 8.4423 2.46315 -3.86126 0
M  V30 50 N 9.9333 2.53779 -3.87492 0
M  V30 51 C 10.6683 3.045 -4.85868 0
M  V30 52 N 10.1643 3.55499 -5.94637 0
M  V30 53 N 11.9573 3.03247 -4.73284 0
M  V30 54 H 4.1083 0.167264 -2.1174 0
M  V30 55 H 6.3713 0.13682 -0.938075 0
M  V30 56 H 6.0773 1.08571 -3.34522 0
M  V30 57 H 5.9513 2.6896 -2.64462 0
M  V30 58 H 8.3383 2.41884 -1.69045 0
M  V30 59 H 8.4193 0.811532 -2.42586 0
M  V30 60 H 8.0633 1.86895 -4.72263 0
M  V30 61 H 7.9933 3.47561 -3.95612 0
M  V30 62 H 10.4843 2.17672 -3.08913 0
M  V30 63 H 10.7973 3.92562 -6.65669 0
M  V30 64 H 9.1423 3.5364 -5.98301 0
M  V30 65 H 12.3333 2.62696 -3.87438 0
M  V30 66 H 12.5063 3.42467 -5.50109 0
M  V30 67 N 5.9124 1.20967 1.01018 0
M  V30 68 C 6.8454 0.907578 2.09376 0
M  V30 69 C 7.8234 -0.142868 1.61971 0
M  V30 70 O 9.0074 -0.0150391 1.88494 0
M  V30 71 C 6.1344 0.361791 3.36762 0
M  V30 72 C 5.1804 1.39423 4.03068 0
M  V30 73 S 6.0134 2.96159 4.4615 0
M  V30 74 C 7.1694 2.43173 5.7673 0
M  V30 75 H 7.4024 1.82519 2.34678 0
M  V30 76 H 4.9354 1.03884 1.14225 0
M  V30 77 H 6.8934 0.0534523 4.10465 0
M  V30 78 H 5.5544 -0.53443 3.0952 0
M  V30 79 H 4.7474 0.961853 4.94737 0
M  V30 80 H 4.3494 1.65038 3.35617 0
M  V30 81 H 6.6414 1.83335 6.52223 0
M  V30 82 H 7.5844 3.33264 6.24773 0
M  V30 83 H 7.9924 1.85069 5.33301 0
M  V30 84 N 7.3905 -1.2043 1.01659 0
M  V30 85 C 8.6395 -1.89118 0.701237 0
M  V30 86 C 8.9525 -1.79705 -0.772358 0
M  V30 87 O 10.1585 -2.43528 -1.20026 0
M  V30 88 C 8.6145 -3.39168 1.20388 0
M  V30 89 C 8.2225 -3.57166 2.70438 0
M  V30 90 C 9.9665 -4.1341 0.963953 0
M  V30 91 C 7.8735 -5.01042 3.14183 0
M  V30 92 H 6.8035 -0.708267 0.2586 0
M  V30 93 H 9.4545 -1.36239 1.22927 0
M  V30 94 H 7.8365 -3.91369 0.603824 0
M  V30 95 H 9.0105 -3.15351 3.35992 0
M  V30 96 H 7.3255 -2.96294 2.92572 0
M  V30 97 H 9.9225 -5.19491 1.26621 0
M  V30 98 H 10.2655 -4.16181 -0.099578 0
M  V30 99 H 10.7985 -3.67309 1.52738 0
M  V30 100 H 7.5375 -5.03426 4.19812 0
M  V30 101 H 7.0575 -5.43668 2.53348 0
M  V30 102 H 8.7365 -5.69623 3.0682 0
M  V30 103 N 8.8686 -0.792821 -1.36206 0
M  V30 104 C 9.7986 -0.207853 -2.32573 0
M  V30 105 C 10.7796 0.659055 -1.56813 0
M  V30 106 O 11.9646 0.592176 -1.84951 0
M  V30 107 C 9.0946 0.655449 -3.41059 0
M  V30 108 C 8.0486 -0.111842 -4.27854 0
M  V30 109 C 7.3746 0.872274 -5.27537 0
M  V30 110 C 8.6746 -1.30299 -5.05786 0
M  V30 111 H 10.3686 -1.01294 -2.81744 0
M  V30 112 H 7.9146 -0.48854 -1.3546 0
M  V30 113 H 9.8676 1.07464 -4.07467 0
M  V30 114 H 8.5916 1.49328 -2.90463 0
M  V30 115 H 7.2506 -0.512053 -3.63006 0
M  V30 116 H 6.8986 1.70523 -4.73214 0
M  V30 117 H 6.5986 0.363291 -5.86476 0
M  V30 118 H 8.1226 1.28996 -5.96818 0
M  V30 119 H 9.5366 -0.959379 -5.65216 0
M  V30 120 H 7.9336 -1.7455 -5.74154 0
M  V30 121 H 9.0036 -2.09663 -4.37229 0
M  V30 122 N 10.3467 1.47872 -0.545128 0
M  V30 123 C 11.2947 2.31533 0.222512 0
M  V30 124 C 12.2887 1.42177 0.920985 0
M  V30 125 O 13.4947 1.59005 0.843645 0
M  V30 126 H 9.8697 0.746519 0.0906278 0
M  V30 127 H 11.8407 2.94139 -0.50246 0
M  V30 128 C 10.5897 3.2457 1.24699 0
M  V30 129 H 9.9127 3.93283 0.718944 0
M  V30 130 H 11.3527 3.85963 1.75523 0
M  V30 131 C 9.8117 2.47237 2.28856 0
M  V30 132 O 10.3417 2.20808 3.35569 0
M  V30 133 N 8.5477 2.08461 2.02466 0
M  V30 134 H 8.0947 2.30155 1.157 0
M  V30 135 H 8.0527 1.57033 2.72375 0
M  V30 136 N 11.8248 0.280983 1.55075 0
M  V30 137 C 12.7348 -0.61388 2.26426 0
M  V30 138 C 13.7508 -1.16521 1.29224 0
M  V30 139 O 14.9268 -1.19426 1.62171 0
M  V30 140 C 11.9918 -1.7788 2.9759 0
M  V30 141 C 11.0528 -1.26355 4.10284 0
M  V30 142 C 10.2858 -2.37295 4.78045 0
M  V30 143 O 10.5088 -3.56777 4.45047 0
M  V30 144 O 9.4428 -2.05119 5.65871 0
M  V30 145 H 13.2688 -0.0356932 3.03679 0
M  V30 146 H 10.8538 0.0481686 1.49322 0
M  V30 147 H 12.7358 -2.45791 3.42293 0
M  V30 148 H 11.4108 -2.34397 2.23249 0
M  V30 149 H 10.3178 -0.550735 3.70024 0
M  V30 150 H 11.6508 -0.744065 4.86543 0
M  V30 151 N 13.3029 -1.57598 0.00835791 0
M  V30 152 C 14.5309 -1.95214 -0.68549 0
M  V30 153 C 14.9459 -0.883706 -1.66841 0
M  V30 154 O 14.3029 0.136565 -1.81988 0
M  V30 155 C 14.3539 -3.32865 -1.41007 0
M  V30 156 O 14.0749 -4.35609 -0.466552 0
M  V30 157 C 15.5759 -3.84991 -2.19765 0
M  V30 158 H 12.7959 -0.643422 -0.190392 0
M  V30 159 H 15.3399 -2.04406 0.0619607 0
M  V30 160 H 13.4949 -3.24956 -2.10908 0
M  V30 161 H 13.9089 -5.15288 -0.978699 0
M  V30 162 H 15.3829 -4.8371 -2.65948 0
M  V30 163 H 15.8599 -3.18137 -3.02796 0
M  V30 164 H 16.4659 -3.96103 -1.54864 0
M  V30 165 N 14.781 0.264519 -1.55364 0
M  V30 166 C 15.744 1.31046 -1.88042 0
M  V30 167 C 16.744 1.41943 -0.755569 0
M  V30 168 O 17.934 1.40947 -1.02369 0
M  V30 169 C 15.066 2.69067 -2.09323 0
M  V30 170 H 16.259 1.03297 -2.81549 0
M  V30 171 H 13.812 0.502989 -1.47986 0
M  V30 172 H 14.547 3.01982 -1.18226 0
M  V30 173 H 14.332 2.62542 -2.91229 0
M  V30 174 H 15.822 3.44623 -2.35848 0
M  V30 175 N 16.2591 1.48442 0.529413 0
M  V30 176 C 17.5051 1.57699 1.28463 0
M  V30 177 C 17.8601 0.247913 1.90796 0
M  V30 178 O 17.1531 -0.749279 1.76342 0
M  V30 179 C 17.3471 2.6523 2.39558 0
M  V30 180 C 17.1761 4.08464 1.88114 0
M  V30 181 C 15.9461 4.75596 1.70693 0
M  V30 182 C 18.1441 4.94613 1.40935 0
M  V30 183 N 16.1261 6.03245 1.13881 0
M  V30 184 C 17.4971 6.12511 0.960734 0
M  V30 185 C 19.5521 4.80833 1.29243 0
M  V30 186 C 18.2551 7.18149 0.406792 0
M  V30 187 C 20.2811 5.86593 0.752487 0
M  V30 188 C 19.6431 7.037 0.313946 0
M  V30 189 H 15.7421 0.631608 0.46108 0
M  V30 190 H 18.3261 1.85325 0.596886 0
M  V30 191 H 16.4971 2.39425 3.05827 0
M  V30 192 H 18.2291 2.64169 3.06589 0
M  V30 193 H 14.9841 4.31938 1.94232 0
M  V30 194 H 15.4081 6.71324 0.874831 0
M  V30 195 H 20.0501 3.90635 1.61754 0
M  V30 196 H 17.7681 8.0807 0.0693671 0
M  V30 197 H 21.3541 5.77985 0.665192 0
M  V30 198 H 20.2341 7.8414 -0.0973632 0
M  V30 199 N 17.7372 -0.778329 1.37039 0
M  V30 200 C 18.9842 -1.53665 1.31884 0
M  V30 201 C 19.3122 -1.9425 -0.0986303 0
M  V30 202 O 18.5672 -1.63832 -1.07041 0
M  V30 203 C 18.8662 -2.81845 2.19768 0
M  V30 204 C 18.5322 -2.60345 3.68146 0
M  V30 205 C 17.1942 -2.5419 4.08584 0
M  V30 206 C 19.5462 -2.40923 4.62175 0
M  V30 207 C 16.8742 -2.26594 5.41177 0
M  V30 208 C 19.2262 -2.14852 5.94997 0
M  V30 209 C 17.8902 -2.07137 6.34547 0
M  V30 210 H 17.1602 -0.562299 0.482598 0
M  V30 211 H 19.8072 -0.897069 1.69189 0
M  V30 212 H 18.1122 -3.50328 1.75436 0
M  V30 213 H 19.8092 -3.39692 2.13097 0
M  V30 214 H 16.3992 -2.65996 3.36072 0
M  V30 215 H 20.5832 -2.44673 4.31797 0
M  V30 216 H 15.8392 -2.19111 5.70789 0
M  V30 217 H 20.0132 -1.98822 6.67415 0
M  V30 218 H 17.6402 -1.85518 7.37216 0
M  V30 219 N 19.2153 -1.21501 -1.00376 0
M  V30 220 C 20.4633 -1.03095 -1.73827 0
M  V30 221 C 20.7843 0.436341 -1.90055 0
M  V30 222 O 20.0543 1.31466 -1.45236 0
M  V30 223 H 18.6343 -0.378487 -0.644016 0
M  V30 224 H 21.2963 -1.52831 -1.20949 0
M  V30 225 H 20.3923 -1.49991 -2.73695 0
M  V30 226 N 20.6934 1.19889 -1.02296 0
M  V30 227 C 22.1094 1.41462 -0.738954 0
M  V30 228 C 22.3094 1.89721 0.678846 0
M  V30 229 O 21.3654 2.07016 1.4457 0
M  V30 230 C 22.6784 2.43083 -1.77005 0
M  V30 231 C 24.2264 2.5684 -1.78892 0
M  V30 232 C 24.7014 3.61709 -2.80945 0
M  V30 233 N 26.1924 3.69199 -2.79725 0
M  V30 234 C 26.9274 4.50019 -3.55345 0
M  V30 235 N 26.4234 5.34592 -4.40662 0
M  V30 236 N 28.2164 4.44612 -3.43914 0
M  V30 237 H 20.3674 0.868827 -1.93817 0
M  V30 238 H 22.6304 0.44399 -0.837602 0
M  V30 239 H 22.3364 2.14636 -2.78612 0
M  V30 240 H 22.2104 3.4217 -1.58744 0
M  V30 241 H 24.5974 2.84614 -0.779674 0
M  V30 242 H 24.6784 1.57927 -2.01228 0
M  V30 243 H 24.3224 3.34678 -3.82038 0
M  V30 244 H 24.2524 4.60259 -2.5587 0
M  V30 245 H 26.7434 3.08794 -2.17842 0
M  V30 246 H 27.0564 5.93363 -4.95116 0
M  V30 247 H 25.4014 5.34073 -4.44737 0
M  V30 248 H 28.5924 3.7758 -2.76679 0
M  V30 249 H 28.7654 5.0736 -4.031 0
M  V30 250 N 22.1715 0.800033 1.35784 0
M  V30 251 C 23.4195 0.376597 1.9856 0
M  V30 252 C 23.7405 -1.05812 1.63795 0
M  V30 253 O 23.0105 -1.73103 0.917171 0
M  V30 254 H 21.5905 0.136261 0.734467 0
M  V30 255 H 24.2525 1.02442 1.65806 0
M  V30 256 H 23.3485 0.477002 3.08433 0
M  V30 257 N 23.6496 -1.47581 0.552962 0
M  V30 258 C 24.6126 -2.28439 -0.186605 0
M  V30 259 C 25.6126 -1.36706 -0.84665 0
M  V30 260 O 26.8026 -1.59378 -0.703164 0
M  V30 261 C 23.9346 -3.16264 -1.2724 0
M  V30 262 H 25.1276 -2.95294 0.523609 0
M  V30 263 H 22.6806 -1.532 0.309745 0
M  V30 264 H 23.4156 -2.54091 -2.01514 0
M  V30 265 H 23.2006 -3.83769 -0.803968 0
M  V30 266 H 24.6906 -3.77198 -1.79196 0
M  V30 267 N 25.1277 -0.289203 -1.54924 0
M  V30 268 C 26.3737 0.323998 -2.00195 0
M  V30 269 C 26.7067 1.54441 -1.17735 0
M  V30 270 O 25.9817 1.92875 -0.250878 0
M  V30 271 C 26.2647 0.692276 -3.53383 0
M  V30 272 C 26.1177 -0.536457 -4.46589 0
M  V30 273 C 27.4367 1.52335 -4.12895 0
M  V30 274 H 24.5557 0.116289 -0.727768 0
M  V30 275 H 27.1977 -0.398954 -1.85764 0
M  V30 276 H 25.3477 1.30822 -3.65811 0
M  V30 277 H 27.0197 -1.17499 -4.46085 0
M  V30 278 H 25.2627 -1.17192 -4.1767 0
M  V30 279 H 25.9337 -0.234806 -5.515 0
M  V30 280 H 28.4097 1.00302 -4.0383 0
M  V30 281 H 27.2857 1.74982 -5.20262 0
M  V30 282 H 27.5467 2.50886 -3.64018 0
M  V30 283 N 26.6058 1.57591 -0.0167156 0
M  V30 284 C 27.8538 1.90906 0.663285 0
M  V30 285 C 28.1748 0.892509 1.73376 0
M  V30 286 O 27.4448 -0.0677623 1.95783 0
M  V30 287 H 26.0248 0.704637 0.247983 0
M  V30 288 H 28.6868 1.94803 -0.0615909 0
M  V30 289 H 27.7828 2.9116 1.12393 0
M  V30 290 N 28.0839 -0.256276 1.55502 0
M  V30 291 C 29.0469 -1.30047 1.88734 0
M  V30 292 C 30.0469 -1.4154 0.763086 0
M  V30 293 O 31.2369 -1.40403 1.03115 0
M  V30 294 C 28.3689 -2.67953 2.10747 0
M  V30 295 H 29.5619 -1.01802 2.82093 0
M  V30 296 H 27.1149 -0.495134 1.4825 0
M  V30 297 H 27.8499 -3.01351 1.19825 0
M  V30 298 H 27.6349 -2.60993 2.92617 0
M  V30 299 H 29.1249 -3.43368 2.37673 0
M  V30 300 N 29.562 -1.4872 -0.521534 0
M  V30 301 C 30.492 -1.66771 -1.63431 0
M  V30 302 C 31.473 -0.516499 -1.62069 0
M  V30 303 O 32.658 -0.750013 -1.79132 0
M  V30 304 C 29.788 -1.71515 -3.01993 0
M  V30 305 C 28.742 -2.86222 -3.18216 0
M  V30 306 C 28.068 -2.76061 -4.57924 0
M  V30 307 C 29.368 -4.27419 -3.00184 0
M  V30 308 H 31.062 -2.59932 -1.48579 0
M  V30 309 H 28.608 -1.25089 -0.713358 0
M  V30 310 H 30.561 -1.82731 -3.7972 0
M  V30 311 H 29.285 -0.749393 -3.17886 0
M  V30 312 H 27.944 -2.74575 -2.42908 0
M  V30 313 H 27.592 -1.77437 -4.70665 0
M  V30 314 H 27.292 -3.53037 -4.69722 0
M  V30 315 H 28.816 -2.89256 -5.37739 0
M  V30 316 H 30.23 -4.39855 -3.67697 0
M  V30 317 H 28.627 -5.05458 -3.2347 0
M  V30 318 H 29.697 -4.43293 -1.96518 0
M  V30 319 N 31.0401 0.771051 -1.3745 0
M  V30 320 C 32.2681 1.56015 -1.35893 0
M  V30 321 C 32.6831 1.88718 0.0555523 0
M  V30 322 O 32.0401 1.51502 1.01752 0
M  V30 323 C 32.0911 2.87001 -2.19801 0
M  V30 324 O 31.8121 2.557 -3.55738 0
M  V30 325 C 33.3131 3.81228 -2.26231 0
M  V30 326 H 30.5331 0.483317 -0.465453 0
M  V30 327 H 33.0771 0.955611 -1.80799 0
M  V30 328 H 31.2321 3.43877 -1.78402 0
M  V30 329 H 31.6461 3.39584 -3.99729 0
M  V30 330 H 33.1201 4.70139 -2.89263 0
M  V30 331 H 33.5971 4.20409 -1.27093 0
M  V30 332 H 34.2031 3.30281 -2.67945 0
M  V30 333 N 32.5182 1.22032 0.997298 0
M  V30 334 C 33.7952 0.950823 1.70935 0
M  V30 335 C 34.1752 -0.535292 2.042 0
M  V30 336 O 33.5232 -1.50217 1.72183 0
M  V30 337 C 33.7332 1.84386 2.96315 0
M  V30 338 C 35.0812 2.09732 3.69185 0
M  V30 339 O 36.1052 1.81798 3.06314 0
M  V30 340 O 34.9642 2.57018 4.82291 0
M  V30 341 H 32.0582 0.357204 0.745878 0
M  V30 342 H 34.6042 1.32997 1.05404 0
M  V30 343 H 33.3762 2.84928 2.68201 0
M  V30 344 H 32.9992 1.46602 3.69586 0
M  V30 345 N 33.9963 -1.19345 1.0293 0
M  V30 346 C 34.9063 -2.26245 0.620515 0
M  V30 347 C 35.9223 -1.70486 -0.347928 0
M  V30 348 O 37.0983 -2.00347 -0.205704 0
M  V30 349 C 34.1633 -3.46693 -0.0218957 0
M  V30 350 C 33.2243 -4.17632 0.994102 0
M  V30 351 C 32.4573 -5.32329 0.382253 0
M  V30 352 O 32.6803 -5.64552 -0.814676 0
M  V30 353 O 31.6143 -5.91664 1.10531 0
M  V30 354 H 35.4403 -2.63453 1.51083 0
M  V30 355 H 33.0253 -1.26207 0.799513 0
M  V30 356 H 34.9073 -4.19683 -0.380072 0
M  V30 357 H 33.5823 -3.11333 -0.886209 0
M  V30 358 H 32.4893 -3.4676 1.40387 0
M  V30 359 H 33.8223 -4.56964 1.8288 0
M  V30 360 N 35.4744 -0.807222 -1.35358 0
M  V30 361 C 36.7204 -0.388463 -1.99045 0
M  V30 362 C 37.0534 1.04184 -1.63888 0
M  V30 363 O 36.3284 1.72292 -0.902535 0
M  V30 364 C 36.6114 -0.572783 -3.55515 0
M  V30 365 C 36.4644 -2.04807 -4.00468 0
M  V30 366 C 37.7834 0.00114064 -4.401 0
M  V30 367 H 34.9024 -0.142619 -0.723069 0
M  V30 368 H 37.5444 -1.01687 -1.60498 0
M  V30 369 H 35.6944 -0.0378425 -3.88482 0
M  V30 370 H 37.3664 -2.64544 -3.77908 0
M  V30 371 H 35.6094 -2.54427 -3.51353 0
M  V30 372 H 36.2804 -2.12792 -5.09337 0
M  V30 373 H 38.7564 -0.455716 -4.13597 0
M  V30 374 H 37.6324 -0.157737 -5.48673 0
M  V30 375 H 37.8934 1.09488 -4.28328 0
M  V30 376 N 36.9525 1.47285 -0.560781 0
M  V30 377 C 37.8995 2.30058 0.18491 0
M  V30 378 C 38.8695 1.39281 0.904986 0
M  V30 379 O 40.0545 1.68241 0.899979 0
M  V30 380 C 37.1945 3.23317 1.20666 0
M  V30 381 C 36.3075 4.29186 0.492285 0
M  V30 382 C 35.4425 5.09592 1.49964 0
M  V30 383 C 34.4815 6.07232 0.770439 0
M  V30 384 N 33.6185 6.80584 1.72479 0
M  V30 385 H 38.4585 2.93302 -0.527048 0
M  V30 386 H 35.9955 1.44568 -0.271738 0
M  V30 387 H 37.9535 3.75811 1.81168 0
M  V30 388 H 36.5835 2.61929 1.88661 0
M  V30 389 H 35.6355 3.7972 -0.227333 0
M  V30 390 H 36.9475 4.98738 -0.0787929 0
M  V30 391 H 36.1015 5.66254 2.17809 0
M  V30 392 H 34.8405 4.3995 2.10464 0
M  V30 393 H 33.8455 5.49745 0.0780846 0
M  V30 394 H 35.0705 6.78884 0.171134 0
M  V30 395 H 33.0165 6.1367 2.3183 0
M  V30 396 H 32.9335 7.46319 1.20596 0
M  V30 397 H 34.2015 7.41818 2.39428 0
M  V30 398 N 38.4306 0.297415 1.54768 0
M  V30 399 C 39.8466 -0.0560823 1.59501 0
M  V30 400 C 40.0466 -1.52725 1.31444 0
M  V30 401 O 39.1026 -2.27947 1.08611 0
M  V30 402 C 40.4156 0.338631 2.98787 0
M  V30 403 C 41.9636 0.287097 3.11681 0
M  V30 404 C 42.4386 0.656579 4.53269 0
M  V30 405 N 43.9296 0.608977 4.59179 0
M  V30 406 C 44.6646 0.867385 5.66802 0
M  V30 407 N 44.1606 1.19157 6.82476 0
M  V30 408 N 45.9536 0.794687 5.56454 0
M  V30 409 H 38.1046 1.25624 1.71267 0
M  V30 410 H 40.3676 0.509057 0.799728 0
M  V30 411 H 40.0736 1.36263 3.2423 0
M  V30 412 H 39.9476 -0.309508 3.75928 0
M  V30 413 H 42.3346 -0.727649 2.85988 0
M  V30 414 H 42.4156 0.969809 2.36703 0
M  V30 415 H 42.0596 1.66912 4.7969 0
M  V30 416 H 41.9896 -0.0481649 5.26578 0
M  V30 417 H 44.4806 0.369198 3.76092 0
M  V30 418 H 44.7936 1.37482 7.60473 0
M  V30 419 H 43.1386 1.22958 6.84037 0
M  V30 420 H 46.3296 0.541098 4.64962 0
M  V30 421 H 46.5026 0.999445 6.40246 0
M  V30 422 N 39.9087 -1.5758 0.0250728 0
M  V30 423 C 41.3247 -1.56124 -0.331282 0
M  V30 424 C 41.5247 -1.03029 -1.73169 0
M  V30 425 O 40.5807 -0.675215 -2.43305 0
M  V30 426 C 41.8937 -3.00139 -0.183584 0
M  V30 427 C 43.4417 -3.11946 -0.256654 0
M  V30 428 C 43.9167 -4.57793 -0.137792 0
M  V30 429 N 45.4077 -4.6279 -0.194904 0
M  V30 430 C 46.1427 -5.7326 -0.126655 0
M  V30 431 N 45.6387 -6.928 -0.00755288 0
M  V30 432 N 47.4317 -5.61811 -0.180348 0
M  V30 433 H 39.5827 -1.90424 0.94087 0
M  V30 434 H 41.8457 -0.875761 0.362968 0
M  V30 435 H 41.5517 -3.4292 0.780927 0
M  V30 436 H 41.4257 -3.64899 -0.955448 0
M  V30 437 H 43.8127 -2.69079 -1.21162 0
M  V30 438 H 43.8937 -2.49915 0.545517 0
M  V30 439 H 43.5377 -5.01339 0.813739 0
M  V30 440 H 43.4677 -5.17798 -0.958775 0
M  V30 441 H 45.9587 -3.76807 -0.287267 0
M  V30 442 H 46.2717 -7.72791 0.0379428 0
M  V30 443 H 44.6167 -6.94995 0.0271731 0
M  V30 444 H 47.8077 -4.6731 -0.271767 0
M  V30 445 H 47.9807 -6.47882 -0.123697 0
M  V30 446 N 41.3868 0.248026 -1.55636 0
M  V30 447 C 42.6348 0.974295 -1.77065 0
M  V30 448 C 42.9558 1.85897 -0.588849 0
M  V30 449 O 42.2258 1.91868 0.395407 0
M  V30 450 H 40.8058 0.362733 -0.653019 0
M  V30 451 H 43.4678 0.266244 -1.93073 0
M  V30 452 H 42.5638 1.59667 -2.68166 0
M  V30 453 N 42.8649 1.48995 0.513639 0
M  V30 454 C 44.0949 1.61297 1.291 0
M  V30 455 C 44.5029 0.278656 1.87137 0
M  V30 456 O 43.8459 -0.744325 1.67945 0
M  V30 457 C 43.9079 2.61326 2.46879 0
M  V30 458 C 43.5719 4.05993 2.09807 0
M  V30 459 C 44.5689 4.93183 1.64519 0
M  V30 460 C 42.2539 4.51642 2.19829 0
M  V30 461 C 44.2479 6.24056 1.2974 0
M  V30 462 C 41.9349 5.82532 1.84662 0
M  V30 463 C 42.9329 6.68562 1.3969 0
M  V30 464 O 42.6209 7.97014 1.04992 0
M  V30 465 H 42.3529 0.546236 0.39825 0
M  V30 466 H 44.9069 1.95673 0.62459 0
M  V30 467 H 43.1369 2.22104 3.16554 0
M  V30 468 H 44.8259 2.6329 3.08923 0
M  V30 469 H 45.5919 4.59147 1.56233 0
M  V30 470 H 41.4709 3.84855 2.53786 0
M  V30 471 H 45.0149 6.91161 0.945659 0
M  V30 472 H 40.9119 6.16099 1.92594 0
M  V30 473 H 41.6799 8.09913 1.18249 0
M  V30 474 N 44.343 -0.763751 1.37857 0
M  V30 475 C 45.275 -1.88664 1.30148 0
M  V30 476 C 46.288 -1.61365 0.215685 0
M  V30 477 O 47.477 -1.72134 0.472459 0
M  V30 478 C 44.577 -3.24075 0.991396 0
M  V30 479 C 43.75 -3.78958 2.18426 0
M  V30 480 C 42.809 -4.92862 1.8432 0
M  V30 481 O 41.835 -5.08027 2.56704 0
M  V30 482 N 43.037 -5.75071 0.792081 0
M  V30 483 H 45.802 -1.95791 2.26905 0
M  V30 484 H 43.363 -0.943226 1.31586 0
M  V30 485 H 45.355 -3.97804 0.743935 0
M  V30 486 H 43.925 -3.12399 0.112122 0
M  V30 487 H 43.145 -2.96913 2.59299 0
M  V30 488 H 44.433 -4.12357 2.98058 0
M  V30 489 H 43.831 -5.65375 0.191595 0
M  V30 490 H 42.388 -6.48991 0.60449 0
M  V30 491 N 45.8211 -1.22559 -0.990812 0
M  V30 492 C 46.7681 -0.997519 -2.0813 0
M  V30 493 C 47.7381 0.0814702 -1.659 0
M  V30 494 O 48.9231 -0.0685424 -1.90677 0
M  V30 495 C 46.0631 -0.583615 -3.40129 0
M  V30 496 C 45.1761 -1.7336 -3.9569 0
M  V30 497 C 44.3111 -1.26748 -5.15857 0
M  V30 498 C 43.3501 -2.38888 -5.63559 0
M  V30 499 N 42.4871 -1.93308 -6.74964 0
M  V30 500 H 47.3271 -1.93099 -2.26973 0
M  V30 501 H 44.8641 -0.962114 -1.11273 0
M  V30 502 H 46.8221 -0.324801 -4.15934 0
M  V30 503 H 45.4521 0.312845 -3.2128 0
M  V30 504 H 44.5041 -2.10669 -3.16738 0
M  V30 505 H 45.8161 -2.57704 -4.27071 0
M  V30 506 H 44.9701 -0.966173 -5.98957 0
M  V30 507 H 43.7091 -0.394272 -4.86104 0
M  V30 508 H 42.7141 -2.69805 -4.79046 0
M  V30 509 H 43.9391 -3.26728 -5.95336 0
M  V30 510 H 41.8851 -1.08352 -6.4699 0
M  V30 511 H 41.8021 -2.71217 -7.05675 0
M  V30 512 H 43.0701 -1.66252 -7.61564 0
M  V30 513 N 47.2992 1.18797 -1.03562 0
M  V30 514 C 48.2622 2.20464 -0.626769 0
M  V30 515 C 49.2622 1.57721 0.313173 0
M  V30 516 O 50.4522 1.73917 0.0992615 0
M  V30 517 C 47.5842 3.40802 0.0818498 0
M  V30 518 H 48.7772 2.58149 -1.5264 0
M  V30 519 H 46.3302 1.32593 -0.827578 0
M  V30 520 H 47.0652 3.08642 0.995518 0
M  V30 521 H 46.8502 3.8758 -0.593652 0
M  V30 522 H 48.3402 4.16092 0.354584 0
M  V30 523 N 48.7773 0.814389 1.34928 0
M  V30 524 C 49.7073 0.244827 2.32213 0
M  V30 525 C 50.6883 -0.634024 1.57842 0
M  V30 526 O 51.8733 -0.562676 1.8587 0
M  V30 527 C 49.0033 -0.601106 3.42058 0
M  V30 528 C 47.9573 0.179896 4.27622 0
M  V30 529 C 47.2833 -0.788237 5.28858 0
M  V30 530 C 48.5833 1.38329 5.03649 0
M  V30 531 H 50.2773 1.05763 2.80097 0
M  V30 532 H 47.8233 0.510029 1.34665 0
M  V30 533 H 49.7763 -1.00968 4.09125 0
M  V30 534 H 48.5003 -1.44688 2.92802 0
M  V30 535 H 47.1593 0.569739 3.62146 0
M  V30 536 H 46.8073 -1.62973 4.75866 0
M  V30 537 H 46.5073 -0.269942 5.8698 0
M  V30 538 H 48.0313 -1.19485 5.98795 0
M  V30 539 H 49.4453 1.04918 5.63618 0
M  V30 540 H 47.8423 1.83662 5.71304 0
M  V30 541 H 48.9123 2.16592 4.33839 0
M  V30 542 N 50.2554 -1.46986 0.568584 0
M  V30 543 C 51.5044 -2.01646 0.0465894 0
M  V30 544 C 51.8174 -1.44721 -1.31587 0
M  V30 545 O 53.0234 -1.91113 -1.92842 0
M  V30 546 C 51.4794 -3.59885 0.032752 0
M  V30 547 C 51.0874 -4.25804 1.39266 0
M  V30 548 C 52.8314 -4.22255 -0.436038 0
M  V30 549 C 50.7384 -5.76081 1.33732 0
M  V30 550 H 49.6684 -0.753876 0.013647 0
M  V30 551 H 52.3194 -1.68864 0.718131 0
M  V30 552 H 50.7014 -3.8968 -0.704669 0
M  V30 553 H 51.8754 -4.07637 2.1487 0
M  V30 554 H 50.1904 -3.7547 1.80032 0
M  V30 555 H 52.7874 -5.32394 -0.49602 0
M  V30 556 H 53.1304 -3.90212 -1.45053 0
M  V30 557 H 53.6634 -3.97033 0.246877 0
M  V30 558 H 50.4024 -6.12761 2.32817 0
M  V30 559 H 49.9224 -5.96553 0.623267 0
M  V30 560 H 51.6014 -6.38518 1.0442 0
M  V30 561 N 51.7335 -0.305618 -1.54608 0
M  V30 562 C 52.9795 0.302746 -2.00528 0
M  V30 563 C 53.3125 1.53184 -1.19367 0
M  V30 564 O 52.5875 1.92598 -0.271321 0
M  V30 565 C 52.8705 0.654756 -3.54097 0
M  V30 566 C 52.7235 -0.583793 -4.45995 0
M  V30 567 C 54.0425 1.47947 -4.14487 0
M  V30 568 H 51.1615 0.108564 -0.72896 0
M  V30 569 H 53.8035 -0.418634 -1.85331 0
M  V30 570 H 51.9535 1.26935 -3.67178 0
M  V30 571 H 53.6255 -1.22224 -4.44814 0
M  V30 572 H 51.8685 -1.21615 -4.16404 0
M  V30 573 H 52.5395 -0.293287 -5.5122 0
M  V30 574 H 55.0155 0.96013 -4.04871 0
M  V30 575 H 53.8915 1.69454 -5.22088 0
M  V30 576 H 54.1525 2.47011 -3.66658 0
M  V30 577 N 53.2116 1.57565 -0.0334293 0
M  V30 578 C 54.4396 1.9628 0.654347 0
M  V30 579 C 54.8546 0.910138 1.65414 0
M  V30 580 O 54.2116 -0.107595 1.82183 0
M  V30 581 C 54.2626 3.35067 1.35693 0
M  V30 582 O 53.9836 4.36296 0.397191 0
M  V30 583 C 55.4846 3.88439 2.13613 0
M  V30 584 H 52.7046 0.646369 0.180132 0
M  V30 585 H 55.2486 2.04282 -0.0944721 0
M  V30 586 H 53.4036 3.2827 2.05712 0
M  V30 587 H 53.8176 5.1678 0.896597 0
M  V30 588 H 55.2916 4.8788 2.58219 0
M  V30 589 H 55.7686 3.22914 2.97696 0
M  V30 590 H 56.3746 3.98516 1.48543 0
M  V30 591 N 54.6897 -0.239769 1.55765 0
M  V30 592 C 55.9667 -0.990056 1.68693 0
M  V30 593 C 56.3467 -2.03107 0.5754 0
M  V30 594 O 55.6947 -2.24604 -0.42017 0
M  V30 595 C 55.9047 -1.61696 3.09282 0
M  V30 596 C 57.2527 -2.11613 3.6811 0
M  V30 597 O 58.2767 -1.71624 3.12127 0
M  V30 598 O 57.1357 -2.85057 4.66267 0
M  V30 599 H 54.2297 -0.461299 0.686391 0
M  V30 600 H 56.7757 -0.232991 1.68093 0
M  V30 601 H 55.5477 -0.864357 3.81634 0
M  V30 602 H 55.1707 -2.44005 3.13923 0
M  V30 603 N 56.1678 -1.49265 -0.50573 0
M  V30 604 C 57.1148 -1.65585 -1.6078 0
M  V30 605 C 58.0848 -0.497396 -1.58478 0
M  V30 606 O 59.2698 -0.72385 -1.76536 0
M  V30 607 C 56.4098 -1.72408 -2.98948 0
M  V30 608 C 55.5228 -2.99525 -3.11301 0
M  V30 609 C 54.6578 -2.97356 -4.40174 0
M  V30 610 C 53.6968 -4.19074 -4.46143 0
M  V30 611 N 52.8338 -4.14841 -5.66437 0
M  V30 612 H 57.6738 -2.59688 -1.46172 0
M  V30 613 H 55.2108 -1.28761 -0.711261 0
M  V30 614 H 57.1688 -1.74344 -3.79025 0
M  V30 615 H 55.7988 -0.817753 -3.1227 0
M  V30 616 H 54.8508 -3.07222 -2.24318 0
M  V30 617 H 56.1628 -3.89518 -3.11572 0
M  V30 618 H 55.3168 -2.97829 -5.28567 0
M  V30 619 H 54.0558 -2.05133 -4.42461 0
M  V30 620 H 53.0608 -4.1885 -3.56153 0
M  V30 621 H 54.2858 -5.12483 -4.45575 0
M  V30 622 H 52.2318 -3.25453 -5.69575 0
M  V30 623 H 52.1488 -4.98564 -5.68304 0
M  V30 624 H 53.4168 -4.1941 -6.57051 0
M  V30 625 N 57.6459 0.756429 -1.3826 0
M  V30 626 C 58.8739 1.54565 -1.3754 0
M  V30 627 C 59.2889 1.88767 0.0355331 0
M  V30 628 O 58.6459 1.52572 1.0014 0
M  V30 629 C 58.6969 2.84654 -2.22833 0
M  V30 630 O 58.4179 2.51912 -3.5843 0
M  V30 631 C 59.9189 3.78807 -2.30261 0
M  V30 632 H 57.1389 0.478353 -0.470553 0
M  V30 633 H 59.6829 0.936381 -1.81803 0
M  V30 634 H 57.8379 3.41965 -1.8204 0
M  V30 635 H 58.2519 3.35325 -4.03308 0
M  V30 636 H 59.7259 4.67045 -2.94233 0
M  V30 637 H 60.2029 4.19038 -1.31545 0
M  V30 638 H 60.8089 3.2742 -2.71433 0
M  V30 639 N 59.124 1.23083 0.984299 0
M  V30 640 C 60.054 1.03292 2.09411 0
M  V30 641 C 61.035 -0.048923 1.7003 0
M  V30 642 O 62.22 0.114967 1.93859 0
M  V30 643 C 59.35 0.619155 3.41736 0
M  V30 644 C 58.304 1.64791 3.95004 0
M  V30 645 C 57.63 1.0897 5.23478 0
M  V30 646 C 58.93 3.03999 4.24714 0
M  V30 647 H 60.624 1.96119 2.26225 0
M  V30 648 H 58.17 0.944344 1.08711 0
M  V30 649 H 60.123 0.467777 4.18796 0
M  V30 650 H 58.847 -0.344786 3.24775 0
M  V30 651 H 57.506 1.78721 3.20085 0
M  V30 652 H 57.154 0.11686 5.02864 0
M  V30 653 H 56.854 1.77704 5.60085 0
M  V30 654 H 58.378 0.950093 6.03163 0
M  V30 655 H 59.792 2.93393 4.92538 0
M  V30 656 H 58.189 3.69936 4.72512 0
M  V30 657 H 59.259 3.53285 3.32142 0
M  V30 658 N 60.6021 -1.18246 1.0419 0
M  V30 659 C 61.8481 -1.88536 0.747122 0
M  V30 660 C 62.1811 -1.80223 -0.723409 0
M  V30 661 O 61.4561 -1.20337 -1.52804 0
M  V30 662 C 61.7391 -3.38968 1.21544 0
M  V30 663 C 61.5921 -3.56084 2.74816 0
M  V30 664 C 62.9111 -4.32648 0.806482 0
M  V30 665 H 60.0301 -0.684619 0.272883 0
M  V30 666 H 62.6721 -1.39113 1.29413 0
M  V30 667 H 60.8221 -3.8119 0.750081 0
M  V30 668 H 62.4941 -3.22946 3.29399 0
M  V30 669 H 60.7371 -2.98699 3.14582 0
M  V30 670 H 61.4081 -4.61639 3.02644 0
M  V30 671 H 63.8841 -3.98211 1.20695 0
M  V30 672 H 62.7601 -5.36462 1.1619 0
M  V30 673 H 63.0211 -4.41146 -0.29029 0
M  V30 674 N 62.0802 -0.821533 -1.34494 0
M  V30 675 C 63.0122 -0.199946 -2.28326 0
M  V30 676 C 64.0252 0.609377 -1.50965 0
M  V30 677 O 65.2142 0.439285 -1.7301 0
M  V30 678 C 62.3142 0.738431 -3.30757 0
M  V30 679 C 61.4872 -0.0277632 -4.37391 0
M  V30 680 C 60.5462 0.831332 -5.19591 0
M  V30 681 O 59.5722 0.276822 -5.68526 0
M  V30 682 N 60.7742 2.15132 -5.39165 0
M  V30 683 H 63.5392 -1.00609 -2.82308 0
M  V30 684 H 61.1002 -0.678366 -1.47003 0
M  V30 685 H 63.0922 1.31773 -3.82646 0
M  V30 686 H 61.6622 1.44533 -2.7718 0
M  V30 687 H 60.8822 -0.788359 -3.86236 0
M  V30 688 H 62.1702 -0.555251 -5.05761 0
M  V30 689 H 61.5682 2.62559 -5.01078 0
M  V30 690 H 60.1252 2.6795 -5.94177 0
M  V30 691 N 63.5583 1.46682 -0.576371 0
M  V30 692 C 64.7983 2.04306 -0.0621356 0
M  V30 693 C 65.1623 1.4389 1.2712 0
M  V30 694 O 66.3633 1.92675 1.87429 0
M  V30 695 C 64.6343 3.57399 0.00927922 0
M  V30 696 S 66.1933 4.36309 0.466859 0
M  V30 697 H 63.0113 0.710167 -0.0344016 0
M  V30 698 H 65.6133 1.79807 -0.767437 0
M  V30 699 H 64.3173 3.98889 -0.965178 0
M  V30 700 H 63.8483 3.86424 0.737547 0
M  V30 701 H 65.8633 4.6533 1.72287 0
M  V30 702 N 65.0364 0.313813 1.54444 0
M  V30 703 C 66.2844 -0.291099 1.99993 0
M  V30 704 C 66.6054 -1.53418 1.20366 0
M  V30 705 O 65.8754 -1.93544 0.302927 0
M  V30 706 H 64.4554 -0.110552 0.738774 0
M  V30 707 H 67.1174 0.428106 1.9014 0
M  V30 708 H 66.2134 -0.554268 3.07139 0
M  V30 709 N 66.5145 -1.57545 0.0417849 0
M  V30 710 C 67.7605 -1.92601 -0.635021 0
M  V30 711 C 68.0935 -0.919627 -1.71045 0
M  V30 712 O 67.3685 0.0557892 -1.9442 0
M  V30 713 C 67.6515 -3.38085 -1.23979 0
M  V30 714 C 67.5045 -4.49467 -0.173057 0
M  V30 715 C 68.8235 -3.83776 -2.15416 0
M  V30 716 H 65.9425 -0.700397 -0.229374 0
M  V30 717 H 68.5845 -1.89728 0.101633 0
M  V30 718 H 66.7345 -3.40664 -1.86762 0
M  V30 719 H 68.4065 -4.59018 0.458312 0
M  V30 720 H 66.6495 -4.30909 0.499996 0
M  V30 721 H 67.3205 -5.48323 -0.636054 0
M  V30 722 H 69.7965 -3.83013 -1.62605 0
M  V30 723 H 68.6725 -4.8624 -2.54679 0
M  V30 724 H 68.9335 -3.19998 -3.05047 0
M  V30 725 N 67.9926 0.231505 -1.5589 0
M  V30 726 C 69.2386 0.95877 -1.78705 0
M  V30 727 C 69.5716 1.8438 -0.609725 0
M  V30 728 O 68.8466 1.90521 0.391426 0
M  V30 729 C 69.1296 1.8062 -3.11526 0
M  V30 730 C 68.9826 0.948328 -4.39689 0
M  V30 731 C 70.3016 2.78585 -3.40703 0
M  V30 732 H 67.4206 0.347129 -0.650131 0
M  V30 733 H 70.0626 0.228259 -1.88624 0
M  V30 734 H 68.2126 2.42902 -3.03201 0
M  V30 735 H 69.8846 0.343016 -4.60023 0
M  V30 736 H 68.1276 0.253314 -4.3306 0
M  V30 737 H 68.7986 1.57543 -5.29041 0
M  V30 738 H 71.2746 2.26439 -3.49091 0
M  V30 739 H 70.1506 3.34988 -4.34826 0
M  V30 740 H 70.4116 3.55825 -2.62375 0
M  V30 741 N 69.4707 1.49531 0.497807 0
M  V30 742 C 70.4337 1.65916 1.58128 0
M  V30 743 C 71.4337 0.530825 1.51786 0
M  V30 744 O 72.6237 0.797342 1.54881 0
M  V30 745 C 69.7557 1.65951 2.9778 0
M  V30 746 H 70.9487 2.62556 1.44929 0
M  V30 747 H 68.5017 1.38611 0.722275 0
M  V30 748 H 69.2367 0.709065 3.16453 0
M  V30 749 H 69.0217 2.47897 3.03792 0
M  V30 750 H 70.5117 1.80673 3.76493 0
M  V30 751 N 70.9488 -0.749086 1.3866 0
M  V30 752 C 71.8958 -1.86291 1.36251 0
M  V30 753 C 72.8658 -1.64578 0.224347 0
M  V30 754 O 74.0508 -1.86181 0.417279 0
M  V30 755 C 71.1908 -3.23644 1.19786 0
M  V30 756 C 70.3038 -3.57158 2.43027 0
M  V30 757 C 69.4388 -4.83838 2.19258 0
M  V30 758 C 68.4778 -5.10152 3.38247 0
M  V30 759 N 67.6148 -6.28029 3.13884 0
M  V30 760 H 72.4548 -1.87685 2.3147 0
M  V30 761 H 69.9918 -0.917287 1.14997 0
M  V30 762 H 71.9498 -4.0291 1.08254 0
M  V30 763 H 70.5798 -3.21566 0.282031 0
M  V30 764 H 69.6318 -2.72701 2.65214 0
M  V30 765 H 70.9438 -3.7253 3.31697 0
M  V30 766 H 70.0978 -5.71057 2.04888 0
M  V30 767 H 68.8368 -4.70614 1.2796 0
M  V30 768 H 67.8418 -4.21401 3.53131 0
M  V30 769 H 69.0668 -5.25271 4.30427 0
M  V30 770 H 67.0128 -6.1612 2.25238 0
M  V30 771 H 66.9298 -6.43922 3.96106 0
M  V30 772 H 68.1978 -7.18124 3.03179 0
M  V30 773 N 72.4269 -1.23603 -0.977757 0
M  V30 774 C 73.6729 -1.07129 -1.72195 0
M  V30 775 C 74.0059 0.390501 -1.90233 0
M  V30 776 O 73.2809 1.28902 -1.45653 0
M  V30 777 C 73.5639 -1.80031 -3.11867 0
M  V30 778 C 73.4169 -3.33899 -3.01383 0
M  V30 779 C 74.7359 -1.56492 -4.11337 0
M  V30 780 H 71.8549 -0.390571 -0.624999 0
M  V30 781 H 74.4969 -1.52142 -1.13811 0
M  V30 782 H 72.6469 -1.41768 -3.6171 0
M  V30 783 H 74.3189 -3.81699 -2.59043 0
M  V30 784 H 72.5619 -3.62796 -2.37827 0
M  V30 785 H 73.2329 -3.801 -4.00285 0
M  V30 786 H 75.7089 -1.89757 -3.70313 0
M  V30 787 H 74.5849 -2.09973 -5.07151 0
M  V30 788 H 74.8459 -0.500874 -4.39254 0
M  V30 789 N 73.905 1.17692 -1.04816 0
M  V30 790 C 75.133 1.91786 -0.776254 0
M  V30 791 C 75.548 1.76604 0.667577 0
M  V30 792 O 74.905 1.10067 1.45573 0
M  V30 793 C 74.956 3.42967 -1.14263 0
M  V30 794 O 74.677 3.57678 -2.52978 0
M  V30 795 C 76.178 4.34144 -0.896311 0
M  V30 796 H 73.398 0.608624 -0.282519 0
M  V30 797 H 75.942 1.49268 -1.39783 0
M  V30 798 H 74.097 3.83245 -0.565874 0
M  V30 799 H 74.511 4.51319 -2.67229 0
M  V30 800 H 75.985 5.38744 -1.20244 0
M  V30 801 H 76.462 4.38876 0.168636 0
M  V30 802 H 77.068 3.99574 -1.45672 0
M  V30 803 N 75.3831 0.828654 1.34056 0
M  V30 804 C 76.6601 0.341809 1.9259 0
M  V30 805 C 77.0401 -1.17158 1.75605 0
M  V30 806 O 76.3881 -1.98132 1.13824 0
M  V30 807 C 76.5981 0.777453 3.4023 0
M  V30 808 C 77.9461 0.779579 4.17382 0
M  V30 809 O 78.9701 0.7204 3.48839 0
M  V30 810 O 77.8291 0.857996 5.39723 0
M  V30 811 H 74.9231 0.0946085 0.821571 0
M  V30 812 H 77.4691 0.913827 1.42994 0
M  V30 813 H 76.2411 1.8196 3.46419 0
M  V30 814 H 75.8641 0.181444 3.97186 0
M  V30 815 N 76.8612 -1.46375 0.584142 0
M  V30 816 C 77.8082 -2.30323 -0.148286 0
M  V30 817 C 78.7782 -1.40703 -0.882713 0
M  V30 818 O 79.9632 -1.69651 -0.873099 0
M  V30 819 C 77.1032 -3.25196 -1.15507 0
M  V30 820 C 76.2162 -4.29915 -0.423943 0
M  V30 821 C 75.3512 -5.11914 -1.41838 0
M  V30 822 C 74.3902 -6.08381 -0.673736 0
M  V30 823 N 73.5272 -6.83242 -1.6163 0
M  V30 824 H 78.3672 -2.92427 0.573644 0
M  V30 825 H 75.9042 -1.44118 0.294703 0
M  V30 826 H 77.8622 -3.78646 -1.75166 0
M  V30 827 H 76.4922 -2.64898 -1.8447 0
M  V30 828 H 75.5442 -3.7931 0.287714 0
M  V30 829 H 76.8562 -4.98549 0.158128 0
M  V30 830 H 76.0102 -5.69648 -2.08773 0
M  V30 831 H 74.7492 -4.43243 -2.03438 0
M  V30 832 H 73.7542 -5.49799 0.00938483 0
M  V30 833 H 74.9792 -6.79071 -0.0631082 0
M  V30 834 H 72.9252 -6.1728 -2.22038 0
M  V30 835 H 72.8422 -7.48144 -1.08707 0
M  V30 836 H 74.1102 -7.45534 -2.27596 0
M  V30 837 N 78.3393 -0.321999 -1.54275 0
M  V30 838 C 79.2723 0.58718 -2.20516 0
M  V30 839 C 80.2503 1.11693 -1.18167 0
M  V30 840 O 81.4343 1.18122 -1.46899 0
M  V30 841 C 78.5613 1.80554 -2.86562 0
M  V30 842 C 77.6073 1.40718 -4.02617 0
M  V30 843 S 78.4403 0.445218 -5.33646 0
M  V30 844 C 79.5963 1.6709 -6.03185 0
M  V30 845 H 79.8293 0.0244875 -2.9729 0
M  V30 846 H 77.3623 -0.106087 -1.54035 0
M  V30 847 H 79.3203 2.50462 -3.25237 0
M  V30 848 H 77.9813 2.33942 -2.09595 0
M  V30 849 H 77.1743 2.31501 -4.47687 0
M  V30 850 H 76.7763 0.78782 -3.65608 0
M  V30 851 H 79.0683 2.60856 -6.25268 0
M  V30 852 H 80.0113 1.26239 -6.96756 0
M  V30 853 H 80.4193 1.85716 -5.33076 0
M  V30 854 N 79.8174 1.5752 -0.0501392 0
M  V30 855 C 81.0944 1.83996 0.663685 0
M  V30 856 C 81.4744 0.938339 1.89099 0
M  V30 857 O 80.8224 -0.00087759 2.285 0
M  V30 858 C 81.0324 3.33702 1.02196 0
M  V30 859 C 82.3804 4.00691 1.40469 0
M  V30 860 O 83.4044 3.38321 1.11433 0
M  V30 861 O 82.2634 5.10658 1.94654 0
M  V30 862 H 79.3574 0.759385 0.32751 0
M  V30 863 H 81.9034 1.69514 -0.0794238 0
M  V30 864 H 80.6754 3.91015 0.149364 0
M  V30 865 H 80.2984 3.53368 1.82255 0
M  V30 866 N 81.2955 -0.223234 1.56011 0
M  V30 867 C 82.2585 -1.26014 1.9145 0
M  V30 868 C 83.2585 -1.3989 0.792937 0
M  V30 869 O 84.4485 -1.38184 1.0607 0
M  V30 870 C 81.5805 -2.63422 2.16383 0
M  V30 871 H 82.7735 -0.95796 2.84189 0
M  V30 872 H 80.3265 -0.463576 1.49267 0
M  V30 873 H 81.0615 -2.98741 1.2619 0
M  V30 874 H 80.8465 -2.54728 2.98088 0
M  V30 875 H 82.3365 -3.38249 2.44903 0
M  V30 876 N 82.7736 -1.49793 -0.48987 0
M  V30 877 C 83.7366 -1.66752 -1.57246 0
M  V30 878 C 84.7366 -0.538867 -1.51502 0
M  V30 879 O 85.9266 -0.805545 -1.54456 0
M  V30 880 C 83.0586 -1.67528 -2.96896 0
M  V30 881 H 84.2516 -2.63321 -1.43534 0
M  V30 882 H 81.8046 -1.38992 -0.714914 0
M  V30 883 H 82.5396 -0.725837 -3.16073 0
M  V30 884 H 82.3246 -2.49504 -3.02473 0
M  V30 885 H 83.8146 -1.82667 -3.7553 0
M  V30 886 N 84.2517 0.741722 -1.39055 0
M  V30 887 C 85.4997 1.49818 -1.35643 0
M  V30 888 C 85.8207 1.94938 0.0491642 0
M  V30 889 O 85.0907 1.68505 0.999141 0
M  V30 890 H 83.6707 0.555755 -0.499144 0
M  V30 891 H 86.3327 0.880957 -1.73854 0
M  V30 892 H 85.4287 2.38348 -2.01486 0
M  V30 893 N 85.7298 1.2412 0.971189 0
M  V30 894 C 86.6598 1.05508 2.08304 0
M  V30 895 C 87.6408 -0.0308864 1.70072 0
M  V30 896 O 88.8258 0.135521 1.93727 0
M  V30 897 C 85.9558 0.655365 3.4106 0
M  V30 898 C 84.9098 1.68971 3.93234 0
M  V30 899 C 84.2358 1.14516 5.22293 0
M  V30 900 C 85.5358 3.08487 4.21465 0
M  V30 901 H 87.2298 1.98507 2.24132 0
M  V30 902 H 84.7758 0.955821 1.07704 0
M  V30 903 H 86.7288 0.51217 4.18276 0
M  V30 904 H 85.4528 -0.31032 3.25122 0
M  V30 905 H 84.1118 1.82106 3.18171 0
M  V30 906 H 83.7598 0.170189 5.02712 0
M  V30 907 H 83.4598 1.83635 5.58168 0
M  V30 908 H 84.9838 1.01401 6.02121 0
M  V30 909 H 86.3978 2.98601 4.89398 0
M  V30 910 H 84.7948 3.74926 4.68562 0
M  V30 911 H 85.8648 3.56787 3.28376 0
M  V30 912 N 87.2079 -1.17134 1.05439 0
M  V30 913 C 88.1709 -2.19439 0.661764 0
M  V30 914 C 89.1709 -1.58199 -0.288042 0
M  V30 915 O 90.3609 -1.74053 -0.0715803 0
M  V30 916 C 87.4929 -3.40889 -0.0276209 0
M  V30 917 H 88.6859 -2.55688 1.56728 0
M  V30 918 H 86.2389 -1.31259 0.848567 0
M  V30 919 H 86.9739 -3.10187 -0.94629 0
M  V30 920 H 86.7589 -3.86586 0.655238 0
M  V30 921 H 88.2489 -4.16603 -0.288342 0
M  V30 922 N 88.686 -0.835752 -1.33615 0
M  V30 923 C 89.932 -0.439817 -1.98588 0
M  V30 924 C 90.287 0.989274 -1.65019 0
M  V30 925 O 89.58 1.68168 -0.918159 0
M  V30 926 C 89.774 -0.593925 -3.52431 0
M  V30 927 C 89.603 -2.03644 -4.00948 0
M  V30 928 C 88.373 -2.67103 -4.28934 0
M  V30 929 C 90.571 -3.00479 -4.17393 0
M  V30 930 N 88.553 -4.02462 -4.6357 0
M  V30 931 C 89.924 -4.20777 -4.55353 0
M  V30 932 C 91.979 -2.96926 -3.99674 0
M  V30 933 C 90.682 -5.37994 -4.77447 0
M  V30 934 C 92.708 -4.1337 -4.22941 0
M  V30 935 C 92.07 -5.32422 -4.61201 0
M  V30 936 H 88.169 -0.209303 -0.75347 0
M  V30 937 H 90.753 -1.08316 -1.61789 0
M  V30 938 H 88.924 0.019599 -3.88395 0
M  V30 939 H 90.656 -0.169738 -4.04344 0
M  V30 940 H 87.411 -2.18259 -4.20309 0
M  V30 941 H 87.835 -4.72232 -4.85104 0
M  V30 942 H 92.477 -2.06015 -3.69212 0
M  V30 943 H 90.195 -6.29451 -5.06771 0
M  V30 944 H 93.781 -4.12034 -4.10754 0
M  V30 945 H 92.661 -6.21027 -4.78848 0
M  V30 946 N 90.1641 1.46063 -0.591896 0
M  V30 947 C 91.1271 2.28854 0.125973 0
M  V30 948 C 92.1271 1.38903 0.810107 0
M  V30 949 O 93.3171 1.61186 0.66066 0
M  V30 950 C 90.4491 3.19526 1.1881 0
M  V30 951 H 91.6421 2.93802 -0.601717 0
M  V30 952 H 89.1951 1.52325 -0.350254 0
M  V30 953 H 89.9301 2.59345 1.94707 0
M  V30 954 H 89.7151 3.85766 0.701936 0
M  V30 955 H 91.2051 3.81817 1.69132 0
M  V30 956 N 91.6422 0.330177 1.54103 0
M  V30 957 C 92.8912 -0.271336 1.99867 0
M  V30 958 C 93.2042 -1.52723 1.22209 0
M  V30 959 O 94.4102 -2.20515 1.58383 0
M  V30 960 C 92.8662 -0.534032 3.55916 0
M  V30 961 C 92.4742 0.705193 4.42415 0
M  V30 962 C 94.2182 -1.09514 4.1013 0
M  V30 963 C 92.1252 0.414035 5.89949 0
M  V30 964 H 91.0552 -0.105166 0.74663 0
M  V30 965 H 93.7062 0.443429 1.78062 0
M  V30 966 H 92.0882 -1.30915 3.73734 0
M  V30 967 H 93.2622 1.4804 4.36372 0
M  V30 968 H 91.5772 1.18698 3.99124 0
M  V30 969 H 94.1742 -1.3277 5.17954 0
M  V30 970 H 94.5172 -2.04656 3.62521 0
M  V30 971 H 95.0502 -0.381038 3.95971 0
M  V30 972 H 91.7892 1.33481 6.41766 0
M  V30 973 H 91.3092 -0.323336 5.98928 0
M  V30 974 H 92.9882 0.0263105 6.46995 0
M  V30 975 N 93.1203 -1.57491 0.0584922 0
M  V30 976 C 94.3503 -1.9701 -0.622134 0
M  V30 977 C 94.7583 -0.935034 -1.6448 0
M  V30 978 O 94.1013 0.0882904 -1.83488 0
M  V30 979 C 94.1633 -3.32794 -1.35972 0
M  V30 980 C 93.8273 -4.54343 -0.492043 0
M  V30 981 C 94.8243 -5.19323 0.244901 0
M  V30 982 C 92.5093 -5.00534 -0.420821 0
M  V30 983 C 94.5033 -6.28835 1.04143 0
M  V30 984 C 92.1903 -6.09921 0.379389 0
M  V30 985 C 93.1883 -6.73933 1.10919 0
M  V30 986 O 92.8763 -7.81216 1.89623 0
M  V30 987 H 92.6083 -0.653127 -0.174359 0
M  V30 988 H 95.1623 -2.05029 0.123418 0
M  V30 989 H 93.3923 -3.21351 -2.15105 0
M  V30 990 H 95.0813 -3.5701 -1.93129 0
M  V30 991 H 95.8473 -4.8459 0.19939 0
M  V30 992 H 91.7263 -4.50496 -0.978474 0
M  V30 993 H 95.2703 -6.7873 1.61157 0
M  V30 994 H 91.1673 -6.44089 0.426512 0
M  V30 995 H 91.9353 -7.98029 1.81913 0
M  V30 996 N 94.5984 0.214957 -1.56127 0
M  V30 997 C 95.8754 0.963093 -1.70247 0
M  V30 998 C 96.2554 2.02166 -0.60764 0
M  V30 999 O 95.6034 2.25244 0.384385 0
M  V30 1000 C 95.8134 1.56756 -3.11815 0
M  V30 1001 C 97.1614 2.0573 -3.7143 0
M  V30 1002 O 98.1854 1.66637 -3.14818 0
M  V30 1003 O 97.0444 2.77603 -4.70743 0
M  V30 1004 H 94.1384 0.450321 -0.693643 0
M  V30 1005 H 96.6844 0.206219 -1.68442 0
M  V30 1006 H 95.4564 0.803533 -3.82961 0
M  V30 1007 H 95.0794 2.3898 -3.17765 0
M  V30 1008 N 96.0765 1.50051 0.48192 0
M  V30 1009 C 97.3245 1.60181 1.23234 0
M  V30 1010 C 97.6455 0.299176 1.92691 0
M  V30 1011 O 96.9155 -0.682708 1.83619 0
M  V30 1012 H 95.4955 0.590232 0.457859 0
M  V30 1013 H 98.1575 1.86775 0.556881 0
M  V30 1014 H 97.2535 2.40753 1.98607 0
M  V30 1015 N 97.5546 -0.734337 1.39446 0
M  V30 1016 C 98.8006 -1.49613 1.36908 0
M  V30 1017 C 99.1336 -1.94169 -0.0347829 0
M  V30 1018 O 98.4086 -1.66833 -0.999847 0
M  V30 1019 C 98.6916 -2.73534 2.34203 0
M  V30 1020 C 98.5446 -2.34993 3.83534 0
M  V30 1021 C 99.8636 -3.75635 2.29317 0
M  V30 1022 H 96.9826 -0.542714 0.498629 0
M  V30 1023 H 99.6246 -0.839597 1.70443 0
M  V30 1024 H 97.7746 -3.29553 2.05736 0
M  V30 1025 H 99.4466 -1.84601 4.22753 0
M  V30 1026 H 97.6896 -1.67213 4.00278 0
M  V30 1027 H 98.3606 -3.23738 4.47099 0
M  V30 1028 H 100.837 -3.29203 2.54489 0
M  V30 1029 H 99.7126 -4.60008 2.99472 0
M  V30 1030 H 99.9736 -4.22603 1.29842 0
M  V30 1031 N 99.0327 -1.24633 -0.964593 0
M  V30 1032 C 100.279 -1.08949 -1.71049 0
M  V30 1033 C 100.612 0.370302 -1.90637 0
M  V30 1034 O 99.8867 1.27349 -1.47011 0
M  V30 1035 C 100.17 -1.83329 -3.0994 0
M  V30 1036 C 100.023 -3.37077 -2.97824 0
M  V30 1037 C 101.342 -1.60846 -4.09654 0
M  V30 1038 H 98.4607 -0.397178 -0.620821 0
M  V30 1039 H 101.103 -1.5334 -1.12191 0
M  V30 1040 H 99.2527 -1.45597 -3.60186 0
M  V30 1041 H 100.925 -3.84425 -2.5498 0
M  V30 1042 H 99.1677 -3.65298 -2.33965 0
M  V30 1043 H 99.8387 -3.84324 -3.96231 0
M  V30 1044 H 102.315 -1.93674 -3.68279 0
M  V30 1045 H 101.191 -2.1534 -5.04896 0
M  V30 1046 H 101.452 -0.547434 -4.38698 0
M  V30 1047 N 100.511 1.16574 -1.06058 0
M  V30 1048 C 101.922 1.68662 -0.800632 0
M  V30 1049 C 102.273 1.84184 0.67608 0
M  V30 1050 O 101.398 1.53568 1.52466 0
M  V30 1051 C 101.993 3.06356 -1.44676 0
M  V30 1052 C 100.552 3.55575 -1.23465 0
M  V30 1053 C 99.6988 2.31616 -1.52477 0
M  V30 1054 H 102.65 1.00969 -1.22438 0
M  V30 1055 H 102.671 3.70636 -0.860788 0
M  V30 1056 H 102.183 2.95027 -2.52152 0
M  V30 1057 H 100.284 3.72167 -0.179527 0
M  V30 1058 H 100.397 4.37812 -1.94571 0
M  V30 1059 H 98.7608 2.36512 -0.945209 0
M  V30 1060 H 99.5438 2.22887 -2.61106 0
M  V30 1061 N 101.989 0.842826 1.3317 0
M  V30 1062 C 102.937 0.267495 2.31057 0
M  V30 1063 C 103.931 -0.602682 1.58316 0
M  V30 1064 O 105.137 -0.491803 1.73151 0
M  V30 1065 H 101.512 0.0677813 0.748939 0
M  V30 1066 H 103.483 1.10754 2.77085 0
M  V30 1067 C 102.232 -0.539331 3.43492 0
M  V30 1068 H 101.555 0.12095 3.99617 0
M  V30 1069 H 102.995 -0.90767 4.14171 0
M  V30 1070 C 101.454 -1.71981 2.89697 0
M  V30 1071 O 101.984 -2.81862 2.86211 0
M  V30 1072 N 100.19 -1.54299 2.46252 0
M  V30 1073 H 99.7369 -0.649143 2.49287 0
M  V30 1074 H 99.6949 -2.33431 2.10612 0
M  V30 1075 N 103.467 -1.45747 0.599634 0
M  V30 1076 C 104.878 -1.85853 0.177681 0
M  V30 1077 C 105.229 -1.50102 -1.26348 0
M  V30 1078 O 104.354 -0.923905 -1.95686 0
M  V30 1079 C 104.949 -3.37326 0.315688 0
M  V30 1080 C 103.508 -3.76365 -0.0515144 0
M  V30 1081 C 102.655 -2.69722 0.643822 0
M  V30 1082 H 105.606 -1.36661 0.806814 0
M  V30 1083 H 105.627 -3.77778 -0.454321 0
M  V30 1084 H 105.139 -3.63315 1.36468 0
M  V30 1085 H 103.24 -3.55993 -1.09999 0
M  V30 1086 H 103.353 -4.77916 0.336594 0
M  V30 1087 H 101.717 -2.54567 0.0822881 0
M  V30 1088 H 102.5 -2.98549 1.6948 0
M  V30 1089 N 104.945 -0.338344 -1.53925 0
M  V30 1090 C 106.173 0.261298 -2.05243 0
M  V30 1091 C 106.588 1.44625 -1.21363 0
M  V30 1092 O 105.945 1.80811 -0.247736 0
M  V30 1093 C 105.996 0.681412 -3.5502 0
M  V30 1094 O 105.717 -0.456414 -4.35716 0
M  V30 1095 C 107.218 1.34232 -4.22489 0
M  V30 1096 H 104.438 0.0513685 -0.669031 0
M  V30 1097 H 106.982 -0.488822 -1.98572 0
M  V30 1098 H 105.137 1.38148 -3.61931 0
M  V30 1099 H 105.551 -0.122564 -5.24357 0
M  V30 1100 H 107.025 1.58708 -5.28693 0
M  V30 1101 H 107.502 2.29426 -3.74514 0
M  V30 1102 H 108.108 0.684424 -4.19757 0
M  V30 1103 N 106.423 1.57458 -0.0668435 0
M  V30 1104 C 107.672 1.92477 0.602947 0
M  V30 1105 C 107.985 0.948419 1.71068 0
M  V30 1106 O 109.191 1.19124 2.43971 0
M  V30 1107 C 107.647 3.41903 1.12383 0
M  V30 1108 C 107.255 4.47975 0.04737 0
M  V30 1109 C 108.999 3.85931 1.76797 0
M  V30 1110 C 106.906 5.88529 0.582022 0
M  V30 1111 H 105.836 0.718387 0.22899 0
M  V30 1112 H 108.487 1.82978 -0.138276 0
M  V30 1113 H 106.869 3.46459 1.91787 0
M  V30 1114 H 108.043 4.55029 -0.726978 0
M  V30 1115 H 106.358 4.13384 -0.500243 0
M  V30 1116 H 108.955 4.88322 2.17821 0
M  V30 1117 H 109.298 3.23029 2.62599 0
M  V30 1118 H 109.831 3.83958 1.04024 0
M  V30 1119 H 106.57 6.55065 -0.238721 0
M  V30 1120 H 106.09 5.85004 1.324 0
M  V30 1121 H 107.769 6.38258 1.05999 0
M  V30 1122 N 107.901 -0.206675 1.56239 0
M  V30 1123 C 109.129 -0.945345 1.8404 0
M  V30 1124 C 109.544 -1.77336 0.647885 0
M  V30 1125 O 108.901 -1.78425 -0.383511 0
M  V30 1126 C 108.952 -1.8509 3.10522 0
M  V30 1127 O 108.673 -1.05634 4.25174 0
M  V30 1128 C 110.174 -2.70222 3.51418 0
M  V30 1129 H 107.394 -0.276372 0.61144 0
M  V30 1130 H 109.938 -0.217417 2.03341 0
M  V30 1131 H 108.093 -2.53259 2.93153 0
M  V30 1132 H 108.507 -1.67238 4.97124 0
M  V30 1133 H 109.981 -3.29438 4.42916 0
M  V30 1134 H 110.458 -3.43358 2.73864 0
M  V30 1135 H 111.064 -2.07443 3.71278 0
M  V30 1136 N 109.379 -1.50304 -0.473955 0
M  V30 1137 C 110.625 -1.61389 -1.22806 0
M  V30 1138 C 110.958 -0.311955 -1.91678 0
M  V30 1139 O 110.233 0.686384 -1.81986 0
M  V30 1140 C 110.516 -2.79219 -2.27396 0
M  V30 1141 C 110.369 -4.19286 -1.62848 0
M  V30 1142 C 111.688 -2.92614 -3.28732 0
M  V30 1143 H 108.807 -0.587399 -0.445119 0
M  V30 1144 H 111.449 -1.82681 -0.522265 0
M  V30 1145 H 109.599 -2.61195 -2.87592 0
M  V30 1146 H 111.271 -4.48892 -1.06271 0
M  V30 1147 H 109.514 -4.23677 -0.931693 0
M  V30 1148 H 110.185 -4.97655 -2.38838 0
M  V30 1149 H 112.661 -3.09105 -2.78556 0
M  V30 1150 H 111.537 -3.76688 -3.99246 0
M  V30 1151 H 111.798 -2.03107 -3.92683 0
M  V30 1152 N 110.857 0.726932 -1.39834 0
M  V30 1153 C 112.103 1.48884 -1.377 0
M  V30 1154 C 112.436 1.94185 0.0244852 0
M  V30 1155 O 111.711 1.67361 0.990986 0
M  V30 1156 C 111.994 2.72288 -2.3565 0
M  V30 1157 C 111.847 2.32956 -3.84775 0
M  V30 1158 C 113.166 3.74414 -2.31306 0
M  V30 1159 H 110.285 0.540062 -0.5015 0
M  V30 1160 H 112.927 0.830547 -1.70886 0
M  V30 1161 H 111.077 3.28457 -2.07481 0
M  V30 1162 H 112.749 1.82356 -4.23726 0
M  V30 1163 H 110.992 1.65088 -4.01159 0
M  V30 1164 H 111.663 3.21362 -4.4881 0
M  V30 1165 H 114.139 3.27849 -2.56231 0
M  V30 1166 H 113.015 4.58414 -3.01907 0
M  V30 1167 H 113.276 4.21909 -1.32081 0
M  V30 1168 N 112.336 1.25143 0.95797 0
M  V30 1169 C 113.283 1.05235 2.05412 0
M  V30 1170 C 114.253 -0.0374561 1.66058 0
M  V30 1171 O 115.438 0.119073 1.90428 0
M  V30 1172 C 112.578 0.673589 3.38462 0
M  V30 1173 C 111.691 1.8379 3.90954 0
M  V30 1174 C 110.826 1.40381 5.12315 0
M  V30 1175 C 109.865 2.53746 5.57027 0
M  V30 1176 N 109.002 2.11136 6.69601 0
M  V30 1177 H 113.842 1.99048 2.21774 0
M  V30 1178 H 111.379 0.991277 1.08683 0
M  V30 1179 H 113.337 0.434964 4.14926 0
M  V30 1180 H 111.967 -0.227554 3.21997 0
M  V30 1181 H 111.019 2.18992 3.11041 0
M  V30 1182 H 112.331 2.68937 4.20089 0
M  V30 1183 H 111.485 1.12464 5.96185 0
M  V30 1184 H 110.224 0.523015 4.84887 0
M  V30 1185 H 109.229 2.82412 4.71724 0
M  V30 1186 H 110.454 3.42398 5.86464 0
M  V30 1187 H 108.4 1.25468 6.4389 0
M  V30 1188 H 108.317 2.89832 6.98236 0
M  V30 1189 H 109.585 1.86385 7.56889 0
M  V30 1190 N 113.814 -1.1601 1.06675 0
M  V30 1191 C 114.724 -2.24156 0.692179 0
M  V30 1192 C 115.74 -1.71507 -0.293513 0
M  V30 1193 O 116.916 -2.009 -0.141861 0
M  V30 1194 C 113.981 -3.46587 0.0884131 0
M  V30 1195 C 113.042 -4.14257 1.12646 0
M  V30 1196 C 112.275 -5.30844 0.551416 0
M  V30 1197 O 112.498 -5.66858 -0.634656 0
M  V30 1198 O 111.432 -5.87848 1.29298 0
M  V30 1199 H 115.258 -2.58513 1.59388 0
M  V30 1200 H 112.843 -1.23599 0.83926 0
M  V30 1201 H 114.725 -4.20679 -0.246361 0
M  V30 1202 H 113.4 -3.13994 -0.786712 0
M  V30 1203 H 112.307 -3.42118 1.51348 0
M  V30 1204 H 113.64 -4.50914 1.97325 0
M  V30 1205 N 115.292 -0.849877 -1.32721 0
M  V30 1206 C 116.54 -0.450032 -1.97026 0
M  V30 1207 C 116.861 0.996604 -1.67609 0
M  V30 1208 O 116.131 1.6958 -0.980786 0
M  V30 1209 H 114.711 -0.163426 -0.728904 0
M  V30 1210 H 117.373 -1.08526 -1.6189 0
M  V30 1211 H 116.469 -0.591146 -3.0645 0
M  V30 1212 N 116.77 1.45427 -0.607355 0
M  V30 1213 C 117.7 2.3329 0.0989352 0
M  V30 1214 C 118.681 1.46816 0.859007 0
M  V30 1215 O 119.866 1.75588 0.829604 0
M  V30 1216 C 116.996 3.29518 1.09705 0
M  V30 1217 C 115.95 4.25626 0.450206 0
M  V30 1218 C 115.276 5.11542 1.55655 0
M  V30 1219 C 116.576 5.18505 -0.628455 0
M  V30 1220 H 118.27 2.92595 -0.634716 0
M  V30 1221 H 115.816 1.40696 -0.306681 0
M  V30 1222 H 117.769 3.89855 1.59971 0
M  V30 1223 H 116.493 2.68372 1.86129 0
M  V30 1224 H 115.152 3.66586 -0.0315886 0
M  V30 1225 H 114.8 4.46765 2.31107 0
M  V30 1226 H 114.5 5.76647 1.12925 0
M  V30 1227 H 116.024 5.74748 2.06148 0
M  V30 1228 H 117.438 5.72916 -0.209877 0
M  V30 1229 H 115.835 5.92085 -0.977489 0
M  V30 1230 H 116.905 4.60948 -1.50514 0
M  V30 1231 N 118.248 0.346503 1.53744 0
M  V30 1232 C 119.496 -0.248612 2.00565 0
M  V30 1233 C 119.817 -1.5083 1.23593 0
M  V30 1234 O 119.087 -1.92858 0.343912 0
M  V30 1235 H 117.667 -0.0948564 0.740953 0
M  V30 1236 H 120.329 0.468341 1.89189 0
M  V30 1237 H 119.425 -0.488994 3.08245 0
M  V30 1238 N 119.726 -1.57421 0.075193 0
M  V30 1239 C 120.972 -1.93905 -0.594025 0
M  V30 1240 C 121.305 -0.955701 -1.69056 0
M  V30 1241 O 120.58 0.0145373 -1.94495 0
M  V30 1242 C 120.863 -3.40638 -1.1678 0
M  V30 1243 C 120.716 -4.49733 -0.0776792 0
M  V30 1244 C 122.035 -3.88259 -2.07228 0
M  V30 1245 H 119.154 -0.705105 -0.214466 0
M  V30 1246 H 121.796 -1.8947 0.141854 0
M  V30 1247 H 119.946 -3.44549 -1.79494 0
M  V30 1248 H 121.618 -4.57942 0.555573 0
M  V30 1249 H 119.861 -4.29751 0.591286 0
M  V30 1250 H 120.532 -5.49549 -0.519603 0
M  V30 1251 H 123.008 -3.86376 -1.54445 0
M  V30 1252 H 121.884 -4.91533 -2.44308 0
M  V30 1253 H 122.145 -3.26396 -2.98191 0
M  V30 1254 N 121.204 0.198386 -1.56346 0
M  V30 1255 C 122.451 0.919286 -1.80431 0
M  V30 1256 C 122.779 1.83393 -0.647866 0
M  V30 1257 O 122.034 1.92236 0.366556 0
M  V30 1258 C 122.333 1.77031 -3.10475 0
M  V30 1259 C 121.999 1.00693 -4.39513 0
M  V30 1260 C 120.661 0.796145 -4.74568 0
M  V30 1261 C 123.013 0.469559 -5.19081 0
M  V30 1262 C 120.341 0.0364588 -5.86689 0
M  V30 1263 C 122.693 -0.2769 -6.31994 0
M  V30 1264 C 121.357 -0.49873 -6.65634 0
M  V30 1265 H 120.627 0.336391 -0.660244 0
M  V30 1266 H 123.274 0.185872 -1.90596 0
M  V30 1267 H 121.579 2.5723 -2.95533 0
M  V30 1268 H 123.276 2.33065 -3.26315 0
M  V30 1269 H 119.866 1.18122 -4.12001 0
M  V30 1270 H 124.05 0.619816 -4.92414 0
M  V30 1271 H 119.306 -0.145412 -6.11227 0
M  V30 1272 H 123.48 -0.700684 -6.92866 0
M  V30 1273 H 121.107 -1.0893 -7.52355 0
M  V30 1274 N 122.682 1.50554 0.465978 0
M  V30 1275 C 123.614 1.65949 1.58093 0
M  V30 1276 C 124.627 0.540827 1.53554 0
M  V30 1277 O 125.816 0.814187 1.5885 0
M  V30 1278 C 122.916 1.63261 2.96983 0
M  V30 1279 C 122.089 2.91245 3.26336 0
M  V30 1280 C 121.148 2.8113 4.44806 0
M  V30 1281 O 120.174 3.55086 4.44862 0
M  V30 1282 N 121.376 1.95032 5.46756 0
M  V30 1283 H 124.141 2.62122 1.45301 0
M  V30 1284 H 121.702 1.48082 0.65448 0
M  V30 1285 H 123.694 1.54101 3.74212 0
M  V30 1286 H 122.264 0.748032 3.03518 0
M  V30 1287 H 121.484 3.14493 2.37672 0
M  V30 1288 H 122.772 3.76022 3.42761 0
M  V30 1289 H 122.17 1.3427 5.49534 0
M  V30 1290 H 120.727 1.91772 6.2295 0
M  V30 1291 N 124.16 -0.719506 1.40217 0
M  V30 1292 C 125.108 -1.85493 1.40339 0
M  V30 1293 C 126.102 -1.66995 0.284415 0
M  V30 1294 O 127.308 -1.74148 0.455252 0
M  V30 1295 H 123.683 -0.610857 0.438586 0
M  V30 1296 H 125.654 -1.82506 2.36081 0
M  V30 1297 C 124.403 -3.23321 1.27901 0
M  V30 1298 H 123.726 -3.38159 2.1328 0
M  V30 1299 H 125.166 -4.02914 1.32045 0
M  V30 1300 C 123.625 -3.36898 -0.0111355 0
M  V30 1301 O 124.155 -3.89674 -0.975538 0
M  V30 1302 N 122.361 -2.90492 -0.0793393 0
M  V30 1303 H 121.908 -2.47731 0.706183 0
M  V30 1304 H 121.866 -2.99955 -0.942038 0
M  V30 1305 N 125.638 -1.25649 -0.95132 0
M  V30 1306 C 126.863 -1.13443 -1.73624 0
M  V30 1307 C 127.288 0.307565 -1.85568 0
M  V30 1308 O 126.646 1.22282 -1.33854 0
M  V30 1309 C 126.694 -1.79723 -3.12621 0
M  V30 1310 O 125.798 -1.07912 -3.98031 0
M  V30 1311 H 125.139 -0.395872 -0.533086 0
M  V30 1312 H 127.669 -1.66276 -1.1922 0
M  V30 1313 H 127.679 -1.86141 -3.63064 0
M  V30 1314 H 126.354 -2.84633 -3.03244 0
M  V30 1315 H 124.931 -1.09398 -3.56492 0
M  V30 1316 N 127.117 1.15442 -1.07289 0
M  V30 1317 C 128.365 1.85845 -0.794096 0
M  V30 1318 C 128.686 1.82692 0.681809 0
M  V30 1319 O 127.956 1.26741 1.49377 0
M  V30 1320 H 126.536 0.688089 -0.290763 0
M  V30 1321 H 129.198 1.39947 -1.3565 0
M  V30 1322 H 128.294 2.91001 -1.12804 0
M  V30 1323 N 128.595 0.856903 1.32268 0
M  V30 1324 C 129.558 0.308171 2.27119 0
M  V30 1325 C 130.558 -0.533421 1.51695 0
M  V30 1326 O 131.748 -0.344607 1.70757 0
M  V30 1327 C 128.88 -0.563757 3.36206 0
M  V30 1328 H 130.073 1.14535 2.77167 0
M  V30 1329 H 127.626 0.631421 1.42978 0
M  V30 1330 H 128.361 -1.42266 2.91429 0
M  V30 1331 H 128.146 0.0386749 3.92081 0
M  V30 1332 H 129.636 -0.940386 4.06874 0
M  V30 1333 N 130.073 -1.45103 0.615059 0
M  V30 1334 C 131.35 -1.95549 0.0448276 0
M  V30 1335 C 131.73 -1.55737 -1.4251 0
M  V30 1336 O 131.078 -0.823556 -2.13143 0
M  V30 1337 C 131.288 -3.48098 0.250785 0
M  V30 1338 C 132.636 -4.24384 0.135509 0
M  V30 1339 O 133.66 -3.55738 0.181299 0
M  V30 1340 O 132.519 -5.46493 0.0268878 0
M  V30 1341 H 129.613 -0.8264 -0.0314845 0
M  V30 1342 H 132.159 -1.55232 0.685642 0
M  V30 1343 H 130.931 -3.7007 1.27139 0
M  V30 1344 H 130.554 -3.95323 -0.424937 0
M  V30 1345 N 131.551 -0.354651 -1.53558 0
M  V30 1346 C 132.781 0.239167 -2.05211 0
M  V30 1347 C 133.189 1.43879 -1.22863 0
M  V30 1348 O 132.532 1.81857 -0.259565 0
M  V30 1349 C 132.594 0.707251 -3.52474 0
M  V30 1350 C 132.258 -0.374212 -4.55465 0
M  V30 1351 C 133.255 -1.22054 -5.0537 0
M  V30 1352 C 130.94 -0.531323 -4.99482 0
M  V30 1353 C 132.934 -2.20942 -5.97882 0
M  V30 1354 C 130.621 -1.52358 -5.91802 0
M  V30 1355 C 131.619 -2.36108 -6.40892 0
M  V30 1356 O 131.307 -3.33643 -7.31394 0
M  V30 1357 H 131.039 0.0479716 -0.674296 0
M  V30 1358 H 133.593 -0.508121 -1.99016 0
M  V30 1359 H 131.823 1.50596 -3.56171 0
M  V30 1360 H 133.512 1.22285 -3.87042 0
M  V30 1361 H 134.278 -1.1103 -4.7212 0
M  V30 1362 H 130.157 0.110738 -4.60867 0
M  V30 1363 H 133.701 -2.86348 -6.36121 0
M  V30 1364 H 129.598 -1.63434 -6.24467 0
M  V30 1365 H 130.366 -3.29244 -7.4936 0
M  V30 1366 N 133.029 1.57378 -0.0835403 0
M  V30 1367 C 133.959 2.1641 0.87686 0
M  V30 1368 C 134.94 1.09429 1.30228 0
M  V30 1369 O 136.125 1.37516 1.37124 0
M  V30 1370 C 133.255 2.73517 2.14022 0
M  V30 1371 C 132.209 3.85769 1.85381 0
M  V30 1372 C 131.535 4.29529 3.18448 0
M  V30 1373 C 132.835 5.09486 1.14984 0
M  V30 1374 H 134.529 2.96914 0.385059 0
M  V30 1375 H 132.075 1.42823 0.18377 0
M  V30 1376 H 134.028 3.13463 2.81636 0
M  V30 1377 H 132.752 1.90252 2.65465 0
M  V30 1378 H 131.411 3.46345 1.20169 0
M  V30 1379 H 131.059 3.43169 3.67755 0
M  V30 1380 H 130.759 5.05204 3.00071 0
M  V30 1381 H 132.283 4.72099 3.8724 0
M  V30 1382 H 133.697 5.46674 1.72687 0
M  V30 1383 H 132.094 5.90515 1.06826 0
M  V30 1384 H 133.164 4.84724 0.130749 0
M  V30 1385 N 134.507 -0.190092 1.56449 0
M  V30 1386 C 135.756 -0.907912 1.80111 0
M  V30 1387 C 136.069 -1.84214 0.657619 0
M  V30 1388 O 137.275 -2.60094 0.778663 0
M  V30 1389 C 135.731 -1.66485 3.19078 0
M  V30 1390 C 135.339 -0.7752 4.41242 0
M  V30 1391 C 137.083 -2.37201 3.52045 0
M  V30 1392 C 134.99 -1.53129 5.71231 0
M  V30 1393 H 133.92 -0.34276 0.671589 0
M  V30 1394 H 136.571 -0.161109 1.82791 0
M  V30 1395 H 134.953 -2.45572 3.10661 0
M  V30 1396 H 136.127 -0.0226298 4.60794 0
M  V30 1397 H 134.442 -0.178627 4.16017 0
M  V30 1398 H 137.039 -2.94329 4.46402 0
M  V30 1399 H 137.382 -3.11632 2.76028 0
M  V30 1400 H 137.915 -1.65075 3.61932 0
M  V30 1401 H 134.654 -0.82967 6.50228 0
M  V30 1402 H 134.174 -2.25767 5.55688 0
M  V30 1403 H 135.853 -2.08377 6.12526 0
M  V30 1404 N 135.985 -1.50799 -0.457987 0
M  V30 1405 C 136.948 -1.7005 -1.53674 0
M  V30 1406 C 137.948 -0.570881 -1.50325 0
M  V30 1407 O 139.138 -0.838126 -1.52712 0
M  V30 1408 C 136.27 -1.73788 -2.93276 0
M  V30 1409 H 137.463 -2.66306 -1.37917 0
M  V30 1410 H 135.016 -1.40477 -0.685271 0
M  V30 1411 H 135.751 -0.792717 -3.14462 0
M  V30 1412 H 135.536 -2.55864 -2.97113 0
M  V30 1413 H 137.026 -1.90591 -3.71571 0
M  V30 1414 N 137.463 0.71206 -1.40597 0
M  V30 1415 C 138.712 1.46754 -1.38369 0
M  V30 1416 C 139.025 1.95598 0.0097839 0
M  V30 1417 O 140.231 2.71059 0.154677 0
M  V30 1418 C 138.687 2.65289 -2.43207 0
M  V30 1419 C 138.295 2.23301 -3.88382 0
M  V30 1420 C 140.039 3.43008 -2.50091 0
M  V30 1421 C 137.946 3.38696 -4.84808 0
M  V30 1422 H 136.876 0.55118 -0.514506 0
M  V30 1423 H 139.527 0.774616 -1.66349 0
M  V30 1424 H 137.909 3.36769 -2.08332 0
M  V30 1425 H 139.083 1.59218 -4.32419 0
M  V30 1426 H 137.398 1.58618 -3.85006 0
M  V30 1427 H 139.995 4.28881 -3.1932 0
M  V30 1428 H 140.338 3.87065 -1.53253 0
M  V30 1429 H 140.871 2.78574 -2.83974 0
M  V30 1430 H 137.61 2.99668 -5.82992 0
M  V30 1431 H 137.13 4.01683 -4.45433 0
M  V30 1432 H 138.809 4.04712 -5.04794 0
M  V30 1433 N 138.941 1.26152 0.944643 0
M  V30 1434 C 140.189 1.11271 1.6871 0
M  V30 1435 C 140.51 -0.345166 1.91921 0
M  V30 1436 O 139.78 -1.24387 1.51343 0
M  V30 1437 H 138.36 0.408783 0.625224 0
M  V30 1438 H 141.022 1.58427 1.1352 0
M  V30 1439 H 140.118 1.62879 2.66227 0
M  V30 1440 N 140.419 -1.14872 1.07899 0
M  V30 1441 C 141.667 -1.85422 0.803941 0
M  V30 1442 C 141.988 -1.83051 -0.67211 0
M  V30 1443 O 141.258 -1.27532 -1.48703 0
M  V30 1444 H 139.838 -0.686537 0.294408 0
M  V30 1445 H 142.5 -1.39226 1.3639 0
M  V30 1446 H 141.596 -2.90399 1.14346 0
M  V30 1447 N 141.898 -0.863906 -1.31812 0
M  V30 1448 C 143.146 -0.470904 -1.96537 0
M  V30 1449 C 143.467 0.978771 -1.68657 0
M  V30 1450 O 142.737 1.6853 -0.998717 0
M  V30 1451 H 141.317 -0.171148 -0.72713 0
M  V30 1452 H 143.979 -1.10236 -1.60729 0
M  V30 1453 H 143.075 -0.623616 -3.05806 0
M  V30 1454 N 143.376 1.44774 -0.622745 0
M  V30 1455 C 144.601 2.06999 -0.128968 0
M  V30 1456 C 145.026 1.4617 1.1839 0
M  V30 1457 O 144.384 0.560007 1.72434 0
M  V30 1458 C 144.432 3.60595 -0.0188351 0
M  V30 1459 O 143.536 3.99398 1.02739 0
M  V30 1460 H 142.877 0.659047 -0.0809544 0
M  V30 1461 H 145.407 1.85784 -0.85705 0
M  V30 1462 H 145.417 4.07627 0.174476 0
M  V30 1463 H 144.092 4.04252 -0.977384 0
M  V30 1464 H 142.669 3.64011 0.809326 0
M  V30 1465 N 144.854 0.36279 1.53368 0
M  V30 1466 C 146.265 -0.117022 1.86333 0
M  V30 1467 C 146.616 -1.48397 1.28347 0
M  V30 1468 O 145.741 -2.07787 0.604428 0
M  V30 1469 C 146.336 -0.21912 3.38091 0
M  V30 1470 C 144.895 -0.643184 3.70864 0
M  V30 1471 C 144.042 0.211318 2.76494 0
M  V30 1472 H 146.993 0.581687 1.47655 0
M  V30 1473 H 147.014 -1.04319 3.6592 0
M  V30 1474 H 146.526 0.775902 3.80265 0
M  V30 1475 H 144.627 -1.64654 3.34245 0
M  V30 1476 H 144.74 -0.41973 4.77258 0
M  V30 1477 H 143.104 -0.319367 2.5269 0
M  V30 1478 H 143.887 1.20383 3.21501 0
M  V30 1479 N 146.332 -1.57332 0.0918853 0
M  V30 1480 C 147.264 -2.10869 -0.898168 0
M  V30 1481 C 148.277 -1.04521 -1.24817 0
M  V30 1482 O 149.466 -1.31977 -1.20184 0
M  V30 1483 C 146.566 -2.57083 -2.2082 0
M  V30 1484 C 145.739 -3.87229 -2.03402 0
M  V30 1485 C 144.798 -4.19324 -3.17889 0
M  V30 1486 O 143.824 -4.88598 -2.91994 0
M  V30 1487 N 145.026 -3.74471 -4.43567 0
M  V30 1488 H 147.791 -2.96439 -0.440943 0
M  V30 1489 H 145.352 -1.61631 -0.0933064 0
M  V30 1490 H 147.344 -2.75602 -2.96354 0
M  V30 1491 H 145.914 -1.76541 -2.57977 0
M  V30 1492 H 145.134 -3.7789 -1.12218 0
M  V30 1493 H 146.422 -4.72379 -1.89038 0
M  V30 1494 H 145.82 -3.18546 -4.67488 0
M  V30 1495 H 144.377 -3.98151 -5.16061 0
M  V30 1496 N 147.81 0.181792 -1.56548 0
M  V30 1497 C 149.087 0.926765 -1.72251 0
M  V30 1498 C 149.467 2.00831 -0.650386 0
M  V30 1499 O 148.815 2.26008 0.336521 0
M  V30 1500 C 149.025 1.50106 -3.1507 0
M  V30 1501 C 150.373 1.97805 -3.75711 0
M  V30 1502 O 151.397 1.59922 -3.18282 0
M  V30 1503 O 150.256 2.67555 -4.76525 0
M  V30 1504 H 147.35 0.435506 -0.703039 0
M  V30 1505 H 149.896 0.170443 -1.68842 0
M  V30 1506 H 148.668 0.72212 -3.84579 0
M  V30 1507 H 148.291 2.32186 -3.22763 0
M  V30 1508 N 149.288 1.51039 0.449983 0
M  V30 1509 C 150.516 1.66869 1.2232 0
M  V30 1510 C 150.931 0.360727 1.85322 0
M  V30 1511 O 150.288 -0.659531 1.70166 0
M  V30 1512 C 150.339 2.77524 2.31652 0
M  V30 1513 O 150.06 4.03252 1.7123 0
M  V30 1514 C 151.561 3.04512 3.2216 0
M  V30 1515 H 148.781 0.560326 0.369155 0
M  V30 1516 H 151.325 1.97385 0.534719 0
M  V30 1517 H 149.48 2.49642 2.96239 0
M  V30 1518 H 149.894 4.64609 2.43389 0
M  V30 1519 H 151.368 3.85551 3.95038 0
M  V30 1520 H 151.845 2.16415 3.8218 0
M  V30 1521 H 152.451 3.34005 2.63288 0
M  V30 1522 N 150.766 -0.704594 1.40972 0
M  V30 1523 C 152.006 -1.47691 1.41304 0
M  V30 1524 C 152.37 -1.91992 0.0178582 0
M  V30 1525 O 153.571 -2.68599 -0.103996 0
M  V30 1526 C 151.842 -2.66254 2.38419 0
M  V30 1527 S 153.401 -3.55516 2.57204 0
M  V30 1528 H 150.219 -0.504808 0.500689 0
M  V30 1529 H 152.821 -0.822962 1.77335 0
M  V30 1530 H 151.525 -2.31897 3.38603 0
M  V30 1531 H 151.056 -3.3655 2.03711 0
M  V30 1532 H 153.071 -4.61115 1.83268 0
M  V30 1533 N 152.244 -1.26651 -0.937939 0
M  V30 1534 C 153.191 -1.0849 -2.03712 0
M  V30 1535 C 154.161 0.011033 -1.66096 0
M  V30 1536 O 155.346 -0.149353 -1.90215 0
M  V30 1537 C 152.486 -0.72735 -3.37348 0
M  V30 1538 C 151.599 -1.89986 -3.87981 0
M  V30 1539 C 150.734 -1.48513 -5.10017 0
M  V30 1540 C 149.773 -2.62575 -5.5292 0
M  V30 1541 N 148.91 -2.21762 -6.66158 0
M  V30 1542 H 153.75 -2.02551 -2.18579 0
M  V30 1543 H 151.287 -1.00844 -1.07093 0
M  V30 1544 H 153.245 -0.50092 -4.14182 0
M  V30 1545 H 151.875 0.176298 -3.22318 0
M  V30 1546 H 150.927 -2.23913 -3.07518 0
M  V30 1547 H 152.239 -2.75586 -4.15757 0
M  V30 1548 H 151.393 -1.21934 -5.94321 0
M  V30 1549 H 150.132 -0.60009 -4.83994 0
M  V30 1550 H 149.137 -2.8988 -4.67172 0
M  V30 1551 H 150.362 -3.51685 -5.80943 0
M  V30 1552 H 148.308 -1.35696 -6.41812 0
M  V30 1553 H 148.225 -3.00903 -6.93537 0
M  V30 1554 H 149.493 -1.98403 -7.53828 0
M  V30 1555 N 153.722 1.14298 -1.08507 0
M  V30 1556 C 154.685 2.17607 -0.719711 0
M  V30 1557 C 155.685 1.58907 0.245997 0
M  V30 1558 O 156.875 1.74181 0.0254081 0
M  V30 1559 C 154.007 3.40842 -0.0627695 0
M  V30 1560 H 155.2 2.51443 -1.63452 0
M  V30 1561 H 152.753 1.28963 -0.88307 0
M  V30 1562 H 153.488 3.12587 0.863716 0
M  V30 1563 H 153.273 3.84713 -0.757504 0
M  V30 1564 H 154.763 4.17221 0.177786 0
M  V30 1565 N 155.201 0.870884 1.31352 0
M  V30 1566 C 156.45 0.478408 1.95944 0
M  V30 1567 C 156.763 -0.974493 1.69597 0
M  V30 1568 O 157.969 -1.47316 2.28058 0
M  V30 1569 C 156.425 0.804609 3.50791 0
M  V30 1570 C 156.033 2.27433 3.85977 0
M  V30 1571 C 157.777 0.480648 4.2177 0
M  V30 1572 C 155.684 2.5429 5.33939 0
M  V30 1573 H 154.614 0.175175 0.733369 0
M  V30 1574 H 157.265 1.06391 1.4951 0
M  V30 1575 H 155.647 0.148347 3.95722 0
M  V30 1576 H 156.821 2.97373 3.52002 0
M  V30 1577 H 155.136 2.56442 3.28065 0
M  V30 1578 H 157.733 0.658519 5.30629 0
M  V30 1579 H 158.076 -0.578979 4.12254 0
M  V30 1580 H 158.609 1.09349 3.82476 0
M  V30 1581 H 155.348 3.58939 5.48491 0
M  V30 1582 H 154.868 1.88945 5.69263 0
M  V30 1583 H 156.547 2.39066 6.01212 0
M  V30 1584 N 156.679 -1.44442 0.630414 0
M  V30 1585 C 157.927 -2.01653 0.134351 0
M  V30 1586 C 158.248 -1.49836 -1.24796 0
M  V30 1587 O 157.518 -0.701684 -1.82902 0
M  V30 1588 H 156.098 -0.74554 0.0466769 0
M  V30 1589 H 158.76 -1.76952 0.816955 0
M  V30 1590 H 157.856 -3.11935 0.101498 0
M  V30 1591 N 158.157 -0.370918 -1.53173 0
M  V30 1592 C 159.406 0.218249 -2.00516 0
M  V30 1593 C 159.719 1.49429 -1.26215 0
M  V30 1594 O 160.925 2.16239 -1.64174 0
M  V30 1595 C 159.381 0.43948 -3.57207 0
M  V30 1596 C 158.989 -0.822244 -4.4039 0
M  V30 1597 C 160.733 0.986012 -4.1289 0
M  V30 1598 C 158.64 -0.570304 -5.88644 0
M  V30 1599 H 157.57 0.0853333 -0.749156 0
M  V30 1600 H 160.221 -0.490483 -1.76823 0
M  V30 1601 H 158.603 1.20961 -3.77074 0
M  V30 1602 H 159.777 -1.59557 -4.32294 0
M  V30 1603 H 158.092 -1.29238 -3.95836 0
M  V30 1604 H 160.689 1.18991 -5.21292 0
M  V30 1605 H 161.032 1.94972 -3.6782 0
M  V30 1606 H 161.565 0.27592 -3.96842 0
M  V30 1607 H 158.304 -1.50449 -6.38001 0
M  V30 1608 H 157.824 0.164427 -5.99575 0
M  V30 1609 H 159.503 -0.19784 -6.46697 0
M  V30 1610 N 159.635 1.57281 -0.100228 0
M  V30 1611 C 160.884 1.93713 0.561984 0
M  V30 1612 C 161.197 0.984492 1.69018 0
M  V30 1613 O 162.403 1.24273 2.41389 0
M  V30 1614 C 160.859 3.4421 1.05106 0
M  V30 1615 C 160.467 4.47975 -0.0476628 0
M  V30 1616 C 162.211 3.89595 1.68571 0
M  V30 1617 C 160.118 5.89631 0.457055 0
M  V30 1618 H 159.048 0.723082 0.2137 0
M  V30 1619 H 161.699 1.82644 -0.177057 0
M  V30 1620 H 160.081 3.50449 1.84395 0
M  V30 1621 H 161.255 4.53385 -0.823333 0
M  V30 1622 H 159.57 4.1223 -0.587816 0
M  V30 1623 H 162.167 4.92832 2.07414 0
M  V30 1624 H 162.51 3.28526 2.55688 0
M  V30 1625 H 163.043 3.86078 0.958562 0
M  V30 1626 H 159.782 6.54411 -0.377616 0
M  V30 1627 H 159.302 5.87681 1.19962 0
M  V30 1628 H 160.981 6.40363 0.92437 0
M  V30 1629 N 161.113 -0.173488 1.56642 0
M  V30 1630 C 162.338 -0.910149 1.86363 0
M  V30 1631 C 162.763 -1.75132 0.686318 0
M  V30 1632 O 162.121 -1.77595 -0.364643 0
M  V30 1633 C 162.169 -1.76447 3.14482 0
M  V30 1634 O 161.273 -2.86584 2.96553 0
M  V30 1635 H 160.614 -0.255086 0.613047 0
M  V30 1636 H 163.144 -0.172283 2.03873 0
M  V30 1637 H 163.154 -2.16483 3.45831 0
M  V30 1638 H 161.829 -1.14658 3.99783 0
M  V30 1639 H 160.406 -2.50146 2.76553 0
M  V30 1640 N 162.591 -1.51276 -0.441967 0
M  V30 1641 C 163.539 -1.72823 -1.55676 0
M  V30 1642 C 164.533 -0.59445 -1.58627 0
M  V30 1643 O 165.739 -0.775715 -1.62427 0
M  V30 1644 H 162.114 -0.545983 -0.517113 0
M  V30 1645 H 164.085 -2.6628 -1.34675 0
M  V30 1646 C 162.834 -1.86619 -2.93375 0
M  V30 1647 H 162.157 -2.73264 -2.91834 0
M  V30 1648 H 163.597 -2.05709 -3.70756 0
M  V30 1649 C 162.056 -0.624842 -3.31055 0
M  V30 1650 O 162.586 0.222636 -4.01083 0
M  V30 1651 N 160.792 -0.470288 -2.86769 0
M  V30 1652 H 160.339 -1.161 -2.29953 0
M  V30 1653 H 160.297 0.359051 -3.12343 0
M  V30 1654 N 164.069 0.697108 -1.41344 0
M  V30 1655 C 165.017 1.83237 -1.43272 0
M  V30 1656 C 166.011 1.66522 -0.310947 0
M  V30 1657 O 167.217 1.73402 -0.482899 0
M  V30 1658 H 163.592 0.603802 -0.448249 0
M  V30 1659 H 165.563 1.78727 -2.38954 0
M  V30 1660 C 164.312 3.21245 -1.33029 0
M  V30 1661 H 163.635 3.34723 -2.18633 0
M  V30 1662 H 165.075 4.00763 -1.38439 0
M  V30 1663 C 163.534 3.36873 -0.0424635 0
M  V30 1664 O 164.064 3.91177 0.913421 0
M  V30 1665 N 162.27 2.90581 0.0331145 0
M  V30 1666 H 161.817 2.46577 -0.745506 0
M  V30 1667 H 161.775 3.01416 0.894199 0
M  V30 1668 N 165.547 1.27147 0.931209 0
M  V30 1669 C 166.958 1.12044 1.49342 0
M  V30 1670 C 167.309 -0.295795 1.93957 0
M  V30 1671 O 166.434 -1.18835 1.80852 0
M  V30 1672 C 167.029 2.02781 2.71414 0
M  V30 1673 C 165.588 1.91794 3.2387 0
M  V30 1674 C 164.735 1.95543 1.96617 0
M  V30 1675 H 167.686 1.40091 0.745672 0
M  V30 1676 H 167.707 1.58156 3.46074 0
M  V30 1677 H 167.219 3.05848 2.38911 0
M  V30 1678 H 165.32 0.916992 3.6114 0
M  V30 1679 H 165.433 2.77852 3.90302 0
M  V30 1680 H 163.797 1.39722 2.12955 0
M  V30 1681 H 164.58 3.00259 1.66432 0
M  V30 1682 N 167.025 -1.13721 1.09112 0
M  V30 1683 C 167.935 -2.22638 0.73957 0
M  V30 1684 C 168.951 -1.72091 -0.257068 0
M  V30 1685 O 170.127 -2.01155 -0.0992154 0
M  V30 1686 C 167.192 -3.46322 0.16191 0
M  V30 1687 C 166.253 -4.11775 1.21408 0
M  V30 1688 C 165.486 -5.29555 0.663891 0
M  V30 1689 O 165.709 -5.68077 -0.514274 0
M  V30 1690 O 164.643 -5.84973 1.41738 0
M  V30 1691 H 168.469 -2.55074 1.64836 0
M  V30 1692 H 166.054 -1.21791 0.865289 0
M  V30 1693 H 167.936 -4.21107 -0.157073 0
M  V30 1694 H 166.611 -3.15593 -0.719932 0
M  V30 1695 H 165.518 -3.3883 1.58571 0
M  V30 1696 H 166.851 -4.46627 2.06845 0
M  V30 1697 N 168.503 -0.877838 -1.30888 0
M  V30 1698 C 169.75 -0.492696 -1.96415 0
M  V30 1699 C 170.078 0.956671 -1.69346 0
M  V30 1700 O 169.333 1.68993 -0.986913 0
M  V30 1701 C 169.632 -0.705748 -3.50363 0
M  V30 1702 C 169.298 -2.1291 -3.97467 0
M  V30 1703 C 167.96 -2.51834 -4.1004 0
M  V30 1704 C 170.312 -3.05702 -4.22132 0
M  V30 1705 C 167.64 -3.82775 -4.44635 0
M  V30 1706 C 169.992 -4.36166 -4.58194 0
M  V30 1707 C 168.656 -4.74993 -4.68975 0
M  V30 1708 H 167.926 -0.18029 -0.718733 0
M  V30 1709 H 170.573 -1.11233 -1.55883 0
M  V30 1710 H 168.878 -0.00303058 -3.918 0
M  V30 1711 H 170.575 -0.387456 -3.99124 0
M  V30 1712 H 167.165 -1.81694 -3.88182 0
M  V30 1713 H 171.349 -2.76853 -4.11906 0
M  V30 1714 H 166.605 -4.12609 -4.51181 0
M  V30 1715 H 170.779 -5.08111 -4.76231 0
M  V30 1716 H 168.406 -5.76495 -4.95537 0
M  V30 1717 N 169.982 1.44106 -0.638065 0
M  V30 1718 C 170.945 2.29138 0.0531013 0
M  V30 1719 C 171.945 1.41409 0.765506 0
M  V30 1720 O 173.135 1.63206 0.609046 0
M  V30 1721 C 170.267 3.23144 1.08584 0
M  V30 1722 H 171.46 2.91739 -0.694883 0
M  V30 1723 H 169.013 1.51134 -0.398538 0
M  V30 1724 H 169.748 2.65408 1.86357 0
M  V30 1725 H 169.533 3.87804 0.578852 0
M  V30 1726 H 171.023 3.87004 1.56899 0
M  V30 1727 N 171.46 0.379036 1.52974 0
M  V30 1728 C 172.737 -0.263479 1.93817 0
M  V30 1729 C 173.117 -1.65244 1.31368 0
M  V30 1730 O 172.465 -2.23448 0.477856 0
M  V30 1731 C 172.675 -0.300166 3.47707 0
M  V30 1732 C 174.023 -0.534061 4.21228 0
M  V30 1733 O 175.047 -0.38081 3.54159 0
M  V30 1734 O 173.906 -0.833501 5.40106 0
M  V30 1735 H 171 -0.161149 0.811147 0
M  V30 1736 H 173.546 0.432798 1.64088 0
M  V30 1737 H 172.318 0.673138 3.85467 0
M  V30 1738 H 171.941 -1.04179 3.83709 0
M  V30 1739 N 172.938 -1.57226 0.108567 0
M  V30 1740 C 174.184 -1.95121 -0.552761 0
M  V30 1741 C 174.517 -0.991345 -1.66991 0
M  V30 1742 O 173.792 -0.0267211 -1.94482 0
M  V30 1743 C 174.075 -3.43039 -1.09528 0
M  V30 1744 C 173.928 -4.49797 0.0177332 0
M  V30 1745 C 175.247 -3.92567 -1.98945 0
M  V30 1746 H 172.366 -0.709496 -0.199461 0
M  V30 1747 H 175.008 -1.89126 0.182011 0
M  V30 1748 H 173.158 -3.48279 -1.72146 0
M  V30 1749 H 174.83 -4.56661 0.652584 0
M  V30 1750 H 173.073 -4.284 0.682309 0
M  V30 1751 H 173.744 -5.50528 -0.402919 0
M  V30 1752 H 176.22 -3.89565 -1.46214 0
M  V30 1753 H 175.096 -4.96605 -2.33827 0
M  V30 1754 H 175.357 -3.32648 -2.91201 0
M  V30 1755 N 174.416 0.165178 -1.56732 0
M  V30 1756 C 175.832 0.517174 -1.50988 0
M  V30 1757 C 176.032 1.84331 -0.813894 0
M  V30 1758 O 175.088 2.49672 -0.37682 0
M  V30 1759 C 176.401 0.544261 -2.95733 0
M  V30 1760 C 177.949 0.631039 -3.06573 0
M  V30 1761 C 178.424 0.68896 -4.52788 0
M  V30 1762 N 179.915 0.751683 -4.5706 0
M  V30 1763 C 180.65 0.817177 -5.67547 0
M  V30 1764 N 180.146 0.843129 -6.8765 0
M  V30 1765 N 181.939 0.856668 -5.55534 0
M  V30 1766 H 174.09 -0.704318 -2.00382 0
M  V30 1767 H 176.353 -0.254687 -0.913148 0
M  V30 1768 H 176.059 -0.361607 -3.49836 0
M  V30 1769 H 175.933 1.3886 -3.5071 0
M  V30 1770 H 178.32 1.52733 -2.52501 0
M  V30 1771 H 178.401 -0.240095 -2.54671 0
M  V30 1772 H 178.045 -0.2031 -5.07494 0
M  V30 1773 H 177.975 1.57633 -5.02454 0
M  V30 1774 H 180.466 0.739661 -3.70591 0
M  V30 1775 H 180.779 0.894448 -7.67606 0
M  V30 1776 H 179.124 0.811304 -6.90248 0
M  V30 1777 H 182.315 0.833437 -4.60621 0
M  V30 1778 H 182.488 0.904247 -6.4166 0
M  V30 1779 N 175.894 1.51508 0.433938 0
M  V30 1780 C 177.119 1.68443 1.21003 0
M  V30 1781 C 177.544 0.382636 1.84167 0
M  V30 1782 O 176.902 -0.65755 1.68956 0
M  V30 1783 C 176.95 2.80405 2.26727 0
M  V30 1784 O 176.054 2.44245 3.32292 0
M  V30 1785 H 175.395 0.561536 0.354363 0
M  V30 1786 H 177.925 1.9809 0.512024 0
M  V30 1787 H 177.935 3.0459 2.71457 0
M  V30 1788 H 176.61 3.74867 1.80132 0
M  V30 1789 H 175.187 2.30644 2.93015 0
M  V30 1790 N 177.372 -0.689602 1.41712 0
M  V30 1791 C 178.302 -1.81577 1.46806 0
M  V30 1792 C 179.283 -1.66945 0.326105 0
M  V30 1793 O 180.468 -1.86588 0.538377 0
M  V30 1794 C 177.598 -3.19762 1.35535 0
M  V30 1795 C 176.552 -3.49107 2.47605 0
M  V30 1796 C 175.878 -4.86711 2.21397 0
M  V30 1797 C 177.178 -3.47483 3.89939 0
M  V30 1798 H 178.872 -1.7757 2.41058 0
M  V30 1799 H 176.418 -0.852887 1.16025 0
M  V30 1800 H 178.371 -3.98263 1.3771 0
M  V30 1801 H 177.095 -3.24409 0.377708 0
M  V30 1802 H 175.754 -2.72959 2.44722 0
M  V30 1803 H 175.402 -4.8799 1.21961 0
M  V30 1804 H 175.102 -5.0731 2.96497 0
M  V30 1805 H 176.626 -5.67515 2.25297 0
M  V30 1806 H 178.04 -4.1598 3.94505 0
M  V30 1807 H 176.437 -3.79615 4.64771 0
M  V30 1808 H 177.507 -2.46341 4.17665 0
M  V30 1809 N 178.85 -1.27639 -0.924453 0
M  V30 1810 C 179.76 -1.12466 -2.05885 0
M  V30 1811 C 180.776 -0.053869 -1.73917 0
M  V30 1812 O 181.952 -0.261012 -1.99702 0
M  V30 1813 C 179.017 -0.776768 -3.37886 0
M  V30 1814 C 178.078 -1.92878 -3.83532 0
M  V30 1815 C 177.311 -1.59739 -5.09234 0
M  V30 1816 O 177.534 -0.506782 -5.68144 0
M  V30 1817 O 176.468 -2.43761 -5.50331 0
M  V30 1818 H 180.294 -2.07671 -2.21599 0
M  V30 1819 H 177.879 -1.06857 -1.04413 0
M  V30 1820 H 179.761 -0.596229 -4.17161 0
M  V30 1821 H 178.436 0.145732 -3.23372 0
M  V30 1822 H 177.343 -2.1644 -3.0513 0
M  V30 1823 H 178.676 -2.8316 -4.02593 0
M  V30 1824 N 180.328 1.1314 -1.09713 0
M  V30 1825 C 181.576 1.84119 -0.833338 0
M  V30 1826 C 181.897 1.84097 0.642904 0
M  V30 1827 O 181.167 1.29881 1.46655 0
M  V30 1828 H 179.747 0.681766 -0.305293 0
M  V30 1829 H 182.409 1.37038 -1.38588 0
M  V30 1830 H 181.505 2.88543 -1.18951 0
M  V30 1831 N 181.806 0.884767 1.30421 0
M  V30 1832 C 182.736 0.367574 2.30589 0
M  V30 1833 C 183.717 -0.549464 1.60981 0
M  V30 1834 O 184.902 -0.46336 1.88591 0
M  V30 1835 C 182.032 -0.418944 3.44764 0
M  V30 1836 C 180.986 0.406316 4.26067 0
M  V30 1837 C 180.312 -0.506793 5.32293 0
M  V30 1838 C 181.612 1.64832 4.95608 0
M  V30 1839 H 183.306 1.20462 2.74097 0
M  V30 1840 H 180.852 0.580695 1.31772 0
M  V30 1841 H 182.805 -0.791395 4.13902 0
M  V30 1842 H 181.529 -1.28964 3.0006 0
M  V30 1843 H 180.188 0.760903 3.58617 0
M  V30 1844 H 179.836 -1.37519 4.83836 0
M  V30 1845 H 179.536 0.0415828 5.87585 0
M  V30 1846 H 181.06 -0.875764 6.04287 0
M  V30 1847 H 182.474 1.34646 5.57264 0
M  V30 1848 H 180.871 2.13688 5.60765 0
M  V30 1849 H 181.941 2.39284 4.21748 0
M  V30 1850 N 183.284 -1.43765 0.645699 0
M  V30 1851 C 184.509 -2.06767 0.161883 0
M  V30 1852 C 184.934 -1.48034 -1.16049 0
M  V30 1853 O 184.292 -0.587369 -1.71522 0
M  V30 1854 C 184.34 -3.60519 0.0762003 0
M  V30 1855 O 183.444 -4.00982 -0.963721 0
M  V30 1856 H 182.785 -0.657675 0.091429 0
M  V30 1857 H 185.315 -1.84397 0.886499 0
M  V30 1858 H 185.325 -4.07853 -0.109604 0
M  V30 1859 H 184 -4.02646 1.04157 0
M  V30 1860 H 182.577 -3.65253 -0.751312 0
M  V30 1861 N 184.763 -0.387143 -1.52771 0
M  V30 1862 C 186.174 0.0873634 -1.86495 0
M  V30 1863 C 186.525 1.46336 -1.30691 0
M  V30 1864 O 185.65 2.068 -0.637409 0
M  V30 1865 C 186.245 0.165305 -3.38396 0
M  V30 1866 C 184.804 0.584101 -3.7184 0
M  V30 1867 C 183.951 -0.255279 -2.76122 0
M  V30 1868 H 186.902 -0.605104 -1.46711 0
M  V30 1869 H 186.923 0.984848 -3.67534 0
M  V30 1870 H 186.435 -0.836301 -3.78982 0
M  V30 1871 H 184.536 1.59315 -3.36823 0
M  V30 1872 H 184.649 0.343749 -4.77865 0
M  V30 1873 H 183.013 0.279126 -2.53166 0
M  V30 1874 H 183.796 -1.25482 -3.19545 0
M  V30 1875 N 186.241 1.57166 -0.116904 0
M  V30 1876 C 187.469 1.99473 0.549383 0
M  V30 1877 C 187.884 0.996541 1.60357 0
M  V30 1878 O 187.241 -0.0108731 1.82497 0
M  V30 1879 C 187.292 3.41788 1.17741 0
M  V30 1880 O 187.013 4.37788 0.165362 0
M  V30 1881 C 188.514 3.99216 1.92722 0
M  V30 1882 H 185.734 0.655009 0.145616 0
M  V30 1883 H 188.278 2.03494 -0.202625 0
M  V30 1884 H 186.433 3.38713 1.88021 0
M  V30 1885 H 186.847 5.20806 0.621403 0
M  V30 1886 H 188.321 5.00882 2.31995 0
M  V30 1887 H 188.798 3.3824 2.80161 0
M  V30 1888 H 189.404 4.0583 1.27209 0
M  V30 1889 N 187.719 -0.156864 1.56817 0
M  V30 1890 C 188.667 -1.21319 1.98455 0
M  V30 1891 C 189.661 -1.45025 0.875444 0
M  V30 1892 O 190.867 -1.45435 1.0606 0
M  V30 1893 H 187.242 -0.408142 0.631605 0
M  V30 1894 H 189.213 -0.835244 2.86472 0
M  V30 1895 C 187.962 -2.54148 2.37285 0
M  V30 1896 H 187.285 -2.36733 3.22176 0
M  V30 1897 H 188.725 -3.26712 2.70251 0
M  V30 1898 C 187.184 -3.13967 1.22173 0
M  V30 1899 O 187.714 -3.98357 0.517149 0
M  V30 1900 N 185.92 -2.7327 0.988536 0
M  V30 1901 H 185.467 -2.04744 1.56326 0
M  V30 1902 H 185.425 -3.13628 0.220209 0
M  V30 1903 N 189.197 -1.51736 -0.425897 0
M  V30 1904 C 190.144 -1.73875 -1.51776 0
M  V30 1905 C 191.114 -0.580702 -1.55618 0
M  V30 1906 O 192.299 -0.81641 -1.72451 0
M  V30 1907 C 189.439 -1.88012 -2.89388 0
M  V30 1908 C 188.552 -3.15606 -2.94986 0
M  V30 1909 C 187.687 -3.20271 -4.23793 0
M  V30 1910 C 186.726 -4.42134 -4.23302 0
M  V30 1911 N 185.863 -4.44284 -5.43651 0
M  V30 1912 H 190.703 -2.67071 -1.32201 0
M  V30 1913 H 188.24 -1.32351 -0.642008 0
M  V30 1914 H 190.198 -1.9419 -3.69251 0
M  V30 1915 H 188.828 -0.98213 -3.07496 0
M  V30 1916 H 187.88 -3.18681 -2.07717 0
M  V30 1917 H 189.192 -4.05486 -2.90486 0
M  V30 1918 H 188.346 -3.25428 -5.12036 0
M  V30 1919 H 187.085 -2.28299 -4.30965 0
M  V30 1920 H 186.09 -4.3714 -3.3345 0
M  V30 1921 H 187.315 -5.35382 -4.17783 0
M  V30 1922 H 185.261 -3.55188 -5.51523 0
M  V30 1923 H 185.178 -5.27988 -5.41078 0
M  V30 1924 H 186.446 -4.53649 -6.33895 0
M  V30 1925 N 190.675 0.682077 -1.42076 0
M  V30 1926 C 192.086 1.26246 -1.37546 0
M  V30 1927 C 192.437 1.96092 -0.0651481 0
M  V30 1928 O 191.562 1.99587 0.836297 0
M  V30 1929 C 192.157 2.29594 -2.49143 0
M  V30 1930 C 190.716 2.83175 -2.47969 0
M  V30 1931 C 189.863 1.57395 -2.28303 0
M  V30 1932 H 192.814 0.475937 -1.51395 0
M  V30 1933 H 192.835 3.11175 -2.18976 0
M  V30 1934 H 192.347 1.78729 -3.44496 0
M  V30 1935 H 190.448 3.3818 -1.56413 0
M  V30 1936 H 190.561 3.32687 -3.44755 0
M  V30 1937 H 188.925 1.83699 -1.76428 0
M  V30 1938 H 189.708 1.08507 -3.25701 0
M  V30 1939 N 192.153 1.28127 0.917671 0
M  V30 1940 C 193.378 1.18007 1.70555 0
M  V30 1941 C 193.803 -0.258257 1.86319 0
M  V30 1942 O 193.161 -1.1869 1.37049 0
M  V30 1943 C 193.209 1.87948 3.07746 0
M  V30 1944 O 192.313 1.18427 3.9503 0
M  V30 1945 H 191.654 0.409867 0.522403 0
M  V30 1946 H 194.184 1.69379 1.1477 0
M  V30 1947 H 194.194 1.95701 3.58001 0
M  V30 1948 H 192.869 2.92573 2.95591 0
M  V30 1949 H 191.446 1.18811 3.53466 0
M  V30 1950 N 193.631 -1.12557 1.10312 0
M  V30 1951 C 194.877 -1.84311 0.846011 0
M  V30 1952 C 195.21 -1.83805 -0.626859 0
M  V30 1953 O 194.485 -1.28268 -1.46211 0
M  V30 1954 C 194.768 -3.32048 1.39341 0
M  V30 1955 C 194.621 -3.41016 2.93305 0
M  V30 1956 C 195.94 -4.27764 1.03468 0
M  V30 1957 H 193.059 -0.669192 0.30879 0
M  V30 1958 H 195.701 -1.32057 1.36605 0
M  V30 1959 H 193.851 -3.76678 0.951087 0
M  V30 1960 H 195.523 -3.05031 3.46055 0
M  V30 1961 H 193.766 -2.81603 3.29973 0
M  V30 1962 H 194.437 -4.44948 3.26689 0
M  V30 1963 H 196.913 -3.91253 1.41633 0
M  V30 1964 H 195.789 -5.29549 1.44463 0
M  V30 1965 H 196.05 -4.42064 -0.0560404 0
M  V30 1966 N 195.109 -0.891671 -1.2995 0
M  V30 1967 C 196.52 -0.563104 -1.78006 0
M  V30 1968 C 196.871 0.920978 -1.73241 0
M  V30 1969 O 195.996 1.71987 -1.31337 0
M  V30 1970 C 196.591 -1.01539 -3.23226 0
M  V30 1971 C 195.15 -0.738124 -3.69092 0
M  V30 1972 C 194.297 -1.19461 -2.50249 0
M  V30 1973 H 197.248 -1.07522 -1.16725 0
M  V30 1974 H 197.269 -0.347217 -3.78912 0
M  V30 1975 H 196.781 -2.09555 -3.26662 0
M  V30 1976 H 194.882 0.329766 -3.71138 0
M  V30 1977 H 194.995 -1.33037 -4.60259 0
M  V30 1978 H 193.359 -0.613787 -2.47194 0
M  V30 1979 H 194.142 -2.28265 -2.56417 0
M  V30 1980 N 196.587 1.43421 -0.653314 0
M  V30 1981 C 197.836 2.01032 -0.164076 0
M  V30 1982 C 198.149 1.52147 1.22926 0
M  V30 1983 O 199.355 2.02031 1.81371 0
M  V30 1984 C 197.811 3.59082 -0.24252 0
M  V30 1985 C 197.419 4.1696 -1.63855 0
M  V30 1986 C 199.163 4.24079 0.18911 0
M  V30 1987 C 197.07 5.67304 -1.67092 0
M  V30 1988 H 196 0.751798 -0.0575769 0
M  V30 1989 H 198.651 1.6439 -0.815362 0
M  V30 1990 H 197.033 3.93125 0.476276 0
M  V30 1991 H 198.207 3.94416 -2.38271 0
M  V30 1992 H 196.522 3.64335 -2.01616 0
M  V30 1993 H 199.119 5.34381 0.184775 0
M  V30 1994 H 199.462 3.98005 1.22056 0
M  V30 1995 H 199.995 3.94918 -0.477938 0
M  V30 1996 H 196.734 5.98145 -2.68146 0
M  V30 1997 H 196.254 5.91904 -0.970014 0
M  V30 1998 H 197.933 6.31344 -1.4147 0
M  V30 1999 N 198.065 0.39524 1.52563 0
M  V30 2000 C 198.995 -0.428384 2.29537 0
M  V30 2001 C 199.976 -1.05831 1.33169 0
M  V30 2002 O 201.161 -1.06995 1.62067 0
M  V30 2003 C 198.291 -1.55274 3.10656 0
M  V30 2004 C 197.245 -1.04855 4.14957 0
M  V30 2005 C 196.571 -2.26543 4.84337 0
M  V30 2006 C 197.871 -0.112324 5.22179 0
M  V30 2007 H 199.565 0.213867 2.98635 0
M  V30 2008 H 197.111 0.104298 1.43622 0
M  V30 2009 H 199.064 -2.1358 3.63265 0
M  V30 2010 H 197.788 -2.22266 2.39302 0
M  V30 2011 H 196.447 -0.487985 3.63338 0
M  V30 2012 H 196.095 -2.92059 4.09525 0
M  V30 2013 H 195.795 -1.93466 5.54837 0
M  V30 2014 H 197.319 -2.85481 5.39753 0
M  V30 2015 H 198.733 -0.603752 5.70112 0
M  V30 2016 H 197.13 0.128968 5.99961 0
M  V30 2017 H 198.2 0.837052 4.77621 0
M  V30 2018 N 199.544 -1.57102 0.125237 0
M  V30 2019 C 200.507 -2.14471 -0.80838 0
M  V30 2020 C 201.507 -1.0811 -1.19033 0
M  V30 2021 O 202.697 -1.33856 -1.11482 0
M  V30 2022 C 199.829 -2.69005 -2.09402 0
M  V30 2023 H 201.022 -2.98297 -0.309696 0
M  V30 2024 H 198.575 -1.55807 -0.124051 0
M  V30 2025 H 199.31 -1.88785 -2.63687 0
M  V30 2026 H 199.095 -3.46799 -1.82957 0
M  V30 2027 H 200.585 -3.13278 -2.76128 0
M  V30 2028 N 201.022 0.148545 -1.56898 0
M  V30 2029 C 202.271 0.85984 -1.82454 0
M  V30 2030 C 202.584 1.82406 -0.706229 0
M  V30 2031 O 203.79 2.57938 -0.847349 0
M  V30 2032 C 202.246 1.57967 -3.2338 0
M  V30 2033 C 201.854 0.65794 -4.43142 0
M  V30 2034 C 203.598 2.27784 -3.58211 0
M  V30 2035 C 201.505 1.3793 -5.75091 0
M  V30 2036 H 200.435 0.324834 -0.68044 0
M  V30 2037 H 203.086 0.112588 -1.83154 0
M  V30 2038 H 201.468 2.37249 -3.17063 0
M  V30 2039 H 202.642 -0.0995497 -4.60692 0
M  V30 2040 H 200.957 0.0682643 -4.16344 0
M  V30 2041 H 203.554 2.8239 -4.54048 0
M  V30 2042 H 203.897 3.04204 -2.84193 0
M  V30 2043 H 204.43 1.55421 -3.66182 0
M  V30 2044 H 201.169 0.656982 -6.52199 0
M  V30 2045 H 200.689 2.10954 -5.61479 0
M  V30 2046 H 202.368 1.92063 -6.17835 0
M  V30 2047 N 202.5 1.5196 0.417844 0
M  V30 2048 C 203.911 1.57851 0.997 0
M  V30 2049 C 204.262 0.413714 1.91789 0
M  V30 2050 O 203.387 -0.467057 2.113 0
M  V30 2051 C 203.982 2.86085 1.81496 0
M  V30 2052 C 202.541 2.94483 2.34428 0
M  V30 2053 C 201.688 2.52707 1.14169 0
M  V30 2054 H 204.639 1.57455 0.198392 0
M  V30 2055 H 204.66 2.70947 2.67148 0
M  V30 2056 H 204.172 3.70842 1.14446 0
M  V30 2057 H 202.273 2.142 3.04875 0
M  V30 2058 H 202.386 3.98546 2.65891 0
M  V30 2059 H 200.75 2.06353 1.49301 0
M  V30 2060 H 201.533 3.39828 0.486999 0
M  V30 2061 N 203.978 -0.674533 1.42435 0
M  V30 2062 C 205.206 -1.46283 1.46317 0
M  V30 2063 C 205.621 -1.88653 0.0745836 0
M  V30 2064 O 204.978 -1.58151 -0.91074 0
M  V30 2065 C 205.029 -2.71178 2.3905 0
M  V30 2066 O 204.75 -2.30586 3.72507 0
M  V30 2067 C 206.251 -3.64738 2.51955 0
M  V30 2068 H 203.471 -0.450104 0.497642 0
M  V30 2069 H 206.015 -0.828792 1.86953 0
M  V30 2070 H 204.17 -3.3077 2.01667 0
M  V30 2071 H 204.584 -3.11241 4.22172 0
M  V30 2072 H 206.058 -4.49096 3.20962 0
M  V30 2073 H 206.535 -4.10656 1.55752 0
M  V30 2074 H 207.141 -3.11038 2.90061 0
M  V30 2075 N 205.456 -1.28612 -0.910864 0
M  V30 2076 C 206.684 -1.18792 -1.69399 0
M  V30 2077 C 207.099 0.253039 -1.87097 0
M  V30 2078 O 206.456 1.17071 -1.40003 0
M  V30 2079 C 206.507 -1.88511 -3.08457 0
M  V30 2080 O 206.228 -3.26979 -2.91576 0
M  V30 2081 C 207.729 -1.85029 -4.02839 0
M  V30 2082 H 204.949 -0.412233 -0.529438 0
M  V30 2083 H 207.493 -1.69788 -1.13984 0
M  V30 2084 H 205.648 -1.41379 -3.60681 0
M  V30 2085 H 206.062 -3.61936 -3.79608 0
M  V30 2086 H 207.536 -2.38395 -4.97867 0
M  V30 2087 H 208.013 -0.823303 -4.31414 0
M  V30 2088 H 208.619 -2.31853 -3.56545 0
M  V30 2089 N 206.934 1.1197 -1.10907 0
M  V30 2090 C 207.897 2.16031 -0.765707 0
M  V30 2091 C 208.897 1.59393 0.212235 0
M  V30 2092 O 210.087 1.74196 -0.0115441 0
M  V30 2093 C 207.219 3.40632 -0.135053 0
M  V30 2094 H 208.412 2.47919 -1.68748 0
M  V30 2095 H 205.965 1.27061 -0.910226 0
M  V30 2096 H 206.7 3.14348 0.797218 0
M  V30 2097 H 206.485 3.8302 -0.838937 0
M  V30 2098 H 207.975 4.17505 0.0892469 0
M  V30 2099 N 208.412 0.89855 1.29475 0
M  V30 2100 C 209.66 0.522847 1.9522 0
M  V30 2101 C 209.981 -0.93371 1.71192 0
M  V30 2102 O 209.251 -1.65823 1.04305 0
M  V30 2103 H 207.831 0.190366 0.722336 0
M  V30 2104 H 210.493 1.14459 1.5775 0
M  V30 2105 H 209.589 0.704476 3.04045 0
M  V30 2106 N 209.89 -1.43072 0.660911 0
M  V30 2107 C 211.118 -2.06067 0.185422 0
M  V30 2108 C 211.533 -1.49582 -1.15198 0
M  V30 2109 O 210.89 -0.630134 -1.71276 0
M  V30 2110 C 210.941 -3.61371 0.0966523 0
M  V30 2111 O 210.662 -4.15758 1.38119 0
M  V30 2112 C 212.163 -4.41455 -0.403996 0
M  V30 2113 H 209.383 -0.664459 0.0934604 0
M  V30 2114 H 211.927 -1.83447 0.90373 0
M  V30 2115 H 210.082 -3.8315 -0.572259 0
M  V30 2116 H 210.496 -5.09499 1.24542 0
M  V30 2117 H 211.97 -5.50437 -0.415045 0
M  V30 2118 H 212.447 -4.15036 -1.43674 0
M  V30 2119 H 213.053 -4.24663 0.232691 0
M  V30 2120 N 211.368 -0.403325 -1.52352 0
M  V30 2121 C 212.331 0.413051 -2.25447 0
M  V30 2122 C 213.331 0.978513 -1.276 0
M  V30 2123 O 214.521 0.858305 -1.51587 0
M  V30 2124 C 211.653 1.58087 -3.02029 0
M  V30 2125 H 212.846 -0.227094 -2.99039 0
M  V30 2126 H 210.399 -0.155722 -1.55522 0
M  V30 2127 H 211.134 2.25804 -2.32772 0
M  V30 2128 H 210.919 1.18195 -3.73861 0
M  V30 2129 H 212.409 2.1585 -3.57489 0
M  V30 2130 N 212.846 1.57033 -0.133567 0
M  V30 2131 C 213.809 2.14897 0.796995 0
M  V30 2132 C 214.809 1.0874 1.18458 0
M  V30 2133 O 215.999 1.34446 1.1077 0
M  V30 2134 C 213.131 2.70112 2.07973 0
M  V30 2135 H 214.324 2.98457 0.293873 0
M  V30 2136 H 211.877 1.55871 0.115787 0
M  V30 2137 H 212.612 1.9018 2.62682 0
M  V30 2138 H 212.397 3.47764 1.81115 0
M  V30 2139 H 213.887 3.14738 2.74462 0
M  V30 2140 N 214.325 -0.140222 1.56975 0
M  V30 2141 C 215.235 -1.19223 2.02047 0
M  V30 2142 C 216.251 -1.46612 0.937062 0
M  V30 2143 O 217.427 -1.58148 1.24704 0
M  V30 2144 C 214.492 -2.50414 2.39778 0
M  V30 2145 C 213.553 -2.30612 3.621 0
M  V30 2146 C 212.786 -3.55547 3.98023 0
M  V30 2147 O 213.009 -4.62004 3.34528 0
M  V30 2148 O 211.943 -3.47808 4.91237 0
M  V30 2149 H 215.769 -0.839559 2.91865 0
M  V30 2150 H 213.354 -0.349453 1.45256 0
M  V30 2151 H 215.236 -3.27747 2.64877 0
M  V30 2152 H 213.911 -2.85198 1.53114 0
M  V30 2153 H 212.818 -1.51207 3.4218 0
M  V30 2154 H 214.151 -2.00741 4.49404 0
M  V30 2155 N 215.803 -1.52179 -0.40978 0
M  V30 2156 C 217.049 -1.66453 -1.15851 0
M  V30 2157 C 217.382 -0.392972 -1.90182 0
M  V30 2158 O 216.657 0.608579 -1.84734 0
M  V30 2159 C 216.94 -2.88612 -2.15349 0
M  V30 2160 C 216.793 -4.25815 -1.44918 0
M  V30 2161 C 218.112 -3.06294 -3.16026 0
M  V30 2162 H 215.231 -0.60575 -0.419805 0
M  V30 2163 H 217.873 -1.84732 -0.444314 0
M  V30 2164 H 216.023 -2.73158 -2.76255 0
M  V30 2165 H 217.695 -4.52995 -0.871365 0
M  V30 2166 H 215.938 -4.27247 -0.751159 0
M  V30 2167 H 216.609 -5.07337 -2.17516 0
M  V30 2168 H 219.085 -3.20641 -2.65195 0
M  V30 2169 H 217.961 -3.93283 -3.8291 0
M  V30 2170 H 218.222 -2.19579 -3.83715 0
M  V30 2171 N 217.281 0.66697 -1.42791 0
M  V30 2172 C 218.509 1.45505 -1.47091 0
M  V30 2173 C 218.924 1.8861 -0.0845873 0
M  V30 2174 O 218.281 1.58632 0.90234 0
M  V30 2175 C 218.332 2.69906 -2.40485 0
M  V30 2176 O 218.053 2.28608 -3.73725 0
M  V30 2177 C 219.554 3.63396 -2.53886 0
M  V30 2178 H 216.774 0.447459 -0.500022 0
M  V30 2179 H 219.318 0.818866 -1.8739 0
M  V30 2180 H 217.473 3.29696 -2.03419 0
M  V30 2181 H 217.887 3.08997 -4.23817 0
M  V30 2182 H 219.361 4.47387 -3.2334 0
M  V30 2183 H 219.838 4.09824 -1.57927 0
M  V30 2184 H 220.444 3.09495 -2.91706 0
M  V30 2185 N 218.759 1.29093 0.90403 0
M  V30 2186 C 220.008 1.16187 1.64874 0
M  V30 2187 C 220.321 -0.286742 1.93487 0
M  V30 2188 O 221.527 -0.537062 2.66135 0
M  V30 2189 C 219.983 2.03177 2.97064 0
M  V30 2190 C 219.591 3.52836 2.76062 0
M  V30 2191 C 221.335 1.98984 3.74974 0
M  V30 2192 C 219.242 4.31945 4.03952 0
M  V30 2193 H 218.172 0.431246 0.618501 0
M  V30 2194 H 220.823 1.53699 1.00243 0
M  V30 2195 H 219.205 1.5853 3.62883 0
M  V30 2196 H 220.379 4.05507 2.18863 0
M  V30 2197 H 218.694 3.58656 2.11553 0
M  V30 2198 H 221.291 2.55351 4.69787 0
M  V30 2199 H 221.634 0.968815 4.0487 0
M  V30 2200 H 222.167 2.41652 3.15989 0
M  V30 2201 H 218.906 5.34667 3.79225 0
M  V30 2202 H 218.426 3.84045 4.60727 0
M  V30 2203 H 220.105 4.42379 4.72133 0
M  V30 2204 N 220.237 -1.11381 1.11499 0
M  V30 2205 C 221.185 -2.19522 0.768956 0
M  V30 2206 C 222.179 -1.67693 -0.239857 0
M  V30 2207 O 223.385 -1.79727 -0.0990755 0
M  V30 2208 H 219.76 -0.715711 0.230786 0
M  V30 2209 H 221.731 -2.45954 1.68964 0
M  V30 2210 C 220.48 -3.46945 0.229073 0
M  V30 2211 H 219.803 -3.8718 0.996596 0
M  V30 2212 H 221.243 -4.23993 0.0251441 0
M  V30 2213 C 219.702 -3.2042 -1.04079 0
M  V30 2214 O 220.232 -3.41178 -2.12038 0
M  V30 2215 N 218.438 -2.74151 -0.963823 0
M  V30 2216 H 217.985 -2.57459 -0.0851722 0
M  V30 2217 H 217.943 -2.56781 -1.81414 0
M  V30 2218 N 221.715 -0.905404 -1.28997 0
M  V30 2219 C 222.945 -0.549049 -1.99171 0
M  V30 2220 C 223.353 0.87203 -1.67906 0
M  V30 2221 O 222.696 1.58796 -0.923561 0
M  V30 2222 C 222.758 -0.668306 -3.53234 0
M  V30 2223 C 222.422 -2.0574 -4.08069 0
M  V30 2224 C 223.419 -3.0292 -4.22534 0
M  V30 2225 C 221.104 -2.36833 -4.42962 0
M  V30 2226 C 223.098 -4.29314 -4.71135 0
M  V30 2227 C 220.785 -3.63467 -4.91258 0
M  V30 2228 C 221.783 -4.59522 -5.053 0
M  V30 2229 O 221.471 -5.83907 -5.52546 0
M  V30 2230 H 221.203 -0.208784 -0.64295 0
M  V30 2231 H 223.757 -1.21836 -1.65363 0
M  V30 2232 H 221.987 0.0580547 -3.86656 0
M  V30 2233 H 223.676 -0.320273 -4.04634 0
M  V30 2234 H 224.442 -2.80216 -3.95859 0
M  V30 2235 H 220.321 -1.62824 -4.31288 0
M  V30 2236 H 223.865 -5.04293 -4.8201 0
M  V30 2237 H 219.762 -3.86 -5.17372 0
M  V30 2238 H 220.53 -5.86578 -5.70849 0
M  V30 2239 N 223.193 1.4272 -0.668489 0
M  V30 2240 C 224.439 2.01923 -0.188419 0
M  V30 2241 C 224.772 1.52704 1.19979 0
M  V30 2242 O 224.047 0.726566 1.8042 0
M  V30 2243 C 224.33 3.59451 -0.216085 0
M  V30 2244 C 224.183 4.18864 -1.6393 0
M  V30 2245 C 225.502 4.37903 0.439179 0
M  V30 2246 H 222.621 0.733674 -0.0699412 0
M  V30 2247 H 225.263 1.69822 -0.852076 0
M  V30 2248 H 223.413 3.86929 0.349012 0
M  V30 2249 H 225.085 4.02362 -2.25616 0
M  V30 2250 H 223.328 3.74933 -2.18193 0
M  V30 2251 H 223.999 5.27987 -1.61039 0
M  V30 2252 H 226.475 4.16079 -0.0417878 0
M  V30 2253 H 225.351 5.47519 0.389157 0
M  V30 2254 H 225.612 4.15303 1.51577 0
M  V30 2255 N 224.671 0.411399 1.52136 0
M  V30 2256 C 225.92 -0.165009 2.01024 0
M  V30 2257 C 226.233 -1.4603 1.30133 0
M  V30 2258 O 227.439 -2.1181 1.69849 0
M  V30 2259 C 225.895 -0.344618 3.58246 0
M  V30 2260 C 225.503 0.938716 4.38055 0
M  V30 2261 C 227.247 -0.876195 4.15359 0
M  V30 2262 C 225.154 0.726172 5.86925 0
M  V30 2263 H 224.084 -0.0654407 0.751155 0
M  V30 2264 H 226.735 0.537192 1.75461 0
M  V30 2265 H 225.117 -1.10921 3.80148 0
M  V30 2266 H 226.291 1.70963 4.27912 0
M  V30 2267 H 224.606 1.39688 3.92271 0
M  V30 2268 H 227.203 -1.05128 5.24263 0
M  V30 2269 H 227.546 -1.85152 3.7286 0
M  V30 2270 H 228.079 -0.170607 3.97434 0
M  V30 2271 H 224.818 1.67312 6.33788 0
M  V30 2272 H 224.338 -0.00540283 5.998 0
M  V30 2273 H 226.017 0.369231 6.45946 0
M  V30 2274 N 226.149 -1.5696 0.141893 0
M  V30 2275 C 227.377 -2.00322 -0.517579 0
M  V30 2276 C 227.792 -1.02193 -1.58752 0
M  V30 2277 O 227.149 -0.0181619 -1.82491 0
M  V30 2278 C 227.2 -3.43618 -1.12289 0
M  V30 2279 O 226.921 -4.37995 -0.0956929 0
M  V30 2280 C 228.422 -4.02231 -1.86347 0
M  V30 2281 H 225.642 -0.657243 -0.135177 0
M  V30 2282 H 228.186 -2.03146 0.234973 0
M  V30 2283 H 226.341 -3.41662 -1.82609 0
M  V30 2284 H 226.755 -5.21729 -0.538469 0
M  V30 2285 H 228.229 -5.04509 -2.23997 0
M  V30 2286 H 228.706 -3.42655 -2.74744 0
M  V30 2287 H 229.312 -4.07802 -1.20737 0
M  V30 2288 N 227.627 0.131896 -1.57047 0
M  V30 2289 C 228.904 0.871495 -1.75112 0
M  V30 2290 C 229.284 1.9866 -0.713949 0
M  V30 2291 O 228.632 2.26965 0.264447 0
M  V30 2292 C 228.842 1.40007 -3.19686 0
M  V30 2293 C 230.19 1.85752 -3.81813 0
M  V30 2294 O 231.214 1.49715 -3.23209 0
M  V30 2295 O 230.073 2.5226 -4.84796 0
M  V30 2296 H 227.167 0.412919 -0.716538 0
M  V30 2297 H 229.713 0.116641 -1.69299 0
M  V30 2298 H 228.485 0.599404 -3.86682 0
M  V30 2299 H 228.108 2.218 -3.29986 0
M  V30 2300 N 229.106 1.52395 0.401703 0
M  V30 2301 C 230.016 1.7917 1.51444 0
M  V30 2302 C 231.032 0.677691 1.6026 0
M  V30 2303 O 232.208 0.963909 1.76835 0
M  V30 2304 C 229.273 1.94347 2.87107 0
M  V30 2305 C 228.334 3.18257 2.88116 0
M  V30 2306 C 227.567 3.32701 4.17308 0
M  V30 2307 O 227.79 2.52238 5.11598 0
M  V30 2308 O 226.724 4.25891 4.25324 0
M  V30 2309 H 230.55 2.73633 1.31752 0
M  V30 2310 H 228.135 1.3733 0.588296 0
M  V30 2311 H 230.017 2.06109 3.67555 0
M  V30 2312 H 228.692 1.03073 3.06851 0
M  V30 2313 H 227.599 3.11947 2.06494 0
M  V30 2314 H 228.932 4.09336 2.73322 0
M  V30 2315 N 230.584 -0.659388 1.43143 0
M  V30 2316 C 231.494 -1.80167 1.50256 0
M  V30 2317 C 232.51 -1.69571 0.390106 0
M  V30 2318 O 233.686 -1.90849 0.643319 0
M  V30 2319 C 230.751 -3.16409 1.41725 0
M  V30 2320 C 229.812 -3.38848 2.63591 0
M  V30 2321 C 229.045 -4.68591 2.55458 0
M  V30 2322 O 229.268 -5.47532 1.59891 0
M  V30 2323 O 228.202 -4.92614 3.45854 0
M  V30 2324 H 232.028 -1.77121 2.46702 0
M  V30 2325 H 229.613 -0.817092 1.25076 0
M  V30 2326 H 231.495 -3.9768 1.39387 0
M  V30 2327 H 230.17 -3.20059 0.484118 0
M  V30 2328 H 229.077 -2.57366 2.71502 0
M  V30 2329 H 230.41 -3.4004 3.55856 0
M  V30 2330 N 232.062 -1.29571 -0.897171 0
M  V30 2331 C 233.009 -1.14916 -2.00158 0
M  V30 2332 C 233.979 -0.0418149 -1.66047 0
M  V30 2333 O 235.164 -0.209793 -1.89643 0
M  V30 2334 C 232.304 -0.834307 -3.34863 0
M  V30 2335 C 231.417 -2.02234 -3.8174 0
M  V30 2336 C 230.552 -1.64664 -5.05034 0
M  V30 2337 C 229.591 -2.80033 -5.44286 0
M  V30 2338 N 228.728 -2.42843 -6.58765 0
M  V30 2339 H 233.568 -2.09403 -2.12025 0
M  V30 2340 H 231.105 -1.042 -1.0383 0
M  V30 2341 H 233.063 -0.632436 -4.12379 0
M  V30 2342 H 231.693 0.0736656 -3.22716 0
M  V30 2343 H 230.745 -2.33583 -3.00238 0
M  V30 2344 H 232.057 -2.88673 -4.06779 0
M  V30 2345 H 231.211 -1.4078 -5.9014 0
M  V30 2346 H 229.95 -0.753766 -4.8184 0
M  V30 2347 H 228.955 -3.04596 -4.57713 0
M  V30 2348 H 230.18 -3.69989 -5.6946 0
M  V30 2349 H 228.126 -1.56046 -6.3717 0
M  V30 2350 H 228.043 -3.22815 -6.83613 0
M  V30 2351 H 229.311 -2.22285 -7.47134 0
M  V30 2352 N 233.54 1.10788 -1.12088 0
M  V30 2353 C 234.956 1.34691 -0.856186 0
M  V30 2354 C 235.156 1.94791 0.515615 0
M  V30 2355 O 234.212 2.18524 1.26505 0
M  V30 2356 C 235.525 2.27208 -1.9697 0
M  V30 2357 C 237.073 2.40755 -2.00016 0
M  V30 2358 C 237.548 3.36598 -3.1059 0
M  V30 2359 N 239.039 3.44164 -3.10008 0
M  V30 2360 C 239.774 4.18284 -3.92206 0
M  V30 2361 N 239.27 4.95322 -4.84384 0
M  V30 2362 N 241.063 4.13865 -3.80357 0
M  V30 2363 H 233.214 0.70144 -2.00483 0
M  V30 2364 H 235.477 0.371405 -0.872217 0
M  V30 2365 H 235.183 1.90251 -2.958 0
M  V30 2366 H 235.057 3.27485 -1.87172 0
M  V30 2367 H 237.444 2.76982 -1.01808 0
M  V30 2368 H 237.525 1.40305 -2.13888 0
M  V30 2369 H 237.169 3.01096 -4.09028 0
M  V30 2370 H 237.099 4.36918 -2.93956 0
M  V30 2371 H 239.59 2.8922 -2.43228 0
M  V30 2372 H 239.903 5.49267 -5.43623 0
M  V30 2373 H 238.248 4.94459 -4.884 0
M  V30 2374 H 241.439 3.52773 -3.07683 0
M  V30 2375 H 241.612 4.71372 -4.44649 0
M  V30 2376 N 235.018 0.912232 1.28515 0
M  V30 2377 C 236.434 0.610159 1.47476 0
M  V30 2378 C 236.634 -0.844955 1.82928 0
M  V30 2379 O 235.69 -1.62416 1.93332 0
M  V30 2380 C 237.003 1.54675 2.57868 0
M  V30 2381 C 238.551 1.55331 2.71738 0
M  V30 2382 C 239.026 2.47649 3.85272 0
M  V30 2383 N 240.517 2.45767 3.92623 0
M  V30 2384 C 241.252 3.13896 4.79851 0
M  V30 2385 N 240.748 3.9135 5.71679 0
M  V30 2386 N 242.541 3.02991 4.73448 0
M  V30 2387 H 234.692 1.85318 1.03783 0
M  V30 2388 H 236.955 0.794777 0.516753 0
M  V30 2389 H 236.661 2.5841 2.38574 0
M  V30 2390 H 236.535 1.27671 3.54937 0
M  V30 2391 H 238.922 0.52335 2.90422 0
M  V30 2392 H 239.003 1.86378 1.75205 0
M  V30 2393 H 238.647 3.50745 3.67342 0
M  V30 2394 H 238.577 2.13904 4.81199 0
M  V30 2395 H 241.068 1.89503 3.26951 0
M  V30 2396 H 241.381 4.40359 6.35062 0
M  V30 2397 H 239.726 3.95455 5.71524 0
M  V30 2398 H 242.917 2.41987 4.007 0
M  V30 2399 H 243.09 3.5636 5.41213 0
M  V30 2400 N 236.496 -1.42363 0.676048 0
M  V30 2401 C 237.443 -2.308 -0.00150904 0
M  V30 2402 C 238.413 -1.46032 -0.791444 0
M  V30 2403 O 239.598 -1.74861 -0.76344 0
M  V30 2404 C 236.738 -3.31883 -0.945919 0
M  V30 2405 C 235.851 -4.31741 -0.149675 0
M  V30 2406 C 234.986 -5.19898 -1.08995 0
M  V30 2407 C 234.025 -6.11434 -0.285465 0
M  V30 2408 N 233.162 -6.92138 -1.17851 0
M  V30 2409 H 238.002 -2.88187 0.758455 0
M  V30 2410 H 235.539 -1.41952 0.38576 0
M  V30 2411 H 237.497 -3.89019 -1.50731 0
M  V30 2412 H 236.127 -2.76093 -1.6725 0
M  V30 2413 H 235.179 -3.76713 0.528359 0
M  V30 2414 H 236.491 -4.96534 0.474866 0
M  V30 2415 H 235.645 -5.81772 -1.72123 0
M  V30 2416 H 234.384 -4.55284 -1.74837 0
M  V30 2417 H 233.389 -5.48627 0.359018 0
M  V30 2418 H 234.614 -6.78097 0.368883 0
M  V30 2419 H 232.56 -6.30152 -1.82332 0
M  V30 2420 H 232.477 -7.53542 -0.609082 0
M  V30 2421 H 233.745 -7.58499 -1.79722 0
M  V30 2422 N 237.974 -0.419461 -1.51915 0
M  V30 2423 C 239.221 0.152939 -2.01922 0
M  V30 2424 C 239.549 1.4426 -1.30458 0
M  V30 2425 O 238.804 1.91514 -0.402593 0
M  V30 2426 C 239.103 0.437067 -3.54717 0
M  V30 2427 C 238.769 -0.764632 -4.44369 0
M  V30 2428 C 237.431 -1.09423 -4.68594 0
M  V30 2429 C 239.783 -1.56713 -4.97082 0
M  V30 2430 C 237.111 -2.22732 -5.42777 0
M  V30 2431 C 239.463 -2.69107 -5.72507 0
M  V30 2432 C 238.127 -3.02541 -5.95 0
M  V30 2433 H 237.397 0.0559644 -0.738884 0
M  V30 2434 H 240.044 -0.562998 -1.83037 0
M  V30 2435 H 238.349 1.23469 -3.71837 0
M  V30 2436 H 240.046 0.893083 -3.90928 0
M  V30 2437 H 236.636 -0.497775 -4.257 0
M  V30 2438 H 240.82 -1.32571 -4.78266 0
M  V30 2439 H 236.076 -2.48971 -5.58411 0
M  V30 2440 H 240.25 -3.31671 -6.12346 0
M  V30 2441 H 237.877 -3.90457 -6.52264 0
M  V30 2442 N 239.452 1.56882 -0.150215 0
M  V30 2443 C 240.698 1.96518 0.500834 0
M  V30 2444 C 241.031 1.03527 1.64304 0
M  V30 2445 O 240.306 0.0782751 1.94342 0
M  V30 2446 C 240.589 3.45822 1.00395 0
M  V30 2447 C 240.442 4.49591 -0.136983 0
M  V30 2448 C 241.761 3.97704 1.88467 0
M  V30 2449 H 238.88 0.714535 0.18058 0
M  V30 2450 H 241.522 1.88577 -0.232091 0
M  V30 2451 H 239.672 3.5272 1.62851 0
M  V30 2452 H 241.344 4.5477 -0.77343 0
M  V30 2453 H 239.587 4.26441 -0.795652 0
M  V30 2454 H 240.258 5.51402 0.256815 0
M  V30 2455 H 242.734 3.93304 1.35834 0
M  V30 2456 H 241.61 5.0263 2.20578 0
M  V30 2457 H 241.871 3.40252 2.82279 0
M  V30 2458 N 240.93 -0.123565 1.57115 0
M  V30 2459 C 242.17 -0.838097 1.86428 0
M  V30 2460 C 242.534 -1.77266 0.737611 0
M  V30 2461 O 243.735 -2.52842 0.912389 0
M  V30 2462 C 242.006 -1.57219 3.20962 0
M  V30 2463 S 243.565 -2.32893 3.71896 0
M  V30 2464 H 240.383 -0.279811 0.653626 0
M  V30 2465 H 242.985 -0.0967034 1.95261 0
M  V30 2466 H 241.689 -0.877522 4.00909 0
M  V30 2467 H 241.22 -2.35405 3.15195 0
M  V30 2468 H 243.235 -3.5853 3.43032 0
M  V30 2469 N 242.408 -1.52605 -0.393616 0
M  V30 2470 C 243.654 -1.67672 -1.14079 0
M  V30 2471 C 243.987 -0.413121 -1.89755 0
M  V30 2472 O 243.262 0.588952 -1.85369 0
M  V30 2473 C 243.545 -2.9088 -2.12276 0
M  V30 2474 C 243.398 -4.27329 -1.40394 0
M  V30 2475 C 244.717 -3.09628 -3.12759 0
M  V30 2476 H 241.836 -0.610168 -0.413356 0
M  V30 2477 H 244.478 -1.85193 -0.424696 0
M  V30 2478 H 242.628 -2.76073 -2.73342 0
M  V30 2479 H 244.3 -4.53894 -0.82327 0
M  V30 2480 H 242.543 -4.2802 -0.705801 0
M  V30 2481 H 243.214 -5.09615 -2.12123 0
M  V30 2482 H 245.69 -3.23436 -2.61779 0
M  V30 2483 H 244.566 -3.97322 -3.78717 0
M  V30 2484 H 244.827 -2.23637 -3.81365 0
M  V30 2485 N 243.887 0.651787 -1.4349 0
M  V30 2486 C 245.164 1.40909 -1.35661 0
M  V30 2487 C 245.544 2.11099 -0.00511733 0
M  V30 2488 O 244.892 2.04892 1.0115 0
M  V30 2489 C 245.102 2.3926 -2.54078 0
M  V30 2490 C 246.45 3.03217 -2.97228 0
M  V30 2491 O 247.474 2.49588 -2.54135 0
M  V30 2492 O 246.333 4.00455 -3.71885 0
M  V30 2493 H 243.427 0.629625 -0.536191 0
M  V30 2494 H 245.973 0.678575 -1.55542 0
M  V30 2495 H 244.745 1.86352 -3.44076 0
M  V30 2496 H 244.368 3.1976 -2.36303 0
M  V30 2497 N 245.365 1.30045 0.890287 0
M  V30 2498 C 246.776 1.16738 1.45702 0
M  V30 2499 C 247.127 -0.233939 1.948 0
M  V30 2500 O 246.252 -1.13021 1.84541 0
M  V30 2501 C 246.847 2.11313 2.64825 0
M  V30 2502 C 245.406 2.02001 3.17604 0
M  V30 2503 C 244.553 2.01699 1.90296 0
M  V30 2504 H 247.504 1.42392 0.700726 0
M  V30 2505 H 247.525 1.69086 3.40867 0
M  V30 2506 H 247.037 3.13294 2.2906 0
M  V30 2507 H 245.138 1.03142 3.5804 0
M  V30 2508 H 245.251 2.90128 3.81264 0
M  V30 2509 H 243.615 1.46427 2.08402 0
M  V30 2510 H 244.398 3.05402 1.56795 0
M  V30 2511 N 246.843 -1.10192 1.12674 0
M  V30 2512 C 247.793 -2.14754 0.765801 0
M  V30 2513 C 248.777 -1.59154 -0.236409 0
M  V30 2514 O 249.969 -1.76951 -0.0415261 0
M  V30 2515 C 247.098 -3.42563 0.224827 0
M  V30 2516 C 246.184 -4.05091 1.25548 0
M  V30 2517 N 246.575 -4.42287 2.4539 0
M  V30 2518 C 244.873 -4.32186 1.10142 0
M  V30 2519 C 245.574 -4.91441 3.11224 0
M  V30 2520 N 244.55 -4.88405 2.38666 0
M  V30 2521 H 248.352 -2.41309 1.67772 0
M  V30 2522 H 245.866 -1.27339 1.00789 0
M  V30 2523 H 247.863 -4.16868 -0.0519578 0
M  V30 2524 H 246.523 -3.17467 -0.681515 0
M  V30 2525 H 247.534 -4.33902 2.82754 0
M  V30 2526 H 244.211 -4.16735 0.252587 0
M  V30 2527 H 245.601 -5.29749 4.13298 0
M  V30 2528 N 248.321 -0.919034 -1.28029 0
M  V30 2529 C 249.598 -0.473668 -1.89778 0
M  V30 2530 C 249.978 1.04783 -1.83259 0
M  V30 2531 O 249.326 1.8982 -1.27202 0
M  V30 2532 C 249.536 -1.00998 -3.34066 0
M  V30 2533 C 250.884 -1.06525 -4.1102 0
M  V30 2534 O 251.908 -0.958996 -3.43048 0
M  V30 2535 O 250.767 -1.22776 -5.3253 0
M  V30 2536 H 247.861 -0.15098 -0.813101 0
M  V30 2537 H 250.407 -1.01016 -1.36359 0
M  V30 2538 H 249.179 -2.05392 -3.33061 0
M  V30 2539 H 248.802 -0.454626 -3.94992 0
M  V30 2540 N 249.799 1.42003 -0.683588 0
M  V30 2541 C 251.048 2.00638 -0.206681 0
M  V30 2542 C 251.361 1.5472 1.19671 0
M  V30 2543 O 252.567 2.05833 1.77045 0
M  V30 2544 C 251.023 3.58487 -0.318632 0
M  V30 2545 C 250.631 4.1339 -1.72663 0
M  V30 2546 C 252.375 4.24384 0.0991141 0
M  V30 2547 C 250.282 5.63633 -1.79087 0
M  V30 2548 H 249.212 0.750408 -0.0735107 0
M  V30 2549 H 251.863 1.62624 -0.850048 0
M  V30 2550 H 250.245 3.94047 0.392781 0
M  V30 2551 H 251.419 3.89273 -2.46583 0
M  V30 2552 H 249.734 3.59976 -2.09299 0
M  V30 2553 H 252.331 5.34652 0.0713833 0
M  V30 2554 H 252.674 4.00505 1.13586 0
M  V30 2555 H 253.207 3.93816 -0.561599 0
M  V30 2556 H 249.946 5.92323 -2.80774 0
M  V30 2557 H 249.466 5.89714 -1.09535 0
M  V30 2558 H 251.145 6.28201 -1.5483 0
M  V30 2559 N 251.277 0.427512 1.51691 0
M  V30 2560 C 252.688 -0.0378867 1.86662 0
M  V30 2561 C 253.039 -1.42819 1.34525 0
M  V30 2562 O 252.164 -2.05037 0.692014 0
M  V30 2563 C 252.759 -0.0755266 3.38716 0
M  V30 2564 C 251.318 -0.485309 3.73258 0
M  V30 2565 C 250.465 0.328399 2.75349 0
M  V30 2566 H 253.416 0.64379 1.45055 0
M  V30 2567 H 253.437 -0.887056 3.70016 0
M  V30 2568 H 252.949 0.936487 3.76632 0
M  V30 2569 H 251.05 -1.50329 3.40928 0
M  V30 2570 H 251.163 -0.21693 4.78609 0
M  V30 2571 H 249.527 -0.211905 2.53817 0
M  V30 2572 H 250.31 1.3391 3.16106 0
M  V30 2573 N 252.755 -1.56801 0.158532 0
M  V30 2574 C 253.687 -2.14488 -0.807923 0
M  V30 2575 C 254.7 -1.09721 -1.20271 0
M  V30 2576 O 255.889 -1.36956 -1.14478 0
M  V30 2577 C 252.989 -2.66217 -2.09718 0
M  V30 2578 C 252.162 -3.95507 -1.86796 0
M  V30 2579 C 251.221 -4.3243 -2.99818 0
M  V30 2580 O 250.247 -5.00543 -2.71008 0
M  V30 2581 N 251.449 -3.92947 -4.27285 0
M  V30 2582 H 254.214 -2.98042 -0.314816 0
M  V30 2583 H 251.775 -1.61881 -0.0246692 0
M  V30 2584 H 253.767 -2.87924 -2.84398 0
M  V30 2585 H 252.337 -1.87324 -2.50257 0
M  V30 2586 H 251.557 -3.82309 -0.96089 0
M  V30 2587 H 252.845 -4.79972 -1.68833 0
M  V30 2588 H 252.243 -3.38087 -4.53557 0
M  V30 2589 H 250.8 -4.19681 -4.9871 0
M  V30 2590 N 254.233 0.115231 -1.57178 0
M  V30 2591 C 255.479 0.82357 -1.85325 0
M  V30 2592 C 255.812 1.79349 -0.744814 0
M  V30 2593 O 255.087 1.92899 0.249024 0
M  V30 2594 C 255.37 1.57014 -3.24066 0
M  V30 2595 C 255.223 0.619565 -4.45513 0
M  V30 2596 C 256.542 2.52545 -3.60429 0
M  V30 2597 H 253.661 0.297948 -0.674089 0
M  V30 2598 H 256.303 0.0877138 -1.89797 0
M  V30 2599 H 254.453 2.19742 -3.20383 0
M  V30 2600 H 256.125 0.000837639 -4.613 0
M  V30 2601 H 254.368 -0.0686174 -4.33746 0
M  V30 2602 H 255.039 1.17866 -5.3927 0
M  V30 2603 H 257.515 1.9992 -3.64926 0
M  V30 2604 H 256.391 3.01811 -4.58477 0
M  V30 2605 H 256.652 3.35383 -2.88047 0
M  V30 2606 N 255.711 1.52812 0.385517 0
M  V30 2607 C 256.674 1.77188 1.45386 0
M  V30 2608 C 257.674 0.641953 1.4743 0
M  V30 2609 O 258.864 0.910033 1.4854 0
M  V30 2610 C 255.996 1.87582 2.8465 0
M  V30 2611 H 257.189 2.72583 1.25054 0
M  V30 2612 H 254.742 1.43586 0.617467 0
M  V30 2613 H 255.477 0.941849 3.10322 0
M  V30 2614 H 255.262 2.69748 2.84567 0
M  V30 2615 H 256.752 2.08102 3.62054 0
M  V30 2616 N 257.189 -0.644168 1.43834 0
M  V30 2617 C 258.436 -1.40395 1.4593 0
M  V30 2618 C 258.764 -1.94305 0.0869658 0
M  V30 2619 O 258.019 -1.73288 -0.909378 0
M  V30 2620 C 258.318 -2.59615 2.45631 0
M  V30 2621 C 257.984 -2.2407 3.91284 0
M  V30 2622 C 256.646 -2.14089 4.30952 0
M  V30 2623 C 258.998 -1.95775 4.83034 0
M  V30 2624 C 256.326 -1.73981 5.6031 0
M  V30 2625 C 258.678 -1.57163 6.12766 0
M  V30 2626 C 257.342 -1.45713 6.51402 0
M  V30 2627 H 256.612 -0.513741 0.533995 0
M  V30 2628 H 259.259 -0.731724 1.76969 0
M  V30 2629 H 257.564 -3.32011 2.08028 0
M  V30 2630 H 259.261 -3.17834 2.44504 0
M  V30 2631 H 255.851 -2.32753 3.59895 0
M  V30 2632 H 260.035 -2.02403 4.53152 0
M  V30 2633 H 255.291 -1.63709 5.89075 0
M  V30 2634 H 259.465 -1.34303 6.83327 0
M  V30 2635 H 257.092 -1.14406 7.51542 0
M  V30 2636 N 258.668 -1.30515 -0.883378 0
M  V30 2637 C 259.917 -1.18795 -1.63005 0
M  V30 2638 C 260.23 0.255923 -1.93919 0
M  V30 2639 O 261.436 0.494654 -2.66956 0
M  V30 2640 C 259.892 -2.07878 -2.93794 0
M  V30 2641 C 259.5 -3.57184 -2.70414 0
M  V30 2642 C 261.244 -2.04924 -3.71761 0
M  V30 2643 C 259.151 -4.38317 -3.97029 0
M  V30 2644 H 258.081 -0.441031 -0.611562 0
M  V30 2645 H 260.732 -1.55275 -0.977854 0
M  V30 2646 H 259.114 -1.64283 -3.60315 0
M  V30 2647 H 260.288 -4.08937 -2.12384 0
M  V30 2648 H 258.603 -3.61976 -2.0582 0
M  V30 2649 H 261.2 -2.62792 -4.65665 0
M  V30 2650 H 261.543 -1.0331 -4.03277 0
M  V30 2651 H 262.076 -2.46649 -3.12104 0
M  V30 2652 H 258.815 -5.40632 -3.70671 0
M  V30 2653 H 258.335 -3.91326 -4.54559 0
M  V30 2654 H 260.014 -4.49834 -4.65036 0
M  V30 2655 N 260.146 1.09593 -1.13257 0
M  V30 2656 C 261.423 1.78293 -0.804432 0
M  V30 2657 C 261.803 1.99004 0.70431 0
M  V30 2658 O 261.151 1.59007 1.641 0
M  V30 2659 C 261.361 3.10707 -1.5894 0
M  V30 2660 C 262.709 3.85443 -1.78099 0
M  V30 2661 O 263.733 3.20454 -1.55525 0
M  V30 2662 O 262.592 5.02108 -2.15753 0
M  V30 2663 H 259.686 0.773156 -0.293528 0
M  V30 2664 H 262.232 1.16164 -1.23709 0
M  V30 2665 H 261.004 2.91106 -2.61482 0
M  V30 2666 H 260.627 3.80558 -1.15157 0
M  V30 2667 N 261.624 0.925811 1.2754 0
M  V30 2668 C 262.587 0.428129 2.25166 0
M  V30 2669 C 263.587 -0.452261 1.54309 0
M  V30 2670 O 264.777 -0.253608 1.72344 0
M  V30 2671 C 261.909 -0.384749 3.38722 0
M  V30 2672 H 263.102 1.29066 2.70706 0
M  V30 2673 H 260.655 0.706323 1.3943 0
M  V30 2674 H 261.39 -1.26618 2.98561 0
M  V30 2675 H 261.175 0.246454 3.91325 0
M  V30 2676 H 262.665 -0.723389 4.11287 0
M  V30 2677 N 263.102 -1.41638 0.69111 0
M  V30 2678 C 264.379 -1.95036 0.148421 0
M  V30 2679 C 264.759 -1.63072 -1.34055 0
M  V30 2680 O 264.107 -0.93538 -2.08478 0
M  V30 2681 C 264.317 -3.46279 0.434951 0
M  V30 2682 C 265.665 -4.23069 0.360275 0
M  V30 2683 O 266.689 -3.54277 0.369613 0
M  V30 2684 O 265.548 -5.45583 0.316534 0
M  V30 2685 H 262.642 -0.826908 0.0123654 0
M  V30 2686 H 265.188 -1.5138 0.766963 0
M  V30 2687 H 263.96 -3.6281 1.46576 0
M  V30 2688 H 263.583 -3.97019 -0.214787 0
M  V30 2689 N 264.58 -0.43555 -1.51462 0
M  V30 2690 C 265.513 0.421989 -2.24264 0
M  V30 2691 C 266.491 1.02619 -1.26127 0
M  V30 2692 O 267.675 1.069 -1.55257 0
M  V30 2693 C 264.802 1.588 -2.99166 0
M  V30 2694 C 263.848 1.10465 -4.11946 0
M  V30 2695 S 264.681 0.048146 -5.35478 0
M  V30 2696 C 265.837 1.21887 -6.13917 0
M  V30 2697 H 266.07 -0.196102 -2.96653 0
M  V30 2698 H 263.603 -0.220054 -1.52824 0
M  V30 2699 H 265.561 2.25647 -3.42919 0
M  V30 2700 H 264.222 2.1775 -2.26371 0
M  V30 2701 H 263.415 1.97654 -4.63626 0
M  V30 2702 H 263.017 0.51445 -3.70445 0
M  V30 2703 H 265.309 2.13756 -6.42895 0
M  V30 2704 H 266.252 0.742076 -7.04201 0
M  V30 2705 H 266.66 1.45663 -5.45383 0
M  V30 2706 N 266.058 1.56714 -0.166846 0
M  V30 2707 C 266.991 2.13577 0.80375 0
M  V30 2708 C 267.969 1.06464 1.22899 0
M  V30 2709 O 269.153 1.34413 1.32157 0
M  V30 2710 C 266.28 2.67168 2.0818 0
M  V30 2711 C 265.326 3.86612 1.80093 0
M  V30 2712 S 266.159 5.26565 0.97416 0
M  V30 2713 C 267.315 5.83558 2.26297 0
M  V30 2714 H 267.548 2.9557 0.320267 0
M  V30 2715 H 265.081 1.54326 0.0477555 0
M  V30 2716 H 267.039 2.98692 2.8159 0
M  V30 2717 H 265.7 1.85269 2.53642 0
M  V30 2718 H 264.893 4.22422 2.7491 0
M  V30 2719 H 264.495 3.55951 1.14781 0
M  V30 2720 H 266.787 5.962 3.21795 0
M  V30 2721 H 267.73 6.80731 1.94962 0
M  V30 2722 H 268.138 5.11944 2.37853 0
M  V30 2723 N 267.536 -0.106894 1.57237 0
M  V30 2724 C 268.813 -0.843526 1.76477 0
M  V30 2725 C 269.193 -1.97499 0.745464 0
M  V30 2726 O 268.541 -2.27357 -0.228306 0
M  V30 2727 C 268.751 -1.34903 3.21873 0
M  V30 2728 C 270.099 -1.79654 3.8472 0
M  V30 2729 O 271.123 -1.44554 3.2555 0
M  V30 2730 O 269.982 -2.44515 4.88748 0
M  V30 2731 H 267.076 -0.401468 0.723016 0
M  V30 2732 H 269.622 -0.0896927 1.69463 0
M  V30 2733 H 268.394 -0.53781 3.87586 0
M  V30 2734 H 268.017 -2.16522 3.33473 0
M  V30 2735 N 269.014 -1.53014 -0.377408 0
M  V30 2736 C 270.262 -1.6829 -1.11906 0
M  V30 2737 C 270.583 -0.431206 -1.90173 0
M  V30 2738 O 269.853 0.554595 -1.87886 0
M  V30 2739 H 268.433 -0.620371 -0.416112 0
M  V30 2740 H 271.095 -1.90167 -0.426893 0
M  V30 2741 H 270.191 -2.53862 -1.8155 0
M  V30 2742 N 270.492 0.636531 -1.44174 0
M  V30 2743 C 271.425 1.76139 -1.45087 0
M  V30 2744 C 272.403 1.59611 -0.310326 0
M  V30 2745 O 273.587 1.81568 -0.506477 0
M  V30 2746 C 270.714 3.13648 -1.27839 0
M  V30 2747 C 269.76 3.48838 -2.45386 0
M  V30 2748 S 270.593 3.46927 -4.07924 0
M  V30 2749 C 271.749 4.87064 -3.9309 0
M  V30 2750 H 271.982 1.75096 -2.40268 0
M  V30 2751 H 269.515 0.810666 -1.31406 0
M  V30 2752 H 271.473 3.93002 -1.18575 0
M  V30 2753 H 270.134 3.12235 -0.341787 0
M  V30 2754 H 269.327 4.48886 -2.29167 0
M  V30 2755 H 268.929 2.76935 -2.51362 0
M  V30 2756 H 271.221 5.76153 -3.56446 0
M  V30 2757 H 272.164 5.08337 -4.92949 0
M  V30 2758 H 272.572 4.61384 -3.25246 0
M  V30 2759 N 271.97 1.30982 0.876444 0
M  V30 2760 C 273.381 1.18277 1.44456 0
M  V30 2761 C 273.732 -0.213265 1.95037 0
M  V30 2762 O 272.857 -1.11057 1.85729 0
M  V30 2763 C 273.452 2.1411 2.62569 0
M  V30 2764 C 272.011 2.05358 3.15444 0
M  V30 2765 C 271.158 2.03706 1.88146 0
M  V30 2766 H 274.109 1.43127 0.685584 0
M  V30 2767 H 274.13 1.72692 3.39054 0
M  V30 2768 H 273.642 3.15706 2.25724 0
M  V30 2769 H 271.743 1.06934 3.56926 0
M  V30 2770 H 271.856 2.94156 3.78166 0
M  V30 2771 H 270.22 1.48629 2.06837 0
M  V30 2772 H 271.003 3.07047 1.53547 0
M  V30 2773 N 273.449 -1.08991 1.13837 0
M  V30 2774 C 274.86 -1.62746 0.914917 0
M  V30 2775 C 275.211 -1.88403 -0.547594 0
M  V30 2776 O 274.336 -1.63706 -1.41525 0
M  V30 2777 C 274.931 -2.95662 1.65437 0
M  V30 2778 C 273.49 -3.46225 1.47666 0
M  V30 2779 C 272.637 -2.20562 1.6807 0
M  V30 2780 H 275.588 -0.922946 1.29102 0
M  V30 2781 H 275.609 -3.63825 1.11407 0
M  V30 2782 H 275.121 -2.76956 2.71877 0
M  V30 2783 H 273.222 -3.70046 0.435478 0
M  V30 2784 H 273.335 -4.23368 2.24268 0
M  V30 2785 H 271.699 -2.29439 1.10589 0
M  V30 2786 H 272.482 -2.0437 2.7584 0
M  V30 2787 N 274.927 -0.932562 -1.27047 0
M  V30 2788 C 275.89 -0.440064 -2.24936 0
M  V30 2789 C 276.89 0.444071 -1.54547 0
M  V30 2790 O 278.08 0.244465 -1.72476 0
M  V30 2791 C 275.212 0.36678 -3.38921 0
M  V30 2792 H 276.405 -1.305 -2.70018 0
M  V30 2793 H 273.958 -0.713707 -1.39054 0
M  V30 2794 H 274.693 1.25033 -2.99228 0
M  V30 2795 H 274.478 -0.267204 -3.91188 0
M  V30 2796 H 275.968 0.701567 -4.11665 0
M  V30 2797 N 276.405 1.4127 -0.698611 0
M  V30 2798 C 277.335 2.33447 -0.049629 0
M  V30 2799 C 278.316 1.51982 0.763898 0
M  V30 2800 O 279.501 1.80509 0.716257 0
M  V30 2801 C 276.631 3.35828 0.885267 0
M  V30 2802 C 275.585 4.27627 0.178613 0
M  V30 2803 C 274.911 5.20406 1.22807 0
M  V30 2804 C 276.211 5.13459 -0.956933 0
M  V30 2805 H 277.905 2.87966 -0.81951 0
M  V30 2806 H 275.451 1.38461 -0.395538 0
M  V30 2807 H 277.404 3.9924 1.34854 0
M  V30 2808 H 276.128 2.79666 1.68685 0
M  V30 2809 H 274.787 3.65643 -0.26466 0
M  V30 2810 H 274.435 4.60558 2.02226 0
M  V30 2811 H 274.135 5.82661 0.760239 0
M  V30 2812 H 275.659 5.86695 1.69179 0
M  V30 2813 H 277.073 5.70421 -0.573805 0
M  V30 2814 H 275.47 5.8467 -1.35205 0
M  V30 2815 H 276.54 4.50443 -1.79524 0
M  V30 2816 N 277.883 0.443576 1.51229 0
M  V30 2817 C 278.83 -0.364716 2.279 0
M  V30 2818 C 279.8 -1.0114 1.31757 0
M  V30 2819 O 280.985 -1.02912 1.60667 0
M  V30 2820 C 278.125 -1.45644 3.12861 0
M  V30 2821 C 277.238 -0.827269 4.24005 0
M  V30 2822 C 276.373 -1.89456 4.96266 0
M  V30 2823 C 275.412 -1.24416 5.99322 0
M  V30 2824 N 274.549 -2.25309 6.64966 0
M  V30 2825 H 279.389 0.295464 2.96532 0
M  V30 2826 H 276.926 0.157554 1.46254 0
M  V30 2827 H 278.884 -2.10076 3.6045 0
M  V30 2828 H 277.514 -2.08616 2.46331 0
M  V30 2829 H 276.566 -0.0710839 3.80334 0
M  V30 2830 H 277.878 -0.312481 4.9782 0
M  V30 2831 H 277.032 -2.61535 5.47434 0
M  V30 2832 H 275.771 -2.4431 4.22095 0
M  V30 2833 H 274.776 -0.508868 5.4744 0
M  V30 2834 H 276.001 -0.702882 6.75453 0
M  V30 2835 H 273.947 -2.79231 5.93604 0
M  V30 2836 H 273.864 -1.78739 7.34567 0
M  V30 2837 H 275.132 -2.96853 7.20763 0
M  V30 2838 N 279.361 -1.56624 0.175154 0
M  V30 2839 C 280.324 -2.16934 -0.739738 0
M  V30 2840 C 281.324 -1.11842 -1.15533 0
M  V30 2841 O 282.514 -1.37335 -1.07167 0
M  V30 2842 C 279.646 -2.75531 -2.00738 0
M  V30 2843 H 280.839 -2.99131 -0.214639 0
M  V30 2844 H 278.392 -1.56123 -0.0744197 0
M  V30 2845 H 279.127 -1.97078 -2.57548 0
M  V30 2846 H 278.912 -3.52444 -1.71831 0
M  V30 2847 H 280.402 -3.21904 -2.66021 0
M  V30 2848 N 280.839 0.0985539 -1.57292 0
M  V30 2849 C 281.802 1.10402 -2.00858 0
M  V30 2850 C 282.802 1.33146 -0.901593 0
M  V30 2851 O 283.992 1.29318 -1.16716 0
M  V30 2852 C 281.124 2.45394 -2.36632 0
M  V30 2853 H 282.317 0.729099 -2.90902 0
M  V30 2854 H 279.87 0.343495 -1.52479 0
M  V30 2855 H 280.605 2.87769 -1.49531 0
M  V30 2856 H 280.39 2.30235 -3.17387 0
M  V30 2857 H 281.88 3.17718 -2.71007 0
M  V30 2858 N 282.317 1.53212 0.369288 0
M  V30 2859 C 283.545 1.73119 1.13303 0
M  V30 2860 C 283.96 0.458455 1.83149 0
M  V30 2861 O 283.317 -0.568403 1.73423 0
M  V30 2862 C 283.368 2.89413 2.16616 0
M  V30 2863 O 283.089 4.11761 1.49614 0
M  V30 2864 C 284.59 3.21161 3.05566 0
M  V30 2865 H 281.81 0.579107 0.338934 0
M  V30 2866 H 284.354 1.99942 0.429338 0
M  V30 2867 H 282.509 2.64994 2.82589 0
M  V30 2868 H 282.923 4.76858 2.18419 0
M  V30 2869 H 284.397 4.05949 3.74045 0
M  V30 2870 H 284.874 2.36369 3.70171 0
M  V30 2871 H 285.48 3.47492 2.45213 0
M  V30 2872 N 283.795 -0.628877 1.44509 0
M  V30 2873 C 285.043 -1.38565 1.4712 0
M  V30 2874 C 285.364 -1.94712 0.105899 0
M  V30 2875 O 284.634 -1.75912 -0.862079 0
M  V30 2876 H 283.214 -0.514333 0.541729 0
M  V30 2877 H 285.876 -0.740018 1.80305 0
M  V30 2878 H 284.972 -2.21583 2.19789 0
M  V30 2879 N 285.273 -1.31445 -0.869486 0
M  V30 2880 C 286.519 -1.21337 -1.62496 0
M  V30 2881 C 286.852 0.227872 -1.92858 0
M  V30 2882 O 286.127 1.16094 -1.56053 0
M  V30 2883 C 286.41 -2.05814 -2.95487 0
M  V30 2884 C 286.263 -3.5824 -2.72 0
M  V30 2885 C 287.582 -1.9079 -3.96594 0
M  V30 2886 H 284.701 -0.442135 -0.589649 0
M  V30 2887 H 287.343 -1.6124 -1.00507 0
M  V30 2888 H 285.493 -1.71913 -3.48394 0
M  V30 2889 H 287.165 -4.0228 -2.25762 0
M  V30 2890 H 285.408 -3.81647 -2.06224 0
M  V30 2891 H 286.079 -4.12657 -3.66631 0
M  V30 2892 H 288.555 -2.20459 -3.52898 0
M  V30 2893 H 287.431 -2.52199 -4.87531 0
M  V30 2894 H 287.692 -0.871341 -4.33428 0
M  V30 2895 N 286.751 1.08385 -1.14413 0
M  V30 2896 C 288.028 1.77429 -0.823297 0
M  V30 2897 C 288.408 1.9974 0.683163 0
M  V30 2898 O 287.756 1.60739 1.62405 0
M  V30 2899 C 287.966 3.09004 -1.62227 0
M  V30 2900 C 289.314 3.83532 -1.82177 0
M  V30 2901 O 290.338 3.18786 -1.58915 0
M  V30 2902 O 289.197 4.99792 -2.21067 0
M  V30 2903 H 286.291 0.769999 -0.301712 0
M  V30 2904 H 288.837 1.14846 -1.24934 0
M  V30 2905 H 287.609 2.88316 -2.64555 0
M  V30 2906 H 287.232 3.79316 -1.19187 0
M  V30 2907 N 288.23 0.939286 1.26551 0
M  V30 2908 C 289.193 0.451987 2.24699 0
M  V30 2909 C 290.193 -0.435869 1.5478 0
M  V30 2910 O 291.383 -0.235314 1.72603 0
M  V30 2911 C 288.515 -0.348801 3.39111 0
M  V30 2912 H 289.708 1.3193 2.69322 0
M  V30 2913 H 287.261 0.721072 1.38673 0
M  V30 2914 H 287.996 -1.23444 2.99887 0
M  V30 2915 H 287.781 0.287945 3.91041 0
M  V30 2916 H 289.271 -0.679726 4.12031 0
M  V30 2917 N 289.708 -1.40897 0.706093 0
M  V30 2918 C 290.638 -2.33418 0.0620085 0
M  V30 2919 C 291.619 -1.52385 -0.755827 0
M  V30 2920 O 292.804 -1.80886 -0.706674 0
M  V30 2921 C 289.934 -3.36293 -0.867445 0
M  V30 2922 C 288.888 -4.27716 -0.155932 0
M  V30 2923 C 288.214 -5.2105 -1.20046 0
M  V30 2924 C 289.514 -5.12944 0.984149 0
M  V30 2925 H 291.208 -2.87527 0.83477 0
M  V30 2926 H 288.754 -1.38249 0.402875 0
M  V30 2927 H 290.707 -3.99949 -1.32735 0
M  V30 2928 H 289.431 -2.80556 -1.67199 0
M  V30 2929 H 288.09 -3.65498 0.284047 0
M  V30 2930 H 287.738 -4.61624 -1.99781 0
M  V30 2931 H 287.438 -5.83056 -0.729328 0
M  V30 2932 H 288.962 -5.87584 -1.66066 0
M  V30 2933 H 290.376 -5.70109 0.604048 0
M  V30 2934 H 288.773 -5.83945 1.38304 0
M  V30 2935 H 289.843 -4.49485 1.81911 0
M  V30 2936 N 291.186 -0.45159 -1.50991 0
M  V30 2937 C 292.414 0.108334 -2.06616 0
M  V30 2938 C 292.829 1.35224 -1.31757 0
M  V30 2939 O 292.186 1.78475 -0.381174 0
M  V30 2940 C 292.237 0.41619 -3.59096 0
M  V30 2941 O 291.958 -0.778361 -4.3113 0
M  V30 2942 C 293.459 1.02523 -4.31282 0
M  V30 2943 H 290.679 0.00159995 -0.670998 0
M  V30 2944 H 293.223 -0.634771 -1.94399 0
M  V30 2945 H 291.378 1.10921 -3.71181 0
M  V30 2946 H 291.792 -0.511181 -5.22003 0
M  V30 2947 H 293.266 1.19053 -5.39009 0
M  V30 2948 H 293.743 2.01013 -3.905 0
M  V30 2949 H 294.349 0.371173 -4.23677 0
M  V30 2950 N 292.664 1.56529 -0.183458 0
M  V30 2951 C 293.614 2.1515 0.754605 0
M  V30 2952 C 294.598 1.08904 1.18443 0
M  V30 2953 O 295.79 1.34997 1.14476 0
M  V30 2954 C 292.919 2.80531 1.97881 0
M  V30 2955 C 292.005 3.93952 1.57043 0
M  V30 2956 N 292.396 4.98221 0.87231 0
M  V30 2957 C 290.694 4.05338 1.86057 0
M  V30 2958 C 291.395 5.77836 0.669377 0
M  V30 2959 N 290.371 5.29858 1.21454 0
M  V30 2960 H 294.173 2.93132 0.212387 0
M  V30 2961 H 291.687 1.62391 0.0167725 0
M  V30 2962 H 293.684 3.20914 2.6612 0
M  V30 2963 H 292.344 2.04035 2.52586 0
M  V30 2964 H 293.355 5.15191 0.529033 0
M  V30 2965 H 290.032 3.39957 2.42354 0
M  V30 2966 H 291.422 6.71799 0.116422 0
M  V30 2967 N 294.142 -0.090211 1.57342 0
M  V30 2968 C 295.105 -1.09335 2.01441 0
M  V30 2969 C 296.105 -1.32666 0.908641 0
M  V30 2970 O 297.295 -1.28697 1.174 0
M  V30 2971 C 294.427 -2.44136 2.3793 0
M  V30 2972 H 295.62 -0.713662 2.91285 0
M  V30 2973 H 293.173 -0.335404 1.52659 0
M  V30 2974 H 293.908 -2.86972 1.51055 0
M  V30 2975 H 293.693 -2.28548 3.18603 0
M  V30 2976 H 295.183 -3.16277 2.72688 0
M  V30 2977 N 295.62 -1.53406 -0.361157 0
M  V30 2978 C 296.869 -1.69022 -1.10066 0
M  V30 2979 C 297.182 -0.450838 -1.90333 0
M  V30 2980 O 298.388 -0.487617 -2.67085 0
M  V30 2981 C 296.844 -2.98812 -2.00598 0
M  V30 2982 C 296.452 -4.30027 -1.25621 0
M  V30 2983 C 298.196 -3.23795 -2.74513 0
M  V30 2984 C 296.103 -5.50903 -2.1508 0
M  V30 2985 H 295.033 -0.629776 -0.414606 0
M  V30 2986 H 297.684 -1.79907 -0.361348 0
M  V30 2987 H 296.066 -2.8174 -2.78278 0
M  V30 2988 H 297.24 -4.57745 -0.529739 0
M  V30 2989 H 295.555 -4.11522 -0.635496 0
M  V30 2990 H 298.152 -4.11289 -3.41681 0
M  V30 2991 H 298.495 -2.40045 -3.40123 0
M  V30 2992 H 299.028 -3.41561 -2.03914 0
M  V30 2993 H 295.767 -6.37143 -1.54041 0
M  V30 2994 H 295.287 -5.27459 -2.85565 0
M  V30 2995 H 296.966 -5.85865 -2.74538 0
M  V30 2996 N 297.098 0.621204 -1.44841 0
M  V30 2997 C 298.008 1.7612 -1.5498 0
M  V30 2998 C 299.024 1.68477 -0.434927 0
M  V30 2999 O 300.2 1.89076 -0.693693 0
M  V30 3000 C 297.265 3.1254 -1.50065 0
M  V30 3001 C 296.326 3.31741 -2.72482 0
M  V30 3002 C 295.559 4.61653 -2.67792 0
M  V30 3003 O 295.782 5.431 -1.74352 0
M  V30 3004 O 294.716 4.83271 -3.58794 0
M  V30 3005 H 298.542 1.70518 -2.51311 0
M  V30 3006 H 296.127 0.783643 -1.27198 0
M  V30 3007 H 298.009 3.93844 -1.49882 0
M  V30 3008 H 296.684 3.18663 -0.568806 0
M  V30 3009 H 295.591 2.50077 -2.7823 0
M  V30 3010 H 296.924 3.30486 -3.64746 0
M  V30 3011 N 298.576 1.31904 0.862503 0
M  V30 3012 C 299.824 1.21776 1.61292 0
M  V30 3013 C 300.145 -0.222413 1.93727 0
M  V30 3014 O 299.415 -1.1451 1.58947 0
M  V30 3015 H 297.995 0.447717 0.597962 0
M  V30 3016 H 300.657 1.65326 1.03215 0
M  V30 3017 H 299.753 1.7948 2.5533 0
M  V30 3018 N 300.054 -1.07777 1.14986 0
M  V30 3019 C 301.284 -1.83752 0.944402 0
M  V30 3020 C 301.692 -1.8218 -0.51058 0
M  V30 3021 O 301.035 -1.22852 -1.36576 0
M  V30 3022 C 301.097 -3.32128 1.37592 0
M  V30 3023 C 300.761 -3.57425 2.84775 0
M  V30 3024 C 301.758 -3.5173 3.8286 0
M  V30 3025 C 299.443 -3.8523 3.2234 0
M  V30 3026 C 301.437 -3.73482 5.16517 0
M  V30 3027 C 299.124 -4.06634 4.56171 0
M  V30 3028 C 300.122 -4.00754 5.53069 0
M  V30 3029 O 299.81 -4.2159 6.84483 0
M  V30 3030 H 299.542 -0.58673 0.335744 0
M  V30 3031 H 302.096 -1.36982 1.53052 0
M  V30 3032 H 300.326 -3.79686 0.733165 0
M  V30 3033 H 302.015 -3.89555 1.14024 0
M  V30 3034 H 302.781 -3.30256 3.55184 0
M  V30 3035 H 298.66 -3.88923 2.47508 0
M  V30 3036 H 302.204 -3.68808 5.92137 0
M  V30 3037 H 298.101 -4.27593 4.83564 0
M  V30 3038 H 298.869 -4.38961 6.90837 0
M  V30 3039 N 301.532 -0.945985 -1.26051 0
M  V30 3040 C 302.781 -0.591836 -1.92822 0
M  V30 3041 C 303.094 0.873956 -1.7499 0
M  V30 3042 O 304.3 1.33769 -2.36259 0
M  V30 3043 C 302.756 -1.00776 -3.45503 0
M  V30 3044 C 302.364 -2.4955 -3.7206 0
M  V30 3045 C 304.108 -0.725735 -4.1825 0
M  V30 3046 C 302.015 -2.84988 -5.18205 0
M  V30 3047 H 300.945 -0.217635 -0.721908 0
M  V30 3048 H 303.596 -1.14927 -1.43052 0
M  V30 3049 H 301.978 -0.378812 -3.94184 0
M  V30 3050 H 303.152 -3.1739 -3.34066 0
M  V30 3051 H 301.467 -2.75133 -3.12555 0
M  V30 3052 H 304.064 -0.966771 -5.25887 0
M  V30 3053 H 304.407 0.337639 -4.14929 0
M  V30 3054 H 304.94 -1.31463 -3.7545 0
M  V30 3055 H 301.679 -3.90307 -5.26631 0
M  V30 3056 H 301.199 -2.21813 -5.57278 0
M  V30 3057 H 302.878 -2.73712 -5.86252 0
M  V30 3058 N 303.011 1.40521 -0.713556 0
M  V30 3059 C 304.239 2.05237 -0.261775 0
M  V30 3060 C 304.654 1.53755 1.09567 0
M  V30 3061 O 304.011 0.693268 1.6882 0
M  V30 3062 C 304.062 3.60763 -0.230706 0
M  V30 3063 O 303.783 4.10345 -1.53455 0
M  V30 3064 C 305.284 4.42651 0.239874 0
M  V30 3065 H 302.504 0.660533 -0.118057 0
M  V30 3066 H 305.048 1.79967 -0.971192 0
M  V30 3067 H 303.203 3.8501 0.429661 0
M  V30 3068 H 303.617 5.04526 -1.43366 0
M  V30 3069 H 305.091 5.51599 0.210468 0
M  V30 3070 H 305.568 4.20082 1.28171 0
M  V30 3071 H 306.174 4.23507 -0.390142 0
M  V30 3072 N 304.489 0.459591 1.5075 0
M  V30 3073 C 305.905 0.113092 1.59199 0
M  V30 3074 C 306.105 -1.37951 1.46874 0
M  V30 3075 O 305.161 -2.15168 1.32132 0
M  V30 3076 C 306.474 0.653043 2.93523 0
M  V30 3077 C 308.022 0.615449 3.0689 0
M  V30 3078 C 308.497 1.13275 4.43771 0
M  V30 3079 N 309.988 1.09167 4.50152 0
M  V30 3080 C 310.723 1.46256 5.54434 0
M  V30 3081 N 310.219 1.90739 6.66026 0
M  V30 3082 N 312.012 1.37932 5.44914 0
M  V30 3083 H 304.163 1.43049 1.57005 0
M  V30 3084 H 306.426 0.590861 0.741341 0
M  V30 3085 H 306.132 1.69822 3.07983 0
M  V30 3086 H 306.006 0.0902132 3.77092 0
M  V30 3087 H 308.393 -0.420793 2.92084 0
M  V30 3088 H 308.474 1.21495 2.25106 0
M  V30 3089 H 308.118 2.16757 4.59324 0
M  V30 3090 H 308.048 0.509576 5.24129 0
M  V30 3091 H 310.539 0.76528 3.7007 0
M  V30 3092 H 310.852 2.17218 7.41644 0
M  V30 3093 H 309.197 1.94683 6.67176 0
M  V30 3094 H 312.388 1.0303 4.56621 0
M  V30 3095 H 312.561 1.67164 6.26067 0
M  V30 3096 N 305.967 -1.56429 0.191757 0
M  V30 3097 C 307.215 -1.97095 -0.447006 0
M  V30 3098 C 307.536 -1.07967 -1.62383 0
M  V30 3099 O 306.806 -0.150248 -1.95323 0
M  V30 3100 H 305.386 -0.727832 -0.168135 0
M  V30 3101 H 308.048 -1.92911 0.27771 0
M  V30 3102 H 307.144 -3.01848 -0.793371 0
M  V30 3103 N 307.445 0.0818655 -1.57387 0
M  V30 3104 C 308.408 1.08265 -2.02018 0
M  V30 3105 C 309.408 1.32183 -0.915664 0
M  V30 3106 O 310.598 1.28073 -1.18081 0
M  V30 3107 C 307.73 2.42871 -2.39221 0
M  V30 3108 H 308.923 0.698204 -2.91659 0
M  V30 3109 H 306.476 0.327303 -1.52835 0
M  V30 3110 H 307.211 2.86167 -1.52575 0
M  V30 3111 H 306.996 2.26855 -3.19811 0
M  V30 3112 H 308.486 3.14826 -2.74362 0
M  V30 3113 N 308.923 1.53595 0.353017 0
M  V30 3114 C 310.169 1.71581 1.09232 0
M  V30 3115 C 310.524 0.468328 1.86613 0
M  V30 3116 O 309.817 -0.538911 1.83865 0
M  V30 3117 C 310.011 2.91313 2.07054 0
M  V30 3118 C 309.84 4.27585 1.39287 0
M  V30 3119 C 308.61 4.92233 1.1417 0
M  V30 3120 C 310.808 5.07656 0.824005 0
M  V30 3121 N 308.79 6.124 0.428841 0
M  V30 3122 C 310.161 6.19531 0.241195 0
M  V30 3123 C 312.216 4.92609 0.723922 0
M  V30 3124 C 310.919 7.18002 -0.431952 0
M  V30 3125 C 312.945 5.91365 0.0645334 0
M  V30 3126 C 312.307 7.02571 -0.507347 0
M  V30 3127 H 308.406 0.680987 0.384422 0
M  V30 3128 H 310.99 1.91013 0.377096 0
M  V30 3129 H 309.161 2.73398 2.75877 0
M  V30 3130 H 310.893 2.98062 2.73753 0
M  V30 3131 H 307.648 4.51612 1.42631 0
M  V30 3132 H 308.072 6.76944 0.0874131 0
M  V30 3133 H 312.714 4.06808 1.15181 0
M  V30 3134 H 310.432 8.03384 -0.871758 0
M  V30 3135 H 314.018 5.81799 -0.0121469 0
M  V30 3136 H 312.898 7.77675 -1.0095 0
M  V30 3137 N 310.401 -0.613514 1.45168 0
M  V30 3138 C 311.364 -1.7065 1.53007 0
M  V30 3139 C 312.364 -1.5548 0.410184 0
M  V30 3140 O 313.554 -1.60656 0.673455 0
M  V30 3141 C 310.686 -3.09875 1.42093 0
M  V30 3142 H 311.879 -1.65068 2.50385 0
M  V30 3143 H 309.432 -0.828728 1.32521 0
M  V30 3144 H 310.167 -3.21039 0.458769 0
M  V30 3145 H 309.952 -3.22293 2.23315 0
M  V30 3146 H 311.442 -3.895 1.50598 0
M  V30 3147 N 311.879 -1.3236 -0.855495 0
M  V30 3148 C 312.809 -1.23833 -1.97958 0
M  V30 3149 C 313.79 -0.122361 -1.69659 0
M  V30 3150 O 314.975 -0.30939 -1.9172 0
M  V30 3151 C 312.105 -0.959772 -3.33775 0
M  V30 3152 C 311.059 -2.03689 -3.76424 0
M  V30 3153 C 310.385 -1.61075 -5.09862 0
M  V30 3154 C 311.685 -3.4518 -3.9198 0
M  V30 3155 H 313.379 -2.1788 -2.0535 0
M  V30 3156 H 310.925 -1.04891 -0.986605 0
M  V30 3157 H 312.878 -0.886678 -4.11966 0
M  V30 3158 H 311.602 0.0163404 -3.26596 0
M  V30 3159 H 310.261 -2.10012 -3.00484 0
M  V30 3160 H 309.909 -0.622107 -4.99138 0
M  V30 3161 H 309.609 -2.33143 -5.39368 0
M  V30 3162 H 311.133 -1.55201 -5.90546 0
M  V30 3163 H 312.547 -3.4145 -4.60526 0
M  V30 3164 H 310.944 -4.1559 -4.32903 0
M  V30 3165 H 312.014 -3.84903 -2.94919 0
M  V30 3166 N 313.357 1.07166 -1.15556 0
M  V30 3167 C 314.585 1.83514 -0.955519 0
M  V30 3168 C 315 1.82163 0.49621 0
M  V30 3169 O 314.357 1.23441 1.34419 0
M  V30 3170 C 314.408 3.30515 -1.46432 0
M  V30 3171 O 314.129 3.31937 -2.85918 0
M  V30 3172 C 315.63 4.23625 -1.30603 0
M  V30 3173 H 312.85 0.578926 -0.339244 0
M  V30 3174 H 315.394 1.35265 -1.53374 0
M  V30 3175 H 313.549 3.76106 -0.928584 0
M  V30 3176 H 313.963 4.23794 -3.09029 0
M  V30 3177 H 315.437 5.24831 -1.71047 0
M  V30 3178 H 315.914 4.38485 -0.250441 0
M  V30 3179 H 316.52 3.83871 -1.83094 0
M  V30 3180 N 314.835 0.952656 1.25548 0
M  V30 3181 C 316.112 0.523818 1.88456 0
M  V30 3182 C 316.492 -0.998871 1.85973 0
M  V30 3183 O 315.84 -1.86381 1.3219 0
M  V30 3184 C 316.05 1.0982 3.31271 0
M  V30 3185 C 317.398 1.17385 4.08051 0
M  V30 3186 O 318.422 1.04961 3.40384 0
M  V30 3187 O 317.281 1.36852 5.29088 0
M  V30 3188 H 314.375 0.172485 0.808813 0
M  V30 3189 H 316.921 1.04596 1.33633 0
M  V30 3190 H 315.693 2.1415 3.27499 0
M  V30 3191 H 315.316 0.559191 3.93648 0
M  V30 3192 N 316.313 -1.40141 0.720998 0
M  V30 3193 C 317.276 -2.29058 0.0805834 0
M  V30 3194 C 318.276 -1.45632 -0.681758 0
M  V30 3195 O 319.466 -1.6648 -0.512856 0
M  V30 3196 C 316.598 -3.28925 -0.895593 0
M  V30 3197 H 317.791 -2.87191 0.863793 0
M  V30 3198 H 315.344 -1.48553 0.485975 0
M  V30 3199 H 316.079 -2.75822 -1.70566 0
M  V30 3200 H 315.864 -3.90519 -0.351766 0
M  V30 3201 H 317.354 -3.95494 -1.34069 0
M  V30 3202 N 317.792 -0.46758 -1.50504 0
M  V30 3203 C 318.722 0.318381 -2.31319 0
M  V30 3204 C 319.703 0.993564 -1.38066 0
M  V30 3205 O 320.888 0.991411 -1.66987 0
M  V30 3206 C 318.018 1.40275 -3.17711 0
M  V30 3207 C 316.972 0.849373 -4.19487 0
M  V30 3208 C 316.298 2.03177 -4.94594 0
M  V30 3209 C 317.598 -0.136942 -5.2212 0
M  V30 3210 H 319.292 -0.356106 -2.97275 0
M  V30 3211 H 316.838 -0.172703 -1.42961 0
M  V30 3212 H 318.791 1.96004 -3.73042 0
M  V30 3213 H 317.515 2.10596 -2.49634 0
M  V30 3214 H 316.174 0.314076 -3.65252 0
M  V30 3215 H 315.822 2.72187 -4.22993 0
M  V30 3216 H 315.522 1.66774 -5.63436 0
M  V30 3217 H 317.046 2.59403 -5.52759 0
M  V30 3218 H 318.46 0.331056 -5.72343 0
M  V30 3219 H 316.857 -0.41507 -5.98663 0
M  V30 3220 H 317.927 -1.06398 -4.73083 0
M  V30 3221 N 319.27 1.56325 -0.20005 0
M  V30 3222 C 320.22 2.15939 0.731743 0
M  V30 3223 C 321.204 1.10154 1.17281 0
M  V30 3224 O 322.396 1.36203 1.13038 0
M  V30 3225 C 319.525 2.82614 1.94895 0
M  V30 3226 C 318.611 3.95596 1.52855 0
M  V30 3227 N 319.002 4.99118 0.819418 0
M  V30 3228 C 317.3 4.07288 1.81748 0
M  V30 3229 C 318.001 5.78513 0.608053 0
M  V30 3230 N 316.977 5.31117 1.15828 0
M  V30 3231 H 320.779 2.9334 0.181285 0
M  V30 3232 H 318.293 1.624 -0.000452172 0
M  V30 3233 H 320.29 3.23718 2.62702 0
M  V30 3234 H 318.95 2.06702 2.50408 0
M  V30 3235 H 319.961 5.15723 0.47436 0
M  V30 3236 H 316.638 3.42509 2.38734 0
M  V30 3237 H 318.028 6.71885 0.0451619 0
M  V30 3238 N 320.748 -0.0735177 1.57428 0
M  V30 3239 C 321.997 -0.771809 1.86349 0
M  V30 3240 C 322.31 -1.78828 0.792452 0
M  V30 3241 O 323.516 -2.53602 0.96945 0
M  V30 3242 C 321.972 -1.42358 3.30548 0
M  V30 3243 C 321.58 -0.445761 4.45777 0
M  V30 3244 C 323.324 -2.10434 3.6867 0
M  V30 3245 C 321.231 -1.10335 5.81016 0
M  V30 3246 H 320.161 -0.291999 0.695164 0
M  V30 3247 H 322.812 -0.0250749 1.83483 0
M  V30 3248 H 321.194 -2.21852 3.28021 0
M  V30 3249 H 322.368 0.319239 4.59693 0
M  V30 3250 H 320.683 0.130457 4.16196 0
M  V30 3251 H 323.28 -2.60405 4.67004 0
M  V30 3252 H 323.623 -2.90298 2.98383 0
M  V30 3253 H 324.156 -1.37773 3.7318 0
M  V30 3254 H 320.895 -0.345061 6.54591 0
M  V30 3255 H 320.415 -1.83925 5.70904 0
M  V30 3256 H 322.094 -1.62367 6.26295 0
M  V30 3257 N 322.226 -1.5378 -0.344866 0
M  V30 3258 C 323.173 -1.81676 -1.42346 0
M  V30 3259 C 324.143 -0.662376 -1.52321 0
M  V30 3260 O 325.328 -0.906675 -1.67881 0
M  V30 3261 C 322.468 -2.03087 -2.79015 0
M  V30 3262 C 321.581 -3.30799 -2.77842 0
M  V30 3263 C 320.716 -3.42285 -4.0622 0
M  V30 3264 C 319.755 -4.6395 -3.9927 0
M  V30 3265 N 318.892 -4.72477 -5.19336 0
M  V30 3266 H 323.732 -2.73703 -1.17858 0
M  V30 3267 H 321.269 -1.35568 -0.570949 0
M  V30 3268 H 323.227 -2.1349 -3.58438 0
M  V30 3269 H 321.857 -1.14375 -3.01858 0
M  V30 3270 H 320.909 -3.29244 -1.90533 0
M  V30 3271 H 322.221 -4.20314 -2.68584 0
M  V30 3272 H 321.375 -3.52113 -4.94066 0
M  V30 3273 H 320.114 -2.50823 -4.18258 0
M  V30 3274 H 319.119 -4.54201 -3.09809 0
M  V30 3275 H 320.344 -5.56775 -3.88817 0
M  V30 3276 H 318.29 -3.83924 -5.3192 0
M  V30 3277 H 318.207 -5.55927 -5.12329 0
M  V30 3278 H 319.475 -4.86613 -6.08957 0
M  V30 3279 N 323.704 0.605807 -1.45491 0
M  V30 3280 C 324.667 1.69836 -1.5391 0
M  V30 3281 C 325.667 1.55261 -0.418424 0
M  V30 3282 O 326.857 1.60296 -0.681965 0
M  V30 3283 C 323.989 3.09117 -1.43734 0
M  V30 3284 H 325.182 1.63738 -2.51257 0
M  V30 3285 H 322.735 0.821689 -1.32959 0
M  V30 3286 H 323.47 3.20791 -0.475788 0
M  V30 3287 H 323.255 3.21104 -2.25021 0
M  V30 3288 H 324.745 3.88696 -1.52661 0
M  V30 3289 N 325.182 1.32811 0.848464 0
M  V30 3290 C 326.431 1.23075 1.59798 0
M  V30 3291 C 326.744 -0.204419 1.94529 0
M  V30 3292 O 327.95 -0.423701 2.68173 0
M  V30 3293 C 326.406 2.15594 2.88179 0
M  V30 3294 C 326.014 3.64228 2.60849 0
M  V30 3295 C 327.758 2.14709 3.66197 0
M  V30 3296 C 325.665 4.48689 3.85269 0
M  V30 3297 H 324.595 0.457091 0.599653 0
M  V30 3298 H 327.246 1.57813 0.936342 0
M  V30 3299 H 325.628 1.73778 3.55833 0
M  V30 3300 H 326.802 4.14424 2.01467 0
M  V30 3301 H 325.117 3.67306 1.96151 0
M  V30 3302 H 327.714 2.75046 4.58534 0
M  V30 3303 H 328.057 1.13966 4.00397 0
M  V30 3304 H 328.59 2.54837 3.05455 0
M  V30 3305 H 325.329 5.5027 3.56207 0
M  V30 3306 H 324.849 4.03241 4.44024 0
M  V30 3307 H 326.528 4.62006 4.52946 0
M  V30 3308 N 326.66 -1.06551 1.16123 0
M  V30 3309 C 327.57 -2.17484 0.879662 0
M  V30 3310 C 328.586 -1.73377 -0.147104 0
M  V30 3311 O 329.762 -2.01379 0.0289128 0
M  V30 3312 C 326.827 -3.44591 0.381829 0
M  V30 3313 C 325.888 -4.0322 1.4735 0
M  V30 3314 C 325.121 -5.24261 0.999324 0
M  V30 3315 O 325.344 -5.70198 -0.151957 0
M  V30 3316 O 324.278 -5.74775 1.78653 0
M  V30 3317 H 328.104 -2.44075 1.80724 0
M  V30 3318 H 325.689 -1.16042 0.940992 0
M  V30 3319 H 327.571 -4.21254 0.111053 0
M  V30 3320 H 326.246 -3.19532 -0.51777 0
M  V30 3321 H 325.153 -3.2806 1.79798 0
M  V30 3322 H 326.486 -4.32568 2.34831 0
M  V30 3323 N 328.138 -0.959301 -1.25041 0
M  V30 3324 C 329.387 -0.612254 -1.92183 0
M  V30 3325 C 329.7 0.855347 -1.75907 0
M  V30 3326 O 330.906 1.31256 -2.37664 0
M  V30 3327 C 329.362 -1.04435 -3.44414 0
M  V30 3328 C 328.97 -2.53482 -3.69393 0
M  V30 3329 C 330.714 -0.770055 -4.17457 0
M  V30 3330 C 328.621 -2.90468 -5.15153 0
M  V30 3331 H 327.551 -0.225279 -0.719559 0
M  V30 3332 H 330.202 -1.16438 -1.41825 0
M  V30 3333 H 328.584 -0.4206 -3.9376 0
M  V30 3334 H 329.758 -3.20916 -3.30681 0
M  V30 3335 H 328.073 -2.78432 -3.0962 0
M  V30 3336 H 330.67 -1.02249 -5.24832 0
M  V30 3337 H 331.013 0.293611 -4.15263 0
M  V30 3338 H 331.546 -1.35437 -3.74034 0
M  V30 3339 H 328.285 -3.95871 -5.22462 0
M  V30 3340 H 327.805 -2.27711 -5.54894 0
M  V30 3341 H 329.484 -2.79914 -5.83315 0
M  V30 3342 N 329.616 1.39756 -0.72842 0
M  V30 3343 C 330.865 1.99879 -0.270407 0
M  V30 3344 C 331.178 1.58449 1.14688 0
M  V30 3345 O 332.384 2.11362 1.70407 0
M  V30 3346 C 330.84 3.57292 -0.43252 0
M  V30 3347 C 330.448 4.07688 -1.85727 0
M  V30 3348 C 332.192 4.24485 -0.0359507 0
M  V30 3349 C 330.099 5.5765 -1.96928 0
M  V30 3350 H 329.029 0.747689 -0.0973472 0
M  V30 3351 H 331.68 1.59837 -0.901355 0
M  V30 3352 H 330.062 3.95097 0.267219 0
M  V30 3353 H 331.236 3.81231 -2.58843 0
M  V30 3354 H 329.551 3.53135 -2.20646 0
M  V30 3355 H 332.148 5.34609 -0.0987484 0
M  V30 3356 H 332.491 4.03915 1.00787 0
M  V30 3357 H 333.024 3.9183 -0.686604 0
M  V30 3358 H 329.763 5.8309 -2.99476 0
M  V30 3359 H 329.283 5.8593 -1.28241 0
M  V30 3360 H 330.962 6.22957 -1.74737 0
M  V30 3361 N 331.094 0.475555 1.50254 0
M  V30 3362 C 332.057 -0.305016 2.27161 0
M  V30 3363 C 333.057 -0.916519 1.32123 0
M  V30 3364 O 334.247 -0.785003 1.5551 0
M  V30 3365 C 331.379 -1.43496 3.09227 0
M  V30 3366 H 332.572 0.369511 2.97615 0
M  V30 3367 H 330.125 0.229747 1.54602 0
M  V30 3368 H 330.86 -2.14441 2.43281 0
M  V30 3369 H 330.645 -1.00223 3.79075 0
M  V30 3370 H 332.135 -1.98548 3.67381 0
M  V30 3371 N 332.573 -1.56217 0.208337 0
M  V30 3372 C 333.821 -1.97558 -0.426076 0
M  V30 3373 C 334.142 -1.09683 -1.61229 0
M  V30 3374 O 333.412 -0.170956 -1.95153 0
M  V30 3375 H 331.992 -0.729575 -0.160405 0
M  V30 3376 H 334.654 -1.92606 0.298155 0
M  V30 3377 H 333.75 -3.02672 -0.761312 0
M  V30 3378 N 334.051 0.0651679 -1.57465 0
M  V30 3379 C 335.014 1.06117 -2.03155 0
M  V30 3380 C 336.014 1.31204 -0.929632 0
M  V30 3381 O 337.204 1.26813 -1.19432 0
M  V30 3382 C 334.336 2.4032 -2.41783 0
M  V30 3383 H 335.529 0.667231 -2.92383 0
M  V30 3384 H 333.082 0.311075 -1.53173 0
M  V30 3385 H 333.817 2.84532 -1.55601 0
M  V30 3386 H 333.602 2.23451 -3.22199 0
M  V30 3387 H 335.092 3.11898 -2.77685 0
M  V30 3388 N 335.529 1.53961 0.336706 0
M  V30 3389 C 336.459 1.85417 1.41925 0
M  V30 3390 C 337.44 0.709856 1.5458 0
M  V30 3391 O 338.625 0.962396 1.68676 0
M  V30 3392 C 335.755 2.06985 2.78881 0
M  V30 3393 C 334.709 3.22813 2.81026 0
M  V30 3394 C 334.035 3.29727 4.20932 0
M  V30 3395 C 335.335 4.60767 2.45949 0
M  V30 3396 H 337.029 2.76079 1.15848 0
M  V30 3397 H 334.575 1.32839 0.555859 0
M  V30 3398 H 336.528 2.27575 3.54665 0
M  V30 3399 H 335.252 1.13061 3.06406 0
M  V30 3400 H 333.911 3.0209 2.07695 0
M  V30 3401 H 333.559 2.33385 4.45579 0
M  V30 3402 H 333.259 4.07566 4.23277 0
M  V30 3403 H 334.783 3.52536 4.98549 0
M  V30 3404 H 336.197 4.81325 3.11446 0
M  V30 3405 H 334.594 5.4106 2.59566 0
M  V30 3406 H 335.664 4.6391 1.41122 0
M  V30 3407 N 337.007 -0.598083 1.45811 0
M  V30 3408 C 338.423 -0.919847 1.30426 0
M  V30 3409 C 338.623 -1.99759 0.264303 0
M  V30 3410 O 337.679 -2.50221 -0.338472 0
M  V30 3411 C 338.992 -1.35176 2.68603 0
M  V30 3412 C 340.54 -1.46546 2.76574 0
M  V30 3413 C 341.015 -1.9311 4.15298 0
M  V30 3414 N 342.506 -2.00328 4.1764 0
M  V30 3415 C 343.241 -2.37599 5.21856 0
M  V30 3416 N 342.737 -2.73771 6.36413 0
M  V30 3417 N 344.53 -2.38021 5.09218 0
M  V30 3418 H 336.681 0.114111 2.12093 0
M  V30 3419 H 338.944 -0.0116121 0.947929 0
M  V30 3420 H 338.65 -0.633969 3.45939 0
M  V30 3421 H 338.524 -2.3164 2.97696 0
M  V30 3422 H 340.911 -2.17415 1.99537 0
M  V30 3423 H 340.992 -0.483727 2.51185 0
M  V30 3424 H 340.636 -1.22824 4.92825 0
M  V30 3425 H 340.566 -2.92213 4.38086 0
M  V30 3426 H 343.057 -1.74925 3.34977 0
M  V30 3427 H 343.37 -3.0112 7.11721 0
M  V30 3428 H 341.715 -2.71445 6.39799 0
M  V30 3429 H 344.906 -2.09174 4.18765 0
M  V30 3430 H 345.079 -2.66741 5.90554 0
M  V30 3431 N 338.485 -1.33259 -0.841409 0
M  V30 3432 C 339.733 -1.24326 -1.59334 0
M  V30 3433 C 340.054 0.191564 -1.94057 0
M  V30 3434 O 339.324 1.11967 -1.60749 0
M  V30 3435 H 337.904 -0.457174 -0.590763 0
M  V30 3436 H 340.566 -1.66947 -1.00571 0
M  V30 3437 H 339.662 -1.8352 -2.52442 0
M  V30 3438 N 339.963 1.05934 -1.16686 0
M  V30 3439 C 341.188 1.83029 -0.975455 0
M  V30 3440 C 341.613 1.82096 0.471452 0
M  V30 3441 O 340.971 1.22443 1.33706 0
M  V30 3442 C 341.019 3.27372 -1.51195 0
M  V30 3443 O 340.123 4.06054 -0.720701 0
M  V30 3444 H 339.464 0.566194 -0.346872 0
M  V30 3445 H 341.994 1.33541 -1.55009 0
M  V30 3446 H 342.004 3.78186 -1.53099 0
M  V30 3447 H 340.679 3.27366 -2.56523 0
M  V30 3448 H 339.256 3.64812 -0.772458 0
M  V30 3449 N 341.441 0.965919 1.2453 0
M  V30 3450 C 342.687 0.62776 1.92839 0
M  V30 3451 C 343.02 -0.834694 1.75347 0
M  V30 3452 O 342.295 -1.60031 1.10546 0
M  V30 3453 C 342.578 1.00109 3.45905 0
M  V30 3454 C 342.431 2.52011 3.72573 0
M  V30 3455 C 343.75 0.53435 4.36844 0
M  V30 3456 H 340.869 0.229537 0.700344 0
M  V30 3457 H 343.511 1.2046 1.46933 0
M  V30 3458 H 341.661 0.510238 3.85135 0
M  V30 3459 H 343.333 3.08559 3.42912 0
M  V30 3460 H 341.576 2.95287 3.17786 0
M  V30 3461 H 342.247 2.73183 4.79661 0
M  V30 3462 H 344.723 0.955565 4.04979 0
M  V30 3463 H 343.599 0.824152 5.42678 0
M  V30 3464 H 343.86 -0.565589 4.38467 0
M  V30 3465 N 342.919 -1.39368 0.735821 0
M  V30 3466 C 343.882 -2.2896 0.104874 0
M  V30 3467 C 344.882 -1.46347 -0.666274 0
M  V30 3468 O 346.072 -1.67014 -0.49517 0
M  V30 3469 C 343.204 -3.29857 -0.860656 0
M  V30 3470 H 344.397 -2.86259 0.894205 0
M  V30 3471 H 341.95 -1.48029 0.501704 0
M  V30 3472 H 342.685 -2.77615 -1.67631 0
M  V30 3473 H 342.47 -3.9087 -0.310327 0
M  V30 3474 H 343.96 -3.96893 -1.29867 0
M  V30 3475 N 344.397 -0.483516 -1.5 0
M  V30 3476 C 345.645 0.067027 -2.01989 0
M  V30 3477 C 345.966 1.3909 -1.36671 0
M  V30 3478 O 345.236 1.88978 -0.516152 0
M  V30 3479 H 343.816 0.0277606 -0.746484 0
M  V30 3480 H 346.478 -0.636773 -1.84204 0
M  V30 3481 H 345.574 0.209484 -3.11396 0
M  V30 3482 N 345.875 1.56104 -0.216619 0
M  V30 3483 C 347.152 1.89988 0.465165 0
M  V30 3484 C 347.532 1.13326 1.78102 0
M  V30 3485 O 346.88 0.241033 2.27225 0
M  V30 3486 C 347.09 3.42646 0.662939 0
M  V30 3487 C 348.438 4.13311 0.972602 0
M  V30 3488 O 349.462 3.48217 0.749901 0
M  V30 3489 O 348.321 5.28396 1.39499 0
M  V30 3490 H 345.415 0.78979 0.245276 0
M  V30 3491 H 347.961 1.67721 -0.258436 0
M  V30 3492 H 346.733 3.90399 -0.26543 0
M  V30 3493 H 346.356 3.70677 1.43821 0
M  V30 3494 N 347.353 -0.0568162 1.57498 0
M  V30 3495 C 348.3 -1.06591 2.04712 0
M  V30 3496 C 349.27 -1.3758 0.930644 0
M  V30 3497 O 350.455 -1.48392 1.19935 0
M  V30 3498 C 347.595 -2.3701 2.50839 0
M  V30 3499 C 346.708 -2.12421 3.76167 0
M  V30 3500 C 345.843 -3.36511 4.11015 0
M  V30 3501 C 344.882 -3.07353 5.2934 0
M  V30 3502 N 344.019 -4.23816 5.59754 0
M  V30 3503 H 348.859 -0.65631 2.90683 0
M  V30 3504 H 346.396 -0.312481 1.43743 0
M  V30 3505 H 348.354 -3.13175 2.7564 0
M  V30 3506 H 346.984 -2.75744 1.67825 0
M  V30 3507 H 346.036 -1.2688 3.58616 0
M  V30 3508 H 347.348 -1.86894 4.62463 0
M  V30 3509 H 346.502 -4.21062 4.36797 0
M  V30 3510 H 345.241 -3.65128 3.23315 0
M  V30 3511 H 344.246 -2.212 5.03339 0
M  V30 3512 H 345.471 -2.80043 6.1867 0
M  V30 3513 H 343.417 -4.52436 4.75014 0
M  V30 3514 H 343.334 -4.01614 6.40501 0
M  V30 3515 H 344.602 -5.0932 5.90096 0
M  V30 3516 N 348.832 -1.54138 -0.328536 0
M  V30 3517 C 350.109 -1.62749 -1.08499 0
M  V30 3518 C 350.489 -0.458198 -2.06067 0
M  V30 3519 O 349.837 0.548046 -2.2183 0
M  V30 3520 C 350.047 -2.99519 -1.79135 0
M  V30 3521 C 351.395 -3.55394 -2.32337 0
M  V30 3522 O 352.419 -3.01792 -1.89209 0
M  V30 3523 O 351.278 -4.49186 -3.11279 0
M  V30 3524 H 348.372 -0.65886 -0.499832 0
M  V30 3525 H 350.918 -1.66484 -0.328826 0
M  V30 3526 H 349.69 -3.76061 -1.08139 0
M  V30 3527 H 349.313 -2.99441 -2.61574 0
M  V30 3528 N 350.31 0.590341 -1.46126 0
M  V30 3529 C 351.273 1.68194 -1.55703 0
M  V30 3530 C 352.273 1.54808 -0.434868 0
M  V30 3531 O 353.463 1.59564 -0.698928 0
M  V30 3532 C 350.595 3.07575 -1.47005 0
M  V30 3533 H 351.788 1.61064 -2.52979 0
M  V30 3534 H 349.341 0.807541 -1.33823 0
M  V30 3535 H 350.076 3.20268 -0.509785 0
M  V30 3536 H 349.861 3.187 -2.28414 0
M  V30 3537 H 351.351 3.87055 -1.56776 0
M  V30 3538 N 351.788 1.33704 0.83433 0
M  V30 3539 C 353.036 1.25169 1.58673 0
M  V30 3540 C 353.357 -0.18127 1.94156 0
M  V30 3541 O 352.627 -1.11113 1.6134 0
M  V30 3542 H 351.207 0.4603 0.58833 0
M  V30 3543 H 353.869 1.67478 0.996847 0
M  V30 3544 H 352.965 1.84856 2.51465 0
M  V30 3545 N 353.266 -1.05314 1.17247 0
M  V30 3546 C 354.176 -2.16538 0.90268 0
M  V30 3547 C 355.192 -1.73523 -0.128707 0
M  V30 3548 O 356.368 -2.01337 0.0502701 0
M  V30 3549 C 353.433 -3.44167 0.418356 0
M  V30 3550 C 352.494 -4.01635 1.51618 0
M  V30 3551 C 351.727 -5.23171 1.05487 0
M  V30 3552 O 351.95 -5.70327 -0.0914715 0
M  V30 3553 O 350.884 -5.72848 1.8474 0
M  V30 3554 H 354.71 -2.42145 1.83302 0
M  V30 3555 H 352.295 -1.15037 0.953246 0
M  V30 3556 H 354.177 -4.21112 0.155726 0
M  V30 3557 H 352.852 -3.20063 -0.48385 0
M  V30 3558 H 351.759 -3.26135 1.83268 0
M  V30 3559 H 353.092 -4.30053 2.39405 0
M  V30 3560 N 354.744 -0.972509 -1.24016 0
M  V30 3561 C 355.654 -0.5143 -2.28893 0
M  V30 3562 C 356.67 0.427078 -1.68677 0
M  V30 3563 O 357.846 0.298939 -1.99169 0
M  V30 3564 C 354.911 0.183598 -3.46214 0
M  V30 3565 C 353.972 -0.798202 -4.21814 0
M  V30 3566 C 353.205 -0.133514 -5.33533 0
M  V30 3567 O 353.428 1.07714 -5.60137 0
M  V30 3568 O 352.362 -0.828103 -5.96176 0
M  V30 3569 H 356.188 -1.38629 -2.70214 0
M  V30 3570 H 353.773 -0.739769 -1.29799 0
M  V30 3571 H 355.655 0.575433 -4.17453 0
M  V30 3572 H 354.33 1.03048 -3.0686 0
M  V30 3573 H 353.237 -1.24059 -3.52931 0
M  V30 3574 H 354.57 -1.61364 -4.64997 0
M  V30 3575 N 356.222 1.38976 -0.743202 0
M  V30 3576 C 357.155 2.28128 -0.0572165 0
M  V30 3577 C 358.133 1.44827 0.739182 0
M  V30 3578 O 359.317 1.74207 0.720009 0
M  V30 3579 C 356.444 3.25796 0.926001 0
M  V30 3580 C 355.49 4.25947 0.217099 0
M  V30 3581 S 356.323 5.24604 -1.07477 0
M  V30 3582 C 357.479 6.25829 -0.0943545 0
M  V30 3583 H 357.712 2.85961 -0.813246 0
M  V30 3584 H 355.245 1.44822 -0.535341 0
M  V30 3585 H 357.203 3.82583 1.48797 0
M  V30 3586 H 355.864 2.66966 1.65493 0
M  V30 3587 H 355.057 4.94746 0.961372 0
M  V30 3588 H 354.659 3.73002 -0.273059 0
M  V30 3589 H 356.951 6.73411 0.743239 0
M  V30 3590 H 357.894 7.0412 -0.749713 0
M  V30 3591 H 358.302 5.63797 0.281706 0
M  V30 3592 N 357.7 0.491464 1.49741 0
M  V30 3593 C 358.663 -0.280906 2.27472 0
M  V30 3594 C 359.663 -0.902454 1.33088 0
M  V30 3595 O 360.853 -0.768465 1.56334 0
M  V30 3596 C 357.985 -1.40209 3.10732 0
M  V30 3597 H 359.178 0.401056 2.97206 0
M  V30 3598 H 356.731 0.246131 1.5435 0
M  V30 3599 H 357.466 -2.11849 2.45541 0
M  V30 3600 H 357.251 -0.961969 3.80117 0
M  V30 3601 H 358.741 -1.9464 3.69466 0
M  V30 3602 N 359.178 -1.55987 0.224894 0
M  V30 3603 C 360.108 -2.23426 -0.678457 0
M  V30 3604 C 361.089 -1.20709 -1.19847 0
M  V30 3605 O 362.274 -1.49304 -1.24186 0
M  V30 3606 C 359.404 -2.91676 -1.88527 0
M  V30 3607 C 358.358 -4.00893 -1.49896 0
M  V30 3608 C 357.684 -4.56455 -2.78483 0
M  V30 3609 C 358.984 -5.17769 -0.686461 0
M  V30 3610 H 360.678 -2.99175 -0.116173 0
M  V30 3611 H 358.224 -1.43897 -0.054436 0
M  V30 3612 H 360.177 -3.37547 -2.5227 0
M  V30 3613 H 358.901 -2.1338 -2.47258 0
M  V30 3614 H 357.56 -3.55758 -0.884985 0
M  V30 3615 H 357.208 -3.74886 -3.35365 0
M  V30 3616 H 356.908 -5.30169 -2.53368 0
M  V30 3617 H 358.432 -5.05047 -3.43162 0
M  V30 3618 H 359.846 -5.60001 -1.22767 0
M  V30 3619 H 358.243 -5.97735 -0.532259 0
M  V30 3620 H 359.313 -4.83932 0.306196 0
M  V30 3621 N 360.656 0.0484629 -1.57525 0
M  V30 3622 C 361.904 0.741657 -1.88 0
M  V30 3623 C 362.225 1.76918 -0.820054 0
M  V30 3624 O 361.495 1.95335 0.148661 0
M  V30 3625 H 360.075 0.276908 -0.69378 0
M  V30 3626 H 362.737 0.019013 -1.94891 0
M  V30 3627 H 361.833 1.24336 -2.86264 0
M  V30 3628 N 362.134 1.5431 0.320358 0
M  V30 3629 C 363.066 1.80262 1.41556 0
M  V30 3630 C 364.079 0.684723 1.477 0
M  V30 3631 O 365.268 0.961886 1.50366 0
M  V30 3632 C 362.368 1.90825 2.8007 0
M  V30 3633 C 361.541 3.21023 2.97091 0
M  V30 3634 C 360.6 3.22247 4.15985 0
M  V30 3635 O 359.626 3.95871 4.08992 0
M  V30 3636 N 360.828 2.46258 5.25678 0
M  V30 3637 H 363.593 2.74778 1.19655 0
M  V30 3638 H 361.154 1.53646 0.510358 0
M  V30 3639 H 363.146 1.89067 3.57821 0
M  V30 3640 H 361.716 1.03392 2.95006 0
M  V30 3641 H 360.936 3.35715 2.06614 0
M  V30 3642 H 362.224 4.0698 3.05361 0
M  V30 3643 H 361.622 1.86037 5.34235 0
M  V30 3644 H 360.179 2.50275 6.01835 0
M  V30 3645 N 363.613 -0.582584 1.46437 0
M  V30 3646 C 364.843 -1.36484 1.55099 0
M  V30 3647 C 365.251 -1.88233 0.191056 0
M  V30 3648 O 364.594 -1.6429 -0.821858 0
M  V30 3649 C 364.656 -2.588 2.49525 0
M  V30 3650 C 364.32 -2.28517 3.95764 0
M  V30 3651 C 365.317 -1.87346 4.84972 0
M  V30 3652 C 363.002 -2.40658 4.40896 0
M  V30 3653 C 364.996 -1.5871 6.17325 0
M  V30 3654 C 362.683 -2.11635 5.73284 0
M  V30 3655 C 363.681 -1.70725 6.61318 0
M  V30 3656 O 363.369 -1.42057 7.91249 0
M  V30 3657 H 363.101 -0.423297 0.527063 0
M  V30 3658 H 365.655 -0.715188 1.92547 0
M  V30 3659 H 363.885 -3.26571 2.07095 0
M  V30 3660 H 365.574 -3.20868 2.48593 0
M  V30 3661 H 366.34 -1.77481 4.5136 0
M  V30 3662 H 362.219 -2.71463 3.72598 0
M  V30 3663 H 365.763 -1.26704 6.85997 0
M  V30 3664 H 361.66 -2.21124 6.06444 0
M  V30 3665 H 362.428 -1.55901 8.03515 0
M  V30 3666 N 365.091 -1.34144 -0.827227 0
M  V30 3667 C 366.337 -1.26446 -1.58554 0
M  V30 3668 C 366.67 0.1664 -1.93486 0
M  V30 3669 O 365.945 1.1107 -1.59667 0
M  V30 3670 C 366.228 -2.15111 -2.8879 0
M  V30 3671 C 366.081 -3.66712 -2.60465 0
M  V30 3672 C 367.4 -2.03311 -3.90324 0
M  V30 3673 H 364.519 -0.46067 -0.575284 0
M  V30 3674 H 367.161 -1.64356 -0.953269 0
M  V30 3675 H 365.311 -1.8291 -3.42748 0
M  V30 3676 H 366.983 -4.09259 -2.1285 0
M  V30 3677 H 365.226 -3.88014 -1.93978 0
M  V30 3678 H 365.897 -4.24112 -3.53317 0
M  V30 3679 H 368.373 -2.31574 -3.45706 0
M  V30 3680 H 367.249 -2.67582 -4.79261 0
M  V30 3681 H 367.51 -1.00879 -4.30437 0
M  V30 3682 N 366.569 1.04691 -1.17803 0
M  V30 3683 C 367.532 2.10724 -0.901545 0
M  V30 3684 C 368.532 1.6042 0.110437 0
M  V30 3685 O 369.722 1.7377 -0.122303 0
M  V30 3686 C 366.854 3.39084 -0.351409 0
M  V30 3687 H 368.047 2.36686 -1.84174 0
M  V30 3688 H 365.6 1.21015 -0.98919 0
M  V30 3689 H 366.335 3.18782 0.59569 0
M  V30 3690 H 366.12 3.76909 -1.08083 0
M  V30 3691 H 367.61 4.17227 -0.176451 0
M  V30 3692 N 368.047 0.979072 1.23499 0
M  V30 3693 C 369.295 0.645941 1.91499 0
M  V30 3694 C 369.616 -0.822948 1.76784 0
M  V30 3695 O 368.886 -1.58854 1.14639 0
M  V30 3696 H 367.466 0.235919 0.708767 0
M  V30 3697 H 370.128 1.2426 1.50152 0
M  V30 3698 H 369.224 0.896411 2.9895 0
M  V30 3699 N 369.525 -1.3858 0.750561 0
M  V30 3700 C 370.458 -2.28095 0.0693139 0
M  V30 3701 C 371.436 -1.45217 -0.731491 0
M  V30 3702 O 372.62 -1.74587 -0.71076 0
M  V30 3703 C 369.747 -3.26282 -0.90871 0
M  V30 3704 C 368.793 -4.26056 -0.194507 0
M  V30 3705 S 369.626 -5.24026 1.10257 0
M  V30 3706 C 370.782 -6.2577 0.127542 0
M  V30 3707 H 371.015 -2.85526 0.8284 0
M  V30 3708 H 368.548 -1.44536 0.543014 0
M  V30 3709 H 370.506 -3.83367 -1.46766 0
M  V30 3710 H 369.167 -2.6784 -1.64075 0
M  V30 3711 H 368.36 -4.95249 -0.93512 0
M  V30 3712 H 367.962 -3.72852 0.292837 0
M  V30 3713 H 370.254 -6.73796 -0.707516 0
M  V30 3714 H 371.197 -7.03712 0.787044 0
M  V30 3715 H 371.605 -5.63938 -0.251803 0
M  V30 3716 N 371.003 -0.499398 -1.49478 0
M  V30 3717 C 372.251 0.0455996 -2.02049 0
M  V30 3718 C 372.572 1.37633 -1.38138 0
M  V30 3719 O 371.842 1.8842 -0.536166 0
M  V30 3720 H 370.422 0.0198416 -0.746736 0
M  V30 3721 H 373.084 -0.656274 -1.83519 0
M  V30 3722 H 372.18 0.176445 -3.11601 0
M  V30 3723 N 372.481 1.55866 -0.233164 0
M  V30 3724 C 373.728 1.98603 0.395374 0
M  V30 3725 C 374.056 1.12105 1.58942 0
M  V30 3726 O 373.311 0.168656 1.94972 0
M  V30 3727 C 373.61 3.46856 0.861724 0
M  V30 3728 C 373.276 4.50348 -0.223066 0
M  V30 3729 C 371.938 4.78371 -0.521038 0
M  V30 3730 C 374.29 5.12355 -0.956124 0
M  V30 3731 C 371.618 5.6568 -1.55638 0
M  V30 3732 C 373.97 6.00786 -1.98089 0
M  V30 3733 C 372.634 6.27148 -2.28565 0
M  V30 3734 H 371.904 0.726739 0.144677 0
M  V30 3735 H 374.551 1.88491 -0.338114 0
M  V30 3736 H 372.856 3.5423 1.67418 0
M  V30 3737 H 374.553 3.77302 1.35809 0
M  V30 3738 H 371.143 4.28596 0.0193234 0
M  V30 3739 H 375.327 4.90765 -0.739166 0
M  V30 3740 H 370.583 5.84365 -1.798 0
M  V30 3741 H 374.757 6.4788 -2.55391 0
M  V30 3742 H 372.384 6.94597 -3.08932 0
M  V30 3743 N 373.959 -0.0401083 1.57549 0
M  V30 3744 C 375.184 -0.748931 1.93406 0
M  V30 3745 C 375.609 -1.68686 0.832274 0
M  V30 3746 O 374.967 -1.80047 -0.212818 0
M  V30 3747 C 375.015 -1.4916 3.28304 0
M  V30 3748 O 374.119 -2.6042 3.19774 0
M  V30 3749 H 373.46 -0.202212 0.63246 0
M  V30 3750 H 375.99 0.00112086 2.046 0
M  V30 3751 H 376 -1.86395 3.62934 0
M  V30 3752 H 374.675 -0.80364 4.08062 0
M  V30 3753 H 373.252 -2.25808 2.96758 0
M  V30 3754 N 375.437 -1.54477 -0.31217 0
M  V30 3755 C 376.385 -1.85395 -1.40469 0
M  V30 3756 C 377.379 -0.726749 -1.53019 0
M  V30 3757 O 378.585 -0.910582 -1.55269 0
M  V30 3758 H 374.96 -0.587845 -0.46898 0
M  V30 3759 H 376.931 -2.76736 -1.11623 0
M  V30 3760 C 375.68 -2.10811 -2.76503 0
M  V30 3761 H 375.003 -2.97014 -2.67625 0
M  V30 3762 H 376.443 -2.3639 -3.51988 0
M  V30 3763 C 374.902 -0.903165 -3.24568 0
M  V30 3764 O 375.432 -0.118085 -4.01526 0
M  V30 3765 N 373.638 -0.711634 -2.81752 0
M  V30 3766 H 373.185 -1.35171 -2.19286 0
M  V30 3767 H 373.143 0.0930473 -3.14262 0
M  V30 3768 N 376.915 0.57481 -1.46744 0
M  V30 3769 C 378.161 1.3347 -1.52688 0
M  V30 3770 C 378.494 1.93353 -0.181229 0
M  V30 3771 O 377.769 1.76912 0.808237 0
M  V30 3772 C 378.052 2.45811 -2.63152 0
M  V30 3773 C 377.905 1.90912 -4.07275 0
M  V30 3774 C 379.224 3.47822 -2.69644 0
M  V30 3775 H 376.343 0.483935 -0.555856 0
M  V30 3776 H 378.985 0.644968 -1.78718 0
M  V30 3777 H 377.135 3.04646 -2.41088 0
M  V30 3778 H 378.807 1.36473 -4.4065 0
M  V30 3779 H 377.05 1.21691 -4.16382 0
M  V30 3780 H 377.721 2.72042 -4.80309 0
M  V30 3781 H 380.197 2.9888 -2.895 0
M  V30 3782 H 379.073 4.23876 -3.48742 0
M  V30 3783 H 379.334 4.05555 -1.76005 0
M  V30 3784 N 378.394 1.34581 0.820102 0
M  V30 3785 C 379.642 1.26845 1.57336 0
M  V30 3786 C 379.963 -0.160667 1.94337 0
M  V30 3787 O 379.233 -1.09396 1.6251 0
M  V30 3788 H 377.813 0.466514 0.583415 0
M  V30 3789 H 380.475 1.68526 0.979027 0
M  V30 3790 H 379.571 1.87513 2.4949 0
M  V30 3791 N 379.872 -1.04064 1.18357 0
M  V30 3792 C 380.802 -2.14001 0.934113 0
M  V30 3793 C 381.783 -1.69616 -0.128186 0
M  V30 3794 O 382.968 -1.94185 0.0244093 0
M  V30 3795 C 380.098 -3.44253 0.459066 0
M  V30 3796 C 379.052 -4.02261 1.46185 0
M  V30 3797 C 378.378 -5.27992 0.844322 0
M  V30 3798 C 379.678 -4.38432 2.83856 0
M  V30 3799 H 381.372 -2.35127 1.85352 0
M  V30 3800 H 378.918 -1.12998 0.892604 0
M  V30 3801 H 380.871 -4.20522 0.271907 0
M  V30 3802 H 379.595 -3.22813 -0.495912 0
M  V30 3803 H 378.254 -3.28074 1.63595 0
M  V30 3804 H 377.902 -5.02862 -0.117845 0
M  V30 3805 H 377.602 -5.67765 1.51384 0
M  V30 3806 H 379.126 -6.06938 0.667693 0
M  V30 3807 H 380.54 -5.05688 2.70098 0
M  V30 3808 H 378.937 -4.89254 3.47491 0
M  V30 3809 H 380.007 -3.4826 3.37406 0
M  V30 3810 N 381.35 -0.985608 -1.22978 0
M  V30 3811 C 382.598 -0.656087 -1.91154 0
M  V30 3812 C 382.919 0.813561 -1.77218 0
M  V30 3813 O 382.189 1.58244 -1.1548 0
M  V30 3814 H 380.769 -0.239674 -0.707506 0
M  V30 3815 H 383.431 -1.25054 -1.49491 0
M  V30 3816 H 382.527 -0.912253 -2.9847 0
M  V30 3817 N 382.828 1.3818 -0.7579 0
M  V30 3818 C 383.758 2.33027 -0.148597 0
M  V30 3819 C 384.739 1.55085 0.69875 0
M  V30 3820 O 385.924 1.83384 0.639053 0
M  V30 3821 C 383.054 3.3928 0.742034 0
M  V30 3822 C 382.008 4.28 -0.00291946 0
M  V30 3823 C 381.334 5.25146 1.00625 0
M  V30 3824 C 382.634 5.08938 -1.17385 0
M  V30 3825 H 384.328 2.84231 -0.940909 0
M  V30 3826 H 381.874 1.36659 -0.453908 0
M  V30 3827 H 383.827 4.046 1.17799 0
M  V30 3828 H 382.551 2.86569 1.56671 0
M  V30 3829 H 381.21 3.64192 -0.419504 0
M  V30 3830 H 380.858 4.68721 1.8251 0
M  V30 3831 H 380.558 5.85361 0.512428 0
M  V30 3832 H 382.082 5.93342 1.44143 0
M  V30 3833 H 383.496 5.67474 -0.815224 0
M  V30 3834 H 381.893 5.7841 -1.59882 0
M  V30 3835 H 382.963 4.42424 -1.98468 0
M  V30 3836 N 384.306 0.507319 1.49211 0
M  V30 3837 C 385.552 -0.0350047 2.0277 0
M  V30 3838 C 385.885 -1.3606 1.38569 0
M  V30 3839 O 385.16 -1.87321 0.523542 0
M  V30 3840 C 385.443 -0.180916 3.59645 0
M  V30 3841 C 385.296 1.16825 4.34364 0
M  V30 3842 C 386.615 -0.918558 4.30407 0
M  V30 3843 H 383.734 -0.0112473 0.736914 0
M  V30 3844 H 386.376 0.659956 1.7817 0
M  V30 3845 H 384.526 -0.772826 3.80736 0
M  V30 3846 H 386.198 1.79952 4.24753 0
M  V30 3847 H 384.441 1.75594 3.96673 0
M  V30 3848 H 385.112 1.01939 5.42506 0
M  V30 3849 H 387.588 -0.41649 4.1401 0
M  V30 3850 H 386.464 -0.989505 5.39907 0
M  V30 3851 H 386.725 -1.96373 3.96093 0
M  V30 3852 N 385.784 -1.5574 0.241426 0
M  V30 3853 C 386.734 -2.17803 -0.674233 0
M  V30 3854 C 387.718 -1.13225 -1.14319 0
M  V30 3855 O 388.91 -1.39153 -1.09387 0
M  V30 3856 C 386.039 -2.87682 -1.87333 0
M  V30 3857 C 385.125 -3.99509 -1.42313 0
M  V30 3858 N 385.516 -5.01115 -0.686798 0
M  V30 3859 C 383.814 -4.11964 -1.70885 0
M  V30 3860 C 384.515 -5.79922 -0.454456 0
M  V30 3861 N 383.491 -5.34001 -1.01705 0
M  V30 3862 H 387.293 -2.93718 -0.103447 0
M  V30 3863 H 384.807 -1.62342 0.0435095 0
M  V30 3864 H 386.804 -3.3057 -2.54026 0
M  V30 3865 H 385.464 -2.13269 -2.4484 0
M  V30 3866 H 386.475 -5.16799 -0.337459 0
M  V30 3867 H 383.152 -3.48718 -2.2957 0
M  V30 3868 H 384.542 -6.71768 0.132992 0
M  V30 3869 N 387.262 0.0317525 -1.57568 0
M  V30 3870 C 388.51 0.721676 -1.88776 0
M  V30 3871 C 388.831 1.76039 -0.838772 0
M  V30 3872 O 388.101 1.95482 0.127935 0
M  V30 3873 H 386.681 0.269534 -0.696678 0
M  V30 3874 H 389.343 -0.00165879 -1.949 0
M  V30 3875 H 388.439 1.21293 -2.87566 0
M  V30 3876 N 388.74 1.54641 0.303973 0
M  V30 3877 C 389.673 1.80263 1.3993 0
M  V30 3878 C 390.651 0.653657 1.48883 0
M  V30 3879 O 391.835 0.893284 1.6599 0
M  V30 3880 C 388.962 1.9367 2.77866 0
M  V30 3881 C 388.008 3.16078 2.86351 0
M  V30 3882 S 388.841 4.74219 2.4875 0
M  V30 3883 C 389.997 4.90558 3.88721 0
M  V30 3884 H 390.23 2.72886 1.17986 0
M  V30 3885 H 387.763 1.46014 0.501918 0
M  V30 3886 H 389.721 2.0208 3.57315 0
M  V30 3887 H 388.382 1.01991 2.9708 0
M  V30 3888 H 387.575 3.22252 3.87517 0
M  V30 3889 H 387.177 3.06099 2.14893 0
M  V30 3890 H 389.469 4.74398 4.83687 0
M  V30 3891 H 390.412 5.92651 3.87518 0
M  V30 3892 H 390.82 4.18728 3.78585 0
M  V30 3893 N 390.218 -0.567019 1.47046 0
M  V30 3894 C 391.181 -1.65696 1.58359 0
M  V30 3895 C 392.181 -1.54097 0.459441 0
M  V30 3896 O 393.371 -1.58432 0.724225 0
M  V30 3897 C 390.503 -3.05197 1.51879 0
M  V30 3898 H 391.696 -1.57019 2.5551 0
M  V30 3899 H 389.249 -0.786148 1.3509 0
M  V30 3900 H 389.984 -3.19417 0.560673 0
M  V30 3901 H 389.769 -3.15025 2.33455 0
M  V30 3902 H 391.259 -3.84511 1.62913 0
M  V30 3903 N 391.696 -1.35014 -0.812953 0
M  V30 3904 C 392.646 -1.23959 -1.91359 0
M  V30 3905 C 393.63 -0.136306 -1.60322 0
M  V30 3906 O 394.822 -0.366925 -1.73155 0
M  V30 3907 C 391.951 -1.00736 -3.28188 0
M  V30 3908 C 391.037 -2.15426 -3.65311 0
M  V30 3909 N 391.428 -3.40612 -3.73921 0
M  V30 3910 C 389.726 -2.06672 -3.95225 0
M  V30 3911 C 390.427 -4.15994 -4.06601 0
M  V30 3912 N 389.403 -3.44685 -4.20349 0
M  V30 3913 H 393.205 -2.18815 -1.96208 0
M  V30 3914 H 390.719 -1.27395 -1.00718 0
M  V30 3915 H 392.716 -0.909052 -4.06868 0
M  V30 3916 H 391.376 -0.067586 -3.2463 0
M  V30 3917 H 392.387 -3.75043 -3.5716 0
M  V30 3918 H 389.064 -1.20511 -3.99729 0
M  V30 3919 H 390.454 -5.24145 -4.20382 0
M  V30 3920 N 393.175 1.03435 -1.18907 0
M  V30 3921 C 394.586 1.58195 -0.991523 0
M  V30 3922 C 394.937 1.90801 0.457081 0
M  V30 3923 O 394.062 1.70272 1.33553 0
M  V30 3924 C 394.657 2.87432 -1.79355 0
M  V30 3925 C 393.216 3.38785 -1.64017 0
M  V30 3926 C 392.363 2.12292 -1.78402 0
M  V30 3927 H 395.314 0.860299 -1.33359 0
M  V30 3928 H 395.335 3.58096 -1.28638 0
M  V30 3929 H 394.847 2.63669 -2.84781 0
M  V30 3930 H 392.948 3.67547 -0.611536 0
M  V30 3931 H 393.061 4.12186 -2.44212 0
M  V30 3932 H 391.425 2.23901 -1.2141 0
M  V30 3933 H 392.208 1.90977 -2.85277 0
M  V30 3934 N 394.653 0.992116 1.22453 0
M  V30 3935 C 395.583 0.561677 2.26644 0
M  V30 3936 C 396.564 -0.411055 1.65059 0
M  V30 3937 O 397.749 -0.301861 1.9184 0
M  V30 3938 C 394.879 -0.125247 3.47074 0
M  V30 3939 C 393.833 0.765948 4.21091 0
M  V30 3940 C 393.159 -0.0538484 5.34673 0
M  V30 3941 C 394.459 2.06242 4.79856 0
M  V30 3942 H 396.153 1.43259 2.62902 0
M  V30 3943 H 393.699 0.690283 1.26377 0
M  V30 3944 H 395.652 -0.437764 4.1912 0
M  V30 3945 H 394.376 -1.03069 3.0991 0
M  V30 3946 H 393.035 1.0621 3.50878 0
M  V30 3947 H 392.683 -0.960188 4.9375 0
M  V30 3948 H 392.383 0.539415 5.85119 0
M  V30 3949 H 393.907 -0.360477 6.09535 0
M  V30 3950 H 395.321 1.8139 5.43848 0
M  V30 3951 H 393.718 2.60444 5.40638 0
M  V30 3952 H 394.788 2.74167 3.99951 0
M  V30 3953 N 396.131 -1.37776 0.765217 0
M  V30 3954 C 397.379 -1.99454 0.325943 0
M  V30 3955 C 397.7 -1.61049 -1.09947 0
M  V30 3956 O 396.97 -0.872821 -1.75381 0
M  V30 3957 H 395.55 -0.737697 0.117525 0
M  V30 3958 H 398.212 -1.68359 0.981895 0
M  V30 3959 H 397.308 -3.09547 0.398353 0
M  V30 3960 N 397.609 -0.515225 -1.4894 0
M  V30 3961 C 398.572 0.244681 -2.2789 0
M  V30 3962 C 399.572 0.881166 -1.34507 0
M  V30 3963 O 400.762 0.743497 -1.57537 0
M  V30 3964 C 397.894 1.35247 -3.12923 0
M  V30 3965 H 399.087 -0.448289 -2.96531 0
M  V30 3966 H 396.64 -0.270656 -1.53939 0
M  V30 3967 H 397.375 2.07916 -2.48881 0
M  V30 3968 H 397.16 0.901374 -3.81599 0
M  V30 3969 H 398.65 1.88737 -3.72516 0
M  V30 3970 N 399.087 1.5561 -0.249682 0
M  V30 3971 C 400.334 1.99011 0.374287 0
M  V30 3972 C 400.662 1.13785 1.57744 0
M  V30 3973 O 399.917 0.189326 1.94782 0
M  V30 3974 C 400.216 3.4775 0.824887 0
M  V30 3975 C 399.882 4.50086 -0.270819 0
M  V30 3976 C 398.544 4.77791 -0.571746 0
M  V30 3977 C 400.896 5.11312 -1.01041 0
M  V30 3978 C 398.224 5.63997 -1.61629 0
M  V30 3979 C 400.576 5.98651 -2.0445 0
M  V30 3980 C 399.24 6.24688 -2.35204 0
M  V30 3981 H 398.51 0.728233 0.136961 0
M  V30 3982 H 401.157 1.88122 -0.358087 0
M  V30 3983 H 399.462 3.55985 1.63651 0
M  V30 3984 H 401.159 3.78721 1.31799 0
M  V30 3985 H 397.749 4.28592 -0.026136 0
M  V30 3986 H 401.933 4.89953 -0.791177 0
M  V30 3987 H 397.189 5.82425 -1.85988 0
M  V30 3988 H 401.363 6.45135 -2.62248 0
M  V30 3989 H 398.99 6.91281 -3.16282 0
M  V30 3990 N 400.565 -0.0233959 1.57583 0
M  V30 3991 C 401.795 -0.723631 1.93513 0
M  V30 3992 C 402.203 -1.69115 0.848333 0
M  V30 3993 O 401.546 -1.82781 -0.183484 0
M  V30 3994 C 401.608 -1.53075 3.25282 0
M  V30 3995 C 401.272 -0.727388 4.51174 0
M  V30 3996 C 402.269 -0.0251924 5.19894 0
M  V30 3997 C 399.954 -0.680256 4.97672 0
M  V30 3998 C 401.948 0.713374 6.33395 0
M  V30 3999 C 399.635 0.0620523 6.11068 0
M  V30 4000 C 400.633 0.757622 6.78785 0
M  V30 4001 O 400.321 1.48787 7.90011 0
M  V30 4002 H 400.053 -0.208051 0.643188 0
M  V30 4003 H 402.607 0.0167489 2.05393 0
M  V30 4004 H 400.837 -2.31508 3.09744 0
M  V30 4005 H 402.526 -2.11413 3.46496 0
M  V30 4006 H 403.292 -0.0526003 4.84971 0
M  V30 4007 H 399.171 -1.21116 4.44805 0
M  V30 4008 H 402.715 1.25683 6.86185 0
M  V30 4009 H 398.612 0.0913634 6.45435 0
M  V30 4010 H 399.38 1.40213 8.06401 0
M  V30 4011 N 402.043 -1.548 -0.295768 0
M  V30 4012 C 402.991 -1.86874 -1.38495 0
M  V30 4013 C 403.985 -0.742938 -1.52239 0
M  V30 4014 O 405.191 -0.926999 -1.54294 0
M  V30 4015 H 401.566 -0.592786 -0.462719 0
M  V30 4016 H 403.537 -2.77904 -1.08682 0
M  V30 4017 C 402.286 -2.13732 -2.74252 0
M  V30 4018 H 401.609 -2.99835 -2.64459 0
M  V30 4019 H 403.049 -2.4011 -3.49461 0
M  V30 4020 C 401.508 -0.937539 -3.23592 0
M  V30 4021 O 402.038 -0.160665 -4.01379 0
M  V30 4022 N 400.244 -0.741478 -2.80981 0
M  V30 4023 H 399.791 -1.37489 -2.1784 0
M  V30 4024 H 399.749 0.0597103 -3.14343 0
M  V30 4025 N 403.521 0.559213 -1.47345 0
M  V30 4026 C 404.749 1.34194 -1.57479 0
M  V30 4027 C 405.164 1.87463 -0.224261 0
M  V30 4028 O 404.521 1.64888 0.782185 0
M  V30 4029 C 404.572 2.51324 -2.59843 0
M  V30 4030 O 404.293 2.00256 -3.89653 0
M  V30 4031 C 405.794 3.43563 -2.80142 0
M  V30 4032 H 403.014 0.409136 -0.531835 0
M  V30 4033 H 405.558 0.677609 -1.92947 0
M  V30 4034 H 403.713 3.13699 -2.27314 0
M  V30 4035 H 404.127 2.76708 -4.4557 0
M  V30 4036 H 405.601 4.2217 -3.55635 0
M  V30 4037 H 406.078 3.9698 -1.87892 0
M  V30 4038 H 406.684 2.87005 -3.1386 0
M  V30 4039 N 404.999 1.35443 0.805782 0
M  V30 4040 C 406.41 1.25768 1.37983 0
M  V30 4041 C 406.761 -0.10958 1.95894 0
M  V30 4042 O 405.886 -1.01056 1.91355 0
M  V30 4043 C 406.481 2.27727 2.5085 0
M  V30 4044 C 405.04 2.2179 3.04115 0
M  V30 4045 C 404.187 2.13393 1.77084 0
M  V30 4046 H 407.138 1.4656 0.608752 0
M  V30 4047 H 407.159 1.90422 3.29424 0
M  V30 4048 H 406.671 3.27227 2.08671 0
M  V30 4049 H 404.772 1.25703 3.50756 0
M  V30 4050 H 404.885 3.13788 3.62042 0
M  V30 4051 H 403.249 1.59384 1.98668 0
M  V30 4052 H 404.032 3.14755 1.37056 0
M  V30 4053 N 406.477 -1.02803 1.19454 0
M  V30 4054 C 407.427 -2.0945 0.900827 0
M  V30 4055 C 408.411 -1.60335 -0.134715 0
M  V30 4056 O 409.603 -1.76857 0.0710924 0
M  V30 4057 C 406.732 -3.4044 0.442229 0
M  V30 4058 C 405.818 -3.96286 1.51056 0
M  V30 4059 N 406.209 -4.25785 2.73021 0
M  V30 4060 C 404.507 -4.24307 1.37404 0
M  V30 4061 C 405.208 -4.70654 3.41848 0
M  V30 4062 N 404.184 -4.72238 2.69243 0
M  V30 4063 H 407.986 -2.3015 1.82779 0
M  V30 4064 H 405.5 -1.20672 1.08683 0
M  V30 4065 H 407.497 -4.16354 0.21326 0
M  V30 4066 H 406.157 -3.21159 -0.478238 0
M  V30 4067 H 407.168 -4.15041 3.09776 0
M  V30 4068 H 403.845 -4.14285 0.517103 0
M  V30 4069 H 405.235 -5.02392 4.46152 0
M  V30 4070 N 407.956 -0.998596 -1.21925 0
M  V30 4071 C 409.204 -0.676325 -1.90448 0
M  V30 4072 C 409.525 0.794719 -1.78071 0
M  V30 4073 O 408.795 1.5701 -1.17152 0
M  V30 4074 H 407.375 -0.247165 -0.704925 0
M  V30 4075 H 410.037 -1.26633 -1.48156 0
M  V30 4076 H 409.133 -0.943858 -2.97486 0
M  V30 4077 N 409.434 1.37368 -0.772513 0
M  V30 4078 C 410.68 1.99969 -0.337681 0
M  V30 4079 C 411.013 1.61184 1.08321 0
M  V30 4080 O 410.288 0.858395 1.74533 0
M  V30 4081 C 410.571 3.56858 -0.482121 0
M  V30 4082 C 410.424 4.0555 -1.94549 0
M  V30 4083 C 411.743 4.39955 0.113143 0
M  V30 4084 H 408.862 0.726464 -0.124171 0
M  V30 4085 H 411.504 1.63034 -0.975699 0
M  V30 4086 H 409.654 3.88452 0.0610361 0
M  V30 4087 H 411.326 3.84518 -2.54841 0
M  V30 4088 H 409.569 3.57715 -2.45403 0
M  V30 4089 H 410.24 5.14587 -1.9976 0
M  V30 4090 H 412.716 4.14623 -0.35031 0
M  V30 4091 H 411.592 5.48897 -0.0180514 0
M  V30 4092 H 411.853 4.25403 1.20354 0
M  V30 4093 N 410.912 0.523116 1.48665 0
M  V30 4094 C 411.875 -0.232592 2.28017 0
M  V30 4095 C 412.875 -0.874021 1.34972 0
M  V30 4096 O 414.065 -0.735132 1.57929 0
M  V30 4097 C 411.197 -1.33586 3.13636 0
M  V30 4098 H 412.39 0.464008 2.96289 0
M  V30 4099 H 409.943 0.278816 1.53793 0
M  V30 4100 H 410.678 -2.06593 2.4998 0
M  V30 4101 H 410.463 -0.881125 3.82071 0
M  V30 4102 H 411.953 -1.86759 3.73511 0
M  V30 4103 N 412.39 -1.55475 0.257931 0
M  V30 4104 C 413.338 -2.23244 -0.653076 0
M  V30 4105 C 414.332 -1.22366 -1.17144 0
M  V30 4106 O 415.538 -1.40347 -1.12706 0
M  V30 4107 H 411.913 -0.716247 -0.229117 0
M  V30 4108 H 413.884 -2.98343 -0.0584788 0
M  V30 4109 C 412.633 -2.95401 -1.83395 0
M  V30 4110 H 411.956 -3.72802 -1.44424 0
M  V30 4111 H 413.396 -3.46165 -2.44838 0
M  V30 4112 C 411.855 -1.99895 -2.71189 0
M  V30 4113 O 412.385 -1.53909 -3.71046 0
M  V30 4114 N 410.591 -1.6676 -2.3799 0
M  V30 4115 H 410.138 -2.04352 -1.56837 0
M  V30 4116 H 410.096 -1.03127 -2.97005 0
M  V30 4117 N 413.868 0.0150385 -1.57593 0
M  V30 4118 C 414.831 0.995996 -2.06428 0
M  V30 4119 C 415.831 1.2818 -0.970903 0
M  V30 4120 O 417.021 1.22949 -1.23406 0
M  V30 4121 C 414.153 2.32506 -2.49307 0
M  V30 4122 H 415.346 0.573873 -2.94358 0
M  V30 4123 H 412.899 0.262186 -1.54085 0
M  V30 4124 H 413.634 2.79438 -1.64575 0
M  V30 4125 H 413.419 2.13087 -3.29145 0
M  V30 4126 H 414.909 3.02906 -2.87468 0
M  V30 4127 N 415.346 1.54954 0.287554 0
M  V30 4128 C 416.595 1.74081 1.01877 0
M  V30 4129 C 416.908 0.541135 1.87966 0
M  V30 4130 O 418.114 0.614491 2.64455 0
M  V30 4131 C 416.57 3.08042 1.86113 0
M  V30 4132 C 416.178 4.35531 1.04961 0
M  V30 4133 C 417.922 3.36523 2.58752 0
M  V30 4134 C 415.829 5.60538 1.88551 0
M  V30 4135 H 414.759 0.64884 0.384087 0
M  V30 4136 H 417.41 1.81426 0.275101 0
M  V30 4137 H 415.792 2.94696 2.64519 0
M  V30 4138 H 416.966 4.59751 0.31074 0
M  V30 4139 H 415.281 4.14085 0.43843 0
M  V30 4140 H 417.878 4.27122 3.21668 0
M  V30 4141 H 418.221 2.56 3.28283 0
M  V30 4142 H 418.754 3.50901 1.87386 0
M  V30 4143 H 415.493 6.43767 1.23466 0
M  V30 4144 H 415.013 5.40483 2.60074 0
M  V30 4145 H 416.692 5.98297 2.46273 0
M  V30 4146 N 416.824 -0.551391 1.4764 0
M  V30 4147 C 417.754 -1.66757 1.63445 0
M  V30 4148 C 418.735 -1.63077 0.483742 0
M  V30 4149 O 419.92 -1.80607 0.71377 0
M  V30 4150 C 417.05 -3.05387 1.65396 0
M  V30 4151 C 416.004 -3.23918 2.79752 0
M  V30 4152 C 415.33 -4.63393 2.66779 0
M  V30 4153 C 416.63 -3.08735 4.21284 0
M  V30 4154 H 418.324 -1.53786 2.56886 0
M  V30 4155 H 415.87 -0.738415 1.23626 0
M  V30 4156 H 417.823 -3.83325 1.75043 0
M  V30 4157 H 416.547 -3.19332 0.685195 0
M  V30 4158 H 415.206 -2.48391 2.69625 0
M  V30 4159 H 414.854 -4.74144 1.67918 0
M  V30 4160 H 414.554 -4.7674 3.43501 0
M  V30 4161 H 416.078 -5.43458 2.78364 0
M  V30 4162 H 417.492 -3.76484 4.32357 0
M  V30 4163 H 415.889 -3.33588 4.98838 0
M  V30 4164 H 416.959 -2.0541 4.39243 0
M  V30 4165 N 418.302 -1.35869 -0.798587 0
M  V30 4166 C 419.232 -1.32118 -1.92528 0
M  V30 4167 C 420.213 -0.194209 -1.68988 0
M  V30 4168 O 421.398 -0.390426 -1.90235 0
M  V30 4169 C 418.528 -1.10047 -3.29404 0
M  V30 4170 C 417.482 -2.19471 -3.67446 0
M  V30 4171 C 416.808 -1.82555 -5.02571 0
M  V30 4172 C 418.108 -3.61495 -3.76987 0
M  V30 4173 H 419.802 -2.26394 -1.95924 0
M  V30 4174 H 417.348 -1.08981 -0.94123 0
M  V30 4175 H 419.301 -1.06061 -4.07835 0
M  V30 4176 H 418.025 -0.122195 -3.26371 0
M  V30 4177 H 416.684 -2.22568 -2.91306 0
M  V30 4178 H 416.332 -0.833249 -4.9605 0
M  V30 4179 H 416.032 -2.5581 -5.28995 0
M  V30 4180 H 417.556 -1.80108 -5.83432 0
M  V30 4181 H 418.97 -3.60676 -4.4563 0
M  V30 4182 H 417.367 -4.33577 -4.14887 0
M  V30 4183 H 418.437 -3.97065 -2.78329 0
M  V30 4184 N 419.78 1.02168 -1.19998 0
M  V30 4185 C 421.191 1.57135 -1.00825 0
M  V30 4186 C 421.542 1.91276 0.436818 0
M  V30 4187 O 420.667 1.71679 1.3174 0
M  V30 4188 C 421.262 2.85514 -1.82393 0
M  V30 4189 C 419.821 3.37027 -1.67601 0
M  V30 4190 C 418.968 2.10388 -1.80644 0
M  V30 4191 H 421.919 0.846106 -1.34264 0
M  V30 4192 H 421.94 3.56711 -1.32429 0
M  V30 4193 H 421.452 2.60634 -2.87561 0
M  V30 4194 H 419.553 3.66878 -0.650485 0
M  V30 4195 H 419.666 4.09572 -2.4857 0
M  V30 4196 H 418.03 2.22601 -1.23778 0
M  V30 4197 H 418.813 1.8794 -2.87286 0
M  V30 4198 N 421.258 1.00505 1.21394 0
M  V30 4199 C 422.208 0.536503 2.21598 0
M  V30 4200 C 423.192 -0.401914 1.55799 0
M  V30 4201 O 424.384 -0.226757 1.75541 0
M  V30 4202 C 421.513 -0.135446 3.43033 0
M  V30 4203 C 420.599 0.823992 4.16018 0
M  V30 4204 N 420.99 1.97683 4.6557 0
M  V30 4205 C 419.288 0.642387 4.4135 0
M  V30 4206 C 419.989 2.58003 5.21354 0
M  V30 4207 N 418.965 1.86162 5.1073 0
M  V30 4208 H 422.767 1.41557 2.57563 0
M  V30 4209 H 420.281 0.868878 1.37202 0
M  V30 4210 H 422.278 -0.488584 4.14027 0
M  V30 4211 H 420.938 -1.01049 3.08576 0
M  V30 4212 H 421.949 2.3572 4.61147 0
M  V30 4213 H 418.626 -0.185578 4.17087 0
M  V30 4214 H 420.016 3.555 5.70149 0
M  V30 4215 N 422.737 -1.36956 0.779787 0
M  V30 4216 C 423.983 -1.99787 0.348281 0
M  V30 4217 C 424.316 -1.61756 -1.07465 0
M  V30 4218 O 423.591 -0.867639 -1.74075 0
M  V30 4219 C 423.874 -3.56597 0.50104 0
M  V30 4220 C 423.727 -4.04513 1.96697 0
M  V30 4221 C 425.046 -4.40008 -0.0898097 0
M  V30 4222 H 422.165 -0.725796 0.128022 0
M  V30 4223 H 424.807 -1.62514 0.984331 0
M  V30 4224 H 422.957 -3.88479 -0.0404347 0
M  V30 4225 H 424.629 -3.83161 2.56876 0
M  V30 4226 H 422.872 -3.56408 2.47297 0
M  V30 4227 H 423.543 -5.1352 2.02486 0
M  V30 4228 H 426.019 -4.14431 0.372293 0
M  V30 4229 H 424.895 -5.4888 0.0471605 0
M  V30 4230 H 425.156 -4.26035 -1.18096 0
M  V30 4231 N 424.215 -0.530993 -1.48385 0
M  V30 4232 C 425.148 0.278511 -2.26494 0
M  V30 4233 C 426.126 0.943905 -1.32398 0
M  V30 4234 O 427.31 0.968098 -1.61741 0
M  V30 4235 C 424.437 1.39453 -3.08659 0
M  V30 4236 C 423.483 0.840434 -4.18137 0
M  V30 4237 S 424.316 -0.292496 -5.34701 0
M  V30 4238 C 425.472 0.825973 -6.20426 0
M  V30 4239 H 425.705 -0.384365 -2.94805 0
M  V30 4240 H 423.238 -0.316799 -1.51115 0
M  V30 4241 H 425.196 2.03382 -3.56575 0
M  V30 4242 H 423.857 2.02913 -2.3976 0
M  V30 4243 H 423.05 1.67769 -4.75257 0
M  V30 4244 H 422.652 0.277819 -3.72967 0
M  V30 4245 H 424.944 1.72438 -6.55188 0
M  V30 4246 H 425.887 0.292728 -7.07495 0
M  V30 4247 H 426.295 1.10683 -5.53543 0
M  V30 4248 N 425.693 1.55336 -0.266172 0
M  V30 4249 C 427.109 1.59356 0.0882065 0
M  V30 4250 C 427.309 1.2834 1.55342 0
M  V30 4251 O 426.365 1.03996 2.30089 0
M  V30 4252 C 427.678 2.99409 -0.278364 0
M  V30 4253 C 429.226 3.12196 -0.224243 0
M  V30 4254 C 429.701 4.545 -0.565123 0
M  V30 4255 N 431.192 4.60313 -0.51634 0
M  V30 4256 C 431.927 5.68434 -0.753013 0
M  V30 4257 N 431.423 6.84738 -1.05383 0
M  V30 4258 N 433.216 5.57942 -0.682414 0
M  V30 4259 H 425.367 1.73764 -1.22147 0
M  V30 4260 H 427.63 0.809822 -0.492841 0
M  V30 4261 H 427.336 3.2691 -1.29703 0
M  V30 4262 H 427.21 3.75228 0.385186 0
M  V30 4263 H 429.597 2.84464 0.78512 0
M  V30 4264 H 429.678 2.38609 -0.921922 0
M  V30 4265 H 429.322 4.82956 -1.57213 0
M  V30 4266 H 429.252 5.26374 0.154248 0
M  V30 4267 H 431.743 3.7676 -0.29335 0
M  V30 4268 H 432.056 7.63088 -1.22133 0
M  V30 4269 H 430.401 6.86375 -1.09151 0
M  V30 4270 H 433.592 4.65958 -0.44731 0
M  V30 4271 H 433.765 6.4213 -0.870248 0
M  V30 4272 N 427.171 -0.0066808 1.57599 0
M  V30 4273 C 428.401 -0.703066 1.94269 0
M  V30 4274 C 428.809 -1.68206 0.866222 0
M  V30 4275 O 428.152 -1.82966 -0.164087 0
M  V30 4276 C 428.214 -1.49616 3.26887 0
M  V30 4277 C 427.878 -0.679494 4.5192 0
M  V30 4278 C 428.875 0.0299508 5.19891 0
M  V30 4279 C 426.56 -0.627433 4.98366 0
M  V30 4280 C 428.554 0.780514 6.32603 0
M  V30 4281 C 426.241 0.126861 6.10968 0
M  V30 4282 C 427.239 0.829574 6.77943 0
M  V30 4283 O 426.927 1.57157 7.88389 0
M  V30 4284 H 426.659 -0.201217 0.645359 0
M  V30 4285 H 429.213 0.0385326 2.05364 0
M  V30 4286 H 427.443 -2.28209 3.12182 0
M  V30 4287 H 429.132 -2.07726 3.48719 0
M  V30 4288 H 429.898 -0.00115963 4.85 0
M  V30 4289 H 425.777 -1.16392 4.46065 0
M  V30 4290 H 429.321 1.32954 6.84813 0
M  V30 4291 H 425.218 0.159815 6.45302 0
M  V30 4292 H 425.986 1.48758 8.04868 0
M  V30 4293 N 428.649 -1.55105 -0.279332 0
M  V30 4294 C 429.597 -1.88333 -1.36505 0
M  V30 4295 C 430.591 -0.759043 -1.51443 0
M  V30 4296 O 431.797 -0.943312 -1.53302 0
M  V30 4297 H 428.172 -0.59766 -0.456406 0
M  V30 4298 H 430.143 -2.79041 -1.05728 0
M  V30 4299 C 428.892 -2.16628 -2.7197 0
M  V30 4300 H 428.215 -3.02624 -2.61264 0
M  V30 4301 H 429.655 -2.43803 -3.46895 0
M  V30 4302 C 428.114 -0.971807 -3.22579 0
M  V30 4303 O 428.644 -0.203228 -4.01186 0
M  V30 4304 N 426.85 -0.771238 -2.80179 0
M  V30 4305 H 426.397 -1.39792 -2.1637 0
M  V30 4306 H 426.355 0.0263667 -3.14389 0
M  V30 4307 N 430.127 0.543554 -1.4793 0
M  V30 4308 C 431.09 1.63156 -1.60975 0
M  V30 4309 C 432.09 1.53346 -0.483899 0
M  V30 4310 O 433.28 1.5726 -0.749339 0
M  V30 4311 C 430.412 3.02743 -1.56716 0
M  V30 4312 H 431.605 1.52934 -2.57975 0
M  V30 4313 H 429.158 0.764557 -1.36324 0
M  V30 4314 H 429.893 3.18484 -0.611418 0
M  V30 4315 H 429.678 3.11272 -2.38438 0
M  V30 4316 H 431.168 3.81871 -1.6901 0
M  V30 4317 N 431.605 1.3629 0.791371 0
M  V30 4318 C 432.882 1.20962 1.53712 0
M  V30 4319 C 433.262 -0.205021 2.10102 0
M  V30 4320 O 432.61 -1.21042 1.93807 0
M  V30 4321 C 432.82 2.29002 2.63361 0
M  V30 4322 C 434.168 2.65572 3.31295 0
M  V30 4323 O 435.192 2.2803 2.73643 0
M  V30 4324 O 434.051 3.3018 4.35481 0
M  V30 4325 H 431.145 0.47086 0.679867 0
M  V30 4326 H 433.691 1.48016 0.830021 0
M  V30 4327 H 432.463 3.2382 2.19674 0
M  V30 4328 H 432.086 2.03303 3.41692 0
M  V30 4329 N 433.083 -1.0153 1.20538 0
M  V30 4330 C 434.33 -1.75149 1.01633 0
M  V30 4331 C 434.658 -1.89189 -0.451399 0
M  V30 4332 O 433.913 -1.41551 -1.35136 0
M  V30 4333 C 434.212 -3.17213 1.64654 0
M  V30 4334 C 433.878 -3.23146 3.14464 0
M  V30 4335 C 432.54 -3.24472 3.55347 0
M  V30 4336 C 434.892 -3.21207 4.10458 0
M  V30 4337 C 432.22 -3.21532 4.90748 0
M  V30 4338 C 434.572 -3.19808 5.45807 0
M  V30 4339 C 433.236 -3.19439 5.86102 0
M  V30 4340 H 432.506 -0.640914 0.3719 0
M  V30 4341 H 435.153 -1.19071 1.49981 0
M  V30 4342 H 433.458 -3.76457 1.08571 0
M  V30 4343 H 435.155 -3.72871 1.4754 0
M  V30 4344 H 431.745 -3.2285 2.81897 0
M  V30 4345 H 435.929 -3.19351 3.79906 0
M  V30 4346 H 431.185 -3.19578 5.21229 0
M  V30 4347 H 435.359 -3.1726 6.19935 0
M  V30 4348 H 432.986 -3.16915 6.90991 0
M  V30 4349 N 434.561 -1.01147 -1.20859 0
M  V30 4350 C 435.789 -0.716911 -1.94082 0
M  V30 4351 C 436.204 0.721568 -1.74467 0
M  V30 4352 O 435.561 1.48889 -1.05539 0
M  V30 4353 C 435.612 -1.03662 -3.46318 0
M  V30 4354 O 435.333 -2.4186 -3.65288 0
M  V30 4355 C 436.834 -0.762386 -4.36695 0
M  V30 4356 H 434.054 -0.26367 -0.617024 0
M  V30 4357 H 436.598 -1.35127 -1.53496 0
M  V30 4358 H 434.753 -0.447757 -3.84804 0
M  V30 4359 H 435.167 -2.53224 -4.59323 0
M  V30 4360 H 436.641 -1.03621 -5.42187 0
M  V30 4361 H 437.118 0.303514 -4.3815 0
M  V30 4362 H 437.724 -1.33316 -4.03865 0
M  V30 4363 N 436.039 1.36541 -0.78704 0
M  V30 4364 C 437.287 1.98911 -0.357633 0
M  V30 4365 C 437.608 1.62778 1.07371 0
M  V30 4366 O 436.878 0.900612 1.73971 0
M  V30 4367 H 435.458 0.735734 -0.129246 0
M  V30 4368 H 438.12 1.66776 -1.00855 0
M  V30 4369 H 437.216 3.08874 -0.447549 0
M  V30 4370 N 437.518 0.538854 1.48102 0
M  V30 4371 C 438.428 -0.222648 2.33541 0
M  V30 4372 C 439.444 -0.930225 1.47047 0
M  V30 4373 O 440.62 -0.903211 1.80011 0
M  V30 4374 C 437.685 -1.25064 3.23357 0
M  V30 4375 C 436.746 -0.552469 4.2573 0
M  V30 4376 C 435.979 -1.53149 5.11254 0
M  V30 4377 O 436.202 -2.76487 4.9891 0
M  V30 4378 O 435.136 -1.06602 5.92385 0
M  V30 4379 H 438.962 0.477707 2.99919 0
M  V30 4380 H 436.547 0.299669 1.46364 0
M  V30 4381 H 438.429 -1.8445 3.78888 0
M  V30 4382 H 437.104 -1.93325 2.59629 0
M  V30 4383 H 436.011 0.082114 3.7401 0
M  V30 4384 H 437.344 0.0883526 4.92121 0
M  V30 4385 N 438.996 -1.55193 0.274407 0
M  V30 4386 C 439.943 -2.225 -0.613374 0
M  V30 4387 C 440.913 -1.19823 -1.15029 0
M  V30 4388 O 442.098 -1.48362 -1.19973 0
M  V30 4389 C 439.238 -2.94927 -1.79199 0
M  V30 4390 C 438.351 -4.12322 -1.28899 0
M  V30 4391 C 437.486 -4.72394 -2.42934 0
M  V30 4392 C 436.525 -5.81984 -1.89634 0
M  V30 4393 N 435.662 -6.36123 -2.9714 0
M  V30 4394 H 440.502 -2.97982 -0.032756 0
M  V30 4395 H 438.039 -1.47099 -0.00440146 0
M  V30 4396 H 439.997 -3.35134 -2.48478 0
M  V30 4397 H 438.627 -2.2187 -2.34465 0
M  V30 4398 H 437.679 -3.7724 -0.489327 0
M  V30 4399 H 438.991 -4.91355 -0.858587 0
M  V30 4400 H 438.145 -5.15317 -3.20208 0
M  V30 4401 H 436.884 -3.92636 -2.8929 0
M  V30 4402 H 435.889 -5.38511 -1.1084 0
M  V30 4403 H 437.114 -6.6361 -1.44215 0
M  V30 4404 H 435.06 -5.59259 -3.42878 0
M  V30 4405 H 434.977 -7.10427 -2.58515 0
M  V30 4406 H 436.245 -6.83704 -3.74391 0
M  V30 4407 N 440.474 -0.00167713 -1.576 0
M  V30 4408 C 441.704 0.692754 -1.94639 0
M  V30 4409 C 442.112 1.67744 -0.87513 0
M  V30 4410 O 441.455 1.8305 0.154382 0
M  V30 4411 C 441.517 1.47881 -3.27676 0
M  V30 4412 C 441.181 0.655518 -4.52274 0
M  V30 4413 C 442.178 -0.0575214 -5.19868 0
M  V30 4414 C 439.863 0.600994 -4.98692 0
M  V30 4415 C 441.857 -0.814052 -6.3218 0
M  V30 4416 C 439.544 -0.15926 -6.10892 0
M  V30 4417 C 440.542 -0.865515 -6.77494 0
M  V30 4418 O 440.23 -1.61336 -7.87544 0
M  V30 4419 H 439.962 0.197792 -0.646417 0
M  V30 4420 H 442.516 -0.049423 -2.05341 0
M  V30 4421 H 440.746 2.2655 -3.13388 0
M  V30 4422 H 442.435 2.05874 -3.49816 0
M  V30 4423 H 443.201 -0.0245611 -4.84994 0
M  V30 4424 H 439.08 1.14025 -4.46676 0
M  V30 4425 H 442.624 -1.36584 -6.84098 0
M  V30 4426 H 438.521 -0.194035 -6.45208 0
M  V30 4427 H 439.289 -1.53025 -8.04068 0
M  V30 4428 N 441.952 1.55251 0.271103 0
M  V30 4429 C 443.368 1.47133 0.618393 0
M  V30 4430 C 443.568 0.686994 1.89427 0
M  V30 4431 O 442.624 0.206609 2.51653 0
M  V30 4432 C 443.937 2.91361 0.743593 0
M  V30 4433 C 445.485 3.01587 0.837522 0
M  V30 4434 C 445.96 4.47073 0.994483 0
M  V30 4435 N 447.451 4.50909 1.05996 0
M  V30 4436 C 448.186 5.60698 1.20024 0
M  V30 4437 N 447.682 6.80348 1.30759 0
M  V30 4438 N 449.475 5.48444 1.23149 0
M  V30 4439 H 441.626 2.04698 -0.566784 0
M  V30 4440 H 443.889 0.928319 -0.192165 0
M  V30 4441 H 443.595 3.51483 -0.123493 0
M  V30 4442 H 443.469 3.40484 1.62328 0
M  V30 4443 H 445.856 2.4156 1.69507 0
M  V30 4444 H 445.937 2.55713 -0.0668086 0
M  V30 4445 H 445.581 5.07703 0.141582 0
M  V30 4446 H 445.511 4.90605 1.91349 0
M  V30 4447 H 448.002 3.6472 0.989316 0
M  V30 4448 H 448.315 7.59772 1.41303 0
M  V30 4449 H 446.66 6.83156 1.27761 0
M  V30 4450 H 449.851 4.53907 1.14394 0
M  V30 4451 H 450.024 6.34049 1.33738 0
M  V30 4452 N 443.43 -0.535701 1.48216 0
M  V30 4453 C 444.707 -1.29683 1.46429 0
M  V30 4454 C 445.087 -2.10391 0.172852 0
M  V30 4455 O 444.435 -2.12282 -0.845488 0
M  V30 4456 C 444.645 -2.18313 2.72287 0
M  V30 4457 C 445.993 -2.78639 3.20383 0
M  V30 4458 O 447.017 -2.28604 2.73164 0
M  V30 4459 O 445.876 -3.69636 4.02531 0
M  V30 4460 H 442.97 -0.585026 0.584529 0
M  V30 4461 H 445.516 -0.552827 1.60443 0
M  V30 4462 H 444.288 -1.58421 3.57797 0
M  V30 4463 H 443.911 -2.99971 2.60966 0
M  V30 4464 N 444.908 -1.36708 -0.784132 0
M  V30 4465 C 446.157 -1.30559 -1.53744 0
M  V30 4466 C 446.47 0.111374 -1.95283 0
M  V30 4467 O 447.676 0.29527 -2.6989 0
M  V30 4468 C 446.132 -2.29098 -2.77565 0
M  V30 4469 C 445.74 -3.76258 -2.43174 0
M  V30 4470 C 447.484 -2.31936 -3.55536 0
M  V30 4471 C 445.391 -4.6656 -3.63422 0
M  V30 4472 H 444.321 -0.48518 -0.577162 0
M  V30 4473 H 446.972 -1.62101 -0.859981 0
M  V30 4474 H 445.354 -1.90557 -3.47137 0
M  V30 4475 H 446.528 -4.23565 -1.81465 0
M  V30 4476 H 444.843 -3.76246 -1.78403 0
M  V30 4477 H 447.44 -2.9661 -4.44889 0
M  V30 4478 H 447.783 -1.3294 -3.94503 0
M  V30 4479 H 448.316 -2.6912 -2.92949 0
M  V30 4480 H 445.055 -5.66638 -3.29547 0
M  V30 4481 H 444.575 -4.23966 -4.24279 0
M  V30 4482 H 446.254 -4.8309 -4.30387 0
M  V30 4483 N 446.386 1.0089 -1.21074 0
M  V30 4484 C 447.349 2.0775 -0.968129 0
M  V30 4485 C 448.349 1.6069 0.0593445 0
M  V30 4486 O 449.539 1.73293 -0.177525 0
M  V30 4487 C 446.671 3.37794 -0.459108 0
M  V30 4488 H 447.864 2.30707 -1.9161 0
M  V30 4489 H 445.417 1.17807 -1.02719 0
M  V30 4490 H 446.152 3.20516 0.49397 0
M  V30 4491 H 445.937 3.7328 -1.20019 0
M  V30 4492 H 447.427 4.16454 -0.309099 0
M  V30 4493 N 447.864 1.01787 1.20321 0
M  V30 4494 C 449.28 0.732951 1.41774 0
M  V30 4495 C 449.48 -0.686883 1.89431 0
M  V30 4496 O 448.536 -1.45446 2.06402 0
M  V30 4497 C 449.849 1.75973 2.43832 0
M  V30 4498 C 451.397 1.77802 2.57596 0
M  V30 4499 C 451.872 2.7941 3.62897 0
M  V30 4500 N 453.363 2.78157 3.70382 0
M  V30 4501 C 454.098 3.53434 4.51521 0
M  V30 4502 N 453.594 4.38392 5.36455 0
M  V30 4503 N 455.387 3.42026 4.46066 0
M  V30 4504 H 447.538 1.93447 0.877035 0
M  V30 4505 H 449.801 0.835712 0.447536 0
M  V30 4506 H 449.507 2.77699 2.15815 0
M  V30 4507 H 449.381 1.57292 3.4284 0
M  V30 4508 H 451.768 0.767602 2.84942 0
M  V30 4509 H 451.849 2.00557 1.58779 0
M  V30 4510 H 451.493 3.80616 3.36295 0
M  V30 4511 H 451.423 2.53916 4.61339 0
M  V30 4512 H 453.914 2.16531 3.09714 0
M  V30 4513 H 454.227 4.92596 5.95457 0
M  V30 4514 H 452.572 4.4247 5.35953 0
M  V30 4515 H 455.763 2.75075 3.78749 0
M  V30 4516 H 455.936 4.00946 5.09064 0
M  V30 4517 N 449.342 -1.36122 0.79427 0
M  V30 4518 C 450.588 -1.99406 0.369452 0
M  V30 4519 C 450.921 -1.62886 -1.05743 0
M  V30 4520 O 450.196 -0.886053 -1.73145 0
M  V30 4521 C 450.479 -3.56046 0.538833 0
M  V30 4522 C 450.332 -4.02404 2.00976 0
M  V30 4523 C 451.651 -4.40079 -0.0431359 0
M  V30 4524 H 448.77 -0.724397 0.135712 0
M  V30 4525 H 451.412 -1.61461 1.00151 0
M  V30 4526 H 449.562 -3.885 0.000771004 0
M  V30 4527 H 451.234 -3.80415 2.60926 0
M  V30 4528 H 449.477 -3.53765 2.51063 0
M  V30 4529 H 450.148 -5.11344 2.07922 0
M  V30 4530 H 452.624 -4.14013 0.416228 0
M  V30 4531 H 451.5 -5.48799 0.105374 0
M  V30 4532 H 451.761 -4.27264 -1.13571 0
M  V30 4533 N 450.82 -0.546701 -1.47814 0
M  V30 4534 C 451.753 0.254472 -2.26777 0
M  V30 4535 C 452.731 0.929809 -1.33392 0
M  V30 4536 O 453.915 0.950889 -1.62759 0
M  V30 4537 C 451.042 1.36171 -3.10121 0
M  V30 4538 C 450.088 0.796038 -4.19005 0
M  V30 4539 S 450.921 -0.349191 -5.3436 0
M  V30 4540 C 452.077 0.760122 -6.21267 0
M  V30 4541 H 452.31 -0.415612 -2.94381 0
M  V30 4542 H 449.843 -0.332809 -1.5077 0
M  V30 4543 H 451.801 1.99588 -3.58713 0
M  V30 4544 H 450.462 2.00359 -2.41899 0
M  V30 4545 H 449.655 1.62719 -4.7701 0
M  V30 4546 H 449.257 0.238246 -3.7324 0
M  V30 4547 H 451.549 1.65479 -6.5698 0
M  V30 4548 H 452.492 0.217673 -7.07765 0
M  V30 4549 H 452.9 1.04806 -5.54685 0
M  V30 4550 N 452.299 1.55045 -0.282633 0
M  V30 4551 C 453.547 1.99365 0.331334 0
M  V30 4552 C 453.868 1.1725 1.55812 0
M  V30 4553 O 453.138 0.263871 1.94115 0
M  V30 4554 H 451.718 0.736397 0.125414 0
M  V30 4555 H 454.38 1.90964 -0.389711 0
M  V30 4556 H 453.476 3.0596 0.616036 0
M  V30 4557 N 453.777 0.010035 1.57597 0
M  V30 4558 C 455.023 -0.673697 1.91283 0
M  V30 4559 C 455.356 -1.72863 0.884979 0
M  V30 4560 O 454.631 -1.94268 -0.0949487 0
M  V30 4561 C 454.914 -1.30766 3.35518 0
M  V30 4562 C 454.767 -0.263578 4.49027 0
M  V30 4563 C 456.086 -2.23105 3.79358 0
M  V30 4564 H 453.205 -0.243439 0.695634 0
M  V30 4565 H 455.847 0.0633864 1.89894 0
M  V30 4566 H 453.997 -1.93588 3.36832 0
M  V30 4567 H 455.669 0.365738 4.59848 0
M  V30 4568 H 453.912 0.413077 4.31829 0
M  V30 4569 H 454.583 -0.746398 5.4693 0
M  V30 4570 H 457.059 -1.70289 3.79659 0
M  V30 4571 H 455.935 -2.64424 4.81011 0
M  V30 4572 H 456.196 -3.11433 3.13787 0
M  V30 4573 N 455.255 -1.55392 -0.262866 0
M  V30 4574 C 456.202 -1.88966 -1.32516 0
M  V30 4575 C 457.172 -0.742187 -1.48596 0
M  V30 4576 O 458.357 -0.99439 -1.62839 0
M  V30 4577 C 455.497 -2.17592 -2.67858 0
M  V30 4578 C 454.61 -3.45061 -2.59917 0
M  V30 4579 C 453.745 -3.63336 -3.87505 0
M  V30 4580 C 452.784 -4.84462 -3.74116 0
M  V30 4581 N 451.921 -4.99342 -4.93561 0
M  V30 4582 H 456.761 -2.79566 -1.03184 0
M  V30 4583 H 454.298 -1.38404 -0.498285 0
M  V30 4584 H 456.256 -2.3219 -3.46617 0
M  V30 4585 H 454.886 -1.30215 -2.95371 0
M  V30 4586 H 453.938 -3.38881 -1.72812 0
M  V30 4587 H 455.25 -4.3396 -2.45926 0
M  V30 4588 H 454.404 -3.77807 -4.74707 0
M  V30 4589 H 453.143 -2.72641 -4.04374 0
M  V30 4590 H 452.148 -4.69985 -2.85297 0
M  V30 4591 H 453.373 -5.76603 -3.58757 0
M  V30 4592 H 451.319 -4.1158 -5.10821 0
M  V30 4593 H 451.236 -5.82303 -4.82141 0
M  V30 4594 H 452.504 -5.18208 -5.82306 0
M  V30 4595 N 456.733 0.527833 -1.48498 0
M  V30 4596 C 457.979 1.28545 -1.56857 0
M  V30 4597 C 458.312 1.92678 -0.242651 0
M  V30 4598 O 457.587 1.79394 0.751545 0
M  V30 4599 C 457.87 2.37314 -2.70839 0
M  V30 4600 C 457.723 1.77858 -4.13142 0
M  V30 4601 C 459.042 3.39068 -2.80573 0
M  V30 4602 H 456.161 0.466006 -0.570971 0
M  V30 4603 H 458.803 0.587784 -1.8068 0
M  V30 4604 H 456.953 2.96821 -2.50658 0
M  V30 4605 H 458.625 1.22385 -4.44769 0
M  V30 4606 H 456.868 1.08383 -4.20042 0
M  V30 4607 H 457.539 2.56624 -4.88721 0
M  V30 4608 H 460.015 2.89518 -2.98862 0
M  V30 4609 H 458.891 4.12566 -3.6205 0
M  V30 4610 H 459.152 3.9975 -1.88818 0
M  V30 4611 N 458.211 1.37122 0.776871 0
M  V30 4612 C 459.121 1.34651 1.9211 0
M  V30 4613 C 460.137 0.246824 1.7224 0
M  V30 4614 O 461.313 0.48134 1.95563 0
M  V30 4615 C 458.378 1.14748 3.2716 0
M  V30 4616 C 457.439 2.34308 3.5972 0
M  V30 4617 C 456.672 2.15345 4.88326 0
M  V30 4618 O 456.895 1.13507 5.58992 0
M  V30 4619 O 455.829 3.03414 5.1983 0
M  V30 4620 H 459.655 2.31013 1.97146 0
M  V30 4621 H 457.24 1.17799 0.918901 0
M  V30 4622 H 459.122 1.05616 4.0795 0
M  V30 4623 H 457.797 0.214562 3.22988 0
M  V30 4624 H 456.704 2.49011 2.79185 0
M  V30 4625 H 458.037 3.26149 3.68629 0
M  V30 4626 N 459.689 -1.00246 1.21608 0
M  V30 4627 C 460.937 -1.73717 1.0328 0
M  V30 4628 C 461.258 -1.90102 -0.434318 0
M  V30 4629 O 460.528 -1.45376 -1.31311 0
M  V30 4630 H 459.108 -0.643613 0.379172 0
M  V30 4631 H 461.77 -1.20787 1.52959 0
M  V30 4632 H 460.866 -2.73535 1.50283 0
M  V30 4633 N 461.167 -1.02423 -1.1978 0
M  V30 4634 C 462.1 -0.545641 -2.21581 0
M  V30 4635 C 463.078 0.411024 -1.57319 0
M  V30 4636 O 464.262 0.329223 -1.85603 0
M  V30 4637 C 461.389 0.204973 -3.38079 0
M  V30 4638 C 460.435 -0.70241 -4.20676 0
M  V30 4639 S 461.268 -2.17595 -4.89298 0
M  V30 4640 C 462.424 -1.43572 -6.09211 0
M  V30 4641 H 462.657 -1.4082 -2.61834 0
M  V30 4642 H 460.19 -0.833771 -1.29952 0
M  V30 4643 H 462.148 0.631924 -4.05607 0
M  V30 4644 H 460.809 1.0432 -2.9627 0
M  V30 4645 H 460.002 -0.123193 -5.03849 0
M  V30 4646 H 459.604 -1.06747 -3.58442 0
M  V30 4647 H 461.896 -0.719806 -6.73665 0
M  V30 4648 H 462.839 -2.24388 -6.71607 0
M  V30 4649 H 463.247 -0.935252 -5.56699 0
M  V30 4650 N 462.645 1.35699 -0.801477 0
M  V30 4651 C 463.87 2.03687 -0.390678 0
M  V30 4652 C 464.295 1.60015 0.988778 0
M  V30 4653 O 463.653 0.774357 1.63931 0
M  V30 4654 C 463.701 3.57439 -0.476404 0
M  V30 4655 O 462.805 4.09208 0.512106 0
M  V30 4656 H 462.146 0.64344 -0.163956 0
M  V30 4657 H 464.676 1.73403 -1.08594 0
M  V30 4658 H 464.686 4.06544 -0.344357 0
M  V30 4659 H 463.361 3.88576 -1.48262 0
M  V30 4660 H 461.938 3.7134 0.340721 0
M  V30 4661 N 464.123 0.554532 1.47522 0
M  V30 4662 C 465.053 -0.182974 2.32782 0
M  V30 4663 C 466.034 -0.911377 1.43624 0
M  V30 4664 O 467.219 -0.892366 1.72483 0
M  V30 4665 C 464.349 -1.21513 3.25349 0
M  V30 4666 C 463.303 -0.603355 4.23726 0
M  V30 4667 C 462.629 -1.73995 5.05598 0
M  V30 4668 C 463.929 0.441121 5.20434 0
M  V30 4669 H 465.623 0.52882 2.94693 0
M  V30 4670 H 463.169 0.255759 1.41711 0
M  V30 4671 H 465.122 -1.73922 3.83835 0
M  V30 4672 H 463.846 -1.95683 2.61487 0
M  V30 4673 H 462.505 -0.10059 3.66462 0
M  V30 4674 H 462.153 -2.47063 4.38143 0
M  V30 4675 H 461.853 -1.3364 5.72201 0
M  V30 4676 H 463.377 -2.26735 5.66942 0
M  V30 4677 H 464.791 0.00319931 5.733 0
M  V30 4678 H 463.188 0.763402 5.95224 0
M  V30 4679 H 464.258 1.33799 4.66075 0
M  V30 4680 N 465.601 -1.54893 0.290851 0
M  V30 4681 C 466.511 -2.26812 -0.59945 0
M  V30 4682 C 467.527 -1.29963 -1.15696 0
M  V30 4683 O 468.703 -1.62928 -1.18391 0
M  V30 4684 C 465.768 -2.98716 -1.75982 0
M  V30 4685 C 464.829 -4.1108 -1.2374 0
M  V30 4686 C 464.062 -4.79546 -2.34246 0
M  V30 4687 O 464.285 -4.47309 -3.53936 0
M  V30 4688 O 463.219 -5.67165 -2.01512 0
M  V30 4689 H 467.045 -3.03696 -0.0163561 0
M  V30 4690 H 464.63 -1.49289 0.0576755 0
M  V30 4691 H 466.512 -3.43851 -2.43607 0
M  V30 4692 H 465.187 -2.24737 -2.3297 0
M  V30 4693 H 464.094 -3.70367 -0.527163 0
M  V30 4694 H 465.427 -4.87007 -0.71307 0
M  V30 4695 N 467.08 -0.0183926 -1.57589 0
M  V30 4696 C 467.99 0.982943 -2.13015 0
M  V30 4697 C 469.006 1.36443 -1.07979 0
M  V30 4698 O 470.182 1.44802 -1.3998 0
M  V30 4699 C 467.247 2.25024 -2.63752 0
M  V30 4700 C 466.308 1.93018 -3.83461 0
M  V30 4701 C 465.541 3.13706 -4.31769 0
M  V30 4702 O 465.764 4.2601 -3.79305 0
M  V30 4703 O 464.698 2.96629 -5.23732 0
M  V30 4704 H 468.524 0.541709 -2.9883 0
M  V30 4705 H 466.109 0.201565 -1.48034 0
M  V30 4706 H 467.991 2.99441 -2.96502 0
M  V30 4707 H 466.666 2.68349 -1.81026 0
M  V30 4708 H 465.573 1.16019 -3.55655 0
M  V30 4709 H 466.906 1.54516 -4.67317 0
M  V30 4710 N 468.558 1.5553 0.254621 0
M  V30 4711 C 469.521 1.88872 1.29846 0
M  V30 4712 C 470.521 0.764591 1.41459 0
M  V30 4713 O 471.711 1.03265 1.40293 0
M  V30 4714 C 468.843 2.11032 2.67728 0
M  V30 4715 H 470.036 2.82201 1.01502 0
M  V30 4716 H 467.589 1.48303 0.493556 0
M  V30 4717 H 468.324 1.20146 3.01223 0
M  V30 4718 H 468.109 2.92895 2.60682 0
M  V30 4719 H 469.599 2.38038 3.43115 0
M  V30 4720 N 470.036 -0.519951 1.48776 0
M  V30 4721 C 471.452 -0.849418 1.35119 0
M  V30 4722 C 471.652 -1.98077 0.36982 0
M  V30 4723 O 470.708 -2.51664 -0.205359 0
M  V30 4724 C 472.021 -1.20748 2.75391 0
M  V30 4725 C 473.569 -1.31679 2.83954 0
M  V30 4726 C 474.044 -1.70824 4.24951 0
M  V30 4727 N 475.535 -1.77908 4.27672 0
M  V30 4728 C 476.27 -2.09603 5.33717 0
M  V30 4729 N 475.766 -2.39652 6.5003 0
M  V30 4730 N 477.559 -2.10694 5.21119 0
M  V30 4731 H 469.71 0.226377 2.1119 0
M  V30 4732 H 471.973 0.0386519 0.947212 0
M  V30 4733 H 471.679 -0.449703 3.48813 0
M  V30 4734 H 471.553 -2.15534 3.09556 0
M  V30 4735 H 473.94 -2.06532 2.10781 0
M  V30 4736 H 474.021 -0.3499 2.53396 0
M  V30 4737 H 473.665 -0.965282 4.98643 0
M  V30 4738 H 473.595 -2.6858 4.52959 0
M  V30 4739 H 476.086 -1.56923 3.43779 0
M  V30 4740 H 476.399 -2.6297 7.26682 0
M  V30 4741 H 474.744 -2.37149 6.53288 0
M  V30 4742 H 477.935 -1.86682 4.29264 0
M  V30 4743 H 478.108 -2.35062 6.03863 0
M  V30 4744 N 471.514 -1.37532 -0.769588 0
M  V30 4745 C 472.462 -1.33561 -1.90432 0
M  V30 4746 C 473.456 -0.224027 -1.67912 0
M  V30 4747 O 474.662 -0.392174 -1.75676 0
M  V30 4748 H 471.037 -0.416279 -0.626271 0
M  V30 4749 H 473.008 -2.29348 -1.90899 0
M  V30 4750 C 471.757 -1.16162 -3.27722 0
M  V30 4751 H 471.08 -2.00951 -3.45628 0
M  V30 4752 H 472.52 -1.17434 -4.07413 0
M  V30 4753 C 470.979 0.132583 -3.36639 0
M  V30 4754 O 471.509 1.11539 -3.85904 0
M  V30 4755 N 469.715 0.184013 -2.90017 0
M  V30 4756 H 469.262 -0.616415 -2.50116 0
M  V30 4757 H 469.22 1.04956 -2.96364 0
M  V30 4758 N 472.992 0.995999 -1.22138 0
M  V30 4759 C 473.955 2.06711 -0.990109 0
M  V30 4760 C 474.955 1.60744 0.0422978 0
M  V30 4761 O 476.145 1.73095 -0.195895 0
M  V30 4762 C 473.277 3.37288 -0.49491 0
M  V30 4763 H 474.47 2.28661 -1.94047 0
M  V30 4764 H 472.023 1.16711 -1.03963 0
M  V30 4765 H 472.758 3.21022 0.459948 0
M  V30 4766 H 472.543 3.71986 -1.23971 0
M  V30 4767 H 474.033 4.16103 -0.353253 0
M  V30 4768 N 474.47 1.03057 1.19235 0
M  V30 4769 C 475.433 0.617418 2.20727 0
M  V30 4770 C 476.433 -0.319856 1.57587 0
M  V30 4771 O 477.623 -0.106633 1.73873 0
M  V30 4772 C 474.755 -0.096296 3.40764 0
M  V30 4773 H 475.948 1.51544 2.58794 0
M  V30 4774 H 473.501 0.821949 1.32942 0
M  V30 4775 H 474.236 -1.00859 3.08217 0
M  V30 4776 H 474.021 0.577217 3.87828 0
M  V30 4777 H 475.511 -0.372219 4.15938 0
M  V30 4778 N 475.948 -1.35272 0.808662 0
M  V30 4779 C 477.194 -1.99003 0.390581 0
M  V30 4780 C 477.527 -1.63999 -1.0401 0
M  V30 4781 O 476.802 -0.904368 -1.72196 0
M  V30 4782 C 477.085 -3.55454 0.576566 0
M  V30 4783 C 476.938 -4.00249 2.05233 0
M  V30 4784 C 478.257 -4.401 0.00354277 0
M  V30 4785 H 475.376 -0.722917 0.143388 0
M  V30 4786 H 478.018 -1.6039 1.01858 0
M  V30 4787 H 476.168 -3.88477 0.0419766 0
M  V30 4788 H 477.84 -3.77626 2.64946 0
M  V30 4789 H 476.083 -3.51082 2.54801 0
M  V30 4790 H 476.754 -5.0911 2.13333 0
M  V30 4791 H 479.23 -4.13548 0.460117 0
M  V30 4792 H 478.106 -5.48656 0.163575 0
M  V30 4793 H 478.367 -4.28444 -1.09032 0
M  V30 4794 N 477.426 -0.562348 -1.47226 0
M  V30 4795 C 478.336 0.185466 -2.33866 0
M  V30 4796 C 479.352 0.906713 -1.48508 0
M  V30 4797 O 480.528 0.874458 -1.81425 0
M  V30 4798 C 477.593 1.19904 -3.25306 0
M  V30 4799 C 476.654 0.484669 -4.26555 0
M  V30 4800 C 475.887 1.44996 -5.13626 0
M  V30 4801 O 476.11 2.68515 -5.03245 0
M  V30 4802 O 475.044 0.971642 -5.94006 0
M  V30 4803 H 478.87 -0.525361 -2.99121 0
M  V30 4804 H 476.455 -0.322916 -1.45868 0
M  V30 4805 H 478.337 1.78399 -3.81774 0
M  V30 4806 H 477.012 1.8917 -2.62672 0
M  V30 4807 H 475.919 -0.141605 -3.73832 0
M  V30 4808 H 477.252 -0.166634 -4.91918 0
M  V30 4809 N 478.904 1.54736 -0.299062 0
M  V30 4810 C 479.867 2.22127 0.565012 0
M  V30 4811 C 480.867 1.20669 1.06281 0
M  V30 4812 O 482.057 1.45417 0.959145 0
M  V30 4813 C 479.189 2.90611 1.78208 0
M  V30 4814 H 480.382 2.99891 -0.0237448 0
M  V30 4815 H 477.935 1.5622 -0.0498788 0
M  V30 4816 H 478.67 2.16921 2.41072 0
M  V30 4817 H 478.455 3.64984 1.43281 0
M  V30 4818 H 479.945 3.42026 2.396 0
M  V30 4819 N 480.382 0.0267497 1.57577 0
M  V30 4820 C 481.628 -0.653371 1.91987 0
M  V30 4821 C 481.961 -1.71915 0.903263 0
M  V30 4822 O 481.236 -1.94358 -0.0743387 0
M  V30 4823 C 481.519 -1.272 3.36886 0
M  V30 4824 C 481.372 -0.215938 4.49281 0
M  V30 4825 C 482.691 -2.19069 3.81703 0
M  V30 4826 H 479.81 -0.236047 0.698177 0
M  V30 4827 H 482.452 0.0835236 1.89816 0
M  V30 4828 H 480.602 -1.90005 3.38866 0
M  V30 4829 H 482.274 0.41449 4.59434 0
M  V30 4830 H 480.517 0.458855 4.31366 0
M  V30 4831 H 481.188 -0.688347 5.47691 0
M  V30 4832 H 483.664 -1.66253 3.81444 0
M  V30 4833 H 482.54 -2.59307 4.83788 0
M  V30 4834 H 482.801 -3.08087 3.17072 0
M  V30 4835 N 481.861 -1.55662 -0.24637 0
M  V30 4836 C 483.108 -1.77519 -0.974335 0
M  V30 4837 C 483.436 -0.591165 -1.85298 0
M  V30 4838 O 482.691 0.425497 -1.91018 0
M  V30 4839 C 482.99 -3.04885 -1.86494 0
M  V30 4840 C 482.656 -4.36209 -1.14161 0
M  V30 4841 C 481.318 -4.71896 -0.941701 0
M  V30 4842 C 483.67 -5.17391 -0.628957 0
M  V30 4843 C 480.998 -5.86299 -0.216852 0
M  V30 4844 C 483.35 -6.32546 0.0824273 0
M  V30 4845 C 482.014 -6.66853 0.293807 0
M  V30 4846 H 481.284 -0.649588 -0.356535 0
M  V30 4847 H 483.931 -1.89934 -0.244394 0
M  V30 4848 H 482.236 -2.87484 -2.66196 0
M  V30 4849 H 483.933 -3.18994 -2.42989 0
M  V30 4850 H 480.523 -4.08174 -1.30736 0
M  V30 4851 H 484.707 -4.90276 -0.770943 0
M  V30 4852 H 479.963 -6.11385 -0.0426124 0
M  V30 4853 H 484.137 -6.94693 0.487292 0
M  V30 4854 H 481.764 -7.55349 0.857428 0
M  V30 4855 N 483.339 0.512053 -1.4905 0
M  V30 4856 C 484.302 1.59704 -1.64399 0
M  V30 4857 C 485.302 1.52285 -0.516317 0
M  V30 4858 O 486.492 1.55635 -0.782527 0
M  V30 4859 C 483.624 2.9935 -1.63102 0
M  V30 4860 H 484.817 1.47428 -2.61161 0
M  V30 4861 H 482.37 0.735469 -1.37915 0
M  V30 4862 H 483.105 3.17116 -0.678836 0
M  V30 4863 H 482.89 3.06144 -2.44986 0
M  V30 4864 H 484.38 3.782 -1.77072 0
M  V30 4865 N 484.817 1.37938 0.762283 0
M  V30 4866 C 485.747 1.37176 1.88958 0
M  V30 4867 C 486.728 0.238945 1.68413 0
M  V30 4868 O 487.913 0.440726 1.89133 0
M  V30 4869 C 485.043 1.18742 3.2637 0
M  V30 4870 C 483.997 2.29136 3.61498 0
M  V30 4871 C 483.323 1.95816 4.97554 0
M  V30 4872 C 484.623 3.71363 3.6727 0
M  V30 4873 H 486.317 2.31509 1.89853 0
M  V30 4874 H 483.863 1.11438 0.912005 0
M  V30 4875 H 485.816 1.16837 4.04879 0
M  V30 4876 H 484.54 0.208683 3.25933 0
M  V30 4877 H 483.199 2.30213 2.85303 0
M  V30 4878 H 482.847 0.964475 4.93667 0
M  V30 4879 H 482.547 2.69745 5.22026 0
M  V30 4880 H 484.071 1.95513 5.78452 0
M  V30 4881 H 485.485 3.72364 4.35911 0
M  V30 4882 H 483.882 4.44425 4.03245 0
M  V30 4883 H 484.952 4.04305 2.67704 0
M  V30 4884 N 486.295 -0.989507 1.22664 0
M  V30 4885 C 487.243 -2.10148 0.997035 0
M  V30 4886 C 488.237 -1.6929 -0.0609783 0
M  V30 4887 O 489.443 -1.79766 0.0917523 0
M  V30 4888 H 485.818 -0.687256 0.305259 0
M  V30 4889 H 487.789 -2.26685 1.94053 0
M  V30 4890 C 486.538 -3.4257 0.595085 0
M  V30 4891 H 485.861 -3.74453 1.40089 0
M  V30 4892 H 487.301 -4.21344 0.473869 0
M  V30 4893 C 485.76 -3.29638 -0.695725 0
M  V30 4894 O 486.29 -3.61709 -1.74727 0
M  V30 4895 N 484.496 -2.82814 -0.668173 0
M  V30 4896 H 484.043 -2.56914 0.18787 0
M  V30 4897 H 484.001 -2.74544 -1.5321 0
M  V30 4898 N 487.773 -1.03688 -1.18687 0
M  V30 4899 C 489.189 -0.755413 -1.4059 0
M  V30 4900 C 489.389 0.656659 -1.905 0
M  V30 4901 O 488.445 1.42144 -2.08689 0
M  V30 4902 C 489.758 -1.7983 -2.41001 0
M  V30 4903 C 491.306 -1.81877 -2.54735 0
M  V30 4904 C 491.781 -2.85148 -3.58406 0
M  V30 4905 N 493.272 -2.84015 -3.6591 0
M  V30 4906 C 494.007 -3.60573 -4.45841 0
M  V30 4907 N 493.503 -4.46871 -5.29413 0
M  V30 4908 N 495.296 -3.49079 -4.40568 0
M  V30 4909 H 487.447 -1.94818 -0.846148 0
M  V30 4910 H 489.71 -0.842727 -0.434184 0
M  V30 4911 H 489.416 -2.81097 -2.1137 0
M  V30 4912 H 489.29 -1.62727 -3.40294 0
M  V30 4913 H 491.677 -0.812836 -2.83685 0
M  V30 4914 H 491.758 -2.03057 -1.55568 0
M  V30 4915 H 491.402 -3.85918 -3.30197 0
M  V30 4916 H 491.332 -2.61224 -4.57241 0
M  V30 4917 H 493.823 -2.21431 -3.0623 0
M  V30 4918 H 494.136 -5.02007 -5.87545 0
M  V30 4919 H 492.481 -4.5094 -5.28846 0
M  V30 4920 H 495.672 -2.81066 -3.74325 0
M  V30 4921 H 495.845 -4.08994 -5.02621 0
M  V30 4922 N 489.251 1.34841 -0.815825 0
M  V30 4923 C 490.528 1.92908 -0.323416 0
M  V30 4924 C 490.908 1.74479 1.18828 0
M  V30 4925 O 490.256 1.11928 1.99209 0
M  V30 4926 C 490.466 3.40957 -0.744952 0
M  V30 4927 C 491.814 4.18107 -0.739716 0
M  V30 4928 O 492.838 3.49511 -0.68708 0
M  V30 4929 O 491.697 5.40517 -0.806456 0
M  V30 4930 H 488.791 0.822436 -0.0867646 0
M  V30 4931 H 491.337 1.4386 -0.90014 0
M  V30 4932 H 490.109 3.4814 -1.78646 0
M  V30 4933 H 489.732 3.97341 -0.143535 0
M  V30 4934 N 490.729 0.570148 1.46925 0
M  V30 4935 C 491.975 0.0510284 2.02736 0
M  V30 4936 C 492.308 -1.3006 1.44215 0
M  V30 4937 O 491.583 -1.84932 0.602521 0
M  V30 4938 C 491.866 -0.028215 3.60089 0
M  V30 4939 C 491.719 1.35142 4.29018 0
M  V30 4940 C 493.038 -0.735181 4.33916 0
M  V30 4941 H 490.157 0.0200178 0.736728 0
M  V30 4942 H 492.799 0.73493 1.75211 0
M  V30 4943 H 490.949 -0.610648 3.83671 0
M  V30 4944 H 492.621 1.97806 4.16738 0
M  V30 4945 H 490.864 1.9226 3.88868 0
M  V30 4946 H 491.535 1.24857 5.37694 0
M  V30 4947 H 494.011 -0.240519 4.15404 0
M  V30 4948 H 492.887 -0.759622 5.43618 0
M  V30 4949 H 493.148 -1.79397 4.04066 0
M  V30 4950 N 492.207 -1.54576 0.307264 0
M  V30 4951 C 493.455 -1.99867 -0.299574 0
M  V30 4952 C 493.776 -1.19714 -1.53927 0
M  V30 4953 O 493.046 -0.29472 -1.9367 0
M  V30 4954 H 491.626 -0.738299 -0.113683 0
M  V30 4955 H 494.288 -1.9032 0.420042 0
M  V30 4956 H 493.384 -3.06901 -0.567283 0
M  V30 4957 N 493.685 -0.035106 -1.57561 0
M  V30 4958 C 494.934 0.641604 -1.91223 0
M  V30 4959 C 495.247 1.72944 -0.913761 0
M  V30 4960 O 496.453 2.46321 -1.14185 0
M  V30 4961 C 494.909 1.19249 -3.3957 0
M  V30 4962 C 494.517 0.137616 -4.47789 0
M  V30 4963 C 496.261 1.84537 -3.82291 0
M  V30 4964 C 494.168 0.700478 -5.87237 0
M  V30 4965 H 493.098 0.243417 -0.713627 0
M  V30 4966 H 495.749 -0.101382 -1.8322 0
M  V30 4967 H 494.131 1.98728 -3.42525 0
M  V30 4968 H 495.305 -0.635153 -4.56402 0
M  V30 4969 H 493.62 -0.416855 -4.14308 0
M  V30 4970 H 496.217 2.27616 -4.83834 0
M  V30 4971 H 496.56 2.69054 -3.17672 0
M  V30 4972 H 497.093 1.11739 -3.81784 0
M  V30 4973 H 493.832 -0.106693 -6.55413 0
M  V30 4974 H 493.352 1.4416 -5.82218 0
M  V30 4975 H 495.031 1.18837 -6.35993 0
M  V30 4976 N 495.163 1.55791 0.238111 0
M  V30 4977 C 496.574 1.68383 0.806472 0
M  V30 4978 C 496.925 0.634157 1.85669 0
M  V30 4979 O 496.05 -0.217913 2.153 0
M  V30 4980 C 496.645 3.05268 1.46959 0
M  V30 4981 C 495.204 3.1977 1.98555 0
M  V30 4982 C 494.351 2.64279 0.839763 0
M  V30 4983 H 497.302 1.58694 0.0137535 0
M  V30 4984 H 497.323 3.00203 2.33792 0
M  V30 4985 H 496.835 3.81643 0.704993 0
M  V30 4986 H 494.936 2.48234 2.77868 0
M  V30 4987 H 495.049 4.26788 2.17689 0
M  V30 4988 H 493.413 2.22329 1.24265 0
M  V30 4989 H 494.196 3.43187 0.0881032 0
M  V30 4990 N 496.642 -0.504142 1.49319 0
M  V30 4991 C 498.053 -1.08572 1.51885 0
M  V30 4992 C 498.404 -1.93842 0.303255 0
M  V30 4993 O 497.529 -2.0828 -0.58724 0
M  V30 4994 C 498.124 -1.97574 2.75227 0
M  V30 4995 C 496.683 -2.509 2.80581 0
M  V30 4996 C 495.83 -1.28447 2.45757 0
M  V30 4997 H 498.781 -0.288194 1.56061 0
M  V30 4998 H 498.802 -2.82219 2.55211 0
M  V30 4999 H 498.314 -1.35486 3.63683 0
M  V30 5000 H 496.415 -3.16636 1.96398 0
M  V30 5001 H 496.528 -2.88268 3.82673 0
M  V30 5002 H 494.892 -1.60868 1.97468 0
M  V30 5003 H 495.675 -0.68072 3.36483 0
M  V30 5004 N 498.12 -1.38341 -0.754957 0
M  V30 5005 C 499.07 -1.31964 -1.85929 0
M  V30 5006 C 500.054 -0.204181 -1.59599 0
M  V30 5007 O 501.246 -0.440036 -1.71443 0
M  V30 5008 C 498.375 -1.14565 -3.2362 0
M  V30 5009 C 497.461 -2.30727 -3.55846 0
M  V30 5010 N 497.852 -3.56165 -3.59138 0
M  V30 5011 C 496.15 -2.23249 -3.86104 0
M  V30 5012 C 496.851 -4.32865 -3.88591 0
M  V30 5013 N 495.827 -3.62203 -4.05351 0
M  V30 5014 H 499.629 -2.2694 -1.8675 0
M  V30 5015 H 497.143 -1.31553 -0.952243 0
M  V30 5016 H 499.14 -1.0808 -4.02647 0
M  V30 5017 H 497.8 -0.205212 -3.24051 0
M  V30 5018 H 498.811 -3.89854 -3.40932 0
M  V30 5019 H 495.488 -1.37357 -3.94258 0
M  V30 5020 H 496.878 -5.41504 -3.97773 0
M  V30 5021 N 499.598 0.982988 -1.23187 0
M  V30 5022 C 500.528 2.09301 -1.03515 0
M  V30 5023 C 501.509 1.70035 0.0471136 0
M  V30 5024 O 502.694 1.93847 -0.117029 0
M  V30 5025 C 499.824 3.4167 -0.622791 0
M  V30 5026 C 498.778 3.94828 -1.65211 0
M  V30 5027 C 498.104 5.23362 -1.09527 0
M  V30 5028 C 499.404 4.2439 -3.04451 0
M  V30 5029 H 501.098 2.26016 -1.96359 0
M  V30 5030 H 498.644 1.08611 -0.945501 0
M  V30 5031 H 500.597 4.18746 -0.472233 0
M  V30 5032 H 499.321 3.24811 0.341329 0
M  V30 5033 H 497.98 3.19895 -1.79061 0
M  V30 5034 H 497.628 5.02852 -0.122211 0
M  V30 5035 H 497.328 5.59895 -1.783 0
M  V30 5036 H 498.852 6.03062 -0.956511 0
M  V30 5037 H 500.266 4.92225 -2.93917 0
M  V30 5038 H 498.663 4.72118 -3.70438 0
M  V30 5039 H 499.733 3.31765 -3.53638 0
M  V30 5040 N 501.076 1.04316 1.18135 0
M  V30 5041 C 502.492 0.762858 1.40188 0
M  V30 5042 C 502.692 -0.646547 1.90846 0
M  V30 5043 O 501.748 -1.41036 2.0944 0
M  V30 5044 C 503.061 1.81106 2.40044 0
M  V30 5045 C 504.609 1.83226 2.53766 0
M  V30 5046 C 505.084 2.87044 3.56889 0
M  V30 5047 N 506.575 2.85951 3.64398 0
M  V30 5048 C 507.31 3.62932 4.43923 0
M  V30 5049 N 506.806 4.49672 5.27036 0
M  V30 5050 N 508.599 3.51411 4.38711 0
M  V30 5051 H 500.75 1.95264 0.835805 0
M  V30 5052 H 503.013 0.845017 0.429709 0
M  V30 5053 H 502.719 2.82214 2.09876 0
M  V30 5054 H 502.593 1.64529 3.39426 0
M  V30 5055 H 504.98 0.827869 2.8325 0
M  V30 5056 H 505.061 2.03879 1.54489 0
M  V30 5057 H 504.705 3.87663 3.28145 0
M  V30 5058 H 504.635 2.63645 4.5585 0
M  V30 5059 H 507.126 2.23051 3.05052 0
M  V30 5060 H 507.439 5.05116 5.84874 0
M  V30 5061 H 505.784 4.53738 5.26447 0
M  V30 5062 H 508.975 2.83047 3.72829 0
M  V30 5063 H 509.148 4.11654 5.00445 0
M  V30 5064 N 502.554 -1.34406 0.822964 0
M  V30 5065 C 503.831 -1.92733 0.333641 0
M  V30 5066 C 504.211 -1.75107 -1.17901 0
M  V30 5067 O 503.559 -1.12983 -1.98613 0
M  V30 5068 C 503.769 -3.40557 0.763023 0
M  V30 5069 C 505.117 -4.17709 0.761879 0
M  V30 5070 O 506.141 -3.49141 0.705606 0
M  V30 5071 O 505 -5.40082 0.835109 0
M  V30 5072 H 502.094 -0.821964 0.0911249 0
M  V30 5073 H 504.64 -1.4338 0.907757 0
M  V30 5074 H 503.412 -3.47187 1.8049 0
M  V30 5075 H 503.035 -3.97259 0.164605 0
M  V30 5076 N 504.032 -0.577932 -1.46621 0
M  V30 5077 C 505.278 -0.0617793 -2.02706 0
M  V30 5078 C 505.611 1.29294 -1.44903 0
M  V30 5079 O 504.886 1.8461 -0.61232 0
M  V30 5080 C 505.169 0.00911824 -3.60099 0
M  V30 5081 C 505.022 -1.37416 -4.28295 0
M  V30 5082 C 506.341 0.712159 -4.343 0
M  V30 5083 H 503.46 -0.0239246 -0.736612 0
M  V30 5084 H 506.102 -0.744211 -1.74818 0
M  V30 5085 H 504.252 0.590292 -3.83989 0
M  V30 5086 H 505.924 -2.00013 -4.15683 0
M  V30 5087 H 504.167 -1.94319 -3.87843 0
M  V30 5088 H 504.838 -1.27707 -5.37024 0
M  V30 5089 H 507.314 0.218486 -4.15526 0
M  V30 5090 H 506.19 0.730782 -5.44014 0
M  V30 5091 H 506.451 1.77251 -4.05012 0
M  V30 5092 N 505.51 1.54411 -0.315457 0
M  V30 5093 C 506.758 2.00023 0.288971 0
M  V30 5094 C 507.079 1.20529 1.5329 0
M  V30 5095 O 506.349 0.304986 1.93511 0
M  V30 5096 H 504.929 0.738891 0.109766 0
M  V30 5097 H 507.591 1.90094 -0.430129 0
M  V30 5098 H 506.687 3.07198 0.550999 0
M  V30 5099 N 506.988 0.0434614 1.5754 0
M  V30 5100 C 508.234 -0.632971 1.92669 0
M  V30 5101 C 508.567 -1.70947 0.921446 0
M  V30 5102 O 507.842 -1.94426 -0.0537202 0
M  V30 5103 C 508.125 -1.23619 3.38216 0
M  V30 5104 C 507.978 -0.168274 4.49485 0
M  V30 5105 C 509.297 -2.15008 3.84005 0
M  V30 5106 H 506.416 -0.228629 0.700641 0
M  V30 5107 H 509.058 0.103651 1.89717 0
M  V30 5108 H 507.208 -1.864 3.40863 0
M  V30 5109 H 508.88 0.463196 4.58969 0
M  V30 5110 H 507.123 0.504581 4.30855 0
M  V30 5111 H 507.794 -0.630218 5.48391 0
M  V30 5112 H 510.27 -1.62198 3.83185 0
M  V30 5113 H 509.146 -2.54161 4.86511 0
M  V30 5114 H 509.407 -3.04707 3.20322 0
M  V30 5115 N 508.466 -1.55915 -0.229846 0
M  V30 5116 C 509.882 -1.48721 -0.579166 0
M  V30 5117 C 510.082 -0.736976 -1.87539 0
M  V30 5118 O 509.138 -0.273258 -2.51017 0
M  V30 5119 C 510.451 -2.9323 -0.666082 0
M  V30 5120 C 511.999 -3.03701 -0.757267 0
M  V30 5121 C 512.474 -4.49552 -0.8756 0
M  V30 5122 N 513.965 -4.53561 -0.940035 0
M  V30 5123 C 514.7 -5.63683 -1.05116 0
M  V30 5124 N 514.196 -6.83576 -1.12675 0
M  V30 5125 N 515.989 -5.51516 -1.08565 0
M  V30 5126 H 508.14 -2.03123 0.620857 0
M  V30 5127 H 510.403 -0.922898 0.21671 0
M  V30 5128 H 510.109 -3.51032 0.21664 0
M  V30 5129 H 509.983 -3.44668 -1.53243 0
M  V30 5130 H 512.37 -2.45969 -1.63043 0
M  V30 5131 H 512.451 -2.55446 0.134583 0
M  V30 5132 H 512.095 -5.079 -0.00692351 0
M  V30 5133 H 512.025 -4.95506 -1.78274 0
M  V30 5134 H 514.516 -3.67215 -0.892269 0
M  V30 5135 H 514.829 -7.63251 -1.21109 0
M  V30 5136 H 513.174 -6.86303 -1.09603 0
M  V30 5137 H 516.365 -4.5678 -1.02319 0
M  V30 5138 H 516.538 -6.37372 -1.1688 0
M  V30 5139 N 509.944 0.496216 -1.49584 0
M  V30 5140 C 510.891 1.59722 -1.66606 0
M  V30 5141 C 511.861 1.58158 -0.507477 0
M  V30 5142 O 513.046 1.76072 -0.735076 0
M  V30 5143 C 510.186 2.97844 -1.74308 0
M  V30 5144 C 509.299 3.09388 -3.01502 0
M  V30 5145 C 508.434 4.38271 -3.00153 0
M  V30 5146 C 507.473 4.43466 -4.21906 0
M  V30 5147 N 506.61 5.63784 -4.1844 0
M  V30 5148 H 511.45 1.44515 -2.60613 0
M  V30 5149 H 508.987 0.703048 -1.29212 0
M  V30 5150 H 510.945 3.77907 -1.76754 0
M  V30 5151 H 509.575 3.11743 -0.837619 0
M  V30 5152 H 508.627 2.22357 -3.08645 0
M  V30 5153 H 509.939 3.09085 -3.91494 0
M  V30 5154 H 509.093 5.2666 -3.01188 0
M  V30 5155 H 507.832 4.41146 -2.07947 0
M  V30 5156 H 506.837 3.53478 -4.21109 0
M  V30 5157 H 508.062 4.42303 -5.1531 0
M  V30 5158 H 506.008 5.67491 -3.29074 0
M  V30 5159 H 505.925 5.65118 -5.02173 0
M  V30 5160 H 507.193 6.54367 -4.23585 0
M  V30 5161 N 511.423 1.38739 0.74761 0
M  V30 5162 C 512.333 1.38696 1.89211 0
M  V30 5163 C 513.349 0.283303 1.71678 0
M  V30 5164 O 514.525 0.522713 1.94498 0
M  V30 5165 C 511.59 1.21662 3.24653 0
M  V30 5166 C 510.651 2.41886 3.54669 0
M  V30 5167 C 509.884 2.25655 4.83648 0
M  V30 5168 O 510.107 1.25339 5.56459 0
M  V30 5169 O 509.041 3.14372 5.13277 0
M  V30 5170 H 512.867 2.35143 1.92202 0
M  V30 5171 H 510.452 1.19721 0.893708 0
M  V30 5172 H 512.334 1.14246 4.05618 0
M  V30 5173 H 511.009 0.283024 3.2246 0
M  V30 5174 H 509.916 2.54877 2.73841 0
M  V30 5175 H 511.249 3.33895 3.61628 0
M  V30 5176 N 512.901 -0.976442 1.23707 0
M  V30 5177 C 514.178 -1.69296 0.979699 0
M  V30 5178 C 514.558 -2.0508 -0.500555 0
M  V30 5179 O 513.906 -1.74708 -1.47273 0
M  V30 5180 C 514.116 -2.93143 1.89389 0
M  V30 5181 C 515.464 -3.65572 2.15968 0
M  V30 5182 O 516.488 -3.03184 1.86971 0
M  V30 5183 O 515.347 -4.77859 2.65167 0
M  V30 5184 H 512.441 -0.739708 0.369812 0
M  V30 5185 H 514.987 -1.03131 1.34767 0
M  V30 5186 H 513.759 -2.63327 2.89439 0
M  V30 5187 H 513.382 -3.67044 1.52854 0
M  V30 5188 N 514.379 -1.04941 -1.1758 0
M  V30 5189 C 515.628 -0.753124 -1.87112 0
M  V30 5190 C 515.941 0.722507 -1.81767 0
M  V30 5191 O 517.147 1.13265 -2.46746 0
M  V30 5192 C 515.603 -1.29695 -3.35719 0
M  V30 5193 C 515.211 -2.80184 -3.49572 0
M  V30 5194 C 516.955 -1.07759 -4.10595 0
M  V30 5195 C 514.862 -3.2788 -4.92187 0
M  V30 5196 H 513.792 -0.278034 -0.700866 0
M  V30 5197 H 516.443 -1.26637 -1.32798 0
M  V30 5198 H 514.825 -0.711522 -3.89555 0
M  V30 5199 H 515.999 -3.44561 -3.05965 0
M  V30 5200 H 514.314 -3.00632 -2.88113 0
M  V30 5201 H 516.911 -1.40899 -5.15802 0
M  V30 5202 H 517.254 -0.0152302 -4.16297 0
M  V30 5203 H 517.787 -1.62809 -3.62957 0
M  V30 5204 H 514.526 -4.33535 -4.91658 0
M  V30 5205 H 514.046 -2.68245 -5.36475 0
M  V30 5206 H 515.725 -3.22412 -5.60945 0
M  V30 5207 N 515.857 1.33968 -0.830081 0
M  V30 5208 C 517.268 1.80439 -0.479455 0
M  V30 5209 C 517.619 1.68756 1.00079 0
M  V30 5210 O 516.744 1.23171 1.77927 0
M  V30 5211 C 517.339 3.27611 -0.863505 0
M  V30 5212 C 515.898 3.72133 -0.565145 0
M  V30 5213 C 515.045 2.55549 -1.07657 0
M  V30 5214 H 517.996 1.21614 -1.0196 0
M  V30 5215 H 518.017 3.8012 -0.170083 0
M  V30 5216 H 517.529 3.36082 -1.94089 0
M  V30 5217 H 515.63 3.69196 0.502536 0
M  V30 5218 H 515.743 4.65963 -1.11422 0
M  V30 5219 H 514.107 2.49788 -0.497807 0
M  V30 5220 H 514.89 2.66786 -2.16055 0
M  V30 5221 N 517.335 0.585699 1.46312 0
M  V30 5222 C 518.298 -0.135673 2.28798 0
M  V30 5223 C 519.298 -0.815988 1.38558 0
M  V30 5224 O 520.488 -0.667487 1.60904 0
M  V30 5225 C 517.62 -1.20163 3.1902 0
M  V30 5226 H 518.813 0.589257 2.94054 0
M  V30 5227 H 516.366 0.343794 1.52472 0
M  V30 5228 H 517.101 -1.95804 2.58517 0
M  V30 5229 H 516.886 -0.718282 3.85465 0
M  V30 5230 H 518.376 -1.70749 3.81096 0
M  V30 5231 N 518.813 -1.54241 0.323641 0
M  V30 5232 C 519.743 -2.27289 -0.534993 0
M  V30 5233 C 520.724 -1.28087 -1.11927 0
M  V30 5234 O 521.909 -1.56899 -1.14439 0
M  V30 5235 C 519.039 -3.03075 -1.69596 0
M  V30 5236 C 517.993 -4.09614 -1.24098 0
M  V30 5237 C 517.319 -4.73242 -2.4889 0
M  V30 5238 C 518.619 -5.21087 -0.355789 0
M  V30 5239 H 520.313 -2.99308 0.0743257 0
M  V30 5240 H 517.859 -1.43952 0.0371874 0
M  V30 5241 H 519.812 -3.52907 -2.30293 0
M  V30 5242 H 518.536 -2.28673 -2.33187 0
M  V30 5243 H 517.195 -3.60666 -0.656945 0
M  V30 5244 H 516.843 -3.95455 -3.10845 0
M  V30 5245 H 516.543 -5.45209 -2.19138 0
M  V30 5246 H 518.067 -5.25848 -3.10348 0
M  V30 5247 H 519.481 -5.66675 -0.869042 0
M  V30 5248 H 517.878 -5.9991 -0.151045 0
M  V30 5249 H 518.948 -4.81005 0.613339 0
M  V30 5250 N 520.291 -0.0518155 -1.57515 0
M  V30 5251 C 521.254 0.907547 -2.10467 0
M  V30 5252 C 522.254 1.23947 -1.02439 0
M  V30 5253 O 523.444 1.17604 -1.2851 0
M  V30 5254 C 520.576 2.21723 -2.58944 0
M  V30 5255 H 521.769 0.44851 -2.96527 0
M  V30 5256 H 519.322 0.196598 -1.55059 0
M  V30 5257 H 520.057 2.72206 -1.76279 0
M  V30 5258 H 519.842 1.98935 -3.37886 0
M  V30 5259 H 521.332 2.90441 -3.00056 0
M  V30 5260 N 521.769 1.56035 0.221574 0
M  V30 5261 C 522.701 1.889 1.29805 0
M  V30 5262 C 523.714 0.777269 1.43047 0
M  V30 5263 O 524.903 1.05557 1.43945 0
M  V30 5264 C 522.003 2.0825 2.67367 0
M  V30 5265 C 521.176 3.39267 2.76073 0
M  V30 5266 C 520.235 3.48049 3.94649 0
M  V30 5267 O 519.261 4.2108 3.82988 0
M  V30 5268 N 520.463 2.79191 5.08953 0
M  V30 5269 H 523.228 2.81831 1.01938 0
M  V30 5270 H 520.789 1.5658 0.411612 0
M  V30 5271 H 522.781 2.11441 3.45072 0
M  V30 5272 H 521.351 1.21944 2.87834 0
M  V30 5273 H 520.571 3.48175 1.84846 0
M  V30 5274 H 521.859 4.25575 2.7886 0
M  V30 5275 H 521.257 2.19635 5.21322 0
M  V30 5276 H 519.814 2.88043 5.84701 0
M  V30 5277 N 523.247 -0.488276 1.49845 0
M  V30 5278 C 524.21 -1.57069 1.66919 0
M  V30 5279 C 525.21 -1.51445 0.540479 0
M  V30 5280 O 526.4 -1.5437 0.807188 0
M  V30 5281 C 523.532 -2.96718 1.67844 0
M  V30 5282 H 524.725 -1.43254 2.63474 0
M  V30 5283 H 522.278 -0.713435 1.39068 0
M  V30 5284 H 523.013 -3.15996 0.7292 0
M  V30 5285 H 522.798 -3.02208 2.49826 0
M  V30 5286 H 524.288 -3.75335 1.83066 0
M  V30 5287 N 524.725 -1.39134 -0.740242 0
M  V30 5288 C 525.688 -1.37217 -1.83587 0
M  V30 5289 C 526.688 -0.270221 -1.58513 0
M  V30 5290 O 527.878 -0.527843 -1.6601 0
M  V30 5291 C 525.01 -1.13959 -3.21288 0
M  V30 5292 H 526.203 -2.34705 -1.86691 0
M  V30 5293 H 523.756 -1.24622 -0.94335 0
M  V30 5294 H 524.491 -0.17131 -3.23847 0
M  V30 5295 H 524.276 -1.93754 -3.40884 0
M  V30 5296 H 525.766 -1.15346 -4.01354 0
M  V30 5297 N 526.204 0.969867 -1.24223 0
M  V30 5298 C 527.134 2.08191 -1.05729 0
M  V30 5299 C 528.115 1.70075 0.0290765 0
M  V30 5300 O 529.3 1.93712 -0.137583 0
M  V30 5301 C 526.43 3.40991 -0.658995 0
M  V30 5302 C 525.384 3.93054 -1.69389 0
M  V30 5303 C 524.71 5.22171 -1.15072 0
M  V30 5304 C 526.01 4.21137 -3.08935 0
M  V30 5305 H 527.704 2.23921 -1.98746 0
M  V30 5306 H 525.25 1.07602 -0.956967 0
M  V30 5307 H 527.203 4.18221 -0.51662 0
M  V30 5308 H 525.927 3.25155 0.30686 0
M  V30 5309 H 524.586 3.17977 -1.82444 0
M  V30 5310 H 524.234 5.02694 -0.175539 0
M  V30 5311 H 523.934 5.57973 -1.84229 0
M  V30 5312 H 525.458 6.02013 -1.02042 0
M  V30 5313 H 526.872 4.8908 -2.99121 0
M  V30 5314 H 525.269 4.68163 -3.75425 0
M  V30 5315 H 526.339 3.27996 -3.57137 0
M  V30 5316 N 527.682 1.05563 1.17022 0
M  V30 5317 C 528.959 0.68165 1.83338 0
M  V30 5318 C 529.339 -0.837665 1.93769 0
M  V30 5319 O 528.687 -1.74507 1.47511 0
M  V30 5320 C 528.897 1.375 3.20772 0
M  V30 5321 C 530.245 1.51545 3.96635 0
M  V30 5322 O 531.269 1.33431 3.30264 0
M  V30 5323 O 530.128 1.812 5.15586 0
M  V30 5324 H 527.222 0.240412 0.791285 0
M  V30 5325 H 529.768 1.15545 1.24288 0
M  V30 5326 H 528.54 2.41135 3.08171 0
M  V30 5327 H 528.163 0.890798 3.87493 0
M  V30 5328 N 529.16 -1.33526 0.837174 0
M  V30 5329 C 530.437 -1.92369 0.354065 0
M  V30 5330 C 530.817 -1.76348 -1.16038 0
M  V30 5331 O 530.165 -1.15083 -1.97403 0
M  V30 5332 C 530.375 -3.39728 0.799101 0
M  V30 5333 C 531.723 -4.16877 0.806139 0
M  V30 5334 O 532.747 -3.48373 0.742597 0
M  V30 5335 O 531.606 -5.39166 0.892345 0
M  V30 5336 H 528.7 -0.820952 0.0998378 0
M  V30 5337 H 531.246 -1.42409 0.922913 0
M  V30 5338 H 530.018 -3.45254 1.84162 0
M  V30 5339 H 529.641 -3.97062 0.206731 0
M  V30 5340 N 530.638 -0.59345 -1.46 0
M  V30 5341 C 531.884 -0.0832754 -2.02629 0
M  V30 5342 C 532.217 1.27749 -1.46266 0
M  V30 5343 O 531.492 1.8395 -0.631866 0
M  V30 5344 C 531.775 -0.0290756 -3.60088 0
M  V30 5345 C 531.628 -1.41951 -4.26814 0
M  V30 5346 C 532.947 0.666055 -4.35031 0
M  V30 5347 H 530.066 -0.031736 -0.736316 0
M  V30 5348 H 532.708 -0.762711 -1.74019 0
M  V30 5349 H 530.858 0.549532 -3.84594 0
M  V30 5350 H 532.53 -2.04411 -4.13538 0
M  V30 5351 H 530.773 -1.98422 -3.8576 0
M  V30 5352 H 531.444 -1.33395 -5.3564 0
M  V30 5353 H 533.92 0.174401 -4.15734 0
M  V30 5354 H 532.796 0.673041 -5.44758 0
M  V30 5355 H 533.057 1.72946 -4.06869 0
M  V30 5356 N 532.116 1.54067 -0.331816 0
M  V30 5357 C 533.356 2.02625 0.26876 0
M  V30 5358 C 533.72 1.21462 1.48697 0
M  V30 5359 O 534.921 1.59863 2.16096 0
M  V30 5360 C 533.192 3.52554 0.586577 0
M  V30 5361 S 534.751 4.23035 1.16563 0
M  V30 5362 H 531.569 0.706395 0.0807862 0
M  V30 5363 H 534.171 1.89844 -0.466856 0
M  V30 5364 H 532.875 4.09242 -0.308046 0
M  V30 5365 H 532.406 3.69432 1.35217 0
M  V30 5366 H 534.421 4.31382 2.45203 0
M  V30 5367 N 533.594 0.0601682 1.57485 0
M  V30 5368 C 534.822 -0.620937 1.97363 0
M  V30 5369 C 535.237 -1.63846 0.938082 0
M  V30 5370 O 534.594 -1.82339 -0.0766578 0
M  V30 5371 C 534.645 -1.29987 3.37321 0
M  V30 5372 O 534.366 -0.323081 4.36907 0
M  V30 5373 C 535.867 -2.06989 3.92008 0
M  V30 5374 H 533.087 -0.169135 0.649334 0
M  V30 5375 H 535.631 0.129132 2.04092 0
M  V30 5376 H 533.786 -2.0011 3.31715 0
M  V30 5377 H 534.2 -0.808754 5.18227 0
M  V30 5378 H 535.674 -2.49901 4.92192 0
M  V30 5379 H 536.151 -2.92173 3.2792 0
M  V30 5380 H 536.757 -1.41757 4.0098 0
M  V30 5381 N 535.072 -1.5615 -0.213296 0
M  V30 5382 C 536.32 -1.79191 -0.934612 0
M  V30 5383 C 536.641 -0.630112 -1.84539 0
M  V30 5384 O 535.911 0.35257 -1.92701 0
M  V30 5385 H 534.491 -0.660937 -0.348097 0
M  V30 5386 H 537.153 -1.93618 -0.22317 0
M  V30 5387 H 536.249 -2.71656 -1.53654 0
M  V30 5388 N 536.55 0.480323 -1.50102 0
M  V30 5389 C 537.798 1.23063 -1.60312 0
M  V30 5390 C 538.119 1.92659 -0.301226 0
M  V30 5391 O 537.389 1.83691 0.680753 0
M  V30 5392 H 535.969 0.457231 -0.590719 0
M  V30 5393 H 538.631 0.554893 -1.86834 0
M  V30 5394 H 537.727 1.9835 -2.40964 0
M  V30 5395 N 538.028 1.39524 0.732853 0
M  V30 5396 C 538.976 1.38563 1.86824 0
M  V30 5397 C 539.97 0.268467 1.67259 0
M  V30 5398 O 541.176 0.438613 1.74574 0
M  V30 5399 H 537.551 0.432737 0.615014 0
M  V30 5400 H 539.522 2.34328 1.84751 0
M  V30 5401 C 538.271 1.2481 3.24527 0
M  V30 5402 H 537.594 2.10044 3.40179 0
M  V30 5403 H 539.034 1.28194 4.04156 0
M  V30 5404 C 537.493 -0.0432825 3.36872 0
M  V30 5405 O 538.023 -1.01268 3.88726 0
M  V30 5406 N 536.229 -0.107055 2.90403 0
M  V30 5407 H 535.776 0.682512 2.48394 0
M  V30 5408 H 535.734 -0.970618 2.99042 0
M  V30 5409 N 539.506 -0.963266 1.24736 0
M  V30 5410 C 540.917 -1.52145 1.08207 0
M  V30 5411 C 541.268 -1.93142 -0.345061 0
M  V30 5412 O 540.393 -1.77769 -1.23399 0
M  V30 5413 C 540.988 -2.76486 1.95808 0
M  V30 5414 C 539.547 -3.28646 1.8349 0
M  V30 5415 C 538.694 -2.01529 1.90476 0
M  V30 5416 H 541.645 -0.781083 1.38148 0
M  V30 5417 H 541.666 -3.49986 1.49297 0
M  V30 5418 H 541.178 -2.46617 2.99669 0
M  V30 5419 H 539.279 -3.63357 0.824787 0
M  V30 5420 H 539.392 -3.97246 2.67829 0
M  V30 5421 H 537.756 -2.16442 1.34258 0
M  V30 5422 H 538.539 -1.7402 2.95926 0
M  V30 5423 N 540.985 -1.06182 -1.16461 0
M  V30 5424 C 542.401 -0.785065 -1.38956 0
M  V30 5425 C 542.601 0.616103 -1.9185 0
M  V30 5426 O 541.657 1.37686 -2.11657 0
M  V30 5427 C 542.97 -1.84902 -2.37132 0
M  V30 5428 C 544.518 -1.8724 -2.50819 0
M  V30 5429 C 544.993 -2.92686 -3.52277 0
M  V30 5430 N 546.484 -2.91712 -3.59803 0
M  V30 5431 C 547.219 -3.69949 -4.38093 0
M  V30 5432 N 546.715 -4.58 -5.19815 0
M  V30 5433 N 548.508 -3.58346 -4.33064 0
M  V30 5434 H 540.659 -1.96569 -0.804634 0
M  V30 5435 H 542.922 -0.851747 -0.416211 0
M  V30 5436 H 542.628 -2.85518 -2.0536 0
M  V30 5437 H 542.502 -1.69908 -3.36766 0
M  V30 5438 H 544.889 -0.872827 -2.81897 0
M  V30 5439 H 544.97 -2.06311 -1.51226 0
M  V30 5440 H 544.614 -3.92835 -3.21937 0
M  V30 5441 H 544.544 -2.70864 -4.51598 0
M  V30 5442 H 547.035 -2.27876 -3.01464 0
M  V30 5443 H 547.348 -5.14357 -5.76764 0
M  V30 5444 H 545.693 -4.62056 -5.19162 0
M  V30 5445 H 548.884 -2.88943 -3.68279 0
M  V30 5446 H 549.057 -4.19563 -4.93833 0
M  V30 5447 N 542.463 1.3308 -0.844243 0
M  V30 5448 C 543.373 2.32876 -0.283922 0
M  V30 5449 C 544.389 1.63589 0.592846 0
M  V30 5450 O 545.565 1.95205 0.495693 0
M  V30 5451 C 542.63 3.42667 0.527283 0
M  V30 5452 C 541.691 4.27664 -0.374394 0
M  V30 5453 C 540.924 5.32212 0.39819 0
M  V30 5454 O 541.147 5.46635 1.62932 0
M  V30 5455 O 540.081 6.01458 -0.2306 0
M  V30 5456 H 543.907 2.82671 -1.11045 0
M  V30 5457 H 541.492 1.36518 -0.606903 0
M  V30 5458 H 543.374 4.09652 0.988078 0
M  V30 5459 H 542.049 2.95079 1.33078 0
M  V30 5460 H 540.956 3.63526 -0.883144 0
M  V30 5461 H 542.289 4.78749 -1.1428 0
M  V30 5462 N 543.941 0.601185 1.45683 0
M  V30 5463 C 544.904 -0.111398 2.28929 0
M  V30 5464 C 545.904 -0.801246 1.39416 0
M  V30 5465 O 547.094 -0.650383 1.61603 0
M  V30 5466 C 544.226 -1.16773 3.20276 0
M  V30 5467 H 545.419 0.620412 2.93413 0
M  V30 5468 H 542.972 0.359946 1.52099 0
M  V30 5469 H 543.707 -1.93051 2.60579 0
M  V30 5470 H 543.492 -0.677358 3.86205 0
M  V30 5471 H 544.982 -1.66698 3.82886 0
M  V30 5472 N 545.419 -1.53889 0.339982 0
M  V30 5473 C 546.647 -2.05271 -0.259114 0
M  V30 5474 C 547.062 -1.21517 -1.44496 0
M  V30 5475 O 546.419 -0.24966 -1.80784 0
M  V30 5476 C 546.47 -3.55092 -0.677634 0
M  V30 5477 O 546.191 -4.35667 0.461051 0
M  V30 5478 C 547.692 -4.22631 -1.33782 0
M  V30 5479 H 544.912 -0.669085 -0.0506566 0
M  V30 5480 H 547.456 -1.9852 0.490935 0
M  V30 5481 H 545.611 -3.62077 -1.37763 0
M  V30 5482 H 546.025 -5.24343 0.128144 0
M  V30 5483 H 547.499 -5.28861 -1.58145 0
M  V30 5484 H 547.976 -3.74758 -2.29027 0
M  V30 5485 H 548.582 -4.19829 -0.679957 0
M  V30 5486 N 546.897 -0.0685191 -1.57451 0
M  V30 5487 C 547.827 0.89747 -2.15564 0
M  V30 5488 C 548.808 1.31266 -1.08181 0
M  V30 5489 O 549.993 1.38429 -1.36202 0
M  V30 5490 C 547.123 2.16623 -2.71463 0
M  V30 5491 C 546.077 1.89054 -3.83982 0
M  V30 5492 C 545.403 3.22532 -4.26471 0
M  V30 5493 C 546.703 1.1984 -5.08366 0
M  V30 5494 H 548.397 0.413373 -2.96533 0
M  V30 5495 H 545.943 0.197391 -1.42641 0
M  V30 5496 H 547.896 2.84614 -3.10761 0
M  V30 5497 H 546.62 2.67269 -1.8771 0
M  V30 5498 H 545.279 1.23469 -3.45183 0
M  V30 5499 H 544.927 3.71013 -3.39644 0
M  V30 5500 H 544.627 3.04879 -5.02317 0
M  V30 5501 H 546.151 3.91727 -4.68383 0
M  V30 5502 H 547.565 1.77896 -5.45001 0
M  V30 5503 H 545.962 1.12456 -5.89469 0
M  V30 5504 H 547.032 0.176996 -4.84577 0
M  V30 5505 N 548.375 1.56261 0.205012 0
M  V30 5506 C 549.285 1.96944 1.27476 0
M  V30 5507 C 550.301 0.875636 1.50362 0
M  V30 5508 O 551.477 1.18058 1.6317 0
M  V30 5509 C 548.542 2.29219 2.60115 0
M  V30 5510 C 547.603 3.52255 2.45387 0
M  V30 5511 C 546.836 3.8298 3.71701 0
M  V30 5512 O 547.059 3.15138 4.75441 0
M  V30 5513 O 545.993 4.76435 3.67823 0
M  V30 5514 H 549.819 2.88144 0.959527 0
M  V30 5515 H 547.404 1.43686 0.409217 0
M  V30 5516 H 549.286 2.51098 3.3842 0
M  V30 5517 H 547.961 1.4119 2.91285 0
M  V30 5518 H 546.868 3.35635 1.65227 0
M  V30 5519 H 548.201 4.40719 2.19152 0
M  V30 5520 N 549.853 -0.472356 1.50355 0
M  V30 5521 C 551.13 -1.23356 1.51798 0
M  V30 5522 C 551.51 -2.09469 0.26193 0
M  V30 5523 O 550.858 -2.15677 -0.754691 0
M  V30 5524 C 551.068 -2.06568 2.81302 0
M  V30 5525 C 552.416 -2.648 3.31913 0
M  V30 5526 O 553.44 -2.16812 2.82614 0
M  V30 5527 O 552.299 -3.52231 4.17846 0
M  V30 5528 H 549.393 -0.559707 0.608816 0
M  V30 5529 H 551.939 -0.48428 1.62643 0
M  V30 5530 H 550.711 -1.43103 3.64194 0
M  V30 5531 H 550.334 -2.88633 2.73454 0
M  V30 5532 N 551.331 -1.39911 -0.725443 0
M  V30 5533 C 552.58 -1.36963 -1.48068 0
M  V30 5534 C 552.893 0.0284478 -1.95579 0
M  V30 5535 O 554.099 0.180535 -2.70899 0
M  V30 5536 C 552.555 -2.40664 -2.67598 0
M  V30 5537 C 552.163 -3.86234 -2.26997 0
M  V30 5538 C 553.907 -2.46807 -3.45379 0
M  V30 5539 C 551.814 -4.81554 -3.43307 0
M  V30 5540 H 550.744 -0.509223 -0.556065 0
M  V30 5541 H 553.395 -1.65602 -0.790454 0
M  V30 5542 H 551.777 -2.05109 -3.38742 0
M  V30 5543 H 552.951 -4.3088 -1.63337 0
M  V30 5544 H 551.266 -3.83475 -1.62284 0
M  V30 5545 H 553.863 -3.15213 -4.31909 0
M  V30 5546 H 554.206 -1.49552 -3.8851 0
M  V30 5547 H 554.739 -2.81303 -2.81271 0
M  V30 5548 H 551.478 -5.80106 -3.05217 0
M  V30 5549 H 550.998 -4.4158 -4.05915 0
M  V30 5550 H 552.677 -5.0091 -4.0951 0
M  V30 5551 N 552.809 0.956637 -1.25245 0
M  V30 5552 C 554.055 1.70352 -1.10036 0
M  V30 5553 C 554.388 1.90869 0.358156 0
M  V30 5554 O 553.663 1.47819 1.26411 0
M  V30 5555 C 553.946 3.08766 -1.85298 0
M  V30 5556 C 553.799 2.95672 -3.38966 0
M  V30 5557 C 555.118 4.08622 -1.63451 0
M  V30 5558 H 552.237 0.618279 -0.401123 0
M  V30 5559 H 554.879 1.11212 -1.54051 0
M  V30 5560 H 553.029 3.59252 -1.47887 0
M  V30 5561 H 554.701 2.52527 -3.86041 0
M  V30 5562 H 552.944 2.31634 -3.6678 0
M  V30 5563 H 553.615 3.93776 -3.86839 0
M  V30 5564 H 556.091 3.67038 -1.96015 0
M  V30 5565 H 554.967 5.03514 -2.18551 0
M  V30 5566 H 555.228 4.3834 -0.575357 0
M  V30 5567 N 554.287 1.06798 1.15896 0
M  V30 5568 C 555.197 0.694564 2.24083 0
M  V30 5569 C 556.213 -0.291687 1.71538 0
M  V30 5570 O 557.389 -0.139723 2.00915 0
M  V30 5571 C 554.454 0.0921014 3.46578 0
M  V30 5572 C 553.515 1.13087 4.14137 0
M  V30 5573 C 552.748 0.557064 5.30785 0
M  V30 5574 O 552.971 -0.628623 5.66925 0
M  V30 5575 O 551.905 1.29924 5.8771 0
M  V30 5576 H 555.731 1.59663 2.58344 0
M  V30 5577 H 553.316 0.840575 1.2351 0
M  V30 5578 H 555.198 -0.241884 4.20705 0
M  V30 5579 H 553.873 -0.78337 3.14078 0
M  V30 5580 H 552.78 1.51712 3.41957 0
M  V30 5581 H 554.113 1.97805 4.50704 0
M  V30 5582 N 555.766 -1.3263 0.851289 0
M  V30 5583 C 556.696 -2.31449 0.308771 0
M  V30 5584 C 557.677 -1.59531 -0.590255 0
M  V30 5585 O 558.862 -1.87351 -0.511205 0
M  V30 5586 C 555.992 -3.43586 -0.506548 0
M  V30 5587 C 554.946 -4.26963 0.297753 0
M  V30 5588 C 554.272 -5.30831 -0.642094 0
M  V30 5589 C 555.572 -4.99643 1.52166 0
M  V30 5590 H 557.266 -2.77074 1.13447 0
M  V30 5591 H 554.812 -1.33207 0.546971 0
M  V30 5592 H 556.765 -4.11754 -0.896474 0
M  V30 5593 H 555.489 -2.96681 -1.36558 0
M  V30 5594 H 554.148 -3.60437 0.669391 0
M  V30 5595 H 553.796 -4.8018 -1.49788 0
M  V30 5596 H 553.496 -5.87501 -0.107968 0
M  V30 5597 H 555.02 -6.01862 -1.02927 0
M  V30 5598 H 556.434 -5.6051 1.20421 0
M  V30 5599 H 554.831 -5.66022 1.99347 0
M  V30 5600 H 555.901 -4.27701 2.28474 0
M  V30 5601 N 557.244 -0.608902 -1.45362 0
M  V30 5602 C 558.474 -0.110852 -2.06302 0
M  V30 5603 C 558.882 1.21062 -1.45398 0
M  V30 5604 O 558.225 1.74861 -0.562976 0
M  V30 5605 C 558.287 0.101793 -3.59356 0
M  V30 5606 C 557.951 -1.13808 -4.42602 0
M  V30 5607 C 558.948 -2.05653 -4.77496 0
M  V30 5608 C 556.633 -1.36727 -4.83333 0
M  V30 5609 C 558.627 -3.18745 -5.51978 0
M  V30 5610 C 556.314 -2.5012 -5.57569 0
M  V30 5611 C 557.312 -3.40957 -5.91809 0
M  V30 5612 O 557 -4.52376 -6.64538 0
M  V30 5613 H 556.732 -0.0666001 -0.672711 0
M  V30 5614 H 559.286 -0.836942 -1.87575 0
M  V30 5615 H 557.516 0.88279 -3.76489 0
M  V30 5616 H 559.205 0.551607 -4.02134 0
M  V30 5617 H 559.971 -1.89172 -4.46586 0
M  V30 5618 H 555.85 -0.669216 -4.56117 0
M  V30 5619 H 559.394 -3.8967 -5.78622 0
M  V30 5620 H 555.291 -2.66553 -5.87894 0
M  V30 5621 H 556.059 -4.51075 -6.82989 0
M  V30 5622 N 558.722 1.53707 -0.348139 0
M  V30 5623 C 559.672 2.2193 0.522592 0
M  V30 5624 C 560.656 1.20831 1.06248 0
M  V30 5625 O 561.848 1.46357 0.995415 0
M  V30 5626 C 558.977 2.99904 1.6707 0
M  V30 5627 C 558.063 4.08364 1.14454 0
M  V30 5628 N 558.454 5.04656 0.339958 0
M  V30 5629 C 556.752 4.22757 1.421 0
M  V30 5630 C 557.453 5.81675 0.0538806 0
M  V30 5631 N 556.429 5.39739 0.646776 0
M  V30 5632 H 560.231 2.93733 -0.099135 0
M  V30 5633 H 557.745 1.61656 -0.15524 0
M  V30 5634 H 559.742 3.47284 2.30651 0
M  V30 5635 H 558.402 2.29629 2.29566 0
M  V30 5636 H 559.413 5.17896 -0.0193552 0
M  V30 5637 H 556.09 3.63704 2.05002 0
M  V30 5638 H 557.48 6.69256 -0.595443 0
M  V30 5639 N 560.2 0.0768682 1.57412 0
M  V30 5640 C 561.428 -0.59997 1.9801 0
M  V30 5641 C 561.843 -1.62842 0.955408 0
M  V30 5642 O 561.2 -1.8241 -0.057314 0
M  V30 5643 C 561.251 -1.26401 3.38681 0
M  V30 5644 O 560.972 -0.276723 4.37225 0
M  V30 5645 C 562.473 -2.0282 3.94182 0
M  V30 5646 H 559.693 -0.162239 0.651091 0
M  V30 5647 H 562.237 0.150771 2.03943 0
M  V30 5648 H 560.392 -1.96581 3.33819 0
M  V30 5649 H 560.806 -0.753744 5.19056 0
M  V30 5650 H 562.28 -2.44667 4.94815 0
M  V30 5651 H 562.757 -2.88678 3.31001 0
M  V30 5652 H 563.363 -1.37496 4.02461 0
M  V30 5653 N 561.678 -1.56367 -0.196722 0
M  V30 5654 C 562.641 -1.93561 -1.22746 0
M  V30 5655 C 563.641 -0.816566 -1.38524 0
M  V30 5656 O 564.831 -1.084 -1.36363 0
M  V30 5657 C 561.963 -2.20823 -2.59712 0
M  V30 5658 H 563.156 -2.85774 -0.909586 0
M  V30 5659 H 560.709 -1.50032 -0.438174 0
M  V30 5660 H 561.444 -1.31243 -2.96557 0
M  V30 5661 H 561.229 -3.02368 -2.49632 0
M  V30 5662 H 562.719 -2.50608 -3.34044 0
M  V30 5663 N 563.156 0.464375 -1.50603 0
M  V30 5664 C 564.402 1.21485 -1.63135 0
M  V30 5665 C 564.757 1.89538 -0.33063 0
M  V30 5666 O 564.05 1.79432 0.671903 0
M  V30 5667 C 564.244 2.278 -2.75394 0
M  V30 5668 C 564.073 1.70178 -4.16257 0
M  V30 5669 C 562.843 1.49854 -4.82568 0
M  V30 5670 C 565.041 1.19298 -5.00272 0
M  V30 5671 N 563.023 0.875458 -6.07626 0
M  V30 5672 C 564.394 0.693527 -6.16109 0
M  V30 5673 C 566.449 1.08216 -4.85998 0
M  V30 5674 C 565.152 0.0941808 -7.19238 0
M  V30 5675 C 567.178 0.496745 -5.8931 0
M  V30 5676 C 566.54 0.00770448 -7.044 0
M  V30 5677 H 562.639 0.433184 -0.651057 0
M  V30 5678 H 565.223 0.515748 -1.87745 0
M  V30 5679 H 563.394 2.95129 -2.52495 0
M  V30 5680 H 565.126 2.94814 -2.77249 0
M  V30 5681 H 561.881 1.75269 -4.39975 0
M  V30 5682 H 562.305 0.582135 -6.74493 0
M  V30 5683 H 566.947 1.44617 -3.97298 0
M  V30 5684 H 564.665 -0.28202 -8.07608 0
M  V30 5685 H 568.251 0.413275 -5.8033 0
M  V30 5686 H 567.131 -0.438188 -7.82975 0
M  V30 5687 O 564.673 1.49538 0.609965 0
M  V30 5688 H 565.364 1.46731 1.26451 0
M  V30 END ATOM
M  V30 BEGIN BOND
M  V30 END BOND
M  V30 END CTAB
M  END
$$$$
