drugbank_target|O87949 Chaperone protein TorD (DB04447)
 OpenBabel12092120303D

  0  0  0     0  0            999 V3000
M  V30 BEGIN CTAB
M  V30 COUNTS 3272 3309 0 0 0
M  V30 BEGIN ATOM
M  V30 1 H -0.908 1.98254 -0.117106 0
M  V30 2 N 0 1.576 0 0
M  V30 3 C 0.933 2.03868 1.02534 0
M  V30 4 C 1.911 0.928543 1.3348 0
M  V30 5 O 3.095 1.19667 1.45644 0
M  V30 6 C 0.222 2.43627 2.35294 0
M  V30 7 C -0.732 3.65373 2.2001 0
M  V30 8 S 0.101 5.13292 1.52614 0
M  V30 9 C 1.257 5.56322 2.86805 0
M  V30 10 H 1.49 2.90518 0.631377 0
M  V30 11 H -0.977 1.52953 0.210867 0
M  V30 12 H 0.981 2.67203 3.11629 0
M  V30 13 H -0.358 1.57376 2.7183 0
M  V30 14 H -1.165 3.90944 3.18086 0
M  V30 15 H -1.563 3.418 1.51819 0
M  V30 16 H 0.729 5.58782 3.83104 0
M  V30 17 H 1.672 6.56266 2.65933 0
M  V30 18 H 2.08 4.83886 2.90714 0
M  V30 19 N 1.4781 -0.272755 1.55222 0
M  V30 20 C 2.7031 -1.02683 1.80197 0
M  V30 21 C 3.1281 -1.79142 0.573551 0
M  V30 22 O 2.4861 -1.74917 -0.476849 0
M  V30 23 C 2.5341 -1.9609 3.02624 0
M  V30 24 O 1.6381 -3.04863 2.77727 0
M  V30 25 H 0.9791 -0.293557 0.595584 0
M  V30 26 H 3.5091 -0.30159 2.02365 0
M  V30 27 H 3.5191 -2.38039 3.31363 0
M  V30 28 H 2.1941 -1.39851 3.91682 0
M  V30 29 H 0.7711 -2.67228 2.60084 0
M  V30 30 N 2.9562 -1.48159 -0.537278 0
M  V30 31 C 3.8882 -1.58218 -1.65831 0
M  V30 32 C 4.9012 -0.466948 -1.5596 0
M  V30 33 O 6.0902 -0.73747 -1.62553 0
M  V30 34 C 3.1902 -1.48906 -3.04434 0
M  V30 35 C 2.3632 -2.75343 -3.3986 0
M  V30 36 C 1.4222 -2.59588 -4.57712 0
M  V30 37 O 0.4482 -3.33457 -4.61297 0
M  V30 38 N 1.6502 -1.68724 -5.55439 0
M  V30 39 H 4.4152 -2.54891 -1.57641 0
M  V30 40 H 1.9762 -1.4479 -0.724386 0
M  V30 41 H 3.9682 -1.36072 -3.81139 0
M  V30 42 H 2.5382 -0.602368 -3.06741 0
M  V30 43 H 1.7582 -3.02795 -2.52406 0
M  V30 44 H 3.0462 -3.5924 -3.60311 0
M  V30 45 H 2.4442 -1.07898 -5.55315 0
M  V30 46 H 1.0012 -1.61832 -6.3139 0
M  V30 47 N 4.4343 0.785586 -1.36625 0
M  V30 48 C 5.6803 1.54591 -1.31261 0
M  V30 49 C 6.0133 1.93906 0.106823 0
M  V30 50 O 5.2883 1.63007 1.06108 0
M  V30 51 C 5.5713 2.82038 -2.23889 0
M  V30 52 C 5.4243 2.49066 -3.74548 0
M  V30 53 C 6.7433 3.83887 -2.15217 0
M  V30 54 H 3.8623 0.560846 -0.478143 0
M  V30 55 H 6.5043 0.902278 -1.67209 0
M  V30 56 H 4.6543 3.36961 -1.93363 0
M  V30 57 H 6.3263 2.00164 -4.15611 0
M  V30 58 H 4.5693 1.81954 -3.93796 0
M  V30 59 H 5.2403 3.40109 -4.34776 0
M  V30 60 H 7.7163 3.38421 -2.42096 0
M  V30 61 H 6.5923 4.70806 -2.82193 0
M  V30 62 H 6.8533 4.27131 -1.14068 0
M  V30 63 N 5.9124 1.20967 1.01018 0
M  V30 64 C 7.1894 0.93264 1.71934 0
M  V30 65 C 7.5694 -0.55692 2.03621 0
M  V30 66 O 6.9174 -1.52035 1.7058 0
M  V30 67 C 7.1274 1.81233 2.98254 0
M  V30 68 C 8.4754 2.05804 3.71389 0
M  V30 69 O 9.4994 1.78539 3.08225 0
M  V30 70 O 8.3584 2.51888 4.84989 0
M  V30 71 H 5.4524 0.349272 0.749625 0
M  V30 72 H 7.9984 1.31871 1.06808 0
M  V30 73 H 6.7704 2.82067 2.71208 0
M  V30 74 H 6.3934 1.42674 3.7112 0
M  V30 75 N 7.3905 -1.2043 1.01659 0
M  V30 76 C 8.6395 -1.89118 0.701237 0
M  V30 77 C 8.9525 -1.79705 -0.772358 0
M  V30 78 O 10.1585 -2.43528 -1.20026 0
M  V30 79 C 8.6145 -3.39168 1.20388 0
M  V30 80 C 8.2225 -3.57166 2.70438 0
M  V30 81 C 9.9665 -4.1341 0.963953 0
M  V30 82 C 7.8735 -5.01042 3.14183 0
M  V30 83 H 6.8035 -0.708267 0.2586 0
M  V30 84 H 9.4545 -1.36239 1.22927 0
M  V30 85 H 7.8365 -3.91369 0.603824 0
M  V30 86 H 9.0105 -3.15351 3.35992 0
M  V30 87 H 7.3255 -2.96294 2.92572 0
M  V30 88 H 9.9225 -5.19491 1.26621 0
M  V30 89 H 10.2655 -4.16181 -0.099578 0
M  V30 90 H 10.7985 -3.67309 1.52738 0
M  V30 91 H 7.5375 -5.03426 4.19812 0
M  V30 92 H 7.0575 -5.43668 2.53348 0
M  V30 93 H 8.7365 -5.69623 3.0682 0
M  V30 94 N 8.8686 -0.792821 -1.36206 0
M  V30 95 C 9.8166 -0.181555 -2.3189 0
M  V30 96 C 10.8106 0.661025 -1.55971 0
M  V30 97 O 12.0166 0.555728 -1.71206 0
M  V30 98 H 8.3916 -0.0399382 -0.750939 0
M  V30 99 H 10.3626 -1.00394 -2.81005 0
M  V30 100 C 9.1116 0.666444 -3.41253 0
M  V30 101 H 8.4346 0.0274489 -3.99791 0
M  V30 102 H 9.8746 1.06076 -4.10517 0
M  V30 103 C 8.3336 1.82614 -2.83114 0
M  V30 104 O 8.8636 2.9229 -2.75553 0
M  V30 105 N 7.0696 1.63333 -2.40356 0
M  V30 106 H 6.6166 0.741217 -2.46706 0
M  V30 107 H 6.5746 2.41087 -2.01803 0
M  V30 108 N 10.3467 1.47872 -0.545128 0
M  V30 109 C 11.2967 2.26842 0.229456 0
M  V30 110 C 12.2807 1.33626 0.896267 0
M  V30 111 O 13.4727 1.58063 0.79657 0
M  V30 112 C 10.6017 3.19089 1.26638 0
M  V30 113 C 9.6877 4.19783 0.603598 0
M  V30 114 N 10.0787 5.0479 -0.319405 0
M  V30 115 C 8.3767 4.3765 0.858989 0
M  V30 116 C 9.0777 5.77433 -0.703241 0
M  V30 117 N 8.0537 5.43566 -0.0608309 0
M  V30 118 H 11.8557 2.89947 -0.480391 0
M  V30 119 H 9.3697 1.58263 -0.364209 0
M  V30 120 H 11.3667 3.74337 1.83515 0
M  V30 121 H 10.0267 2.5754 1.97745 0
M  V30 122 H 11.0377 5.13244 -0.692889 0
M  V30 123 H 7.7147 3.87281 1.55948 0
M  V30 124 H 9.1047 6.55824 -1.46098 0
M  V30 125 N 11.8248 0.280983 1.55075 0
M  V30 126 C 12.7878 -0.590896 2.21452 0
M  V30 127 C 13.7878 -1.07682 1.19421 0
M  V30 128 O 14.9778 -0.97605 1.44288 0
M  V30 129 C 12.1098 -1.81587 2.88511 0
M  V30 130 H 13.3028 -0.0112554 2.99898 0
M  V30 131 H 10.8558 0.0316438 1.56268 0
M  V30 132 H 11.5908 -2.43587 2.14093 0
M  V30 133 H 11.3758 -1.4753 3.63287 0
M  V30 134 H 12.8658 -2.43575 3.39206 0
M  V30 135 N 13.3029 -1.57598 0.00835791 0
M  V30 136 C 14.7189 -1.55764 -0.347822 0
M  V30 137 C 14.9189 -1.01186 -1.74252 0
M  V30 138 O 13.9749 -0.649371 -2.44007 0
M  V30 139 C 15.2879 -2.99927 -0.215407 0
M  V30 140 C 16.8359 -3.11656 -0.289725 0
M  V30 141 C 17.3109 -4.57621 -0.18634 0
M  V30 142 N 18.8019 -4.62557 -0.243978 0
M  V30 143 C 19.5369 -5.73094 -0.18745 0
M  V30 144 N 19.0329 -6.92753 -0.0810331 0
M  V30 145 N 20.8259 -5.61588 -0.239925 0
M  V30 146 H 12.9769 -1.91411 0.92062 0
M  V30 147 H 15.2399 -0.879562 0.353659 0
M  V30 148 H 14.9459 -3.43729 0.744512 0
M  V30 149 H 14.8199 -3.63865 -0.994097 0
M  V30 150 H 17.2069 -2.67779 -1.24009 0
M  V30 151 H 17.2879 -2.5048 0.51898 0
M  V30 152 H 16.9319 -5.02174 0.760519 0
M  V30 153 H 16.8619 -5.16752 -1.01364 0
M  V30 154 H 19.3529 -3.76481 -0.327217 0
M  V30 155 H 19.6659 -7.72787 -0.0440241 0
M  V30 156 H 18.0109 -6.94984 -0.0465419 0
M  V30 157 H 21.2019 -4.66996 -0.321317 0
M  V30 158 H 21.3749 -6.47714 -0.192407 0
M  V30 159 N 14.781 0.264519 -1.55364 0
M  V30 160 C 15.744 1.31046 -1.88042 0
M  V30 161 C 16.744 1.41943 -0.755569 0
M  V30 162 O 17.934 1.40947 -1.02369 0
M  V30 163 C 15.066 2.69067 -2.09323 0
M  V30 164 H 16.259 1.03297 -2.81549 0
M  V30 165 H 13.812 0.502989 -1.47986 0
M  V30 166 H 14.547 3.01982 -1.18226 0
M  V30 167 H 14.332 2.62542 -2.91229 0
M  V30 168 H 15.822 3.44623 -2.35848 0
M  V30 169 N 16.2591 1.48442 0.529413 0
M  V30 170 C 17.1891 1.65902 1.64313 0
M  V30 171 C 18.1701 0.507897 1.6234 0
M  V30 172 O 19.3551 0.740503 1.79528 0
M  V30 173 C 16.4851 1.69911 3.02898 0
M  V30 174 C 15.4391 2.8453 3.19729 0
M  V30 175 C 14.7651 2.73629 4.59381 0
M  V30 176 C 16.0651 4.25821 3.02447 0
M  V30 177 H 17.7591 2.5914 1.49955 0
M  V30 178 H 15.3051 1.24709 0.719982 0
M  V30 179 H 17.2581 1.80715 3.80684 0
M  V30 180 H 15.9821 0.732524 3.18279 0
M  V30 181 H 14.6411 2.73283 2.44361 0
M  V30 182 H 14.2891 1.74938 4.71599 0
M  V30 183 H 13.9891 3.50541 4.71588 0
M  V30 184 H 15.5131 2.86401 5.39265 0
M  V30 185 H 16.9271 4.37898 3.70024 0
M  V30 186 H 15.3241 5.03735 3.26146 0
M  V30 187 H 16.3941 4.42244 1.98867 0
M  V30 188 N 17.7372 -0.778329 1.37039 0
M  V30 189 C 18.9832 -1.53892 1.32079 0
M  V30 190 C 19.3162 -1.9396 -0.0965386 0
M  V30 191 O 18.5912 -1.63568 -1.05242 0
M  V30 192 C 18.8742 -2.80847 2.25382 0
M  V30 193 C 18.7272 -2.47076 3.75864 0
M  V30 194 C 20.0462 -3.82741 2.1725 0
M  V30 195 H 17.1652 -0.558303 0.48111 0
M  V30 196 H 19.8072 -0.893397 1.67685 0
M  V30 197 H 17.9572 -3.35931 1.95148 0
M  V30 198 H 19.6292 -1.97957 4.16666 0
M  V30 199 H 17.8722 -1.79863 3.94755 0
M  V30 200 H 18.5432 -3.37798 4.36574 0
M  V30 201 H 21.0192 -3.37133 2.43887 0
M  V30 202 H 19.8952 -4.69303 2.84686 0
M  V30 203 H 20.1562 -4.2652 1.16331 0
M  V30 204 N 19.2153 -1.21501 -1.00376 0
M  V30 205 C 20.4453 -1.05746 -1.77486 0
M  V30 206 C 20.8533 0.395655 -1.85017 0
M  V30 207 O 20.1963 1.28626 -1.31152 0
M  V30 208 C 20.2583 -1.58092 -3.22873 0
M  V30 209 C 19.9223 -3.06568 -3.38917 0
M  V30 210 C 20.9193 -4.04106 -3.271 0
M  V30 211 C 18.6043 -3.45799 -3.64319 0
M  V30 212 C 20.5983 -5.38862 -3.40451 0
M  V30 213 C 18.2853 -4.80707 -3.77311 0
M  V30 214 C 19.2833 -5.77047 -3.65384 0
M  V30 215 O 18.9713 -7.09507 -3.77961 0
M  V30 216 H 18.7033 -0.371778 -0.564586 0
M  V30 217 H 21.2573 -1.61319 -1.27143 0
M  V30 218 H 19.4873 -0.969163 -3.74358 0
M  V30 219 H 21.1763 -1.38162 -3.81662 0
M  V30 220 H 21.9423 -3.75141 -3.07399 0
M  V30 221 H 17.8213 -2.71344 -3.72684 0
M  V30 222 H 21.3653 -6.14041 -3.31058 0
M  V30 223 H 17.2623 -5.09357 -3.96517 0
M  V30 224 H 18.0303 -7.16935 -3.94901 0
M  V30 225 N 20.6934 1.19889 -1.02296 0
M  V30 226 C 21.6254 2.22334 -0.556787 0
M  V30 227 C 22.6384 1.58674 0.364199 0
M  V30 228 O 23.8274 1.77768 0.161533 0
M  V30 229 C 20.9274 3.38257 0.208694 0
M  V30 230 C 20.1004 4.31504 -0.71577 0
M  V30 231 C 19.1594 5.262 0.00325597 0
M  V30 232 O 18.1854 5.65798 -0.621357 0
M  V30 233 N 19.3874 5.66303 1.27599 0
M  V30 234 H 22.1524 2.62957 -1.43784 0
M  V30 235 H 19.7134 1.34495 -0.901261 0
M  V30 236 H 21.7054 3.98616 0.699111 0
M  V30 237 H 20.2754 2.96472 0.991102 0
M  V30 238 H 19.4954 3.69016 -1.38638 0
M  V30 239 H 20.7834 4.9072 -1.34428 0
M  V30 240 H 20.1814 5.36155 1.80429 0
M  V30 241 H 18.7384 6.28942 1.71102 0
M  V30 242 N 22.1715 0.800033 1.35784 0
M  V30 243 C 23.1015 0.220184 2.3246 0
M  V30 244 C 24.0825 -0.65073 1.57161 0
M  V30 245 O 25.2675 -0.582359 1.85263 0
M  V30 246 C 22.3975 -0.637353 3.41402 0
M  V30 247 C 21.3515 0.134531 4.27789 0
M  V30 248 C 20.6775 -0.844285 5.27992 0
M  V30 249 C 21.9775 1.32979 5.05088 0
M  V30 250 H 23.6715 1.02787 2.81203 0
M  V30 251 H 21.2175 0.495717 1.35199 0
M  V30 252 H 23.1705 -1.05302 4.08031 0
M  V30 253 H 21.8945 -1.47785 2.91251 0
M  V30 254 H 20.5535 0.531296 3.6273 0
M  V30 255 H 20.2015 -1.68011 4.74111 0
M  V30 256 H 19.9015 -0.332184 5.8666 0
M  V30 257 H 21.4255 -1.2583 5.97494 0
M  V30 258 H 22.8395 0.98934 5.64699 0
M  V30 259 H 21.2365 1.77593 5.7322 0
M  V30 260 H 22.3065 2.11978 4.36111 0
M  V30 261 N 23.6496 -1.47581 0.552962 0
M  V30 262 C 24.5796 -2.32762 -0.185451 0
M  V30 263 C 25.5606 -1.43527 -0.912905 0
M  V30 264 O 26.7456 -1.72388 -0.894201 0
M  V30 265 C 23.8756 -3.25219 -1.21859 0
M  V30 266 C 22.8296 -4.23661 -0.607864 0
M  V30 267 C 22.1556 -5.05413 -1.74533 0
M  V30 268 C 23.4556 -5.20481 0.435582 0
M  V30 269 H 25.1496 -2.94749 0.525684 0
M  V30 270 H 22.6956 -1.41738 0.254251 0
M  V30 271 H 24.6486 -3.8365 -1.7433 0
M  V30 272 H 23.3726 -2.61279 -1.95961 0
M  V30 273 H 22.0316 -3.66451 -0.104489 0
M  V30 274 H 21.6796 -4.3788 -2.47529 0
M  V30 275 H 21.3796 -5.72059 -1.34249 0
M  V30 276 H 22.9036 -5.66701 -2.27338 0
M  V30 277 H 24.3176 -5.733 -0.00290157 0
M  V30 278 H 22.7146 -5.95305 0.757067 0
M  V30 279 H 23.7846 -4.66217 1.33303 0
M  V30 280 N 25.1277 -0.289203 -1.54924 0
M  V30 281 C 26.3527 0.329299 -2.04769 0
M  V30 282 C 26.7777 1.4763 -1.16564 0
M  V30 283 O 26.1357 1.80527 -0.167186 0
M  V30 284 C 26.1837 0.774438 -3.52186 0
M  V30 285 O 25.2877 1.88038 -3.67036 0
M  V30 286 H 24.6287 0.0659259 -0.660719 0
M  V30 287 H 27.1587 -0.42761 -2.00082 0
M  V30 288 H 27.1687 1.06642 -3.93816 0
M  V30 289 H 25.8437 -0.0646707 -4.1585 0
M  V30 290 H 24.4207 1.58985 -3.3731 0
M  V30 291 N 26.6058 1.57591 -0.0167156 0
M  V30 292 C 27.8308 1.9598 0.67872 0
M  V30 293 C 28.2558 0.892546 1.65575 0
M  V30 294 O 27.6138 -0.147772 1.80697 0
M  V30 295 C 27.6618 3.33468 1.37227 0
M  V30 296 O 26.7658 3.28954 2.48722 0
M  V30 297 H 26.1068 0.639339 0.17928 0
M  V30 298 H 28.6368 2.04463 -0.0748802 0
M  V30 299 H 28.6468 3.69417 1.7319 0
M  V30 300 H 27.3218 4.10694 0.656007 0
M  V30 301 H 25.8988 3.04705 2.14963 0
M  V30 302 N 28.0839 -0.256276 1.55502 0
M  V30 303 C 29.0139 -1.32102 1.92539 0
M  V30 304 C 29.9949 -1.50684 0.789194 0
M  V30 305 O 31.1799 -1.63449 1.04872 0
M  V30 306 C 28.3099 -2.67752 2.21192 0
M  V30 307 C 27.2639 -2.63878 3.36975 0
M  V30 308 C 26.5899 -4.03236 3.51147 0
M  V30 309 C 27.8899 -2.21682 4.72921 0
M  V30 310 H 29.5839 -1.01351 2.81724 0
M  V30 311 H 27.1299 -0.486105 1.35547 0
M  V30 312 H 29.0829 -3.42365 2.45691 0
M  V30 313 H 27.8069 -3.0012 1.28824 0
M  V30 314 H 26.4659 -1.91722 3.12471 0
M  V30 315 H 26.1139 -4.32854 2.56216 0
M  V30 316 H 25.8139 -4.01535 4.29003 0
M  V30 317 H 27.3379 -4.79563 3.77957 0
M  V30 318 H 28.7519 -2.86023 4.96854 0
M  V30 319 H 27.1489 -2.3111 5.53812 0
M  V30 320 H 28.2189 -1.16833 4.70615 0
M  V30 321 N 29.562 -1.4872 -0.521534 0
M  V30 322 C 30.809 -1.57168 -1.27689 0
M  V30 323 C 31.137 -0.249275 -1.92896 0
M  V30 324 O 30.392 0.761162 -1.80291 0
M  V30 325 C 30.691 -2.66497 -2.38148 0
M  V30 326 C 30.357 -4.08664 -1.90538 0
M  V30 327 C 29.019 -4.47357 -1.77271 0
M  V30 328 C 31.371 -4.97724 -1.54663 0
M  V30 329 C 28.699 -5.72905 -1.26478 0
M  V30 330 C 31.051 -6.2377 -1.05329 0
M  V30 331 C 29.715 -6.61311 -0.906861 0
M  V30 332 H 28.985 -0.575117 -0.467249 0
M  V30 333 H 31.632 -1.82472 -0.581051 0
M  V30 334 H 29.937 -2.35085 -3.13437 0
M  V30 335 H 31.634 -2.70246 -2.96257 0
M  V30 336 H 28.224 -3.78111 -2.01816 0
M  V30 337 H 32.408 -4.68501 -1.63768 0
M  V30 338 H 27.664 -6.00709 -1.13835 0
M  V30 339 H 31.838 -6.9217 -0.76644 0
M  V30 340 H 29.465 -7.5848 -0.511083 0
M  V30 341 N 31.0401 0.771051 -1.3745 0
M  V30 342 C 32.0031 1.86598 -1.33093 0
M  V30 343 C 33.0031 1.59076 -0.234845 0
M  V30 344 O 34.1931 1.67145 -0.490732 0
M  V30 345 C 31.3251 3.23747 -1.06773 0
M  V30 346 H 32.5181 1.91873 -2.30488 0
M  V30 347 H 30.0711 0.970876 -1.2249 0
M  V30 348 H 30.8061 3.24148 -0.099129 0
M  V30 349 H 30.5911 3.45115 -1.86112 0
M  V30 350 H 32.0811 4.03824 -1.06377 0
M  V30 351 N 32.5182 1.22032 0.997298 0
M  V30 352 C 33.9342 0.979326 1.26021 0
M  V30 353 C 34.1342 -0.32972 1.98784 0
M  V30 354 O 33.1902 -1.05345 2.29475 0
M  V30 355 C 34.5032 2.17509 2.07631 0
M  V30 356 C 36.0512 2.21817 2.2083 0
M  V30 357 C 36.5262 3.40933 3.05825 0
M  V30 358 N 38.0172 3.41067 3.13412 0
M  V30 359 C 38.7522 4.29885 3.79455 0
M  V30 360 N 38.2482 5.28914 4.47462 0
M  V30 361 N 40.0412 4.17673 3.76173 0
M  V30 362 H 32.1922 2.06202 0.509352 0
M  V30 363 H 34.4552 0.90334 0.287541 0
M  V30 364 H 34.1612 3.12415 1.61524 0
M  V30 365 H 34.0352 2.17206 3.08385 0
M  V30 366 H 36.4222 1.27462 2.66153 0
M  V30 367 H 36.5032 2.2616 1.1952 0
M  V30 368 H 36.1472 4.35586 2.61203 0
M  V30 369 H 36.0772 3.33829 4.07266 0
M  V30 370 H 38.5682 2.69406 2.65007 0
M  V30 371 H 38.8812 5.92973 4.95583 0
M  V30 372 H 37.2262 5.32831 4.46224 0
M  V30 373 H 40.4172 3.39564 3.22202 0
M  V30 374 H 40.5902 4.87098 4.27363 0
M  V30 375 N 33.9963 -1.19345 1.0293 0
M  V30 376 C 34.9063 -2.26245 0.620515 0
M  V30 377 C 35.9223 -1.70486 -0.347928 0
M  V30 378 O 37.0983 -2.00347 -0.205704 0
M  V30 379 C 34.1633 -3.46693 -0.0218957 0
M  V30 380 C 33.2243 -4.17632 0.994102 0
M  V30 381 C 32.4573 -5.32329 0.382253 0
M  V30 382 O 32.6803 -5.64552 -0.814676 0
M  V30 383 O 31.6143 -5.91664 1.10531 0
M  V30 384 H 35.4403 -2.63453 1.51083 0
M  V30 385 H 33.0253 -1.26207 0.799513 0
M  V30 386 H 34.9073 -4.19683 -0.380072 0
M  V30 387 H 33.5823 -3.11333 -0.886209 0
M  V30 388 H 32.4893 -3.4676 1.40387 0
M  V30 389 H 33.8223 -4.56964 1.8288 0
M  V30 390 N 35.4744 -0.807222 -1.35358 0
M  V30 391 C 36.7204 -0.388463 -1.99045 0
M  V30 392 C 37.0534 1.04184 -1.63888 0
M  V30 393 O 36.3284 1.72292 -0.902535 0
M  V30 394 C 36.6114 -0.572783 -3.55515 0
M  V30 395 C 36.4644 -2.04807 -4.00468 0
M  V30 396 C 37.7834 0.00114064 -4.401 0
M  V30 397 H 34.9024 -0.142619 -0.723069 0
M  V30 398 H 37.5444 -1.01687 -1.60498 0
M  V30 399 H 35.6944 -0.0378425 -3.88482 0
M  V30 400 H 37.3664 -2.64544 -3.77908 0
M  V30 401 H 35.6094 -2.54427 -3.51353 0
M  V30 402 H 36.2804 -2.12792 -5.09337 0
M  V30 403 H 38.7564 -0.455716 -4.13597 0
M  V30 404 H 37.6324 -0.157737 -5.48673 0
M  V30 405 H 37.8934 1.09488 -4.28328 0
M  V30 406 N 36.9525 1.47285 -0.560781 0
M  V30 407 C 38.2295 1.9558 0.0277798 0
M  V30 408 C 38.6095 1.5034 1.48192 0
M  V30 409 O 37.9575 0.743882 2.16052 0
M  V30 410 C 38.1675 3.48789 -0.121418 0
M  V30 411 C 39.5155 4.24594 0.0220912 0
M  V30 412 O 40.5395 3.56166 -0.0491439 0
M  V30 413 O 39.3985 5.46217 0.175958 0
M  V30 414 H 36.4925 0.824663 0.0621342 0
M  V30 415 H 39.0385 1.5767 -0.627556 0
M  V30 416 H 37.8105 3.74533 -1.13316 0
M  V30 417 H 37.4335 3.93473 0.571366 0
M  V30 418 N 38.4306 0.297415 1.54768 0
M  V30 419 C 39.3406 -0.58983 2.27064 0
M  V30 420 C 40.3566 -1.15144 1.30453 0
M  V30 421 O 41.5326 -1.17699 1.63428 0
M  V30 422 C 38.5976 -1.74714 2.9946 0
M  V30 423 C 37.6586 -1.21997 4.11601 0
M  V30 424 C 36.8916 -2.32212 4.80535 0
M  V30 425 O 37.1146 -3.52036 4.48806 0
M  V30 426 O 36.0486 -1.99106 5.68014 0
M  V30 427 H 39.8746 -0.00348199 3.037 0
M  V30 428 H 37.4596 0.0640035 1.49263 0
M  V30 429 H 39.3416 -2.42147 3.44881 0
M  V30 430 H 38.0166 -2.32016 2.25722 0
M  V30 431 H 36.9236 -0.511458 3.70587 0
M  V30 432 H 38.2566 -0.692419 4.87305 0
M  V30 433 N 39.9087 -1.5758 0.0250728 0
M  V30 434 C 40.8407 -2.06869 -0.986796 0
M  V30 435 C 41.8537 -0.991332 -1.29137 0
M  V30 436 O 43.0427 -1.26761 -1.25674 0
M  V30 437 C 40.1427 -2.47486 -2.31525 0
M  V30 438 C 39.3157 -3.78253 -2.19643 0
M  V30 439 C 38.3747 -4.05464 -3.35388 0
M  V30 440 O 37.4007 -4.75774 -3.12454 0
M  V30 441 N 38.6027 -3.55321 -4.59051 0
M  V30 442 H 41.3677 -2.94302 -0.566276 0
M  V30 443 H 38.9287 -1.6109 -0.161776 0
M  V30 444 H 40.9207 -2.62785 -3.07776 0
M  V30 445 H 39.4907 -1.65441 -2.65232 0
M  V30 446 H 38.7107 -3.7279 -1.28144 0
M  V30 447 H 39.9987 -4.63936 -2.08903 0
M  V30 448 H 39.3967 -2.98431 -4.80578 0
M  V30 449 H 37.9537 -3.75905 -5.32483 0
M  V30 450 N 41.3868 0.248026 -1.55636 0
M  V30 451 C 42.8028 0.596483 -1.48035 0
M  V30 452 C 43.0028 1.88386 -0.715039 0
M  V30 453 O 42.0588 2.51319 -0.243944 0
M  V30 454 C 43.3718 0.700258 -2.92433 0
M  V30 455 C 44.9198 0.792659 -3.02797 0
M  V30 456 C 45.3948 0.928005 -4.485 0
M  V30 457 N 46.8858 0.992903 -4.52433 0
M  V30 458 C 47.6208 1.11687 -5.62418 0
M  V30 459 N 47.1168 1.20645 -6.82214 0
M  V30 460 N 48.9098 1.14994 -5.50212 0
M  V30 461 H 41.0608 -0.597109 -2.03834 0
M  V30 462 H 43.3238 -0.205925 -0.925364 0
M  V30 463 H 43.0298 -0.175658 -3.51261 0
M  V30 464 H 42.9038 1.57255 -3.42857 0
M  V30 465 H 45.2908 1.65903 -2.4405 0
M  V30 466 H 45.3718 -0.104762 -2.55585 0
M  V30 467 H 45.0158 0.0661971 -5.07857 0
M  V30 468 H 44.9458 1.84045 -4.93391 0
M  V30 469 H 47.4368 0.935064 -3.66149 0
M  V30 470 H 47.7498 1.30008 -7.61786 0
M  V30 471 H 46.0948 1.17605 -6.84977 0
M  V30 472 H 49.2858 1.07643 -4.55555 0
M  V30 473 H 49.4588 1.24311 -6.35965 0
M  V30 474 N 42.8649 1.48995 0.513639 0
M  V30 475 C 43.7949 1.67636 1.62544 0
M  V30 476 C 44.7759 0.525087 1.61793 0
M  V30 477 O 45.9609 0.759502 1.78732 0
M  V30 478 C 43.0909 1.73114 3.01079 0
M  V30 479 C 42.0449 2.87905 3.16693 0
M  V30 480 C 41.3709 2.78486 4.56453 0
M  V30 481 C 42.6709 4.29005 2.97913 0
M  V30 482 H 44.3649 2.60716 1.47198 0
M  V30 483 H 41.9109 1.25465 0.706714 0
M  V30 484 H 43.8639 1.84742 3.78746 0
M  V30 485 H 42.5879 0.766241 3.17484 0
M  V30 486 H 41.2469 2.75859 2.41448 0
M  V30 487 H 40.8949 1.7993 4.69717 0
M  V30 488 H 40.5949 3.55523 4.67843 0
M  V30 489 H 42.1189 2.92104 5.36197 0
M  V30 490 H 43.5329 4.41798 3.65359 0
M  V30 491 H 41.9299 5.07166 3.20785 0
M  V30 492 H 42.9999 4.44329 1.94165 0
M  V30 493 N 44.343 -0.763751 1.37857 0
M  V30 494 C 45.29 -1.87726 1.34267 0
M  V30 495 C 46.26 -1.64807 0.206879 0
M  V30 496 O 47.445 -1.86613 0.397508 0
M  V30 497 C 44.585 -3.24896 1.16346 0
M  V30 498 C 43.698 -3.59716 2.39225 0
M  V30 499 C 42.833 -4.86137 2.14114 0
M  V30 500 C 41.872 -5.13711 3.32817 0
M  V30 501 N 41.009 -6.31323 3.07206 0
M  V30 502 H 45.849 -1.90129 2.29466 0
M  V30 503 H 43.386 -0.929433 1.14017 0
M  V30 504 H 45.344 -4.04036 1.03975 0
M  V30 505 H 43.974 -3.21847 0.247909 0
M  V30 506 H 43.026 -2.75498 2.62307 0
M  V30 507 H 44.338 -3.76027 3.27728 0
M  V30 508 H 43.492 -5.73198 1.9882 0
M  V30 509 H 42.231 -4.71945 1.22961 0
M  V30 510 H 41.236 -4.25123 3.48641 0
M  V30 511 H 42.461 -5.29807 4.24832 0
M  V30 512 H 40.407 -6.18474 2.1869 0
M  V30 513 H 40.324 -6.48087 3.89254 0
M  V30 514 H 41.592 -7.213 2.95546 0
M  V30 515 N 45.8211 -1.22559 -0.990812 0
M  V30 516 C 46.7311 -1.01394 -2.11557 0
M  V30 517 C 47.7471 0.0383962 -1.73958 0
M  V30 518 O 48.9231 -0.154787 -2.00804 0
M  V30 519 C 45.9881 -0.596569 -3.41529 0
M  V30 520 C 45.0491 -1.72276 -3.93217 0
M  V30 521 C 44.2821 -1.32521 -5.16985 0
M  V30 522 O 44.5051 -0.204909 -5.70032 0
M  V30 523 O 43.4391 -2.14247 -5.62478 0
M  V30 524 H 47.2651 -1.95633 -2.32296 0
M  V30 525 H 44.8501 -1.01172 -1.0993 0
M  V30 526 H 46.7321 -0.374263 -4.19735 0
M  V30 527 H 45.4071 0.316939 -3.22145 0
M  V30 528 H 44.3141 -1.99961 -3.16174 0
M  V30 529 H 45.6471 -2.61421 -4.17037 0
M  V30 530 N 47.2992 1.18797 -1.03562 0
M  V30 531 C 48.2292 2.24472 -0.643019 0
M  V30 532 C 49.2102 1.66433 0.351283 0
M  V30 533 O 50.3952 1.92803 0.232505 0
M  V30 534 C 47.5252 3.473 4.24935e-05 0
M  V30 535 C 46.4792 4.18055 -0.917257 0
M  V30 536 C 45.8052 5.34519 -0.138941 0
M  V30 537 C 47.1052 4.72109 -2.23407 0
M  V30 538 H 48.7992 2.57566 -1.52643 0
M  V30 539 H 46.3452 1.23806 -0.735394 0
M  V30 540 H 48.2982 4.20426 0.286383 0
M  V30 541 H 47.0222 3.13424 0.918299 0
M  V30 542 H 45.6812 3.46821 -1.1879 0
M  V30 543 H 45.3292 4.96891 0.781562 0
M  V30 544 H 45.0292 5.82794 -0.750005 0
M  V30 545 H 46.5532 6.10438 0.1405 0
M  V30 546 H 47.9672 5.36955 -2.00879 0
M  V30 547 H 46.3642 5.30897 -2.79765 0
M  V30 548 H 47.4342 3.89807 -2.88407 0
M  V30 549 N 48.7773 0.814389 1.34928 0
M  V30 550 C 50.0053 0.411136 2.02774 0
M  V30 551 C 50.4203 -0.980316 1.61354 0
M  V30 552 O 49.7773 -1.63299 0.814847 0
M  V30 553 C 49.8283 0.493865 3.58111 0
M  V30 554 O 49.5493 1.83047 3.98027 0
M  V30 555 C 51.0503 0.0844174 4.4322 0
M  V30 556 H 48.2703 0.166037 0.650133 0
M  V30 557 H 50.8143 1.10018 1.72384 0
M  V30 558 H 48.9693 -0.147006 3.87121 0
M  V30 559 H 49.3833 1.79872 4.92693 0
M  V30 560 H 50.8573 0.193404 5.51661 0
M  V30 561 H 51.3343 -0.97113 4.28329 0
M  V30 562 H 51.9403 0.69875 4.19521 0
M  V30 563 N 50.2554 -1.46986 0.568584 0
M  V30 564 C 51.4804 -2.07335 0.0520528 0
M  V30 565 C 51.9054 -1.41675 -1.23733 0
M  V30 566 O 51.2634 -0.495623 -1.74394 0
M  V30 567 C 51.3114 -3.60417 -0.11501 0
M  V30 568 O 50.4154 -3.95309 -1.17492 0
M  V30 569 H 49.7564 -0.661597 0.0564385 0
M  V30 570 H 52.2864 -1.88837 0.787507 0
M  V30 571 H 52.2964 -4.06698 -0.325644 0
M  V30 572 H 50.9714 -4.07601 0.826675 0
M  V30 573 H 49.5484 -3.60757 -0.943869 0
M  V30 574 N 51.7335 -0.305618 -1.54608 0
M  V30 575 C 52.6435 0.57778 -2.27374 0
M  V30 576 C 53.6595 1.14451 -1.31061 0
M  V30 577 O 54.8355 1.16831 -1.6405 0
M  V30 578 C 51.9005 1.73123 -3.00382 0
M  V30 579 C 50.9615 1.19812 -4.12242 0
M  V30 580 C 50.1945 2.2966 -4.81759 0
M  V30 581 O 50.4175 3.49651 -4.50666 0
M  V30 582 O 49.3515 1.96091 -5.69062 0
M  V30 583 H 53.1775 -0.012624 -3.03697 0
M  V30 584 H 50.7625 -0.0719184 -1.49227 0
M  V30 585 H 52.6445 2.40315 -3.4616 0
M  V30 586 H 51.3195 2.30815 -2.26949 0
M  V30 587 H 50.2265 0.491798 -3.70853 0
M  V30 588 H 51.5595 0.666566 -4.87666 0
M  V30 589 N 53.2116 1.57565 -0.0334293 0
M  V30 590 C 54.1746 2.09393 0.932048 0
M  V30 591 C 55.1746 1.00986 1.25134 0
M  V30 592 O 56.3646 1.27129 1.19096 0
M  V30 593 C 53.4966 2.56338 2.2473 0
M  V30 594 H 54.6896 2.95984 0.483085 0
M  V30 595 H 52.2426 1.54819 0.21468 0
M  V30 596 H 52.9776 1.7309 2.74245 0
M  V30 597 H 52.7626 3.35542 2.02865 0
M  V30 598 H 54.2526 2.96646 2.93923 0
M  V30 599 N 54.6897 -0.239769 1.55765 0
M  V30 600 C 55.6527 -1.28038 1.90103 0
M  V30 601 C 56.6527 -1.40723 0.778055 0
M  V30 602 O 57.8427 -1.39301 1.04599 0
M  V30 603 C 54.9747 -2.65702 2.13577 0
M  V30 604 H 56.1677 -0.988048 2.83157 0
M  V30 605 H 53.7207 -0.479382 1.48767 0
M  V30 606 H 54.4557 -3.00063 1.23015 0
M  V30 607 H 54.2407 -2.57875 2.95369 0
M  V30 608 H 55.7307 -3.40828 2.41301 0
M  V30 609 N 56.1678 -1.49265 -0.50573 0
M  V30 610 C 57.0998 -1.617 -1.62437 0
M  V30 611 C 58.1128 -0.499924 -1.54934 0
M  V30 612 O 59.3018 -0.771785 -1.60953 0
M  V30 613 C 56.4018 -1.5533 -3.01207 0
M  V30 614 C 55.5748 -2.8249 -3.33943 0
M  V30 615 C 54.6338 -2.69238 -4.52103 0
M  V30 616 O 53.6598 -3.43167 -4.5412 0
M  V30 617 N 54.8618 -1.80468 -5.51735 0
M  V30 618 H 57.6268 -2.58177 -1.52199 0
M  V30 619 H 55.1878 -1.46294 -0.693511 0
M  V30 620 H 57.1798 -1.44125 -3.78167 0
M  V30 621 H 55.7498 -0.667297 -3.05395 0
M  V30 622 H 54.9698 -3.08081 -2.45926 0
M  V30 623 H 56.2578 -3.66802 -3.5261 0
M  V30 624 H 55.6558 -1.19653 -5.52901 0
M  V30 625 H 54.2128 -1.75188 -6.27816 0
M  V30 626 N 57.6459 0.756429 -1.3826 0
M  V30 627 C 58.5779 1.87971 -1.31147 0
M  V30 628 C 59.5909 1.61248 -0.224239 0
M  V30 629 O 60.7799 1.71881 -0.481581 0
M  V30 630 C 57.8799 3.23545 -1.00857 0
M  V30 631 C 57.0529 3.77794 -2.20432 0
M  V30 632 C 56.1119 4.91877 -1.86931 0
M  V30 633 O 55.1379 5.06659 -2.59395 0
M  V30 634 N 56.3399 5.74643 -0.822568 0
M  V30 635 H 59.1049 1.94585 -2.2794 0
M  V30 636 H 56.6659 0.936234 -1.32084 0
M  V30 637 H 58.6579 3.97403 -0.765021 0
M  V30 638 H 57.2279 3.12335 -0.128687 0
M  V30 639 H 56.4479 2.95534 -2.6087 0
M  V30 640 H 57.7359 4.10771 -3.00241 0
M  V30 641 H 57.1339 5.65266 -0.221575 0
M  V30 642 H 55.6909 6.48661 -0.638899 0
M  V30 643 N 59.124 1.23083 0.984299 0
M  V30 644 C 60.371 1.06057 1.72505 0
M  V30 645 C 60.699 -0.403105 1.90277 0
M  V30 646 O 59.954 -1.3149 1.44944 0
M  V30 647 C 60.253 1.72673 3.1292 0
M  V30 648 C 59.919 3.22586 3.15038 0
M  V30 649 C 58.581 3.63489 3.15324 0
M  V30 650 C 60.933 4.185 3.10657 0
M  V30 651 C 58.261 4.98772 3.08939 0
M  V30 652 C 60.613 5.53769 3.05814 0
M  V30 653 C 59.277 5.94041 3.04419 0
M  V30 654 H 58.547 0.388091 0.631242 0
M  V30 655 H 61.194 1.52963 1.15215 0
M  V30 656 H 59.499 1.18116 3.73572 0
M  V30 657 H 61.196 1.56982 3.68996 0
M  V30 658 H 57.786 2.90022 3.15571 0
M  V30 659 H 61.97 3.87911 3.09579 0
M  V30 660 H 57.226 5.29193 3.0621 0
M  V30 661 H 61.4 6.27808 3.0138 0
M  V30 662 H 59.027 6.98833 2.99227 0
M  V30 663 N 60.6021 -1.18246 1.0419 0
M  V30 664 C 61.8481 -1.88793 0.75689 0
M  V30 665 C 62.2031 -1.78909 -0.707767 0
M  V30 666 O 61.4961 -1.1794 -1.50999 0
M  V30 667 C 61.6901 -3.38082 1.15911 0
M  V30 668 C 61.5191 -3.62496 2.66133 0
M  V30 669 C 60.2891 -3.7979 3.33298 0
M  V30 670 C 62.4871 -3.62976 3.64353 0
M  V30 671 N 60.4691 -3.91955 4.72487 0
M  V30 672 C 61.8401 -3.80869 4.89222 0
M  V30 673 C 63.8951 -3.46071 3.57965 0
M  V30 674 C 62.5981 -3.83608 6.08471 0
M  V30 675 C 64.6241 -3.50093 4.76643 0
M  V30 676 C 63.9861 -3.68484 6.00332 0
M  V30 677 H 60.0851 -0.709406 0.32904 0
M  V30 678 H 62.6691 -1.42022 1.33183 0
M  V30 679 H 60.8401 -3.83544 0.612238 0
M  V30 680 H 62.5721 -3.96202 0.824989 0
M  V30 681 H 59.3271 -3.79224 2.83701 0
M  V30 682 H 59.7511 -4.01857 5.44831 0
M  V30 683 H 64.3931 -3.30797 2.63311 0
M  V30 684 H 62.1111 -3.97669 7.0348 0
M  V30 685 H 65.6971 -3.38285 4.73344 0
M  V30 686 H 64.5771 -3.71488 6.90627 0
M  V30 687 N 62.0802 -0.821533 -1.34494 0
M  V30 688 C 62.9902 -0.244355 -2.33324 0
M  V30 689 C 64.0062 0.620527 -1.62559 0
M  V30 690 O 65.1822 0.528754 -1.94335 0
M  V30 691 C 62.2472 0.585368 -3.41723 0
M  V30 692 C 61.3082 -0.301752 -4.28238 0
M  V30 693 C 60.5412 0.488466 -5.3146 0
M  V30 694 O 60.7642 1.72186 -5.4379 0
M  V30 695 O 59.6982 -0.12848 -6.01763 0
M  V30 696 H 63.5242 -1.06231 -2.84515 0
M  V30 697 H 61.1092 -0.583645 -1.37528 0
M  V30 698 H 62.9912 1.05747 -4.07916 0
M  V30 699 H 61.6662 1.38068 -2.92778 0
M  V30 700 H 60.5732 -0.821315 -3.64973 0
M  V30 701 H 61.9062 -1.06138 -4.8062 0
M  V30 702 N 63.5583 1.46682 -0.576371 0
M  V30 703 C 64.4903 2.28341 0.198231 0
M  V30 704 C 65.5033 1.38141 0.861453 0
M  V30 705 O 66.6923 1.62797 0.732082 0
M  V30 706 C 63.7923 3.12986 1.29972 0
M  V30 707 C 62.9653 4.31271 0.729639 0
M  V30 708 C 62.0243 4.97363 1.71803 0
M  V30 709 O 61.0503 5.55156 1.25658 0
M  V30 710 N 62.2523 4.93796 3.05198 0
M  V30 711 H 65.0173 2.9546 -0.502324 0
M  V30 712 H 62.5783 1.56525 -0.413715 0
M  V30 713 H 64.5703 3.54066 1.96008 0
M  V30 714 H 63.1403 2.47984 1.90323 0
M  V30 715 H 62.3603 3.94052 -0.108012 0
M  V30 716 H 63.6483 5.07739 0.328438 0
M  V30 717 H 63.0463 4.48077 3.45317 0
M  V30 718 H 61.6033 5.38837 3.6674 0
M  V30 719 N 65.0364 0.313813 1.54444 0
M  V30 720 C 65.9664 -0.549454 2.26943 0
M  V30 721 C 66.9474 -1.12741 1.27372 0
M  V30 722 O 68.1324 -1.15436 1.56167 0
M  V30 723 C 65.2624 -1.71523 3.01989 0
M  V30 724 C 64.2164 -1.26703 4.08816 0
M  V30 725 C 63.5424 -2.51898 4.71647 0
M  V30 726 C 64.8424 -0.388962 5.2085 0
M  V30 727 H 66.5364 0.0552661 2.99349 0
M  V30 728 H 64.0824 0.0280207 1.43973 0
M  V30 729 H 66.0354 -2.32535 3.51433 0
M  V30 730 H 64.7594 -2.34639 2.27183 0
M  V30 731 H 63.4184 -0.679896 3.6024 0
M  V30 732 H 63.0664 -3.13356 3.93468 0
M  V30 733 H 62.7664 -2.22605 5.43802 0
M  V30 734 H 64.2904 -3.1369 5.23861 0
M  V30 735 H 65.7044 -0.905107 5.6611 0
M  V30 736 H 64.1014 -0.18924 5.99802 0
M  V30 737 H 65.1714 0.582699 4.81386 0
M  V30 738 N 66.5145 -1.57545 0.0417849 0
M  V30 739 C 67.7395 -1.97035 -0.647455 0
M  V30 740 C 68.1645 -0.918775 -1.64135 0
M  V30 741 O 67.5225 0.119006 -1.80909 0
M  V30 742 C 67.5705 -3.35609 -1.31905 0
M  V30 743 O 66.6745 -3.3287 -2.43457 0
M  V30 744 H 66.0155 -0.64211 -0.169086 0
M  V30 745 H 68.5455 -2.04318 0.107399 0
M  V30 746 H 68.5555 -3.72126 -1.67291 0
M  V30 747 H 67.2305 -4.11685 -0.590586 0
M  V30 748 H 65.8075 -3.08087 -2.10088 0
M  V30 749 N 67.9926 0.231505 -1.5589 0
M  V30 750 C 68.9226 1.29022 -1.94617 0
M  V30 751 C 69.9036 1.4941 -0.813067 0
M  V30 752 O 71.0886 1.6176 -1.07459 0
M  V30 753 C 68.2186 2.64199 -2.25424 0
M  V30 754 C 67.1726 2.58484 -3.41131 0
M  V30 755 C 66.4986 3.97599 -3.57518 0
M  V30 756 C 67.7986 2.1413 -4.76388 0
M  V30 757 H 69.4926 0.968563 -2.83301 0
M  V30 758 H 67.0386 0.464479 -1.36303 0
M  V30 759 H 68.9916 3.38413 -2.51107 0
M  V30 760 H 67.7156 2.98032 -1.33583 0
M  V30 761 H 66.3746 1.86727 -3.15481 0
M  V30 762 H 66.0226 4.28723 -2.6307 0
M  V30 763 H 65.7226 3.94659 -4.35337 0
M  V30 764 H 67.2466 4.7349 -3.85538 0
M  V30 765 H 68.6606 2.78083 -5.01341 0
M  V30 766 H 67.0576 2.2227 -5.57419 0
M  V30 767 H 68.1276 1.09331 -4.72414 0
M  V30 768 N 69.4707 1.49531 0.497807 0
M  V30 769 C 70.3807 1.69176 1.62532 0
M  V30 770 C 71.3967 0.5744 1.64246 0
M  V30 771 O 72.5727 0.849497 1.82608 0
M  V30 772 C 69.6377 1.75695 2.98885 0
M  V30 773 C 68.6987 2.9929 3.07773 0
M  V30 774 C 67.9317 3.05488 4.37622 0
M  V30 775 O 68.1547 2.19192 5.26603 0
M  V30 776 O 67.0887 3.9798 4.51548 0
M  V30 777 H 70.9147 2.647 1.48887 0
M  V30 778 H 68.4997 1.3331 0.674441 0
M  V30 779 H 70.3817 1.82317 3.79919 0
M  V30 780 H 69.0567 0.8335 3.12785 0
M  V30 781 H 67.9637 2.98183 2.25915 0
M  V30 782 H 69.2967 3.91125 2.98801 0
M  V30 783 N 70.9488 -0.749086 1.3866 0
M  V30 784 C 71.9118 -1.84457 1.36045 0
M  V30 785 C 72.9118 -1.58682 0.260122 0
M  V30 786 O 74.1018 -1.66343 0.517261 0
M  V30 787 C 71.2338 -3.22008 1.11911 0
M  V30 788 H 72.4268 -1.88182 2.33512 0
M  V30 789 H 69.9798 -0.951266 1.24019 0
M  V30 790 H 70.7148 -3.2395 0.150686 0
M  V30 791 H 70.4998 -3.42111 1.91579 0
M  V30 792 H 71.9898 -4.0208 1.12788 0
M  V30 793 N 72.4269 -1.23603 -0.977757 0
M  V30 794 C 73.3749 -1.01704 -2.09187 0
M  V30 795 C 74.3689 0.0448214 -1.69341 0
M  V30 796 O 75.5749 -0.108902 -1.7967 0
M  V30 797 H 71.9499 -0.311803 -0.684312 0
M  V30 798 H 73.9209 -1.96207 -2.24823 0
M  V30 799 C 72.6699 -0.627746 -3.41986 0
M  V30 800 H 71.9929 -1.43656 -3.73099 0
M  V30 801 H 73.4329 -0.514053 -4.20872 0
M  V30 802 C 71.8919 0.664238 -3.30287 0
M  V30 803 O 72.4219 1.71268 -3.6336 0
M  V30 804 N 70.6279 0.641156 -2.83439 0
M  V30 805 H 70.1749 -0.212376 -2.56723 0
M  V30 806 H 70.1329 1.50583 -2.75993 0
M  V30 807 N 73.905 1.17692 -1.04816 0
M  V30 808 C 75.152 1.87859 -0.75599 0
M  V30 809 C 75.48 1.80812 0.716752 0
M  V30 810 O 74.735 1.20819 1.53952 0
M  V30 811 C 75.034 3.37462 -1.17703 0
M  V30 812 C 74.7 3.64713 -2.65133 0
M  V30 813 C 73.362 3.71859 -3.05408 0
M  V30 814 C 75.714 3.76492 -3.60421 0
M  V30 815 C 73.042 3.88271 -4.39843 0
M  V30 816 C 75.394 3.94421 -4.94585 0
M  V30 817 C 74.058 3.99806 -5.3452 0
M  V30 818 H 73.328 0.687425 -0.276636 0
M  V30 819 H 75.975 1.39255 -1.31455 0
M  V30 820 H 74.28 3.88097 -0.537395 0
M  V30 821 H 75.977 3.90109 -0.928218 0
M  V30 822 H 72.567 3.59772 -2.32942 0
M  V30 823 H 76.751 3.70295 -3.30447 0
M  V30 824 H 72.007 3.90687 -4.70291 0
M  V30 825 H 76.181 4.02477 -5.68318 0
M  V30 826 H 73.808 4.12276 -6.38696 0
M  V30 827 N 75.3831 0.828654 1.34056 0
M  V30 828 C 76.6111 0.43262 2.02326 0
M  V30 829 C 77.0261 -0.963147 1.62385 0
M  V30 830 O 76.3831 -1.62425 0.832121 0
M  V30 831 C 76.4341 0.53182 3.57567 0
M  V30 832 O 76.1551 1.87258 3.96063 0
M  V30 833 C 77.6561 0.131422 4.43105 0
M  V30 834 H 74.8761 0.172923 0.648335 0
M  V30 835 H 77.4201 1.1184 1.71208 0
M  V30 836 H 75.5751 -0.105938 3.87255 0
M  V30 837 H 75.9891 1.85087 4.90758 0
M  V30 838 H 77.4631 0.251904 5.51425 0
M  V30 839 H 77.9401 -0.925645 4.29335 0
M  V30 840 H 78.5461 0.743207 4.18756 0
M  V30 841 N 76.8612 -1.46375 0.584142 0
M  V30 842 C 77.7932 -2.28443 -0.186119 0
M  V30 843 C 78.8062 -1.38596 -0.854115 0
M  V30 844 O 79.9952 -1.63183 -0.723438 0
M  V30 845 C 77.0952 -3.13671 -1.28311 0
M  V30 846 C 76.2682 -4.31652 -0.706758 0
M  V30 847 C 75.3272 -4.98267 -1.69163 0
M  V30 848 O 74.3532 -5.55815 -1.22712 0
M  V30 849 N 75.5552 -4.95408 -3.02575 0
M  V30 850 H 78.3202 -2.9519 0.517986 0
M  V30 851 H 75.8812 -1.56303 0.42201 0
M  V30 852 H 77.8732 -3.55101 -1.94128 0
M  V30 853 H 76.4432 -2.48989 -1.89005 0
M  V30 854 H 75.6632 -3.93989 0.128908 0
M  V30 855 H 76.9512 -5.07906 -0.301506 0
M  V30 856 H 76.3492 -4.49902 -3.42936 0
M  V30 857 H 74.9062 -5.40774 -3.63877 0
M  V30 858 N 78.3393 -0.321999 -1.54275 0
M  V30 859 C 79.5643 0.285791 -2.05422 0
M  V30 860 C 79.9893 1.45124 -1.19669 0
M  V30 861 O 79.3473 1.80132 -0.205441 0
M  V30 862 C 79.3953 0.69956 -3.53749 0
M  V30 863 O 78.4993 1.8021 -3.70942 0
M  V30 864 H 77.8403 0.0518962 -0.661969 0
M  V30 865 H 80.3703 -0.469954 -1.9913 0
M  V30 866 H 80.3803 0.982649 -3.9599 0
M  V30 867 H 79.0553 -0.152864 -4.15619 0
M  V30 868 H 77.6323 1.51794 -3.40607 0
M  V30 869 N 79.8174 1.5752 -0.0501392 0
M  V30 870 C 81.0634 1.92936 0.624798 0
M  V30 871 C 81.3964 0.928685 1.70555 0
M  V30 872 O 80.6714 -0.0454779 1.94447 0
M  V30 873 C 80.9544 3.38737 1.22185 0
M  V30 874 C 80.8074 4.49552 0.149218 0
M  V30 875 C 82.1264 3.84913 2.13378 0
M  V30 876 H 79.2454 0.701604 0.225657 0
M  V30 877 H 81.8874 1.89671 -0.111693 0
M  V30 878 H 80.0374 3.4165 1.84953 0
M  V30 879 H 81.7094 4.58768 -0.482648 0
M  V30 880 H 79.9524 4.30638 -0.522841 0
M  V30 881 H 80.6234 5.48653 0.606966 0
M  V30 882 H 83.0994 3.8387 1.60572 0
M  V30 883 H 81.9754 4.87584 2.52097 0
M  V30 884 H 82.2364 3.21611 3.03346 0
M  V30 885 N 81.2955 -0.223234 1.56011 0
M  V30 886 C 82.5725 -0.972108 1.69733 0
M  V30 887 C 82.9525 -2.02485 0.59691 0
M  V30 888 O 82.3005 -2.25037 -0.396324 0
M  V30 889 C 82.5105 -1.58407 3.10979 0
M  V30 890 C 83.8585 -2.07696 3.70334 0
M  V30 891 O 84.8825 -1.68304 3.1393 0
M  V30 892 O 83.7415 -2.80096 4.69264 0
M  V30 893 H 80.8355 -0.453993 0.691245 0
M  V30 894 H 83.3815 -0.215149 1.68331 0
M  V30 895 H 82.1535 -0.823831 3.82529 0
M  V30 896 H 81.7765 -2.40661 3.16493 0
M  V30 897 N 82.7736 -1.49793 -0.48987 0
M  V30 898 C 83.7206 -1.67281 -1.59014 0
M  V30 899 C 84.6906 -0.514177 -1.57941 0
M  V30 900 O 85.8756 -0.742533 -1.75759 0
M  V30 901 C 83.0156 -1.75569 -2.97102 0
M  V30 902 C 82.1286 -3.0281 -3.08107 0
M  V30 903 C 81.2636 -3.02008 -4.36995 0
M  V30 904 C 80.3026 -4.23782 -4.41673 0
M  V30 905 N 79.4396 -4.20826 -5.62005 0
M  V30 906 H 84.2796 -2.61224 -1.43409 0
M  V30 907 H 81.8166 -1.29508 -0.697565 0
M  V30 908 H 83.7746 -1.78354 -3.77155 0
M  V30 909 H 82.4046 -0.850827 -3.11385 0
M  V30 910 H 81.4566 -3.09584 -2.21047 0
M  V30 911 H 82.7686 -3.92801 -3.07423 0
M  V30 912 H 81.9226 -3.03418 -5.25378 0
M  V30 913 H 80.6616 -2.09815 -4.4026 0
M  V30 914 H 79.6666 -4.22604 -3.5169 0
M  V30 915 H 80.8916 -5.17181 -4.40115 0
M  V30 916 H 78.8376 -3.31476 -5.66091 0
M  V30 917 H 78.7546 -5.04564 -5.62984 0
M  V30 918 H 80.0226 -4.26355 -6.52565 0
M  V30 919 N 84.2517 0.741722 -1.39055 0
M  V30 920 C 85.5007 1.49656 -1.35225 0
M  V30 921 C 85.8137 1.95533 0.0512708 0
M  V30 922 O 87.0197 2.7067 0.212138 0
M  V30 923 C 85.4757 2.70389 -2.37525 0
M  V30 924 C 85.0837 2.31489 -3.83558 0
M  V30 925 C 86.8277 3.48236 -2.42759 0
M  V30 926 C 84.7347 3.48903 -4.77515 0
M  V30 927 H 83.6647 0.56197 -0.502699 0
M  V30 928 H 86.3157 0.809727 -1.64668 0
M  V30 929 H 84.6977 3.41113 -2.01142 0
M  V30 930 H 85.8717 1.68354 -4.28945 0
M  V30 931 H 84.1867 1.66749 -3.81554 0
M  V30 932 H 86.7837 4.35558 -3.1015 0
M  V30 933 H 87.1267 3.90229 -1.45008 0
M  V30 934 H 87.6597 2.84535 -2.78002 0
M  V30 935 H 84.3987 3.11966 -5.76504 0
M  V30 936 H 83.9187 4.11041 -4.36813 0
M  V30 937 H 85.5977 4.15328 -4.96096 0
M  V30 938 N 85.7298 1.2412 0.971189 0
M  V30 939 C 87.1458 1.00584 1.23916 0
M  V30 940 C 87.3458 -0.287481 1.99439 0
M  V30 941 O 86.4018 -1.00454 2.31658 0
M  V30 942 C 87.7148 2.21864 2.0297 0
M  V30 943 C 89.2628 2.26452 2.16076 0
M  V30 944 C 89.7378 3.47343 2.98524 0
M  V30 945 N 91.2288 3.47639 3.06107 0
M  V30 946 C 91.9638 4.37837 3.70251 0
M  V30 947 N 91.4598 5.38286 4.36142 0
M  V30 948 N 93.2528 4.25558 3.67228 0
M  V30 949 H 85.4038 2.07236 0.465499 0
M  V30 950 H 87.6668 0.909236 0.268315 0
M  V30 951 H 87.3728 3.15771 1.54861 0
M  V30 952 H 87.2468 2.23698 3.03709 0
M  V30 953 H 89.6338 1.33078 2.6339 0
M  V30 954 H 89.7148 2.28645 1.14696 0
M  V30 955 H 89.3588 4.41029 2.51905 0
M  V30 956 H 89.2888 3.42393 4.00093 0
M  V30 957 H 91.7798 2.74966 2.59233 0
M  V30 958 H 92.0928 6.03352 4.82894 0
M  V30 959 H 90.4378 5.42176 4.34822 0
M  V30 960 H 93.6288 3.46322 3.14927 0
M  V30 961 H 93.8018 4.96054 4.16935 0
M  V30 962 N 87.2079 -1.17134 1.05439 0
M  V30 963 C 88.4329 -1.91913 0.786396 0
M  V30 964 C 88.8579 -1.7643 -0.652234 0
M  V30 965 O 88.2159 -1.08372 -1.45345 0
M  V30 966 C 88.2639 -3.40921 1.17497 0
M  V30 967 O 87.3679 -4.11244 0.308589 0
M  V30 968 H 86.7089 -0.598215 0.288158 0
M  V30 969 H 89.2389 -1.48457 1.4079 0
M  V30 970 H 89.2489 -3.91668 1.14281 0
M  V30 971 H 87.9239 -3.5151 2.22292 0
M  V30 972 H 86.5009 -3.70731 0.40157 0
M  V30 973 N 88.686 -0.835752 -1.33615 0
M  V30 974 C 89.914 -0.443344 -2.02094 0
M  V30 975 C 90.329 0.954522 -1.62894 0
M  V30 976 O 89.686 1.61982 -0.840723 0
M  V30 977 C 89.737 -0.550775 -3.5728 0
M  V30 978 O 89.458 -1.89356 -3.95065 0
M  V30 979 C 90.959 -0.154919 -4.43029 0
M  V30 980 H 88.179 -0.176359 -0.647409 0
M  V30 981 H 90.723 -1.12746 -1.70612 0
M  V30 982 H 88.878 0.0853997 -3.87306 0
M  V30 983 H 89.292 -1.87687 -4.89769 0
M  V30 984 H 90.766 -0.281144 -5.51284 0
M  V30 985 H 91.243 0.902863 -4.2982 0
M  V30 986 H 91.849 -0.765404 -4.18356 0
M  V30 987 N 90.1641 1.46063 -0.591896 0
M  V30 988 C 91.0941 2.33172 0.123673 0
M  V30 989 C 92.0751 1.45897 0.87453 0
M  V30 990 O 93.2601 1.74698 0.848181 0
M  V30 991 C 90.3901 3.28336 1.13194 0
M  V30 992 C 89.3441 4.25124 0.495324 0
M  V30 993 C 88.6701 5.09863 1.61071 0
M  V30 994 C 89.9701 5.19143 -0.573425 0
M  V30 995 H 91.6641 2.93252 -0.603646 0
M  V30 996 H 89.2101 1.41014 -0.291741 0
M  V30 997 H 91.1631 3.88137 1.64097 0
M  V30 998 H 89.8871 2.66383 1.88965 0
M  V30 999 H 88.5461 3.66599 0.00729452 0
M  V30 1000 H 88.1941 4.44288 2.35832 0
M  V30 1001 H 87.8941 5.75417 1.19035 0
M  V30 1002 H 89.4181 5.72529 2.12233 0
M  V30 1003 H 90.8321 5.73106 -0.1491 0
M  V30 1004 H 89.2291 5.93089 -0.914636 0
M  V30 1005 H 90.2991 4.62519 -1.45617 0
M  V30 1006 N 91.6422 0.330177 1.54103 0
M  V30 1007 C 92.5902 -0.548226 2.26047 0
M  V30 1008 C 93.5842 -1.11309 1.27698 0
M  V30 1009 O 94.7902 -1.06036 1.45452 0
M  V30 1010 H 91.1652 -0.195456 0.726155 0
M  V30 1011 H 93.1362 0.0807567 2.98291 0
M  V30 1012 C 91.8852 -1.69415 3.03634 0
M  V30 1013 H 91.2082 -1.26876 3.79134 0
M  V30 1014 H 92.6482 -2.28423 3.5721 0
M  V30 1015 C 91.1072 -2.61569 2.12328 0
M  V30 1016 O 91.6372 -3.63462 1.7105 0
M  V30 1017 N 89.8432 -2.29952 1.77681 0
M  V30 1018 H 89.3902 -1.47134 2.11446 0
M  V30 1019 H 89.3482 -2.91871 1.16869 0
M  V30 1020 N 93.1203 -1.57491 0.0584922 0
M  V30 1021 C 94.3683 -1.92597 -0.612436 0
M  V30 1022 C 94.6893 -0.938162 -1.70949 0
M  V30 1023 O 93.9593 0.0158301 -1.95894 0
M  V30 1024 H 92.5393 -0.710964 -0.229214 0
M  V30 1025 H 95.2013 -1.94571 0.113218 0
M  V30 1026 H 94.2973 -2.94038 -1.04633 0
M  V30 1027 N 94.5984 0.214957 -1.56127 0
M  V30 1028 C 95.8474 0.936451 -1.78643 0
M  V30 1029 C 96.1604 1.85237 -0.628229 0
M  V30 1030 O 97.3664 2.613 -0.737186 0
M  V30 1031 C 95.8224 1.7154 -3.16389 0
M  V30 1032 C 95.4304 0.845299 -4.39953 0
M  V30 1033 C 97.1744 2.42772 -3.48227 0
M  V30 1034 C 95.0814 1.62198 -5.68723 0
M  V30 1035 H 94.0114 0.353401 -0.666051 0
M  V30 1036 H 96.6624 0.190169 -1.82512 0
M  V30 1037 H 95.0444 2.50484 -3.06715 0
M  V30 1038 H 96.2184 0.0959353 -4.607 0
M  V30 1039 H 94.5334 0.244789 -4.1568 0
M  V30 1040 H 97.1304 3.01394 -4.41663 0
M  V30 1041 H 97.4734 3.15984 -2.71035 0
M  V30 1042 H 98.0064 1.70813 -3.5926 0
M  V30 1043 H 94.7454 0.933011 -6.48826 0
M  V30 1044 H 94.2654 2.34579 -5.52026 0
M  V30 1045 H 95.9444 2.18095 -6.09133 0
M  V30 1046 N 96.0765 1.50051 0.48192 0
M  V30 1047 C 97.0235 1.68122 1.58125 0
M  V30 1048 C 97.9935 0.522545 1.57666 0
M  V30 1049 O 99.1785 0.751844 1.75362 0
M  V30 1050 C 96.3185 1.77142 2.96167 0
M  V30 1051 C 95.4315 3.0444 3.06497 0
M  V30 1052 C 94.5665 3.04321 4.35387 0
M  V30 1053 C 93.6055 4.26118 4.3942 0
M  V30 1054 N 92.7425 4.238 5.59766 0
M  V30 1055 H 97.5825 2.6198 1.42022 0
M  V30 1056 H 95.1195 1.29877 0.690687 0
M  V30 1057 H 97.0775 1.80352 3.76203 0
M  V30 1058 H 95.7075 0.867329 3.1093 0
M  V30 1059 H 94.7595 3.10752 2.19402 0
M  V30 1060 H 96.0715 3.94426 3.05336 0
M  V30 1061 H 95.2255 3.062 5.23762 0
M  V30 1062 H 93.9645 2.12147 4.39141 0
M  V30 1063 H 92.9695 4.24463 3.49444 0
M  V30 1064 H 94.1945 5.19507 4.37366 0
M  V30 1065 H 92.1405 3.34474 5.64326 0
M  V30 1066 H 92.0575 5.07542 5.60301 0
M  V30 1067 H 93.3255 4.2981 6.50295 0
M  V30 1068 N 97.5546 -0.734337 1.39446 0
M  V30 1069 C 98.8316 -1.48579 1.27215 0
M  V30 1070 C 99.2116 -2.1077 -0.117968 0
M  V30 1071 O 98.5596 -1.98646 -1.12924 0
M  V30 1072 C 98.7696 -2.53667 2.39696 0
M  V30 1073 C 100.118 -3.20031 2.79044 0
M  V30 1074 O 101.142 -2.6398 2.39151 0
M  V30 1075 O 100.001 -4.21455 3.47905 0
M  V30 1076 H 97.0946 -0.659816 0.49857 0
M  V30 1077 H 99.6406 -0.768106 1.51322 0
M  V30 1078 H 98.4126 -2.06096 3.32626 0
M  V30 1079 H 98.0356 -3.32994 2.17258 0
M  V30 1080 N 99.0327 -1.24633 -0.964593 0
M  V30 1081 C 100.31 -0.995809 -1.68354 0
M  V30 1082 C 100.69 0.480964 -2.05548 0
M  V30 1083 O 100.038 1.45599 -1.76105 0
M  V30 1084 C 100.248 -1.92177 -2.91323 0
M  V30 1085 C 101.596 -2.19446 -3.63495 0
M  V30 1086 O 102.62 -1.89855 -3.01386 0
M  V30 1087 O 101.479 -2.69714 -4.75307 0
M  V30 1088 H 98.5727 -0.376854 -0.736146 0
M  V30 1089 H 101.119 -1.35745 -1.0184 0
M  V30 1090 H 99.8907 -2.91938 -2.60553 0
M  V30 1091 H 99.5137 -1.56349 -3.65569 0
M  V30 1092 N 100.511 1.16574 -1.06058 0
M  V30 1093 C 101.421 2.2452 -0.680282 0
M  V30 1094 C 102.437 1.71348 0.302604 0
M  V30 1095 O 103.613 2.00822 0.152513 0
M  V30 1096 C 100.678 3.46629 -0.0700315 0
M  V30 1097 C 99.7388 4.14849 -1.10448 0
M  V30 1098 C 98.9718 5.31129 -0.523256 0
M  V30 1099 O 99.1948 5.66514 0.664709 0
M  V30 1100 O 98.1288 5.88526 -1.26179 0
M  V30 1101 H 101.955 2.59355 -1.58015 0
M  V30 1102 H 99.5398 1.24043 -0.832694 0
M  V30 1103 H 101.422 4.20543 0.268667 0
M  V30 1104 H 100.097 3.13573 0.803353 0
M  V30 1105 H 99.0038 3.42916 -1.49532 0
M  V30 1106 H 100.337 4.51954 -1.94931 0
M  V30 1107 N 101.989 0.842826 1.3317 0
M  V30 1108 C 102.952 0.284065 2.27433 0
M  V30 1109 C 103.952 -0.54948 1.5112 0
M  V30 1110 O 105.142 -0.362699 1.70382 0
M  V30 1111 C 102.274 -0.599384 3.35589 0
M  V30 1112 H 103.467 1.11589 2.78366 0
M  V30 1113 H 101.02 0.616221 1.4364 0
M  V30 1114 H 101.755 -1.45349 2.89904 0
M  V30 1115 H 101.54 -0.00291266 3.921 0
M  V30 1116 H 103.03 -0.983488 4.05854 0
M  V30 1117 N 103.467 -1.45747 0.599634 0
M  V30 1118 C 104.397 -2.33235 -0.111306 0
M  V30 1119 C 105.378 -1.46359 -0.866781 0
M  V30 1120 O 106.563 -1.75146 -0.838904 0
M  V30 1121 C 103.693 -3.28932 -1.11451 0
M  V30 1122 C 102.647 -4.25381 -0.472772 0
M  V30 1123 C 101.973 -5.1071 -1.58365 0
M  V30 1124 C 103.273 -5.18831 0.600948 0
M  V30 1125 H 104.967 -2.92927 0.61919 0
M  V30 1126 H 102.513 -1.40857 0.299215 0
M  V30 1127 H 104.466 -3.89002 -1.62036 0
M  V30 1128 H 103.19 -2.67381 -1.8755 0
M  V30 1129 H 101.849 -3.66598 0.0121472 0
M  V30 1130 H 101.497 -4.45533 -2.33473 0
M  V30 1131 H 101.197 -5.7604 -1.15982 0
M  V30 1132 H 102.721 -5.73647 -2.09194 0
M  V30 1133 H 104.135 -5.73019 0.179491 0
M  V30 1134 H 102.532 -5.92595 0.946076 0
M  V30 1135 H 103.602 -4.6174 1.48068 0
M  V30 1136 N 104.945 -0.338344 -1.53925 0
M  V30 1137 C 105.875 0.51328 -2.27789 0
M  V30 1138 C 106.856 1.107 -1.29149 0
M  V30 1139 O 108.041 1.12937 -1.57984 0
M  V30 1140 C 105.171 1.66697 -3.04679 0
M  V30 1141 C 104.125 1.20183 -4.1078 0
M  V30 1142 C 103.451 2.44363 -4.75595 0
M  V30 1143 C 104.751 0.30605 -5.21403 0
M  V30 1144 H 106.445 -0.102883 -2.99223 0
M  V30 1145 H 103.991 -0.0509219 -1.4391 0
M  V30 1146 H 105.944 2.26915 -3.55088 0
M  V30 1147 H 104.668 2.30995 -2.30887 0
M  V30 1148 H 103.327 0.622499 -3.61276 0
M  V30 1149 H 102.975 3.07057 -3.98403 0
M  V30 1150 H 102.675 2.13925 -5.47275 0
M  V30 1151 H 104.199 3.05317 -5.28786 0
M  V30 1152 H 105.613 0.814929 -5.67478 0
M  V30 1153 H 104.01 0.0937929 -6.00027 0
M  V30 1154 H 105.08 -0.65921 -4.80398 0
M  V30 1155 N 106.423 1.57458 -0.0668435 0
M  V30 1156 C 107.333 2.15937 0.916975 0
M  V30 1157 C 108.349 1.12123 1.33058 0
M  V30 1158 O 109.525 1.44366 1.40429 0
M  V30 1159 C 106.59 2.70547 2.16807 0
M  V30 1160 C 105.651 3.89215 1.81135 0
M  V30 1161 C 104.884 4.41211 3.0028 0
M  V30 1162 O 105.107 3.92225 4.14144 0
M  V30 1163 O 104.041 5.32605 2.80384 0
M  V30 1164 H 107.867 3.00354 0.449561 0
M  V30 1165 H 105.452 1.48584 0.155949 0
M  V30 1166 H 107.334 3.0557 2.90181 0
M  V30 1167 H 106.009 1.89192 2.62656 0
M  V30 1168 H 104.916 3.59054 1.05028 0
M  V30 1169 H 106.249 4.71848 1.40073 0
M  V30 1170 N 107.901 -0.206675 1.56239 0
M  V30 1171 C 108.831 -1.25909 1.96645 0
M  V30 1172 C 109.812 -1.48097 0.836734 0
M  V30 1173 O 110.997 -1.6003 1.10019 0
M  V30 1174 C 108.127 -2.6058 2.29599 0
M  V30 1175 C 107.081 -2.53024 3.452 0
M  V30 1176 C 106.407 -3.91861 3.63798 0
M  V30 1177 C 107.707 -2.06524 4.79734 0
M  V30 1178 H 109.401 -0.923369 2.84806 0
M  V30 1179 H 106.947 -0.442735 1.37025 0
M  V30 1180 H 108.9 -3.34375 2.56459 0
M  V30 1181 H 107.624 -2.95869 1.38307 0
M  V30 1182 H 106.283 -1.81684 3.18412 0
M  V30 1183 H 105.931 -4.24483 2.69857 0
M  V30 1184 H 105.631 -3.87683 4.4156 0
M  V30 1185 H 107.155 -4.67296 3.93022 0
M  V30 1186 H 108.569 -2.70072 5.05702 0
M  V30 1187 H 106.966 -2.13374 5.60885 0
M  V30 1188 H 108.036 -1.01802 4.74093 0
M  V30 1189 N 109.379 -1.50304 -0.473955 0
M  V30 1190 C 110.342 -1.6841 -1.55469 0
M  V30 1191 C 111.342 -0.554905 -1.50922 0
M  V30 1192 O 112.532 -0.821882 -1.53593 0
M  V30 1193 C 109.664 -1.70667 -2.95102 0
M  V30 1194 H 110.857 -2.64828 -1.40733 0
M  V30 1195 H 108.41 -1.39742 -0.700132 0
M  V30 1196 H 109.145 -0.75932 -3.15285 0
M  V30 1197 H 108.93 -2.52698 -2.9981 0
M  V30 1198 H 110.42 -1.8664 -3.73571 0
M  V30 1199 N 110.857 0.726932 -1.39834 0
M  V30 1200 C 111.82 1.82269 -1.38962 0
M  V30 1201 C 112.82 1.58248 -0.285334 0
M  V30 1202 O 114.01 1.65499 -0.54366 0
M  V30 1203 C 111.142 3.20186 -1.17019 0
M  V30 1204 H 112.335 1.84443 -2.36476 0
M  V30 1205 H 109.888 0.931416 -1.25516 0
M  V30 1206 H 110.623 3.23669 -0.202204 0
M  V30 1207 H 110.408 3.3902 -1.96998 0
M  V30 1208 H 111.898 4.00235 -1.1917 0
M  V30 1209 N 112.336 1.25143 0.95797 0
M  V30 1210 C 113.613 1.00472 1.67823 0
M  V30 1211 C 113.993 -0.470056 2.058 0
M  V30 1212 O 113.341 -1.44663 1.76875 0
M  V30 1213 C 113.551 1.9372 2.90299 0
M  V30 1214 C 114.899 2.21371 3.62326 0
M  V30 1215 O 115.923 1.91451 3.00375 0
M  V30 1216 O 114.782 2.72231 4.7387 0
M  V30 1217 H 111.876 0.380752 0.734137 0
M  V30 1218 H 114.422 1.36283 1.01119 0
M  V30 1219 H 113.194 2.93316 2.59001 0
M  V30 1220 H 112.817 1.58286 3.64735 0
M  V30 1221 N 113.814 -1.1601 1.06675 0
M  V30 1222 C 115.044 -1.90251 0.805497 0
M  V30 1223 C 115.452 -1.77891 -0.64431 0
M  V30 1224 O 114.795 -1.12383 -1.45313 0
M  V30 1225 C 114.857 -3.41419 1.12576 0
M  V30 1226 C 114.521 -3.77564 2.57477 0
M  V30 1227 C 115.518 -3.79161 3.55715 0
M  V30 1228 C 113.203 -4.08079 2.92877 0
M  V30 1229 C 115.197 -4.10767 4.8739 0
M  V30 1230 C 112.884 -4.39351 4.24751 0
M  V30 1231 C 113.882 -4.40675 5.21818 0
M  V30 1232 O 113.57 -4.71202 6.51325 0
M  V30 1233 H 113.302 -0.610018 0.291297 0
M  V30 1234 H 115.856 -1.47958 1.4247 0
M  V30 1235 H 114.086 -3.84079 0.449503 0
M  V30 1236 H 115.775 -3.9694 0.84814 0
M  V30 1237 H 116.541 -3.55693 3.29708 0
M  V30 1238 H 112.42 -4.06211 2.17976 0
M  V30 1239 H 115.964 -4.11715 5.63148 0
M  V30 1240 H 111.861 -4.62285 4.50514 0
M  V30 1241 H 112.629 -4.88996 6.56373 0
M  V30 1242 N 115.292 -0.849877 -1.32721 0
M  V30 1243 C 116.532 -0.457146 -1.99222 0
M  V30 1244 C 116.896 0.968038 -1.6581 0
M  V30 1245 O 118.097 1.46507 -2.25364 0
M  V30 1246 C 116.368 -0.683966 -3.50794 0
M  V30 1247 S 117.927 -0.388095 -4.3708 0
M  V30 1248 H 114.745 -0.171464 -0.690015 0
M  V30 1249 H 117.347 -1.10155 -1.61512 0
M  V30 1250 H 116.051 -1.72038 -3.726 0
M  V30 1251 H 115.582 -0.0258086 -3.93392 0
M  V30 1252 H 117.597 0.787791 -4.89906 0
M  V30 1253 N 116.77 1.45427 -0.607355 0
M  V30 1254 C 118.018 2.01841 -0.102253 0
M  V30 1255 C 118.339 1.47832 1.27164 0
M  V30 1256 O 117.609 0.672497 1.83995 0
M  V30 1257 H 116.189 0.746188 -0.0348101 0
M  V30 1258 H 118.851 1.78229 -0.7887 0
M  V30 1259 H 117.947 3.12057 -0.0518585 0
M  V30 1260 N 118.248 0.346503 1.53744 0
M  V30 1261 C 119.178 -0.501193 2.28058 0
M  V30 1262 C 120.159 -1.10014 1.29734 0
M  V30 1263 O 121.344 -1.12097 1.58581 0
M  V30 1264 C 118.474 -1.65078 3.05559 0
M  V30 1265 C 117.428 -1.18003 4.11411 0
M  V30 1266 C 116.754 -2.41837 4.76884 0
M  V30 1267 C 118.054 -0.278394 5.21558 0
M  V30 1268 H 119.748 0.11875 2.99164 0
M  V30 1269 H 117.294 0.0585531 1.43881 0
M  V30 1270 H 119.247 -2.25028 3.56287 0
M  V30 1271 H 117.971 -2.29767 2.32109 0
M  V30 1272 H 116.63 -0.603331 3.61601 0
M  V30 1273 H 116.278 -3.0494 4.00026 0
M  V30 1274 H 115.978 -2.1102 5.48402 0
M  V30 1275 H 117.502 -3.02508 5.30397 0
M  V30 1276 H 118.916 -0.784823 5.67903 0
M  V30 1277 H 117.313 -0.0619707 6.00068 0
M  V30 1278 H 118.383 0.684677 4.80042 0
M  V30 1279 N 119.726 -1.57421 0.075193 0
M  V30 1280 C 120.973 -1.93618 -0.593146 0
M  V30 1281 C 121.301 -0.955484 -1.69413 0
M  V30 1282 O 120.556 0.0283251 -1.9568 0
M  V30 1283 C 120.855 -3.36428 -1.20626 0
M  V30 1284 C 120.521 -4.50307 -0.231078 0
M  V30 1285 C 119.183 -4.81186 0.0371936 0
M  V30 1286 C 121.535 -5.19374 0.435888 0
M  V30 1287 C 118.863 -5.78466 0.979461 0
M  V30 1288 C 121.215 -6.17665 1.3665 0
M  V30 1289 C 119.879 -6.46958 1.6432 0
M  V30 1290 H 119.149 -0.708499 -0.217047 0
M  V30 1291 H 121.796 -1.90937 0.146793 0
M  V30 1292 H 120.101 -3.35592 -2.02201 0
M  V30 1293 H 121.798 -3.61727 -1.73073 0
M  V30 1294 H 118.388 -4.26227 -0.450357 0
M  V30 1295 H 122.572 -4.95711 0.241748 0
M  V30 1296 H 117.828 -5.99487 1.20106 0
M  V30 1297 H 122.002 -6.70284 1.88924 0
M  V30 1298 H 119.629 -7.2215 2.37494 0
M  V30 1299 N 121.204 0.198386 -1.56346 0
M  V30 1300 C 122.134 1.24865 -1.9731 0
M  V30 1301 C 123.115 1.47651 -0.844576 0
M  V30 1302 O 124.3 1.59444 -1.10866 0
M  V30 1303 C 121.43 2.59358 -2.30977 0
M  V30 1304 C 120.384 2.5119 -3.46537 0
M  V30 1305 C 119.71 3.89926 -3.65871 0
M  V30 1306 C 121.01 2.03977 -4.80823 0
M  V30 1307 H 122.704 0.908252 -2.85291 0
M  V30 1308 H 120.25 0.435462 -1.37258 0
M  V30 1309 H 122.203 3.33011 -2.58228 0
M  V30 1310 H 120.927 2.95132 -1.39874 0
M  V30 1311 H 119.586 1.79993 -3.19371 0
M  V30 1312 H 119.234 4.23046 -2.72105 0
M  V30 1313 H 118.934 3.85336 -4.4361 0
M  V30 1314 H 120.458 4.65205 -3.95495 0
M  V30 1315 H 121.872 2.67386 -5.07127 0
M  V30 1316 H 120.269 2.10397 -5.62008 0
M  V30 1317 H 121.339 0.992861 -4.74626 0
M  V30 1318 N 122.682 1.50554 0.465978 0
M  V30 1319 C 123.928 1.62038 1.21949 0
M  V30 1320 C 124.261 0.322116 1.9151 0
M  V30 1321 O 123.536 -0.676723 1.82348 0
M  V30 1322 C 123.819 2.80421 2.25912 0
M  V30 1323 C 123.672 4.20144 1.60622 0
M  V30 1324 C 124.991 2.94354 3.27176 0
M  V30 1325 H 122.11 0.589752 0.441998 0
M  V30 1326 H 124.752 1.82956 0.51257 0
M  V30 1327 H 122.902 2.62717 2.86203 0
M  V30 1328 H 124.574 4.49449 1.03889 0
M  V30 1329 H 122.817 4.24165 0.909211 0
M  V30 1330 H 123.488 4.98914 2.36196 0
M  V30 1331 H 125.964 3.10578 2.76913 0
M  V30 1332 H 124.84 3.788 3.97242 0
M  V30 1333 H 125.101 2.05186 3.916 0
M  V30 1334 N 124.16 -0.719506 1.40217 0
M  V30 1335 C 125.408 -1.47641 1.3801 0
M  V30 1336 C 125.729 -1.94992 -0.018145 0
M  V30 1337 O 124.999 -1.70073 -0.972207 0
M  V30 1338 H 123.579 -0.547744 0.507923 0
M  V30 1339 H 126.241 -0.853187 1.75233 0
M  V30 1340 H 125.337 -2.35112 2.05253 0
M  V30 1341 N 125.638 -1.25649 -0.95132 0
M  V30 1342 C 126.866 -1.13343 -1.73092 0
M  V30 1343 C 127.281 0.312434 -1.86197 0
M  V30 1344 O 126.638 1.21465 -1.36207 0
M  V30 1345 C 126.689 -1.78602 -3.14299 0
M  V30 1346 O 126.41 -3.17537 -3.01831 0
M  V30 1347 C 127.911 -1.72119 -4.08522 0
M  V30 1348 H 125.131 -0.395181 -0.542285 0
M  V30 1349 H 127.675 -1.66076 -1.19328 0
M  V30 1350 H 125.83 -1.29832 -3.64996 0
M  V30 1351 H 126.244 -3.49676 -3.90931 0
M  V30 1352 H 127.718 -2.22435 -5.052 0
M  V30 1353 H 128.195 -0.685635 -4.33815 0
M  V30 1354 H 128.801 -2.20393 -3.63741 0
M  V30 1355 N 127.117 1.15442 -1.07289 0
M  V30 1356 C 128.064 2.20161 -0.692653 0
M  V30 1357 C 129.034 1.63073 0.31564 0
M  V30 1358 O 130.219 1.89725 0.202235 0
M  V30 1359 C 127.359 3.44967 -0.0959509 0
M  V30 1360 C 126.472 4.16256 -1.15564 0
M  V30 1361 C 125.607 5.28609 -0.524011 0
M  V30 1362 C 124.646 5.91715 -1.56653 0
M  V30 1363 N 123.783 6.9554 -0.957531 0
M  V30 1364 H 128.623 2.52037 -1.59002 0
M  V30 1365 H 126.16 1.2378 -0.794798 0
M  V30 1366 H 128.118 4.16341 0.267628 0
M  V30 1367 H 126.748 3.1361 0.764772 0
M  V30 1368 H 125.8 3.43385 -1.6368 0
M  V30 1369 H 127.112 4.59268 -1.94613 0
M  V30 1370 H 126.266 6.06604 -0.108032 0
M  V30 1371 H 125.005 4.86787 0.29825 0
M  V30 1372 H 124.01 5.12433 -1.9923 0
M  V30 1373 H 125.235 6.35614 -2.39107 0
M  V30 1374 H 123.181 6.55814 -0.156162 0
M  V30 1375 H 123.098 7.36977 -1.68526 0
M  V30 1376 H 124.366 7.77435 -0.567032 0
M  V30 1377 N 128.595 0.856903 1.32268 0
M  V30 1378 C 129.545 0.274899 2.26337 0
M  V30 1379 C 130.529 -0.580543 1.50062 0
M  V30 1380 O 131.721 -0.429559 1.71708 0
M  V30 1381 C 128.85 -0.533841 3.39124 0
M  V30 1382 C 127.936 0.334114 4.22782 0
M  V30 1383 N 128.327 1.42143 4.85416 0
M  V30 1384 C 126.625 0.124256 4.45827 0
M  V30 1385 C 127.326 1.95559 5.47843 0
M  V30 1386 N 126.302 1.25444 5.28928 0
M  V30 1387 H 130.104 1.10612 2.72291 0
M  V30 1388 H 127.618 0.703258 1.46383 0
M  V30 1389 H 129.615 -0.96722 4.05525 0
M  V30 1390 H 128.275 -1.36283 2.94715 0
M  V30 1391 H 129.286 1.80436 4.85451 0
M  V30 1392 H 125.963 -0.669837 4.12092 0
M  V30 1393 H 127.353 2.86714 6.07655 0
M  V30 1394 N 130.073 -1.45103 0.615059 0
M  V30 1395 C 131.298 -2.07064 0.117988 0
M  V30 1396 C 131.723 -1.4554 -1.19163 0
M  V30 1397 O 131.081 -0.550855 -1.72729 0
M  V30 1398 C 131.129 -3.606 -0.000288387 0
M  V30 1399 O 130.233 -3.98847 -1.04856 0
M  V30 1400 H 129.574 -0.659467 0.0774581 0
M  V30 1401 H 132.104 -1.86236 0.847186 0
M  V30 1402 H 132.114 -4.07529 -0.196091 0
M  V30 1403 H 130.789 -4.04765 0.955932 0
M  V30 1404 H 129.366 -3.63577 -0.828619 0
M  V30 1405 N 131.551 -0.354651 -1.53558 0
M  V30 1406 C 132.514 0.484566 -2.24019 0
M  V30 1407 C 133.514 1.01861 -1.24422 0
M  V30 1408 O 134.704 0.906097 -1.4878 0
M  V30 1409 C 131.836 1.67615 -2.96847 0
M  V30 1410 H 133.029 -0.131843 -2.9961 0
M  V30 1411 H 130.582 -0.106165 -1.55939 0
M  V30 1412 H 131.317 2.33095 -2.25471 0
M  V30 1413 H 131.102 1.30029 -3.69912 0
M  V30 1414 H 132.592 2.27114 -3.50441 0
M  V30 1415 N 133.029 1.57378 -0.0835403 0
M  V30 1416 C 134.254 1.98682 0.594987 0
M  V30 1417 C 134.679 0.961969 1.61641 0
M  V30 1418 O 134.037 -0.0709989 1.81161 0
M  V30 1419 C 134.085 3.38988 1.2296 0
M  V30 1420 O 133.189 3.39208 2.34546 0
M  V30 1421 H 132.53 0.646368 0.152002 0
M  V30 1422 H 135.06 2.03961 -0.161533 0
M  V30 1423 H 135.07 3.76431 1.57366 0
M  V30 1424 H 133.745 4.13107 0.481228 0
M  V30 1425 H 132.322 3.13548 2.01846 0
M  V30 1426 N 134.507 -0.190092 1.56449 0
M  V30 1427 C 135.918 -0.754312 1.70784 0
M  V30 1428 C 136.269 -1.83631 0.690951 0
M  V30 1429 O 135.394 -2.15868 -0.151604 0
M  V30 1430 C 135.989 -1.37503 3.09642 0
M  V30 1431 C 134.548 -1.88628 3.25725 0
M  V30 1432 C 133.695 -0.758098 2.66736 0
M  V30 1433 H 136.646 0.0350524 1.58661 0
M  V30 1434 H 136.667 -2.2445 3.0725 0
M  V30 1435 H 136.179 -0.587302 3.83631 0
M  V30 1436 H 134.28 -2.70103 2.56661 0
M  V30 1437 H 134.393 -2.04462 4.3328 0
M  V30 1438 H 132.757 -1.17369 2.26046 0
M  V30 1439 H 133.54 0.0174705 3.43296 0
M  V30 1440 N 135.985 -1.50799 -0.457987 0
M  V30 1441 C 137.215 -1.65977 -1.23025 0
M  V30 1442 C 137.623 -0.347918 -1.85974 0
M  V30 1443 O 136.966 0.68148 -1.70592 0
M  V30 1444 C 137.028 -2.70309 -2.3701 0
M  V30 1445 C 136.692 -4.135 -1.94594 0
M  V30 1446 C 137.689 -4.98949 -1.46101 0
M  V30 1447 C 135.374 -4.5949 -2.02915 0
M  V30 1448 C 137.368 -6.28442 -1.06489 0
M  V30 1449 C 135.055 -5.88984 -1.62914 0
M  V30 1450 C 136.053 -6.73286 -1.1478 0
M  V30 1451 O 135.741 -8.00362 -0.75339 0
M  V30 1452 H 135.473 -0.56064 -0.377702 0
M  V30 1453 H 138.027 -1.97857 -0.551537 0
M  V30 1454 H 136.257 -2.337 -3.08093 0
M  V30 1455 H 137.946 -2.74574 -2.98938 0
M  V30 1456 H 138.712 -4.6463 -1.39084 0
M  V30 1457 H 134.591 -3.94009 -2.39328 0
M  V30 1458 H 138.135 -6.94194 -0.688488 0
M  V30 1459 H 134.032 -6.22822 -1.69595 0
M  V30 1460 H 134.8 -8.13744 -0.88108 0
M  V30 1461 N 137.463 0.71206 -1.40597 0
M  V30 1462 C 138.426 1.80785 -1.40888 0
M  V30 1463 C 139.426 1.57937 -0.302103 0
M  V30 1464 O 140.616 1.64913 -0.561182 0
M  V30 1465 C 137.748 3.18927 -1.20409 0
M  V30 1466 H 138.941 1.81924 -2.38419 0
M  V30 1467 H 136.494 0.91805 -1.26497 0
M  V30 1468 H 137.229 3.23436 -0.236522 0
M  V30 1469 H 137.014 3.36911 -2.00582 0
M  V30 1470 H 138.504 3.98949 -1.23408 0
M  V30 1471 N 138.941 1.26152 0.944643 0
M  V30 1472 C 140.166 1.14363 1.7302 0
M  V30 1473 C 140.591 -0.29772 1.85729 0
M  V30 1474 O 139.949 -1.2157 1.34501 0
M  V30 1475 C 139.997 1.81378 3.11664 0
M  V30 1476 O 139.101 1.10022 3.97453 0
M  V30 1477 H 138.442 0.398694 0.53098 0
M  V30 1478 H 140.972 1.66906 1.18337 0
M  V30 1479 H 140.982 1.88064 3.62072 0
M  V30 1480 H 139.657 2.86237 3.0173 0
M  V30 1481 H 138.234 1.11287 3.55907 0
M  V30 1482 N 140.419 -1.14872 1.07899 0
M  V30 1483 C 141.349 -2.2193 0.725887 0
M  V30 1484 C 142.33 -1.67622 -0.28927 0
M  V30 1485 O 143.515 -1.93533 -0.160787 0
M  V30 1486 C 140.645 -3.47061 0.128856 0
M  V30 1487 C 139.599 -4.14363 1.07178 0
M  V30 1488 C 138.925 -5.33636 0.337229 0
M  V30 1489 C 140.225 -4.63492 2.40775 0
M  V30 1490 H 141.919 -2.51724 1.62097 0
M  V30 1491 H 139.465 -1.20991 0.780838 0
M  V30 1492 H 141.418 -4.21199 -0.130147 0
M  V30 1493 H 140.142 -3.16617 -0.80134 0
M  V30 1494 H 138.801 -3.42173 1.3158 0
M  V30 1495 H 138.449 -4.99449 -0.596606 0
M  V30 1496 H 138.149 -5.79609 0.965788 0
M  V30 1497 H 139.673 -6.10539 0.0861567 0
M  V30 1498 H 141.087 -5.2913 2.20669 0
M  V30 1499 H 139.484 -5.20148 2.99276 0
M  V30 1500 H 140.554 -3.78834 3.02676 0
M  V30 1501 N 141.898 -0.863906 -1.31812 0
M  V30 1502 C 143.128 -0.485406 -2.00817 0
M  V30 1503 C 143.536 0.925007 -1.65046 0
M  V30 1504 O 142.879 1.61653 -0.872574 0
M  V30 1505 C 142.941 -0.555589 -3.55181 0
M  V30 1506 C 142.605 -1.92654 -4.14407 0
M  V30 1507 C 143.602 -2.89324 -4.31958 0
M  V30 1508 C 141.287 -2.2262 -4.50273 0
M  V30 1509 C 143.281 -4.14108 -4.84555 0
M  V30 1510 C 140.968 -3.47654 -5.02573 0
M  V30 1511 C 141.966 -4.43214 -5.19664 0
M  V30 1512 O 141.654 -5.66033 -5.70843 0
M  V30 1513 H 141.386 -0.188224 -0.649267 0
M  V30 1514 H 143.94 -1.16514 -1.69156 0
M  V30 1515 H 142.17 0.181037 -3.86276 0
M  V30 1516 H 143.859 -0.19138 -4.05449 0
M  V30 1517 H 144.625 -2.6748 -4.04573 0
M  V30 1518 H 140.504 -1.4902 -4.3625 0
M  V30 1519 H 144.048 -4.88703 -4.9781 0
M  V30 1520 H 139.945 -3.69345 -5.29391 0
M  V30 1521 H 140.713 -5.6812 -5.89222 0
M  V30 1522 N 143.376 1.44774 -0.622745 0
M  V30 1523 C 144.306 2.33382 0.0741861 0
M  V30 1524 C 145.287 1.47719 0.843387 0
M  V30 1525 O 146.472 1.76458 0.810934 0
M  V30 1526 C 143.602 3.30663 1.06204 0
M  V30 1527 C 142.556 4.26079 0.405037 0
M  V30 1528 C 141.882 5.13165 1.5022 0
M  V30 1529 C 143.182 5.1781 -0.683414 0
M  V30 1530 H 144.876 2.91905 -0.665713 0
M  V30 1531 H 142.422 1.40363 -0.321587 0
M  V30 1532 H 144.375 3.9153 1.55827 0
M  V30 1533 H 143.099 2.70331 1.83272 0
M  V30 1534 H 141.758 3.66532 -0.0704683 0
M  V30 1535 H 141.406 4.49191 2.26355 0
M  V30 1536 H 141.106 5.77812 1.06803 0
M  V30 1537 H 142.63 5.76902 2.00041 0
M  V30 1538 H 144.044 5.72661 -0.270631 0
M  V30 1539 H 142.441 5.91015 -1.04023 0
M  V30 1540 H 143.511 4.59326 -1.55395 0
M  V30 1541 N 144.854 0.36279 1.53368 0
M  V30 1542 C 146.079 -0.231226 2.06107 0
M  V30 1543 C 146.504 -1.419 1.23474 0
M  V30 1544 O 145.862 -1.79524 0.253128 0
M  V30 1545 C 145.91 -0.605523 3.5548 0
M  V30 1546 O 145.014 -1.70312 3.7559 0
M  V30 1547 H 144.355 -0.034327 0.663112 0
M  V30 1548 H 146.885 0.522584 1.97814 0
M  V30 1549 H 146.895 -0.877314 3.98456 0
M  V30 1550 H 145.57 0.263004 4.15068 0
M  V30 1551 H 144.147 -1.4271 3.44512 0
M  V30 1552 N 146.332 -1.57332 0.0918853 0
M  V30 1553 C 147.58 -1.93853 -0.571446 0
M  V30 1554 C 147.901 -0.974212 -1.6892 0
M  V30 1555 O 147.171 -0.0257254 -1.95883 0
M  V30 1556 H 145.751 -0.715666 -0.214082 0
M  V30 1557 H 148.413 -1.94287 0.154464 0
M  V30 1558 H 147.509 -2.96191 -0.983729 0
M  V30 1559 N 147.81 0.181792 -1.56548 0
M  V30 1560 C 148.72 1.24538 -1.98815 0
M  V30 1561 C 149.736 1.49045 -0.897861 0
M  V30 1562 O 150.912 1.61399 -1.20467 0
M  V30 1563 C 147.977 2.56683 -2.33055 0
M  V30 1564 C 147.038 2.40131 -3.55859 0
M  V30 1565 C 146.271 3.65975 -3.88456 0
M  V30 1566 O 146.494 4.70711 -3.22161 0
M  V30 1567 O 145.428 3.6071 -4.81842 0
M  V30 1568 H 149.254 0.916647 -2.89536 0
M  V30 1569 H 146.839 0.387842 -1.44278 0
M  V30 1570 H 148.721 3.34655 -2.56094 0
M  V30 1571 H 147.396 2.89157 -1.45498 0
M  V30 1572 H 146.303 1.60226 -3.38051 0
M  V30 1573 H 147.636 2.12585 -4.43924 0
M  V30 1574 N 149.288 1.51039 0.449983 0
M  V30 1575 C 150.565 1.53612 1.21089 0
M  V30 1576 C 150.945 0.292997 2.09057 0
M  V30 1577 O 150.293 -0.72259 2.16774 0
M  V30 1578 C 150.503 2.84337 2.0237 0
M  V30 1579 C 151.851 3.35807 2.59843 0
M  V30 1580 O 152.875 2.85802 2.12593 0
M  V30 1581 O 151.734 4.23029 3.45989 0
M  V30 1582 H 148.828 0.617057 0.550608 0
M  V30 1583 H 151.374 1.63344 0.460082 0
M  V30 1584 H 150.146 3.66278 1.37681 0
M  V30 1585 H 149.769 2.77708 2.84542 0
M  V30 1586 N 150.766 -0.704594 1.40972 0
M  V30 1587 C 151.676 -1.84856 1.44448 0
M  V30 1588 C 152.692 -1.70726 0.335961 0
M  V30 1589 O 153.868 -1.92799 0.582276 0
M  V30 1590 C 150.933 -3.20758 1.31587 0
M  V30 1591 C 149.994 -3.47063 2.52677 0
M  V30 1592 C 149.227 -4.76481 2.4042 0
M  V30 1593 O 149.45 -5.52341 1.42391 0
M  V30 1594 O 148.384 -5.03367 3.30007 0
M  V30 1595 H 152.21 -1.8488 2.40942 0
M  V30 1596 H 149.795 -0.85647 1.22413 0
M  V30 1597 H 151.677 -4.01913 1.26665 0
M  V30 1598 H 150.352 -3.21438 0.382049 0
M  V30 1599 H 149.259 -2.65873 2.63177 0
M  V30 1600 H 150.592 -3.5119 3.44858 0
M  V30 1601 N 152.244 -1.26651 -0.937939 0
M  V30 1602 C 153.655 -1.1125 -1.49934 0
M  V30 1603 C 154.006 0.306077 -1.93798 0
M  V30 1604 O 153.131 1.19792 -1.80219 0
M  V30 1605 C 153.726 -2.01339 -2.72485 0
M  V30 1606 C 152.285 -1.90074 -3.24883 0
M  V30 1607 C 151.432 -1.94498 -1.97651 0
M  V30 1608 H 154.383 -1.39693 -0.753091 0
M  V30 1609 H 154.404 -1.56319 -3.46907 0
M  V30 1610 H 153.916 -3.04577 -2.40529 0
M  V30 1611 H 152.017 -0.897827 -3.61621 0
M  V30 1612 H 152.13 -2.75778 -3.9177 0
M  V30 1613 H 150.494 -1.38591 -2.13693 0
M  V30 1614 H 151.277 -2.99372 -1.68022 0
M  V30 1615 N 153.722 1.14298 -1.08507 0
M  V30 1616 C 154.652 2.21542 -0.737646 0
M  V30 1617 C 155.633 1.67773 0.280377 0
M  V30 1618 O 156.818 1.93616 0.150521 0
M  V30 1619 C 153.948 3.46988 -0.147259 0
M  V30 1620 C 152.902 4.13789 -1.09374 0
M  V30 1621 C 152.228 5.33449 -0.365524 0
M  V30 1622 C 153.528 4.62208 -2.4323 0
M  V30 1623 H 155.222 2.5086 -1.6343 0
M  V30 1624 H 152.768 1.20576 -0.787243 0
M  V30 1625 H 154.721 4.21262 0.107808 0
M  V30 1626 H 153.445 3.17037 0.784538 0
M  V30 1627 H 152.104 3.4147 -1.33393 0
M  V30 1628 H 151.752 4.99759 0.57011 0
M  V30 1629 H 151.452 5.79088 -0.996512 0
M  V30 1630 H 152.976 6.10485 -0.118534 0
M  V30 1631 H 154.39 5.27952 -2.23472 0
M  V30 1632 H 152.787 5.18553 -3.02031 0
M  V30 1633 H 153.857 3.77224 -3.04681 0
M  V30 1634 N 155.201 0.870884 1.31352 0
M  V30 1635 C 156.131 0.343096 2.30966 0
M  V30 1636 C 157.112 -0.566507 1.60389 0
M  V30 1637 O 158.297 -0.483336 1.88089 0
M  V30 1638 C 155.427 -0.455487 3.443 0
M  V30 1639 C 154.381 0.361103 4.26474 0
M  V30 1640 C 153.707 -0.563221 5.31725 0
M  V30 1641 C 155.007 1.59566 4.97329 0
M  V30 1642 H 156.701 1.17548 2.75359 0
M  V30 1643 H 154.247 0.566686 1.32381 0
M  V30 1644 H 156.2 -0.83525 4.13039 0
M  V30 1645 H 154.924 -1.32139 2.98675 0
M  V30 1646 H 153.583 0.722825 3.59403 0
M  V30 1647 H 153.231 -1.42643 4.82351 0
M  V30 1648 H 152.931 -0.0207409 5.87596 0
M  V30 1649 H 154.455 -0.939808 6.03324 0
M  V30 1650 H 155.869 1.28728 5.58661 0
M  V30 1651 H 154.266 2.07728 5.63 0
M  V30 1652 H 155.336 2.34798 4.24262 0
M  V30 1653 N 156.679 -1.44442 0.630414 0
M  V30 1654 C 157.926 -2.02052 0.134617 0
M  V30 1655 C 158.254 -1.49576 -1.24327 0
M  V30 1656 O 157.509 -0.669806 -1.83881 0
M  V30 1657 C 157.808 -3.57332 0.0697835 0
M  V30 1658 C 157.474 -4.29058 1.38635 0
M  V30 1659 C 156.136 -4.4837 1.74694 0
M  V30 1660 C 158.488 -4.69872 2.25543 0
M  V30 1661 C 155.816 -5.05756 2.97369 0
M  V30 1662 C 158.168 -5.28616 3.47487 0
M  V30 1663 C 156.832 -5.46147 3.8377 0
M  V30 1664 H 156.102 -0.739361 0.0492598 0
M  V30 1665 H 158.749 -1.73217 0.816586 0
M  V30 1666 H 157.054 -3.85577 -0.695553 0
M  V30 1667 H 158.751 -3.99637 -0.330344 0
M  V30 1668 H 155.341 -4.14357 1.09574 0
M  V30 1669 H 159.525 -4.54666 1.98979 0
M  V30 1670 H 154.781 -5.17515 3.25558 0
M  V30 1671 H 158.955 -5.59192 4.15063 0
M  V30 1672 H 156.582 -5.9038 4.7891 0
M  V30 1673 N 158.157 -0.370918 -1.53173 0
M  V30 1674 C 159.405 0.216673 -2.00935 0
M  V30 1675 C 159.726 1.48845 -1.25977 0
M  V30 1676 O 158.996 1.92286 -0.374551 0
M  V30 1677 H 157.576 0.0830565 -0.742368 0
M  V30 1678 H 160.238 -0.49838 -1.8842 0
M  V30 1679 H 159.334 0.439893 -3.08984 0
M  V30 1680 N 159.635 1.57281 -0.100228 0
M  V30 1681 C 160.545 2.17833 0.870965 0
M  V30 1682 C 161.561 1.14921 1.30649 0
M  V30 1683 O 162.737 1.47313 1.37335 0
M  V30 1684 C 159.802 2.75085 2.1102 0
M  V30 1685 C 158.863 3.9297 1.72838 0
M  V30 1686 C 158.096 4.47482 2.90854 0
M  V30 1687 O 158.319 4.00922 4.05731 0
M  V30 1688 O 157.253 5.38433 2.69023 0
M  V30 1689 H 161.079 3.0124 0.38575 0
M  V30 1690 H 158.664 1.48881 0.124397 0
M  V30 1691 H 160.546 3.11656 2.83634 0
M  V30 1692 H 159.221 1.94721 2.58584 0
M  V30 1693 H 158.128 3.61201 0.973883 0
M  V30 1694 H 159.461 4.74713 1.30033 0
M  V30 1695 N 161.113 -0.173488 1.56642 0
M  V30 1696 C 162.045 -1.23935 1.92802 0
M  V30 1697 C 163.058 -1.40589 0.820889 0
M  V30 1698 O 164.247 -1.40631 1.09933 0
M  V30 1699 C 161.347 -2.60837 2.16373 0
M  V30 1700 C 160.52 -2.6551 3.47596 0
M  V30 1701 C 159.579 -3.8376 3.60021 0
M  V30 1702 O 158.605 -3.69859 4.32658 0
M  V30 1703 N 159.807 -5.00127 2.94709 0
M  V30 1704 H 162.572 -0.932236 2.84832 0
M  V30 1705 H 160.133 -0.363268 1.57772 0
M  V30 1706 H 162.125 -3.38407 2.21952 0
M  V30 1707 H 160.695 -2.83948 1.30738 0
M  V30 1708 H 159.915 -1.74052 3.53694 0
M  V30 1709 H 161.203 -2.65641 4.33949 0
M  V30 1710 H 160.601 -5.14322 2.35563 0
M  V30 1711 H 159.158 -5.75567 3.05886 0
M  V30 1712 N 162.591 -1.51276 -0.441967 0
M  V30 1713 C 163.541 -1.6864 -1.53442 0
M  V30 1714 C 164.525 -0.540444 -1.51552 0
M  V30 1715 O 165.717 -0.796157 -1.58083 0
M  V30 1716 C 162.846 -1.8106 -2.91672 0
M  V30 1717 C 161.932 -3.01424 -2.98336 0
M  V30 1718 N 162.323 -4.2467 -2.74752 0
M  V30 1719 C 160.621 -3.00584 -3.29493 0
M  V30 1720 C 161.322 -5.05891 -2.87139 0
M  V30 1721 N 160.298 -4.40442 -3.18609 0
M  V30 1722 H 164.1 -2.61598 -1.33954 0
M  V30 1723 H 161.614 -1.4886 -0.6492 0
M  V30 1724 H 163.611 -1.91609 -3.70259 0
M  V30 1725 H 162.271 -0.892795 -3.12185 0
M  V30 1726 H 163.282 -4.53691 -2.49769 0
M  V30 1727 H 159.959 -2.18417 -3.55809 0
M  V30 1728 H 161.349 -6.13983 -2.72899 0
M  V30 1729 N 164.069 0.697108 -1.41344 0
M  V30 1730 C 165.001 1.8224 -1.39001 0
M  V30 1731 C 166.014 1.60152 -0.292428 0
M  V30 1732 O 167.203 1.69684 -0.554048 0
M  V30 1733 C 164.303 3.18976 -1.14489 0
M  V30 1734 C 163.476 3.68105 -2.36258 0
M  V30 1735 C 162.535 4.83506 -2.07625 0
M  V30 1736 O 161.561 4.95201 -2.8065 0
M  V30 1737 N 162.763 5.70637 -1.06555 0
M  V30 1738 H 165.528 1.84742 -2.35988 0
M  V30 1739 H 163.089 0.87937 -1.35936 0
M  V30 1740 H 165.081 3.93801 -0.932885 0
M  V30 1741 H 163.651 3.11508 -0.261043 0
M  V30 1742 H 162.871 2.84204 -2.7317 0
M  V30 1743 H 164.159 3.97667 -3.17393 0
M  V30 1744 H 163.557 5.63817 -0.461125 0
M  V30 1745 H 162.114 6.45368 -0.913444 0
M  V30 1746 N 165.547 1.27147 0.931209 0
M  V30 1747 C 166.479 1.05364 2.03546 0
M  V30 1748 C 167.492 0.0108438 1.62796 0
M  V30 1749 O 168.681 0.25202 1.76712 0
M  V30 1750 C 165.781 0.575566 3.33977 0
M  V30 1751 C 164.954 1.68985 4.03439 0
M  V30 1752 C 164.013 1.20813 5.12143 0
M  V30 1753 O 163.039 1.90712 5.363 0
M  V30 1754 N 164.241 0.0618851 5.80467 0
M  V30 1755 H 167.006 2.00454 2.22796 0
M  V30 1756 H 164.567 1.18666 1.10136 0
M  V30 1757 H 166.559 0.237264 4.04004 0
M  V30 1758 H 165.129 -0.282016 3.11325 0
M  V30 1759 H 164.349 2.19861 3.27192 0
M  V30 1760 H 165.637 2.4378 4.46597 0
M  V30 1761 H 165.035 -0.521621 5.6329 0
M  V30 1762 H 163.592 -0.217264 6.51438 0
M  V30 1763 N 167.025 -1.13721 1.09112 0
M  V30 1764 C 167.958 -2.18094 0.67158 0
M  V30 1765 C 168.936 -1.59414 -0.320299 0
M  V30 1766 O 170.12 -1.87183 -0.222444 0
M  V30 1767 C 167.247 -3.38698 -0.0111189 0
M  V30 1768 C 166.293 -4.15966 0.942055 0
M  V30 1769 S 167.126 -4.7604 2.45246 0
M  V30 1770 C 168.282 -5.99994 1.78208 0
M  V30 1771 H 168.515 -2.53344 1.55577 0
M  V30 1772 H 166.048 -1.24967 0.906789 0
M  V30 1773 H 168.006 -4.08559 -0.398716 0
M  V30 1774 H 166.667 -3.01756 -0.871905 0
M  V30 1775 H 165.86 -5.02318 0.411396 0
M  V30 1776 H 165.462 -3.51745 1.2709 0
M  V30 1777 H 167.754 -6.68441 1.10424 0
M  V30 1778 H 168.697 -6.57662 2.62463 0
M  V30 1779 H 169.105 -5.50432 1.25238 0
M  V30 1780 N 168.503 -0.877838 -1.30888 0
M  V30 1781 C 169.728 -0.506629 -2.01117 0
M  V30 1782 C 170.153 0.895564 -1.65412 0
M  V30 1783 O 169.511 1.5923 -0.866922 0
M  V30 1784 C 169.559 -0.680223 -3.54126 0
M  V30 1785 O 168.663 0.277033 -4.11468 0
M  V30 1786 H 168.004 -0.200518 -0.633 0
M  V30 1787 H 170.534 -1.18342 -1.66902 0
M  V30 1788 H 170.544 -0.5765 -4.03907 0
M  V30 1789 H 169.219 -1.70261 -3.79452 0
M  V30 1790 H 167.796 0.127606 -3.72682 0
M  V30 1791 N 169.982 1.44106 -0.638065 0
M  V30 1792 C 170.892 2.34513 0.0637334 0
M  V30 1793 C 171.908 1.53018 0.828346 0
M  V30 1794 O 173.084 1.85723 0.779036 0
M  V30 1795 C 170.149 3.31095 1.02844 0
M  V30 1796 C 169.21 4.28497 0.26244 0
M  V30 1797 C 168.443 5.20465 1.1812 0
M  V30 1798 O 168.666 5.16514 2.42011 0
M  V30 1799 O 167.6 5.98251 0.661774 0
M  V30 1800 H 171.426 2.95989 -0.68003 0
M  V30 1801 H 169.011 1.43994 -0.398252 0
M  V30 1802 H 170.893 3.90526 1.58327 0
M  V30 1803 H 169.568 2.72144 1.7527 0
M  V30 1804 H 168.475 3.72592 -0.335602 0
M  V30 1805 H 169.808 4.90388 -0.421936 0
M  V30 1806 N 171.46 0.379036 1.52974 0
M  V30 1807 C 172.707 -0.206421 2.01445 0
M  V30 1808 C 173.035 -1.47668 1.26587 0
M  V30 1809 O 172.29 -1.92514 0.351675 0
M  V30 1810 C 172.589 -0.53096 3.53434 0
M  V30 1811 C 172.255 0.646546 4.46241 0
M  V30 1812 C 170.917 0.969604 4.7133 0
M  V30 1813 C 173.269 1.43479 5.01062 0
M  V30 1814 C 170.597 2.08263 5.48492 0
M  V30 1815 C 172.949 2.53834 5.7944 0
M  V30 1816 C 171.613 2.86659 6.02812 0
M  V30 1817 H 170.883 -0.0755349 0.73714 0
M  V30 1818 H 173.53 0.514271 1.84465 0
M  V30 1819 H 171.835 -1.33285 3.68432 0
M  V30 1820 H 173.532 -0.996417 3.88423 0
M  V30 1821 H 170.122 0.384734 4.2687 0
M  V30 1822 H 174.306 1.19844 4.81613 0
M  V30 1823 H 169.562 2.34078 5.64816 0
M  V30 1824 H 173.736 3.15319 6.20924 0
M  V30 1825 H 171.363 3.73026 6.62387 0
M  V30 1826 N 172.938 -1.57226 0.108567 0
M  V30 1827 C 173.868 -2.17778 -0.84232 0
M  V30 1828 C 174.849 -1.11487 -1.2847 0
M  V30 1829 O 176.034 -1.39681 -1.34918 0
M  V30 1830 C 173.164 -2.76888 -2.09644 0
M  V30 1831 C 172.118 -3.88669 -1.79221 0
M  V30 1832 C 171.444 -4.34541 -3.11574 0
M  V30 1833 C 172.744 -5.11251 -1.06864 0
M  V30 1834 H 174.438 -2.97489 -0.337774 0
M  V30 1835 H 171.984 -1.43097 -0.161025 0
M  V30 1836 H 173.937 -3.17904 -2.76614 0
M  V30 1837 H 172.661 -1.94451 -2.62405 0
M  V30 1838 H 171.32 -3.48213 -1.14644 0
M  V30 1839 H 170.968 -3.48977 -3.62249 0
M  V30 1840 H 170.668 -5.09914 -2.91996 0
M  V30 1841 H 172.192 -4.782 -3.7968 0
M  V30 1842 H 173.606 -5.49352 -1.63968 0
M  V30 1843 H 172.003 -5.9214 -0.974178 0
M  V30 1844 H 173.073 -4.8487 -0.0536168 0
M  V30 1845 N 174.416 0.165178 -1.56732 0
M  V30 1846 C 175.366 1.20917 -1.93295 0
M  V30 1847 C 176.35 1.39488 -0.801985 0
M  V30 1848 O 177.542 1.41356 -1.06525 0
M  V30 1849 C 174.671 2.54718 -2.3016 0
M  V30 1850 C 173.757 2.39815 -3.49785 0
M  V30 1851 N 174.148 1.94637 -4.66851 0
M  V30 1852 C 172.446 2.70623 -3.54513 0
M  V30 1853 C 173.147 1.92344 -5.4898 0
M  V30 1854 N 172.123 2.34978 -4.9019 0
M  V30 1855 H 175.925 0.851675 -2.81289 0
M  V30 1856 H 173.439 0.373399 -1.58049 0
M  V30 1857 H 175.436 3.30165 -2.54552 0
M  V30 1858 H 174.096 2.91265 -1.43508 0
M  V30 1859 H 175.107 1.6488 -4.90953 0
M  V30 1860 H 171.784 3.11167 -2.78354 0
M  V30 1861 H 173.174 1.5906 -6.52801 0
M  V30 1862 N 175.894 1.51508 0.433938 0
M  V30 1863 C 176.826 1.69266 1.54537 0
M  V30 1864 C 177.839 0.573276 1.52373 0
M  V30 1865 O 179.028 0.847698 1.57087 0
M  V30 1866 C 176.128 1.69524 2.93453 0
M  V30 1867 C 175.301 2.98101 3.20085 0
M  V30 1868 C 174.36 2.90502 4.38742 0
M  V30 1869 O 173.386 3.64442 4.3723 0
M  V30 1870 N 174.588 2.06586 5.42496 0
M  V30 1871 H 177.353 2.65145 1.39708 0
M  V30 1872 H 174.914 1.49437 0.622922 0
M  V30 1873 H 176.906 1.62004 3.70859 0
M  V30 1874 H 175.476 0.812245 3.01863 0
M  V30 1875 H 174.696 3.19464 2.30947 0
M  V30 1876 H 175.984 3.83207 3.34708 0
M  V30 1877 H 175.382 1.45896 5.46563 0
M  V30 1878 H 173.939 2.04943 6.18742 0
M  V30 1879 N 177.372 -0.689602 1.41712 0
M  V30 1880 C 178.597 -1.48329 1.44959 0
M  V30 1881 C 179.022 -1.8801 0.0581283 0
M  V30 1882 O 178.38 -1.55026 -0.940035 0
M  V30 1883 C 178.428 -2.71835 2.36935 0
M  V30 1884 O 177.532 -3.69549 1.8305 0
M  V30 1885 H 176.873 -0.446199 0.491734 0
M  V30 1886 H 179.403 -0.847127 1.86239 0
M  V30 1887 H 179.413 -3.20076 2.53013 0
M  V30 1888 H 178.088 -2.42291 3.38035 0
M  V30 1889 H 176.665 -3.2851 1.76452 0
M  V30 1890 N 178.85 -1.27639 -0.924453 0
M  V30 1891 C 179.797 -1.10644 -2.0255 0
M  V30 1892 C 180.767 -0.00658438 -1.66099 0
M  V30 1893 O 181.952 -0.16952 -1.90045 0
M  V30 1894 C 179.092 -0.76309 -3.36557 0
M  V30 1895 C 178.205 -1.94091 -3.85944 0
M  V30 1896 C 177.34 -1.53914 -5.08413 0
M  V30 1897 C 176.379 -2.68425 -5.50104 0
M  V30 1898 N 175.516 -2.28815 -6.63768 0
M  V30 1899 H 180.356 -2.04858 -2.16419 0
M  V30 1900 H 177.893 -1.01974 -1.06017 0
M  V30 1901 H 179.851 -0.544822 -4.13627 0
M  V30 1902 H 178.481 0.142102 -3.22487 0
M  V30 1903 H 177.533 -2.27162 -3.05125 0
M  V30 1904 H 178.845 -2.7998 -4.12811 0
M  V30 1905 H 177.999 -1.28231 -5.92994 0
M  V30 1906 H 176.738 -0.651391 -4.8333 0
M  V30 1907 H 175.743 -2.94819 -4.64071 0
M  V30 1908 H 176.968 -3.57826 -5.7718 0
M  V30 1909 H 174.914 -1.42495 -6.40337 0
M  V30 1910 H 174.831 -3.08242 -6.90306 0
M  V30 1911 H 176.099 -2.06387 -7.51681 0
M  V30 1912 N 180.328 1.1314 -1.09713 0
M  V30 1913 C 181.258 2.20748 -0.761102 0
M  V30 1914 C 182.239 1.68061 0.262566 0
M  V30 1915 O 183.424 1.93765 0.129977 0
M  V30 1916 C 180.554 3.46812 -0.184054 0
M  V30 1917 C 179.508 4.12606 -1.13757 0
M  V30 1918 C 178.834 5.33031 -0.422083 0
M  V30 1919 C 180.134 4.59603 -2.48118 0
M  V30 1920 H 181.828 2.49113 -1.66082 0
M  V30 1921 H 179.374 1.19734 -0.799987 0
M  V30 1922 H 181.327 4.21353 0.0631215 0
M  V30 1923 H 180.051 3.17851 0.750868 0
M  V30 1924 H 178.71 3.40036 -1.37007 0
M  V30 1925 H 178.358 5.00335 0.517072 0
M  V30 1926 H 178.058 5.77999 -1.05788 0
M  V30 1927 H 179.582 6.10325 -0.183277 0
M  V30 1928 H 180.996 5.25552 -2.29059 0
M  V30 1929 H 179.393 5.15321 -3.07514 0
M  V30 1930 H 180.463 3.73971 -3.08665 0
M  V30 1931 N 181.806 0.884767 1.30421 0
M  V30 1932 C 182.738 0.308655 2.27112 0
M  V30 1933 C 183.751 -0.536655 1.53701 0
M  V30 1934 O 184.94 -0.35624 1.74909 0
M  V30 1935 C 182.04 -0.579782 3.33904 0
M  V30 1936 C 181.213 0.236417 4.36761 0
M  V30 1937 C 180.272 -0.582482 5.22966 0
M  V30 1938 O 179.298 -0.00525502 5.692 0
M  V30 1939 N 180.5 -1.89163 5.48815 0
M  V30 1940 H 183.265 1.13964 2.77186 0
M  V30 1941 H 180.826 0.747731 1.43599 0
M  V30 1942 H 182.818 -1.13366 3.88497 0
M  V30 1943 H 181.388 -1.31144 2.83761 0
M  V30 1944 H 180.608 0.97174 3.82035 0
M  V30 1945 H 181.896 0.795924 5.02536 0
M  V30 1946 H 181.294 -2.38352 5.13035 0
M  V30 1947 H 179.851 -2.39296 6.06284 0
M  V30 1948 N 183.284 -1.43765 0.645699 0
M  V30 1949 C 184.53 -2.02197 0.156271 0
M  V30 1950 C 184.863 -1.50776 -1.22393 0
M  V30 1951 O 184.138 -0.697771 -1.81553 0
M  V30 1952 C 184.421 -3.59749 0.158872 0
M  V30 1953 C 184.274 -4.21419 1.57245 0
M  V30 1954 C 185.593 -4.37149 -0.50879 0
M  V30 1955 H 182.712 -0.734694 0.0582602 0
M  V30 1956 H 185.354 -1.71157 0.824951 0
M  V30 1957 H 183.504 -3.86325 -0.410525 0
M  V30 1958 H 185.176 -4.059 2.19186 0
M  V30 1959 H 183.419 -3.78356 2.122 0
M  V30 1960 H 184.09 -5.30482 1.52619 0
M  V30 1961 H 186.566 -4.16093 -0.024412 0
M  V30 1962 H 185.442 -5.4683 -0.476213 0
M  V30 1963 H 185.703 -4.12839 -1.58165 0
M  V30 1964 N 184.763 -0.387143 -1.52771 0
M  V30 1965 C 185.695 0.484089 -2.2403 0
M  V30 1966 C 186.708 1.02849 -1.26198 0
M  V30 1967 O 187.897 0.931186 -1.52286 0
M  V30 1968 C 184.997 1.68337 -2.94136 0
M  V30 1969 C 184.17 1.26672 -4.18656 0
M  V30 1970 C 183.229 2.33045 -4.7178 0
M  V30 1971 O 182.255 1.94541 -5.34923 0
M  V30 1972 N 183.457 3.64929 -4.5145 0
M  V30 1973 H 186.222 -0.126404 -2.99433 0
M  V30 1974 H 183.783 -0.213392 -1.60488 0
M  V30 1975 H 185.775 2.39019 -3.26577 0
M  V30 1976 H 184.345 2.20025 -2.22053 0
M  V30 1977 H 183.565 0.388878 -3.92277 0
M  V30 1978 H 184.853 0.964964 -4.99566 0
M  V30 1979 H 184.251 3.98974 -4.01044 0
M  V30 1980 H 182.808 4.31651 -4.88386 0
M  V30 1981 N 186.241 1.57166 -0.116904 0
M  V30 1982 C 187.466 1.999 0.55271 0
M  V30 1983 C 187.891 0.996039 1.59564 0
M  V30 1984 O 187.249 -0.032556 1.81271 0
M  V30 1985 C 187.297 3.4152 1.15742 0
M  V30 1986 O 186.401 3.44106 2.27299 0
M  V30 1987 H 185.742 0.649447 0.138258 0
M  V30 1988 H 188.272 2.03573 -0.204759 0
M  V30 1989 H 188.282 3.79684 1.49346 0
M  V30 1990 H 186.957 4.14034 0.393493 0
M  V30 1991 H 185.534 3.17759 1.9515 0
M  V30 1992 N 187.719 -0.156864 1.56817 0
M  V30 1993 C 188.669 -1.19891 1.93934 0
M  V30 1994 C 189.653 -1.39061 0.809372 0
M  V30 1995 O 190.845 -1.40789 1.07273 0
M  V30 1996 C 187.974 -2.53493 2.31508 0
M  V30 1997 C 187.06 -2.37957 3.51052 0
M  V30 1998 N 187.451 -1.92158 4.67877 0
M  V30 1999 C 185.749 -2.68739 3.55943 0
M  V30 2000 C 186.45 -1.8943 5.49992 0
M  V30 2001 N 185.426 -2.32375 4.91429 0
M  V30 2002 H 189.228 -0.836746 2.81737 0
M  V30 2003 H 186.742 -0.365012 1.58245 0
M  V30 2004 H 188.739 -3.28811 2.56299 0
M  V30 2005 H 187.399 -2.905 1.45051 0
M  V30 2006 H 188.41 -1.62274 4.91821 0
M  V30 2007 H 185.087 -3.09687 2.80001 0
M  V30 2008 H 186.477 -1.55596 6.53636 0
M  V30 2009 N 189.197 -1.51736 -0.425897 0
M  V30 2010 C 190.444 -1.6497 -1.17436 0
M  V30 2011 C 190.772 -0.371445 -1.9092 0
M  V30 2012 O 190.027 0.644963 -1.84767 0
M  V30 2013 C 190.326 -2.81103 -2.20717 0
M  V30 2014 C 189.992 -4.19954 -1.64162 0
M  V30 2015 C 188.654 -4.57725 -1.48462 0
M  V30 2016 C 191.006 -5.06552 -1.22696 0
M  V30 2017 C 188.334 -5.79789 -0.897873 0
M  V30 2018 C 190.686 -6.29205 -0.654464 0
M  V30 2019 C 189.35 -6.6574 -0.484456 0
M  V30 2020 H 188.62 -0.603668 -0.429727 0
M  V30 2021 H 191.267 -1.85798 -0.463829 0
M  V30 2022 H 189.572 -2.54542 -2.97852 0
M  V30 2023 H 191.269 -2.8854 -2.78471 0
M  V30 2024 H 187.859 -3.90181 -1.77361 0
M  V30 2025 H 192.043 -4.77968 -1.33642 0
M  V30 2026 H 187.299 -6.06733 -0.75402 0
M  V30 2027 H 191.473 -6.95643 -0.324694 0
M  V30 2028 H 189.1 -7.60195 -0.0276833 0
M  V30 2029 N 190.675 0.682077 -1.42076 0
M  V30 2030 C 192.086 1.26246 -1.37546 0
M  V30 2031 C 192.437 1.96092 -0.0651481 0
M  V30 2032 O 191.562 1.99587 0.836297 0
M  V30 2033 C 192.157 2.29594 -2.49143 0
M  V30 2034 C 190.716 2.83175 -2.47969 0
M  V30 2035 C 189.863 1.57395 -2.28303 0
M  V30 2036 H 192.814 0.475937 -1.51395 0
M  V30 2037 H 192.835 3.11175 -2.18976 0
M  V30 2038 H 192.347 1.78729 -3.44496 0
M  V30 2039 H 190.448 3.3818 -1.56413 0
M  V30 2040 H 190.561 3.32687 -3.44755 0
M  V30 2041 H 188.925 1.83699 -1.76428 0
M  V30 2042 H 189.708 1.08507 -3.25701 0
M  V30 2043 N 192.153 1.28127 0.917671 0
M  V30 2044 C 193.063 1.13556 2.05286 0
M  V30 2045 C 194.079 0.0630914 1.73886 0
M  V30 2046 O 195.255 0.271598 1.9956 0
M  V30 2047 C 192.32 0.794676 3.3747 0
M  V30 2048 C 191.381 1.94909 3.82504 0
M  V30 2049 C 190.614 1.62437 5.0838 0
M  V30 2050 O 190.837 0.536905 5.67867 0
M  V30 2051 O 189.771 2.46677 5.4903 0
M  V30 2052 H 193.597 2.08844 2.20495 0
M  V30 2053 H 191.182 1.07409 1.03845 0
M  V30 2054 H 193.064 0.618344 4.16839 0
M  V30 2055 H 191.739 -0.128581 3.23445 0
M  V30 2056 H 190.646 2.18055 3.03978 0
M  V30 2057 H 191.979 2.85291 4.01086 0
M  V30 2058 N 193.631 -1.12557 1.10312 0
M  V30 2059 C 195.042 -1.65574 0.862678 0
M  V30 2060 C 195.393 -1.86566 -0.607256 0
M  V30 2061 O 194.518 -1.59121 -1.46662 0
M  V30 2062 C 195.113 -3.00776 1.55947 0
M  V30 2063 C 193.672 -3.50748 1.36576 0
M  V30 2064 C 192.819 -2.25797 1.60968 0
M  V30 2065 H 195.77 -0.963552 1.26101 0
M  V30 2066 H 195.791 -3.67185 0.997753 0
M  V30 2067 H 195.303 -2.85465 2.62928 0
M  V30 2068 H 193.404 -3.71245 0.317531 0
M  V30 2069 H 193.517 -4.30289 2.10686 0
M  V30 2070 H 191.881 -2.32841 1.03234 0
M  V30 2071 H 192.664 -2.13043 2.69198 0
M  V30 2072 N 195.109 -0.891671 -1.2995 0
M  V30 2073 C 196.072 -0.36828 -2.26222 0
M  V30 2074 C 197.072 0.493014 -1.53056 0
M  V30 2075 O 198.262 0.299213 -1.71611 0
M  V30 2076 C 195.394 0.47442 -3.37583 0
M  V30 2077 H 196.587 -1.21844 -2.74033 0
M  V30 2078 H 194.14 -0.669107 -1.41254 0
M  V30 2079 H 194.875 1.34489 -2.95099 0
M  V30 2080 H 194.66 -0.142615 -3.91841 0
M  V30 2081 H 196.15 0.83218 -4.09224 0
M  V30 2082 N 196.587 1.43421 -0.653314 0
M  V30 2083 C 197.864 1.95361 -0.0966581 0
M  V30 2084 C 198.244 1.59461 1.38331 0
M  V30 2085 O 197.592 0.879777 2.10884 0
M  V30 2086 C 197.802 3.47311 -0.342988 0
M  V30 2087 C 199.15 4.23875 -0.24798 0
M  V30 2088 O 200.174 3.55133 -0.275553 0
M  V30 2089 O 199.033 5.4623 -0.171771 0
M  V30 2090 H 196.127 0.826945 0.00956291 0
M  V30 2091 H 198.673 1.5336 -0.726558 0
M  V30 2092 H 197.445 3.66569 -1.36906 0
M  V30 2093 H 197.068 3.9631 0.319975 0
M  V30 2094 N 198.065 0.39524 1.52563 0
M  V30 2095 C 199.015 -0.4541 2.23432 0
M  V30 2096 C 199.999 -1.02482 1.24042 0
M  V30 2097 O 201.191 -0.949938 1.49349 0
M  V30 2098 C 198.32 -1.57769 3.049 0
M  V30 2099 C 197.406 -1.01842 4.1169 0
M  V30 2100 N 197.797 -0.184613 5.05463 0
M  V30 2101 C 196.095 -1.29033 4.26927 0
M  V30 2102 C 196.796 0.125013 5.81566 0
M  V30 2103 N 195.772 -0.480498 5.41472 0
M  V30 2104 H 199.574 0.189413 2.93289 0
M  V30 2105 H 197.088 0.204877 1.61102 0
M  V30 2106 H 199.085 -2.19862 3.54212 0
M  V30 2107 H 197.745 -2.22397 2.36579 0
M  V30 2108 H 198.756 0.178602 5.17592 0
M  V30 2109 H 195.433 -1.93721 3.69836 0
M  V30 2110 H 196.823 0.800962 6.67109 0
M  V30 2111 N 199.544 -1.57102 0.125237 0
M  V30 2112 C 200.474 -2.18659 -0.819174 0
M  V30 2113 C 201.455 -1.12843 -1.27281 0
M  V30 2114 O 202.64 -1.41104 -1.33429 0
M  V30 2115 C 199.77 -2.79096 -2.06695 0
M  V30 2116 C 198.724 -3.90548 -1.75088 0
M  V30 2117 C 198.05 -4.37821 -3.06948 0
M  V30 2118 C 199.35 -5.12356 -1.01435 0
M  V30 2119 H 201.044 -2.9783 -0.306202 0
M  V30 2120 H 198.59 -1.4326 -0.145839 0
M  V30 2121 H 200.543 -3.2082 -2.73226 0
M  V30 2122 H 199.267 -1.97223 -2.60328 0
M  V30 2123 H 197.926 -3.49409 -1.10944 0
M  V30 2124 H 197.574 -3.52799 -3.58527 0
M  V30 2125 H 197.274 -5.12982 -2.86571 0
M  V30 2126 H 198.798 -4.822 -3.74587 0
M  V30 2127 H 200.212 -5.5106 -1.58132 0
M  V30 2128 H 198.609 -5.9314 -0.911319 0
M  V30 2129 H 199.679 -4.849 -0.00218681 0
M  V30 2130 N 201.022 0.148545 -1.56898 0
M  V30 2131 C 201.985 1.16736 -1.97244 0
M  V30 2132 C 202.985 1.35947 -0.858777 0
M  V30 2133 O 204.175 1.32966 -1.12542 0
M  V30 2134 C 201.307 2.52798 -2.28705 0
M  V30 2135 H 202.5 0.821279 -2.88435 0
M  V30 2136 H 200.053 0.391831 -1.51309 0
M  V30 2137 H 200.788 2.92381 -1.403 0
M  V30 2138 H 200.573 2.40216 -3.09901 0
M  V30 2139 H 202.063 3.26179 -2.60762 0
M  V30 2140 N 202.5 1.5196 0.417844 0
M  V30 2141 C 203.746 1.65836 1.16732 0
M  V30 2142 C 204.079 0.382881 1.90388 0
M  V30 2143 O 203.354 -0.618368 1.84408 0
M  V30 2144 C 203.637 2.87466 2.16876 0
M  V30 2145 C 203.49 4.25041 1.47174 0
M  V30 2146 C 204.809 3.04613 3.17646 0
M  V30 2147 H 201.928 0.603515 0.423011 0
M  V30 2148 H 204.57 1.84494 0.454105 0
M  V30 2149 H 202.72 2.71689 2.777 0
M  V30 2150 H 204.392 4.52527 0.895376 0
M  V30 2151 H 202.635 4.26843 0.773806 0
M  V30 2152 H 203.306 5.06176 2.20204 0
M  V30 2153 H 205.782 3.1923 2.66892 0
M  V30 2154 H 204.658 3.91247 3.8499 0
M  V30 2155 H 204.919 2.17541 3.84874 0
M  V30 2156 N 203.978 -0.674533 1.42435 0
M  V30 2157 C 204.911 -1.79924 1.40366 0
M  V30 2158 C 205.889 -1.60378 0.267899 0
M  V30 2159 O 207.073 -1.82847 0.458159 0
M  V30 2160 C 204.2 -3.16927 1.19478 0
M  V30 2161 C 203.246 -3.55221 2.36051 0
M  V30 2162 S 204.079 -3.5762 3.98583 0
M  V30 2163 C 205.235 -4.97315 3.80038 0
M  V30 2164 H 205.468 -1.81405 2.35541 0
M  V30 2165 H 203.001 -0.845221 1.29211 0
M  V30 2166 H 204.959 -3.96007 1.08114 0
M  V30 2167 H 203.62 -3.13031 0.258883 0
M  V30 2168 H 202.813 -4.54804 2.17185 0
M  V30 2169 H 202.415 -2.83502 2.43932 0
M  V30 2170 H 204.707 -5.85401 3.41045 0
M  V30 2171 H 205.65 -5.21228 4.79298 0
M  V30 2172 H 206.058 -4.69845 3.12899 0
M  V30 2173 N 205.456 -1.28612 -0.910864 0
M  V30 2174 C 206.386 -1.15326 -2.03032 0
M  V30 2175 C 207.367 -0.0502924 -1.70026 0
M  V30 2176 O 208.552 -0.227797 -1.92859 0
M  V30 2177 C 205.682 -0.817343 -3.37545 0
M  V30 2178 C 204.636 -1.8754 -3.84724 0
M  V30 2179 C 203.962 -1.39305 -5.16235 0
M  V30 2180 C 205.262 -3.28244 -4.06267 0
M  V30 2181 H 206.956 -2.08975 -2.14406 0
M  V30 2182 H 204.502 -1.00612 -1.03021 0
M  V30 2183 H 206.455 -0.711151 -4.15356 0
M  V30 2184 H 205.179 0.154846 -3.26233 0
M  V30 2185 H 203.838 -1.97079 -3.09121 0
M  V30 2186 H 203.486 -0.409846 -5.01328 0
M  V30 2187 H 203.186 -2.10057 -5.48771 0
M  V30 2188 H 204.71 -1.30014 -5.96598 0
M  V30 2189 H 206.124 -3.21611 -4.74594 0
M  V30 2190 H 204.521 -3.96855 -4.5014 0
M  V30 2191 H 205.591 -3.72048 -3.10979 0
M  V30 2192 N 206.934 1.1197 -1.10907 0
M  V30 2193 C 207.897 2.16031 -0.765707 0
M  V30 2194 C 208.897 1.59393 0.212235 0
M  V30 2195 O 210.087 1.74196 -0.0115441 0
M  V30 2196 C 207.219 3.40632 -0.135053 0
M  V30 2197 H 208.412 2.47919 -1.68748 0
M  V30 2198 H 205.965 1.27061 -0.910226 0
M  V30 2199 H 206.7 3.14348 0.797218 0
M  V30 2200 H 206.485 3.8302 -0.838937 0
M  V30 2201 H 207.975 4.17505 0.0892469 0
M  V30 2202 N 208.412 0.89855 1.29475 0
M  V30 2203 C 209.642 0.538479 1.99459 0
M  V30 2204 C 210.05 -0.880922 1.67441 0
M  V30 2205 O 209.393 -1.59283 0.915127 0
M  V30 2206 C 209.455 0.649564 3.53583 0
M  V30 2207 C 209.119 2.03573 4.09154 0
M  V30 2208 C 210.116 3.00675 4.24135 0
M  V30 2209 C 207.801 2.3448 4.44212 0
M  V30 2210 C 209.795 4.26809 4.73405 0
M  V30 2211 C 207.482 3.60857 4.93179 0
M  V30 2212 C 208.48 4.56836 5.0773 0
M  V30 2213 O 208.168 5.80969 5.55635 0
M  V30 2214 H 207.9 0.205372 0.644048 0
M  V30 2215 H 210.454 1.20958 1.66007 0
M  V30 2216 H 208.684 -0.0785592 3.8662 0
M  V30 2217 H 210.373 0.29881 4.04799 0
M  V30 2218 H 211.139 2.78112 3.97339 0
M  V30 2219 H 207.018 1.60534 4.32145 0
M  V30 2220 H 210.562 5.0173 4.84678 0
M  V30 2221 H 206.459 3.83251 5.19412 0
M  V30 2222 H 207.227 5.83542 5.73952 0
M  V30 2223 N 209.89 -1.43072 0.660911 0
M  V30 2224 C 210.823 -2.28074 -0.0758862 0
M  V30 2225 C 211.801 -1.40271 -0.822362 0
M  V30 2226 O 212.985 -1.69713 -0.820352 0
M  V30 2227 C 210.112 -3.19843 -1.11437 0
M  V30 2228 C 209.158 -4.23957 -0.465069 0
M  V30 2229 S 209.991 -5.29978 0.767078 0
M  V30 2230 C 211.147 -6.25314 -0.270682 0
M  V30 2231 H 211.38 -2.90216 0.645139 0
M  V30 2232 H 208.913 -1.47697 0.449995 0
M  V30 2233 H 210.871 -3.73257 -1.70849 0
M  V30 2234 H 209.532 -2.56863 -1.80776 0
M  V30 2235 H 208.725 -4.88299 -1.24819 0
M  V30 2236 H 208.327 -3.73959 0.0551242 0
M  V30 2237 H 210.619 -6.67932 -1.13459 0
M  V30 2238 H 211.562 -7.07293 0.337916 0
M  V30 2239 H 211.97 -5.61195 -0.609937 0
M  V30 2240 N 211.368 -0.403325 -1.52352 0
M  V30 2241 C 212.331 0.413051 -2.25447 0
M  V30 2242 C 213.331 0.978513 -1.276 0
M  V30 2243 O 214.521 0.858305 -1.51587 0
M  V30 2244 C 211.653 1.58087 -3.02029 0
M  V30 2245 H 212.846 -0.227094 -2.99039 0
M  V30 2246 H 210.399 -0.155722 -1.55522 0
M  V30 2247 H 211.134 2.25804 -2.32772 0
M  V30 2248 H 210.919 1.18195 -3.73861 0
M  V30 2249 H 212.409 2.1585 -3.57489 0
M  V30 2250 N 212.846 1.57033 -0.133567 0
M  V30 2251 C 213.796 2.12641 0.822671 0
M  V30 2252 C 214.78 1.05081 1.21847 0
M  V30 2253 O 215.972 1.31287 1.18713 0
M  V30 2254 C 213.101 2.74094 2.06706 0
M  V30 2255 C 212.187 3.88757 1.69497 0
M  V30 2256 N 212.578 4.95194 1.03037 0
M  V30 2257 C 210.876 3.99213 1.98859 0
M  V30 2258 C 211.577 5.75414 0.852873 0
M  V30 2259 N 210.553 5.25726 1.3825 0
M  V30 2260 H 214.355 2.92308 0.305537 0
M  V30 2261 H 211.869 1.62256 0.0684276 0
M  V30 2262 H 213.866 3.12285 2.76195 0
M  V30 2263 H 212.526 1.95896 2.5895 0
M  V30 2264 H 213.537 5.13247 0.692669 0
M  V30 2265 H 210.214 3.32075 2.53047 0
M  V30 2266 H 211.604 6.71089 0.330091 0
M  V30 2267 N 214.325 -0.140222 1.56975 0
M  V30 2268 C 215.255 -1.17456 2.01808 0
M  V30 2269 C 216.236 -1.44415 0.898794 0
M  V30 2270 O 217.421 -1.5522 1.16707 0
M  V30 2271 C 214.551 -2.50607 2.40444 0
M  V30 2272 C 213.505 -2.38155 3.55621 0
M  V30 2273 C 212.831 -3.76078 3.80091 0
M  V30 2274 C 214.131 -1.85991 4.88062 0
M  V30 2275 H 215.825 -0.801743 2.88466 0
M  V30 2276 H 213.371 -0.38422 1.38779 0
M  V30 2277 H 215.324 -3.23197 2.7041 0
M  V30 2278 H 214.048 -2.89737 1.50732 0
M  V30 2279 H 212.707 -1.68016 3.25832 0
M  V30 2280 H 212.355 -4.12656 2.87618 0
M  V30 2281 H 212.055 -3.68606 4.57606 0
M  V30 2282 H 213.579 -4.50206 4.12488 0
M  V30 2283 H 214.993 -2.4838 5.16701 0
M  V30 2284 H 213.39 -1.89393 5.6943 0
M  V30 2285 H 214.46 -0.816023 4.77984 0
M  V30 2286 N 215.803 -1.52179 -0.40978 0
M  V30 2287 C 217.05 -1.66206 -1.15679 0
M  V30 2288 C 217.378 -0.391674 -1.90516 0
M  V30 2289 O 216.633 0.62533 -1.8544 0
M  V30 2290 C 216.932 -2.83428 -2.17723 0
M  V30 2291 C 216.598 -4.21672 -1.59699 0
M  V30 2292 C 215.26 -4.59274 -1.43599 0
M  V30 2293 C 217.612 -5.07825 -1.17317 0
M  V30 2294 C 214.94 -5.80709 -0.836328 0
M  V30 2295 C 217.292 -6.29864 -0.587691 0
M  V30 2296 C 215.956 -6.66216 -0.413818 0
M  V30 2297 H 215.226 -0.608192 -0.423301 0
M  V30 2298 H 217.873 -1.86279 -0.444097 0
M  V30 2299 H 216.178 -2.57687 -2.95135 0
M  V30 2300 H 217.875 -2.91477 -2.75394 0
M  V30 2301 H 214.465 -3.9204 -1.73213 0
M  V30 2302 H 218.649 -4.79359 -1.28565 0
M  V30 2303 H 213.905 -6.07498 -0.689626 0
M  V30 2304 H 218.079 -6.95948 -0.250894 0
M  V30 2305 H 215.706 -7.60182 0.0529471 0
M  V30 2306 N 217.281 0.66697 -1.42791 0
M  V30 2307 C 218.521 1.43892 -1.4517 0
M  V30 2308 C 218.885 1.91877 -0.0687551 0
M  V30 2309 O 220.086 2.6878 0.0327455 0
M  V30 2310 C 218.357 2.59839 -2.45395 0
M  V30 2311 S 219.916 3.48572 -2.66539 0
M  V30 2312 H 216.734 0.491356 -0.513897 0
M  V30 2313 H 219.336 0.775656 -1.79454 0
M  V30 2314 H 218.04 2.22838 -3.44632 0
M  V30 2315 H 217.571 3.3103 -2.12562 0
M  V30 2316 H 219.586 4.56094 -1.95429 0
M  V30 2317 N 218.759 1.29093 0.90403 0
M  V30 2318 C 219.709 1.10482 1.99443 0
M  V30 2319 C 220.693 0.0255401 1.6088 0
M  V30 2320 O 221.885 0.24677 1.75271 0
M  V30 2321 C 219.014 0.778882 3.34348 0
M  V30 2322 C 218.1 1.89749 3.79284 0
M  V30 2323 N 218.491 3.14045 3.96497 0
M  V30 2324 C 216.789 1.78955 4.08523 0
M  V30 2325 C 217.49 3.86996 4.34292 0
M  V30 2326 N 216.466 3.14909 4.43095 0
M  V30 2327 H 220.268 2.04778 2.10815 0
M  V30 2328 H 217.782 1.20155 1.09255 0
M  V30 2329 H 219.779 0.62661 4.12164 0
M  V30 2330 H 218.439 -0.156205 3.24324 0
M  V30 2331 H 219.45 3.49548 3.82148 0
M  V30 2332 H 216.127 0.926886 4.07081 0
M  V30 2333 H 217.517 4.93941 4.55491 0
M  V30 2334 N 220.237 -1.11381 1.11499 0
M  V30 2335 C 221.462 -1.87475 0.887019 0
M  V30 2336 C 221.887 -1.79639 -0.557796 0
M  V30 2337 O 221.245 -1.15924 -1.39396 0
M  V30 2338 C 221.293 -3.34213 1.35403 0
M  V30 2339 O 220.397 -4.0903 0.526146 0
M  V30 2340 H 219.738 -0.582099 0.319463 0
M  V30 2341 H 222.268 -1.40785 1.48461 0
M  V30 2342 H 222.278 -3.8506 1.34881 0
M  V30 2343 H 220.953 -3.39232 2.40612 0
M  V30 2344 H 219.53 -3.68082 0.597522 0
M  V30 2345 N 221.715 -0.905404 -1.28997 0
M  V30 2346 C 222.625 -0.392246 -2.31298 0
M  V30 2347 C 223.641 0.515889 -1.66176 0
M  V30 2348 O 224.817 0.404093 -1.97304 0
M  V30 2349 C 221.882 0.36686 -3.44754 0
M  V30 2350 C 220.943 -0.573485 -4.25452 0
M  V30 2351 C 220.176 0.149488 -5.33491 0
M  V30 2352 O 220.399 1.37255 -5.5364 0
M  V30 2353 O 219.333 -0.510919 -5.99728 0
M  V30 2354 H 223.159 -1.2411 -2.77183 0
M  V30 2355 H 220.744 -0.669926 -1.33538 0
M  V30 2356 H 222.626 0.795907 -4.13816 0
M  V30 2357 H 221.301 1.19169 -3.00966 0
M  V30 2358 H 220.208 -1.05176 -3.59011 0
M  V30 2359 H 221.541 -1.36489 -4.72897 0
M  V30 2360 N 223.193 1.4272 -0.668489 0
M  V30 2361 C 224.141 2.32586 0.0254857 0
M  V30 2362 C 225.135 1.49471 0.797176 0
M  V30 2363 O 226.341 1.65583 0.705853 0
M  V30 2364 H 222.716 0.751514 0.0270339 0
M  V30 2365 H 224.687 2.88823 -0.749936 0
M  V30 2366 C 223.436 3.3397 0.967427 0
M  V30 2367 H 222.759 3.97961 0.383048 0
M  V30 2368 H 224.199 3.9945 1.42181 0
M  V30 2369 C 222.658 2.65744 2.0708 0
M  V30 2370 O 223.188 2.48454 3.15648 0
M  V30 2371 N 221.394 2.2487 1.8407 0
M  V30 2372 H 220.941 2.39132 0.95778 0
M  V30 2373 H 220.899 1.79552 2.58086 0
M  V30 2374 N 224.671 0.411399 1.52136 0
M  V30 2375 C 225.896 -0.165538 2.06738 0
M  V30 2376 C 226.321 -1.379 1.27926 0
M  V30 2377 O 225.679 -1.78628 0.310114 0
M  V30 2378 C 225.727 -0.492124 3.57226 0
M  V30 2379 O 224.831 -1.58276 3.80818 0
M  V30 2380 H 224.172 -0.0132132 0.663869 0
M  V30 2381 H 226.702 0.585253 1.96051 0
M  V30 2382 H 226.712 -0.750104 4.01045 0
M  V30 2383 H 225.387 0.394922 4.14021 0
M  V30 2384 H 223.964 -1.31677 3.48877 0
M  V30 2385 N 226.149 -1.5696 0.141893 0
M  V30 2386 C 227.395 -1.9625 -0.511248 0
M  V30 2387 C 227.728 -1.02654 -1.64851 0
M  V30 2388 O 227.003 -0.0679676 -1.94381 0
M  V30 2389 C 227.286 -3.45285 -1.02227 0
M  V30 2390 C 227.139 -4.49658 0.113138 0
M  V30 2391 C 228.458 -3.96698 -1.90574 0
M  V30 2392 H 225.577 -0.713567 -0.184367 0
M  V30 2393 H 228.219 -1.88698 0.222087 0
M  V30 2394 H 226.369 -3.51852 -1.64719 0
M  V30 2395 H 228.041 -4.55174 0.749302 0
M  V30 2396 H 226.284 -4.26857 0.773026 0
M  V30 2397 H 226.955 -5.51258 -0.286053 0
M  V30 2398 H 229.431 -3.92578 -1.37918 0
M  V30 2399 H 228.307 -5.01453 -2.2324 0
M  V30 2400 H 228.568 -3.3875 -2.84079 0
M  V30 2401 N 227.627 0.131896 -1.57047 0
M  V30 2402 C 228.559 1.1878 -1.9602 0
M  V30 2403 C 229.572 1.38363 -0.857875 0
M  V30 2404 O 230.761 1.37666 -1.13623 0
M  V30 2405 C 227.861 2.55008 -2.23213 0
M  V30 2406 C 227.034 2.56201 -3.54513 0
M  V30 2407 C 226.093 3.7408 -3.70069 0
M  V30 2408 O 225.119 3.58258 -4.42312 0
M  V30 2409 N 226.321 4.92137 -3.07866 0
M  V30 2410 H 229.086 0.85639 -2.87204 0
M  V30 2411 H 226.647 0.321309 -1.5868 0
M  V30 2412 H 228.639 3.32404 -2.30846 0
M  V30 2413 H 227.209 2.80382 -1.3822 0
M  V30 2414 H 226.429 1.64613 -3.58185 0
M  V30 2415 H 227.717 2.54043 -4.4084 0
M  V30 2416 H 227.115 5.07895 -2.49116 0
M  V30 2417 H 225.672 5.67254 -3.21039 0
M  V30 2418 N 229.106 1.52395 0.401703 0
M  V30 2419 C 230.036 1.79231 1.49661 0
M  V30 2420 C 231.017 0.643654 1.57452 0
M  V30 2421 O 232.202 0.889989 1.72606 0
M  V30 2422 C 229.332 1.94971 2.87409 0
M  V30 2423 C 228.286 3.10604 2.94465 0
M  V30 2424 C 227.612 3.11577 4.34538 0
M  V30 2425 C 228.912 4.49921 2.6527 0
M  V30 2426 H 230.606 2.70917 1.27454 0
M  V30 2427 H 228.152 1.30362 0.6117 0
M  V30 2428 H 230.105 2.12328 3.63999 0
M  V30 2429 H 228.829 0.999632 3.10926 0
M  V30 2430 H 227.488 2.93009 2.20321 0
M  V30 2431 H 227.136 2.14277 4.55076 0
M  V30 2432 H 226.836 3.89247 4.40183 0
M  V30 2433 H 228.36 3.31073 5.13053 0
M  V30 2434 H 229.774 4.67683 3.31581 0
M  V30 2435 H 228.171 5.29564 2.82281 0
M  V30 2436 H 229.241 4.57507 1.60671 0
M  V30 2437 N 230.584 -0.659388 1.43143 0
M  V30 2438 C 231.809 -1.45221 1.48073 0
M  V30 2439 C 232.234 -1.87845 0.097995 0
M  V30 2440 O 231.592 -1.56985 -0.90694 0
M  V30 2441 C 231.64 -2.66748 2.42647 0
M  V30 2442 O 230.744 -3.65583 1.90848 0
M  V30 2443 H 230.085 -0.435669 0.501088 0
M  V30 2444 H 232.615 -0.807432 1.87994 0
M  V30 2445 H 232.625 -3.14637 2.59745 0
M  V30 2446 H 231.3 -2.35067 3.43098 0
M  V30 2447 H 229.877 -3.24693 1.83381 0
M  V30 2448 N 232.062 -1.29571 -0.897171 0
M  V30 2449 C 233.309 -1.17689 -1.6479 0
M  V30 2450 C 233.637 0.27107 -1.92602 0
M  V30 2451 O 232.892 1.21193 -1.53658 0
M  V30 2452 C 233.191 -1.9382 -3.00281 0
M  V30 2453 C 232.857 -3.43522 -2.92068 0
M  V30 2454 C 231.519 -3.84348 -2.89535 0
M  V30 2455 C 233.871 -4.38906 -2.81089 0
M  V30 2456 C 231.199 -5.18869 -2.73846 0
M  V30 2457 C 233.551 -5.73521 -2.66939 0
M  V30 2458 C 232.215 -6.13601 -2.62774 0
M  V30 2459 H 231.485 -0.430654 -0.603008 0
M  V30 2460 H 234.132 -1.60536 -1.04404 0
M  V30 2461 H 232.437 -1.4357 -3.64547 0
M  V30 2462 H 234.134 -1.82028 -3.57305 0
M  V30 2463 H 230.724 -3.11072 -2.94842 0
M  V30 2464 H 234.908 -4.08315 -2.82121 0
M  V30 2465 H 230.164 -5.4903 -2.69027 0
M  V30 2466 H 234.338 -6.47078 -2.57416 0
M  V30 2467 H 231.965 -7.17786 -2.50375 0
M  V30 2468 N 233.54 1.10788 -1.12088 0
M  V30 2469 C 234.47 2.19083 -0.807755 0
M  V30 2470 C 235.451 1.6858 0.226859 0
M  V30 2471 O 236.636 1.93997 0.0888475 0
M  V30 2472 C 233.766 3.46344 -0.257576 0
M  V30 2473 C 232.72 4.101 -1.22483 0
M  V30 2474 C 232.046 5.32016 -0.535052 0
M  V30 2475 C 233.346 4.54236 -2.57811 0
M  V30 2476 H 235.04 2.45534 -1.71328 0
M  V30 2477 H 232.586 1.1801 -0.825205 0
M  V30 2478 H 234.539 4.21392 -0.0262679 0
M  V30 2479 H 233.263 3.19373 0.683278 0
M  V30 2480 H 231.922 3.37054 -1.44189 0
M  V30 2481 H 231.57 5.01319 0.410827 0
M  V30 2482 H 231.27 5.75625 -1.18024 0
M  V30 2483 H 232.794 6.09799 -0.312695 0
M  V30 2484 H 234.208 5.20575 -2.40155 0
M  V30 2485 H 232.605 5.08682 -3.18375 0
M  V30 2486 H 233.675 3.6734 -3.16528 0
M  V30 2487 N 235.018 0.912232 1.28515 0
M  V30 2488 C 235.95 0.35676 2.26406 0
M  V30 2489 C 236.963 -0.503933 1.54804 0
M  V30 2490 O 238.152 -0.319059 1.75625 0
M  V30 2491 C 235.252 -0.508825 3.35058 0
M  V30 2492 C 234.425 0.329007 4.36161 0
M  V30 2493 C 233.484 -0.471422 5.24084 0
M  V30 2494 O 232.51 0.115482 5.69083 0
M  V30 2495 N 233.712 -1.77479 5.52704 0
M  V30 2496 H 236.477 1.19818 2.74707 0
M  V30 2497 H 234.038 0.778022 1.4198 0
M  V30 2498 H 236.03 -1.051 3.90815 0
M  V30 2499 H 234.6 -1.25095 2.86478 0
M  V30 2500 H 233.82 1.05256 3.79888 0
M  V30 2501 H 235.108 0.90234 5.00735 0
M  V30 2502 H 234.506 -2.27417 5.17975 0
M  V30 2503 H 233.063 -2.26382 6.11224 0
M  V30 2504 N 236.496 -1.42363 0.676048 0
M  V30 2505 C 237.724 -2.05859 0.207268 0
M  V30 2506 C 238.139 -1.50796 -1.13605 0
M  V30 2507 O 237.496 -0.648265 -1.70598 0
M  V30 2508 C 237.547 -3.61248 0.134975 0
M  V30 2509 O 237.268 -4.1427 1.42521 0
M  V30 2510 C 238.769 -4.41859 -0.357151 0
M  V30 2511 H 235.989 -0.663431 0.100503 0
M  V30 2512 H 238.533 -1.82479 0.923136 0
M  V30 2513 H 236.688 -3.83735 -0.531588 0
M  V30 2514 H 237.102 -5.0815 1.29939 0
M  V30 2515 H 238.576 -5.50847 -0.356641 0
M  V30 2516 H 239.053 -4.16536 -1.39264 0
M  V30 2517 H 239.659 -4.24392 0.27772 0
M  V30 2518 N 237.974 -0.419461 -1.51915 0
M  V30 2519 C 239.214 0.152336 -2.03832 0
M  V30 2520 C 239.578 1.41501 -1.29775 0
M  V30 2521 O 240.779 2.06591 -1.7197 0
M  V30 2522 C 239.05 0.383812 -3.55333 0
M  V30 2523 S 240.609 0.921577 -4.29013 0
M  V30 2524 H 237.427 0.0402193 -0.709862 0
M  V30 2525 H 240.029 -0.574758 -1.8686 0
M  V30 2526 H 238.733 -0.541794 -4.06808 0
M  V30 2527 H 238.264 1.13849 -3.76566 0
M  V30 2528 H 240.279 2.20108 -4.4471 0
M  V30 2529 N 239.452 1.56882 -0.150215 0
M  V30 2530 C 240.699 1.96228 0.500093 0
M  V30 2531 C 241.027 1.03522 1.64661 0
M  V30 2532 O 240.282 0.0650683 1.95592 0
M  V30 2533 C 240.581 3.41801 1.04437 0
M  V30 2534 C 240.247 4.50897 0.0159671 0
M  V30 2535 C 238.909 4.8046 -0.266731 0
M  V30 2536 C 241.261 5.16703 -0.683192 0
M  V30 2537 C 238.589 5.73135 -1.25434 0
M  V30 2538 C 240.941 6.10441 -1.65964 0
M  V30 2539 C 239.605 6.38382 -1.95 0
M  V30 2540 H 238.875 0.718048 0.182997 0
M  V30 2541 H 241.522 1.90019 -0.237724 0
M  V30 2542 H 239.827 3.44857 1.85959 0
M  V30 2543 H 241.524 3.69573 1.55618 0
M  V30 2544 H 238.114 4.27891 0.246485 0
M  V30 2545 H 242.298 4.93993 -0.477983 0
M  V30 2546 H 237.554 5.93074 -1.48571 0
M  V30 2547 H 241.728 6.60507 -2.20689 0
M  V30 2548 H 239.355 7.09996 -2.71679 0
M  V30 2549 N 240.93 -0.123565 1.57115 0
M  V30 2550 C 241.878 -1.17082 2.00984 0
M  V30 2551 C 242.872 -1.43136 0.906009 0
M  V30 2552 O 244.078 -1.43152 1.09121 0
M  V30 2553 H 240.453 -0.394653 0.64012 0
M  V30 2554 H 242.424 -0.774292 2.88179 0
M  V30 2555 C 241.173 -2.49057 2.42623 0
M  V30 2556 H 240.496 -2.29846 3.27125 0
M  V30 2557 H 241.936 -3.20906 2.7712 0
M  V30 2558 C 240.395 -3.11305 1.28805 0
M  V30 2559 O 240.925 -3.97171 0.60153 0
M  V30 2560 N 239.131 -2.71111 1.04628 0
M  V30 2561 H 238.678 -2.01382 1.60634 0
M  V30 2562 H 238.636 -3.1309 0.286685 0
M  V30 2563 N 242.408 -1.52605 -0.393616 0
M  V30 2564 C 243.633 -1.71592 -1.16495 0
M  V30 2565 C 244.058 -0.43133 -1.83088 0
M  V30 2566 O 243.416 0.612523 -1.7064 0
M  V30 2567 C 243.464 -2.86318 -2.19213 0
M  V30 2568 O 242.568 -2.52969 -3.257 0
M  V30 2569 H 241.909 -0.570734 -0.33935 0
M  V30 2570 H 244.439 -1.99377 -0.459324 0
M  V30 2571 H 244.449 -3.1168 -2.63286 0
M  V30 2572 H 243.124 -3.79511 -1.7013 0
M  V30 2573 H 241.701 -2.38332 -2.86797 0
M  V30 2574 N 243.887 0.651787 -1.4349 0
M  V30 2575 C 245.133 1.4121 -1.46395 0
M  V30 2576 C 245.488 1.92202 -0.087366 0
M  V30 2577 O 244.781 1.69452 0.894231 0
M  V30 2578 C 244.975 2.60914 -2.44251 0
M  V30 2579 C 244.804 2.21639 -3.91288 0
M  V30 2580 C 243.574 2.09897 -4.59643 0
M  V30 2581 C 245.772 1.81835 -4.81083 0
M  V30 2582 N 243.754 1.63967 -5.91598 0
M  V30 2583 C 245.125 1.46998 -6.02322 0
M  V30 2584 C 247.18 1.69031 -4.6833 0
M  V30 2585 C 245.883 1.00638 -7.12225 0
M  V30 2586 C 247.909 1.24077 -5.78238 0
M  V30 2587 C 247.271 0.901772 -6.98604 0
M  V30 2588 H 243.37 0.512322 -0.590805 0
M  V30 2589 H 245.954 0.74989 -1.7968 0
M  V30 2590 H 244.125 3.24792 -2.1299 0
M  V30 2591 H 245.857 3.27622 -2.37584 0
M  V30 2592 H 242.612 2.297 -4.14168 0
M  V30 2593 H 243.036 1.43359 -6.61647 0
M  V30 2594 H 247.678 1.93878 -3.75727 0
M  V30 2595 H 245.396 0.745399 -8.04655 0
M  V30 2596 H 248.982 1.14657 -5.7039 0
M  V30 2597 H 247.862 0.559226 -7.82203 0
M  V30 2598 N 245.365 1.30045 0.890287 0
M  V30 2599 C 246.295 1.18541 2.01172 0
M  V30 2600 C 247.276 0.0773356 1.69924 0
M  V30 2601 O 248.461 0.25845 1.92473 0
M  V30 2602 C 245.591 0.870941 3.36202 0
M  V30 2603 C 244.545 1.93637 3.81692 0
M  V30 2604 C 243.871 1.475 5.13953 0
M  V30 2605 C 245.171 3.34666 4.00994 0
M  V30 2606 H 246.865 2.12359 2.11054 0
M  V30 2607 H 244.411 1.02238 1.01407 0
M  V30 2608 H 246.364 0.777141 4.14172 0
M  V30 2609 H 245.088 -0.102926 3.26438 0
M  V30 2610 H 243.747 2.01972 3.05946 0
M  V30 2611 H 243.395 0.489551 5.00612 0
M  V30 2612 H 243.095 2.1876 5.4536 0
M  V30 2613 H 244.619 1.39489 5.94454 0
M  V30 2614 H 246.033 3.2912 4.69417 0
M  V30 2615 H 244.43 4.03966 4.43769 0
M  V30 2616 H 245.5 3.76949 3.05021 0
M  V30 2617 N 246.843 -1.10192 1.12674 0
M  V30 2618 C 247.806 -2.14786 0.799979 0
M  V30 2619 C 248.806 -1.59711 -0.18685 0
M  V30 2620 O 249.996 -1.74156 0.0392558 0
M  V30 2621 C 247.128 -3.40374 0.189228 0
M  V30 2622 H 248.321 -2.45203 1.72671 0
M  V30 2623 H 245.874 -1.25597 0.930326 0
M  V30 2624 H 246.609 -3.15577 -0.747107 0
M  V30 2625 H 246.394 -3.81637 0.899766 0
M  V30 2626 H 247.884 -4.17594 -0.0228143 0
M  V30 2627 N 248.321 -0.919034 -1.28029 0
M  V30 2628 C 249.268 -0.410005 -2.27129 0
M  V30 2629 C 250.238 0.518405 -1.57803 0
M  V30 2630 O 251.423 0.439451 -1.8567 0
M  V30 2631 C 248.563 0.339054 -3.4343 0
M  V30 2632 C 247.676 -0.622468 -4.27492 0
M  V30 2633 C 246.811 0.145567 -5.31001 0
M  V30 2634 C 245.85 -0.809226 -6.06727 0
M  V30 2635 N 244.987 -0.0743728 -7.02061 0
M  V30 2636 H 249.827 -1.26011 -2.70047 0
M  V30 2637 H 247.364 -0.632663 -1.328 0
M  V30 2638 H 249.322 0.789586 -4.0966 0
M  V30 2639 H 247.952 1.15346 -3.01488 0
M  V30 2640 H 247.004 -1.19153 -3.61257 0
M  V30 2641 H 248.316 -1.35252 -4.80113 0
M  V30 2642 H 247.47 0.656417 -6.03139 0
M  V30 2643 H 246.209 0.908643 -4.79161 0
M  V30 2644 H 245.214 -1.3314 -5.33436 0
M  V30 2645 H 246.439 -1.57194 -6.60656 0
M  V30 2646 H 244.385 0.670616 -6.52563 0
M  V30 2647 H 244.302 -0.744157 -7.52329 0
M  V30 2648 H 245.57 0.416109 -7.78389 0
M  V30 2649 N 249.799 1.42003 -0.683588 0
M  V30 2650 C 251.046 2.01413 -0.209514 0
M  V30 2651 C 251.374 1.54088 1.1869 0
M  V30 2652 O 250.629 0.737591 1.81268 0
M  V30 2653 C 250.928 3.56827 -0.202357 0
M  V30 2654 C 250.594 4.23617 -1.54464 0
M  V30 2655 C 249.256 4.41577 -1.91215 0
M  V30 2656 C 251.608 4.61178 -2.42826 0
M  V30 2657 C 248.936 4.9437 -3.15935 0
M  V30 2658 C 251.288 5.15355 -3.66867 0
M  V30 2659 C 249.952 5.31528 -4.03776 0
M  V30 2660 H 249.222 0.737023 -0.0766668 0
M  V30 2661 H 251.869 1.70067 -0.880312 0
M  V30 2662 H 250.174 3.87892 0.551969 0
M  V30 2663 H 251.871 4.00588 0.181793 0
M  V30 2664 H 248.461 4.10004 -1.24877 0
M  V30 2665 H 252.645 4.46968 -2.15717 0
M  V30 2666 H 247.901 5.05076 -3.44541 0
M  V30 2667 H 252.075 5.43402 -4.35531 0
M  V30 2668 H 249.702 5.72199 -5.00492 0
M  V30 2669 N 251.277 0.427512 1.51691 0
M  V30 2670 C 252.526 -0.143679 2.01188 0
M  V30 2671 C 252.839 -1.44642 1.31674 0
M  V30 2672 O 254.045 -2.09997 1.72086 0
M  V30 2673 C 252.501 -0.306602 3.58592 0
M  V30 2674 C 252.109 0.985125 4.37035 0
M  V30 2675 C 253.853 -0.832091 4.16265 0
M  V30 2676 C 251.76 0.788382 5.86122 0
M  V30 2677 H 250.69 -0.0574701 0.751807 0
M  V30 2678 H 253.341 0.555772 1.74881 0
M  V30 2679 H 251.723 -1.06882 3.81303 0
M  V30 2680 H 252.897 1.75492 4.26074 0
M  V30 2681 H 251.212 1.4384 3.90767 0
M  V30 2682 H 253.809 -0.995617 5.25349 0
M  V30 2683 H 254.152 -1.81186 3.74803 0
M  V30 2684 H 254.685 -0.128444 3.97593 0
M  V30 2685 H 251.424 1.74025 6.31978 0
M  V30 2686 H 250.944 0.0582143 5.99772 0
M  V30 2687 H 252.623 0.437722 6.45518 0
M  V30 2688 N 252.755 -1.56801 0.158532 0
M  V30 2689 C 253.703 -2.18638 -0.793729 0
M  V30 2690 C 254.697 -1.14669 -1.24689 0
M  V30 2691 O 255.903 -1.32895 -1.21403 0
M  V30 2692 H 252.278 -0.700226 -0.274204 0
M  V30 2693 H 254.249 -2.97367 -0.248095 0
M  V30 2694 C 252.998 -2.83139 -2.0181 0
M  V30 2695 H 252.321 -3.62863 -1.67841 0
M  V30 2696 H 253.761 -3.29894 -2.66357 0
M  V30 2697 C 252.22 -1.82244 -2.83353 0
M  V30 2698 O 252.75 -1.3 -3.80083 0
M  V30 2699 N 250.956 -1.51288 -2.48114 0
M  V30 2700 H 250.503 -1.93964 -1.69516 0
M  V30 2701 H 250.461 -0.840296 -3.02963 0
M  V30 2702 N 254.233 0.115231 -1.57178 0
M  V30 2703 C 255.183 1.14707 -1.97044 0
M  V30 2704 C 256.167 1.36866 -0.845957 0
M  V30 2705 O 257.359 1.37895 -1.10968 0
M  V30 2706 C 254.488 2.47266 -2.38148 0
M  V30 2707 C 253.574 2.28566 -3.57237 0
M  V30 2708 N 253.965 1.79685 -4.72807 0
M  V30 2709 C 252.263 2.59208 -3.62943 0
M  V30 2710 C 252.964 1.74781 -5.54821 0
M  V30 2711 N 251.94 2.19264 -4.97417 0
M  V30 2712 H 255.742 0.761754 -2.83857 0
M  V30 2713 H 253.256 0.322928 -1.59157 0
M  V30 2714 H 255.253 3.219 -2.64927 0
M  V30 2715 H 253.913 2.86552 -1.52702 0
M  V30 2716 H 254.924 1.49177 -4.9595 0
M  V30 2717 H 251.601 3.02154 -2.88113 0
M  V30 2718 H 252.991 1.38212 -6.57531 0
M  V30 2719 N 255.711 1.52812 0.385517 0
M  V30 2720 C 256.641 1.80808 1.47752 0
M  V30 2721 C 257.622 0.660318 1.5676 0
M  V30 2722 O 258.807 0.908246 1.71652 0
M  V30 2723 C 255.937 1.98008 2.85324 0
M  V30 2724 C 254.891 3.13709 2.91154 0
M  V30 2725 C 254.217 3.16169 4.31209 0
M  V30 2726 C 255.517 4.52709 2.60483 0
M  V30 2727 H 257.211 2.72253 1.24573 0
M  V30 2728 H 254.757 1.31003 0.597839 0
M  V30 2729 H 256.71 2.16176 3.61726 0
M  V30 2730 H 255.434 1.03255 3.09848 0
M  V30 2731 H 254.093 2.95329 2.17201 0
M  V30 2732 H 253.741 2.19092 4.52778 0
M  V30 2733 H 253.441 3.93894 4.36029 0
M  V30 2734 H 254.965 3.36496 5.09512 0
M  V30 2735 H 256.379 4.71173 3.26602 0
M  V30 2736 H 254.776 5.32528 2.76648 0
M  V30 2737 H 255.846 4.59186 1.55809 0
M  V30 2738 N 257.189 -0.644168 1.43834 0
M  V30 2739 C 258.417 -1.43147 1.49387 0
M  V30 2740 C 258.832 -1.88452 0.114583 0
M  V30 2741 O 258.189 -1.60047 -0.876989 0
M  V30 2742 C 258.24 -2.66046 2.44748 0
M  V30 2743 O 257.961 -2.22633 3.77314 0
M  V30 2744 C 259.462 -3.59311 2.59635 0
M  V30 2745 H 256.682 -0.439447 0.507077 0
M  V30 2746 H 259.226 -0.78895 1.88669 0
M  V30 2747 H 257.381 -3.26418 2.08638 0
M  V30 2748 H 257.795 -3.02216 4.28679 0
M  V30 2749 H 259.269 -4.42187 3.30416 0
M  V30 2750 H 259.746 -4.07259 1.64427 0
M  V30 2751 H 260.352 -3.04816 2.96593 0
M  V30 2752 N 258.668 -1.30515 -0.883378 0
M  V30 2753 C 259.6 -1.12846 -1.99496 0
M  V30 2754 C 260.613 -0.0712571 -1.62644 0
M  V30 2755 O 261.802 -0.317432 -1.75655 0
M  V30 2756 C 258.902 -0.699123 -3.3161 0
M  V30 2757 C 258.075 -1.83842 -3.96889 0
M  V30 2758 C 257.134 -1.39737 -5.07307 0
M  V30 2759 O 256.16 -2.10485 -5.28852 0
M  V30 2760 N 257.362 -0.277279 -5.79837 0
M  V30 2761 H 260.127 -2.08585 -2.15203 0
M  V30 2762 H 257.688 -1.22672 -1.05656 0
M  V30 2763 H 259.68 -0.387044 -4.02845 0
M  V30 2764 H 258.25 0.166276 -3.12157 0
M  V30 2765 H 257.47 -2.31853 -3.18807 0
M  V30 2766 H 258.758 -2.60187 -4.37241 0
M  V30 2767 H 258.156 0.3122 -5.64838 0
M  V30 2768 H 256.713 -0.0246623 -6.51795 0
M  V30 2769 N 260.146 1.09593 -1.13257 0
M  V30 2770 C 261.386 1.83349 -0.903472 0
M  V30 2771 C 261.75 1.83641 0.560351 0
M  V30 2772 O 262.951 2.53037 0.906947 0
M  V30 2773 C 261.222 3.25629 -1.47311 0
M  V30 2774 S 262.781 4.16408 -1.38382 0
M  V30 2775 H 259.599 0.632014 -0.325699 0
M  V30 2776 H 262.201 1.31817 -1.44376 0
M  V30 2777 H 260.905 3.22991 -2.53189 0
M  V30 2778 H 260.436 3.82233 -0.930689 0
M  V30 2779 H 262.451 4.94884 -0.361113 0
M  V30 2780 N 261.624 0.925811 1.2754 0
M  V30 2781 C 262.572 0.413897 2.28888 0
M  V30 2782 C 263.566 -0.500779 1.61829 0
M  V30 2783 O 264.772 -0.38069 1.75928 0
M  V30 2784 H 261.147 0.115274 0.743112 0
M  V30 2785 H 263.118 1.28151 2.69481 0
M  V30 2786 C 261.867 -0.319792 3.46226 0
M  V30 2787 H 261.19 0.374846 3.98039 0
M  V30 2788 H 262.63 -0.642435 4.19105 0
M  V30 2789 C 261.089 -1.53209 3.00048 0
M  V30 2790 O 261.619 -2.6309 3.03557 0
M  V30 2791 N 259.825 -1.38326 2.55566 0
M  V30 2792 H 259.372 -0.489292 2.5291 0
M  V30 2793 H 259.33 -2.19564 2.25031 0
M  V30 2794 N 263.102 -1.41638 0.69111 0
M  V30 2795 C 264.049 -2.30789 0.0229705 0
M  V30 2796 C 265.019 -1.46863 -0.775911 0
M  V30 2797 O 266.204 -1.75661 -0.74485 0
M  V30 2798 C 263.344 -3.32868 -0.910666 0
M  V30 2799 C 262.457 -4.31875 -0.103874 0
M  V30 2800 C 261.592 -5.21024 -1.03475 0
M  V30 2801 C 260.631 -6.11702 -0.220598 0
M  V30 2802 N 259.768 -6.93349 -1.10504 0
M  V30 2803 H 264.608 -2.87366 0.788978 0
M  V30 2804 H 262.145 -1.41535 0.400794 0
M  V30 2805 H 264.103 -3.90596 -1.46597 0
M  V30 2806 H 262.733 -2.77851 -1.64312 0
M  V30 2807 H 261.785 -3.76131 0.568285 0
M  V30 2808 H 263.097 -4.96003 0.527504 0
M  V30 2809 H 262.251 -5.83565 -1.65943 0
M  V30 2810 H 260.99 -4.57112 -1.69999 0
M  V30 2811 H 259.995 -5.48215 0.417187 0
M  V30 2812 H 261.22 -6.77668 0.440784 0
M  V30 2813 H 259.166 -6.3205 -1.75638 0
M  V30 2814 H 259.083 -7.54146 -0.529125 0
M  V30 2815 H 260.351 -7.60362 -1.71667 0
M  V30 2816 N 264.58 -0.43555 -1.51462 0
M  V30 2817 C 265.528 0.391205 -2.29287 0
M  V30 2818 C 266.522 1.02247 -1.35062 0
M  V30 2819 O 267.728 0.957646 -1.52411 0
M  V30 2820 H 264.103 0.144968 -0.737895 0
M  V30 2821 H 266.074 -0.286051 -2.97026 0
M  V30 2822 C 264.823 1.48096 -3.14583 0
M  V30 2823 H 264.146 1.00457 -3.86973 0
M  V30 2824 H 265.586 2.03273 -3.72097 0
M  V30 2825 C 264.045 2.46321 -2.29843 0
M  V30 2826 O 264.575 3.50815 -1.95682 0
M  V30 2827 N 262.781 2.17166 -1.931 0
M  V30 2828 H 262.328 1.32218 -2.21079 0
M  V30 2829 H 262.286 2.83127 -1.36698 0
M  V30 2830 N 266.058 1.56714 -0.166846 0
M  V30 2831 C 267.306 1.96358 0.478305 0
M  V30 2832 C 267.627 1.0537 1.6408 0
M  V30 2833 O 266.897 0.119154 1.95537 0
M  V30 2834 H 265.477 0.725065 0.179692 0
M  V30 2835 H 268.139 1.93329 -0.246985 0
M  V30 2836 H 267.235 3.00547 0.841292 0
M  V30 2837 N 267.536 -0.106894 1.57237 0
M  V30 2838 C 268.783 -0.812526 1.85484 0
M  V30 2839 C 269.111 -1.79304 0.753687 0
M  V30 2840 O 268.366 -1.94047 -0.253853 0
M  V30 2841 C 268.665 -1.58628 3.20268 0
M  V30 2842 C 268.331 -0.748967 4.44636 0
M  V30 2843 C 266.993 -0.518104 4.78403 0
M  V30 2844 C 269.345 -0.166122 5.20935 0
M  V30 2845 C 266.673 0.305659 5.85903 0
M  V30 2846 C 269.025 0.644899 6.29304 0
M  V30 2847 C 267.689 0.885965 6.61594 0
M  V30 2848 H 266.959 -0.297324 0.678734 0
M  V30 2849 H 269.606 -0.0744332 1.91355 0
M  V30 2850 H 267.911 -2.39562 3.10028 0
M  V30 2851 H 269.608 -2.13643 3.39349 0
M  V30 2852 H 266.198 -0.939006 4.18187 0
M  V30 2853 H 270.382 -0.33167 4.95191 0
M  V30 2854 H 265.638 0.501528 6.0934 0
M  V30 2855 H 269.812 1.10345 6.87602 0
M  V30 2856 H 267.439 1.52609 7.44725 0
M  V30 2857 N 269.014 -1.53014 -0.377408 0
M  V30 2858 C 270.244 -1.72265 -1.14054 0
M  V30 2859 C 270.652 -0.44601 -1.83868 0
M  V30 2860 O 269.995 0.590095 -1.73964 0
M  V30 2861 C 270.057 -2.82492 -2.22348 0
M  V30 2862 C 269.721 -4.23233 -1.72402 0
M  V30 2863 C 270.718 -5.05992 -1.19448 0
M  V30 2864 C 268.403 -4.696 -1.78273 0
M  V30 2865 C 270.397 -6.33203 -0.730268 0
M  V30 2866 C 268.084 -5.96792 -1.31464 0
M  V30 2867 C 269.082 -6.78424 -0.789297 0
M  V30 2868 O 268.77 -8.0323 -0.328077 0
M  V30 2869 H 268.502 -0.579873 -0.347453 0
M  V30 2870 H 271.056 -2.00502 -0.445882 0
M  V30 2871 H 269.286 -2.49702 -2.95272 0
M  V30 2872 H 270.975 -2.90034 -2.83963 0
M  V30 2873 H 271.741 -4.71349 -1.14259 0
M  V30 2874 H 267.62 -4.06142 -2.18106 0
M  V30 2875 H 271.164 -6.96868 -0.319542 0
M  V30 2876 H 267.061 -6.30937 -1.36342 0
M  V30 2877 H 267.829 -8.1727 -0.448493 0
M  V30 2878 N 270.492 0.636531 -1.44174 0
M  V30 2879 C 271.717 1.42847 -1.50364 0
M  V30 2880 C 272.142 1.87665 -0.127867 0
M  V30 2881 O 271.5 1.58408 0.88185 0
M  V30 2882 C 271.548 2.62854 -2.4686 0
M  V30 2883 O 270.652 3.62501 -1.9664 0
M  V30 2884 H 269.993 0.427642 -0.507955 0
M  V30 2885 H 272.523 0.777422 -1.89255 0
M  V30 2886 H 272.533 3.10465 -2.64718 0
M  V30 2887 H 271.208 2.29578 -3.46795 0
M  V30 2888 H 269.785 3.21735 -1.88523 0
M  V30 2889 N 271.97 1.30982 0.876444 0
M  V30 2890 C 272.933 1.18054 1.96459 0
M  V30 2891 C 273.933 0.109399 1.60427 0
M  V30 2892 O 275.123 0.358173 1.70478 0
M  V30 2893 C 272.255 0.810616 3.31122 0
M  V30 2894 H 273.448 2.14735 2.09354 0
M  V30 2895 H 271.001 1.145 1.06392 0
M  V30 2896 H 271.736 -0.155322 3.23928 0
M  V30 2897 H 271.521 1.58481 3.58645 0
M  V30 2898 H 273.011 0.743876 4.10921 0
M  V30 2899 N 273.449 -1.08991 1.13837 0
M  V30 2900 C 274.695 -1.81526 0.90422 0
M  V30 2901 C 275.028 -1.85706 -0.568066 0
M  V30 2902 O 274.303 -1.32855 -1.42056 0
M  V30 2903 C 274.586 -3.27447 1.49835 0
M  V30 2904 C 274.439 -3.31512 3.04006 0
M  V30 2905 C 275.758 -4.24256 1.17025 0
M  V30 2906 H 272.877 -0.659029 0.329923 0
M  V30 2907 H 275.519 -1.27644 1.40737 0
M  V30 2908 H 273.669 -3.73462 1.07044 0
M  V30 2909 H 275.341 -2.93867 3.55584 0
M  V30 2910 H 273.584 -2.70963 3.38765 0
M  V30 2911 H 274.255 -4.34329 3.40679 0
M  V30 2912 H 276.731 -3.86549 1.54009 0
M  V30 2913 H 275.607 -5.24684 1.61237 0
M  V30 2914 H 275.868 -4.42019 0.0846274 0
M  V30 2915 N 274.927 -0.932562 -1.27047 0
M  V30 2916 C 275.89 -0.440064 -2.24936 0
M  V30 2917 C 276.89 0.444071 -1.54547 0
M  V30 2918 O 278.08 0.244465 -1.72476 0
M  V30 2919 C 275.212 0.36678 -3.38921 0
M  V30 2920 H 276.405 -1.305 -2.70018 0
M  V30 2921 H 273.958 -0.713707 -1.39054 0
M  V30 2922 H 274.693 1.25033 -2.99228 0
M  V30 2923 H 274.478 -0.267204 -3.91188 0
M  V30 2924 H 275.968 0.701567 -4.11665 0
M  V30 2925 N 276.405 1.4127 -0.698611 0
M  V30 2926 C 277.633 2.05503 -0.239992 0
M  V30 2927 C 278.048 1.52584 1.11191 0
M  V30 2928 O 277.405 0.675323 1.69545 0
M  V30 2929 C 277.456 3.60987 -0.192429 0
M  V30 2930 O 277.177 4.1195 -1.49094 0
M  V30 2931 C 278.678 4.42371 0.28681 0
M  V30 2932 H 275.898 0.661748 -0.111045 0
M  V30 2933 H 278.442 1.80987 -0.95205 0
M  V30 2934 H 276.597 3.84533 0.470472 0
M  V30 2935 H 277.011 5.06018 -1.38007 0
M  V30 2936 H 278.485 5.51344 0.26896 0
M  V30 2937 H 278.962 4.18699 1.32619 0
M  V30 2938 H 279.568 4.23897 -0.345201 0
M  V30 2939 N 277.883 0.443576 1.51229 0
M  V30 2940 C 278.813 -0.355142 2.30783 0
M  V30 2941 C 279.794 -1.0154 1.36468 0
M  V30 2942 O 280.979 -1.01785 1.65389 0
M  V30 2943 C 278.109 -1.45312 3.15439 0
M  V30 2944 C 277.063 -0.916002 4.18083 0
M  V30 2945 C 276.389 -2.1102 4.91299 0
M  V30 2946 C 277.689 0.0538602 5.22272 0
M  V30 2947 H 279.383 0.308767 2.97804 0
M  V30 2948 H 276.929 0.149937 1.43217 0
M  V30 2949 H 278.882 -2.01914 3.69876 0
M  V30 2950 H 277.606 -2.14541 2.46252 0
M  V30 2951 H 276.265 -0.372145 3.64706 0
M  V30 2952 H 275.913 -2.78882 4.18609 0
M  V30 2953 H 275.613 -1.75717 5.60712 0
M  V30 2954 H 277.137 -2.68164 5.48562 0
M  V30 2955 H 278.551 -0.422069 5.71744 0
M  V30 2956 H 276.948 0.319776 5.99247 0
M  V30 2957 H 278.018 0.98858 4.74716 0
M  V30 2958 N 279.361 -1.56624 0.175154 0
M  V30 2959 C 280.589 -2.01374 -0.474971 0
M  V30 2960 C 281.004 -1.05537 -1.56548 0
M  V30 2961 O 280.361 -0.0568668 -1.82411 0
M  V30 2962 C 280.412 -3.45923 -1.04975 0
M  V30 2963 O 280.133 -4.381 -0.00276605 0
M  V30 2964 C 281.634 -4.06093 -1.77773 0
M  V30 2965 H 278.854 -0.659962 -0.121206 0
M  V30 2966 H 281.398 -2.02601 0.27801 0
M  V30 2967 H 279.553 -3.45458 -1.75321 0
M  V30 2968 H 279.967 -5.22753 -0.427681 0
M  V30 2969 H 281.441 -5.09147 -2.13245 0
M  V30 2970 H 281.918 -3.48405 -2.67414 0
M  V30 2971 H 282.524 -4.10272 -1.12059 0
M  V30 2972 N 280.839 0.0985539 -1.57292 0
M  V30 2973 C 281.769 1.12064 -2.04851 0
M  V30 2974 C 282.75 1.41981 -0.936767 0
M  V30 2975 O 283.935 1.52071 -1.20781 0
M  V30 2976 C 281.065 2.44144 -2.47004 0
M  V30 2977 C 280.019 2.28643 -3.6181 0
M  V30 2978 C 279.345 3.65869 -3.89929 0
M  V30 2979 C 280.645 1.72986 -4.92822 0
M  V30 2980 H 282.339 0.724979 -2.9049 0
M  V30 2981 H 279.885 0.34729 -1.39749 0
M  V30 2982 H 281.838 3.15914 -2.78884 0
M  V30 2983 H 280.562 2.85639 -1.5836 0
M  V30 2984 H 279.221 1.59318 -3.30172 0
M  V30 2985 H 278.869 4.04885 -2.98458 0
M  V30 2986 H 278.569 3.56344 -4.67218 0
M  V30 2987 H 280.093 4.39112 -4.2428 0
M  V30 2988 H 281.507 2.34593 -5.23105 0
M  V30 2989 H 279.904 1.74229 -5.74251 0
M  V30 2990 H 280.974 0.689007 -4.7998 0
M  V30 2991 N 282.317 1.53212 0.369288 0
M  V30 2992 C 283.28 1.7872 1.43498 0
M  V30 2993 C 284.28 0.657554 1.46741 0
M  V30 2994 O 285.47 0.925736 1.47566 0
M  V30 2995 C 282.602 1.90591 2.82645 0
M  V30 2996 H 283.795 2.73894 1.22156 0
M  V30 2997 H 281.348 1.44233 0.602203 0
M  V30 2998 H 282.083 0.974709 3.09306 0
M  V30 2999 H 281.868 2.72751 2.8169 0
M  V30 3000 H 283.358 2.11931 3.59826 0
M  V30 3001 N 283.795 -0.628877 1.44509 0
M  V30 3002 C 285.041 -1.38863 1.48623 0
M  V30 3003 C 285.396 -1.92038 0.117933 0
M  V30 3004 O 284.689 -1.70853 -0.86716 0
M  V30 3005 C 284.883 -2.56995 2.48371 0
M  V30 3006 C 284.712 -2.15385 3.94765 0
M  V30 3007 C 283.482 -2.02558 4.62924 0
M  V30 3008 C 285.68 -1.74158 4.83915 0
M  V30 3009 N 283.662 -1.54534 5.94132 0
M  V30 3010 C 285.033 -1.37396 6.04584 0
M  V30 3011 C 287.088 -1.61559 4.7096 0
M  V30 3012 C 285.791 -0.892948 7.13736 0
M  V30 3013 C 287.817 -1.14862 5.80139 0
M  V30 3014 C 287.179 -0.790516 6.9995 0
M  V30 3015 H 283.278 -0.502858 0.59888 0
M  V30 3016 H 285.862 -0.72121 1.8085 0
M  V30 3017 H 284.033 -3.21362 2.1813 0
M  V30 3018 H 285.765 -3.23801 2.42766 0
M  V30 3019 H 282.52 -2.23082 4.1777 0
M  V30 3020 H 282.944 -1.32815 6.63844 0
M  V30 3021 H 287.586 -1.87876 3.78764 0
M  V30 3022 H 285.304 -0.617291 8.05739 0
M  V30 3023 H 288.89 -1.05569 5.72142 0
M  V30 3024 H 287.77 -0.434713 7.82994 0
M  V30 3025 N 285.273 -1.31445 -0.869486 0
M  V30 3026 C 286.519 -1.21337 -1.62496 0
M  V30 3027 C 286.852 0.227872 -1.92858 0
M  V30 3028 O 286.127 1.16094 -1.56053 0
M  V30 3029 C 286.41 -2.05814 -2.95487 0
M  V30 3030 C 286.263 -3.5824 -2.72 0
M  V30 3031 C 287.582 -1.9079 -3.96594 0
M  V30 3032 H 284.701 -0.442135 -0.589649 0
M  V30 3033 H 287.343 -1.6124 -1.00507 0
M  V30 3034 H 285.493 -1.71913 -3.48394 0
M  V30 3035 H 287.165 -4.0228 -2.25762 0
M  V30 3036 H 285.408 -3.81647 -2.06224 0
M  V30 3037 H 286.079 -4.12657 -3.66631 0
M  V30 3038 H 288.555 -2.20459 -3.52898 0
M  V30 3039 H 287.431 -2.52199 -4.87531 0
M  V30 3040 H 287.692 -0.871341 -4.33428 0
M  V30 3041 N 286.751 1.08385 -1.14413 0
M  V30 3042 C 287.698 2.15311 -0.831265 0
M  V30 3043 C 288.668 1.64751 0.211292 0
M  V30 3044 O 289.853 1.90627 0.0811674 0
M  V30 3045 C 286.993 3.43658 -0.315143 0
M  V30 3046 C 286.106 4.08064 -1.41802 0
M  V30 3047 C 285.241 5.24207 -0.859126 0
M  V30 3048 C 284.28 5.80554 -1.93967 0
M  V30 3049 N 283.417 6.88042 -1.39793 0
M  V30 3050 H 288.257 2.41415 -1.74708 0
M  V30 3051 H 285.794 1.18474 -0.871909 0
M  V30 3052 H 287.752 4.172 0.00230884 0
M  V30 3053 H 286.382 3.17839 0.56378 0
M  V30 3054 H 285.434 3.3228 -1.85187 0
M  V30 3055 H 286.746 4.45962 -2.23427 0
M  V30 3056 H 285.9 6.04689 -0.49359 0
M  V30 3057 H 284.639 4.87699 -0.011932 0
M  V30 3058 H 283.644 4.98725 -2.31415 0
M  V30 3059 H 284.869 6.19121 -2.79046 0
M  V30 3060 H 282.815 6.53493 -0.572919 0
M  V30 3061 H 282.732 7.24767 -2.15054 0
M  V30 3062 H 284 7.72255 -1.0603 0
M  V30 3063 N 288.23 0.939286 1.26551 0
M  V30 3064 C 289.162 0.404704 2.25599 0
M  V30 3065 C 290.175 -0.470983 1.55838 0
M  V30 3066 O 291.364 -0.281734 1.76263 0
M  V30 3067 C 288.464 -0.43764 3.36062 0
M  V30 3068 C 287.637 0.421449 4.35365 0
M  V30 3069 C 286.696 -0.36015 5.24966 0
M  V30 3070 O 285.722 0.236167 5.6871 0
M  V30 3071 N 286.924 -1.65715 5.56344 0
M  V30 3072 H 289.689 1.25618 2.72103 0
M  V30 3073 H 287.25 0.807963 1.40298 0
M  V30 3074 H 289.242 -0.967866 3.92956 0
M  V30 3075 H 287.812 -1.18991 2.89067 0
M  V30 3076 H 287.032 1.1329 3.7757 0
M  V30 3077 H 288.32 1.00835 4.98708 0
M  V30 3078 H 287.718 -2.16378 5.22682 0
M  V30 3079 H 286.275 -2.13366 6.15888 0
M  V30 3080 N 289.708 -1.40897 0.706093 0
M  V30 3081 C 290.985 -1.94868 0.169099 0
M  V30 3082 C 291.365 -1.64485 -1.32318 0
M  V30 3083 O 290.713 -0.95744 -2.07474 0
M  V30 3084 C 290.923 -3.45798 0.471654 0
M  V30 3085 C 292.271 -4.22663 0.405127 0
M  V30 3086 O 293.295 -3.53865 0.407168 0
M  V30 3087 O 292.154 -5.45216 0.374383 0
M  V30 3088 H 289.248 -0.82673 0.0211352 0
M  V30 3089 H 291.794 -1.50558 0.782976 0
M  V30 3090 H 290.566 -3.61235 1.50416 0
M  V30 3091 H 290.189 -3.97225 -0.172666 0
M  V30 3092 N 291.186 -0.45159 -1.50991 0
M  V30 3093 C 292.435 0.111653 -2.01391 0
M  V30 3094 C 292.748 1.42529 -1.33959 0
M  V30 3095 O 293.954 2.07232 -1.75405 0
M  V30 3096 C 292.41 0.249514 -3.59034 0
M  V30 3097 C 292.018 -1.05453 -4.35412 0
M  V30 3098 C 293.762 0.765762 -4.17536 0
M  V30 3099 C 291.669 -0.881529 -5.84793 0
M  V30 3100 H 290.599 0.0455022 -0.752626 0
M  V30 3101 H 293.25 -0.583524 -1.73975 0
M  V30 3102 H 291.632 1.00803 -3.82955 0
M  V30 3103 H 292.806 -1.82248 -4.23229 0
M  V30 3104 H 291.121 -1.50039 -3.88429 0
M  V30 3105 H 293.718 0.911913 -5.26866 0
M  V30 3106 H 294.061 1.75201 -3.77638 0
M  V30 3107 H 294.594 0.0651744 -3.97747 0
M  V30 3108 H 291.333 -1.84057 -6.29129 0
M  V30 3109 H 290.853 -0.153625 -5.99603 0
M  V30 3110 H 292.532 -0.540363 -6.4474 0
M  V30 3111 N 292.664 1.56529 -0.183458 0
M  V30 3112 C 293.627 2.17324 0.728223 0
M  V30 3113 C 294.627 1.12453 1.14939 0
M  V30 3114 O 295.817 1.37902 1.06437 0
M  V30 3115 C 292.949 2.76591 1.99274 0
M  V30 3116 H 294.142 2.99241 0.198772 0
M  V30 3117 H 291.695 1.5616 0.0661391 0
M  V30 3118 H 292.43 1.98441 2.56499 0
M  V30 3119 H 292.215 3.5335 1.69959 0
M  V30 3120 H 293.705 3.23311 2.6431 0
M  V30 3121 N 294.142 -0.090211 1.57342 0
M  V30 3122 C 295.074 -1.13541 1.99101 0
M  V30 3123 C 296.087 -1.3604 0.894258 0
M  V30 3124 O 297.276 -1.34606 1.17233 0
M  V30 3125 C 294.376 -2.49001 2.29895 0
M  V30 3126 C 293.549 -2.46712 3.61182 0
M  V30 3127 C 292.608 -3.64136 3.79857 0
M  V30 3128 O 291.634 -3.46405 4.51655 0
M  V30 3129 N 292.836 -4.83802 3.20806 0
M  V30 3130 H 295.601 -0.779942 2.89373 0
M  V30 3131 H 293.162 -0.279125 1.59476 0
M  V30 3132 H 295.154 -3.26166 2.39578 0
M  V30 3133 H 293.724 -2.76619 1.45605 0
M  V30 3134 H 292.944 -1.55058 3.62423 0
M  V30 3135 H 294.232 -2.42265 4.4742 0
M  V30 3136 H 293.63 -5.01112 2.62494 0
M  V30 3137 H 292.187 -5.58543 3.35966 0
M  V30 3138 N 295.62 -1.53406 -0.361157 0
M  V30 3139 C 296.55 -1.83136 -1.44857 0
M  V30 3140 C 297.531 -0.685174 -1.5569 0
M  V30 3141 O 298.716 -0.93544 -1.70186 0
M  V30 3142 C 295.846 -2.02522 -2.82138 0
M  V30 3143 C 294.8 -3.18302 -2.86126 0
M  V30 3144 C 294.126 -3.22989 -4.26125 0
M  V30 3145 C 295.426 -4.56796 -2.53248 0
M  V30 3146 H 297.12 -2.74201 -1.20226 0
M  V30 3147 H 294.666 -1.31938 -0.576922 0
M  V30 3148 H 296.619 -2.21904 -3.58241 0
M  V30 3149 H 295.343 -1.08172 -3.08166 0
M  V30 3150 H 294.002 -2.98747 -2.12475 0
M  V30 3151 H 293.65 -2.26267 -4.49235 0
M  V30 3152 H 293.35 -4.00781 -4.29708 0
M  V30 3153 H 294.874 -3.44559 -5.04094 0
M  V30 3154 H 296.288 -4.7631 -3.19064 0
M  V30 3155 H 294.685 -5.36862 -2.68141 0
M  V30 3156 H 295.755 -4.61606 -1.48484 0
M  V30 3157 N 297.098 0.621204 -1.44841 0
M  V30 3158 C 298.008 1.7612 -1.5498 0
M  V30 3159 C 299.024 1.68477 -0.434927 0
M  V30 3160 O 300.2 1.89076 -0.693693 0
M  V30 3161 C 297.265 3.1254 -1.50065 0
M  V30 3162 C 296.326 3.31741 -2.72482 0
M  V30 3163 C 295.559 4.61653 -2.67792 0
M  V30 3164 O 295.782 5.431 -1.74352 0
M  V30 3165 O 294.716 4.83271 -3.58794 0
M  V30 3166 H 298.542 1.70518 -2.51311 0
M  V30 3167 H 296.127 0.783643 -1.27198 0
M  V30 3168 H 298.009 3.93844 -1.49882 0
M  V30 3169 H 296.684 3.18663 -0.568806 0
M  V30 3170 H 295.591 2.50077 -2.7823 0
M  V30 3171 H 296.924 3.30486 -3.64746 0
M  V30 3172 N 298.576 1.31904 0.862503 0
M  V30 3173 C 299.987 1.19803 1.43193 0
M  V30 3174 C 300.338 -0.192567 1.95253 0
M  V30 3175 O 299.463 -1.09081 1.86896 0
M  V30 3176 C 300.058 2.16883 2.60283 0
M  V30 3177 C 298.617 2.08692 3.13248 0
M  V30 3178 C 297.764 2.05691 1.85975 0
M  V30 3179 H 300.715 1.43846 0.670365 0
M  V30 3180 H 300.736 1.76278 3.37204 0
M  V30 3181 H 300.248 3.18083 2.22363 0
M  V30 3182 H 298.349 1.10713 3.55771 0
M  V30 3183 H 298.462 2.9815 3.75025 0
M  V30 3184 H 296.826 1.50814 2.05249 0
M  V30 3185 H 297.609 3.08659 1.50282 0
M  V30 3186 N 300.054 -1.07777 1.14986 0
M  V30 3187 C 301.017 -2.13041 0.845358 0
M  V30 3188 C 302.017 -1.60071 -0.152931 0
M  V30 3189 O 303.207 -1.74033 0.0761879 0
M  V30 3190 C 300.339 -3.39896 0.261383 0
M  V30 3191 H 301.532 -2.41485 1.77834 0
M  V30 3192 H 299.085 -1.23595 0.956757 0
M  V30 3193 H 299.82 -3.17091 -0.68 0
M  V30 3194 H 299.605 -3.79642 0.980514 0
M  V30 3195 H 301.095 -4.17548 0.0657687 0
M  V30 3196 N 301.532 -0.945985 -1.26051 0
M  V30 3197 C 302.778 -0.597002 -1.93814 0
M  V30 3198 C 303.111 0.862484 -1.73997 0
M  V30 3199 O 302.386 1.61769 -1.07986 0
M  V30 3200 C 302.669 -0.945937 -3.47454 0
M  V30 3201 C 302.522 -2.46052 -3.76535 0
M  V30 3202 C 303.841 -0.464785 -4.37639 0
M  V30 3203 H 300.96 -0.218366 -0.703907 0
M  V30 3204 H 303.602 -1.18107 -1.48831 0
M  V30 3205 H 301.752 -0.448902 -3.85898 0
M  V30 3206 H 303.424 -3.03065 -3.47778 0
M  V30 3207 H 301.667 -2.90194 -3.22444 0
M  V30 3208 H 302.338 -2.65517 -4.83947 0
M  V30 3209 H 304.814 -0.891016 -4.06448 0
M  V30 3210 H 303.69 -0.737712 -5.4392 0
M  V30 3211 H 303.951 0.635274 -4.37512 0
M  V30 3212 N 303.011 1.40521 -0.713556 0
M  V30 3213 C 303.974 2.29098 -0.0684347 0
M  V30 3214 C 304.974 1.45268 0.689472 0
M  V30 3215 O 306.164 1.66205 0.521677 0
M  V30 3216 C 303.296 3.28446 0.913024 0
M  V30 3217 H 304.489 2.87645 -0.84855 0
M  V30 3218 H 302.042 1.48809 -0.47809 0
M  V30 3219 H 302.777 2.74913 1.72027 0
M  V30 3220 H 302.562 3.90327 0.372472 0
M  V30 3221 H 304.052 3.94777 1.36165 0
M  V30 3222 N 304.489 0.459591 1.5075 0
M  V30 3223 C 305.738 -0.100971 2.01447 0
M  V30 3224 C 306.051 -1.41816 1.34713 0
M  V30 3225 O 307.257 -2.06299 1.76502 0
M  V30 3226 C 305.713 -0.23047 3.59161 0
M  V30 3227 C 305.321 1.0776 4.34847 0
M  V30 3228 C 307.065 -0.743608 4.17936 0
M  V30 3229 C 304.972 0.91253 5.84317 0
M  V30 3230 H 303.902 -0.0415102 0.752856 0
M  V30 3231 H 306.553 0.592742 1.73663 0
M  V30 3232 H 304.935 -0.987703 3.83485 0
M  V30 3233 H 306.109 1.8449 4.22256 0
M  V30 3234 H 304.424 1.52097 3.87628 0
M  V30 3235 H 307.021 -0.883959 5.27343 0
M  V30 3236 H 307.364 -1.73196 3.78562 0
M  V30 3237 H 307.897 -0.04408 3.97776 0
M  V30 3238 H 304.636 1.87391 6.28144 0
M  V30 3239 H 304.156 0.185422 5.99513 0
M  V30 3240 H 305.835 0.574547 6.44444 0
M  V30 3241 N 305.967 -1.56429 0.191757 0
M  V30 3242 C 307.216 -1.9666 -0.448088 0
M  V30 3243 C 307.529 -1.08136 -1.62991 0
M  V30 3244 O 308.735 -1.38135 -2.33733 0
M  V30 3245 C 307.191 -3.49753 -0.848585 0
M  V30 3246 C 306.799 -4.46935 0.308764 0
M  V30 3247 C 308.543 -3.9876 -1.4557 0
M  V30 3248 C 306.45 -5.91293 -0.112506 0
M  V30 3249 H 305.38 -0.734312 -0.171179 0
M  V30 3250 H 308.031 -1.81301 0.283242 0
M  V30 3251 H 306.413 -3.60604 -1.63649 0
M  V30 3252 H 307.587 -4.47813 1.08627 0
M  V30 3253 H 305.902 -4.08102 0.827158 0
M  V30 3254 H 308.499 -5.04086 -1.78328 0
M  V30 3255 H 308.842 -3.42875 -2.36099 0
M  V30 3256 H 309.375 -3.9101 -0.731836 0
M  V30 3257 H 306.114 -6.51097 0.758514 0
M  V30 3258 H 305.634 -5.93676 -0.854941 0
M  V30 3259 H 307.313 -6.44663 -0.549448 0
M  V30 3260 N 307.445 0.0818655 -1.57387 0
M  V30 3261 C 308.67 0.799946 -1.91352 0
M  V30 3262 C 309.095 1.70833 -0.787258 0
M  V30 3263 O 308.453 1.79419 0.26048 0
M  V30 3264 C 308.501 1.57812 -3.24234 0
M  V30 3265 O 307.605 2.68806 -3.12757 0
M  V30 3266 H 306.946 0.21891 -0.626877 0
M  V30 3267 H 309.476 0.0531256 -2.04531 0
M  V30 3268 H 309.486 1.95952 -3.57864 0
M  V30 3269 H 308.161 0.911548 -4.05788 0
M  V30 3270 H 306.738 2.33597 -2.90666 0
M  V30 3271 O 308.962 1.59916 0.225637 0
M  V30 3272 H 309.653 1.73205 0.867161 0
M  V30 END ATOM
M  V30 BEGIN BOND
M  V30 END BOND
M  V30 END CTAB
M  END
$$$$
