drugbank_target|Q9UNA0 A disintegrin and metalloproteinase with thrombospondin motifs 5 (DB03880; DB06837; DB06945)
 OpenBabel12092120373D

  0  0  0     0  0            999 V3000
M  V30 BEGIN CTAB
M  V30 COUNTS 14180 14350 0 0 0
M  V30 BEGIN ATOM
M  V30 1 H -0.908 1.98254 -0.117106 0
M  V30 2 N 0 1.576 0 0
M  V30 3 C 0.933 2.03868 1.02534 0
M  V30 4 C 1.911 0.928543 1.3348 0
M  V30 5 O 3.095 1.19667 1.45644 0
M  V30 6 C 0.222 2.43627 2.35294 0
M  V30 7 C -0.732 3.65373 2.2001 0
M  V30 8 S 0.101 5.13292 1.52614 0
M  V30 9 C 1.257 5.56322 2.86805 0
M  V30 10 H 1.49 2.90518 0.631377 0
M  V30 11 H -0.977 1.52953 0.210867 0
M  V30 12 H 0.981 2.67203 3.11629 0
M  V30 13 H -0.358 1.57376 2.7183 0
M  V30 14 H -1.165 3.90944 3.18086 0
M  V30 15 H -1.563 3.418 1.51819 0
M  V30 16 H 0.729 5.58782 3.83104 0
M  V30 17 H 1.672 6.56266 2.65933 0
M  V30 18 H 2.08 4.83886 2.90714 0
M  V30 19 N 1.4781 -0.272755 1.55222 0
M  V30 20 C 2.4081 -1.34136 1.91127 0
M  V30 21 C 3.3891 -1.51513 0.773168 0
M  V30 22 O 4.5741 -1.64552 1.03132 0
M  V30 23 C 1.7041 -2.70083 2.1834 0
M  V30 24 C 0.6581 -2.67437 3.34158 0
M  V30 25 C -0.0159 -4.06938 3.46851 0
M  V30 26 C 1.2841 -2.26686 4.70543 0
M  V30 27 H 2.9781 -1.04333 2.80633 0
M  V30 28 H 0.5241 -0.500454 1.35024 0
M  V30 29 H 2.4771 -3.44952 2.42046 0
M  V30 30 H 1.2011 -3.01469 1.25634 0
M  V30 31 H -0.1399 -1.95026 3.1042 0
M  V30 32 H -0.4919 -4.35547 2.51611 0
M  V30 33 H -0.7919 -4.06062 4.2472 0
M  V30 34 H 0.7321 -4.83545 3.72849 0
M  V30 35 H 2.1461 -2.91277 4.93792 0
M  V30 36 H 0.5431 -2.36971 5.5133 0
M  V30 37 H 1.6131 -1.21818 4.69349 0
M  V30 38 N 2.9562 -1.48159 -0.537278 0
M  V30 39 C 3.8862 -1.65029 -1.6519 0
M  V30 40 C 4.8672 -0.499281 -1.62607 0
M  V30 41 O 6.0522 -0.730972 -1.79918 0
M  V30 42 C 3.1822 -1.68303 -3.03795 0
M  V30 43 C 2.1362 -2.8283 -3.21234 0
M  V30 44 C 1.4622 -2.71189 -4.60826 0
M  V30 45 C 2.7622 -4.24211 -3.04701 0
M  V30 46 H 4.4562 -2.58341 -1.51328 0
M  V30 47 H 2.0022 -1.24325 -0.726585 0
M  V30 48 H 3.9552 -1.78693 -3.81637 0
M  V30 49 H 2.6792 -0.715635 -3.18663 0
M  V30 50 H 1.3382 -2.71983 -2.45807 0
M  V30 51 H 0.9862 -1.72435 -4.7252 0
M  V30 52 H 0.6862 -3.48035 -4.7344 0
M  V30 53 H 2.2102 -2.83537 -5.40777 0
M  V30 54 H 3.6242 -4.3593 -3.72341 0
M  V30 55 H 2.0212 -5.01998 -3.28813 0
M  V30 56 H 3.0912 -4.41184 -2.01209 0
M  V30 57 N 4.4343 0.785586 -1.36625 0
M  V30 58 C 5.6823 1.54057 -1.30808 0
M  V30 59 C 6.0033 1.94683 0.111157 0
M  V30 60 O 5.2733 1.65241 1.05224 0
M  V30 61 H 3.8533 0.571354 -0.481211 0
M  V30 62 H 6.5153 0.935821 -1.70963 0
M  V30 63 H 5.6113 2.44637 -1.93801 0
M  V30 64 N 5.9124 1.20967 1.01018 0
M  V30 65 C 7.1584 1.0353 1.7508 0
M  V30 66 C 7.5134 -0.42734 1.87594 0
M  V30 67 O 6.8064 -1.31298 1.3954 0
M  V30 68 C 7.0004 1.65997 3.16512 0
M  V30 69 C 6.8294 3.18184 3.17788 0
M  V30 70 C 5.5994 3.87198 3.24662 0
M  V30 71 C 7.7974 4.15334 3.03319 0
M  V30 72 N 5.7794 5.26618 3.15509 0
M  V30 73 C 7.1504 5.41472 3.02007 0
M  V30 74 C 9.2054 4.06449 2.87583 0
M  V30 75 C 7.9084 6.5975 2.86571 0
M  V30 76 C 9.9344 5.24357 2.73503 0
M  V30 77 C 9.2964 6.49404 2.72862 0
M  V30 78 H 5.3954 0.433137 0.651089 0
M  V30 79 H 7.9794 1.5324 1.20107 0
M  V30 80 H 6.1504 1.18863 3.69765 0
M  V30 81 H 7.8824 1.41816 3.79039 0
M  V30 82 H 4.6374 3.38093 3.31648 0
M  V30 83 H 5.0614 5.99626 3.14289 0
M  V30 84 H 9.7034 3.10573 2.86887 0
M  V30 85 H 7.4214 7.55792 2.86015 0
M  V30 86 H 11.0074 5.19299 2.62334 0
M  V30 87 H 9.8874 7.39105 2.62093 0
M  V30 88 N 7.3905 -1.2043 1.01659 0
M  V30 89 C 8.3535 -2.21433 0.591616 0
M  V30 90 C 9.3535 -1.57203 -0.338226 0
M  V30 91 O 10.5435 -1.73737 -0.126918 0
M  V30 92 C 7.6755 -3.40628 -0.136058 0
M  V30 93 H 8.8685 -2.60545 1.48514 0
M  V30 94 H 6.4215 -1.33893 0.806379 0
M  V30 95 H 7.1565 -3.07019 -1.04449 0
M  V30 96 H 6.9415 -3.88475 0.531917 0
M  V30 97 H 8.4315 -4.15475 -0.420735 0
M  V30 98 N 8.8686 -0.792821 -1.36206 0
M  V30 99 C 10.0936 -0.377701 -2.03932 0
M  V30 100 C 10.5186 0.998947 -1.59382 0
M  V30 101 O 9.8766 1.64421 -0.763903 0
M  V30 102 C 9.9246 -0.453635 -3.57735 0
M  V30 103 O 9.0286 0.538151 -4.08874 0
M  V30 104 H 8.3696 -0.159855 -0.644471 0
M  V30 105 H 10.8996 -1.07488 -1.7409 0
M  V30 106 H 10.9096 -0.318464 -4.06755 0
M  V30 107 H 9.5846 -1.45784 -3.89512 0
M  V30 108 H 8.1616 0.364359 -3.71116 0
M  V30 109 N 10.3467 1.47872 -0.545128 0
M  V30 110 C 11.2767 2.32661 0.197793 0
M  V30 111 C 12.2577 1.43041 0.920504 0
M  V30 112 O 13.4427 1.71912 0.90333 0
M  V30 113 C 10.5727 3.24569 1.23582 0
M  V30 114 C 9.5267 4.23333 0.630323 0
M  V30 115 C 8.8527 5.0448 1.77211 0
M  V30 116 C 10.1527 5.20704 -0.407974 0
M  V30 117 H 11.8467 2.95024 -0.510045 0
M  V30 118 H 9.3927 1.4187 -0.246731 0
M  V30 119 H 11.3457 3.8272 1.76362 0
M  V30 120 H 10.0697 2.60236 1.97344 0
M  V30 121 H 8.7287 3.6639 0.123922 0
M  V30 122 H 8.3767 4.36561 2.49847 0
M  V30 123 H 8.0767 5.71339 1.37281 0
M  V30 124 H 9.6007 5.65487 2.3034 0
M  V30 125 H 11.0147 5.7329 0.033305 0
M  V30 126 H 9.4117 5.95699 -0.725486 0
M  V30 127 H 10.4817 4.66917 -1.30828 0
M  V30 128 N 11.8248 0.280983 1.55075 0
M  V30 129 C 12.7548 -0.597469 2.25727 0
M  V30 130 C 13.7358 -1.15417 1.24952 0
M  V30 131 O 14.9208 -1.18722 1.53684 0
M  V30 132 C 12.0508 -1.7789 2.98283 0
M  V30 133 C 11.0048 -1.35347 4.06036 0
M  V30 134 C 10.3308 -2.61846 4.66198 0
M  V30 135 C 11.6308 -0.499354 5.19907 0
M  V30 136 H 13.3248 -0.00824265 2.99399 0
M  V30 137 H 10.8708 -0.0025244 1.44 0
M  V30 138 H 12.8238 -2.39937 3.46422 0
M  V30 139 H 11.5478 -2.39405 2.22155 0
M  V30 140 H 10.2068 -0.756156 3.58717 0
M  V30 141 H 9.8548 -3.21632 3.86732 0
M  V30 142 H 9.5548 -2.3409 5.38958 0
M  V30 143 H 11.0788 -3.24732 5.1709 0
M  V30 144 H 12.4928 -1.02498 5.64063 0
M  V30 145 H 10.8898 -0.316424 5.99265 0
M  V30 146 H 11.9598 0.480459 4.82514 0
M  V30 147 N 13.3029 -1.57598 0.00835791 0
M  V30 148 C 14.2329 -2.1198 -0.979113 0
M  V30 149 C 15.2139 -1.03091 -1.35301 0
M  V30 150 O 16.3989 -1.30818 -1.43528 0
M  V30 151 C 13.5289 -2.62995 -2.26828 0
M  V30 152 C 12.4829 -3.76485 -2.03576 0
M  V30 153 C 11.8089 -4.13846 -3.38579 0
M  V30 154 C 13.1089 -5.0342 -1.39161 0
M  V30 155 H 14.8029 -2.94738 -0.526281 0
M  V30 156 H 12.3489 -1.41783 -0.251704 0
M  V30 157 H 14.3019 -2.99669 -2.96271 0
M  V30 158 H 13.0259 -1.7737 -2.7424 0
M  V30 159 H 11.6849 -3.40217 -1.36557 0
M  V30 160 H 11.3329 -3.25232 -3.83709 0
M  V30 161 H 11.0329 -4.90312 -3.23834 0
M  V30 162 H 12.5569 -4.53086 -4.09323 0
M  V30 163 H 13.9709 -5.37812 -1.98573 0
M  V30 164 H 12.3679 -5.84746 -1.34878 0
M  V30 165 H 13.4379 -4.83548 -0.361868 0
M  V30 166 N 14.781 0.264519 -1.55364 0
M  V30 167 C 16.021 1.00254 -1.78125 0
M  V30 168 C 16.385 1.83187 -0.575017 0
M  V30 169 O 17.586 2.60029 -0.681042 0
M  V30 170 C 15.857 1.85478 -3.05504 0
M  V30 171 S 17.416 2.6543 -3.49417 0
M  V30 172 H 14.234 0.337522 -0.625779 0
M  V30 173 H 16.836 0.272111 -1.93597 0
M  V30 174 H 15.54 1.23491 -3.9138 0
M  V30 175 H 15.071 2.62827 -2.92721 0
M  V30 176 H 17.086 3.87958 -3.09359 0
M  V30 177 N 16.2591 1.48442 0.529413 0
M  V30 178 C 17.2221 1.62524 1.61612 0
M  V30 179 C 18.2221 0.498509 1.52877 0
M  V30 180 O 19.4121 0.76431 1.56537 0
M  V30 181 C 16.5441 1.59597 3.01233 0
M  V30 182 H 17.7371 2.59423 1.50465 0
M  V30 183 H 15.2901 1.37047 0.751514 0
M  V30 184 H 16.0251 0.641781 3.17886 0
M  V30 185 H 15.8101 2.41397 3.08982 0
M  V30 186 H 17.3001 1.72646 3.80241 0
M  V30 187 N 17.7372 -0.778329 1.37039 0
M  V30 188 C 18.9842 -1.53665 1.31884 0
M  V30 189 C 19.3122 -1.9425 -0.0986303 0
M  V30 190 O 18.5672 -1.63832 -1.07041 0
M  V30 191 C 18.8662 -2.81845 2.19768 0
M  V30 192 C 18.5322 -2.60345 3.68146 0
M  V30 193 C 17.1942 -2.5419 4.08584 0
M  V30 194 C 19.5462 -2.40923 4.62175 0
M  V30 195 C 16.8742 -2.26594 5.41177 0
M  V30 196 C 19.2262 -2.14852 5.94997 0
M  V30 197 C 17.8902 -2.07137 6.34547 0
M  V30 198 H 17.1602 -0.562299 0.482598 0
M  V30 199 H 19.8072 -0.897069 1.69189 0
M  V30 200 H 18.1122 -3.50328 1.75436 0
M  V30 201 H 19.8092 -3.39692 2.13097 0
M  V30 202 H 16.3992 -2.65996 3.36072 0
M  V30 203 H 20.5832 -2.44673 4.31797 0
M  V30 204 H 15.8392 -2.19111 5.70789 0
M  V30 205 H 20.0132 -1.98822 6.67415 0
M  V30 206 H 17.6402 -1.85518 7.37216 0
M  V30 207 N 19.2153 -1.21501 -1.00376 0
M  V30 208 C 20.6313 -0.972629 -1.26539 0
M  V30 209 C 20.8313 0.340257 -1.98606 0
M  V30 210 O 19.8873 1.06561 -2.28913 0
M  V30 211 C 21.2003 -2.16404 -2.08781 0
M  V30 212 C 22.7483 -2.20643 -2.22004 0
M  V30 213 C 23.2233 -3.39306 -3.07629 0
M  V30 214 N 24.7143 -3.39401 -3.15217 0
M  V30 215 C 25.4493 -4.27867 -3.81729 0
M  V30 216 N 24.9453 -5.26533 -4.5026 0
M  V30 217 N 26.7383 -4.15672 -3.78382 0
M  V30 218 H 18.8893 -2.05929 -0.520281 0
M  V30 219 H 21.1523 -0.901803 -0.292328 0
M  V30 220 H 20.8583 -3.11554 -1.63178 0
M  V30 221 H 20.7323 -2.15567 -3.09533 0
M  V30 222 H 23.1193 -1.26048 -2.66825 0
M  V30 223 H 23.2003 -2.25523 -1.20718 0
M  V30 224 H 22.8443 -4.34195 -2.63509 0
M  V30 225 H 22.7743 -3.31665 -4.09031 0
M  V30 226 H 25.2653 -2.67997 -2.66432 0
M  V30 227 H 25.5783 -5.90337 -4.98721 0
M  V30 228 H 23.9233 -5.30457 -4.49044 0
M  V30 229 H 27.1143 -3.3785 -3.23998 0
M  V30 230 H 27.2873 -4.84825 -4.2994 0
M  V30 231 N 20.6934 1.19889 -1.02296 0
M  V30 232 C 21.6234 2.25141 -0.619174 0
M  V30 233 C 22.6044 1.66051 0.368915 0
M  V30 234 O 23.7894 1.92546 0.252941 0
M  V30 235 C 20.9194 3.4728 0.0368783 0
M  V30 236 C 19.8734 4.19005 -0.872865 0
M  V30 237 C 19.1994 5.34637 -0.0822402 0
M  V30 238 C 20.4994 4.74452 -2.18387 0
M  V30 239 H 22.1934 2.59171 -1.49903 0
M  V30 240 H 19.7394 1.24579 -0.722222 0
M  V30 241 H 21.6924 4.20098 0.330958 0
M  V30 242 H 20.4164 3.12433 0.95149 0
M  V30 243 H 19.0754 3.48061 -1.15105 0
M  V30 244 H 18.7234 4.96034 0.83422 0
M  V30 245 H 18.4234 5.83557 -0.688149 0
M  V30 246 H 19.9474 6.10255 0.205238 0
M  V30 247 H 21.3614 5.39055 -1.95172 0
M  V30 248 H 19.7584 5.33834 -2.74119 0
M  V30 249 H 20.8284 3.92844 -2.84257 0
M  V30 250 N 22.1715 0.800033 1.35784 0
M  V30 251 C 23.5825 0.439142 1.81462 0
M  V30 252 C 23.9335 -1.03813 1.66485 0
M  V30 253 O 23.0585 -1.80626 1.19177 0
M  V30 254 C 23.6535 0.790314 3.29453 0
M  V30 255 C 22.2125 0.482111 3.733 0
M  V30 256 C 21.3595 1.01938 2.57883 0
M  V30 257 H 24.3105 0.992254 1.23855 0
M  V30 258 H 24.3315 0.0853677 3.80404 0
M  V30 259 H 23.8435 1.86554 3.40322 0
M  V30 260 H 21.9445 -0.584652 3.67984 0
M  V30 261 H 22.0575 1.01015 4.6833 0
M  V30 262 H 20.4215 0.442043 2.50835 0
M  V30 263 H 21.2045 2.10059 2.71533 0
M  V30 264 N 23.6496 -1.47581 0.552962 0
M  V30 265 C 24.5796 -2.32762 -0.185451 0
M  V30 266 C 25.5606 -1.43527 -0.912905 0
M  V30 267 O 26.7456 -1.72388 -0.894201 0
M  V30 268 C 23.8756 -3.25219 -1.21859 0
M  V30 269 C 22.8296 -4.23661 -0.607864 0
M  V30 270 C 22.1556 -5.05413 -1.74533 0
M  V30 271 C 23.4556 -5.20481 0.435582 0
M  V30 272 H 25.1496 -2.94749 0.525684 0
M  V30 273 H 22.6956 -1.41738 0.254251 0
M  V30 274 H 24.6486 -3.8365 -1.7433 0
M  V30 275 H 23.3726 -2.61279 -1.95961 0
M  V30 276 H 22.0316 -3.66451 -0.104489 0
M  V30 277 H 21.6796 -4.3788 -2.47529 0
M  V30 278 H 21.3796 -5.72059 -1.34249 0
M  V30 279 H 22.9036 -5.66701 -2.27338 0
M  V30 280 H 24.3176 -5.733 -0.00290157 0
M  V30 281 H 22.7146 -5.95305 0.757067 0
M  V30 282 H 23.7846 -4.66217 1.33303 0
M  V30 283 N 25.1277 -0.289203 -1.54924 0
M  V30 284 C 26.0907 0.579144 -2.21762 0
M  V30 285 C 27.0907 1.07047 -1.1999 0
M  V30 286 O 28.2807 0.968384 -1.44803 0
M  V30 287 C 25.4127 1.80055 -2.8947 0
M  V30 288 H 26.6057 -0.00464908 -2.999 0
M  V30 289 H 24.1587 -0.0399306 -1.56249 0
M  V30 290 H 24.8937 2.42449 -2.15381 0
M  V30 291 H 24.6787 1.45602 -3.64064 0
M  V30 292 H 26.1687 2.41773 -3.40493 0
M  V30 293 N 26.6058 1.57591 -0.0167156 0
M  V30 294 C 27.5688 2.08393 0.954204 0
M  V30 295 C 28.5688 0.996531 1.26198 0
M  V30 296 O 29.7588 1.25858 1.20438 0
M  V30 297 C 26.8908 2.5394 2.27436 0
M  V30 298 H 28.0838 2.95455 0.514451 0
M  V30 299 H 25.6368 1.54582 0.231089 0
M  V30 300 H 26.3718 1.70171 2.76066 0
M  V30 301 H 26.1568 3.33371 2.06412 0
M  V30 302 H 27.6468 2.93512 2.97053 0
M  V30 303 N 28.0839 -0.256276 1.55502 0
M  V30 304 C 29.3299 -0.987079 1.77157 0
M  V30 305 C 29.6629 -1.85327 0.580315 0
M  V30 306 O 28.9379 -1.89874 -0.421686 0
M  V30 307 C 29.2209 -1.85553 3.08613 0
M  V30 308 C 29.0739 -1.01816 4.38125 0
M  V30 309 C 30.3929 -2.8397 3.36228 0
M  V30 310 H 27.5119 -0.357428 0.644526 0
M  V30 311 H 30.1539 -0.258239 1.88237 0
M  V30 312 H 28.3039 -2.47695 2.99298 0
M  V30 313 H 29.9759 -0.416159 4.59419 0
M  V30 314 H 28.2189 -0.322178 4.32602 0
M  V30 315 H 28.8899 -1.65939 5.26468 0
M  V30 316 H 31.3659 -2.31964 3.45445 0
M  V30 317 H 30.2419 -3.41864 4.29442 0
M  V30 318 H 30.5029 -3.59955 2.56681 0
M  V30 319 N 29.562 -1.4872 -0.521534 0
M  V30 320 C 30.81 -1.56857 -1.27437 0
M  V30 321 C 31.131 -0.247982 -1.93417 0
M  V30 322 O 30.401 0.731151 -1.81744 0
M  V30 323 H 28.981 -0.577885 -0.473347 0
M  V30 324 H 31.643 -1.85233 -0.606205 0
M  V30 325 H 30.739 -2.35402 -2.0492 0
M  V30 326 N 31.0401 0.771051 -1.3745 0
M  V30 327 C 32.4511 1.34737 -1.29239 0
M  V30 328 C 32.8021 1.96109 0.0596908 0
M  V30 329 O 31.9271 1.93865 0.961534 0
M  V30 330 C 32.5221 2.44973 -2.34037 0
M  V30 331 C 31.0811 2.98372 -2.29458 0
M  V30 332 C 30.2281 1.71595 -2.17831 0
M  V30 333 H 33.1791 0.571256 -1.48062 0
M  V30 334 H 33.2001 3.24471 -1.98744 0
M  V30 335 H 32.7121 2.00276 -3.32432 0
M  V30 336 H 30.8131 3.47443 -1.34589 0
M  V30 337 H 30.9261 3.53939 -3.229 0
M  V30 338 H 29.2901 1.94547 -1.64388 0
M  V30 339 H 30.0731 1.29001 -3.18141 0
M  V30 340 N 32.5182 1.22032 0.997298 0
M  V30 341 C 33.4812 0.987909 2.06816 0
M  V30 342 C 34.4812 -0.0440084 1.6074 0
M  V30 343 O 35.6712 0.194053 1.73116 0
M  V30 344 C 32.8032 0.49132 3.37341 0
M  V30 345 H 33.9962 1.93803 2.28868 0
M  V30 346 H 31.5492 1.03838 1.16822 0
M  V30 347 H 32.2842 -0.463364 3.20973 0
M  V30 348 H 32.0692 1.23575 3.72118 0
M  V30 349 H 33.5592 0.348824 4.16141 0
M  V30 350 N 33.9963 -1.19345 1.0293 0
M  V30 351 C 34.9593 -2.20793 0.615069 0
M  V30 352 C 35.9593 -1.57553 -0.321533 0
M  V30 353 O 37.1493 -1.73862 -0.108483 0
M  V30 354 C 34.2813 -3.40754 -0.0999222 0
M  V30 355 H 35.4743 -2.58955 1.51269 0
M  V30 356 H 33.0273 -1.3303 0.820534 0
M  V30 357 H 33.7623 -3.0811 -1.01187 0
M  V30 358 H 33.5473 -3.87889 0.57309 0
M  V30 359 H 35.0373 -4.15898 -0.376645 0
M  V30 360 N 35.4744 -0.807222 -1.35358 0
M  V30 361 C 36.7024 -0.400377 -2.02989 0
M  V30 362 C 37.1174 0.988859 -1.60832 0
M  V30 363 O 36.4744 1.63729 -0.806175 0
M  V30 364 C 36.5254 -0.474867 -3.58368 0
M  V30 365 O 36.2464 -1.80933 -3.98992 0
M  V30 366 C 37.7474 -0.0609112 -4.43258 0
M  V30 367 H 34.9674 -0.162587 -0.651004 0
M  V30 368 H 37.5114 -1.09102 -1.72965 0
M  V30 369 H 35.6664 0.167534 -3.87038 0
M  V30 370 H 36.0804 -1.77256 -4.9364 0
M  V30 371 H 37.5544 -0.164145 -5.51756 0
M  V30 372 H 38.0314 0.993831 -4.27808 0
M  V30 373 H 38.6374 -0.676492 -4.19885 0
M  V30 374 N 36.9525 1.47285 -0.560781 0
M  V30 375 C 38.3635 1.86258 -0.128343 0
M  V30 376 C 38.7145 1.46699 1.30284 0
M  V30 377 O 37.8395 0.871698 1.98067 0
M  V30 378 C 38.4345 3.38044 -0.22614 0
M  V30 379 C 36.9935 3.76096 0.151283 0
M  V30 380 C 36.1405 2.71335 -0.572084 0
M  V30 381 H 39.0915 1.38752 -0.770297 0
M  V30 382 H 39.1125 3.76441 0.554322 0
M  V30 383 H 38.6245 3.66806 -1.26788 0
M  V30 384 H 36.7255 3.52951 1.19399 0
M  V30 385 H 36.8385 4.78641 -0.209765 0
M  V30 386 H 35.2025 2.54696 -0.0147653 0
M  V30 387 H 35.9855 3.02938 -1.61504 0
M  V30 388 N 38.4306 0.297415 1.54768 0
M  V30 389 C 39.3936 -0.567375 2.22066 0
M  V30 390 C 40.3936 -1.06409 1.20556 0
M  V30 391 O 41.5836 -0.960691 1.45315 0
M  V30 392 C 38.7156 -1.78517 2.90421 0
M  V30 393 H 39.9086 0.0205534 2.99893 0
M  V30 394 H 37.4616 0.0482163 1.56226 0
M  V30 395 H 38.1966 -2.41303 2.16664 0
M  V30 396 H 37.9816 -1.43669 3.64831 0
M  V30 397 H 39.4716 -2.39964 3.41771 0
M  V30 398 N 39.9087 -1.5758 0.0250728 0
M  V30 399 C 40.8407 -2.06869 -0.986796 0
M  V30 400 C 41.8537 -0.991332 -1.29137 0
M  V30 401 O 43.0427 -1.26761 -1.25674 0
M  V30 402 C 40.1427 -2.47486 -2.31525 0
M  V30 403 C 39.3157 -3.78253 -2.19643 0
M  V30 404 C 38.3747 -4.05464 -3.35388 0
M  V30 405 O 37.4007 -4.75774 -3.12454 0
M  V30 406 N 38.6027 -3.55321 -4.59051 0
M  V30 407 H 41.3677 -2.94302 -0.566276 0
M  V30 408 H 38.9287 -1.6109 -0.161776 0
M  V30 409 H 40.9207 -2.62785 -3.07776 0
M  V30 410 H 39.4907 -1.65441 -2.65232 0
M  V30 411 H 38.7107 -3.7279 -1.28144 0
M  V30 412 H 39.9987 -4.63936 -2.08903 0
M  V30 413 H 39.3967 -2.98431 -4.80578 0
M  V30 414 H 37.9537 -3.75905 -5.32483 0
M  V30 415 N 41.3868 0.248026 -1.55636 0
M  V30 416 C 42.6638 0.998988 -1.68165 0
M  V30 417 C 43.0438 2.03409 -0.564621 0
M  V30 418 O 42.3918 2.24378 0.432076 0
M  V30 419 C 42.6018 1.63334 -3.0842 0
M  V30 420 C 43.9498 2.13562 -3.66983 0
M  V30 421 O 44.9738 1.73277 -3.11213 0
M  V30 422 O 43.8328 2.87526 -4.64749 0
M  V30 423 H 40.9268 0.464933 -0.683935 0
M  V30 424 H 43.4728 0.241902 -1.67967 0
M  V30 425 H 42.2448 0.884583 -3.8117 0
M  V30 426 H 41.8678 2.45666 -3.12624 0
M  V30 427 N 42.8649 1.48995 0.513639 0
M  V30 428 C 43.8119 1.6473 1.61656 0
M  V30 429 C 44.7819 0.488984 1.58739 0
M  V30 430 O 45.9669 0.714478 1.76918 0
M  V30 431 C 43.1069 1.7082 2.99858 0
M  V30 432 C 42.2199 2.9787 3.12885 0
M  V30 433 C 41.3549 2.95017 4.41744 0
M  V30 434 C 40.3939 4.16702 4.48359 0
M  V30 435 N 39.5309 4.11832 5.68629 0
M  V30 436 H 44.3709 2.58909 1.47547 0
M  V30 437 H 41.9079 1.28382 0.71808 0
M  V30 438 H 43.8659 1.72331 3.79944 0
M  V30 439 H 42.4959 0.801181 3.12699 0
M  V30 440 H 41.5479 3.06029 2.25944 0
M  V30 441 H 42.8599 3.8786 3.13633 0
M  V30 442 H 42.0139 2.95021 5.30139 0
M  V30 443 H 40.7529 2.02784 4.43542 0
M  V30 444 H 39.7579 4.16955 3.58369 0
M  V30 445 H 40.9829 5.10113 4.48287 0
M  V30 446 H 38.9289 3.22428 5.71293 0
M  V30 447 H 38.8459 4.95543 5.7094 0
M  V30 448 H 40.1139 4.1592 6.59266 0
M  V30 449 N 44.343 -0.763751 1.37857 0
M  V30 450 C 45.306 -1.85889 1.34081 0
M  V30 451 C 46.306 -1.58949 0.243277 0
M  V30 452 O 47.496 -1.66882 0.499589 0
M  V30 453 C 44.628 -3.23176 1.08489 0
M  V30 454 H 45.821 -1.90648 2.31502 0
M  V30 455 H 43.374 -0.964367 1.23003 0
M  V30 456 H 44.109 -3.24091 0.116318 0
M  V30 457 H 43.894 -3.44124 1.8794 0
M  V30 458 H 45.384 -4.03254 1.08517 0
M  V30 459 N 45.8211 -1.22559 -0.990812 0
M  V30 460 C 47.0691 -1.04933 -1.72724 0
M  V30 461 C 47.3901 0.416158 -1.90508 0
M  V30 462 O 46.6601 1.29918 -1.46622 0
M  V30 463 H 45.2401 -0.385296 -0.639965 0
M  V30 464 H 47.9021 -1.54105 -1.19322 0
M  V30 465 H 46.9981 -1.52886 -2.72089 0
M  V30 466 N 47.2992 1.18797 -1.03562 0
M  V30 467 C 48.2312 2.21731 -0.580337 0
M  V30 468 C 49.2442 1.59051 0.347349 0
M  V30 469 O 50.4332 1.77929 0.142669 0
M  V30 470 C 47.5332 3.38459 0.172805 0
M  V30 471 C 46.7062 4.3072 -0.761496 0
M  V30 472 C 45.7652 5.26174 -0.0525547 0
M  V30 473 O 44.7912 5.65108 -0.681333 0
M  V30 474 N 45.9932 5.67624 1.21586 0
M  V30 475 H 48.7582 2.61417 -1.46565 0
M  V30 476 H 46.3192 1.33531 -0.915476 0
M  V30 477 H 48.3112 3.99335 0.656793 0
M  V30 478 H 46.8812 2.97507 0.959602 0
M  V30 479 H 46.1012 3.67525 -1.42544 0
M  V30 480 H 47.3892 4.89267 -1.39626 0
M  V30 481 H 46.7872 5.38038 1.74732 0
M  V30 482 H 45.3442 6.30721 1.64421 0
M  V30 483 N 48.7773 0.814389 1.34928 0
M  V30 484 C 50.1883 0.458364 1.80986 0
M  V30 485 C 50.5393 -1.02042 1.67577 0
M  V30 486 O 49.6643 -1.79352 1.21086 0
M  V30 487 C 50.2593 0.825212 3.28597 0
M  V30 488 C 48.8183 0.521677 3.72767 0
M  V30 489 C 47.9653 1.04668 2.56788 0
M  V30 490 H 50.9163 1.00533 1.22795 0
M  V30 491 H 50.9373 0.12571 3.80292 0
M  V30 492 H 50.4493 1.90154 3.38324 0
M  V30 493 H 48.5503 -0.545589 3.68584 0
M  V30 494 H 48.6633 1.05977 4.67232 0
M  V30 495 H 47.0273 0.468622 2.50352 0
M  V30 496 H 47.8103 2.12927 2.6929 0
M  V30 497 N 50.2554 -1.46986 0.568584 0
M  V30 498 C 51.6664 -1.86188 0.138219 0
M  V30 499 C 52.0174 -1.47388 -1.29504 0
M  V30 500 O 51.1424 -0.88219 -1.97602 0
M  V30 501 C 51.7374 -3.3792 0.244065 0
M  V30 502 C 50.2964 -3.76171 -0.131335 0
M  V30 503 C 49.4434 -2.71027 0.586465 0
M  V30 504 H 52.3944 -1.38342 0.777645 0
M  V30 505 H 52.4154 -3.76729 -0.534351 0
M  V30 506 H 51.9274 -3.66128 1.28731 0
M  V30 507 H 50.0284 -3.5358 -1.17526 0
M  V30 508 H 50.1414 -4.78523 0.235146 0
M  V30 509 H 48.5054 -2.54684 0.0282722 0
M  V30 510 H 49.2884 -3.02077 1.63109 0
M  V30 511 N 51.7335 -0.305618 -1.54608 0
M  V30 512 C 52.9615 0.304775 -2.04643 0
M  V30 513 C 53.3765 1.47167 -1.18268 0
M  V30 514 O 52.7335 1.81296 -0.209328 0
M  V30 515 C 52.7845 0.756564 -3.53495 0
M  V30 516 O 52.5055 -0.36389 -4.36586 0
M  V30 517 C 54.0065 1.43163 -4.19546 0
M  V30 518 H 51.2265 0.0655481 -0.667791 0
M  V30 519 H 53.7705 -0.446592 -1.99564 0
M  V30 520 H 51.9255 1.45794 -3.58919 0
M  V30 521 H 52.3395 -0.0113121 -5.24499 0
M  V30 522 H 53.8135 1.69886 -5.25207 0
M  V30 523 H 54.2905 2.37318 -3.69563 0
M  V30 524 H 54.8965 0.773307 -4.18211 0
M  V30 525 N 53.2116 1.57565 -0.0334293 0
M  V30 526 C 54.1746 2.09393 0.932048 0
M  V30 527 C 55.1746 1.00986 1.25134 0
M  V30 528 O 56.3646 1.27129 1.19096 0
M  V30 529 C 53.4966 2.56338 2.2473 0
M  V30 530 H 54.6896 2.95984 0.483085 0
M  V30 531 H 52.2426 1.54819 0.21468 0
M  V30 532 H 52.9776 1.7309 2.74245 0
M  V30 533 H 52.7626 3.35542 2.02865 0
M  V30 534 H 54.2526 2.96646 2.93923 0
M  V30 535 N 54.6897 -0.239769 1.55765 0
M  V30 536 C 55.6527 -1.28038 1.90103 0
M  V30 537 C 56.6527 -1.40723 0.778055 0
M  V30 538 O 57.8427 -1.39301 1.04599 0
M  V30 539 C 54.9747 -2.65702 2.13577 0
M  V30 540 H 56.1677 -0.988048 2.83157 0
M  V30 541 H 53.7207 -0.479382 1.48767 0
M  V30 542 H 54.4557 -3.00063 1.23015 0
M  V30 543 H 54.2407 -2.57875 2.95369 0
M  V30 544 H 55.7307 -3.40828 2.41301 0
M  V30 545 N 56.1678 -1.49265 -0.50573 0
M  V30 546 C 57.1308 -1.65075 -1.59006 0
M  V30 547 C 58.1308 -0.522768 -1.52065 0
M  V30 548 O 59.3208 -0.789117 -1.55302 0
M  V30 549 C 56.4528 -1.64369 -2.98656 0
M  V30 550 H 57.6458 -2.61784 -1.46319 0
M  V30 551 H 55.1988 -1.38226 -0.729616 0
M  V30 552 H 55.9338 -0.692272 -3.16825 0
M  V30 553 H 55.7188 -2.46282 -3.05103 0
M  V30 554 H 57.2088 -1.78674 -3.77446 0
M  V30 555 N 57.6459 0.756429 -1.3826 0
M  V30 556 C 58.6089 1.85176 -1.35065 0
M  V30 557 C 59.6089 1.58818 -0.251703 0
M  V30 558 O 60.7989 1.66615 -0.508433 0
M  V30 559 C 57.9309 3.22596 -1.10201 0
M  V30 560 H 59.1239 1.89417 -2.3251 0
M  V30 561 H 56.6769 0.95783 -1.23512 0
M  V30 562 H 57.4119 3.24025 -0.133504 0
M  V30 563 H 57.1969 3.43122 -1.89762 0
M  V30 564 H 58.6869 4.02673 -1.10654 0
M  V30 565 N 59.124 1.23083 0.984299 0
M  V30 566 C 60.087 1.00979 2.05757 0
M  V30 567 C 61.087 -0.0269573 1.60777 0
M  V30 568 O 62.277 0.212403 1.729 0
M  V30 569 C 59.409 0.527072 3.36801 0
M  V30 570 H 60.602 1.9622 2.26799 0
M  V30 571 H 58.155 1.05072 1.15714 0
M  V30 572 H 58.89 -0.429294 3.21446 0
M  V30 573 H 58.675 1.27515 3.70786 0
M  V30 574 H 60.165 0.392942 4.15747 0
M  V30 575 N 60.6021 -1.18246 1.0419 0
M  V30 576 C 61.5341 -2.2142 0.592088 0
M  V30 577 C 62.5471 -1.59233 -0.338909 0
M  V30 578 O 63.7361 -1.78002 -0.133231 0
M  V30 579 C 60.8361 -3.38546 -0.154854 0
M  V30 580 C 60.0091 -4.3031 0.784328 0
M  V30 581 C 59.0681 -5.26138 0.0804583 0
M  V30 582 O 58.0941 -5.64738 0.711292 0
M  V30 583 N 59.2961 -5.68261 -1.18574 0
M  V30 584 H 62.0611 -2.60636 1.47949 0
M  V30 585 H 59.6221 -1.33044 0.922544 0
M  V30 586 H 61.6141 -3.99678 -0.635606 0
M  V30 587 H 60.1841 -2.98012 -0.943811 0
M  V30 588 H 59.4041 -3.66764 1.44491 0
M  V30 589 H 60.6921 -4.8852 1.42218 0
M  V30 590 H 60.0901 -5.38957 -1.71876 0
M  V30 591 H 58.6471 -6.31584 -1.61074 0
M  V30 592 N 62.0802 -0.821533 -1.34494 0
M  V30 593 C 63.4912 -0.467956 -1.8074 0
M  V30 594 C 63.8422 1.01151 -1.68116 0
M  V30 595 O 62.9672 1.78707 -1.22036 0
M  V30 596 C 63.5622 -0.842627 -3.28154 0
M  V30 597 C 62.1212 -0.541439 -3.72485 0
M  V30 598 C 61.2682 -1.06028 -2.56229 0
M  V30 599 H 64.2192 -1.01183 -1.22261 0
M  V30 600 H 64.2402 -0.145876 -3.8022 0
M  V30 601 H 63.7522 -1.91945 -3.37311 0
M  V30 602 H 61.8532 0.526034 -3.68868 0
M  V30 603 H 61.9662 -1.08453 -4.66663 0
M  V30 604 H 60.3302 -0.481892 -2.501 0
M  V30 605 H 61.1132 -2.14352 -2.68157 0
M  V30 606 N 63.5583 1.46682 -0.576371 0
M  V30 607 C 64.9743 1.57822 -0.237562 0
M  V30 608 C 65.1743 1.57237 1.26011 0
M  V30 609 O 64.2303 1.48596 2.04146 0
M  V30 610 C 65.5433 2.87499 -0.881168 0
M  V30 611 C 67.0913 3.01119 -0.85417 0
M  V30 612 C 67.5663 4.33524 -1.4772 0
M  V30 613 N 69.0573 4.40207 -1.44125 0
M  V30 614 C 69.7923 5.4126 -1.89276 0
M  V30 615 N 69.2883 6.49021 -2.42371 0
M  V30 616 N 71.0813 5.32422 -1.80231 0
M  V30 617 H 63.2323 1.45306 -1.54919 0
M  V30 618 H 65.4953 0.692733 -0.647167 0
M  V30 619 H 65.2013 2.9372 -1.93447 0
M  V30 620 H 65.0753 3.75224 -0.385592 0
M  V30 621 H 67.4623 2.94485 0.190491 0
M  V30 622 H 67.5433 2.14887 -1.3877 0
M  V30 623 H 67.1873 4.40916 -2.52103 0
M  V30 624 H 67.1173 5.1852 -0.918947 0
M  V30 625 H 69.6083 3.62931 -1.05307 0
M  V30 626 H 69.9213 7.2233 -2.74698 0
M  V30 627 H 68.2663 6.49858 -2.46393 0
M  V30 628 H 71.4573 4.47137 -1.38514 0
M  V30 629 H 71.6303 6.11034 -2.15735 0
M  V30 630 N 65.0364 0.313813 1.54444 0
M  V30 631 C 66.4524 -0.0391619 1.59552 0
M  V30 632 C 66.6524 -1.51322 1.33056 0
M  V30 633 O 65.7084 -2.26782 1.11022 0
M  V30 634 C 67.0214 0.370302 2.98411 0
M  V30 635 C 68.5694 0.320139 3.11358 0
M  V30 636 C 69.0444 0.704617 4.52547 0
M  V30 637 N 70.5354 0.657645 4.58508 0
M  V30 638 C 71.2704 0.927453 5.6585 0
M  V30 639 N 70.7664 1.26389 6.81174 0
M  V30 640 N 72.5594 0.853662 5.5558 0
M  V30 641 H 64.7104 1.27433 1.69925 0
M  V30 642 H 66.9734 0.517511 0.794284 0
M  V30 643 H 66.6794 1.39694 3.22767 0
M  V30 644 H 66.5534 -0.269619 3.76235 0
M  V30 645 H 68.9404 -0.697275 2.86744 0
M  V30 646 H 69.0214 0.99486 2.35661 0
M  V30 647 H 68.6654 1.7199 4.77893 0
M  V30 648 H 68.5954 0.00768843 5.26599 0
M  V30 649 H 71.0864 0.409067 3.75679 0
M  V30 650 H 71.3994 1.4554 7.58972 0
M  V30 651 H 69.7444 1.30206 6.82694 0
M  V30 652 H 72.9354 0.590383 4.64362 0
M  V30 653 H 73.1084 1.0673 6.3915 0
M  V30 654 N 66.5145 -1.57545 0.0417849 0
M  V30 655 C 67.9305 -1.56467 -0.314704 0
M  V30 656 C 68.1305 -1.04859 -1.72066 0
M  V30 657 O 67.1865 -0.700983 -2.42575 0
M  V30 658 C 68.4995 -3.00317 -0.15174 0
M  V30 659 C 70.0475 -3.12201 -0.223553 0
M  V30 660 C 70.5225 -4.57913 -0.0892295 0
M  V30 661 N 72.0135 -4.6297 -0.145808 0
M  V30 662 C 72.7485 -5.73362 -0.0658459 0
M  V30 663 N 72.2445 -6.92769 0.0659282 0
M  V30 664 N 74.0375 -5.6197 -0.12075 0
M  V30 665 H 66.1885 -1.89416 0.961014 0
M  V30 666 H 68.4515 -0.871862 0.372237 0
M  V30 667 H 68.1575 -3.42073 0.817254 0
M  V30 668 H 68.0315 -3.65892 -0.916692 0
M  V30 669 H 70.4185 -2.70349 -1.18301 0
M  V30 670 H 70.4995 -2.49323 0.571994 0
M  V30 671 H 70.1435 -5.00448 0.866867 0
M  V30 672 H 70.0735 -5.18786 -0.903802 0
M  V30 673 H 72.5645 -3.7709 -0.247286 0
M  V30 674 H 72.8775 -7.72707 0.119905 0
M  V30 675 H 71.2225 -6.94927 0.100885 0
M  V30 676 H 74.4135 -4.67572 -0.222187 0
M  V30 677 H 74.5865 -6.47977 -0.0549735 0
M  V30 678 N 67.9926 0.231505 -1.5589 0
M  V30 679 C 68.9246 1.31006 -1.8807 0
M  V30 680 C 69.9376 1.43539 -0.768145 0
M  V30 681 O 71.1266 1.44614 -1.04638 0
M  V30 682 C 68.2266 2.68688 -2.06543 0
M  V30 683 C 67.3996 2.78228 -3.37502 0
M  V30 684 C 66.4586 3.96857 -3.4553 0
M  V30 685 O 65.4846 3.85662 -4.18633 0
M  V30 686 N 66.6866 5.1072 -2.75944 0
M  V30 687 H 69.4516 1.03731 -2.81176 0
M  V30 688 H 67.0126 0.421573 -1.56315 0
M  V30 689 H 69.0046 3.46412 -2.09239 0
M  V30 690 H 67.5746 2.88605 -1.20109 0
M  V30 691 H 66.7946 1.87059 -3.46991 0
M  V30 692 H 68.0826 2.81564 -4.23791 0
M  V30 693 H 67.4806 5.2271 -2.16311 0
M  V30 694 H 66.0376 5.86523 -2.84314 0
M  V30 695 N 69.4707 1.49531 0.497807 0
M  V30 696 C 70.7187 1.58865 1.24926 0
M  V30 697 C 71.0397 0.278721 1.92998 0
M  V30 698 O 70.3097 -0.702144 1.82885 0
M  V30 699 H 68.8897 0.585343 0.464094 0
M  V30 700 H 71.5517 1.86174 0.57666 0
M  V30 701 H 70.6477 2.38633 2.01149 0
M  V30 702 N 70.9488 -0.749086 1.3866 0
M  V30 703 C 71.8588 -1.89358 1.38494 0
M  V30 704 C 72.8748 -1.71708 0.281476 0
M  V30 705 O 74.0508 -1.94554 0.520643 0
M  V30 706 C 71.1158 -3.24782 1.21316 0
M  V30 707 C 70.1768 -3.54926 2.41508 0
M  V30 708 C 69.4098 -4.83888 2.2514 0
M  V30 709 O 69.6328 -5.56592 1.24746 0
M  V30 710 O 68.5668 -5.13612 3.13826 0
M  V30 711 H 72.3928 -1.92452 2.34938 0
M  V30 712 H 69.9778 -0.894981 1.19626 0
M  V30 713 H 71.8598 -4.05739 1.13814 0
M  V30 714 H 70.5348 -3.2249 0.279592 0
M  V30 715 H 69.4418 -2.74112 2.54585 0
M  V30 716 H 70.7748 -3.61983 3.3351 0
M  V30 717 N 72.4269 -1.23603 -0.977757 0
M  V30 718 C 73.3369 -1.03632 -2.1047 0
M  V30 719 C 74.3529 0.0199435 -1.73989 0
M  V30 720 O 75.5289 -0.176076 -2.00629 0
M  V30 721 C 72.5939 -0.63276 -3.40877 0
M  V30 722 C 71.6549 -1.76437 -3.91367 0
M  V30 723 C 70.8879 -1.37997 -5.15551 0
M  V30 724 O 71.1109 -0.265357 -5.69782 0
M  V30 725 O 70.0449 -2.20201 -5.60174 0
M  V30 726 H 73.8709 -1.98086 -2.30208 0
M  V30 727 H 71.4559 -1.02332 -1.08851 0
M  V30 728 H 73.3379 -0.418761 -4.19314 0
M  V30 729 H 72.0129 0.282754 -3.22463 0
M  V30 730 H 70.9199 -2.03304 -3.14036 0
M  V30 731 H 72.2529 -2.6583 -4.14241 0
M  V30 732 N 73.905 1.17692 -1.04816 0
M  V30 733 C 75.151 1.88137 -0.75711 0
M  V30 734 C 75.484 1.80604 0.713841 0
M  V30 735 O 74.759 1.21146 1.52164 0
M  V30 736 C 75.042 3.38318 -1.2334 0
M  V30 737 C 74.895 3.54622 -2.76701 0
M  V30 738 C 76.214 4.32214 -0.829415 0
M  V30 739 H 73.333 0.683163 -0.27651 0
M  V30 740 H 75.975 1.38424 -1.30149 0
M  V30 741 H 74.125 3.80787 -0.770286 0
M  V30 742 H 75.797 3.21194 -3.31107 0
M  V30 743 H 74.04 2.97026 -3.16161 0
M  V30 744 H 74.711 4.60028 -3.05088 0
M  V30 745 H 77.187 3.97565 -1.22805 0
M  V30 746 H 76.063 5.35838 -1.19033 0
M  V30 747 H 76.324 4.41294 0.266891 0
M  V30 748 N 75.3831 0.828654 1.34056 0
M  V30 749 C 76.3151 0.212052 2.28217 0
M  V30 750 C 77.3281 -0.601362 1.51286 0
M  V30 751 O 78.5171 -0.430104 1.73241 0
M  V30 752 C 75.6171 -0.72088 3.31144 0
M  V30 753 C 74.7901 0.0509587 4.3737 0
M  V30 754 C 73.8491 -0.803766 5.20025 0
M  V30 755 O 72.8751 -0.246667 5.68665 0
M  V30 756 N 74.0771 -2.1227 5.40298 0
M  V30 757 H 76.8421 1.02105 2.81771 0
M  V30 758 H 74.4031 0.686153 1.46641 0
M  V30 759 H 76.3951 -1.29742 3.8334 0
M  V30 760 H 74.9651 -1.43061 2.77943 0
M  V30 761 H 74.1851 0.808831 3.85813 0
M  V30 762 H 75.4731 0.582065 5.0546 0
M  V30 763 H 74.8711 -2.59898 5.02464 0
M  V30 764 H 73.4281 -2.64796 5.95589 0
M  V30 765 N 76.8612 -1.46375 0.584142 0
M  V30 766 C 77.7712 -2.34115 -0.150728 0
M  V30 767 C 78.7872 -1.49838 -0.884567 0
M  V30 768 O 79.9632 -1.82704 -0.847429 0
M  V30 769 C 77.0282 -3.2705 -1.15062 0
M  V30 770 C 76.0892 -4.27228 -0.421293 0
M  V30 771 C 75.3222 -5.15722 -1.37355 0
M  V30 772 O 75.5452 -5.07176 -2.61014 0
M  V30 773 O 74.4792 -5.95383 -0.883355 0
M  V30 774 H 78.3052 -2.98309 0.569708 0
M  V30 775 H 75.8902 -1.45373 0.344535 0
M  V30 776 H 77.7722 -3.84381 -1.72712 0
M  V30 777 H 76.4472 -2.65451 -1.8525 0
M  V30 778 H 75.3542 -3.7358 0.197085 0
M  V30 779 H 76.6872 -4.91616 0.239641 0
M  V30 780 N 78.3393 -0.321999 -1.54275 0
M  V30 781 C 79.7553 0.0306999 -1.5957 0
M  V30 782 C 79.9553 1.50614 -1.33857 0
M  V30 783 O 79.0113 2.2619 -1.12223 0
M  V30 784 C 80.3243 -0.386122 -2.98211 0
M  V30 785 C 81.8723 -0.336647 -3.11184 0
M  V30 786 C 82.3473 -0.728607 -4.52167 0
M  V30 787 N 83.8383 -0.681952 -4.58152 0
M  V30 788 C 84.5733 -0.957449 -5.6535 0
M  V30 789 N 84.0693 -1.3 -6.80494 0
M  V30 790 N 85.8623 -0.883113 -5.55119 0
M  V30 791 H 78.0133 -1.28332 -1.69247 0
M  V30 792 H 80.2763 -0.521716 -0.791528 0
M  V30 793 H 79.9823 -1.41404 -3.22022 0
M  V30 794 H 79.8563 0.249662 -3.76373 0
M  V30 795 H 82.2433 0.682058 -2.8711 0
M  V30 796 H 82.3243 -1.00734 -2.3513 0
M  V30 797 H 81.9683 -1.74522 -4.76974 0
M  V30 798 H 81.8983 -0.0356152 -5.26588 0
M  V30 799 H 84.3893 -0.428985 -3.75457 0
M  V30 800 H 84.7023 -1.49563 -7.58189 0
M  V30 801 H 83.0473 -1.33824 -6.81994 0
M  V30 802 H 86.2383 -0.615001 -4.64042 0
M  V30 803 H 86.4113 -1.10118 -6.38575 0
M  V30 804 N 79.8174 1.5752 -0.0501392 0
M  V30 805 C 80.7804 2.1037 0.909786 0
M  V30 806 C 81.7804 1.02308 1.24056 0
M  V30 807 O 82.9704 1.28385 1.17741 0
M  V30 808 C 80.1024 2.58708 2.21998 0
M  V30 809 H 81.2954 2.96479 0.451665 0
M  V30 810 H 78.8484 1.55038 0.198248 0
M  V30 811 H 79.5834 1.75989 2.72394 0
M  V30 812 H 79.3684 3.37675 1.99295 0
M  V30 813 H 80.8584 2.99747 2.9076 0
M  V30 814 N 81.2955 -0.223234 1.56011 0
M  V30 815 C 82.2055 -1.29766 1.95443 0
M  V30 816 C 83.2215 -1.51373 0.858028 0
M  V30 817 O 84.3975 -1.64536 1.16146 0
M  V30 818 C 81.4625 -2.62772 2.26167 0
M  V30 819 C 80.5235 -2.49482 3.49367 0
M  V30 820 C 79.7565 -3.76145 3.78616 0
M  V30 821 O 79.9795 -4.79087 3.09568 0
M  V30 822 O 78.9135 -3.73358 4.72109 0
M  V30 823 H 82.7395 -0.99309 2.87004 0
M  V30 824 H 80.3245 -0.425958 1.43199 0
M  V30 825 H 82.2065 -3.41327 2.47131 0
M  V30 826 H 80.8815 -2.92913 1.37781 0
M  V30 827 H 79.7885 -1.69133 3.33684 0
M  V30 828 H 81.1215 -2.2428 4.38131 0
M  V30 829 N 82.7736 -1.49793 -0.48987 0
M  V30 830 C 84.1846 -1.52914 -1.07118 0
M  V30 831 C 84.5356 -0.321738 -1.93544 0
M  V30 832 O 83.6606 0.567338 -2.08831 0
M  V30 833 C 84.2556 -2.771 -1.94938 0
M  V30 834 C 82.8146 -2.82963 -2.48212 0
M  V30 835 C 81.9616 -2.46972 -1.26096 0
M  V30 836 H 84.9126 -1.56329 -0.273289 0
M  V30 837 H 84.9336 -2.57892 -2.79771 0
M  V30 838 H 84.4456 -3.64959 -1.32009 0
M  V30 839 H 82.5466 -1.99411 -3.14748 0
M  V30 840 H 82.6596 -3.85406 -2.84603 0
M  V30 841 H 81.0236 -1.98994 -1.58976 0
M  V30 842 H 81.8066 -3.37118 -0.648581 0
M  V30 843 N 84.2517 0.741722 -1.39055 0
M  V30 844 C 85.6627 1.31966 -1.32068 0
M  V30 845 C 86.0137 1.96192 0.0180797 0
M  V30 846 O 85.1387 1.95861 0.920196 0
M  V30 847 C 85.7337 2.39954 -2.39181 0
M  V30 848 C 84.2927 2.93438 -2.35735 0
M  V30 849 C 83.4397 1.66936 -2.21422 0
M  V30 850 H 86.3907 0.539721 -1.4924 0
M  V30 851 H 86.4117 3.20182 -2.05581 0
M  V30 852 H 85.9237 1.9318 -3.36605 0
M  V30 853 H 84.0247 3.4451 -1.41929 0
M  V30 854 H 84.1377 3.4701 -3.30335 0
M  V30 855 H 82.5017 1.91016 -1.68478 0
M  V30 856 H 83.2847 1.22224 -3.20806 0
M  V30 857 N 85.7298 1.2412 0.971189 0
M  V30 858 C 86.9778 1.07668 1.71032 0
M  V30 859 C 87.2988 -0.385797 1.91146 0
M  V30 860 O 86.5688 -1.27569 1.4867 0
M  V30 861 H 85.1488 0.395429 0.633755 0
M  V30 862 H 87.8108 1.55984 1.16855 0
M  V30 863 H 86.9068 1.57195 2.69622 0
M  V30 864 N 87.2079 -1.17134 1.05439 0
M  V30 865 C 88.1579 -2.1919 0.627675 0
M  V30 866 C 89.1419 -1.57328 -0.337147 0
M  V30 867 O 90.3339 -1.76329 -0.153976 0
M  V30 868 C 87.4629 -3.43299 0.00651435 0
M  V30 869 C 86.5489 -4.12255 0.995312 0
M  V30 870 N 86.9399 -4.56997 2.16765 0
M  V30 871 C 85.2379 -4.38316 0.824336 0
M  V30 872 C 85.9389 -5.10239 2.7934 0
M  V30 873 N 84.9149 -5.02595 2.07122 0
M  V30 874 H 88.7169 -2.5149 1.52086 0
M  V30 875 H 86.2309 -1.33491 0.924868 0
M  V30 876 H 88.2279 -4.15693 -0.316965 0
M  V30 877 H 86.8879 -3.1249 -0.882033 0
M  V30 878 H 87.8989 -4.51006 2.54587 0
M  V30 879 H 84.5759 -4.17498 -0.0129526 0
M  V30 880 H 85.9659 -5.54961 3.78772 0
M  V30 881 N 88.686 -0.835752 -1.33615 0
M  V30 882 C 90.097 -0.487099 -1.80234 0
M  V30 883 C 90.448 0.993627 -1.69179 0
M  V30 884 O 89.573 1.77403 -1.23924 0
M  V30 885 C 90.168 -0.877385 -3.27242 0
M  V30 886 C 88.727 -0.580915 -3.7189 0
M  V30 887 C 87.874 -1.0874 -2.5509 0
M  V30 888 H 90.825 -1.02474 -1.2118 0
M  V30 889 H 90.846 -0.186195 -3.80044 0
M  V30 890 H 90.358 -1.95512 -3.35256 0
M  V30 891 H 88.459 0.486881 -3.69405 0
M  V30 892 H 88.572 -1.13396 -4.65487 0
M  V30 893 H 86.936 -0.508392 -2.49575 0
M  V30 894 H 87.719 -2.17184 -2.65868 0
M  V30 895 N 90.1641 1.46063 -0.591896 0
M  V30 896 C 91.1141 2.27458 0.157172 0
M  V30 897 C 92.0981 1.3641 0.853301 0
M  V30 898 O 93.2901 1.60517 0.74588 0
M  V30 899 C 90.4191 3.22956 1.16423 0
M  V30 900 C 89.5051 4.2149 0.469742 0
M  V30 901 N 89.8961 5.03519 -0.479839 0
M  V30 902 C 88.1941 4.40161 0.719319 0
M  V30 903 C 88.8951 5.74904 -0.886591 0
M  V30 904 N 87.8711 5.43097 -0.233731 0
M  V30 905 H 91.6731 2.88272 -0.572392 0
M  V30 906 H 89.1871 1.57024 -0.414375 0
M  V30 907 H 91.1841 3.79986 1.71513 0
M  V30 908 H 89.8441 2.63701 1.89451 0
M  V30 909 H 90.8551 5.1078 -0.855823 0
M  V30 910 H 87.5321 3.92046 1.43548 0
M  V30 911 H 88.9221 6.50844 -1.66888 0
M  V30 912 N 91.6422 0.330177 1.54103 0
M  V30 913 C 93.0532 -0.15652 1.86043 0
M  V30 914 C 93.4042 -1.51086 1.2517 0
M  V30 915 O 92.5292 -2.09023 0.560217 0
M  V30 916 C 93.1242 -0.290784 3.3755 0
M  V30 917 C 91.6832 -0.721705 3.69416 0
M  V30 918 C 90.8302 0.152622 2.7688 0
M  V30 919 H 93.7812 0.550237 1.48856 0
M  V30 920 H 93.8022 -1.12058 3.63625 0
M  V30 921 H 93.3142 0.695068 3.81825 0
M  V30 922 H 91.4152 -1.71706 3.30678 0
M  V30 923 H 91.5282 -0.520869 4.7626 0
M  V30 924 H 89.8922 -0.372894 2.51956 0
M  V30 925 H 90.6752 1.13536 3.23982 0
M  V30 926 N 93.1203 -1.57491 0.0584922 0
M  V30 927 C 94.0503 -2.14988 -0.911178 0
M  V30 928 C 95.0313 -1.07343 -1.31952 0
M  V30 929 O 96.2163 -1.35318 -1.39294 0
M  V30 930 C 93.3463 -2.70078 -2.18347 0
M  V30 931 C 92.3003 -3.82771 -1.91495 0
M  V30 932 C 91.6263 -4.24408 -3.25241 0
M  V30 933 C 92.9263 -5.07592 -1.23075 0
M  V30 934 H 94.6203 -2.96263 -0.432246 0
M  V30 935 H 92.1663 -1.42512 -0.206469 0
M  V30 936 H 94.1193 -3.08943 -2.86587 0
M  V30 937 H 92.8433 -1.86005 -2.68458 0
M  V30 938 H 91.5023 -3.44389 -1.25664 0
M  V30 939 H 91.1503 -3.37275 -3.73168 0
M  V30 940 H 90.8503 -5.00366 -3.08071 0
M  V30 941 H 92.3743 -4.65879 -3.94701 0
M  V30 942 H 93.7883 -5.43857 -1.81362 0
M  V30 943 H 92.1853 -5.88741 -1.16207 0
M  V30 944 H 93.2553 -4.84454 -0.207847 0
M  V30 945 N 94.5984 0.214957 -1.56127 0
M  V30 946 C 95.5614 1.24997 -1.92116 0
M  V30 947 C 96.5614 1.39467 -0.800344 0
M  V30 948 O 97.7514 1.37619 -1.06802 0
M  V30 949 C 94.8834 2.62271 -2.17777 0
M  V30 950 H 96.0764 0.942875 -2.84693 0
M  V30 951 H 93.6294 0.455654 -1.49511 0
M  V30 952 H 94.3644 2.98068 -1.27773 0
M  V30 953 H 94.1494 2.53143 -2.99434 0
M  V30 954 H 95.6394 3.36946 -2.46693 0
M  V30 955 N 96.0765 1.50051 0.48192 0
M  V30 956 C 97.0085 1.64263 1.59844 0
M  V30 957 C 98.0215 0.52451 1.54119 0
M  V30 958 O 99.2105 0.797293 1.59704 0
M  V30 959 C 96.3105 1.60102 2.98698 0
M  V30 960 C 95.4835 2.87767 3.29407 0
M  V30 961 C 94.5425 2.76397 4.47762 0
M  V30 962 O 93.5685 3.50348 4.48603 0
M  V30 963 N 94.7705 1.89222 5.48794 0
M  V30 964 H 97.5355 2.60566 1.48073 0
M  V30 965 H 95.0965 1.47379 0.670149 0
M  V30 966 H 97.0885 1.50123 3.75826 0
M  V30 967 H 95.6585 0.715798 3.04294 0
M  V30 968 H 94.8785 3.11954 2.40994 0
M  V30 969 H 96.1665 3.72365 3.4673 0
M  V30 970 H 95.5645 1.28434 5.50928 0
M  V30 971 H 94.1215 1.85154 6.24949 0
M  V30 972 N 97.5546 -0.734337 1.39446 0
M  V30 973 C 98.9706 -1.03997 1.21065 0
M  V30 974 C 99.1706 -2.01369 0.0727019 0
M  V30 975 O 98.2266 -2.45856 -0.575426 0
M  V30 976 C 99.5396 -1.60163 2.54496 0
M  V30 977 C 101.088 -1.7224 2.61347 0
M  V30 978 C 101.563 -2.31814 3.95002 0
M  V30 979 N 103.054 -2.39223 3.96644 0
M  V30 980 C 103.789 -2.86258 4.96834 0
M  V30 981 N 103.285 -3.33184 6.07421 0
M  V30 982 N 105.078 -2.85473 4.84213 0
M  V30 983 H 97.2286 -0.0885624 2.12215 0
M  V30 984 H 99.4916 -0.10191 0.942506 0
M  V30 985 H 99.1976 -0.960811 3.38321 0
M  V30 986 H 99.0716 -2.5896 2.74262 0
M  V30 987 H 101.459 -2.35443 1.77906 0
M  V30 988 H 101.54 -0.720939 2.4543 0
M  V30 989 H 101.184 -1.69238 4.78875 0
M  V30 990 H 101.114 -3.32638 4.08239 0
M  V30 991 H 103.605 -2.06057 3.16779 0
M  V30 992 H 103.918 -3.67586 6.7978 0
M  V30 993 H 102.263 -3.31191 6.11013 0
M  V30 994 H 105.454 -2.48136 3.96921 0
M  V30 995 H 105.627 -3.21814 5.62441 0
M  V30 996 N 99.0327 -1.24633 -0.964593 0
M  V30 997 C 100.449 -1.01239 -1.2338 0
M  V30 998 C 100.649 0.2769 -1.99588 0
M  V30 999 O 99.7047 0.992241 -2.32187 0
M  V30 1000 C 101.018 -2.22937 -2.01791 0
M  V30 1001 C 102.566 -2.27594 -2.14872 0
M  V30 1002 C 103.041 -3.48921 -2.96678 0
M  V30 1003 N 104.532 -3.49257 -3.04259 0
M  V30 1004 C 105.267 -4.39795 -3.67924 0
M  V30 1005 N 104.763 -5.40591 -4.33281 0
M  V30 1006 N 106.556 -4.275 -3.64966 0
M  V30 1007 H 98.7067 -2.0748 -0.454502 0
M  V30 1008 H 100.97 -0.910647 -0.26349 0
M  V30 1009 H 100.676 -3.16587 -1.53184 0
M  V30 1010 H 100.55 -2.25306 -3.02518 0
M  V30 1011 H 102.937 -1.34473 -2.6268 0
M  V30 1012 H 103.018 -2.2925 -1.13482 0
M  V30 1013 H 102.662 -4.42359 -2.49562 0
M  V30 1014 H 102.592 -3.4451 -3.98272 0
M  V30 1015 H 105.083 -2.76337 -2.57771 0
M  V30 1016 H 105.396 -6.05904 -4.79687 0
M  V30 1017 H 103.741 -5.44475 -4.3194 0
M  V30 1018 H 106.932 -3.47987 -3.13086 0
M  V30 1019 H 107.105 -4.98258 -4.14298 0
M  V30 1020 N 100.511 1.16574 -1.06058 0
M  V30 1021 C 101.927 1.3904 -0.783585 0
M  V30 1022 C 102.127 1.91784 0.618145 0
M  V30 1023 O 101.183 2.11511 1.37911 0
M  V30 1024 C 102.496 2.37329 -1.84649 0
M  V30 1025 C 104.044 2.51018 -1.86973 0
M  V30 1026 C 104.519 3.52588 -2.92311 0
M  V30 1027 N 106.01 3.60113 -2.91329 0
M  V30 1028 C 106.745 4.38486 -3.69482 0
M  V30 1029 N 106.241 5.20302 -4.57447 0
M  V30 1030 N 108.034 4.33446 -3.57885 0
M  V30 1031 H 100.185 0.806725 -1.96483 0
M  V30 1032 H 102.448 0.417117 -0.851303 0
M  V30 1033 H 102.154 2.05663 -2.85299 0
M  V30 1034 H 102.028 3.36946 -1.6955 0
M  V30 1035 H 104.415 2.81989 -0.869827 0
M  V30 1036 H 104.496 1.51445 -2.0615 0
M  V30 1037 H 104.14 3.22354 -3.92492 0
M  V30 1038 H 104.07 4.51886 -2.70383 0
M  V30 1039 H 106.561 3.01707 -2.27555 0
M  V30 1040 H 106.874 5.77311 -5.13743 0
M  V30 1041 H 105.219 5.19653 -4.61503 0
M  V30 1042 H 108.41 3.68586 -2.88551 0
M  V30 1043 H 108.583 4.94279 -4.19037 0
M  V30 1044 N 101.989 0.842826 1.3317 0
M  V30 1045 C 103.214 0.453129 2.02389 0
M  V30 1046 C 103.639 -0.939105 1.6298 0
M  V30 1047 O 102.997 -1.61472 0.8244 0
M  V30 1048 C 103.045 0.586094 3.55805 0
M  V30 1049 O 102.149 -0.386029 4.10589 0
M  V30 1050 H 101.49 0.183664 0.638094 0
M  V30 1051 H 104.02 1.13875 1.69981 0
M  V30 1052 H 104.03 0.469209 4.05293 0
M  V30 1053 H 102.705 1.6014 3.83833 0
M  V30 1054 H 101.282 -0.226371 3.72212 0
M  V30 1055 N 103.467 -1.45747 0.599634 0
M  V30 1056 C 104.414 -2.30467 -0.123849 0
M  V30 1057 C 105.384 -1.41632 -0.86774 0
M  V30 1058 O 106.569 -1.70568 -0.855056 0
M  V30 1059 C 103.709 -3.26402 -1.12051 0
M  V30 1060 C 102.822 -4.3034 -0.37832 0
M  V30 1061 C 101.957 -5.13389 -1.364 0
M  V30 1062 C 100.996 -6.09061 -0.609171 0
M  V30 1063 N 100.133 -6.84918 -1.54374 0
M  V30 1064 H 104.973 -2.91802 0.604627 0
M  V30 1065 H 102.51 -1.43797 0.309972 0
M  V30 1066 H 104.468 -3.80482 -1.7114 0
M  V30 1067 H 103.098 -2.66839 -1.8165 0
M  V30 1068 H 102.15 -3.78984 0.327929 0
M  V30 1069 H 103.462 -4.98354 0.210997 0
M  V30 1070 H 102.616 -5.7183 -2.02719 0
M  V30 1071 H 101.355 -4.45376 -1.98725 0
M  V30 1072 H 100.36 -5.49758 0.0676979 0
M  V30 1073 H 101.585 -6.79099 0.00891991 0
M  V30 1074 H 99.531 -6.19601 -2.15478 0
M  V30 1075 H 99.448 -7.49254 -1.00766 0
M  V30 1076 H 100.716 -7.47906 -2.19676 0
M  V30 1077 N 104.945 -0.338344 -1.53925 0
M  V30 1078 C 106.193 0.259245 -2.0043 0
M  V30 1079 C 106.514 1.51484 -1.22791 0
M  V30 1080 O 105.784 1.93037 -0.33368 0
M  V30 1081 H 104.364 0.0987845 -0.740439 0
M  V30 1082 H 107.026 -0.458302 -1.89435 0
M  V30 1083 H 106.122 0.505334 -3.07982 0
M  V30 1084 N 106.423 1.57458 -0.0668435 0
M  V30 1085 C 107.353 2.15468 0.899764 0
M  V30 1086 C 108.334 1.08042 1.31381 0
M  V30 1087 O 109.519 1.36054 1.38574 0
M  V30 1088 C 106.649 2.71232 2.16911 0
M  V30 1089 C 105.603 3.83781 1.89463 0
M  V30 1090 C 104.929 4.26127 3.22986 0
M  V30 1091 C 106.229 5.08238 1.20381 0
M  V30 1092 H 107.923 2.96488 0.416529 0
M  V30 1093 H 105.469 1.4262 0.198908 0
M  V30 1094 H 107.422 3.10458 2.84945 0
M  V30 1095 H 106.146 1.87426 2.67468 0
M  V30 1096 H 104.805 3.45051 1.23836 0
M  V30 1097 H 104.453 3.39249 3.71374 0
M  V30 1098 H 104.153 5.01993 3.05413 0
M  V30 1099 H 105.677 4.67966 3.92225 0
M  V30 1100 H 107.091 5.44811 1.78475 0
M  V30 1101 H 105.488 5.89349 1.13083 0
M  V30 1102 H 106.558 4.84558 0.182153 0
M  V30 1103 N 107.901 -0.206675 1.56239 0
M  V30 1104 C 109.147 -0.930218 1.80208 0
M  V30 1105 C 109.48 -1.83387 0.638981 0
M  V30 1106 O 108.755 -1.91119 -0.361066 0
M  V30 1107 C 109.038 -1.75641 3.1436 0
M  V30 1108 C 108.891 -0.878257 4.41142 0
M  V30 1109 C 110.21 -2.73129 3.45092 0
M  V30 1110 H 107.329 -0.336742 0.655571 0
M  V30 1111 H 109.971 -0.198222 1.88963 0
M  V30 1112 H 108.121 -2.38048 3.07027 0
M  V30 1113 H 109.793 -0.269787 4.6051 0
M  V30 1114 H 108.036 -0.184385 4.33408 0
M  V30 1115 H 108.707 -1.49106 5.3148 0
M  V30 1116 H 111.183 -2.20856 3.52649 0
M  V30 1117 H 110.059 -3.28028 4.40101 0
M  V30 1118 H 110.32 -3.51606 2.68003 0
M  V30 1119 N 109.379 -1.50304 -0.473955 0
M  V30 1120 C 110.311 -1.65109 -1.58971 0
M  V30 1121 C 111.324 -0.532676 -1.53839 0
M  V30 1122 O 112.513 -0.805751 -1.59279 0
M  V30 1123 C 109.613 -1.61684 -2.97845 0
M  V30 1124 C 108.786 -2.8951 -3.27876 0
M  V30 1125 C 107.845 -2.78768 -4.4629 0
M  V30 1126 O 106.871 -3.52722 -4.46739 0
M  V30 1127 N 108.073 -1.9213 -5.47783 0
M  V30 1128 H 110.838 -2.61347 -1.46689 0
M  V30 1129 H 108.399 -1.47732 -0.662324 0
M  V30 1130 H 110.391 -1.52114 -3.75024 0
M  V30 1131 H 108.961 -0.731925 -3.03911 0
M  V30 1132 H 108.181 -3.13228 -2.39336 0
M  V30 1133 H 109.469 -3.74199 -3.4475 0
M  V30 1134 H 108.867 -1.31353 -5.50239 0
M  V30 1135 H 107.424 -1.88466 -6.23958 0
M  V30 1136 N 110.857 0.726932 -1.39834 0
M  V30 1137 C 111.805 1.86235 -1.39353 0
M  V30 1138 C 112.799 1.67144 -0.275555 0
M  V30 1139 O 114.005 1.74387 -0.44601 0
M  V30 1140 H 110.38 0.613174 -0.43534 0
M  V30 1141 H 112.351 1.83756 -2.35109 0
M  V30 1142 C 111.1 3.23995 -1.26185 0
M  V30 1143 H 110.423 3.39285 -2.11484 0
M  V30 1144 H 111.863 4.03609 -1.29907 0
M  V30 1145 C 110.322 3.36888 0.0290018 0
M  V30 1146 O 110.852 3.89152 0.99619 0
M  V30 1147 N 109.058 2.90446 0.0947437 0
M  V30 1148 H 108.605 2.48102 -0.693035 0
M  V30 1149 H 108.563 2.99451 0.957932 0
M  V30 1150 N 112.336 1.25143 0.95797 0
M  V30 1151 C 113.585 1.0909 1.69654 0
M  V30 1152 C 113.898 -0.368548 1.92097 0
M  V30 1153 O 115.104 -0.649455 2.63618 0
M  V30 1154 C 113.56 1.90395 3.05414 0
M  V30 1155 C 113.168 3.4081 2.90779 0
M  V30 1156 C 114.912 1.82901 3.83076 0
M  V30 1157 C 112.819 4.14423 4.21909 0
M  V30 1158 H 111.749 0.404625 0.636235 0
M  V30 1159 H 114.4 1.4931 1.06672 0
M  V30 1160 H 112.782 1.42996 3.69281 0
M  V30 1161 H 113.956 3.95859 2.35865 0
M  V30 1162 H 112.271 3.49361 2.26575 0
M  V30 1163 H 114.868 2.35196 4.80195 0
M  V30 1164 H 115.211 0.796224 4.08615 0
M  V30 1165 H 115.744 2.28033 3.25954 0
M  V30 1166 H 112.483 5.18102 4.01561 0
M  V30 1167 H 112.003 3.64159 4.76601 0
M  V30 1168 H 113.682 4.21956 4.90471 0
M  V30 1169 N 113.814 -1.1601 1.06675 0
M  V30 1170 C 115.091 -1.82679 0.699114 0
M  V30 1171 C 115.471 -1.94559 -0.819137 0
M  V30 1172 O 114.819 -1.49169 -1.73092 0
M  V30 1173 C 115.029 -3.19445 1.40555 0
M  V30 1174 C 116.377 -3.95171 1.55323 0
M  V30 1175 O 117.401 -3.28976 1.36577 0
M  V30 1176 O 116.26 -5.13833 1.86112 0
M  V30 1177 H 113.354 -0.788954 0.247951 0
M  V30 1178 H 115.9 -1.23179 1.16726 0
M  V30 1179 H 114.672 -3.05856 2.44065 0
M  V30 1180 H 114.295 -3.86625 0.927733 0
M  V30 1181 N 115.292 -0.849877 -1.32721 0
M  V30 1182 C 116.224 -0.248332 -2.27851 0
M  V30 1183 C 117.237 0.577218 -1.52224 0
M  V30 1184 O 118.426 0.402489 -1.73903 0
M  V30 1185 C 115.526 0.668107 -3.32249 0
M  V30 1186 C 114.699 -0.120534 -4.37234 0
M  V30 1187 C 113.758 0.720932 -5.21238 0
M  V30 1188 O 112.784 0.156166 -5.68986 0
M  V30 1189 N 113.986 2.03647 -5.43607 0
M  V30 1190 H 116.751 -1.06575 -2.80111 0
M  V30 1191 H 114.312 -0.709395 -1.45531 0
M  V30 1192 H 116.304 1.23627 -3.85355 0
M  V30 1193 H 114.874 1.38621 -2.80184 0
M  V30 1194 H 114.094 -0.870108 -3.84477 0
M  V30 1195 H 115.382 -0.662406 -5.0447 0
M  V30 1196 H 114.78 2.51871 -5.06535 0
M  V30 1197 H 113.337 2.55287 -5.99727 0
M  V30 1198 N 116.77 1.45427 -0.607355 0
M  V30 1199 C 117.7 2.3329 0.0989352 0
M  V30 1200 C 118.681 1.46816 0.859007 0
M  V30 1201 O 119.866 1.75588 0.829604 0
M  V30 1202 C 116.996 3.29518 1.09705 0
M  V30 1203 C 115.95 4.25626 0.450206 0
M  V30 1204 C 115.276 5.11542 1.55655 0
M  V30 1205 C 116.576 5.18505 -0.628455 0
M  V30 1206 H 118.27 2.92595 -0.634716 0
M  V30 1207 H 115.816 1.40696 -0.306681 0
M  V30 1208 H 117.769 3.89855 1.59971 0
M  V30 1209 H 116.493 2.68372 1.86129 0
M  V30 1210 H 115.152 3.66586 -0.0315886 0
M  V30 1211 H 114.8 4.46765 2.31107 0
M  V30 1212 H 114.5 5.76647 1.12925 0
M  V30 1213 H 116.024 5.74748 2.06148 0
M  V30 1214 H 117.438 5.72916 -0.209877 0
M  V30 1215 H 115.835 5.92085 -0.977489 0
M  V30 1216 H 116.905 4.60948 -1.50514 0
M  V30 1217 N 118.248 0.346503 1.53744 0
M  V30 1218 C 119.478 -0.250047 2.05081 0
M  V30 1219 C 119.886 -1.44529 1.22098 0
M  V30 1220 O 119.229 -1.81992 0.249917 0
M  V30 1221 C 119.291 -0.725934 3.52094 0
M  V30 1222 C 118.955 0.350053 4.55657 0
M  V30 1223 C 119.952 1.19372 5.0601 0
M  V30 1224 C 117.637 0.504827 4.99757 0
M  V30 1225 C 119.631 2.17768 5.99046 0
M  V30 1226 C 117.318 1.49218 5.92602 0
M  V30 1227 C 118.316 2.32706 6.42135 0
M  V30 1228 O 118.004 3.2976 7.33153 0
M  V30 1229 H 117.736 -0.0515469 0.674032 0
M  V30 1230 H 120.29 0.497559 1.99282 0
M  V30 1231 H 118.52 -1.52483 3.55367 0
M  V30 1232 H 120.209 -1.24336 3.86388 0
M  V30 1233 H 120.975 1.08525 4.72702 0
M  V30 1234 H 116.854 -0.135178 4.60802 0
M  V30 1235 H 120.398 2.82971 6.37631 0
M  V30 1236 H 116.295 1.6012 6.25325 0
M  V30 1237 H 117.063 3.25265 7.51096 0
M  V30 1238 N 119.726 -1.57421 0.075193 0
M  V30 1239 C 120.951 -1.98364 -0.605515 0
M  V30 1240 C 121.376 -0.953383 -1.62149 0
M  V30 1241 O 120.734 0.0806053 -1.81121 0
M  V30 1242 C 120.782 -3.38332 -1.24756 0
M  V30 1243 O 119.886 -3.37959 -2.36342 0
M  V30 1244 H 119.227 -0.645553 -0.155428 0
M  V30 1245 H 121.757 -2.04044 0.150714 0
M  V30 1246 H 121.767 -3.75591 -1.5936 0
M  V30 1247 H 120.442 -4.12846 -0.503129 0
M  V30 1248 H 119.019 -3.12474 -2.03506 0
M  V30 1249 N 121.204 0.198386 -1.56346 0
M  V30 1250 C 122.452 0.91747 -1.80075 0
M  V30 1251 C 122.773 1.83929 -0.647692 0
M  V30 1252 O 122.043 1.93029 0.334166 0
M  V30 1253 H 120.623 0.341774 -0.664228 0
M  V30 1254 H 123.285 0.204684 -1.93822 0
M  V30 1255 H 122.381 1.51055 -2.7311 0
M  V30 1256 N 122.682 1.50554 0.465978 0
M  V30 1257 C 123.93 1.61479 1.21528 0
M  V30 1258 C 124.251 0.319596 1.92363 0
M  V30 1259 O 123.521 -0.663194 1.84333 0
M  V30 1260 H 122.101 0.595055 0.451573 0
M  V30 1261 H 124.763 1.87355 0.53704 0
M  V30 1262 H 123.859 2.42846 1.96042 0
M  V30 1263 N 124.16 -0.719506 1.40217 0
M  V30 1264 C 125.408 -1.47641 1.3801 0
M  V30 1265 C 125.729 -1.94992 -0.018145 0
M  V30 1266 O 124.999 -1.70073 -0.972207 0
M  V30 1267 H 123.579 -0.547744 0.507923 0
M  V30 1268 H 126.241 -0.853187 1.75233 0
M  V30 1269 H 125.337 -2.35112 2.05253 0
M  V30 1270 N 125.638 -1.25649 -0.95132 0
M  V30 1271 C 126.585 -1.06323 -2.04851 0
M  V30 1272 C 127.555 0.0286491 -1.66075 0
M  V30 1273 O 128.74 -0.12917 -1.90362 0
M  V30 1274 C 125.88 -0.691529 -3.381 0
M  V30 1275 C 124.993 -1.85861 -3.89974 0
M  V30 1276 C 124.128 -1.43096 -5.11563 0
M  V30 1277 C 123.167 -2.56696 -5.55674 0
M  V30 1278 N 122.304 -2.14684 -6.68472 0
M  V30 1279 H 127.144 -2.00222 -2.20715 0
M  V30 1280 H 124.681 -0.997027 -1.08156 0
M  V30 1281 H 126.639 -0.456963 -4.1469 0
M  V30 1282 H 125.269 0.210474 -3.22113 0
M  V30 1283 H 124.321 -2.20639 -3.09875 0
M  V30 1284 H 125.633 -2.71161 -4.18657 0
M  V30 1285 H 124.787 -1.15624 -5.9558 0
M  V30 1286 H 123.526 -0.548722 -4.84603 0
M  V30 1287 H 122.531 -2.84909 -4.7022 0
M  V30 1288 H 123.756 -3.45503 -5.8464 0
M  V30 1289 H 121.702 -1.28881 -6.43215 0
M  V30 1290 H 121.619 -2.9353 -6.96689 0
M  V30 1291 H 122.887 -1.90397 -7.5589 0
M  V30 1292 N 127.117 1.15442 -1.07289 0
M  V30 1293 C 128.363 1.86489 -0.796846 0
M  V30 1294 C 128.696 1.82078 0.675371 0
M  V30 1295 O 127.971 1.24346 1.4956 0
M  V30 1296 C 128.254 3.35626 -1.30489 0
M  V30 1297 C 128.107 3.48673 -2.84161 0
M  V30 1298 C 129.426 4.30357 -0.920907 0
M  V30 1299 H 126.545 0.677144 -0.290939 0
M  V30 1300 H 129.187 1.35633 -1.33056 0
M  V30 1301 H 127.337 3.79068 -0.850883 0
M  V30 1302 H 129.009 3.14099 -3.37846 0
M  V30 1303 H 127.252 2.90253 -3.22391 0
M  V30 1304 H 127.923 4.53453 -3.14777 0
M  V30 1305 H 130.399 3.94871 -1.3121 0
M  V30 1306 H 129.275 5.33193 -1.30372 0
M  V30 1307 H 129.536 4.4176 0.173226 0
M  V30 1308 N 128.595 0.856903 1.32268 0
M  V30 1309 C 129.843 0.460474 1.96784 0
M  V30 1310 C 130.164 -0.987701 1.68135 0
M  V30 1311 O 129.434 -1.69058 0.989765 0
M  V30 1312 H 128.014 0.167289 0.728027 0
M  V30 1313 H 130.676 1.09383 1.61312 0
M  V30 1314 H 129.772 0.60739 3.06133 0
M  V30 1315 N 130.073 -1.45103 0.615059 0
M  V30 1316 C 131.303 -2.06254 0.119596 0
M  V30 1317 C 131.711 -1.4591 -1.20445 0
M  V30 1318 O 131.054 -0.570384 -1.7462 0
M  V30 1319 C 131.116 -3.59396 -0.0865591 0
M  V30 1320 C 130.78 -4.42116 1.15683 0
M  V30 1321 C 131.777 -4.7662 2.07676 0
M  V30 1322 C 129.462 -4.82749 1.38775 0
M  V30 1323 C 131.456 -5.50622 3.21082 0
M  V30 1324 C 129.143 -5.56504 2.52481 0
M  V30 1325 C 130.141 -5.90358 3.43463 0
M  V30 1326 O 129.829 -6.62615 4.55189 0
M  V30 1327 H 129.561 -0.672423 0.0694512 0
M  V30 1328 H 132.115 -1.87219 0.844885 0
M  V30 1329 H 130.345 -3.76859 -0.866823 0
M  V30 1330 H 132.034 -4.02365 -0.534555 0
M  V30 1331 H 132.8 -4.4578 1.91063 0
M  V30 1332 H 128.679 -4.55829 0.688545 0
M  V30 1333 H 132.223 -5.76965 3.92119 0
M  V30 1334 H 128.12 -5.86759 2.69043 0
M  V30 1335 H 128.888 -6.81071 4.53966 0
M  V30 1336 N 131.551 -0.354651 -1.53558 0
M  V30 1337 C 132.481 0.489091 -2.2832 0
M  V30 1338 C 133.462 1.09324 -1.30316 0
M  V30 1339 O 134.647 1.11255 -1.59173 0
M  V30 1340 C 131.777 1.63456 -3.0643 0
M  V30 1341 C 130.731 1.1582 -4.12031 0
M  V30 1342 C 130.057 2.39305 -4.7816 0
M  V30 1343 C 131.357 0.250731 -5.21698 0
M  V30 1344 H 133.051 -0.134614 -2.99097 0
M  V30 1345 H 130.597 -0.0661826 -1.43848 0
M  V30 1346 H 132.55 2.23136 -3.57475 0
M  V30 1347 H 131.274 2.28533 -2.33325 0
M  V30 1348 H 129.933 0.584146 -3.61916 0
M  V30 1349 H 129.581 3.02814 -4.01637 0
M  V30 1350 H 129.281 2.08109 -5.49513 0
M  V30 1351 H 130.805 2.99691 -5.31994 0
M  V30 1352 H 132.219 0.754695 -5.68311 0
M  V30 1353 H 130.616 0.0301468 -6.00092 0
M  V30 1354 H 131.686 -0.710125 -4.79672 0
M  V30 1355 N 133.029 1.57378 -0.0835403 0
M  V30 1356 C 134.275 1.94217 0.583733 0
M  V30 1357 C 134.608 0.964653 1.68547 0
M  V30 1358 O 133.883 -0.00422258 1.945 0
M  V30 1359 C 134.166 3.41253 1.14972 0
M  V30 1360 C 134.019 4.49768 0.0538277 0
M  V30 1361 C 135.338 3.89352 2.05166 0
M  V30 1362 H 132.457 0.706233 0.210724 0
M  V30 1363 H 135.099 1.89392 -0.1519 0
M  V30 1364 H 133.249 3.45496 1.77665 0
M  V30 1365 H 134.921 4.57641 -0.579851 0
M  V30 1366 H 133.164 4.29432 -0.614068 0
M  V30 1367 H 133.835 5.49817 0.490452 0
M  V30 1368 H 136.311 3.87189 1.52393 0
M  V30 1369 H 135.187 4.92822 2.41698 0
M  V30 1370 H 135.448 3.27973 2.96456 0
M  V30 1371 N 134.507 -0.190092 1.56449 0
M  V30 1372 C 135.737 -0.92443 1.84764 0
M  V30 1373 C 136.145 -1.77146 0.664529 0
M  V30 1374 O 135.488 -1.79812 -0.375957 0
M  V30 1375 C 135.55 -1.86651 3.07248 0
M  V30 1376 C 135.214 -1.20094 4.40938 0
M  V30 1377 C 136.211 -0.575445 5.16706 0
M  V30 1378 C 133.896 -1.2033 4.87674 0
M  V30 1379 C 135.89 0.0388111 6.37388 0
M  V30 1380 C 133.577 -0.585214 6.08291 0
M  V30 1381 C 134.575 0.0347578 6.82991 0
M  V30 1382 O 134.263 0.643147 8.01323 0
M  V30 1383 H 133.995 -0.274974 0.617548 0
M  V30 1384 H 136.549 -0.200788 2.04416 0
M  V30 1385 H 134.779 -2.62998 2.83494 0
M  V30 1386 H 136.468 -2.46907 3.22167 0
M  V30 1387 H 137.234 -0.565728 4.81689 0
M  V30 1388 H 133.113 -1.67526 4.29484 0
M  V30 1389 H 136.657 0.523329 6.95634 0
M  V30 1390 H 132.554 -0.592451 6.42775 0
M  V30 1391 H 133.322 0.540545 8.16713 0
M  V30 1392 N 135.985 -1.50799 -0.457987 0
M  V30 1393 C 136.948 -1.7005 -1.53674 0
M  V30 1394 C 137.948 -0.570881 -1.50325 0
M  V30 1395 O 139.138 -0.838126 -1.52712 0
M  V30 1396 C 136.27 -1.73788 -2.93276 0
M  V30 1397 H 137.463 -2.66306 -1.37917 0
M  V30 1398 H 135.016 -1.40477 -0.685271 0
M  V30 1399 H 135.751 -0.792717 -3.14462 0
M  V30 1400 H 135.536 -2.55864 -2.97113 0
M  V30 1401 H 137.026 -1.90591 -3.71571 0
M  V30 1402 N 137.463 0.71206 -1.40597 0
M  V30 1403 C 138.711 1.46907 -1.38791 0
M  V30 1404 C 139.032 1.94998 0.00780391 0
M  V30 1405 O 138.302 1.70587 0.963174 0
M  V30 1406 H 136.882 0.545043 -0.51082 0
M  V30 1407 H 139.544 0.843882 -1.75683 0
M  V30 1408 H 138.64 2.34021 -2.06496 0
M  V30 1409 N 138.941 1.26152 0.944643 0
M  V30 1410 C 140.189 1.11271 1.6871 0
M  V30 1411 C 140.51 -0.345166 1.91921 0
M  V30 1412 O 139.78 -1.24387 1.51343 0
M  V30 1413 H 138.36 0.408783 0.625224 0
M  V30 1414 H 141.022 1.58427 1.1352 0
M  V30 1415 H 140.118 1.62879 2.66227 0
M  V30 1416 N 140.419 -1.14872 1.07899 0
M  V30 1417 C 141.835 -1.37776 0.805606 0
M  V30 1418 C 142.035 -1.92743 -0.587555 0
M  V30 1419 O 141.091 -2.13678 -1.34528 0
M  V30 1420 C 142.404 -2.34361 1.88402 0
M  V30 1421 C 143.952 -2.48012 1.90942 0
M  V30 1422 C 144.427 -3.47893 2.97883 0
M  V30 1423 N 145.918 -3.55433 2.97021 0
M  V30 1424 C 146.653 -4.32553 3.76412 0
M  V30 1425 N 146.149 -5.12959 4.65666 0
M  V30 1426 N 147.942 -4.27697 3.64735 0
M  V30 1427 H 140.093 -0.775365 1.97742 0
M  V30 1428 H 142.356 -0.403521 0.857831 0
M  V30 1429 H 142.062 -2.01098 2.88535 0
M  V30 1430 H 141.936 -3.34206 1.74889 0
M  V30 1431 H 144.323 -2.8057 0.914579 0
M  V30 1432 H 144.404 -1.48147 2.08534 0
M  V30 1433 H 144.048 -3.16069 3.97571 0
M  V30 1434 H 143.978 -4.47527 2.77538 0
M  V30 1435 H 146.469 -2.98048 2.32326 0
M  V30 1436 H 146.782 -5.69065 5.22862 0
M  V30 1437 H 145.127 -5.12245 4.69712 0
M  V30 1438 H 148.318 -3.63949 2.94378 0
M  V30 1439 H 148.491 -4.8755 4.26848 0
M  V30 1440 N 141.898 -0.863906 -1.31812 0
M  V30 1441 C 143.314 -0.555004 -1.49639 0
M  V30 1442 C 143.514 0.912266 -1.79666 0
M  V30 1443 O 142.57 1.69479 -1.87171 0
M  V30 1444 C 143.883 -1.44998 -2.63431 0
M  V30 1445 C 145.431 -1.45138 -2.77316 0
M  V30 1446 C 145.906 -2.33179 -3.94197 0
M  V30 1447 N 147.397 -2.31025 -4.01474 0
M  V30 1448 C 148.132 -2.95871 -4.9117 0
M  V30 1449 N 147.628 -3.69863 -5.8581 0
M  V30 1450 N 149.421 -2.85211 -4.84367 0
M  V30 1451 H 141.572 -1.81339 -1.10589 0
M  V30 1452 H 143.835 -0.77505 -0.545895 0
M  V30 1453 H 143.541 -2.49377 -2.48 0
M  V30 1454 H 143.415 -1.14409 -3.59431 0
M  V30 1455 H 145.802 -0.415201 -2.92164 0
M  V30 1456 H 145.883 -1.79747 -1.82001 0
M  V30 1457 H 145.527 -3.3687 -3.80107 0
M  V30 1458 H 145.457 -1.95897 -4.88807 0
M  V30 1459 H 147.948 -1.77238 -3.33759 0
M  V30 1460 H 148.261 -4.16486 -6.50968 0
M  V30 1461 H 146.606 -3.73971 -5.85808 0
M  V30 1462 H 149.797 -2.26948 -4.09405 0
M  V30 1463 H 149.97 -3.36027 -5.54066 0
M  V30 1464 N 143.376 1.44774 -0.622745 0
M  V30 1465 C 144.623 2.02121 -0.1239 0
M  V30 1466 C 144.951 1.48915 1.25118 0
M  V30 1467 O 144.206 0.660045 1.84233 0
M  V30 1468 C 144.505 3.57364 -0.0508323 0
M  V30 1469 C 144.171 4.29787 -1.36358 0
M  V30 1470 C 142.833 4.4929 -1.72314 0
M  V30 1471 C 145.185 4.71062 -2.23048 0
M  V30 1472 C 142.513 5.07325 -2.94682 0
M  V30 1473 C 144.865 5.30452 -3.44679 0
M  V30 1474 C 143.529 5.48175 -3.80868 0
M  V30 1475 H 142.799 0.739612 -0.0453381 0
M  V30 1476 H 145.446 1.73648 -0.807389 0
M  V30 1477 H 143.751 3.85202 0.715991 0
M  V30 1478 H 145.448 3.99456 0.351533 0
M  V30 1479 H 142.038 4.14932 -1.07375 0
M  V30 1480 H 146.222 4.55715 -1.96565 0
M  V30 1481 H 141.478 5.19235 -3.22809 0
M  V30 1482 H 145.652 5.61385 -4.12092 0
M  V30 1483 H 143.279 5.92912 -4.75773 0
M  V30 1484 N 144.854 0.36279 1.53368 0
M  V30 1485 C 145.784 -0.476976 2.28576 0
M  V30 1486 C 146.765 -1.08631 1.30894 0
M  V30 1487 O 147.95 -1.10409 1.59761 0
M  V30 1488 C 145.08 -1.61828 3.07293 0
M  V30 1489 C 144.034 -1.13633 4.1264 0
M  V30 1490 C 143.36 -2.36766 4.79423 0
M  V30 1491 C 144.66 -0.223061 5.21823 0
M  V30 1492 H 146.354 0.150474 2.99022 0
M  V30 1493 H 143.9 0.0738103 1.43811 0
M  V30 1494 H 145.853 -2.21237 3.58653 0
M  V30 1495 H 144.577 -2.27292 2.34533 0
M  V30 1496 H 143.236 -0.564945 3.62221 0
M  V30 1497 H 142.884 -3.0068 4.03238 0
M  V30 1498 H 142.584 -2.05192 5.50609 0
M  V30 1499 H 144.108 -2.96865 5.33576 0
M  V30 1500 H 145.522 -0.724545 5.68703 0
M  V30 1501 H 143.919 0.001678 6.001 0
M  V30 1502 H 144.989 0.735553 4.79289 0
M  V30 1503 N 146.332 -1.57332 0.0918853 0
M  V30 1504 C 147.262 -2.16872 -0.865371 0
M  V30 1505 C 148.243 -1.10118 -1.29646 0
M  V30 1506 O 149.428 -1.38242 -1.36392 0
M  V30 1507 C 146.558 -2.74649 -2.12569 0
M  V30 1508 C 145.512 -3.86747 -1.83333 0
M  V30 1509 C 144.838 -4.31212 -3.16166 0
M  V30 1510 C 146.138 -5.10089 -1.1228 0
M  V30 1511 H 147.832 -2.97114 -0.369307 0
M  V30 1512 H 145.378 -1.42918 -0.176194 0
M  V30 1513 H 147.331 -3.14952 -2.7997 0
M  V30 1514 H 146.055 -1.91657 -2.64452 0
M  V30 1515 H 144.714 -3.46978 -1.18331 0
M  V30 1516 H 144.362 -3.45115 -3.6593 0
M  V30 1517 H 144.062 -5.06788 -2.97388 0
M  V30 1518 H 145.586 -4.74146 -3.84731 0
M  V30 1519 H 147 -5.47582 -1.69785 0
M  V30 1520 H 145.397 -5.91073 -1.03693 0
M  V30 1521 H 146.467 -4.84786 -0.105041 0
M  V30 1522 N 147.81 0.181792 -1.56548 0
M  V30 1523 C 149.087 0.926765 -1.72251 0
M  V30 1524 C 149.467 2.00831 -0.650386 0
M  V30 1525 O 148.815 2.26008 0.336521 0
M  V30 1526 C 149.025 1.50106 -3.1507 0
M  V30 1527 C 150.373 1.97805 -3.75711 0
M  V30 1528 O 151.397 1.59922 -3.18282 0
M  V30 1529 O 150.256 2.67555 -4.76525 0
M  V30 1530 H 147.35 0.435506 -0.703039 0
M  V30 1531 H 149.896 0.170443 -1.68842 0
M  V30 1532 H 148.668 0.72212 -3.84579 0
M  V30 1533 H 148.291 2.32186 -3.22763 0
M  V30 1534 N 149.288 1.51039 0.449983 0
M  V30 1535 C 150.218 1.74379 1.55288 0
M  V30 1536 C 151.199 0.593236 1.5942 0
M  V30 1537 O 152.384 0.834625 1.7535 0
M  V30 1538 C 149.514 1.85728 2.93466 0
M  V30 1539 C 148.468 3.01078 3.04197 0
M  V30 1540 C 147.794 2.97595 4.44231 0
M  V30 1541 C 149.094 4.41254 2.7945 0
M  V30 1542 H 150.788 2.66725 1.36008 0
M  V30 1543 H 148.334 1.2835 0.652864 0
M  V30 1544 H 150.287 2.0064 3.70569 0
M  V30 1545 H 149.011 0.900207 3.13949 0
M  V30 1546 H 147.67 2.85851 2.29531 0
M  V30 1547 H 147.318 1.99691 4.61663 0
M  V30 1548 H 147.018 3.75046 4.52343 0
M  V30 1549 H 148.542 3.14583 5.23326 0
M  V30 1550 H 149.956 4.56897 3.46292 0
M  V30 1551 H 148.353 5.20315 2.98985 0
M  V30 1552 H 149.423 4.52164 1.75144 0
M  V30 1553 N 150.766 -0.704594 1.40972 0
M  V30 1554 C 151.676 -1.84856 1.44448 0
M  V30 1555 C 152.692 -1.70726 0.335961 0
M  V30 1556 O 153.868 -1.92799 0.582276 0
M  V30 1557 C 150.933 -3.20758 1.31587 0
M  V30 1558 C 149.994 -3.47063 2.52677 0
M  V30 1559 C 149.227 -4.76481 2.4042 0
M  V30 1560 O 149.45 -5.52341 1.42391 0
M  V30 1561 O 148.384 -5.03367 3.30007 0
M  V30 1562 H 152.21 -1.8488 2.40942 0
M  V30 1563 H 149.795 -0.85647 1.22413 0
M  V30 1564 H 151.677 -4.01913 1.26665 0
M  V30 1565 H 150.352 -3.21438 0.382049 0
M  V30 1566 H 149.259 -2.65873 2.63177 0
M  V30 1567 H 150.592 -3.5119 3.44858 0
M  V30 1568 N 152.244 -1.26651 -0.937939 0
M  V30 1569 C 153.66 -1.03834 -1.21205 0
M  V30 1570 C 153.86 0.234502 -2.00131 0
M  V30 1571 O 152.916 0.942767 -2.3424 0
M  V30 1572 C 154.229 -2.27167 -1.97017 0
M  V30 1573 C 155.777 -2.32101 -2.09996 0
M  V30 1574 C 156.252 -3.55136 -2.8921 0
M  V30 1575 N 157.743 -3.55632 -2.96783 0
M  V30 1576 C 158.478 -4.475 -3.58512 0
M  V30 1577 N 157.974 -5.4966 -4.21717 0
M  V30 1578 N 159.767 -4.35145 -3.55816 0
M  V30 1579 H 151.918 -2.08398 -0.410391 0
M  V30 1580 H 154.181 -0.916031 -0.244114 0
M  V30 1581 H 153.887 -3.19765 -1.46434 0
M  V30 1582 H 153.761 -2.31672 -2.97671 0
M  V30 1583 H 156.148 -1.40015 -2.59769 0
M  V30 1584 H 156.229 -2.31605 -1.08594 0
M  V30 1585 H 155.873 -4.47553 -2.40123 0
M  V30 1586 H 155.803 -3.5288 -3.90875 0
M  V30 1587 H 158.294 -2.81743 -2.51852 0
M  V30 1588 H 158.607 -6.15943 -4.66727 0
M  V30 1589 H 156.952 -5.53514 -4.20294 0
M  V30 1590 H 160.143 -3.5455 -3.05634 0
M  V30 1591 H 160.316 -5.06934 -4.03636 0
M  V30 1592 N 153.722 1.14298 -1.08507 0
M  V30 1593 C 154.999 1.81544 -0.728088 0
M  V30 1594 C 155.379 1.95838 0.78808 0
M  V30 1595 O 154.727 1.51904 1.70697 0
M  V30 1596 C 154.937 3.17169 -1.45619 0
M  V30 1597 C 156.285 3.9265 -1.61591 0
M  V30 1598 O 157.309 3.26762 -1.41793 0
M  V30 1599 O 156.168 5.10807 -1.94263 0
M  V30 1600 H 153.262 0.78491 -0.260471 0
M  V30 1601 H 155.808 1.21307 -1.18671 0
M  V30 1602 H 154.58 3.01934 -2.489 0
M  V30 1603 H 154.203 3.851 -0.989124 0
M  V30 1604 N 155.201 0.870884 1.31352 0
M  V30 1605 C 156.449 0.48132 1.96285 0
M  V30 1606 C 156.77 -0.969813 1.69173 0
M  V30 1607 O 156.04 -1.67998 1.00764 0
M  V30 1608 H 154.62 0.175002 0.726212 0
M  V30 1609 H 157.282 1.11087 1.60143 0
M  V30 1610 H 156.378 0.639825 3.05471 0
M  V30 1611 N 156.679 -1.44442 0.630414 0
M  V30 1612 C 157.904 -2.06927 0.139944 0
M  V30 1613 C 158.329 -1.46795 -1.17613 0
M  V30 1614 O 157.687 -0.569144 -1.72135 0
M  V30 1615 C 157.735 -3.6058 0.0379581 0
M  V30 1616 O 156.839 -3.99937 -1.0062 0
M  V30 1617 H 156.18 -0.658608 0.0844483 0
M  V30 1618 H 158.71 -1.85327 0.866891 0
M  V30 1619 H 158.72 -4.07714 -0.152856 0
M  V30 1620 H 157.395 -4.03728 0.998809 0
M  V30 1621 H 155.972 -3.64436 -0.79001 0
M  V30 1622 N 158.157 -0.370918 -1.53173 0
M  V30 1623 C 159.403 0.217423 -2.01631 0
M  V30 1624 C 159.736 1.47983 -1.25756 0
M  V30 1625 O 159.011 1.91274 -0.352764 0
M  V30 1626 C 159.294 0.503982 -3.56556 0
M  V30 1627 C 159.147 -0.77243 -4.43118 0
M  V30 1628 C 160.466 1.30234 -4.20389 0
M  V30 1629 H 157.585 0.0775486 -0.732909 0
M  V30 1630 H 160.227 -0.496863 -1.83388 0
M  V30 1631 H 158.377 1.11248 -3.72231 0
M  V30 1632 H 160.049 -1.4098 -4.39229 0
M  V30 1633 H 158.292 -1.39167 -4.10871 0
M  V30 1634 H 158.963 -0.526815 -5.4948 0
M  V30 1635 H 161.439 0.787546 -4.08579 0
M  V30 1636 H 160.315 1.47158 -5.28806 0
M  V30 1637 H 160.576 2.31237 -3.76805 0
M  V30 1638 N 159.635 1.57281 -0.100228 0
M  V30 1639 C 160.883 1.94153 0.561157 0
M  V30 1640 C 161.204 0.983157 1.68401 0
M  V30 1641 O 160.474 0.0361132 1.95867 0
M  V30 1642 H 159.054 0.716791 0.210283 0
M  V30 1643 H 161.716 1.94202 -0.164765 0
M  V30 1644 H 160.812 2.96709 0.968008 0
M  V30 1645 N 161.113 -0.173488 1.56642 0
M  V30 1646 C 162.362 -0.888758 1.81063 0
M  V30 1647 C 162.675 -1.83506 0.67712 0
M  V30 1648 O 163.881 -2.59254 0.806206 0
M  V30 1649 C 162.337 -1.63091 3.20826 0
M  V30 1650 C 161.945 -0.728357 4.4204 0
M  V30 1651 C 163.689 -2.33454 3.54541 0
M  V30 1652 C 161.596 -1.47062 5.72823 0
M  V30 1653 H 160.526 -0.335618 0.675186 0
M  V30 1654 H 163.177 -0.141712 1.82952 0
M  V30 1655 H 161.559 -2.42263 3.13248 0
M  V30 1656 H 162.733 0.0262449 4.60793 0
M  V30 1657 H 161.048 -0.134492 4.16183 0
M  V30 1658 H 163.645 -2.89578 4.49498 0
M  V30 1659 H 163.988 -3.08687 2.79317 0
M  V30 1660 H 164.521 -1.61227 3.63663 0
M  V30 1661 H 161.26 -0.760658 6.51072 0
M  V30 1662 H 160.78 -2.1986 5.58052 0
M  V30 1663 H 162.459 -2.01868 6.14702 0
M  V30 1664 N 162.591 -1.51276 -0.441967 0
M  V30 1665 C 163.554 -1.7167 -1.51862 0
M  V30 1666 C 164.554 -0.586793 -1.49711 0
M  V30 1667 O 165.744 -0.854276 -1.51815 0
M  V30 1668 C 162.876 -1.76889 -2.91416 0
M  V30 1669 H 164.069 -2.67754 -1.35084 0
M  V30 1670 H 161.622 -1.41196 -0.670333 0
M  V30 1671 H 162.357 -0.826026 -3.13604 0
M  V30 1672 H 162.142 -2.59001 -2.94382 0
M  V30 1673 H 163.632 -1.94522 -3.69528 0
M  V30 1674 N 164.069 0.697108 -1.41344 0
M  V30 1675 C 165.317 1.45426 -1.40341 0
M  V30 1676 C 165.638 1.94996 -0.0128787 0
M  V30 1677 O 164.908 1.71599 0.945027 0
M  V30 1678 H 163.488 0.539594 -0.516573 0
M  V30 1679 H 166.15 0.825201 -1.76569 0
M  V30 1680 H 165.246 2.31817 -2.08967 0
M  V30 1681 N 165.547 1.27147 0.931209 0
M  V30 1682 C 166.794 1.13278 1.67852 0
M  V30 1683 C 167.122 -0.32204 1.91815 0
M  V30 1684 O 166.377 -1.25224 1.50391 0
M  V30 1685 C 166.676 1.8579 3.05314 0
M  V30 1686 C 166.342 3.35657 3.01073 0
M  V30 1687 C 165.004 3.76536 2.99623 0
M  V30 1688 C 167.356 4.31299 2.92627 0
M  V30 1689 C 164.684 5.11426 2.87506 0
M  V30 1690 C 167.036 5.66242 2.82051 0
M  V30 1691 C 165.7 6.06418 2.7895 0
M  V30 1692 H 164.97 0.414515 0.614214 0
M  V30 1693 H 167.617 1.57712 1.08624 0
M  V30 1694 H 165.922 1.33854 3.68226 0
M  V30 1695 H 167.619 1.72491 3.62005 0
M  V30 1696 H 164.209 3.03146 3.02986 0
M  V30 1697 H 168.393 4.00692 2.92848 0
M  V30 1698 H 163.649 5.41705 2.83489 0
M  V30 1699 H 167.823 6.40026 2.74481 0
M  V30 1700 H 165.45 7.10895 2.69318 0
M  V30 1701 N 167.025 -1.13721 1.09112 0
M  V30 1702 C 168.271 -1.85198 0.826414 0
M  V30 1703 C 168.604 -1.83129 -0.646319 0
M  V30 1704 O 167.879 -1.2671 -1.47563 0
M  V30 1705 C 168.162 -3.33507 1.35812 0
M  V30 1706 C 168.015 -3.44108 2.89672 0
M  V30 1707 C 169.334 -4.28838 0.989256 0
M  V30 1708 H 166.453 -0.67243 0.301675 0
M  V30 1709 H 169.095 -1.33499 1.35197 0
M  V30 1710 H 167.245 -3.77666 0.911082 0
M  V30 1711 H 168.917 -3.08684 3.428 0
M  V30 1712 H 167.16 -2.85087 3.26967 0
M  V30 1713 H 167.831 -4.48388 3.21951 0
M  V30 1714 H 170.307 -3.92734 1.37475 0
M  V30 1715 H 169.183 -5.31051 1.38838 0
M  V30 1716 H 169.444 -4.4198 -0.102924 0
M  V30 1717 N 168.503 -0.877838 -1.30888 0
M  V30 1718 C 169.914 -0.544193 -1.78593 0
M  V30 1719 C 170.265 0.939301 -1.72254 0
M  V30 1720 O 169.39 1.7337 -1.29505 0
M  V30 1721 C 169.985 -0.98105 -3.24285 0
M  V30 1722 C 168.544 -0.698935 -3.69854 0
M  V30 1723 C 167.691 -1.168 -2.51502 0
M  V30 1724 H 170.642 -1.06278 -1.17859 0
M  V30 1725 H 170.663 -0.307009 -3.79259 0
M  V30 1726 H 170.175 -2.06079 -3.28866 0
M  V30 1727 H 168.276 0.369112 -3.70767 0
M  V30 1728 H 168.389 -1.28148 -4.61644 0
M  V30 1729 H 166.753 -0.587535 -2.47831 0
M  V30 1730 H 167.536 -2.25533 -2.58824 0
M  V30 1731 N 169.982 1.44106 -0.638065 0
M  V30 1732 C 170.945 2.29138 0.0531013 0
M  V30 1733 C 171.945 1.41409 0.765506 0
M  V30 1734 O 173.135 1.63206 0.609046 0
M  V30 1735 C 170.267 3.23144 1.08584 0
M  V30 1736 H 171.46 2.91739 -0.694883 0
M  V30 1737 H 169.013 1.51134 -0.398538 0
M  V30 1738 H 169.748 2.65408 1.86357 0
M  V30 1739 H 169.533 3.87804 0.578852 0
M  V30 1740 H 171.023 3.87004 1.56899 0
M  V30 1741 N 171.46 0.379036 1.52974 0
M  V30 1742 C 172.708 -0.206014 2.01047 0
M  V30 1743 C 173.029 -1.48175 1.26765 0
M  V30 1744 O 172.299 -1.92085 0.384743 0
M  V30 1745 H 170.879 -0.0791184 0.742798 0
M  V30 1746 H 173.541 0.508366 1.88153 0
M  V30 1747 H 172.637 -0.423501 3.09213 0
M  V30 1748 N 172.938 -1.57226 0.108567 0
M  V30 1749 C 174.186 -1.94448 -0.550853 0
M  V30 1750 C 174.507 -0.992074 -1.67878 0
M  V30 1751 O 173.777 -0.0465 -1.95845 0
M  V30 1752 H 172.357 -0.717897 -0.206479 0
M  V30 1753 H 175.019 -1.94112 0.175062 0
M  V30 1754 H 174.115 -2.97218 -0.952259 0
M  V30 1755 N 174.416 0.165178 -1.56732 0
M  V30 1756 C 175.664 0.879068 -1.8198 0
M  V30 1757 C 175.985 1.82514 -0.686561 0
M  V30 1758 O 175.255 1.93694 0.293146 0
M  V30 1759 H 173.835 0.327608 -0.671329 0
M  V30 1760 H 176.497 0.163526 -1.94213 0
M  V30 1761 H 175.593 1.45228 -2.76252 0
M  V30 1762 N 175.894 1.51508 0.433938 0
M  V30 1763 C 177.122 1.68157 1.20543 0
M  V30 1764 C 177.537 0.380362 1.84929 0
M  V30 1765 O 176.894 -0.641446 1.70856 0
M  V30 1766 C 176.945 2.79965 2.28696 0
M  V30 1767 O 176.666 4.05045 1.66943 0
M  V30 1768 C 178.167 3.07912 3.18912 0
M  V30 1769 H 175.387 0.56421 0.363191 0
M  V30 1770 H 177.931 1.97941 0.513754 0
M  V30 1771 H 176.086 2.5277 2.93574 0
M  V30 1772 H 176.5 4.67165 2.38448 0
M  V30 1773 H 177.974 3.89719 3.90926 0
M  V30 1774 H 178.451 2.20456 3.79863 0
M  V30 1775 H 179.057 3.36779 2.59731 0
M  V30 1776 N 177.372 -0.689602 1.41712 0
M  V30 1777 C 178.597 -1.48329 1.44959 0
M  V30 1778 C 179.022 -1.8801 0.0581283 0
M  V30 1779 O 178.38 -1.55026 -0.940035 0
M  V30 1780 C 178.428 -2.71835 2.36935 0
M  V30 1781 O 177.532 -3.69549 1.8305 0
M  V30 1782 H 176.873 -0.446199 0.491734 0
M  V30 1783 H 179.403 -0.847127 1.86239 0
M  V30 1784 H 179.413 -3.20076 2.53013 0
M  V30 1785 H 178.088 -2.42291 3.38035 0
M  V30 1786 H 176.665 -3.2851 1.76452 0
M  V30 1787 N 178.85 -1.27639 -0.924453 0
M  V30 1788 C 179.813 -1.10681 -2.00705 0
M  V30 1789 C 180.813 -0.0497823 -1.60723 0
M  V30 1790 O 182.003 -0.294654 -1.7169 0
M  V30 1791 C 179.135 -0.687164 -3.33902 0
M  V30 1792 H 180.328 -2.06817 -2.17179 0
M  V30 1793 H 177.881 -1.10473 -1.10569 0
M  V30 1794 H 178.616 0.275439 -3.23128 0
M  V30 1795 H 178.401 -1.45061 -3.6428 0
M  V30 1796 H 179.891 -0.590853 -4.13399 0
M  V30 1797 N 180.328 1.1314 -1.09713 0
M  V30 1798 C 181.739 1.66029 -0.853885 0
M  V30 1799 C 182.09 1.86241 0.617142 0
M  V30 1800 O 181.215 1.5834 1.47503 0
M  V30 1801 C 181.81 3.01599 -1.5435 0
M  V30 1802 C 180.369 3.51467 -1.34714 0
M  V30 1803 C 179.516 2.26648 -1.59769 0
M  V30 1804 H 182.467 0.970226 -1.25588 0
M  V30 1805 H 182.488 3.67709 -0.978267 0
M  V30 1806 H 182 2.86856 -2.6141 0
M  V30 1807 H 180.101 3.71408 -0.297838 0
M  V30 1808 H 180.214 4.314 -2.08401 0
M  V30 1809 H 178.578 2.33385 -1.01998 0
M  V30 1810 H 179.361 2.14467 -2.68065 0
M  V30 1811 N 181.806 0.884767 1.30421 0
M  V30 1812 C 183.052 0.513218 1.96819 0
M  V30 1813 C 183.407 -0.927347 1.68577 0
M  V30 1814 O 182.7 -1.64644 0.979941 0
M  V30 1815 C 182.894 0.724318 3.49983 0
M  V30 1816 C 182.723 2.18385 3.93113 0
M  V30 1817 C 181.493 2.82839 4.18725 0
M  V30 1818 C 183.691 3.15763 4.05953 0
M  V30 1819 N 181.673 4.1939 4.48314 0
M  V30 1820 C 183.044 4.37387 4.39423 0
M  V30 1821 C 185.099 3.11555 3.88379 0
M  V30 1822 C 183.802 5.55343 4.5715 0
M  V30 1823 C 185.828 4.28782 4.07308 0
M  V30 1824 C 185.19 5.49172 4.41123 0
M  V30 1825 H 181.289 0.237123 0.745182 0
M  V30 1826 H 183.873 1.14246 1.57658 0
M  V30 1827 H 182.044 0.124565 3.882 0
M  V30 1828 H 183.776 0.31969 4.03435 0
M  V30 1829 H 180.531 2.33708 4.11919 0
M  V30 1830 H 180.955 4.89911 4.67243 0
M  V30 1831 H 185.597 2.19576 3.61312 0
M  V30 1832 H 183.315 6.47826 4.8306 0
M  V30 1833 H 186.901 4.26995 3.95179 0
M  V30 1834 H 185.781 6.38371 4.55469 0
M  V30 1835 N 183.284 -1.43765 0.645699 0
M  V30 1836 C 184.7 -1.56509 0.312591 0
M  V30 1837 C 184.9 -1.6307 -1.18365 0
M  V30 1838 O 183.956 -1.58167 -1.96824 0
M  V30 1839 C 185.269 -2.82968 1.01733 0
M  V30 1840 C 186.817 -2.96701 0.996865 0
M  V30 1841 C 187.292 -4.25982 1.68236 0
M  V30 1842 N 188.783 -4.32829 1.64964 0
M  V30 1843 C 189.518 -5.31613 2.14885 0
M  V30 1844 N 189.014 -6.36718 2.73061 0
M  V30 1845 N 190.807 -5.23217 2.05428 0
M  V30 1846 H 182.958 -1.3775 1.61675 0
M  V30 1847 H 185.221 -0.661067 0.679481 0
M  V30 1848 H 184.927 -2.84156 2.0724 0
M  V30 1849 H 184.801 -3.72957 0.564177 0
M  V30 1850 H 187.188 -2.95058 -0.0497719 0
M  V30 1851 H 187.269 -2.08022 1.48865 0
M  V30 1852 H 186.913 -4.28386 2.72852 0
M  V30 1853 H 186.843 -5.13545 1.16529 0
M  V30 1854 H 189.334 -3.57493 1.22503 0
M  V30 1855 H 189.647 -7.08401 3.08848 0
M  V30 1856 H 187.992 -6.37362 2.77118 0
M  V30 1857 H 191.183 -4.40019 1.59689 0
M  V30 1858 H 191.356 -6.00045 2.44643 0
M  V30 1859 N 184.763 -0.387143 -1.52771 0
M  V30 1860 C 185.713 0.465942 -2.23188 0
M  V30 1861 C 186.697 1.03138 -1.23496 0
M  V30 1862 O 187.889 0.957845 -1.48843 0
M  V30 1863 C 185.018 1.59384 -3.04059 0
M  V30 1864 C 184.104 1.04024 -4.11144 0
M  V30 1865 N 184.495 0.211416 -5.05358 0
M  V30 1866 C 182.793 1.31295 -4.26237 0
M  V30 1867 C 183.494 -0.0941698 -5.81624 0
M  V30 1868 N 182.47 0.509207 -5.4121 0
M  V30 1869 H 186.272 -0.173856 -2.93385 0
M  V30 1870 H 183.786 -0.19633 -1.61209 0
M  V30 1871 H 185.783 2.21738 -3.53041 0
M  V30 1872 H 184.443 2.23648 -2.35397 0
M  V30 1873 H 185.454 -0.151151 -5.17679 0
M  V30 1874 H 182.131 1.95679 -3.68803 0
M  V30 1875 H 183.521 -0.765572 -6.67524 0
M  V30 1876 N 186.241 1.57166 -0.116904 0
M  V30 1877 C 187.657 1.5779 0.239693 0
M  V30 1878 C 187.857 1.1295 1.66867 0
M  V30 1879 O 186.913 0.81592 2.38954 0
M  V30 1880 C 188.226 3.00699 0.00828202 0
M  V30 1881 C 189.774 3.12912 0.0743438 0
M  V30 1882 C 190.249 4.57817 -0.129348 0
M  V30 1883 N 191.74 4.63139 -0.075247 0
M  V30 1884 C 192.475 5.73023 -0.207788 0
M  V30 1885 N 191.971 6.91665 -0.396382 0
M  V30 1886 N 193.764 5.61906 -0.14751 0
M  V30 1887 H 185.915 1.84615 -1.05029 0
M  V30 1888 H 188.178 0.85311 -0.41341 0
M  V30 1889 H 187.884 3.37784 -0.979531 0
M  V30 1890 H 187.758 3.69848 0.741077 0
M  V30 1891 H 190.145 2.75686 1.05268 0
M  V30 1892 H 190.226 2.4631 -0.690297 0
M  V30 1893 H 189.87 4.95742 -1.10465 0
M  V30 1894 H 189.8 5.22507 0.655253 0
M  V30 1895 H 192.291 3.7784 0.0670898 0
M  V30 1896 H 192.604 7.71255 -0.488437 0
M  V30 1897 H 190.949 6.93654 -0.432329 0
M  V30 1898 H 194.14 4.681 -0.00115036 0
M  V30 1899 H 194.313 6.47501 -0.254247 0
M  V30 1900 N 187.719 -0.156864 1.56817 0
M  V30 1901 C 188.944 -0.890331 1.87318 0
M  V30 1902 C 189.369 -1.74394 0.704855 0
M  V30 1903 O 188.727 -1.77972 -0.345786 0
M  V30 1904 C 188.775 -1.73102 3.16336 0
M  V30 1905 O 187.879 -2.83422 2.99576 0
M  V30 1906 H 187.22 -0.24857 0.615718 0
M  V30 1907 H 189.75 -0.150649 2.04045 0
M  V30 1908 H 189.76 -2.12803 3.48107 0
M  V30 1909 H 188.435 -1.10412 4.00976 0
M  V30 1910 H 187.012 -2.47199 2.7919 0
M  V30 1911 N 189.197 -1.51736 -0.425897 0
M  V30 1912 C 190.147 -1.70258 -1.51645 0
M  V30 1913 C 191.131 -0.556488 -1.5097 0
M  V30 1914 O 192.323 -0.812879 -1.5723 0
M  V30 1915 C 189.452 -1.84143 -2.89735 0
M  V30 1916 C 188.538 -3.04572 -2.95122 0
M  V30 1917 N 188.929 -4.2756 -2.70233 0
M  V30 1918 C 187.227 -3.04061 -3.26286 0
M  V30 1919 C 187.928 -5.08908 -2.81757 0
M  V30 1920 N 186.904 -4.43797 -3.13919 0
M  V30 1921 H 190.706 -2.63004 -1.31172 0
M  V30 1922 H 188.22 -1.4954 -0.633375 0
M  V30 1923 H 190.217 -1.95525 -3.68206 0
M  V30 1924 H 188.877 -0.925857 -3.1122 0
M  V30 1925 H 189.888 -4.56315 -2.44943 0
M  V30 1926 H 186.565 -2.22179 -3.53473 0
M  V30 1927 H 187.955 -6.16843 -2.66372 0
M  V30 1928 N 190.675 0.682077 -1.42076 0
M  V30 1929 C 191.915 1.45424 -1.43636 0
M  V30 1930 C 192.279 1.91939 -0.0484001 0
M  V30 1931 O 193.48 2.6873 0.0612514 0
M  V30 1932 C 191.751 2.62427 -2.42625 0
M  V30 1933 S 193.31 3.51379 -2.62827 0
M  V30 1934 H 190.128 0.496779 -0.508657 0
M  V30 1935 H 192.73 0.794645 -1.78621 0
M  V30 1936 H 191.434 2.26481 -3.42249 0
M  V30 1937 H 190.965 3.33266 -2.09039 0
M  V30 1938 H 192.98 4.58141 -1.9058 0
M  V30 1939 N 192.153 1.28127 0.917671 0
M  V30 1940 C 193.4 1.15052 1.66641 0
M  V30 1941 C 193.728 -0.301677 1.92146 0
M  V30 1942 O 192.983 -1.23622 1.51711 0
M  V30 1943 C 193.282 1.89018 3.03327 0
M  V30 1944 C 192.948 3.38832 2.97496 0
M  V30 1945 C 191.61 3.79693 2.95613 0
M  V30 1946 C 193.962 4.34378 2.88036 0
M  V30 1947 C 191.29 5.14447 2.82066 0
M  V30 1948 C 193.642 5.69201 2.7603 0
M  V30 1949 C 192.306 6.09343 2.72502 0
M  V30 1950 H 191.576 0.421006 0.609783 0
M  V30 1951 H 194.223 1.58855 1.06945 0
M  V30 1952 H 192.528 1.37752 3.66785 0
M  V30 1953 H 194.225 1.76321 3.60156 0
M  V30 1954 H 190.815 3.06342 2.99754 0
M  V30 1955 H 194.999 4.03775 2.88581 0
M  V30 1956 H 190.255 5.44681 2.77728 0
M  V30 1957 H 194.429 6.42901 2.67678 0
M  V30 1958 H 192.056 7.13712 2.61762 0
M  V30 1959 N 193.631 -1.12557 1.10312 0
M  V30 1960 C 194.861 -1.87592 0.865617 0
M  V30 1961 C 195.269 -1.79851 -0.587389 0
M  V30 1962 O 194.612 -1.16949 -1.41664 0
M  V30 1963 C 194.674 -3.37665 1.23381 0
M  V30 1964 C 194.338 -3.69181 2.69359 0
M  V30 1965 C 195.335 -3.67652 3.67597 0
M  V30 1966 C 193.02 -3.98555 3.05711 0
M  V30 1967 C 195.014 -3.95053 5.00212 0
M  V30 1968 C 192.701 -4.25616 4.38514 0
M  V30 1969 C 193.699 -4.23851 5.35574 0
M  V30 1970 O 193.387 -4.50242 6.65986 0
M  V30 1971 H 193.119 -0.600442 0.310557 0
M  V30 1972 H 195.673 -1.4335 1.47105 0
M  V30 1973 H 193.903 -3.82454 0.571467 0
M  V30 1974 H 195.592 -3.94041 0.973994 0
M  V30 1975 H 196.358 -3.45024 3.40857 0
M  V30 1976 H 192.237 -3.99071 2.30789 0
M  V30 1977 H 195.781 -3.93591 5.75962 0
M  V30 1978 H 191.678 -4.47718 4.64994 0
M  V30 1979 H 192.446 -4.67867 6.71597 0
M  V30 1980 N 195.109 -0.891671 -1.2995 0
M  V30 1981 C 196.525 -0.58662 -1.48428 0
M  V30 1982 C 196.725 0.873951 -1.81561 0
M  V30 1983 O 195.781 1.65471 -1.90724 0
M  V30 1984 C 197.094 -1.50553 -2.60296 0
M  V30 1985 C 198.642 -1.50988 -2.74175 0
M  V30 1986 C 199.117 -2.41488 -3.89163 0
M  V30 1987 N 200.608 -2.39489 -3.96483 0
M  V30 1988 C 201.343 -3.06223 -4.84784 0
M  V30 1989 N 200.839 -3.82206 -5.77833 0
M  V30 1990 N 202.632 -2.95421 -4.78208 0
M  V30 1991 H 194.783 -1.83644 -1.06718 0
M  V30 1992 H 197.046 -0.786455 -0.529332 0
M  V30 1993 H 196.752 -2.54581 -2.42654 0
M  V30 1994 H 196.626 -1.22008 -3.56923 0
M  V30 1995 H 199.013 -0.47708 -2.91218 0
M  V30 1996 H 199.094 -1.83567 -1.78148 0
M  V30 1997 H 198.738 -3.44857 -3.72876 0
M  V30 1998 H 198.668 -2.06222 -4.84541 0
M  V30 1999 H 201.159 -1.84278 -3.29924 0
M  V30 2000 H 201.472 -4.302 -6.41988 0
M  V30 2001 H 199.817 -3.86313 -5.77743 0
M  V30 2002 H 203.008 -2.35581 -4.04499 0
M  V30 2003 H 203.181 -3.47704 -5.46814 0
M  V30 2004 N 196.587 1.43421 -0.653314 0
M  V30 2005 C 197.835 2.01414 -0.166415 0
M  V30 2006 C 198.156 1.51803 1.22397 0
M  V30 2007 O 197.426 0.730693 1.81763 0
M  V30 2008 H 196.006 0.744703 -0.0585319 0
M  V30 2009 H 198.668 1.75629 -0.845003 0
M  V30 2010 H 197.764 3.11734 -0.151111 0
M  V30 2011 N 198.065 0.39524 1.52563 0
M  V30 2012 C 199.293 -0.184943 2.06072 0
M  V30 2013 C 199.708 -1.40021 1.26647 0
M  V30 2014 O 199.065 -1.79767 0.314672 0
M  V30 2015 C 199.116 -0.549179 3.57304 0
M  V30 2016 O 198.837 0.617813 4.33722 0
M  V30 2017 C 200.338 -1.18459 4.2718 0
M  V30 2018 H 197.558 -0.0265025 0.670476 0
M  V30 2019 H 200.102 0.562184 1.96621 0
M  V30 2020 H 198.257 -1.2462 3.66809 0
M  V30 2021 H 198.671 0.317091 5.23541 0
M  V30 2022 H 200.145 -1.38976 5.34219 0
M  V30 2023 H 200.622 -2.15368 3.82771 0
M  V30 2024 H 201.228 -0.528163 4.22008 0
M  V30 2025 N 199.544 -1.57102 0.125237 0
M  V30 2026 C 200.79 -1.95697 -0.532035 0
M  V30 2027 C 201.123 -1.009 -1.6593 0
M  V30 2028 O 200.398 -0.047347 -1.94442 0
M  V30 2029 C 200.681 -3.44181 -1.05884 0
M  V30 2030 C 200.534 -4.49752 0.0654392 0
M  V30 2031 C 201.853 -3.94655 -1.9477 0
M  V30 2032 H 198.972 -0.711571 -0.191925 0
M  V30 2033 H 201.614 -1.88923 0.20206 0
M  V30 2034 H 199.764 -3.50085 -1.68442 0
M  V30 2035 H 201.436 -4.55943 0.700982 0
M  V30 2036 H 199.679 -4.27653 0.727709 0
M  V30 2037 H 200.35 -5.50924 -0.344505 0
M  V30 2038 H 202.826 -3.91094 -1.42074 0
M  V30 2039 H 201.702 -4.99057 -2.28546 0
M  V30 2040 H 201.963 -3.35718 -2.87656 0
M  V30 2041 N 201.022 0.148545 -1.56898 0
M  V30 2042 C 202.299 0.890019 -1.74178 0
M  V30 2043 C 202.679 1.99407 -0.692839 0
M  V30 2044 O 202.027 2.26671 0.288505 0
M  V30 2045 C 202.237 1.43389 -3.18183 0
M  V30 2046 C 203.585 1.89791 -3.79822 0
M  V30 2047 O 204.609 1.53134 -3.21603 0
M  V30 2048 O 203.468 2.57387 -4.82093 0
M  V30 2049 H 200.562 0.420496 -0.712118 0
M  V30 2050 H 203.108 0.134591 -1.69165 0
M  V30 2051 H 201.88 0.640383 -3.86024 0
M  V30 2052 H 201.503 2.25287 -3.27615 0
M  V30 2053 N 202.5 1.5196 0.417844 0
M  V30 2054 C 203.748 1.65263 1.16329 0
M  V30 2055 C 204.069 0.380634 1.91249 0
M  V30 2056 O 203.339 -0.604214 1.86349 0
M  V30 2057 H 201.919 0.60912 0.432414 0
M  V30 2058 H 204.581 1.88969 0.477162 0
M  V30 2059 H 203.677 2.4896 1.88217 0
M  V30 2060 N 203.978 -0.674533 1.42435 0
M  V30 2061 C 205.203 -1.46784 1.46524 0
M  V30 2062 C 205.628 -1.87938 0.078066 0
M  V30 2063 O 204.986 -1.56014 -0.92354 0
M  V30 2064 C 205.034 -2.69307 2.39805 0
M  V30 2065 O 204.138 -3.67587 1.86959 0
M  V30 2066 H 203.479 -0.440959 0.496439 0
M  V30 2067 H 206.009 -0.827326 1.87127 0
M  V30 2068 H 206.019 -3.17374 2.56393 0
M  V30 2069 H 204.694 -2.38692 3.40586 0
M  V30 2070 H 203.271 -3.2662 1.79927 0
M  V30 2071 N 205.456 -1.28612 -0.910864 0
M  V30 2072 C 206.867 -1.14406 -1.47541 0
M  V30 2073 C 207.218 0.264901 -1.94403 0
M  V30 2074 O 206.343 1.15942 -1.82719 0
M  V30 2075 C 206.938 -2.07073 -2.68153 0
M  V30 2076 C 205.497 -1.96923 -3.20778 0
M  V30 2077 C 204.644 -1.98646 -1.93481 0
M  V30 2078 H 207.595 -1.41259 -0.723291 0
M  V30 2079 H 207.616 -1.63642 -3.43514 0
M  V30 2080 H 207.128 -3.09611 -2.34015 0
M  V30 2081 H 205.229 -0.97433 -3.59635 0
M  V30 2082 H 205.342 -2.84026 -3.85832 0
M  V30 2083 H 203.706 -1.43093 -2.10705 0
M  V30 2084 H 204.489 -3.02868 -1.61634 0
M  V30 2085 N 206.934 1.1197 -1.10907 0
M  V30 2086 C 208.35 1.35591 -0.841852 0
M  V30 2087 C 208.55 1.94233 0.536246 0
M  V30 2088 O 207.606 2.1717 1.28816 0
M  V30 2089 C 208.919 2.29284 -1.94549 0
M  V30 2090 C 210.467 2.42862 -1.97451 0
M  V30 2091 C 210.942 3.39873 -3.07002 0
M  V30 2092 N 212.433 3.47433 -3.06341 0
M  V30 2093 C 213.168 4.22421 -3.87748 0
M  V30 2094 N 212.664 5.00432 -4.79103 0
M  V30 2095 N 214.457 4.17876 -3.75946 0
M  V30 2096 H 206.608 0.722664 -1.99728 0
M  V30 2097 H 208.871 0.380635 -0.868229 0
M  V30 2098 H 208.577 1.93378 -2.93765 0
M  V30 2099 H 208.451 3.29452 -1.83688 0
M  V30 2100 H 210.838 2.78046 -0.988645 0
M  V30 2101 H 210.919 1.42566 -2.12388 0
M  V30 2102 H 210.563 3.05417 -4.05811 0
M  V30 2103 H 210.493 4.40011 -2.89306 0
M  V30 2104 H 212.984 2.91784 -2.40147 0
M  V30 2105 H 213.297 5.55002 -5.37766 0
M  V30 2106 H 211.642 4.99612 -4.83128 0
M  V30 2107 H 214.833 3.56016 -3.03924 0
M  V30 2108 H 215.006 4.76061 -4.39624 0
M  V30 2109 N 208.412 0.89855 1.29475 0
M  V30 2110 C 209.637 0.538561 2.00285 0
M  V30 2111 C 210.062 -0.869135 1.66816 0
M  V30 2112 O 209.42 -1.57831 0.892145 0
M  V30 2113 C 209.468 0.736475 3.52999 0
M  V30 2114 O 208.572 -0.211537 4.11857 0
M  V30 2115 H 207.913 0.210563 0.62973 0
M  V30 2116 H 210.443 1.20982 1.64998 0
M  V30 2117 H 210.453 0.640685 4.02938 0
M  V30 2118 H 209.128 1.76276 3.76696 0
M  V30 2119 H 207.705 -0.0682991 3.72837 0
M  V30 2120 N 209.89 -1.43072 0.660911 0
M  V30 2121 C 210.82 -2.33497 -0.0122829 0
M  V30 2122 C 211.801 -1.49903 -0.803925 0
M  V30 2123 O 212.986 -1.78546 -0.763864 0
M  V30 2124 C 210.116 -3.33363 -0.973994 0
M  V30 2125 C 209.07 -4.27003 -0.291928 0
M  V30 2126 C 208.396 -5.16967 -1.36562 0
M  V30 2127 C 209.696 -5.15816 0.820462 0
M  V30 2128 H 211.39 -2.90038 0.742873 0
M  V30 2129 H 208.936 -1.39461 0.358688 0
M  V30 2130 H 210.889 -3.95524 -1.45392 0
M  V30 2131 H 209.613 -2.75095 -1.7604 0
M  V30 2132 H 208.272 -3.66217 0.167623 0
M  V30 2133 H 207.92 -4.55034 -2.14366 0
M  V30 2134 H 207.62 -5.80441 -0.914454 0
M  V30 2135 H 209.144 -5.82003 -1.84675 0
M  V30 2136 H 210.558 -5.71742 0.422366 0
M  V30 2137 H 208.955 -5.8805 1.19656 0
M  V30 2138 H 210.025 -4.55045 1.67518 0
M  V30 2139 N 211.368 -0.403325 -1.52352 0
M  V30 2140 C 212.331 0.413051 -2.25447 0
M  V30 2141 C 213.331 0.978513 -1.276 0
M  V30 2142 O 214.521 0.858305 -1.51587 0
M  V30 2143 C 211.653 1.58087 -3.02029 0
M  V30 2144 H 212.846 -0.227094 -2.99039 0
M  V30 2145 H 210.399 -0.155722 -1.55522 0
M  V30 2146 H 211.134 2.25804 -2.32772 0
M  V30 2147 H 210.919 1.18195 -3.73861 0
M  V30 2148 H 212.409 2.1585 -3.57489 0
M  V30 2149 N 212.846 1.57033 -0.133567 0
M  V30 2150 C 214.092 1.95976 0.521649 0
M  V30 2151 C 214.425 1.01779 1.65393 0
M  V30 2152 O 213.7 0.0576581 1.94415 0
M  V30 2153 C 213.983 3.44738 1.04057 0
M  V30 2154 C 213.836 4.49711 -0.0892897 0
M  V30 2155 C 215.155 3.95682 1.92675 0
M  V30 2156 H 212.274 0.712579 0.188149 0
M  V30 2157 H 214.916 1.88813 -0.212076 0
M  V30 2158 H 213.066 3.50973 1.66583 0
M  V30 2159 H 214.738 4.55565 -0.725152 0
M  V30 2160 H 212.981 4.27261 -0.750378 0
M  V30 2161 H 213.652 5.51099 0.315284 0
M  V30 2162 H 216.128 3.91841 1.39998 0
M  V30 2163 H 215.004 5.00262 2.25897 0
M  V30 2164 H 215.265 3.37239 2.85872 0
M  V30 2165 N 214.325 -0.140222 1.56975 0
M  V30 2166 C 215.572 -0.851687 1.83719 0
M  V30 2167 C 215.9 -1.80862 0.715485 0
M  V30 2168 O 215.155 -1.93464 -0.294956 0
M  V30 2169 C 215.454 -1.65386 3.16832 0
M  V30 2170 C 215.12 -0.843112 4.42947 0
M  V30 2171 C 213.782 -0.619464 4.77196 0
M  V30 2172 C 216.134 -0.276582 5.20466 0
M  V30 2173 C 213.462 0.181312 5.8642 0
M  V30 2174 C 215.814 0.51127 6.30531 0
M  V30 2175 C 214.478 0.745432 6.63325 0
M  V30 2176 H 213.748 -0.311654 0.672274 0
M  V30 2177 H 216.395 -0.115006 1.91154 0
M  V30 2178 H 214.7 -2.46084 3.04877 0
M  V30 2179 H 216.397 -2.20793 3.34741 0
M  V30 2180 H 212.987 -1.0275 4.16101 0
M  V30 2181 H 217.171 -0.436632 4.94376 0
M  V30 2182 H 212.427 0.372165 6.10266 0
M  V30 2183 H 216.601 0.957354 6.89788 0
M  V30 2184 H 214.228 1.36778 7.47794 0
M  V30 2185 N 215.803 -1.52179 -0.40978 0
M  V30 2186 C 217.08 -1.56769 -1.16974 0
M  V30 2187 C 217.46 -0.348322 -2.08206 0
M  V30 2188 O 216.808 0.664862 -2.18613 0
M  V30 2189 C 217.018 -2.89603 -1.9476 0
M  V30 2190 C 218.366 -3.42579 -2.50849 0
M  V30 2191 O 219.39 -2.91338 -2.04941 0
M  V30 2192 O 218.249 -4.32054 -3.34652 0
M  V30 2193 H 215.343 -0.631439 -0.534054 0
M  V30 2194 H 217.889 -1.64507 -0.416613 0
M  V30 2195 H 216.661 -3.698 -1.27921 0
M  V30 2196 H 216.284 -2.85155 -2.77079 0
M  V30 2197 N 217.281 0.66697 -1.42791 0
M  V30 2198 C 218.211 1.79218 -1.49677 0
M  V30 2199 C 219.192 1.66405 -0.352623 0
M  V30 2200 O 220.377 1.85708 -0.567993 0
M  V30 2201 C 217.507 3.17565 -1.40605 0
M  V30 2202 C 216.461 3.45124 -2.53127 0
M  V30 2203 C 215.787 4.83127 -2.29112 0
M  V30 2204 C 217.087 3.41236 -3.95418 0
M  V30 2205 H 218.781 1.73713 -2.43853 0
M  V30 2206 H 216.327 0.83432 -1.17367 0
M  V30 2207 H 218.28 3.96022 -1.44029 0
M  V30 2208 H 217.004 3.23767 -0.429271 0
M  V30 2209 H 215.663 2.69031 -2.49034 0
M  V30 2210 H 215.311 4.85988 -1.29709 0
M  V30 2211 H 215.011 5.02528 -3.04531 0
M  V30 2212 H 216.535 5.63859 -2.34297 0
M  V30 2213 H 217.949 4.09651 -4.01073 0
M  V30 2214 H 216.346 3.72173 -4.70752 0
M  V30 2215 H 217.416 2.39665 -4.21532 0
M  V30 2216 N 218.759 1.29093 0.90403 0
M  V30 2217 C 219.999 1.18076 1.66845 0
M  V30 2218 C 220.363 -0.26436 1.90171 0
M  V30 2219 O 221.564 -0.497423 2.64157 0
M  V30 2220 C 219.835 1.96722 2.98388 0
M  V30 2221 S 221.394 2.0219 3.89441 0
M  V30 2222 H 218.212 0.421104 0.572881 0
M  V30 2223 H 220.814 1.63322 1.07453 0
M  V30 2224 H 219.518 3.00866 2.7912 0
M  V30 2225 H 219.049 1.52064 3.62823 0
M  V30 2226 H 221.064 1.13545 4.83034 0
M  V30 2227 N 220.237 -1.11381 1.11499 0
M  V30 2228 C 221.485 -1.8277 0.862524 0
M  V30 2229 C 221.806 -1.85097 -0.613534 0
M  V30 2230 O 221.076 -1.32198 -1.4457 0
M  V30 2231 H 219.656 -0.676823 0.316101 0
M  V30 2232 H 222.318 -1.34816 1.4075 0
M  V30 2233 H 221.414 -2.86614 1.23527 0
M  V30 2234 N 221.715 -0.905404 -1.28997 0
M  V30 2235 C 222.963 -0.533192 -1.9494 0
M  V30 2236 C 223.284 0.924618 -1.71685 0
M  V30 2237 O 222.554 1.65268 -1.05183 0
M  V30 2238 H 221.134 -0.194194 -0.721317 0
M  V30 2239 H 223.796 -1.15294 -1.57141 0
M  V30 2240 H 222.892 -0.72059 -3.03667 0
M  V30 2241 N 223.193 1.4272 -0.668489 0
M  V30 2242 C 224.123 2.335 -0.000100175 0
M  V30 2243 C 225.104 1.50328 0.795964 0
M  V30 2244 O 226.289 1.78949 0.754385 0
M  V30 2245 C 223.419 3.33874 0.956302 0
M  V30 2246 C 222.373 4.27152 0.269278 0
M  V30 2247 C 221.699 5.17684 1.33818 0
M  V30 2248 C 222.999 5.15373 -0.847805 0
M  V30 2249 H 224.693 2.89639 -0.758244 0
M  V30 2250 H 222.239 1.39269 -0.366079 0
M  V30 2251 H 224.192 3.9629 1.43292 0
M  V30 2252 H 222.916 2.76025 1.74579 0
M  V30 2253 H 221.575 3.66123 -0.187042 0
M  V30 2254 H 221.223 4.56165 2.1195 0
M  V30 2255 H 220.923 5.80918 0.883659 0
M  V30 2256 H 222.447 5.82974 1.81586 0
M  V30 2257 H 223.861 5.7151 -0.452681 0
M  V30 2258 H 222.258 5.87407 -1.22773 0
M  V30 2259 H 223.328 4.5415 -1.69929 0
M  V30 2260 N 224.671 0.411399 1.52136 0
M  V30 2261 C 225.948 -0.222308 1.94333 0
M  V30 2262 C 226.328 -1.6242 1.34844 0
M  V30 2263 O 225.676 -2.22384 0.525145 0
M  V30 2264 C 225.886 -0.226345 3.48265 0
M  V30 2265 C 227.234 -0.444592 4.22266 0
M  V30 2266 O 228.258 -0.305602 3.54887 0
M  V30 2267 O 227.117 -0.718749 5.41753 0
M  V30 2268 H 224.211 -0.143907 0.814383 0
M  V30 2269 H 226.757 0.467506 1.63133 0
M  V30 2270 H 225.529 0.75475 3.83952 0
M  V30 2271 H 225.152 -0.960163 3.85832 0
M  V30 2272 N 226.149 -1.5696 0.141893 0
M  V30 2273 C 227.397 -1.95573 -0.509484 0
M  V30 2274 C 227.718 -1.02746 -1.65736 0
M  V30 2275 O 226.988 -0.0880311 -1.95702 0
M  V30 2276 H 225.568 -0.722115 -0.191205 0
M  V30 2277 H 228.23 -1.93697 0.216196 0
M  V30 2278 H 227.326 -2.99171 -0.889 0
M  V30 2279 N 227.627 0.131896 -1.57047 0
M  V30 2280 C 228.874 0.841932 -1.84168 0
M  V30 2281 C 229.202 1.8048 -0.725066 0
M  V30 2282 O 228.457 1.93618 0.284692 0
M  V30 2283 C 228.756 1.63703 -3.17704 0
M  V30 2284 C 228.422 0.81961 -4.43388 0
M  V30 2285 C 227.084 0.594148 -4.77518 0
M  V30 2286 C 229.436 0.248977 -5.20605 0
M  V30 2287 C 226.764 -0.212409 -5.86315 0
M  V30 2288 C 229.116 -0.544701 -6.30251 0
M  V30 2289 C 227.78 -0.780599 -6.6292 0
M  V30 2290 H 227.05 0.308085 -0.673917 0
M  V30 2291 H 229.697 0.104867 -1.91213 0
M  V30 2292 H 228.002 2.44464 -3.06177 0
M  V30 2293 H 229.699 2.19015 -3.35907 0
M  V30 2294 H 226.289 1.00542 -4.16641 0
M  V30 2295 H 230.473 0.410408 -4.946 0
M  V30 2296 H 225.729 -0.404524 -6.1006 0
M  V30 2297 H 229.903 -0.993922 -6.89271 0
M  V30 2298 H 227.53 -1.40742 -7.47058 0
M  V30 2299 N 229.106 1.52395 0.401703 0
M  V30 2300 C 230.353 1.66817 1.14796 0
M  V30 2301 C 230.681 0.401772 1.90305 0
M  V30 2302 O 229.936 -0.615487 1.85769 0
M  V30 2303 C 230.235 2.84578 2.16217 0
M  V30 2304 C 229.901 4.22513 1.5746 0
M  V30 2305 C 228.563 4.60029 1.41161 0
M  V30 2306 C 230.915 5.0844 1.14622 0
M  V30 2307 C 228.243 5.81144 0.80552 0
M  V30 2308 C 230.595 6.30167 0.55428 0
M  V30 2309 C 229.259 6.66426 0.378482 0
M  V30 2310 H 228.529 0.610428 0.420069 0
M  V30 2311 H 231.176 1.86512 0.434212 0
M  V30 2312 H 229.481 2.59248 2.93764 0
M  V30 2313 H 231.178 2.92933 2.73845 0
M  V30 2314 H 227.768 3.92953 1.71132 0
M  V30 2315 H 231.952 4.80034 1.26021 0
M  V30 2316 H 227.208 6.07855 0.657399 0
M  V30 2317 H 231.382 6.96071 0.213983 0
M  V30 2318 H 229.009 7.60143 -0.0932606 0
M  V30 2319 N 230.584 -0.659388 1.43143 0
M  V30 2320 C 231.547 -1.75432 1.47501 0
M  V30 2321 C 232.547 -1.56707 0.360512 0
M  V30 2322 O 233.737 -1.62717 0.622002 0
M  V30 2323 C 230.869 -3.14239 1.32162 0
M  V30 2324 H 232.062 -1.7295 2.45006 0
M  V30 2325 H 229.615 -0.870469 1.29817 0
M  V30 2326 H 230.35 -3.22336 0.356401 0
M  V30 2327 H 230.135 -3.29235 2.12948 0
M  V30 2328 H 231.625 -3.94094 1.3813 0
M  V30 2329 N 232.062 -1.29571 -0.897171 0
M  V30 2330 C 233.308 -1.17863 -1.65034 0
M  V30 2331 C 233.641 0.268729 -1.92332 0
M  V30 2332 O 232.916 1.19378 -1.53555 0
M  V30 2333 C 233.199 -1.995 -2.99786 0
M  V30 2334 C 233.052 -3.5239 -2.79538 0
M  V30 2335 C 234.371 -1.82335 -4.00552 0
M  V30 2336 H 231.49 -0.429528 -0.598895 0
M  V30 2337 H 234.132 -1.59072 -1.03905 0
M  V30 2338 H 232.282 -1.64485 -3.51962 0
M  V30 2339 H 233.954 -3.97401 -2.34244 0
M  V30 2340 H 232.197 -3.77187 -2.14273 0
M  V30 2341 H 232.868 -4.04787 -3.75302 0
M  V30 2342 H 235.344 -2.12924 -3.57495 0
M  V30 2343 H 234.22 -2.41801 -4.92771 0
M  V30 2344 H 234.481 -0.779209 -4.35179 0
M  V30 2345 N 233.54 1.10788 -1.12088 0
M  V30 2346 C 234.487 2.17025 -0.785407 0
M  V30 2347 C 235.457 1.64265 0.246191 0
M  V30 2348 O 236.642 1.90412 0.121584 0
M  V30 2349 C 233.782 3.44249 -0.242177 0
M  V30 2350 C 232.895 4.1098 -1.33115 0
M  V30 2351 C 232.03 5.25911 -0.747741 0
M  V30 2352 C 231.069 5.84538 -1.81609 0
M  V30 2353 N 230.206 6.90853 -1.25167 0
M  V30 2354 H 235.046 2.45066 -1.69548 0
M  V30 2355 H 232.583 1.20297 -0.846582 0
M  V30 2356 H 234.541 4.17101 0.0908026 0
M  V30 2357 H 233.171 3.16571 0.631072 0
M  V30 2358 H 232.223 3.36133 -1.78097 0
M  V30 2359 H 233.535 4.50601 -2.13917 0
M  V30 2360 H 232.689 6.056 -0.365216 0
M  V30 2361 H 231.428 4.87614 0.0915188 0
M  V30 2362 H 230.433 5.03522 -2.20785 0
M  V30 2363 H 231.658 6.249 -2.6585 0
M  V30 2364 H 229.604 6.54562 -0.434174 0
M  V30 2365 H 229.521 7.29166 -1.99633 0
M  V30 2366 H 230.789 7.7433 -0.896259 0
M  V30 2367 N 235.018 0.912232 1.28515 0
M  V30 2368 C 235.968 0.370649 2.24967 0
M  V30 2369 C 236.952 -0.516375 1.52389 0
M  V30 2370 O 238.144 -0.356345 1.73376 0
M  V30 2371 C 235.273 -0.389526 3.41083 0
M  V30 2372 C 234.359 0.51313 4.20984 0
M  V30 2373 N 234.75 1.62604 4.78951 0
M  V30 2374 C 233.048 0.313235 4.44899 0
M  V30 2375 C 233.749 2.18619 5.39055 0
M  V30 2376 N 232.725 1.47765 5.23132 0
M  V30 2377 H 236.527 1.22061 2.67354 0
M  V30 2378 H 234.041 0.764712 1.43269 0
M  V30 2379 H 236.038 -0.794353 4.09262 0
M  V30 2380 H 234.698 -1.2366 3.0023 0
M  V30 2381 H 235.709 2.00864 4.77362 0
M  V30 2382 H 232.386 -0.494452 4.14562 0
M  V30 2383 H 233.776 3.12228 5.94948 0
M  V30 2384 N 236.496 -1.42363 0.676048 0
M  V30 2385 C 237.459 -2.29199 0.00766941 0
M  V30 2386 C 238.459 -1.43389 -0.727745 0
M  V30 2387 O 239.649 -1.64764 -0.56556 0
M  V30 2388 C 236.781 -3.2591 -0.999785 0
M  V30 2389 H 237.974 -2.89794 0.771988 0
M  V30 2390 H 235.527 -1.50024 0.438468 0
M  V30 2391 H 236.262 -2.70256 -1.79255 0
M  V30 2392 H 236.047 -3.89202 -0.475829 0
M  V30 2393 H 237.537 -3.91028 -1.46583 0
M  V30 2394 N 237.974 -0.419461 -1.51915 0
M  V30 2395 C 239.39 -0.0708431 -1.59443 0
M  V30 2396 C 239.59 1.41796 -1.43164 0
M  V30 2397 O 238.646 2.18596 -1.26381 0
M  V30 2398 C 239.959 -0.574991 -2.95151 0
M  V30 2399 C 241.507 -0.533867 -3.08413 0
M  V30 2400 C 241.982 -1.01469 -4.46618 0
M  V30 2401 N 243.473 -0.971939 -4.52888 0
M  V30 2402 C 244.208 -1.31505 -5.58116 0
M  V30 2403 N 243.704 -1.73014 -6.70849 0
M  V30 2404 N 245.497 -1.23436 -5.48379 0
M  V30 2405 H 237.648 -1.38836 -1.60743 0
M  V30 2406 H 239.911 -0.570998 -0.756747 0
M  V30 2407 H 239.617 -1.61597 -3.12377 0
M  V30 2408 H 239.491 0.00979777 -3.77199 0
M  V30 2409 H 241.878 0.498086 -2.90866 0
M  V30 2410 H 241.959 -1.15484 -2.28248 0
M  V30 2411 H 241.603 -2.04502 -4.6491 0
M  V30 2412 H 241.533 -0.370433 -5.25295 0
M  V30 2413 H 244.024 -0.666893 -3.71969 0
M  V30 2414 H 244.337 -1.97479 -7.47143 0
M  V30 2415 H 242.682 -1.76926 -6.72103 0
M  V30 2416 H 245.873 -0.908869 -4.59192 0
M  V30 2417 H 246.046 -1.50506 -6.30279 0
M  V30 2418 N 239.452 1.56882 -0.150215 0
M  V30 2419 C 240.682 2.00302 0.506213 0
M  V30 2420 C 241.09 1.02934 1.58749 0
M  V30 2421 O 240.433 0.0188384 1.8369 0
M  V30 2422 C 240.495 3.40156 1.16337 0
M  V30 2423 C 240.159 4.56439 0.226311 0
M  V30 2424 C 241.156 5.17012 -0.547265 0
M  V30 2425 C 238.841 5.02136 0.128279 0
M  V30 2426 C 240.835 6.21693 -1.40629 0
M  V30 2427 C 238.522 6.06672 -0.734345 0
M  V30 2428 C 239.52 6.6632 -1.50023 0
M  V30 2429 O 239.208 7.68831 -2.34848 0
M  V30 2430 H 238.94 0.662182 0.135984 0
M  V30 2431 H 241.494 2.03961 -0.242746 0
M  V30 2432 H 239.724 3.33346 1.96004 0
M  V30 2433 H 241.413 3.67663 1.71985 0
M  V30 2434 H 242.179 4.82603 -0.48158 0
M  V30 2435 H 238.058 4.55435 0.714157 0
M  V30 2436 H 241.602 6.68179 -2.00455 0
M  V30 2437 H 237.499 6.40507 -0.801309 0
M  V30 2438 H 238.267 7.86065 -2.28131 0
M  V30 2439 N 240.93 -0.123565 1.57115 0
M  V30 2440 C 242.158 -0.846461 1.88793 0
M  V30 2441 C 242.573 -1.73652 0.740976 0
M  V30 2442 O 241.93 -1.80207 -0.288393 0
M  V30 2443 C 241.981 -1.6837 3.19897 0
M  V30 2444 O 241.702 -0.829477 4.30176 0
M  V30 2445 C 243.203 -2.51214 3.65248 0
M  V30 2446 H 240.423 -0.243573 0.625231 0
M  V30 2447 H 242.967 -0.109324 2.04208 0
M  V30 2448 H 241.122 -2.37364 3.06165 0
M  V30 2449 H 241.536 -1.40651 5.0529 0
M  V30 2450 H 243.01 -3.05497 4.59756 0
M  V30 2451 H 243.487 -3.28359 2.9168 0
M  V30 2452 H 244.093 -1.8747 3.81752 0
M  V30 2453 N 242.408 -1.52605 -0.393616 0
M  V30 2454 C 243.338 -1.80022 -1.48709 0
M  V30 2455 C 244.319 -0.651995 -1.57108 0
M  V30 2456 O 245.504 -0.89913 -1.72132 0
M  V30 2457 C 242.634 -1.96492 -2.86371 0
M  V30 2458 C 241.588 -3.12161 -2.92813 0
M  V30 2459 C 240.914 -3.13877 -4.3288 0
M  V30 2460 C 242.214 -4.51322 -2.6288 0
M  V30 2461 H 243.908 -2.71589 -1.26015 0
M  V30 2462 H 241.454 -1.30684 -0.604778 0
M  V30 2463 H 243.407 -2.14255 -3.62867 0
M  V30 2464 H 242.131 -1.01611 -3.10391 0
M  V30 2465 H 240.79 -2.94173 -2.18764 0
M  V30 2466 H 240.438 -2.16687 -4.53933 0
M  V30 2467 H 240.138 -3.91576 -4.38112 0
M  V30 2468 H 241.662 -3.33789 -5.1129 0
M  V30 2469 H 243.076 -4.69435 -3.29096 0
M  V30 2470 H 241.473 -5.31053 -2.79468 0
M  V30 2471 H 242.543 -4.58353 -1.58242 0
M  V30 2472 N 243.887 0.651787 -1.4349 0
M  V30 2473 C 244.834 1.76462 -1.4876 0
M  V30 2474 C 245.804 1.62641 -0.337189 0
M  V30 2475 O 246.989 1.82864 -0.544544 0
M  V30 2476 C 244.129 3.14623 -1.41796 0
M  V30 2477 C 243.242 3.39568 -2.67053 0
M  V30 2478 C 242.377 4.67585 -2.52068 0
M  V30 2479 C 241.416 4.85639 -3.72587 0
M  V30 2480 N 240.553 6.04915 -3.56402 0
M  V30 2481 H 245.393 1.71293 -2.43849 0
M  V30 2482 H 242.93 0.835889 -1.21043 0
M  V30 2483 H 244.888 3.94496 -1.35753 0
M  V30 2484 H 243.518 3.18859 -0.50288 0
M  V30 2485 H 242.57 2.53783 -2.8337 0
M  V30 2486 H 243.882 3.48795 -3.56572 0
M  V30 2487 H 243.036 5.55586 -2.4374 0
M  V30 2488 H 241.775 4.60681 -1.60075 0
M  V30 2489 H 240.78 3.96073 -3.81321 0
M  V30 2490 H 242.005 4.94372 -4.65589 0
M  V30 2491 H 239.951 5.9914 -2.67146 0
M  V30 2492 H 239.868 6.15106 -4.39524 0
M  V30 2493 H 241.136 6.95533 -3.51929 0
M  V30 2494 N 245.365 1.30045 0.890287 0
M  V30 2495 C 246.776 1.16738 1.45702 0
M  V30 2496 C 247.127 -0.233939 1.948 0
M  V30 2497 O 246.252 -1.13021 1.84541 0
M  V30 2498 C 246.847 2.11313 2.64825 0
M  V30 2499 C 245.406 2.02001 3.17604 0
M  V30 2500 C 244.553 2.01699 1.90296 0
M  V30 2501 H 247.504 1.42392 0.700726 0
M  V30 2502 H 247.525 1.69086 3.40867 0
M  V30 2503 H 247.037 3.13294 2.2906 0
M  V30 2504 H 245.138 1.03142 3.5804 0
M  V30 2505 H 245.251 2.90128 3.81264 0
M  V30 2506 H 243.615 1.46427 2.08402 0
M  V30 2507 H 244.398 3.05402 1.56795 0
M  V30 2508 N 246.843 -1.10192 1.12674 0
M  V30 2509 C 247.773 -2.18652 0.819362 0
M  V30 2510 C 248.754 -1.68698 -0.217915 0
M  V30 2511 O 249.939 -1.94041 -0.0785581 0
M  V30 2512 C 247.069 -3.46202 0.27594 0
M  V30 2513 C 246.023 -4.09444 1.24656 0
M  V30 2514 C 245.349 -5.31725 0.563258 0
M  V30 2515 C 246.649 -4.52863 2.60217 0
M  V30 2516 H 248.343 -2.44622 1.72628 0
M  V30 2517 H 245.889 -1.17571 0.831451 0
M  V30 2518 H 247.842 -4.21372 0.0486149 0
M  V30 2519 H 246.566 -3.1973 -0.666331 0
M  V30 2520 H 245.225 -3.36284 1.45974 0
M  V30 2521 H 244.873 -5.0153 -0.384235 0
M  V30 2522 H 244.573 -5.74991 1.21075 0
M  V30 2523 H 246.097 -6.09624 0.34503 0
M  V30 2524 H 247.511 -5.19294 2.42913 0
M  V30 2525 H 245.908 -5.06986 3.21068 0
M  V30 2526 H 246.978 -3.65656 3.18471 0
M  V30 2527 N 248.321 -0.919034 -1.28029 0
M  V30 2528 C 249.251 -0.428581 -2.29533 0
M  V30 2529 C 250.232 0.50659 -1.62381 0
M  V30 2530 O 251.417 0.413195 -1.89753 0
M  V30 2531 C 248.547 0.327388 -3.45753 0
M  V30 2532 C 247.501 -0.519137 -4.2484 0
M  V30 2533 C 246.827 0.365486 -5.33449 0
M  V30 2534 C 248.127 -1.77914 -4.91064 0
M  V30 2535 H 249.821 -1.27687 -2.70807 0
M  V30 2536 H 247.367 -0.615428 -1.30186 0
M  V30 2537 H 249.32 0.681378 -4.15855 0
M  V30 2538 H 248.044 1.20963 -3.03374 0
M  V30 2539 H 246.703 -0.855717 -3.56473 0
M  V30 2540 H 246.351 1.24642 -4.87312 0
M  V30 2541 H 246.051 -0.197356 -5.87268 0
M  V30 2542 H 247.575 0.715241 -6.06396 0
M  V30 2543 H 248.989 -1.49374 -5.53498 0
M  V30 2544 H 247.386 -2.2848 -5.54903 0
M  V30 2545 H 248.456 -2.50382 -4.15255 0
M  V30 2546 N 249.799 1.42003 -0.683588 0
M  V30 2547 C 251.215 1.55625 -0.353976 0
M  V30 2548 C 251.415 1.66151 1.14 0
M  V30 2549 O 250.471 1.63329 1.92561 0
M  V30 2550 C 251.784 2.80171 -1.092 0
M  V30 2551 C 253.332 2.93954 -1.07518 0
M  V30 2552 C 253.807 4.21372 -1.79471 0
M  V30 2553 N 255.298 4.28303 -1.76381 0
M  V30 2554 C 256.033 5.25729 -2.28904 0
M  V30 2555 N 255.529 6.29254 -2.89846 0
M  V30 2556 N 257.322 5.17586 -2.19228 0
M  V30 2557 H 249.473 1.33415 -1.6527 0
M  V30 2558 H 251.736 0.64282 -0.696769 0
M  V30 2559 H 251.442 2.78561 -2.14701 0
M  V30 2560 H 251.316 3.7133 -0.662862 0
M  V30 2561 H 253.703 2.95086 -0.028475 0
M  V30 2562 H 253.784 2.04002 -1.54328 0
M  V30 2563 H 253.428 4.21001 -2.84114 0
M  V30 2564 H 253.358 5.10275 -1.30104 0
M  V30 2565 H 255.849 3.54119 -1.31939 0
M  V30 2566 H 256.162 6.99964 -3.27522 0
M  V30 2567 H 254.507 6.29791 -2.93919 0
M  V30 2568 H 257.698 4.35631 -1.71299 0
M  V30 2569 H 257.871 5.93348 -2.60466 0
M  V30 2570 N 251.277 0.427512 1.51691 0
M  V30 2571 C 252.525 -0.141948 2.01601 0
M  V30 2572 C 252.846 -1.44067 1.31414 0
M  V30 2573 O 252.116 -1.90763 0.445658 0
M  V30 2574 H 250.696 -0.0554468 0.744939 0
M  V30 2575 H 253.358 0.567968 1.86441 0
M  V30 2576 H 252.454 -0.324913 3.10404 0
M  V30 2577 N 252.755 -1.56801 0.158532 0
M  V30 2578 C 254.166 -1.83189 -0.360366 0
M  V30 2579 C 254.517 -1.07778 -1.63946 0
M  V30 2580 O 253.642 -0.326718 -2.13919 0
M  V30 2581 C 254.237 -3.32297 -0.660595 0
M  V30 2582 C 252.796 -3.59227 -1.12398 0
M  V30 2583 C 251.943 -2.76877 -0.153097 0
M  V30 2584 H 254.894 -1.54008 0.383031 0
M  V30 2585 H 254.915 -3.4908 -1.51405 0
M  V30 2586 H 254.427 -3.87156 0.270527 0
M  V30 2587 H 252.528 -3.09766 -2.07064 0
M  V30 2588 H 252.641 -4.67632 -1.04197 0
M  V30 2589 H 251.005 -2.46319 -0.647983 0
M  V30 2590 H 251.788 -3.34511 0.77182 0
M  V30 2591 N 254.233 0.115231 -1.57178 0
M  V30 2592 C 255.479 0.818565 -1.86202 0
M  V30 2593 C 255.834 1.77316 -0.746785 0
M  V30 2594 O 255.127 1.89923 0.25291 0
M  V30 2595 C 255.321 1.60324 -3.19423 0
M  V30 2596 C 255.15 0.726138 -4.43799 0
M  V30 2597 C 253.92 0.379535 -5.03873 0
M  V30 2598 C 256.118 0.0420774 -5.14283 0
M  V30 2599 N 254.1 -0.507841 -6.11796 0
M  V30 2600 C 255.471 -0.704152 -6.15988 0
M  V30 2601 C 257.526 -0.0339486 -4.97888 0
M  V30 2602 C 256.229 -1.51927 -7.03072 0
M  V30 2603 C 258.255 -0.835906 -5.85463 0
M  V30 2604 C 257.617 -1.57031 -6.86673 0
M  V30 2605 H 253.716 0.276343 -0.731545 0
M  V30 2606 H 256.3 0.0821032 -1.94527 0
M  V30 2607 H 254.471 2.31072 -3.12186 0
M  V30 2608 H 256.203 2.2522 -3.36241 0
M  V30 2609 H 252.958 0.722634 -4.68054 0
M  V30 2610 H 253.382 -0.94349 -6.70393 0
M  V30 2611 H 258.024 0.519496 -4.19596 0
M  V30 2612 H 255.742 -2.08386 -7.80769 0
M  V30 2613 H 259.328 -0.89714 -5.74841 0
M  V30 2614 H 258.208 -2.18088 -7.53264 0
M  V30 2615 N 255.711 1.52812 0.385517 0
M  V30 2616 C 256.674 1.77188 1.45386 0
M  V30 2617 C 257.674 0.641953 1.4743 0
M  V30 2618 O 258.864 0.910033 1.4854 0
M  V30 2619 C 255.996 1.87582 2.8465 0
M  V30 2620 H 257.189 2.72583 1.25054 0
M  V30 2621 H 254.742 1.43586 0.617467 0
M  V30 2622 H 255.477 0.941849 3.10322 0
M  V30 2623 H 255.262 2.69748 2.84567 0
M  V30 2624 H 256.752 2.08102 3.62054 0
M  V30 2625 N 257.189 -0.644168 1.43834 0
M  V30 2626 C 258.099 -1.78563 1.52159 0
M  V30 2627 C 259.115 -1.69147 0.408069 0
M  V30 2628 O 260.291 -1.90156 0.663524 0
M  V30 2629 C 257.356 -3.14888 1.45073 0
M  V30 2630 C 256.417 -3.36034 2.6717 0
M  V30 2631 C 255.65 -4.65855 2.60413 0
M  V30 2632 O 255.873 -5.45805 1.65689 0
M  V30 2633 O 254.807 -4.88918 3.5106 0
M  V30 2634 H 258.633 -1.74494 2.48567 0
M  V30 2635 H 256.218 -0.80378 1.25935 0
M  V30 2636 H 258.1 -3.96179 1.43597 0
M  V30 2637 H 256.775 -3.19528 0.518037 0
M  V30 2638 H 255.682 -2.54472 2.74217 0
M  V30 2639 H 257.015 -3.36247 3.59442 0
M  V30 2640 N 258.668 -1.30515 -0.883378 0
M  V30 2641 C 259.578 -1.18959 -2.02203 0
M  V30 2642 C 260.594 -0.109172 -1.73657 0
M  V30 2643 O 261.77 -0.324413 -1.9877 0
M  V30 2644 C 258.835 -0.883871 -3.35244 0
M  V30 2645 C 257.896 -2.04982 -3.77201 0
M  V30 2646 C 257.129 -1.75859 -5.03894 0
M  V30 2647 O 257.352 -0.687276 -5.66244 0
M  V30 2648 O 256.286 -2.61146 -5.42297 0
M  V30 2649 H 260.112 -2.14616 -2.1488 0
M  V30 2650 H 257.697 -1.10124 -1.0096 0
M  V30 2651 H 259.579 -0.728644 -4.15053 0
M  V30 2652 H 258.254 0.0427798 -3.23672 0
M  V30 2653 H 257.161 -2.26038 -2.9809 0
M  V30 2654 H 258.494 -2.95825 -3.93381 0
M  V30 2655 N 260.146 1.09593 -1.13257 0
M  V30 2656 C 261.056 2.19739 -0.821691 0
M  V30 2657 C 262.072 1.72926 0.19302 0
M  V30 2658 O 263.248 2.01385 0.0244895 0
M  V30 2659 C 260.313 3.45482 -0.290333 0
M  V30 2660 C 259.374 4.06985 -1.36607 0
M  V30 2661 C 258.607 5.26726 -0.859975 0
M  V30 2662 O 258.83 5.69594 0.303082 0
M  V30 2663 O 257.764 5.7931 -1.63351 0
M  V30 2664 H 261.59 2.48781 -1.74189 0
M  V30 2665 H 259.175 1.18496 -0.909894 0
M  V30 2666 H 261.057 4.214 0.000674022 0
M  V30 2667 H 259.732 3.18047 0.602306 0
M  V30 2668 H 258.639 3.32712 -1.71037 0
M  V30 2669 H 259.972 4.38643 -2.23279 0
M  V30 2670 N 261.624 0.925811 1.2754 0
M  V30 2671 C 262.571 0.422045 2.26908 0
M  V30 2672 C 263.541 -0.510029 1.58076 0
M  V30 2673 O 264.726 -0.429599 1.85901 0
M  V30 2674 C 261.866 -0.320837 3.43605 0
M  V30 2675 C 260.979 0.64513 4.27156 0
M  V30 2676 C 260.114 -0.117405 5.3107 0
M  V30 2677 C 259.153 0.841391 6.0629 0
M  V30 2678 N 258.29 0.111604 7.02011 0
M  V30 2679 H 263.13 1.27441 2.69375 0
M  V30 2680 H 260.667 0.639697 1.32462 0
M  V30 2681 H 262.625 -0.76785 4.10073 0
M  V30 2682 H 261.255 -1.13745 3.02096 0
M  V30 2683 H 260.307 1.21067 3.6062 0
M  V30 2684 H 261.619 1.37797 4.79389 0
M  V30 2685 H 260.773 -0.624422 6.03478 0
M  V30 2686 H 259.512 -0.883219 4.79636 0
M  V30 2687 H 258.517 1.35967 5.32722 0
M  V30 2688 H 259.742 1.60696 6.59813 0
M  V30 2689 H 257.688 -0.635999 6.5291 0
M  V30 2690 H 257.605 0.784044 7.51923 0
M  V30 2691 H 258.873 -0.374823 7.78598 0
M  V30 2692 N 263.102 -1.41638 0.69111 0
M  V30 2693 C 264.35 -2.00902 0.219758 0
M  V30 2694 C 264.671 -1.54994 -1.18329 0
M  V30 2695 O 263.941 -0.778628 -1.79762 0
M  V30 2696 H 262.521 -0.74289 0.0782558 0
M  V30 2697 H 265.183 -1.73327 0.891271 0
M  V30 2698 H 264.279 -3.11224 0.233708 0
M  V30 2699 N 264.58 -0.43555 -1.51462 0
M  V30 2700 C 265.996 -0.0877501 -1.59359 0
M  V30 2701 C 266.196 1.4027 -1.4466 0
M  V30 2702 O 265.252 2.17243 -1.28693 0
M  V30 2703 C 266.565 -0.606264 -2.94525 0
M  V30 2704 C 268.113 -0.566548 -3.0783 0
M  V30 2705 C 268.588 -1.06201 -4.45517 0
M  V30 2706 N 270.079 -1.01992 -4.51832 0
M  V30 2707 C 270.814 -1.37417 -5.5669 0
M  V30 2708 N 270.31 -1.80119 -6.68976 0
M  V30 2709 N 272.103 -1.29245 -5.47039 0
M  V30 2710 H 264.254 -1.40533 -1.59261 0
M  V30 2711 H 266.517 -0.578992 -0.750648 0
M  V30 2712 H 266.223 -1.64901 -3.10645 0
M  V30 2713 H 266.097 -0.0302097 -3.77188 0
M  V30 2714 H 268.484 0.467208 -2.91378 0
M  V30 2715 H 268.565 -1.17898 -2.2701 0
M  V30 2716 H 268.209 -2.09422 -4.62715 0
M  V30 2717 H 268.139 -0.426127 -5.24873 0
M  V30 2718 H 270.63 -0.706308 -3.71241 0
M  V30 2719 H 270.943 -2.05392 -7.45006 0
M  V30 2720 H 269.288 -1.84044 -6.70189 0
M  V30 2721 H 272.479 -0.957522 -4.58202 0
M  V30 2722 H 272.652 -1.57182 -6.28648 0
M  V30 2723 N 266.058 1.56714 -0.166846 0
M  V30 2724 C 267.304 1.97039 0.479962 0
M  V30 2725 C 267.637 1.05264 1.63197 0
M  V30 2726 O 266.912 0.0988833 1.94248 0
M  V30 2727 C 267.195 3.46867 0.967212 0
M  V30 2728 C 267.048 4.49421 -0.18466 0
M  V30 2729 C 268.367 3.9968 1.84238 0
M  V30 2730 H 265.486 0.71641 0.172992 0
M  V30 2731 H 268.128 1.8832 -0.252079 0
M  V30 2732 H 266.278 3.54428 1.59101 0
M  V30 2733 H 267.95 4.53924 -0.821621 0
M  V30 2734 H 266.193 4.25573 -0.840837 0
M  V30 2735 H 266.864 5.51644 0.198317 0
M  V30 2736 H 269.34 3.94723 1.31655 0
M  V30 2737 H 268.216 5.04941 2.15234 0
M  V30 2738 H 268.477 3.43226 2.78654 0
M  V30 2739 N 267.536 -0.106894 1.57237 0
M  V30 2740 C 268.766 -0.825191 1.89405 0
M  V30 2741 C 269.174 -1.73374 0.757496 0
M  V30 2742 O 268.517 -1.81552 -0.280115 0
M  V30 2743 C 268.579 -1.70102 3.1671 0
M  V30 2744 C 268.243 -0.965523 4.46684 0
M  V30 2745 C 269.24 -0.300741 5.19029 0
M  V30 2746 C 266.925 -0.943105 4.93367 0
M  V30 2747 C 268.919 0.376622 6.36286 0
M  V30 2748 C 266.606 -0.261949 6.10538 0
M  V30 2749 C 267.604 0.396748 6.81847 0
M  V30 2750 O 267.292 1.06701 7.96787 0
M  V30 2751 H 267.024 -0.241852 0.631255 0
M  V30 2752 H 269.578 -0.0921491 2.05193 0
M  V30 2753 H 267.808 -2.47601 2.97036 0
M  V30 2754 H 269.497 -2.29483 3.34802 0
M  V30 2755 H 270.263 -0.309599 4.84011 0
M  V30 2756 H 266.142 -1.44524 4.3776 0
M  V30 2757 H 269.686 0.891334 6.91882 0
M  V30 2758 H 265.583 -0.250896 6.45012 0
M  V30 2759 H 266.351 0.972707 8.127 0
M  V30 2760 N 269.014 -1.53014 -0.377408 0
M  V30 2761 C 270.262 -1.6829 -1.11906 0
M  V30 2762 C 270.583 -0.431206 -1.90173 0
M  V30 2763 O 269.853 0.554595 -1.87886 0
M  V30 2764 H 268.433 -0.620371 -0.416112 0
M  V30 2765 H 271.095 -1.90167 -0.426893 0
M  V30 2766 H 270.191 -2.53862 -1.8155 0
M  V30 2767 N 270.492 0.636531 -1.44174 0
M  V30 2768 C 271.769 1.39463 -1.37148 0
M  V30 2769 C 272.149 2.11082 -0.027507 0
M  V30 2770 O 271.497 2.05954 0.989716 0
M  V30 2771 C 271.707 2.36552 -2.56601 0
M  V30 2772 C 273.055 3.00048 -3.00427 0
M  V30 2773 O 274.079 2.46878 -2.56767 0
M  V30 2774 O 272.938 3.96488 -3.76111 0
M  V30 2775 H 270.032 0.623903 -0.542839 0
M  V30 2776 H 272.578 0.662039 -1.56253 0
M  V30 2777 H 271.35 1.82692 -3.46034 0
M  V30 2778 H 270.973 3.17236 -2.39681 0
M  V30 2779 N 271.97 1.30982 0.876444 0
M  V30 2780 C 273.218 1.20058 1.62575 0
M  V30 2781 C 273.539 -0.242947 1.93481 0
M  V30 2782 O 272.809 -1.1619 1.57724 0
M  V30 2783 H 271.389 0.44135 0.602677 0
M  V30 2784 H 274.051 1.64222 1.04962 0
M  V30 2785 H 273.147 1.76762 2.57219 0
M  V30 2786 N 273.449 -1.08991 1.13837 0
M  V30 2787 C 274.674 -1.85551 0.926585 0
M  V30 2788 C 275.099 -1.80782 -0.519566 0
M  V30 2789 O 274.457 -1.18855 -1.36906 0
M  V30 2790 C 274.505 -3.31266 1.42462 0
M  V30 2791 O 273.609 -4.07822 0.612789 0
M  V30 2792 H 272.95 -0.575192 0.331738 0
M  V30 2793 H 275.48 -1.37604 1.51414 0
M  V30 2794 H 275.49 -3.82112 1.43019 0
M  V30 2795 H 274.165 -3.34052 2.47754 0
M  V30 2796 H 272.742 -3.66731 0.675463 0
M  V30 2797 N 274.927 -0.932562 -1.27047 0
M  V30 2798 C 275.89 -0.440064 -2.24936 0
M  V30 2799 C 276.89 0.444071 -1.54547 0
M  V30 2800 O 278.08 0.244465 -1.72476 0
M  V30 2801 C 275.212 0.36678 -3.38921 0
M  V30 2802 H 276.405 -1.305 -2.70018 0
M  V30 2803 H 273.958 -0.713707 -1.39054 0
M  V30 2804 H 274.693 1.25033 -2.99228 0
M  V30 2805 H 274.478 -0.267204 -3.91188 0
M  V30 2806 H 275.968 0.701567 -4.11665 0
M  V30 2807 N 276.405 1.4127 -0.698611 0
M  V30 2808 C 277.821 1.55241 -0.370462 0
M  V30 2809 C 278.021 1.67351 1.12231 0
M  V30 2810 O 277.077 1.65363 1.90818 0
M  V30 2811 C 278.39 2.78997 -1.12165 0
M  V30 2812 C 279.938 2.92797 -1.1063 0
M  V30 2813 C 280.413 4.19445 -1.8393 0
M  V30 2814 N 281.904 4.26409 -1.80914 0
M  V30 2815 C 282.639 5.23271 -2.34467 0
M  V30 2816 N 282.135 6.26145 -2.96504 0
M  V30 2817 N 283.928 5.15232 -2.24706 0
M  V30 2818 H 276.079 1.31654 -1.66676 0
M  V30 2819 H 278.342 0.635393 -0.703548 0
M  V30 2820 H 278.048 2.76268 -2.17644 0
M  V30 2821 H 277.922 3.70606 -0.702209 0
M  V30 2822 H 280.309 2.95039 -0.0597713 0
M  V30 2823 H 280.39 2.02353 -1.56483 0
M  V30 2824 H 280.034 4.17964 -2.88563 0
M  V30 2825 H 279.964 5.08866 -1.35509 0
M  V30 2826 H 282.455 3.527 -1.35687 0
M  V30 2827 H 282.768 6.96451 -3.34927 0
M  V30 2828 H 281.113 6.26638 -3.00583 0
M  V30 2829 H 284.304 4.33789 -1.7591 0
M  V30 2830 H 284.477 5.90552 -2.66745 0
M  V30 2831 N 277.883 0.443576 1.51229 0
M  V30 2832 C 279.132 -0.122332 2.01329 0
M  V30 2833 C 279.445 -1.43237 1.33201 0
M  V30 2834 O 280.651 -2.0816 1.74304 0
M  V30 2835 C 279.107 -0.268551 3.58897 0
M  V30 2836 C 278.715 1.03142 4.35965 0
M  V30 2837 C 280.459 -0.787894 4.17124 0
M  V30 2838 C 278.366 0.850504 5.85252 0
M  V30 2839 H 277.296 -0.0494929 0.752374 0
M  V30 2840 H 279.947 0.574289 1.74282 0
M  V30 2841 H 278.329 -1.02832 3.82415 0
M  V30 2842 H 279.503 1.80001 4.24189 0
M  V30 2843 H 277.818 1.47977 3.89219 0
M  V30 2844 H 280.415 -0.939841 5.26375 0
M  V30 2845 H 280.758 -1.77201 3.76703 0
M  V30 2846 H 281.291 -0.0862669 3.97706 0
M  V30 2847 H 278.03 1.80718 6.30096 0
M  V30 2848 H 277.55 0.121825 5.99676 0
M  V30 2849 H 279.229 0.506163 6.45017 0
M  V30 2850 N 279.361 -1.56624 0.175154 0
M  V30 2851 C 280.291 -2.21155 -0.749195 0
M  V30 2852 C 281.272 -1.16836 -1.23626 0
M  V30 2853 O 282.457 -1.45277 -1.28873 0
M  V30 2854 C 279.587 -2.8553 -1.97711 0
M  V30 2855 C 278.541 -3.95921 -1.62575 0
M  V30 2856 C 277.867 -4.47365 -2.92864 0
M  V30 2857 C 279.167 -5.15323 -0.850838 0
M  V30 2858 H 280.861 -2.98653 -0.211295 0
M  V30 2859 H 278.407 -1.43651 -0.100188 0
M  V30 2860 H 280.36 -3.2935 -2.62881 0
M  V30 2861 H 279.084 -2.05406 -2.53921 0
M  V30 2862 H 277.743 -3.52762 -0.997719 0
M  V30 2863 H 277.391 -3.64027 -3.47122 0
M  V30 2864 H 277.091 -5.21839 -2.70106 0
M  V30 2865 H 278.615 -4.93873 -3.59056 0
M  V30 2866 H 280.029 -5.55812 -1.40521 0
M  V30 2867 H 278.426 -5.95739 -0.722154 0
M  V30 2868 H 279.496 -4.84661 0.152082 0
M  V30 2869 N 280.839 0.0985539 -1.57292 0
M  V30 2870 C 281.789 1.1261 -1.9825 0
M  V30 2871 C 282.773 1.35961 -0.860426 0
M  V30 2872 O 283.965 1.36711 -1.12424 0
M  V30 2873 C 281.094 2.44727 -2.40757 0
M  V30 2874 C 280.18 2.24764 -3.59642 0
M  V30 2875 N 280.571 1.74661 -4.74687 0
M  V30 2876 C 278.869 2.55344 -3.65672 0
M  V30 2877 C 279.57 1.68887 -5.56644 0
M  V30 2878 N 278.546 2.13976 -4.99715 0
M  V30 2879 H 282.348 0.731604 -2.84648 0
M  V30 2880 H 279.862 0.306029 -1.59491 0
M  V30 2881 H 281.859 3.19072 -2.68326 0
M  V30 2882 H 280.519 2.84917 -1.55733 0
M  V30 2883 H 281.53 1.43908 -4.97505 0
M  V30 2884 H 278.207 2.99081 -2.91302 0
M  V30 2885 H 279.597 1.3123 -6.5896 0
M  V30 2886 N 282.317 1.53212 0.369288 0
M  V30 2887 C 283.563 1.69466 1.11397 0
M  V30 2888 C 283.896 0.443257 1.89074 0
M  V30 2889 O 283.171 -0.559386 1.86282 0
M  V30 2890 C 283.454 2.9422 2.07621 0
M  V30 2891 C 283.307 4.29508 1.33577 0
M  V30 2892 C 284.626 3.14565 3.07794 0
M  V30 2893 H 281.745 0.616667 0.403597 0
M  V30 2894 H 284.387 1.85845 0.395179 0
M  V30 2895 H 282.537 2.80387 2.68916 0
M  V30 2896 H 284.209 4.55147 0.750955 0
M  V30 2897 H 282.452 4.29088 0.637618 0
M  V30 2898 H 283.123 5.12926 2.03989 0
M  V30 2899 H 285.599 3.2756 2.56601 0
M  V30 2900 H 284.475 4.03297 3.72348 0
M  V30 2901 H 284.736 2.29675 3.77759 0
M  V30 2902 N 283.795 -0.628877 1.44509 0
M  V30 2903 C 285.025 -1.41349 1.50678 0
M  V30 2904 C 285.433 -1.88745 0.131075 0
M  V30 2905 O 284.776 -1.61592 -0.87371 0
M  V30 2906 C 284.838 -2.66608 2.41165 0
M  V30 2907 C 284.502 -2.40993 3.88293 0
M  V30 2908 C 285.499 -2.0268 4.78766 0
M  V30 2909 C 283.184 -2.54563 4.33016 0
M  V30 2910 C 285.178 -1.78269 6.11963 0
M  V30 2911 C 282.865 -2.29766 5.6626 0
M  V30 2912 C 283.863 -1.91678 6.55552 0
M  V30 2913 O 283.551 -1.67158 7.86329 0
M  V30 2914 H 283.283 -0.439851 0.51333 0
M  V30 2915 H 285.837 -0.776084 1.90174 0
M  V30 2916 H 284.067 -3.32994 1.96601 0
M  V30 2917 H 285.756 -3.28615 2.38259 0
M  V30 2918 H 286.522 -1.91751 4.45485 0
M  V30 2919 H 282.401 -2.83179 3.63773 0
M  V30 2920 H 285.945 -1.48465 6.81619 0
M  V30 2921 H 281.842 -2.40306 5.99102 0
M  V30 2922 H 282.61 -1.81386 7.98149 0
M  V30 2923 N 285.273 -1.31445 -0.869486 0
M  V30 2924 C 286.501 -1.24122 -1.65534 0
M  V30 2925 C 286.916 0.193387 -1.87807 0
M  V30 2926 O 286.273 1.12557 -1.43656 0
M  V30 2927 C 286.324 -1.98229 -3.02304 0
M  V30 2928 O 286.045 -3.3609 -2.81026 0
M  V30 2929 C 287.546 -1.97751 -3.96749 0
M  V30 2930 H 284.766 -0.428868 -0.516055 0
M  V30 2931 H 287.31 -1.73328 -1.08525 0
M  V30 2932 H 285.465 -1.52782 -3.56001 0
M  V30 2933 H 285.879 -3.7383 -3.67902 0
M  V30 2934 H 287.353 -2.54114 -4.90031 0
M  V30 2935 H 287.83 -0.960137 -4.28577 0
M  V30 2936 H 288.436 -2.43079 -3.48988 0
M  V30 2937 N 286.751 1.08385 -1.14413 0
M  V30 2938 C 288.167 1.32844 -0.884563 0
M  V30 2939 C 288.367 1.95841 0.474181 0
M  V30 2940 O 287.423 2.21158 1.21842 0
M  V30 2941 C 288.736 2.22978 -2.01745 0
M  V30 2942 C 290.284 2.36458 -2.05077 0
M  V30 2943 C 290.759 3.29934 -3.1766 0
M  V30 2944 N 292.25 3.37511 -3.17239 0
M  V30 2945 C 292.985 4.09871 -4.0099 0
M  V30 2946 N 292.481 4.84936 -4.94781 0
M  V30 2947 N 294.274 4.05704 -3.89051 0
M  V30 2948 H 286.425 0.658756 -2.01926 0
M  V30 2949 H 288.688 0.352821 -0.879899 0
M  V30 2950 H 288.394 1.83934 -2.99769 0
M  V30 2951 H 288.268 3.23441 -1.94077 0
M  V30 2952 H 290.655 2.7476 -1.0766 0
M  V30 2953 H 290.736 1.35736 -2.16816 0
M  V30 2954 H 290.38 2.92352 -4.15322 0
M  V30 2955 H 290.31 4.30584 -3.03158 0
M  V30 2956 H 292.801 2.83996 -2.49308 0
M  V30 2957 H 293.114 5.37612 -5.55151 0
M  V30 2958 H 291.459 4.83988 -4.98779 0
M  V30 2959 H 294.65 3.46167 -3.15097 0
M  V30 2960 H 294.823 4.61834 -4.54547 0
M  V30 2961 N 288.23 0.939286 1.26551 0
M  V30 2962 C 289.14 0.453432 2.30176 0
M  V30 2963 C 290.156 -0.471649 1.67486 0
M  V30 2964 O 291.332 -0.35164 1.98306 0
M  V30 2965 C 288.397 -0.275326 3.45605 0
M  V30 2966 C 287.458 0.686084 4.23782 0
M  V30 2967 C 286.691 -0.00798994 5.33699 0
M  V30 2968 O 286.914 -1.22528 5.57085 0
M  V30 2969 O 285.848 0.669746 5.98162 0
M  V30 2970 H 289.674 1.31416 2.73795 0
M  V30 2971 H 287.259 0.705095 1.31715 0
M  V30 2972 H 289.141 -0.685911 4.1578 0
M  V30 2973 H 287.816 -1.11147 3.0402 0
M  V30 2974 H 286.723 1.14658 3.56096 0
M  V30 2975 H 288.056 1.48979 4.69112 0
M  V30 2976 N 289.708 -1.40897 0.706093 0
M  V30 2977 C 290.956 -2.00657 0.241054 0
M  V30 2978 C 291.277 -1.56241 -1.16678 0
M  V30 2979 O 290.547 -0.79765 -1.78926 0
M  V30 2980 H 289.127 -0.742018 0.0861308 0
M  V30 2981 H 291.789 -1.72372 0.909604 0
M  V30 2982 H 290.885 -3.10958 0.266705 0
M  V30 2983 N 291.186 -0.45159 -1.50991 0
M  V30 2984 C 292.433 0.110074 -2.02201 0
M  V30 2985 C 292.761 1.4146 -1.33489 0
M  V30 2986 O 292.016 1.90617 -0.443125 0
M  V30 2987 C 292.315 0.361728 -3.55565 0
M  V30 2988 C 291.981 -0.858717 -4.42648 0
M  V30 2989 C 290.643 -1.19338 -4.66167 0
M  V30 2990 C 292.995 -1.67221 -4.93646 0
M  V30 2991 C 290.323 -2.34195 -5.37931 0
M  V30 2992 C 292.675 -2.8119 -5.6667 0
M  V30 2993 C 291.339 -3.15094 -5.88449 0
M  V30 2994 H 290.609 0.040279 -0.739904 0
M  V30 2995 H 293.256 -0.601696 -1.81802 0
M  V30 2996 H 291.561 1.15554 -3.74372 0
M  V30 2997 H 293.258 0.80996 -3.92735 0
M  V30 2998 H 289.848 -0.58796 -4.24548 0
M  V30 2999 H 294.032 -1.42686 -4.75347 0
M  V30 3000 H 289.288 -2.6076 -5.53005 0
M  V30 3001 H 293.462 -3.44585 -6.05173 0
M  V30 3002 H 291.089 -4.04204 -6.43835 0
M  V30 3003 N 292.664 1.56529 -0.183458 0
M  V30 3004 C 293.889 2.02064 0.467428 0
M  V30 3005 C 294.314 1.06282 1.55196 0
M  V30 3006 O 293.672 0.0443565 1.81246 0
M  V30 3007 C 293.72 3.46122 1.01153 0
M  V30 3008 O 292.824 3.53437 2.12499 0
M  V30 3009 H 292.165 0.654726 0.110588 0
M  V30 3010 H 294.695 2.02521 -0.290917 0
M  V30 3011 H 294.705 3.85676 1.33108 0
M  V30 3012 H 293.38 4.15331 0.217533 0
M  V30 3013 H 291.957 3.2575 1.81497 0
M  V30 3014 N 294.142 -0.090211 1.57342 0
M  V30 3015 C 295.389 -0.792807 1.86335 0
M  V30 3016 C 295.717 -1.78494 0.772662 0
M  V30 3017 O 294.972 -1.94305 -0.233258 0
M  V30 3018 C 295.271 -1.55222 3.21933 0
M  V30 3019 C 294.937 -0.701765 4.45406 0
M  V30 3020 C 293.599 -0.467334 4.78925 0
M  V30 3021 C 295.951 -0.11086 5.21082 0
M  V30 3022 C 293.279 0.367785 5.85546 0
M  V30 3023 C 295.631 0.711609 6.28585 0
M  V30 3024 C 294.295 0.956086 6.60617 0
M  V30 3025 H 293.565 -0.290109 0.681849 0
M  V30 3026 H 296.212 -0.0541332 1.91423 0
M  V30 3027 H 294.517 -2.3626 3.12551 0
M  V30 3028 H 296.214 -2.10032 3.41595 0
M  V30 3029 H 292.804 -0.894598 4.1916 0
M  V30 3030 H 296.988 -0.279129 4.95514 0
M  V30 3031 H 292.244 0.566128 6.08773 0
M  V30 3032 H 296.418 1.17632 6.86393 0
M  V30 3033 H 294.045 1.60499 7.43064 0
M  V30 3034 N 295.62 -1.53406 -0.361157 0
M  V30 3035 C 296.53 -1.83122 -1.4664 0
M  V30 3036 C 297.546 -0.719943 -1.58407 0
M  V30 3037 O 298.722 -1.01046 -1.74218 0
M  V30 3038 C 295.787 -2.01891 -2.81853 0
M  V30 3039 C 294.848 -3.25784 -2.79577 0
M  V30 3040 C 294.081 -3.43648 -4.0834 0
M  V30 3041 O 294.304 -2.65714 -5.0473 0
M  V30 3042 O 293.238 -4.37018 -4.13883 0
M  V30 3043 H 297.064 -2.7703 -1.24451 0
M  V30 3044 H 294.649 -1.38841 -0.551678 0
M  V30 3045 H 296.531 -2.15782 -3.61962 0
M  V30 3046 H 295.206 -1.11173 -3.0401 0
M  V30 3047 H 294.113 -3.17312 -1.98151 0
M  V30 3048 H 295.446 -4.16439 -2.62373 0
M  V30 3049 N 297.098 0.621204 -1.44841 0
M  V30 3050 C 298.061 1.71459 -1.521 0
M  V30 3051 C 299.061 1.55696 -0.401933 0
M  V30 3052 O 300.251 1.61011 -0.664925 0
M  V30 3053 C 297.383 3.10624 -1.40447 0
M  V30 3054 H 298.576 1.66394 -2.49506 0
M  V30 3055 H 296.129 0.835745 -1.3208 0
M  V30 3056 H 296.864 3.21277 -0.441737 0
M  V30 3057 H 296.649 3.23473 -2.21602 0
M  V30 3058 H 298.139 3.90293 -1.4853 0
M  V30 3059 N 298.576 1.31904 0.862503 0
M  V30 3060 C 299.506 1.22782 1.98612 0
M  V30 3061 C 300.487 0.113362 1.69722 0
M  V30 3062 O 301.672 0.299218 1.91881 0
M  V30 3063 C 298.802 0.942058 3.34279 0
M  V30 3064 C 297.756 2.0169 3.77499 0
M  V30 3065 C 297.082 1.58369 5.10709 0
M  V30 3066 C 298.382 3.43096 3.93805 0
M  V30 3067 H 300.076 2.16788 2.06502 0
M  V30 3068 H 297.622 1.04366 0.992154 0
M  V30 3069 H 299.575 0.864818 4.1243 0
M  V30 3070 H 298.299 -0.0336603 3.26583 0
M  V30 3071 H 296.958 2.08416 3.01593 0
M  V30 3072 H 296.606 0.595628 4.99461 0
M  V30 3073 H 296.306 2.30279 5.40597 0
M  V30 3074 H 297.83 1.52067 5.91361 0
M  V30 3075 H 299.244 3.39003 4.62331 0
M  V30 3076 H 297.641 4.13288 4.35101 0
M  V30 3077 H 298.711 3.83334 2.96957 0
M  V30 3078 N 300.054 -1.07777 1.14986 0
M  V30 3079 C 301.465 -1.61766 0.932127 0
M  V30 3080 C 301.816 -1.88974 -0.527581 0
M  V30 3081 O 300.941 -1.65198 -1.39781 0
M  V30 3082 C 301.536 -2.93891 1.68563 0
M  V30 3083 C 300.095 -3.44639 1.5133 0
M  V30 3084 C 299.242 -2.18767 1.704 0
M  V30 3085 H 302.193 -0.909201 1.30074 0
M  V30 3086 H 302.214 -3.62623 1.15259 0
M  V30 3087 H 301.726 -2.74057 2.74799 0
M  V30 3088 H 299.827 -3.69564 0.474702 0
M  V30 3089 H 299.94 -4.20966 2.28746 0
M  V30 3090 H 298.304 -2.28253 1.13016 0
M  V30 3091 H 299.087 -2.01433 2.77992 0
M  V30 3092 N 301.532 -0.945985 -1.26051 0
M  V30 3093 C 302.943 -0.638096 -1.75457 0
M  V30 3094 C 303.294 0.846672 -1.76991 0
M  V30 3095 O 302.419 1.66262 -1.38513 0
M  V30 3096 C 303.014 -1.15157 -3.18629 0
M  V30 3097 C 301.573 -0.894004 -3.65629 0
M  V30 3098 C 300.72 -1.29967 -2.44957 0
M  V30 3099 H 303.671 -1.12376 -1.1206 0
M  V30 3100 H 303.692 -0.507615 -3.77099 0
M  V30 3101 H 303.204 -2.23222 -3.1748 0
M  V30 3102 H 301.305 0.172057 -3.72203 0
M  V30 3103 H 301.418 -1.52439 -4.54202 0
M  V30 3104 H 299.782 -0.718078 -2.44368 0
M  V30 3105 H 300.565 -2.38935 -2.46505 0
M  V30 3106 N 303.011 1.40521 -0.713556 0
M  V30 3107 C 304.427 1.54839 -0.386907 0
M  V30 3108 C 304.627 1.68532 1.1045 0
M  V30 3109 O 303.683 1.67377 1.89053 0
M  V30 3110 C 304.996 2.77792 -1.15118 0
M  V30 3111 C 306.544 2.91607 -1.13729 0
M  V30 3112 C 307.019 4.1747 -1.88368 0
M  V30 3113 N 308.51 4.24466 -1.85427 0
M  V30 3114 C 309.245 5.20755 -2.40004 0
M  V30 3115 N 308.741 6.22965 -3.03129 0
M  V30 3116 N 310.534 5.1282 -2.30158 0
M  V30 3117 H 302.685 1.29879 -1.68063 0
M  V30 3118 H 304.948 0.627896 -0.710247 0
M  V30 3119 H 304.654 2.73944 -2.20561 0
M  V30 3120 H 304.528 3.6984 -0.741477 0
M  V30 3121 H 306.915 2.94959 -0.0910608 0
M  V30 3122 H 306.996 2.00682 -1.5862 0
M  V30 3123 H 306.64 4.1488 -2.9298 0
M  V30 3124 H 306.57 5.074 -1.40898 0
M  V30 3125 H 309.061 3.51241 -1.3942 0
M  V30 3126 H 309.374 6.92859 -3.42295 0
M  V30 3127 H 307.719 6.23415 -3.07212 0
M  V30 3128 H 310.91 4.31899 -1.80501 0
M  V30 3129 H 311.083 5.87689 -2.72993 0
M  V30 3130 N 304.489 0.459591 1.5075 0
M  V30 3131 C 305.452 -0.329093 2.26825 0
M  V30 3132 C 306.452 -0.930481 1.31144 0
M  V30 3133 O 307.642 -0.801453 1.54669 0
M  V30 3134 C 304.774 -1.46768 3.07688 0
M  V30 3135 H 305.967 0.337924 2.9799 0
M  V30 3136 H 303.52 0.213336 1.54837 0
M  V30 3137 H 304.255 -2.17009 2.40993 0
M  V30 3138 H 304.04 -1.04238 3.77991 0
M  V30 3139 H 305.53 -2.02433 3.65254 0
M  V30 3140 N 305.967 -1.56429 0.191757 0
M  V30 3141 C 307.192 -2.02309 -0.456706 0
M  V30 3142 C 307.617 -1.07103 -1.5463 0
M  V30 3143 O 306.975 -0.0539677 -1.8122 0
M  V30 3144 C 307.023 -3.46654 -0.993159 0
M  V30 3145 O 306.127 -3.54559 -2.10622 0
M  V30 3146 H 305.468 -0.655303 -0.107114 0
M  V30 3147 H 307.998 -2.02364 0.301653 0
M  V30 3148 H 308.008 -3.86377 -1.31061 0
M  V30 3149 H 306.683 -4.1544 -0.195504 0
M  V30 3150 H 305.26 -3.26708 -1.79767 0
M  V30 3151 N 307.445 0.0818655 -1.57387 0
M  V30 3152 C 308.685 0.788375 -1.88584 0
M  V30 3153 C 309.049 1.75248 -0.784351 0
M  V30 3154 O 310.25 2.50334 -0.979105 0
M  V30 3155 C 308.521 1.48654 -3.25018 0
M  V30 3156 S 310.08 2.22951 -3.7794 0
M  V30 3157 H 306.898 0.262383 -0.660815 0
M  V30 3158 H 309.5 0.0448995 -1.95448 0
M  V30 3159 H 308.204 0.770919 -4.03094 0
M  V30 3160 H 307.735 2.26965 -3.21326 0
M  V30 3161 H 309.75 3.49309 -3.52417 0
M  V30 3162 N 308.923 1.53595 0.353017 0
M  V30 3163 C 309.833 1.83897 1.45667 0
M  V30 3164 C 310.849 0.728334 1.58023 0
M  V30 3165 O 312.025 1.01968 1.73679 0
M  V30 3166 C 309.09 2.03383 2.80778 0
M  V30 3167 C 308.151 3.27262 2.77845 0
M  V30 3168 C 307.384 3.45809 4.06512 0
M  V30 3169 O 307.607 2.68387 5.03314 0
M  V30 3170 O 306.541 4.39207 4.11559 0
M  V30 3171 H 310.367 2.77686 1.2298 0
M  V30 3172 H 307.952 1.39132 0.544308 0
M  V30 3173 H 309.834 2.17698 3.60812 0
M  V30 3174 H 308.509 1.12783 3.03417 0
M  V30 3175 H 307.416 3.18359 1.96465 0
M  V30 3176 H 308.749 4.17824 2.60161 0
M  V30 3177 N 310.401 -0.613514 1.45168 0
M  V30 3178 C 311.629 -1.39946 1.5239 0
M  V30 3179 C 312.044 -1.88167 0.154531 0
M  V30 3180 O 311.401 -1.61872 -0.842843 0
M  V30 3181 C 311.452 -2.60795 2.50337 0
M  V30 3182 O 311.173 -2.1458 3.81952 0
M  V30 3183 C 312.674 -3.53723 2.67198 0
M  V30 3184 H 309.894 -0.428593 0.516284 0
M  V30 3185 H 312.438 -0.748753 1.903 0
M  V30 3186 H 310.593 -3.21919 2.15515 0
M  V30 3187 H 311.007 -2.93055 4.34993 0
M  V30 3188 H 312.481 -4.35079 3.39721 0
M  V30 3189 H 312.958 -4.0368 1.73029 0
M  V30 3190 H 313.564 -2.98456 3.02992 0
M  V30 3191 N 311.879 -1.3236 -0.855495 0
M  V30 3192 C 313.29 -1.2056 -1.42556 0
M  V30 3193 C 313.641 0.182209 -1.95352 0
M  V30 3194 O 312.766 1.08088 -1.87472 0
M  V30 3195 C 313.361 -2.1826 -2.59129 0
M  V30 3196 C 311.92 -2.10351 -3.12137 0
M  V30 3197 C 311.067 -2.06674 -1.84882 0
M  V30 3198 H 314.018 -1.442 -0.662727 0
M  V30 3199 H 314.039 -1.78064 -3.36264 0
M  V30 3200 H 313.551 -3.19257 -2.20673 0
M  V30 3201 H 311.652 -1.12599 -3.55179 0
M  V30 3202 H 311.765 -3.00135 -3.73438 0
M  V30 3203 H 310.129 -1.51901 -2.04446 0
M  V30 3204 H 310.912 -3.09451 -1.48643 0
M  V30 3205 N 313.357 1.07166 -1.15556 0
M  V30 3206 C 314.32 2.12589 -0.856644 0
M  V30 3207 C 315.32 1.6015 0.14444 0
M  V30 3208 O 316.51 1.7399 -0.0854163 0
M  V30 3209 C 313.642 3.39753 -0.279405 0
M  V30 3210 H 314.835 2.40539 -1.79112 0
M  V30 3211 H 312.388 1.23086 -0.963298 0
M  V30 3212 H 313.123 3.17447 0.663174 0
M  V30 3213 H 312.908 3.79117 -1.00063 0
M  V30 3214 H 314.398 4.17507 -0.0879113 0
M  V30 3215 N 314.835 0.952656 1.25548 0
M  V30 3216 C 316.06 0.623025 1.97821 0
M  V30 3217 C 316.485 -0.7976 1.70352 0
M  V30 3218 O 315.843 -1.53905 0.958283 0
M  V30 3219 C 315.891 0.885532 3.49558 0
M  V30 3220 O 314.995 -0.0366641 4.12384 0
M  V30 3221 H 314.336 0.237082 0.620232 0
M  V30 3222 H 316.866 1.27871 1.59719 0
M  V30 3223 H 316.876 0.811009 3.99858 0
M  V30 3224 H 315.551 1.92094 3.6888 0
M  V30 3225 H 314.128 0.0898954 3.72792 0
M  V30 3226 N 316.313 -1.40141 0.720998 0
M  V30 3227 C 317.541 -2.05096 0.272656 0
M  V30 3228 C 317.956 -1.54334 -1.0875 0
M  V30 3229 O 317.313 -0.702211 -1.6845 0
M  V30 3230 C 317.364 -3.60636 0.249835 0
M  V30 3231 O 317.085 -4.09526 1.55629 0
M  V30 3232 C 318.586 -4.42772 -0.216396 0
M  V30 3233 H 315.806 -0.659897 0.121558 0
M  V30 3234 H 318.35 -1.79449 0.980723 0
M  V30 3235 H 316.505 -3.85232 -0.409237 0
M  V30 3236 H 316.919 -5.03758 1.4604 0
M  V30 3237 H 318.393 -5.51702 -0.181212 0
M  V30 3238 H 318.87 -4.20756 -1.25941 0
M  V30 3239 H 319.476 -4.23294 0.412596 0
M  V30 3240 N 317.792 -0.46758 -1.50504 0
M  V30 3241 C 319.203 -0.0116166 -1.86696 0
M  V30 3242 C 319.554 1.39202 -1.38265 0
M  V30 3243 O 318.679 2.0313 -0.746132 0
M  V30 3244 C 319.274 -0.0143044 -3.38797 0
M  V30 3245 C 317.833 0.386175 -3.74414 0
M  V30 3246 C 316.98 -0.401287 -2.74381 0
M  V30 3247 H 319.931 -0.682022 -1.43297 0
M  V30 3248 H 319.952 0.788641 -3.72237 0
M  V30 3249 H 319.464 -1.03602 -3.74016 0
M  V30 3250 H 317.565 1.41237 -3.44794 0
M  V30 3251 H 317.678 0.0899596 -4.79016 0
M  V30 3252 H 316.042 0.144536 -2.5429 0
M  V30 3253 H 316.825 -1.42244 -3.12444 0
M  V30 3254 N 319.27 1.56325 -0.20005 0
M  V30 3255 C 320.18 2.22931 0.730668 0
M  V30 3256 C 321.196 1.22997 1.23076 0
M  V30 3257 O 322.372 1.55748 1.27689 0
M  V30 3258 C 319.437 2.87948 1.93098 0
M  V30 3259 C 318.498 4.03166 1.47497 0
M  V30 3260 C 317.731 4.65073 2.61807 0
M  V30 3261 O 317.954 4.25913 3.79413 0
M  V30 3262 O 316.888 5.54452 2.34237 0
M  V30 3263 H 320.714 3.03084 0.193391 0
M  V30 3264 H 318.299 1.49371 0.0294621 0
M  V30 3265 H 320.181 3.29063 2.6324 0
M  V30 3266 H 318.856 2.10771 2.45677 0
M  V30 3267 H 317.763 3.66664 0.742201 0
M  V30 3268 H 319.096 4.82022 0.995796 0
M  V30 3269 N 320.748 -0.0735177 1.57428 0
M  V30 3270 C 321.711 -1.07192 2.02589 0
M  V30 3271 C 322.711 -1.31695 0.922661 0
M  V30 3272 O 323.901 -1.27445 1.18758 0
M  V30 3273 C 321.033 -2.41599 2.40506 0
M  V30 3274 H 322.226 -0.682727 2.92025 0
M  V30 3275 H 319.779 -0.319193 1.53006 0
M  V30 3276 H 320.514 -2.85354 1.5409 0
M  V30 3277 H 320.299 -2.25156 3.21009 0
M  V30 3278 H 321.789 -3.13367 2.76027 0
M  V30 3279 N 322.226 -1.5378 -0.344866 0
M  V30 3280 C 323.176 -1.78057 -1.42407 0
M  V30 3281 C 324.16 -0.635732 -1.47808 0
M  V30 3282 O 325.352 -0.89508 -1.527 0
M  V30 3283 C 322.481 -1.99242 -2.79566 0
M  V30 3284 C 321.567 -3.19787 -2.78562 0
M  V30 3285 N 321.958 -4.41284 -2.47189 0
M  V30 3286 C 320.256 -3.2093 -3.0971 0
M  V30 3287 C 320.957 -5.23128 -2.54385 0
M  V30 3288 N 319.933 -4.59813 -2.89953 0
M  V30 3289 H 323.735 -2.69588 -1.17046 0
M  V30 3290 H 321.249 -1.52687 -0.553217 0
M  V30 3291 H 323.246 -2.14768 -3.57324 0
M  V30 3292 H 321.906 -1.08953 -3.05875 0
M  V30 3293 H 322.917 -4.68657 -2.20411 0
M  V30 3294 H 319.594 -2.40603 -3.41199 0
M  V30 3295 H 320.984 -6.30096 -2.333 0
M  V30 3296 N 323.704 0.605807 -1.45491 0
M  V30 3297 C 324.614 1.74466 -1.56839 0
M  V30 3298 C 325.63 1.68006 -0.452772 0
M  V30 3299 O 326.806 1.8833 -0.713708 0
M  V30 3300 C 323.871 3.10931 -1.53371 0
M  V30 3301 C 322.932 3.28832 -2.75986 0
M  V30 3302 C 322.165 4.58787 -2.72673 0
M  V30 3303 O 322.388 5.4122 -1.80102 0
M  V30 3304 O 321.322 4.79438 -3.63899 0
M  V30 3305 H 325.148 1.67843 -2.53106 0
M  V30 3306 H 322.733 0.770108 -1.28022 0
M  V30 3307 H 324.615 3.92233 -1.54051 0
M  V30 3308 H 323.29 3.18042 -0.602572 0
M  V30 3309 H 322.197 2.47112 -2.80867 0
M  V30 3310 H 323.53 3.26599 -3.68231 0
M  V30 3311 N 325.182 1.32811 0.848464 0
M  V30 3312 C 326.132 1.18842 1.94578 0
M  V30 3313 C 327.116 0.0937517 1.60627 0
M  V30 3314 O 328.308 0.320887 1.74067 0
M  V30 3315 C 325.437 0.91999 3.30743 0
M  V30 3316 C 324.523 2.05665 3.70894 0
M  V30 3317 N 324.914 3.30579 3.8282 0
M  V30 3318 C 323.212 1.9612 4.00566 0
M  V30 3319 C 323.913 4.05067 4.17487 0
M  V30 3320 N 322.889 3.33419 4.2934 0
M  V30 3321 H 326.691 2.13536 2.0194 0
M  V30 3322 H 324.205 1.2468 1.0406 0
M  V30 3323 H 326.202 0.800859 4.09136 0
M  V30 3324 H 324.862 -0.0185076 3.24695 0
M  V30 3325 H 325.873 3.65441 3.66978 0
M  V30 3326 H 322.55 1.09871 4.02784 0
M  V30 3327 H 323.94 5.12815 4.34131 0
M  V30 3328 N 326.66 -1.06551 1.16123 0
M  V30 3329 C 327.623 -2.12132 0.867906 0
M  V30 3330 C 328.623 -1.60224 -0.135944 0
M  V30 3331 O 329.813 -1.73943 0.0946422 0
M  V30 3332 C 326.945 -3.396 0.297419 0
M  V30 3333 H 328.138 -2.39586 1.80385 0
M  V30 3334 H 325.691 -1.22574 0.969812 0
M  V30 3335 H 326.426 -3.17794 -0.64633 0
M  V30 3336 H 326.211 -3.78581 1.02073 0
M  V30 3337 H 327.701 -4.17455 0.110052 0
M  V30 3338 N 328.138 -0.959301 -1.25041 0
M  V30 3339 C 329.549 -0.65667 -1.74771 0
M  V30 3340 C 329.9 0.827852 -1.77879 0
M  V30 3341 O 329.025 1.64783 -1.40269 0
M  V30 3342 C 329.62 -1.1853 -3.1739 0
M  V30 3343 C 328.179 -0.932734 -3.6466 0
M  V30 3344 C 327.326 -1.32558 -2.43564 0
M  V30 3345 H 330.277 -1.13558 -1.10862 0
M  V30 3346 H 330.298 -0.547582 -3.76539 0
M  V30 3347 H 329.81 -2.26576 -3.15095 0
M  V30 3348 H 327.911 0.13257 -3.72364 0
M  V30 3349 H 328.024 -1.57248 -4.52559 0
M  V30 3350 H 326.388 -0.743956 -2.43593 0
M  V30 3351 H 327.171 -2.41537 -2.43957 0
M  V30 3352 N 329.616 1.39756 -0.72842 0
M  V30 3353 C 330.579 2.29012 -0.0927297 0
M  V30 3354 C 331.579 1.45992 0.674025 0
M  V30 3355 O 332.769 1.66749 0.50402 0
M  V30 3356 C 329.901 3.29396 0.878137 0
M  V30 3357 H 331.094 2.86729 -0.879011 0
M  V30 3358 H 328.647 1.48293 -0.493847 0
M  V30 3359 H 329.382 2.76722 1.69101 0
M  V30 3360 H 329.167 3.907 0.331051 0
M  V30 3361 H 330.657 3.96199 1.3197 0
M  V30 3362 N 331.094 0.475555 1.50254 0
M  V30 3363 C 332.044 -0.335025 2.25525 0
M  V30 3364 C 333.028 -0.957625 1.29299 0
M  V30 3365 O 334.22 -0.869436 1.54175 0
M  V30 3366 C 331.349 -1.41385 3.12834 0
M  V30 3367 C 330.435 -0.798762 4.1651 0
M  V30 3368 N 330.826 0.0835815 5.05731 0
M  V30 3369 C 329.124 -1.06221 4.33166 0
M  V30 3370 C 329.825 0.433113 5.80085 0
M  V30 3371 N 328.801 -0.1928 5.43258 0
M  V30 3372 H 332.603 0.344612 2.91873 0
M  V30 3373 H 330.117 0.289986 1.5979 0
M  V30 3374 H 332.114 -2.00777 3.65368 0
M  V30 3375 H 330.774 -2.09543 2.48036 0
M  V30 3376 H 331.785 0.452715 5.15918 0
M  V30 3377 H 328.462 -1.73844 3.79585 0
M  V30 3378 H 329.852 1.15346 6.61925 0
M  V30 3379 N 332.573 -1.56217 0.208337 0
M  V30 3380 C 333.798 -2.02782 -0.435222 0
M  V30 3381 C 334.223 -1.08738 -1.53485 0
M  V30 3382 O 333.581 -0.0731855 -1.81152 0
M  V30 3383 C 333.629 -3.47687 -0.956335 0
M  V30 3384 O 332.733 -3.56773 -2.06849 0
M  V30 3385 H 332.074 -0.656403 -0.100158 0
M  V30 3386 H 334.604 -2.02033 0.3231 0
M  V30 3387 H 334.614 -3.87745 -1.26955 0
M  V30 3388 H 333.289 -4.15624 -0.15143 0
M  V30 3389 H 331.866 -3.28597 -1.76292 0
M  V30 3390 N 334.051 0.0651679 -1.57465 0
M  V30 3391 C 334.999 1.09542 -2.05191 0
M  V30 3392 C 335.993 1.39675 -0.958509 0
M  V30 3393 O 337.199 1.39003 -1.14359 0
M  V30 3394 H 333.574 0.370623 -0.654326 0
M  V30 3395 H 335.545 0.666802 -2.90854 0
M  V30 3396 C 334.294 2.39881 -2.51699 0
M  V30 3397 H 333.617 2.17547 -3.3543 0
M  V30 3398 H 335.057 3.104 -2.88839 0
M  V30 3399 C 333.516 3.0631 -1.40271 0
M  V30 3400 O 334.046 3.94664 -0.748523 0
M  V30 3401 N 332.252 2.67041 -1.14618 0
M  V30 3402 H 331.799 1.95281 -1.67997 0
M  V30 3403 H 331.757 3.1181 -0.402688 0
M  V30 3404 N 335.529 1.53961 0.336706 0
M  V30 3405 C 336.94 1.62914 0.911925 0
M  V30 3406 C 337.291 0.514795 1.89326 0
M  V30 3407 O 336.416 -0.354395 2.13478 0
M  V30 3408 C 337.011 2.95304 1.66076 0
M  V30 3409 C 335.57 3.06496 2.18489 0
M  V30 3410 C 334.717 2.58403 1.00613 0
M  V30 3411 H 337.668 1.58285 0.114649 0
M  V30 3412 H 337.689 2.84727 2.5241 0
M  V30 3413 H 337.201 3.76387 0.946276 0
M  V30 3414 H 335.302 2.3006 2.93092 0
M  V30 3415 H 335.415 4.1208 2.44391 0
M  V30 3416 H 333.779 2.13977 1.38152 0
M  V30 3417 H 334.562 3.41932 0.306179 0
M  V30 3418 N 337.007 -0.598083 1.45811 0
M  V30 3419 C 338.232 -1.3881 1.54099 0
M  V30 3420 C 338.657 -1.8726 0.177578 0
M  V30 3421 O 338.015 -1.6069 -0.839541 0
M  V30 3422 C 338.063 -2.56217 2.53743 0
M  V30 3423 O 337.167 -3.5716 2.06182 0
M  V30 3424 H 336.508 -0.414024 0.519115 0
M  V30 3425 H 339.038 -0.726971 1.91249 0
M  V30 3426 H 339.048 -3.03337 2.72856 0
M  V30 3427 H 337.723 -2.20303 3.5276 0
M  V30 3428 H 336.3 -3.16624 1.96987 0
M  V30 3429 N 338.485 -1.33259 -0.841409 0
M  V30 3430 C 339.733 -1.24326 -1.59334 0
M  V30 3431 C 340.054 0.191564 -1.94057 0
M  V30 3432 O 339.324 1.11967 -1.60749 0
M  V30 3433 H 337.904 -0.457174 -0.590763 0
M  V30 3434 H 340.566 -1.66947 -1.00571 0
M  V30 3435 H 339.662 -1.8352 -2.52442 0
M  V30 3436 N 339.963 1.05934 -1.16686 0
M  V30 3437 C 341.379 1.30938 -0.912542 0
M  V30 3438 C 341.579 1.96803 0.432533 0
M  V30 3439 O 340.635 2.23693 1.17123 0
M  V30 3440 C 341.948 2.18649 -2.06429 0
M  V30 3441 C 343.496 2.32055 -2.10047 0
M  V30 3442 C 343.971 3.23122 -3.24586 0
M  V30 3443 N 345.462 3.30706 -3.24327 0
M  V30 3444 C 346.197 4.01273 -4.09594 0
M  V30 3445 N 345.693 4.74332 -5.04956 0
M  V30 3446 N 347.486 3.97361 -3.97569 0
M  V30 3447 H 339.637 0.615777 -2.03278 0
M  V30 3448 H 341.9 0.334077 -0.887185 0
M  V30 3449 H 341.606 1.77534 -3.03603 0
M  V30 3450 H 341.48 3.19252 -2.00894 0
M  V30 3451 H 343.867 2.72415 -1.13464 0
M  V30 3452 H 343.948 1.31107 -2.19647 0
M  V30 3453 H 343.592 2.83477 -4.2143 0
M  V30 3454 H 343.522 4.24057 -3.12223 0
M  V30 3455 H 346.013 2.78644 -2.55276 0
M  V30 3456 H 346.326 5.25716 -5.6643 0
M  V30 3457 H 344.671 4.733 -5.08933 0
M  V30 3458 H 347.862 3.39405 -3.22369 0
M  V30 3459 H 348.035 4.52089 -4.64241 0
M  V30 3460 N 341.441 0.965919 1.2453 0
M  V30 3461 C 342.404 0.499547 2.2369 0
M  V30 3462 C 343.404 -0.40294 1.5567 0
M  V30 3463 O 344.594 -0.19865 1.73064 0
M  V30 3464 C 341.726 -0.276792 3.39774 0
M  V30 3465 H 342.919 1.37613 2.66463 0
M  V30 3466 H 340.472 0.750324 1.37112 0
M  V30 3467 H 341.207 -1.17055 3.02438 0
M  V30 3468 H 340.992 0.370826 3.90343 0
M  V30 3469 H 342.482 -0.592175 4.1338 0
M  V30 3470 N 342.919 -1.39368 0.735821 0
M  V30 3471 C 343.882 -2.2896 0.104874 0
M  V30 3472 C 344.882 -1.46347 -0.666274 0
M  V30 3473 O 346.072 -1.67014 -0.49517 0
M  V30 3474 C 343.204 -3.29857 -0.860656 0
M  V30 3475 H 344.397 -2.86259 0.894205 0
M  V30 3476 H 341.95 -1.48029 0.501704 0
M  V30 3477 H 342.685 -2.77615 -1.67631 0
M  V30 3478 H 342.47 -3.9087 -0.310327 0
M  V30 3479 H 343.96 -3.96893 -1.29867 0
M  V30 3480 N 344.397 -0.483516 -1.5 0
M  V30 3481 C 345.327 0.293829 -2.31644 0
M  V30 3482 C 346.308 0.978864 -1.39112 0
M  V30 3483 O 347.493 0.973644 -1.68029 0
M  V30 3484 C 344.623 1.36897 -3.19181 0
M  V30 3485 C 343.577 0.804833 -4.20365 0
M  V30 3486 C 342.903 1.9792 -4.96721 0
M  V30 3487 C 344.203 -0.192313 -5.21946 0
M  V30 3488 H 345.897 -0.387616 -2.9688 0
M  V30 3489 H 343.443 -0.187856 -1.42769 0
M  V30 3490 H 345.396 1.92037 -3.751 0
M  V30 3491 H 344.12 2.07936 -2.51853 0
M  V30 3492 H 342.779 0.275319 -3.65565 0
M  V30 3493 H 342.427 2.67686 -4.25856 0
M  V30 3494 H 342.127 1.60789 -5.65173 0
M  V30 3495 H 343.651 2.53526 -5.55479 0
M  V30 3496 H 345.065 0.270333 -5.72662 0
M  V30 3497 H 343.462 -0.478543 -5.98189 0
M  V30 3498 H 344.532 -1.11409 -4.71928 0
M  V30 3499 N 345.875 1.56104 -0.216619 0
M  V30 3500 C 346.838 2.18819 0.681962 0
M  V30 3501 C 347.838 1.14866 1.12528 0
M  V30 3502 O 349.028 1.40128 1.03488 0
M  V30 3503 C 346.16 2.80756 1.93362 0
M  V30 3504 H 347.353 2.99595 0.135254 0
M  V30 3505 H 344.906 1.56265 0.0330003 0
M  V30 3506 H 345.641 2.03837 2.52232 0
M  V30 3507 H 345.426 3.56876 1.62426 0
M  V30 3508 H 346.916 3.28844 2.57393 0
M  V30 3509 N 347.353 -0.0568162 1.57498 0
M  V30 3510 C 348.578 -0.769402 1.92601 0
M  V30 3511 C 349.003 -1.69559 0.814336 0
M  V30 3512 O 348.361 -1.79811 -0.231903 0
M  V30 3513 C 348.409 -1.52634 3.26704 0
M  V30 3514 O 347.513 -2.63797 3.16994 0
M  V30 3515 H 346.854 -0.208909 0.63028 0
M  V30 3516 H 349.384 -0.0205798 2.0459 0
M  V30 3517 H 349.394 -1.90234 3.60936 0
M  V30 3518 H 348.069 -0.846875 4.07186 0
M  V30 3519 H 346.646 -2.28943 2.94346 0
M  V30 3520 N 348.832 -1.54138 -0.328536 0
M  V30 3521 C 349.764 -1.79509 -1.4251 0
M  V30 3522 C 350.777 -0.67688 -1.48061 0
M  V30 3523 O 351.966 -0.953898 -1.50874 0
M  V30 3524 C 349.066 -1.89337 -2.81078 0
M  V30 3525 C 348.239 -3.19443 -2.98789 0
M  V30 3526 C 347.298 -3.20036 -4.17688 0
M  V30 3527 O 346.324 -3.93697 -4.11086 0
M  V30 3528 N 347.526 -2.43467 -5.26976 0
M  V30 3529 H 350.291 -2.74139 -1.21111 0
M  V30 3530 H 347.852 -1.53373 -0.518499 0
M  V30 3531 H 349.844 -1.87167 -3.58818 0
M  V30 3532 H 348.414 -1.01826 -2.95551 0
M  V30 3533 H 347.634 -3.34614 -2.08391 0
M  V30 3534 H 348.922 -4.05354 -3.07515 0
M  V30 3535 H 348.32 -1.83201 -5.35214 0
M  V30 3536 H 346.877 -2.4708 -6.03154 0
M  V30 3537 N 350.31 0.590341 -1.46126 0
M  V30 3538 C 351.24 1.71032 -1.58966 0
M  V30 3539 C 352.221 1.64302 -0.440335 0
M  V30 3540 O 353.406 1.82436 -0.665634 0
M  V30 3541 C 350.536 3.09665 -1.57241 0
M  V30 3542 C 349.49 3.31221 -2.71066 0
M  V30 3543 C 348.816 4.70303 -2.54399 0
M  V30 3544 C 350.116 3.19796 -4.1295 0
M  V30 3545 H 351.81 1.60543 -2.52718 0
M  V30 3546 H 349.356 0.770933 -1.21625 0
M  V30 3547 H 351.309 3.87831 -1.64819 0
M  V30 3548 H 350.033 3.21036 -0.600289 0
M  V30 3549 H 348.692 2.55452 -2.62944 0
M  V30 3550 H 348.34 4.78429 -1.55288 0
M  V30 3551 H 348.04 4.85679 -3.30741 0
M  V30 3552 H 349.564 5.50647 -2.63857 0
M  V30 3553 H 350.978 3.87815 -4.22223 0
M  V30 3554 H 349.375 3.46696 -4.89818 0
M  V30 3555 H 350.445 2.16983 -4.33643 0
M  V30 3556 N 351.788 1.33704 0.83433 0
M  V30 3557 C 352.718 1.26967 1.95963 0
M  V30 3558 C 353.699 0.149337 1.69443 0
M  V30 3559 O 354.884 0.339852 1.91203 0
M  V30 3560 C 352.014 1.01275 3.32206 0
M  V30 3561 C 350.968 2.09652 3.73136 0
M  V30 3562 C 350.294 1.69166 5.07235 0
M  V30 3563 C 351.594 3.51372 3.86439 0
M  V30 3564 H 353.288 2.2112 2.01857 0
M  V30 3565 H 350.834 1.06447 0.969793 0
M  V30 3566 H 352.787 0.952106 4.10503 0
M  V30 3567 H 351.511 0.0356203 3.26581 0
M  V30 3568 H 350.17 2.14766 2.97104 0
M  V30 3569 H 349.818 0.701437 4.98085 0
M  V30 3570 H 349.518 2.41694 5.35591 0
M  V30 3571 H 351.042 1.64576 5.88003 0
M  V30 3572 H 352.456 3.48734 4.55036 0
M  V30 3573 H 350.853 4.22425 4.26236 0
M  V30 3574 H 351.923 3.89546 2.88759 0
M  V30 3575 N 353.266 -1.05314 1.17247 0
M  V30 3576 C 354.543 -1.75184 0.87005 0
M  V30 3577 C 354.923 -2.01481 -0.629965 0
M  V30 3578 O 354.271 -1.64988 -1.58086 0
M  V30 3579 C 354.481 -3.04594 1.70363 0
M  V30 3580 C 355.829 -3.78567 1.92281 0
M  V30 3581 O 356.853 -3.14461 1.67311 0
M  V30 3582 O 355.712 -4.93755 2.3424 0
M  V30 3583 H 352.806 -0.761729 0.322021 0
M  V30 3584 H 355.352 -1.11493 1.27935 0
M  V30 3585 H 354.124 -2.81201 2.72106 0
M  V30 3586 H 353.747 -3.76022 1.29202 0
M  V30 3587 N 354.744 -0.972509 -1.24016 0
M  V30 3588 C 355.676 -0.464375 -2.24446 0
M  V30 3589 C 356.689 0.4295 -1.57032 0
M  V30 3590 O 357.878 0.234902 -1.76948 0
M  V30 3591 C 354.978 0.348385 -3.37105 0
M  V30 3592 C 354.151 -0.53673 -4.34094 0
M  V30 3593 C 353.21 0.220838 -5.25736 0
M  V30 3594 O 352.236 -0.386867 -5.67884 0
M  V30 3595 N 353.438 1.50907 -5.60542 0
M  V30 3596 H 356.203 -1.32788 -2.68677 0
M  V30 3597 H 353.764 -0.844877 -1.38107 0
M  V30 3598 H 355.756 0.863341 -3.95384 0
M  V30 3599 H 354.326 1.11285 -2.92121 0
M  V30 3600 H 353.546 -1.23261 -3.74433 0
M  V30 3601 H 354.834 -1.14022 -4.95859 0
M  V30 3602 H 354.232 2.02444 -5.28236 0
M  V30 3603 H 352.789 1.96962 -6.21329 0
M  V30 3604 N 356.222 1.38976 -0.743202 0
M  V30 3605 C 357.447 2.05161 -0.303936 0
M  V30 3606 C 357.872 1.55677 1.05576 0
M  V30 3607 O 357.23 0.704131 1.67068 0
M  V30 3608 C 357.278 3.59138 -0.324373 0
M  V30 3609 O 356.382 4.06668 0.685204 0
M  V30 3610 H 355.723 0.649815 -0.136518 0
M  V30 3611 H 358.253 1.77852 -1.01142 0
M  V30 3612 H 358.263 4.07639 -0.171618 0
M  V30 3613 H 356.938 3.94515 -1.31647 0
M  V30 3614 H 355.515 3.69561 0.497913 0
M  V30 3615 N 357.7 0.491464 1.49741 0
M  V30 3616 C 358.663 -0.280906 2.27472 0
M  V30 3617 C 359.663 -0.902454 1.33088 0
M  V30 3618 O 360.853 -0.768465 1.56334 0
M  V30 3619 C 357.985 -1.40209 3.10732 0
M  V30 3620 H 359.178 0.401056 2.97206 0
M  V30 3621 H 356.731 0.246131 1.5435 0
M  V30 3622 H 357.466 -2.11849 2.45541 0
M  V30 3623 H 357.251 -0.961969 3.80117 0
M  V30 3624 H 358.741 -1.9464 3.69466 0
M  V30 3625 N 359.178 -1.55987 0.224894 0
M  V30 3626 C 360.108 -2.23426 -0.678457 0
M  V30 3627 C 361.089 -1.20709 -1.19847 0
M  V30 3628 O 362.274 -1.49304 -1.24186 0
M  V30 3629 C 359.404 -2.91676 -1.88527 0
M  V30 3630 C 358.358 -4.00893 -1.49896 0
M  V30 3631 C 357.684 -4.56455 -2.78483 0
M  V30 3632 C 358.984 -5.17769 -0.686461 0
M  V30 3633 H 360.678 -2.99175 -0.116173 0
M  V30 3634 H 358.224 -1.43897 -0.054436 0
M  V30 3635 H 360.177 -3.37547 -2.5227 0
M  V30 3636 H 358.901 -2.1338 -2.47258 0
M  V30 3637 H 357.56 -3.55758 -0.884985 0
M  V30 3638 H 357.208 -3.74886 -3.35365 0
M  V30 3639 H 356.908 -5.30169 -2.53368 0
M  V30 3640 H 358.432 -5.05047 -3.43162 0
M  V30 3641 H 359.846 -5.60001 -1.22767 0
M  V30 3642 H 358.243 -5.97735 -0.532259 0
M  V30 3643 H 359.313 -4.83932 0.306196 0
M  V30 3644 N 360.656 0.0484629 -1.57525 0
M  V30 3645 C 361.881 0.759177 -1.93006 0
M  V30 3646 C 362.306 1.69125 -0.823317 0
M  V30 3647 O 361.664 1.79931 0.222364 0
M  V30 3648 C 361.712 1.50899 -3.27509 0
M  V30 3649 O 360.816 2.62112 -3.18388 0
M  V30 3650 H 360.157 0.205564 -0.631379 0
M  V30 3651 H 362.687 0.00972959 -2.04598 0
M  V30 3652 H 362.697 1.88317 -3.6194 0
M  V30 3653 H 361.372 0.825269 -4.0763 0
M  V30 3654 H 359.949 2.27379 -2.95556 0
M  V30 3655 N 362.134 1.5431 0.320358 0
M  V30 3656 C 363.545 1.63872 0.894594 0
M  V30 3657 C 363.896 0.534847 1.88769 0
M  V30 3658 O 363.021 -0.331732 2.13842 0
M  V30 3659 C 363.616 2.97049 1.62934 0
M  V30 3660 C 362.175 3.08796 2.15226 0
M  V30 3661 C 361.322 2.59456 0.978671 0
M  V30 3662 H 364.273 1.58398 0.0978544 0
M  V30 3663 H 364.294 2.87388 2.49376 0
M  V30 3664 H 363.806 3.7737 0.906302 0
M  V30 3665 H 361.907 2.33156 2.90636 0
M  V30 3666 H 362.02 4.14649 2.40006 0
M  V30 3667 H 360.384 2.1543 1.35875 0
M  V30 3668 H 361.167 3.42237 0.269895 0
M  V30 3669 N 363.613 -0.582584 1.46437 0
M  V30 3670 C 364.576 -1.67366 1.56592 0
M  V30 3671 C 365.576 -1.54575 0.443072 0
M  V30 3672 O 366.766 -1.59191 0.707381 0
M  V30 3673 C 363.898 -3.06791 1.48634 0
M  V30 3674 H 365.091 -1.5972 2.5383 0
M  V30 3675 H 362.644 -0.800432 1.34249 0
M  V30 3676 H 363.379 -3.19993 0.526763 0
M  V30 3677 H 363.164 -3.17484 2.30101 0
M  V30 3678 H 364.654 -3.86218 1.58826 0
M  V30 3679 N 365.091 -1.34144 -0.827227 0
M  V30 3680 C 366.339 -1.26009 -1.58007 0
M  V30 3681 C 366.66 0.170971 -1.94249 0
M  V30 3682 O 365.93 1.10256 -1.61927 0
M  V30 3683 H 364.51 -0.463414 -0.585881 0
M  V30 3684 H 367.172 -1.68005 -0.987951 0
M  V30 3685 H 366.268 -1.86187 -2.50481 0
M  V30 3686 N 366.569 1.04691 -1.17803 0
M  V30 3687 C 367.817 1.7743 -0.967617 0
M  V30 3688 C 368.138 1.88359 0.504574 0
M  V30 3689 O 367.408 1.40402 1.36617 0
M  V30 3690 H 365.988 0.657242 -0.355024 0
M  V30 3691 H 368.65 1.2638 -1.48371 0
M  V30 3692 H 367.746 2.78924 -1.40027 0
M  V30 3693 N 368.047 0.979072 1.23499 0
M  V30 3694 C 369.272 0.664845 1.96455 0
M  V30 3695 C 369.697 -0.761287 1.72006 0
M  V30 3696 O 369.055 -1.51837 0.990713 0
M  V30 3697 C 369.103 0.959479 3.47601 0
M  V30 3698 O 368.207 0.0508168 4.12369 0
M  V30 3699 H 367.548 0.250185 0.615064 0
M  V30 3700 H 370.078 1.31231 1.5697 0
M  V30 3701 H 370.088 0.895642 3.98048 0
M  V30 3702 H 368.763 1.99876 3.64723 0
M  V30 3703 H 367.34 0.16895 3.72517 0
M  V30 3704 N 369.525 -1.3858 0.750561 0
M  V30 3705 C 370.773 -1.99789 0.30477 0
M  V30 3706 C 371.094 -1.59874 -1.11649 0
M  V30 3707 O 370.364 -0.85417 -1.76297 0
M  V30 3708 H 368.944 -0.738902 0.109694 0
M  V30 3709 H 371.606 -1.69391 0.963983 0
M  V30 3710 H 370.702 -3.09952 0.365499 0
M  V30 3711 N 371.003 -0.499398 -1.49478 0
M  V30 3712 C 372.414 -0.051215 -1.8663 0
M  V30 3713 C 372.765 1.36238 -1.41186 0
M  V30 3714 O 371.89 2.01502 -0.789051 0
M  V30 3715 C 372.485 -0.0861651 -3.3869 0
M  V30 3716 C 371.044 0.30667 -3.75149 0
M  V30 3717 C 370.191 -0.459397 -2.73468 0
M  V30 3718 H 373.142 -0.712264 -1.41818 0
M  V30 3719 H 373.163 0.709507 -3.73826 0
M  V30 3720 H 372.675 -1.11512 -3.71735 0
M  V30 3721 H 370.776 1.33892 -3.47712 0
M  V30 3722 H 370.889 -0.0116669 -4.79099 0
M  V30 3723 H 369.253 0.0905645 -2.54539 0
M  V30 3724 H 370.036 -1.4884 -3.09357 0
M  V30 3725 N 372.481 1.55866 -0.233164 0
M  V30 3726 C 373.413 2.18099 0.704668 0
M  V30 3727 C 374.426 1.15334 1.14899 0
M  V30 3728 O 375.615 1.42262 1.07814 0
M  V30 3729 C 372.715 2.7592 1.96777 0
M  V30 3730 C 371.888 4.03969 1.67713 0
M  V30 3731 C 370.947 4.46242 2.78845 0
M  V30 3732 O 369.973 5.12903 2.46818 0
M  V30 3733 N 371.175 4.12886 4.08051 0
M  V30 3734 H 373.94 2.99205 0.172258 0
M  V30 3735 H 371.501 1.61815 -0.0525945 0
M  V30 3736 H 373.493 3.01165 2.70337 0
M  V30 3737 H 372.063 1.99051 2.41034 0
M  V30 3738 H 371.283 3.86459 0.777391 0
M  V30 3739 H 372.571 4.8748 1.4574 0
M  V30 3740 H 371.969 3.59342 4.3691 0
M  V30 3741 H 370.526 4.42997 4.78118 0
M  V30 3742 N 373.959 -0.0401083 1.57549 0
M  V30 3743 C 375.187 -0.745196 1.93014 0
M  V30 3744 C 375.602 -1.6948 0.831984 0
M  V30 3745 O 374.959 -1.81482 -0.192463 0
M  V30 3746 C 375.01 -1.51176 3.28372 0
M  V30 3747 O 374.731 -0.600284 4.33968 0
M  V30 3748 C 376.232 -2.315 3.78051 0
M  V30 3749 H 373.452 -0.210088 0.637263 0
M  V30 3750 H 375.996 -0.000924689 2.045 0
M  V30 3751 H 374.151 -2.20801 3.18317 0
M  V30 3752 H 374.565 -1.13669 5.12035 0
M  V30 3753 H 376.039 -2.80697 4.75303 0
M  V30 3754 H 376.516 -3.12436 3.08675 0
M  V30 3755 H 377.122 -1.66971 3.91153 0
M  V30 3756 N 375.437 -1.54477 -0.31217 0
M  V30 3757 C 376.683 -1.74417 -1.04644 0
M  V30 3758 C 377.038 -0.517641 -1.85306 0
M  V30 3759 O 376.331 0.489973 -1.85229 0
M  V30 3760 C 376.525 -2.967 -1.99258 0
M  V30 3761 C 376.354 -4.31128 -1.27901 0
M  V30 3762 C 375.124 -4.95087 -1.01079 0
M  V30 3763 C 377.322 -5.09662 -0.689119 0
M  V30 3764 N 375.304 -6.13322 -0.266323 0
M  V30 3765 C 376.675 -6.19952 -0.0768523 0
M  V30 3766 C 378.73 -4.94355 -0.593061 0
M  V30 3767 C 377.433 -7.16604 0.622165 0
M  V30 3768 C 379.459 -5.91328 0.0922792 0
M  V30 3769 C 378.821 -7.00978 0.693443 0
M  V30 3770 H 374.92 -0.69094 -0.366231 0
M  V30 3771 H 377.504 -1.91946 -0.326319 0
M  V30 3772 H 375.675 -2.80616 -2.68532 0
M  V30 3773 H 377.407 -3.05216 -2.65755 0
M  V30 3774 H 374.162 -4.55235 -1.30607 0
M  V30 3775 H 374.586 -6.76937 0.0920973 0
M  V30 3776 H 379.228 -4.09719 -1.04355 0
M  V30 3777 H 376.946 -8.0079 1.08445 0
M  V30 3778 H 380.532 -5.81562 0.166396 0
M  V30 3779 H 379.412 -7.74725 1.21533 0
M  V30 3780 N 376.915 0.57481 -1.46744 0
M  V30 3781 C 378.161 1.33251 -1.53674 0
M  V30 3782 C 378.516 1.91468 -0.189125 0
M  V30 3783 O 377.809 1.73954 0.803151 0
M  V30 3784 C 378.003 2.476 -2.57738 0
M  V30 3785 C 377.832 2.00586 -4.02487 0
M  V30 3786 C 376.602 1.85237 -4.70123 0
M  V30 3787 C 378.8 1.56078 -4.90045 0
M  V30 3788 N 376.782 1.32377 -5.99458 0
M  V30 3789 C 378.153 1.14863 -6.09267 0
M  V30 3790 C 380.208 1.43968 -4.76632 0
M  V30 3791 C 378.911 0.627435 -7.16558 0
M  V30 3792 C 380.937 0.932512 -5.84002 0
M  V30 3793 C 380.299 0.53019 -7.02402 0
M  V30 3794 H 376.398 0.480284 -0.617131 0
M  V30 3795 H 378.982 0.653592 -1.83402 0
M  V30 3796 H 377.153 3.13045 -2.29907 0
M  V30 3797 H 378.885 3.14567 -2.54616 0
M  V30 3798 H 375.64 2.07423 -4.25761 0
M  V30 3799 H 376.064 1.08085 -6.68316 0
M  V30 3800 H 380.706 1.73689 -3.85476 0
M  V30 3801 H 378.424 0.317821 -8.07475 0
M  V30 3802 H 382.01 0.842611 -5.75666 0
M  V30 3803 H 380.89 0.14381 -7.84068 0
M  V30 3804 N 378.394 1.34581 0.820102 0
M  V30 3805 C 379.81 1.14325 1.11364 0
M  V30 3806 C 380.01 -0.0533648 2.01429 0
M  V30 3807 O 379.066 -0.728044 2.41776 0
M  V30 3808 C 380.379 2.43983 1.75764 0
M  V30 3809 C 381.927 2.50065 1.88246 0
M  V30 3810 C 382.402 3.79732 2.56061 0
M  V30 3811 N 383.893 3.80908 2.63558 0
M  V30 3812 C 384.628 4.77961 3.16766 0
M  V30 3813 N 384.124 5.85397 3.70517 0
M  V30 3814 N 385.917 4.65413 3.15194 0
M  V30 3815 H 378.068 2.11246 0.221096 0
M  V30 3816 H 380.331 0.934289 0.160649 0
M  V30 3817 H 380.037 3.31651 1.1705 0
M  V30 3818 H 379.911 2.57531 2.75604 0
M  V30 3819 H 382.298 1.62834 2.46108 0
M  V30 3820 H 382.379 2.40442 0.873006 0
M  V30 3821 H 382.023 4.67354 1.98853 0
M  V30 3822 H 381.953 3.86639 3.57516 0
M  V30 3823 H 384.444 3.03274 2.25463 0
M  V30 3824 H 384.757 6.55463 4.09376 0
M  V30 3825 H 383.102 5.89107 3.68752 0
M  V30 3826 H 386.293 3.80627 2.72471 0
M  V30 3827 H 386.466 5.41216 3.56356 0
M  V30 3828 N 379.872 -1.04064 1.18357 0
M  V30 3829 C 381.288 -1.2947 0.933258 0
M  V30 3830 C 381.488 -1.97466 -0.401169 0
M  V30 3831 O 380.544 -2.25528 -1.13549 0
M  V30 3832 C 381.857 -2.15337 2.09882 0
M  V30 3833 C 383.405 -2.28683 2.13712 0
M  V30 3834 C 383.88 -3.17917 3.29686 0
M  V30 3835 N 385.371 -3.25504 3.29547 0
M  V30 3836 C 386.106 -3.94706 4.15926 0
M  V30 3837 N 385.602 -4.66239 5.12439 0
M  V30 3838 N 387.395 -3.90986 4.0384 0
M  V30 3839 H 379.546 -0.583359 2.04232 0
M  V30 3840 H 381.809 -0.319921 0.892387 0
M  V30 3841 H 381.515 -1.72682 3.06389 0
M  V30 3842 H 381.389 -3.16015 2.05947 0
M  V30 3843 H 383.776 -2.70575 1.17784 0
M  V30 3844 H 383.857 -1.27596 2.21705 0
M  V30 3845 H 383.501 -2.76736 4.25887 0
M  V30 3846 H 383.431 -4.19036 3.1893 0
M  V30 3847 H 385.922 -2.74547 2.59677 0
M  V30 3848 H 386.235 -5.16638 5.74722 0
M  V30 3849 H 384.58 -4.65143 5.16398 0
M  V30 3850 H 387.771 -3.34234 3.27727 0
M  V30 3851 H 387.944 -4.44646 4.71375 0
M  V30 3852 N 381.35 -0.985608 -1.22978 0
M  V30 3853 C 382.766 -0.695104 -1.43668 0
M  V30 3854 C 382.966 0.736866 -1.87543 0
M  V30 3855 O 382.022 1.50868 -2.02473 0
M  V30 3856 C 383.335 -1.69447 -2.48412 0
M  V30 3857 C 384.883 -1.70909 -2.62219 0
M  V30 3858 C 385.358 -2.6969 -3.70178 0
M  V30 3859 N 386.849 -2.6824 -3.77626 0
M  V30 3860 C 387.584 -3.41339 -4.60733 0
M  V30 3861 N 387.08 -4.24015 -5.4789 0
M  V30 3862 N 388.873 -3.30079 -4.54977 0
M  V30 3863 H 381.024 -1.91054 -0.928016 0
M  V30 3864 H 383.287 -0.823553 -0.469536 0
M  V30 3865 H 382.993 -2.7188 -2.23102 0
M  V30 3866 H 382.867 -1.48147 -3.46889 0
M  V30 3867 H 385.254 -0.691785 -2.86877 0
M  V30 3868 H 385.335 -1.96276 -1.6404 0
M  V30 3869 H 384.979 -3.71566 -3.46268 0
M  V30 3870 H 384.909 -2.41595 -4.67909 0
M  V30 3871 H 387.4 -2.08243 -3.15346 0
M  V30 3872 H 387.713 -4.76636 -6.08308 0
M  V30 3873 H 386.058 -4.28104 -5.47496 0
M  V30 3874 H 389.249 -2.64937 -3.85909 0
M  V30 3875 H 389.422 -3.87308 -5.19516 0
M  V30 3876 N 382.828 1.3818 -0.7579 0
M  V30 3877 C 384.244 1.5353 -0.435972 0
M  V30 3878 C 384.444 1.71961 1.05032 0
M  V30 3879 O 383.5 1.73307 1.83633 0
M  V30 3880 C 384.813 2.73989 -1.23898 0
M  V30 3881 C 386.361 2.87841 -1.22949 0
M  V30 3882 C 386.836 4.11266 -2.01554 0
M  V30 3883 N 388.327 4.18352 -1.98837 0
M  V30 3884 C 389.062 5.12856 -2.5645 0
M  V30 3885 N 388.558 6.13005 -3.22794 0
M  V30 3886 N 390.351 5.05238 -2.46356 0
M  V30 3887 H 382.502 1.24467 -1.7211 0
M  V30 3888 H 384.765 0.604982 -0.729864 0
M  V30 3889 H 384.471 2.66789 -2.29165 0
M  V30 3890 H 384.345 3.67294 -0.858764 0
M  V30 3891 H 386.732 2.9452 -0.184854 0
M  V30 3892 H 386.813 1.95534 -1.64924 0
M  V30 3893 H 386.457 4.05349 -3.06031 0
M  V30 3894 H 386.387 5.02661 -1.5697 0
M  V30 3895 H 388.878 3.46628 -1.50524 0
M  V30 3896 H 389.191 6.81619 -3.64165 0
M  V30 3897 H 387.536 6.13325 -3.2689 0
M  V30 3898 H 390.727 4.25938 -1.9415 0
M  V30 3899 H 390.9 5.78707 -2.91552 0
M  V30 3900 N 384.306 0.507319 1.49211 0
M  V30 3901 C 385.722 0.163682 1.58758 0
M  V30 3902 C 385.922 -1.33208 1.51188 0
M  V30 3903 O 384.978 -2.10855 1.38911 0
M  V30 3904 C 386.291 0.746095 2.91297 0
M  V30 3905 C 387.839 0.712773 3.04776 0
M  V30 3906 C 388.314 1.27336 4.39943 0
M  V30 3907 N 389.805 1.23433 4.46451 0
M  V30 3908 C 390.54 1.63821 5.495 0
M  V30 3909 N 390.036 2.11832 6.5962 0
M  V30 3910 N 391.829 1.55198 5.4025 0
M  V30 3911 H 383.98 1.47972 1.52375 0
M  V30 3912 H 386.243 0.614147 0.722168 0
M  V30 3913 H 385.949 1.79534 3.02424 0
M  V30 3914 H 385.823 0.210137 3.76614 0
M  V30 3915 H 388.21 -0.327656 2.93275 0
M  V30 3916 H 388.291 1.28595 2.21127 0
M  V30 3917 H 387.935 2.3126 4.52196 0
M  V30 3918 H 387.865 0.676066 5.22242 0
M  V30 3919 H 390.356 0.882627 3.67448 0
M  V30 3920 H 390.669 2.40703 7.34358 0
M  V30 3921 H 389.014 2.1581 6.60644 0
M  V30 3922 H 392.205 1.17505 4.53112 0
M  V30 3923 H 392.378 1.86997 6.20432 0
M  V30 3924 N 385.784 -1.5574 0.241426 0
M  V30 3925 C 387.009 -2.0366 -0.392111 0
M  V30 3926 C 387.434 -1.11969 -1.51144 0
M  V30 3927 O 386.792 -0.111594 -1.80956 0
M  V30 3928 C 386.84 -3.49638 -0.882371 0
M  V30 3929 O 385.944 -3.6108 -1.99235 0
M  V30 3930 H 385.285 -0.658379 -0.0862122 0
M  V30 3931 H 387.815 -2.01302 0.365881 0
M  V30 3932 H 387.825 -3.90351 -1.18702 0
M  V30 3933 H 386.5 -4.15852 -0.0632361 0
M  V30 3934 H 385.077 -3.32262 -1.69282 0
M  V30 3935 N 387.262 0.0317525 -1.57568 0
M  V30 3936 C 388.511 0.722131 -1.8833 0
M  V30 3937 C 388.824 1.76664 -0.839587 0
M  V30 3938 O 390.03 2.50942 -1.03635 0
M  V30 3939 C 388.486 1.33544 -3.34207 0
M  V30 3940 C 388.094 0.327415 -4.46802 0
M  V30 3941 C 389.838 2.00585 -3.7412 0
M  V30 3942 C 387.745 0.948915 -5.83738 0
M  V30 3943 H 386.675 0.273466 -0.702661 0
M  V30 3944 H 389.326 -0.0235811 -1.83485 0
M  V30 3945 H 387.708 2.13077 -3.33788 0
M  V30 3946 H 388.882 -0.441006 -4.58685 0
M  V30 3947 H 387.197 -0.240758 -4.15703 0
M  V30 3948 H 389.794 2.47932 -4.73744 0
M  V30 3949 H 390.137 2.82285 -3.05975 0
M  V30 3950 H 390.67 1.27831 -3.76702 0
M  V30 3951 H 387.409 0.171387 -6.55276 0
M  V30 3952 H 386.929 1.68724 -5.7558 0
M  V30 3953 H 388.608 1.45705 -6.3038 0
M  V30 3954 N 388.74 1.54641 0.303973 0
M  V30 3955 C 389.965 1.78092 1.06292 0
M  V30 3956 C 390.39 0.537342 1.80262 0
M  V30 3957 O 389.748 -0.511993 1.7392 0
M  V30 3958 C 389.796 2.98612 2.02147 0
M  V30 3959 O 388.9 2.71528 3.10397 0
M  V30 3960 H 388.241 0.589548 0.305497 0
M  V30 3961 H 390.771 2.01716 0.3423 0
M  V30 3962 H 390.781 3.265 2.44667 0
M  V30 3963 H 389.456 3.88785 1.47714 0
M  V30 3964 H 388.033 2.54648 2.72413 0
M  V30 3965 N 390.218 -0.567019 1.47046 0
M  V30 3966 C 391.634 -0.891975 1.32348 0
M  V30 3967 C 391.834 -1.99154 0.306616 0
M  V30 3968 O 390.89 -2.50883 -0.28532 0
M  V30 3969 C 392.203 -1.29449 2.7141 0
M  V30 3970 C 393.751 -1.40646 2.79621 0
M  V30 3971 C 394.226 -1.84257 4.19301 0
M  V30 3972 N 395.717 -1.91424 4.21795 0
M  V30 3973 C 396.452 -2.26476 5.26779 0
M  V30 3974 N 395.948 -2.60211 6.42077 0
M  V30 3975 N 397.741 -2.27166 5.14152 0
M  V30 3976 H 389.892 0.159074 2.11803 0
M  V30 3977 H 392.155 0.00849752 0.947962 0
M  V30 3978 H 391.861 -0.560448 3.47206 0
M  V30 3979 H 391.735 -2.25273 3.02542 0
M  V30 3980 H 394.122 -2.13133 2.04104 0
M  V30 3981 H 394.203 -0.430339 2.52154 0
M  V30 3982 H 393.847 -1.12343 4.95319 0
M  V30 3983 H 393.777 -2.82855 4.44185 0
M  V30 3984 H 396.268 -1.6778 3.38612 0
M  V30 3985 H 396.581 -2.85956 7.17948 0
M  V30 3986 H 394.926 -2.57813 6.45413 0
M  V30 3987 H 398.117 -2.00244 4.23107 0
M  V30 3988 H 398.29 -2.54154 5.96079 0
M  V30 3989 N 391.696 -1.35014 -0.812953 0
M  V30 3990 C 392.659 -1.27292 -1.90602 0
M  V30 3991 C 393.659 -0.185817 -1.59723 0
M  V30 3992 O 394.849 -0.439102 -1.68575 0
M  V30 3993 C 391.981 -0.967676 -3.26877 0
M  V30 3994 H 393.174 -2.24479 -1.9887 0
M  V30 3995 H 390.727 -1.19446 -1.00808 0
M  V30 3996 H 391.462 0.0005954 -3.243 0
M  V30 3997 H 391.247 -1.75412 -3.50675 0
M  V30 3998 H 392.737 -0.939085 -4.06904 0
M  V30 3999 N 393.175 1.03435 -1.18907 0
M  V30 4000 C 394.591 1.28973 -0.940111 0
M  V30 4001 C 394.791 1.97676 0.390691 0
M  V30 4002 O 393.847 2.26127 1.12352 0
M  V30 4003 C 395.16 2.14221 -2.11021 0
M  V30 4004 C 396.708 2.27547 -2.14922 0
M  V30 4005 C 397.183 3.16164 -3.31367 0
M  V30 4006 N 398.674 3.23752 -3.31269 0
M  V30 4007 C 399.409 3.92495 -4.18014 0
M  V30 4008 N 398.905 4.63515 -5.14904 0
M  V30 4009 N 400.698 3.88838 -4.05908 0
M  V30 4010 H 392.849 0.57252 -2.04538 0
M  V30 4011 H 395.112 0.315184 -0.894071 0
M  V30 4012 H 394.818 1.71054 -3.073 0
M  V30 4013 H 394.692 3.14919 -2.0762 0
M  V30 4014 H 397.079 2.69947 -1.19217 0
M  V30 4015 H 397.16 1.26418 -2.22378 0
M  V30 4016 H 396.804 2.74474 -4.27348 0
M  V30 4017 H 396.734 4.17339 -3.21148 0
M  V30 4018 H 399.225 2.73167 -2.61129 0
M  V30 4019 H 399.538 5.13583 -5.77453 0
M  V30 4020 H 397.883 4.62398 -5.18857 0
M  V30 4021 H 401.074 3.32491 -3.29495 0
M  V30 4022 H 401.247 4.4214 -4.73726 0
M  V30 4023 N 394.653 0.992116 1.22453 0
M  V30 4024 C 395.585 0.500024 2.23679 0
M  V30 4025 C 396.598 -0.404463 1.57696 0
M  V30 4026 O 397.787 -0.206722 1.77299 0
M  V30 4027 C 394.887 -0.294711 3.37616 0
M  V30 4028 C 394.06 0.605723 4.33186 0
M  V30 4029 C 393.119 -0.13717 5.26021 0
M  V30 4030 O 392.145 0.477164 5.67196 0
M  V30 4031 N 393.347 -1.4197 5.62872 0
M  V30 4032 H 396.112 1.37045 2.66531 0
M  V30 4033 H 393.673 0.866741 1.36745 0
M  V30 4034 H 395.665 -0.800329 3.96707 0
M  V30 4035 H 394.235 -1.06623 2.93854 0
M  V30 4036 H 393.455 1.29202 3.72425 0
M  V30 4037 H 394.743 1.21896 4.93983 0
M  V30 4038 H 394.141 -1.94015 5.31389 0
M  V30 4039 H 392.698 -1.87052 6.24383 0
M  V30 4040 N 396.131 -1.37776 0.765217 0
M  V30 4041 C 397.377 -2.00145 0.327072 0
M  V30 4042 C 397.71 -1.60607 -1.09175 0
M  V30 4043 O 396.985 -0.849127 -1.74986 0
M  V30 4044 C 397.268 -3.57109 0.46319 0
M  V30 4045 C 397.121 -4.06576 1.92395 0
M  V30 4046 C 398.44 -4.39888 -0.136473 0
M  V30 4047 H 395.559 -0.727113 0.120316 0
M  V30 4048 H 398.201 -1.63549 0.967039 0
M  V30 4049 H 396.351 -3.88414 -0.0816358 0
M  V30 4050 H 398.023 -3.85864 2.52798 0
M  V30 4051 H 396.266 -3.59011 2.43503 0
M  V30 4052 H 396.937 -5.15639 1.97028 0
M  V30 4053 H 399.413 -4.14803 0.328317 0
M  V30 4054 H 398.289 -5.48899 -0.0110582 0
M  V30 4055 H 398.55 -4.24758 -1.22608 0
M  V30 4056 N 397.609 -0.515225 -1.4894 0
M  V30 4057 C 398.519 0.259774 -2.33157 0
M  V30 4058 C 399.535 0.953501 -1.45548 0
M  V30 4059 O 400.711 0.931735 -1.78552 0
M  V30 4060 C 397.776 1.30193 -3.21326 0
M  V30 4061 C 396.837 0.620129 -4.24797 0
M  V30 4062 C 396.07 1.61263 -5.08753 0
M  V30 4063 O 396.293 2.84389 -4.94448 0
M  V30 4064 O 395.227 1.16013 -5.90614 0
M  V30 4065 H 399.053 -0.429932 -3.00641 0
M  V30 4066 H 396.638 -0.276346 -1.46822 0
M  V30 4067 H 398.52 1.90455 -3.75905 0
M  V30 4068 H 397.195 1.97431 -2.56521 0
M  V30 4069 H 396.102 -0.0226019 -3.74093 0
M  V30 4070 H 397.435 -0.0100493 -4.92199 0
M  V30 4071 N 399.087 1.5561 -0.249682 0
M  V30 4072 C 400.017 2.24477 0.642826 0
M  V30 4073 C 400.998 1.22601 1.17911 0
M  V30 4074 O 402.183 1.5126 1.21795 0
M  V30 4075 C 399.313 2.94638 1.83863 0
M  V30 4076 C 398.267 4.03227 1.435 0
M  V30 4077 C 397.593 4.60828 2.71186 0
M  V30 4078 C 398.893 5.18796 0.604002 0
M  V30 4079 H 400.587 2.99321 0.0685625 0
M  V30 4080 H 398.133 1.43965 0.0315363 0
M  V30 4081 H 400.086 3.41517 2.46868 0
M  V30 4082 H 398.81 2.17287 2.43832 0
M  V30 4083 H 397.469 3.57121 0.828275 0
M  V30 4084 H 397.117 3.80174 3.29358 0
M  V30 4085 H 396.817 5.34132 2.44901 0
M  V30 4086 H 398.341 5.10442 3.35084 0
M  V30 4087 H 399.755 5.61883 1.13842 0
M  V30 4088 H 398.152 5.98506 0.437097 0
M  V30 4089 H 399.222 4.83384 -0.383147 0
M  V30 4090 N 400.565 -0.0233959 1.57583 0
M  V30 4091 C 401.495 -1.02162 2.09965 0
M  V30 4092 C 402.476 -1.3735 1.00344 0
M  V30 4093 O 403.661 -1.46135 1.27899 0
M  V30 4094 C 400.791 -2.32081 2.58371 0
M  V30 4095 C 399.745 -2.1112 3.72307 0
M  V30 4096 C 399.071 -3.46848 4.06941 0
M  V30 4097 C 400.371 -1.49276 5.00514 0
M  V30 4098 H 402.065 -0.585557 2.93618 0
M  V30 4099 H 399.611 -0.280218 1.41247 0
M  V30 4100 H 401.564 -3.02249 2.93639 0
M  V30 4101 H 400.288 -2.77758 1.71808 0
M  V30 4102 H 398.947 -1.43384 3.37397 0
M  V30 4103 H 398.595 -3.90184 3.17436 0
M  V30 4104 H 398.295 -3.33646 4.83688 0
M  V30 4105 H 399.819 -4.18369 4.44747 0
M  V30 4106 H 401.233 -2.09368 5.33702 0
M  V30 4107 H 399.63 -1.46632 5.8191 0
M  V30 4108 H 400.7 -0.459217 4.82721 0
M  V30 4109 N 402.043 -1.548 -0.295768 0
M  V30 4110 C 402.973 -1.89115 -1.36959 0
M  V30 4111 C 403.954 -0.75059 -1.52644 0
M  V30 4112 O 405.139 -1.00678 -1.66065 0
M  V30 4113 C 402.269 -2.14307 -2.73295 0
M  V30 4114 C 401.223 -3.30151 -2.72368 0
M  V30 4115 C 400.549 -3.40772 -4.12042 0
M  V30 4116 C 401.849 -4.67126 -2.33646 0
M  V30 4117 H 403.543 -2.79053 -1.08488 0
M  V30 4118 H 401.089 -1.34266 -0.520443 0
M  V30 4119 H 403.042 -2.36898 -3.48507 0
M  V30 4120 H 401.766 -1.21145 -3.03301 0
M  V30 4121 H 400.425 -3.0749 -1.99613 0
M  V30 4122 H 400.073 -2.45117 -4.39234 0
M  V30 4123 H 399.773 -4.18645 -4.12322 0
M  V30 4124 H 401.297 -3.6563 -4.89027 0
M  V30 4125 H 402.711 -4.89414 -2.98575 0
M  V30 4126 H 401.108 -5.47751 -2.45129 0
M  V30 4127 H 402.178 -4.67489 -1.28772 0
M  V30 4128 N 403.521 0.559213 -1.47345 0
M  V30 4129 C 404.767 1.31843 -1.54095 0
M  V30 4130 C 405.1 1.93149 -0.201726 0
M  V30 4131 O 404.375 1.77759 0.789428 0
M  V30 4132 C 404.658 2.43006 -2.65744 0
M  V30 4133 C 404.511 1.86581 -4.09277 0
M  V30 4134 C 405.83 3.44943 -2.73318 0
M  V30 4135 H 402.949 0.478012 -0.560957 0
M  V30 4136 H 405.591 0.625977 -1.79392 0
M  V30 4137 H 403.741 3.02072 -2.44305 0
M  V30 4138 H 405.413 1.31792 -4.42073 0
M  V30 4139 H 403.656 1.17268 -4.17649 0
M  V30 4140 H 404.327 2.66933 -4.83168 0
M  V30 4141 H 406.803 2.95793 -2.92653 0
M  V30 4142 H 405.679 4.20153 -3.53218 0
M  V30 4143 H 405.94 4.03665 -1.80296 0
M  V30 4144 N 404.999 1.35443 0.805782 0
M  V30 4145 C 405.962 1.28301 1.89925 0
M  V30 4146 C 406.962 0.194285 1.59622 0
M  V30 4147 O 408.152 0.448036 1.6834 0
M  V30 4148 C 405.284 0.984997 3.2636 0
M  V30 4149 H 406.477 2.2553 1.97677 0
M  V30 4150 H 404.03 1.19979 1.00173 0
M  V30 4151 H 404.765 0.016603 3.24296 0
M  V30 4152 H 404.55 1.77269 3.4974 0
M  V30 4153 H 406.04 0.960651 4.064 0
M  V30 4154 N 406.477 -1.02803 1.19454 0
M  V30 4155 C 407.754 -1.73299 0.907013 0
M  V30 4156 C 408.134 -2.02772 -0.587086 0
M  V30 4157 O 407.482 -1.68304 -1.54551 0
M  V30 4158 C 407.692 -3.00912 1.76785 0
M  V30 4159 C 409.04 -3.74403 2.00268 0
M  V30 4160 O 410.064 -3.10841 1.73943 0
M  V30 4161 O 408.923 -4.88675 2.4466 0
M  V30 4162 H 406.017 -0.754727 0.338106 0
M  V30 4163 H 408.563 -1.08754 1.30271 0
M  V30 4164 H 407.335 -2.75366 2.7801 0
M  V30 4165 H 406.958 -3.73197 1.37149 0
M  V30 4166 N 407.956 -0.998596 -1.21925 0
M  V30 4167 C 408.919 -0.558679 -2.22287 0
M  V30 4168 C 409.919 0.361525 -1.56683 0
M  V30 4169 O 411.109 0.152695 -1.73529 0
M  V30 4170 C 408.241 0.18661 -3.40389 0
M  V30 4171 H 409.434 -1.4463 -2.62721 0
M  V30 4172 H 406.987 -0.786413 -1.35075 0
M  V30 4173 H 407.722 1.08996 -3.05435 0
M  V30 4174 H 407.507 -0.474188 -3.89222 0
M  V30 4175 H 408.997 0.482367 -4.14805 0
M  V30 4176 N 409.434 1.37368 -0.772513 0
M  V30 4177 C 410.659 2.0447 -0.347386 0
M  V30 4178 C 411.084 1.57882 1.0225 0
M  V30 4179 O 410.442 0.73941 1.65537 0
M  V30 4180 C 410.49 3.58369 -0.400479 0
M  V30 4181 O 409.594 4.0803 0.598789 0
M  V30 4182 H 408.935 0.646773 -0.15027 0
M  V30 4183 H 411.465 1.75667 -1.04892 0
M  V30 4184 H 411.475 4.07183 -0.258045 0
M  V30 4185 H 410.15 3.91633 -1.39986 0
M  V30 4186 H 408.727 3.70534 0.419411 0
M  V30 4187 N 410.912 0.523116 1.48665 0
M  V30 4188 C 411.845 -0.290518 2.26343 0
M  V30 4189 C 412.823 -0.950913 1.31895 0
M  V30 4190 O 414.007 -0.976662 1.61225 0
M  V30 4191 C 411.134 -1.41088 3.07915 0
M  V30 4192 C 410.18 -0.862597 4.17686 0
M  V30 4193 S 411.013 0.264135 5.34848 0
M  V30 4194 C 412.169 -0.858864 6.19979 0
M  V30 4195 H 412.402 0.368726 2.95005 0
M  V30 4196 H 409.935 0.30878 1.51281 0
M  V30 4197 H 411.893 -2.0527 3.55492 0
M  V30 4198 H 410.554 -2.04182 2.38681 0
M  V30 4199 H 409.747 -1.70287 4.74361 0
M  V30 4200 H 409.349 -0.297595 3.72814 0
M  V30 4201 H 411.641 -1.7591 6.54264 0
M  V30 4202 H 412.584 -0.330244 7.07329 0
M  V30 4203 H 412.992 -1.13617 5.52948 0
M  V30 4204 N 412.39 -1.55475 0.257931 0
M  V30 4205 C 413.353 -2.20551 -0.623706 0
M  V30 4206 C 414.353 -1.17809 -1.09443 0
M  V30 4207 O 415.543 -1.42823 -0.997362 0
M  V30 4208 C 412.675 -2.85784 -1.8585 0
M  V30 4209 H 413.868 -2.99848 -0.0557743 0
M  V30 4210 H 411.421 -1.56298 0.0084422 0
M  V30 4211 H 412.156 -2.10453 -2.46739 0
M  V30 4212 H 411.941 -3.61057 -1.52907 0
M  V30 4213 H 413.431 -3.35553 -2.48584 0
M  V30 4214 N 413.868 0.0150385 -1.57593 0
M  V30 4215 C 415.284 0.370907 -1.5523 0
M  V30 4216 C 415.484 1.75735 -0.985882 0
M  V30 4217 O 414.54 2.44944 -0.613077 0
M  V30 4218 C 415.853 0.259908 -2.99575 0
M  V30 4219 C 417.401 0.335959 -3.11192 0
M  V30 4220 C 417.876 0.254253 -4.57294 0
M  V30 4221 N 419.367 0.312618 -4.62144 0
M  V30 4222 C 420.102 0.272505 -5.72752 0
M  V30 4223 N 419.598 0.183864 -6.92556 0
M  V30 4224 N 421.391 0.323267 -5.6117 0
M  V30 4225 H 413.542 -0.892104 -1.92757 0
M  V30 4226 H 415.805 -0.340563 -0.884715 0
M  V30 4227 H 415.511 -0.693403 -3.44797 0
M  V30 4228 H 415.385 1.048 -3.62349 0
M  V30 4229 H 417.772 1.27971 -2.65909 0
M  V30 4230 H 417.853 -0.481739 -2.51223 0
M  V30 4231 H 417.497 -0.685887 -5.03247 0
M  V30 4232 H 417.427 1.09024 -5.15191 0
M  V30 4233 H 419.918 0.38307 -3.75953 0
M  V30 4234 H 420.231 0.15874 -7.72637 0
M  V30 4235 H 418.576 0.149708 -6.94839 0
M  V30 4236 H 421.767 0.390607 -4.66467 0
M  V30 4237 H 421.94 0.288539 -6.47357 0
M  V30 4238 N 415.346 1.54954 0.287554 0
M  V30 4239 C 416.276 1.89839 1.35954 0
M  V30 4240 C 417.257 0.758675 1.52244 0
M  V30 4241 O 418.442 1.01557 1.65529 0
M  V30 4242 C 415.572 2.15753 2.72154 0
M  V30 4243 C 414.526 3.3159 2.70614 0
M  V30 4244 C 413.852 3.42952 4.10229 0
M  V30 4245 C 415.152 4.68359 2.31165 0
M  V30 4246 H 416.846 2.79625 1.07007 0
M  V30 4247 H 414.392 1.3454 0.513316 0
M  V30 4248 H 416.345 2.38743 3.47246 0
M  V30 4249 H 415.069 1.22752 3.02654 0
M  V30 4250 H 413.728 3.08545 1.97979 0
M  V30 4251 H 413.376 2.47443 4.37928 0
M  V30 4252 H 413.076 4.20826 4.10097 0
M  V30 4253 H 414.6 3.68218 4.87081 0
M  V30 4254 H 416.014 4.9099 2.95976 0
M  V30 4255 H 414.411 5.49044 2.42221 0
M  V30 4256 H 415.481 4.68165 1.26291 0
M  V30 4257 N 416.824 -0.551391 1.4764 0
M  V30 4258 C 418.054 -1.33163 1.57959 0
M  V30 4259 C 418.462 -1.87785 0.23094 0
M  V30 4260 O 417.805 -1.65996 -0.786825 0
M  V30 4261 C 417.867 -2.53449 2.54958 0
M  V30 4262 C 417.531 -2.20071 4.00522 0
M  V30 4263 C 418.528 -1.77017 4.88836 0
M  V30 4264 C 416.213 -2.31252 4.45901 0
M  V30 4265 C 418.207 -1.4558 6.20552 0
M  V30 4266 C 415.894 -1.99427 5.77644 0
M  V30 4267 C 416.892 -1.56659 6.64791 0
M  V30 4268 O 416.58 -1.25242 7.94084 0
M  V30 4269 H 416.312 -0.412022 0.535923 0
M  V30 4270 H 418.866 -0.674186 1.9402 0
M  V30 4271 H 417.096 -3.22104 2.13976 0
M  V30 4272 H 418.785 -3.15523 2.55343 0
M  V30 4273 H 419.551 -1.67867 4.55023 0
M  V30 4274 H 415.43 -2.63498 3.78272 0
M  V30 4275 H 418.974 -1.12125 6.8853 0
M  V30 4276 H 414.871 -2.08211 6.10998 0
M  V30 4277 H 415.639 -1.38822 8.06642 0
M  V30 4278 N 418.302 -1.35869 -0.798587 0
M  V30 4279 C 419.55 -1.29332 -1.55298 0
M  V30 4280 C 419.871 0.129729 -1.94568 0
M  V30 4281 O 419.141 1.06796 -1.6423 0
M  V30 4282 H 417.721 -0.475737 -0.57592 0
M  V30 4283 H 420.383 -1.70062 -0.952093 0
M  V30 4284 H 419.479 -1.91458 -2.46476 0
M  V30 4285 N 419.78 1.02168 -1.19998 0
M  V30 4286 C 421.196 1.27969 -0.953737 0
M  V30 4287 C 421.396 1.98079 0.369703 0
M  V30 4288 O 420.452 2.27306 1.09947 0
M  V30 4289 C 421.765 2.11971 -2.13281 0
M  V30 4290 C 423.313 2.25255 -2.17323 0
M  V30 4291 C 423.788 3.12632 -3.34702 0
M  V30 4292 N 425.279 3.2022 -3.34684 0
M  V30 4293 C 426.014 3.88039 -4.22153 0
M  V30 4294 N 425.51 4.58027 -5.19791 0
M  V30 4295 N 427.303 3.84511 -4.10009 0
M  V30 4296 H 419.454 0.550794 -2.05134 0
M  V30 4297 H 421.717 0.305683 -0.897364 0
M  V30 4298 H 421.423 1.67785 -3.09097 0
M  V30 4299 H 421.297 3.12699 -2.10949 0
M  V30 4300 H 423.684 2.68667 -1.22073 0
M  V30 4301 H 423.765 1.24053 -2.23706 0
M  V30 4302 H 423.409 2.69926 -4.30235 0
M  V30 4303 H 423.339 4.13909 -3.25556 0
M  V30 4304 H 425.83 2.70382 -2.64012 0
M  V30 4305 H 426.143 5.07429 -5.82868 0
M  V30 4306 H 424.488 4.56869 -5.23733 0
M  V30 4307 H 427.679 3.28978 -3.33003 0
M  V30 4308 H 427.852 4.3709 -4.78389 0
M  V30 4309 N 421.258 1.00505 1.21394 0
M  V30 4310 C 422.506 0.686415 1.90086 0
M  V30 4311 C 422.827 -0.785264 1.7849 0
M  V30 4312 O 422.097 -1.56387 1.17983 0
M  V30 4313 H 420.677 0.2509 0.703604 0
M  V30 4314 H 423.339 1.27417 1.47482 0
M  V30 4315 H 422.435 0.959621 2.96981 0
M  V30 4316 N 422.737 -1.36956 0.779787 0
M  V30 4317 C 423.667 -2.32761 0.185651 0
M  V30 4318 C 424.648 -1.56177 -0.673989 0
M  V30 4319 O 425.833 -1.84378 -0.609797 0
M  V30 4320 C 422.963 -3.40418 -0.687964 0
M  V30 4321 C 421.917 -4.27941 0.0710102 0
M  V30 4322 C 421.243 -5.26681 -0.922573 0
M  V30 4323 C 422.543 -5.07006 1.25467 0
M  V30 4324 H 424.237 -2.82698 0.986008 0
M  V30 4325 H 421.783 -1.3592 0.475592 0
M  V30 4326 H 423.736 -4.06423 -1.11348 0
M  V30 4327 H 422.46 -2.89025 -1.52093 0
M  V30 4328 H 421.119 -3.63478 0.47739 0
M  V30 4329 H 420.767 -4.71565 -1.7503 0
M  V30 4330 H 420.467 -5.86103 -0.419237 0
M  V30 4331 H 421.991 -5.9556 -1.34686 0
M  V30 4332 H 423.405 -5.66105 0.905401 0
M  V30 4333 H 421.802 -5.75793 1.69063 0
M  V30 4334 H 422.872 -4.3921 2.05481 0
M  V30 4335 N 424.215 -0.530993 -1.48385 0
M  V30 4336 C 425.147 0.268353 -2.27624 0
M  V30 4337 C 426.16 0.903525 -1.35426 0
M  V30 4338 O 427.349 0.781796 -1.60469 0
M  V30 4339 C 424.449 1.39535 -3.08842 0
M  V30 4340 C 423.622 0.861913 -4.28824 0
M  V30 4341 C 422.681 1.87016 -4.91845 0
M  V30 4342 O 421.707 1.4267 -5.5103 0
M  V30 4343 N 422.909 3.20238 -4.84178 0
M  V30 4344 H 425.674 -0.41123 -2.96865 0
M  V30 4345 H 423.235 -0.365387 -1.57723 0
M  V30 4346 H 425.227 2.06803 -3.47871 0
M  V30 4347 H 423.797 1.97859 -2.42014 0
M  V30 4348 H 423.017 0.0132126 -3.94198 0
M  V30 4349 H 424.305 0.484415 -5.06489 0
M  V30 4350 H 423.703 3.58932 -4.37246 0
M  V30 4351 H 422.26 3.83136 -5.27305 0
M  V30 4352 N 425.693 1.55336 -0.266172 0
M  V30 4353 C 426.643 2.18848 0.639497 0
M  V30 4354 C 427.627 1.1503 1.12503 0
M  V30 4355 O 428.819 1.40875 1.0716 0
M  V30 4356 C 425.948 2.90626 1.82733 0
M  V30 4357 C 425.034 4.01723 1.35939 0
M  V30 4358 N 425.425 5.02145 0.606988 0
M  V30 4359 C 423.723 4.1463 1.6431 0
M  V30 4360 C 424.424 5.80572 0.362138 0
M  V30 4361 N 423.4 5.35551 0.931971 0
M  V30 4362 H 427.202 2.93845 0.0567057 0
M  V30 4363 H 424.716 1.62252 -0.0693312 0
M  V30 4364 H 426.713 3.34569 2.48735 0
M  V30 4365 H 425.373 2.17137 2.41416 0
M  V30 4366 H 426.384 5.17271 0.255198 0
M  V30 4367 H 423.061 3.52326 2.23993 0
M  V30 4368 H 424.451 6.71472 -0.239848 0
M  V30 4369 N 427.171 -0.0066808 1.57599 0
M  V30 4370 C 428.401 -0.703066 1.94269 0
M  V30 4371 C 428.809 -1.68206 0.866222 0
M  V30 4372 O 428.152 -1.82966 -0.164087 0
M  V30 4373 C 428.214 -1.49616 3.26887 0
M  V30 4374 C 427.878 -0.679494 4.5192 0
M  V30 4375 C 428.875 0.0299508 5.19891 0
M  V30 4376 C 426.56 -0.627433 4.98366 0
M  V30 4377 C 428.554 0.780514 6.32603 0
M  V30 4378 C 426.241 0.126861 6.10968 0
M  V30 4379 C 427.239 0.829574 6.77943 0
M  V30 4380 O 426.927 1.57157 7.88389 0
M  V30 4381 H 426.659 -0.201217 0.645359 0
M  V30 4382 H 429.213 0.0385326 2.05364 0
M  V30 4383 H 427.443 -2.28209 3.12182 0
M  V30 4384 H 429.132 -2.07726 3.48719 0
M  V30 4385 H 429.898 -0.00115963 4.85 0
M  V30 4386 H 425.777 -1.16392 4.46065 0
M  V30 4387 H 429.321 1.32954 6.84813 0
M  V30 4388 H 425.218 0.159815 6.45302 0
M  V30 4389 H 425.986 1.48758 8.04868 0
M  V30 4390 N 428.649 -1.55105 -0.279332 0
M  V30 4391 C 429.579 -1.90557 -1.34945 0
M  V30 4392 C 430.56 -0.766738 -1.51839 0
M  V30 4393 O 431.745 -1.02434 -1.64988 0
M  V30 4394 C 428.875 -2.17193 -2.71006 0
M  V30 4395 C 427.829 -3.33021 -2.68851 0
M  V30 4396 C 427.155 -3.45123 -4.08405 0
M  V30 4397 C 428.455 -4.69578 -2.28678 0
M  V30 4398 H 430.149 -2.80188 -1.05522 0
M  V30 4399 H 427.695 -1.34811 -0.506173 0
M  V30 4400 H 429.648 -2.40581 -3.45975 0
M  V30 4401 H 428.372 -1.24355 -3.01999 0
M  V30 4402 H 427.031 -3.0959 -1.9634 0
M  V30 4403 H 426.679 -2.49762 -4.3661 0
M  V30 4404 H 426.379 -4.22995 -4.07859 0
M  V30 4405 H 427.903 -3.70796 -4.85121 0
M  V30 4406 H 429.317 -4.92553 -2.93368 0
M  V30 4407 H 427.714 -5.5032 -2.39306 0
M  V30 4408 H 428.784 -4.68828 -1.23807 0
M  V30 4409 N 430.127 0.543554 -1.4793 0
M  V30 4410 C 431.057 1.65888 -1.64327 0
M  V30 4411 C 432.038 1.62818 -0.492383 0
M  V30 4412 O 433.223 1.80226 -0.723338 0
M  V30 4413 C 430.353 3.04506 -1.67013 0
M  V30 4414 C 429.307 3.2243 -2.81466 0
M  V30 4415 C 428.633 4.61972 -2.69233 0
M  V30 4416 C 429.933 3.06496 -4.22915 0
M  V30 4417 H 431.627 1.52421 -2.57698 0
M  V30 4418 H 429.173 0.731849 -1.24016 0
M  V30 4419 H 431.126 3.82391 -1.77074 0
M  V30 4420 H 429.85 3.18964 -0.70212 0
M  V30 4421 H 428.509 2.46957 -2.70938 0
M  V30 4422 H 428.157 4.73247 -1.7043 0
M  V30 4423 H 427.857 4.74911 -3.46025 0
M  V30 4424 H 429.381 5.41974 -2.81242 0
M  V30 4425 H 430.795 3.74186 -4.34348 0
M  V30 4426 H 429.192 3.30938 -5.006 0
M  V30 4427 H 430.262 2.03077 -4.40327 0
M  V30 4428 N 431.605 1.3629 0.791371 0
M  V30 4429 C 432.833 1.33562 1.58016 0
M  V30 4430 C 433.248 -0.0835616 1.88615 0
M  V30 4431 O 432.605 -1.0399 1.49974 0
M  V30 4432 C 432.656 2.15517 2.90232 0
M  V30 4433 O 432.377 3.51902 2.60953 0
M  V30 4434 C 433.878 2.20546 3.84544 0
M  V30 4435 H 431.098 0.458226 0.490173 0
M  V30 4436 H 433.642 1.79361 0.982345 0
M  V30 4437 H 431.797 1.73278 3.46487 0
M  V30 4438 H 432.211 3.94644 3.4548 0
M  V30 4439 H 433.685 2.82252 4.74382 0
M  V30 4440 H 434.162 1.20838 4.2225 0
M  V30 4441 H 434.768 2.63013 3.34222 0
M  V30 4442 N 433.083 -1.0153 1.20538 0
M  V30 4443 C 434.013 -2.11972 0.979295 0
M  V30 4444 C 434.994 -1.6985 -0.0921787 0
M  V30 4445 O 436.179 -1.94089 0.0655932 0
M  V30 4446 C 433.309 -3.43201 0.531984 0
M  V30 4447 C 432.263 -3.9907 1.54685 0
M  V30 4448 C 431.589 -5.26082 0.956127 0
M  V30 4449 C 432.889 -4.32313 2.93092 0
M  V30 4450 H 434.583 -2.31143 1.90298 0
M  V30 4451 H 432.129 -1.11079 0.916372 0
M  V30 4452 H 434.082 -4.1985 0.361044 0
M  V30 4453 H 432.806 -3.23792 -0.427327 0
M  V30 4454 H 431.465 -3.2453 1.70517 0
M  V30 4455 H 431.113 -5.02999 -0.0111538 0
M  V30 4456 H 430.813 -5.64426 1.63393 0
M  V30 4457 H 432.337 -6.05386 0.796284 0
M  V30 4458 H 433.751 -4.99845 2.80763 0
M  V30 4459 H 432.148 -4.81774 3.57791 0
M  V30 4460 H 433.218 -3.41025 3.44717 0
M  V30 4461 N 434.561 -1.01147 -1.20859 0
M  V30 4462 C 435.524 -0.582224 -2.21682 0
M  V30 4463 C 436.524 0.344887 -1.57058 0
M  V30 4464 O 437.714 0.134281 -1.73682 0
M  V30 4465 C 434.846 0.150496 -3.40568 0
M  V30 4466 H 436.039 -1.47408 -2.61172 0
M  V30 4467 H 433.592 -0.800695 -1.34233 0
M  V30 4468 H 434.327 1.0575 -3.06574 0
M  V30 4469 H 434.112 -0.515444 -3.88697 0
M  V30 4470 H 435.602 0.438344 -4.15293 0
M  V30 4471 N 436.039 1.36541 -0.78704 0
M  V30 4472 C 437.264 2.0409 -0.369053 0
M  V30 4473 C 437.689 1.58957 1.00569 0
M  V30 4474 O 437.047 0.756926 1.64743 0
M  V30 4475 C 437.095 3.57924 -0.438466 0
M  V30 4476 O 436.199 4.08642 0.555479 0
M  V30 4477 H 435.54 0.645142 -0.157122 0
M  V30 4478 H 438.07 1.74545 -1.06749 0
M  V30 4479 H 438.08 4.06887 -0.301218 0
M  V30 4480 H 436.755 3.90127 -1.44132 0
M  V30 4481 H 435.332 3.70958 0.380088 0
M  V30 4482 N 437.518 0.538854 1.48102 0
M  V30 4483 C 438.767 0.0059532 2.01699 0
M  V30 4484 C 439.08 -1.34476 1.42041 0
M  V30 4485 O 440.286 -1.96653 1.87189 0
M  V30 4486 C 438.742 -0.0397627 3.59878 0
M  V30 4487 C 438.35 1.30659 4.28523 0
M  V30 4488 C 440.094 -0.521024 4.2129 0
M  V30 4489 C 438.001 1.22098 5.78659 0
M  V30 4490 H 436.931 -0.00154456 0.753998 0
M  V30 4491 H 439.582 0.683963 1.70277 0
M  V30 4492 H 437.964 -0.783037 3.88181 0
M  V30 4493 H 439.138 2.06613 4.11883 0
M  V30 4494 H 437.453 1.7243 3.79021 0
M  V30 4495 H 440.05 -0.603184 5.31287 0
M  V30 4496 H 440.393 -1.52885 3.8721 0
M  V30 4497 H 440.926 0.166834 3.9745 0
M  V30 4498 H 437.665 2.20424 6.17328 0
M  V30 4499 H 437.185 0.50295 5.97688 0
M  V30 4500 H 438.864 0.915345 6.40492 0
M  V30 4501 N 438.996 -1.55193 0.274407 0
M  V30 4502 C 439.959 -2.212 -0.600279 0
M  V30 4503 C 440.959 -1.18963 -1.08187 0
M  V30 4504 O 442.149 -1.43873 -0.982158 0
M  V30 4505 C 439.281 -2.87739 -1.82809 0
M  V30 4506 H 440.474 -2.9989 -0.0239682 0
M  V30 4507 H 438.027 -1.5628 0.0250192 0
M  V30 4508 H 438.762 -2.13058 -2.44493 0
M  V30 4509 H 438.547 -3.62658 -1.49069 0
M  V30 4510 H 440.037 -3.38171 -2.45011 0
M  V30 4511 N 440.474 -0.00167713 -1.576 0
M  V30 4512 C 441.422 1.0074 -2.09652 0
M  V30 4513 C 442.416 1.35483 -1.01689 0
M  V30 4514 O 443.622 1.34028 -1.20152 0
M  V30 4515 H 439.997 0.342537 -0.669457 0
M  V30 4516 H 441.968 0.542841 -2.93421 0
M  V30 4517 C 440.717 2.2899 -2.61647 0
M  V30 4518 H 440.04 2.03124 -3.44355 0
M  V30 4519 H 441.48 2.9787 -3.01744 0
M  V30 4520 C 439.939 3.00085 -1.53136 0
M  V30 4521 O 440.469 3.91135 -0.91524 0
M  V30 4522 N 438.675 2.6194 -1.25841 0
M  V30 4523 H 438.222 1.8798 -1.76129 0
M  V30 4524 H 438.18 3.09822 -0.534576 0
M  V30 4525 N 441.952 1.55251 0.271103 0
M  V30 4526 C 443.368 1.47133 0.618393 0
M  V30 4527 C 443.568 0.686994 1.89427 0
M  V30 4528 O 442.624 0.206609 2.51653 0
M  V30 4529 C 443.937 2.91361 0.743593 0
M  V30 4530 C 445.485 3.01587 0.837522 0
M  V30 4531 C 445.96 4.47073 0.994483 0
M  V30 4532 N 447.451 4.50909 1.05996 0
M  V30 4533 C 448.186 5.60698 1.20024 0
M  V30 4534 N 447.682 6.80348 1.30759 0
M  V30 4535 N 449.475 5.48444 1.23149 0
M  V30 4536 H 441.626 2.04698 -0.566784 0
M  V30 4537 H 443.889 0.928319 -0.192165 0
M  V30 4538 H 443.595 3.51483 -0.123493 0
M  V30 4539 H 443.469 3.40484 1.62328 0
M  V30 4540 H 445.856 2.4156 1.69507 0
M  V30 4541 H 445.937 2.55713 -0.0668086 0
M  V30 4542 H 445.581 5.07703 0.141582 0
M  V30 4543 H 445.511 4.90605 1.91349 0
M  V30 4544 H 448.002 3.6472 0.989316 0
M  V30 4545 H 448.315 7.59772 1.41303 0
M  V30 4546 H 446.66 6.83156 1.27761 0
M  V30 4547 H 449.851 4.53907 1.14394 0
M  V30 4548 H 450.024 6.34049 1.33738 0
M  V30 4549 N 443.43 -0.535701 1.48216 0
M  V30 4550 C 444.36 -1.65014 1.65204 0
M  V30 4551 C 445.341 -1.62554 0.501011 0
M  V30 4552 O 446.526 -1.7984 0.732886 0
M  V30 4553 C 443.656 -3.03616 1.68626 0
M  V30 4554 C 442.61 -3.20932 2.83172 0
M  V30 4555 C 441.936 -4.60537 2.71679 0
M  V30 4556 C 443.236 -3.04249 4.24535 0
M  V30 4557 H 444.93 -1.51053 2.58502 0
M  V30 4558 H 442.476 -0.725262 1.24402 0
M  V30 4559 H 444.429 -3.81446 1.79099 0
M  V30 4560 H 443.153 -3.18587 0.719026 0
M  V30 4561 H 441.812 -2.45517 2.72244 0
M  V30 4562 H 441.46 -4.72336 1.72937 0
M  V30 4563 H 441.16 -4.73069 3.48538 0
M  V30 4564 H 442.684 -5.40475 2.84112 0
M  V30 4565 H 444.098 -3.71877 4.36326 0
M  V30 4566 H 442.495 -3.28278 5.02348 0
M  V30 4567 H 443.565 -2.00739 4.41397 0
M  V30 4568 N 444.908 -1.36708 -0.784132 0
M  V30 4569 C 446.138 -1.34203 -1.57077 0
M  V30 4570 C 446.546 0.0774945 -1.89041 0
M  V30 4571 O 445.889 1.04628 -1.50992 0
M  V30 4572 C 445.951 -2.10351 -2.91535 0
M  V30 4573 C 445.615 -3.59405 -2.82272 0
M  V30 4574 C 446.612 -4.53545 -2.54151 0
M  V30 4575 C 444.297 -4.02362 -3.00683 0
M  V30 4576 C 446.291 -5.8862 -2.44551 0
M  V30 4577 C 443.978 -5.37526 -2.90704 0
M  V30 4578 C 444.976 -6.30468 -2.62677 0
M  V30 4579 O 444.664 -7.63149 -2.52702 0
M  V30 4580 H 444.396 -0.461791 -0.493685 0
M  V30 4581 H 446.95 -1.80475 -0.980712 0
M  V30 4582 H 445.18 -1.5875 -3.52612 0
M  V30 4583 H 446.869 -2.00636 -3.52845 0
M  V30 4584 H 447.635 -4.21669 -2.39625 0
M  V30 4585 H 443.514 -3.30389 -3.21503 0
M  V30 4586 H 447.058 -6.61133 -2.22596 0
M  V30 4587 H 442.955 -5.69008 -3.04795 0
M  V30 4588 H 443.723 -7.73331 -2.68144 0
M  V30 4589 N 446.386 1.0089 -1.21074 0
M  V30 4590 C 447.611 1.78727 -1.05221 0
M  V30 4591 C 448.036 1.83932 0.393795 0
M  V30 4592 O 447.394 1.28004 1.28393 0
M  V30 4593 C 447.442 3.20665 -1.64944 0
M  V30 4594 O 446.546 4.02632 -0.892273 0
M  V30 4595 H 445.887 0.550973 -0.370574 0
M  V30 4596 H 448.417 1.26847 -1.60534 0
M  V30 4597 H 448.427 3.71352 -1.69002 0
M  V30 4598 H 447.102 3.16191 -2.70177 0
M  V30 4599 H 445.679 3.61207 -0.926492 0
M  V30 4600 N 447.864 1.01787 1.20321 0
M  V30 4601 C 448.814 0.559976 2.21016 0
M  V30 4602 C 449.798 -0.385366 1.56217 0
M  V30 4603 O 450.99 -0.208126 1.75772 0
M  V30 4604 C 448.119 -0.0990553 3.43157 0
M  V30 4605 C 447.205 0.86807 4.15121 0
M  V30 4606 N 447.596 2.0261 4.63447 0
M  V30 4607 C 445.894 0.689162 4.40643 0
M  V30 4608 C 446.595 2.63518 5.18588 0
M  V30 4609 N 445.571 1.91569 5.08726 0
M  V30 4610 H 449.373 1.44281 2.56048 0
M  V30 4611 H 446.887 0.883381 1.36272 0
M  V30 4612 H 448.884 -0.444643 4.14522 0
M  V30 4613 H 447.544 -0.977709 3.0963 0
M  V30 4614 H 448.555 2.40598 4.58621 0
M  V30 4615 H 445.232 -0.14133 4.17261 0
M  V30 4616 H 446.622 3.61527 5.66346 0
M  V30 4617 N 449.342 -1.36122 0.79427 0
M  V30 4618 C 450.305 -2.28309 0.201889 0
M  V30 4619 C 451.305 -1.49041 -0.603603 0
M  V30 4620 O 452.495 -1.68964 -0.423888 0
M  V30 4621 C 449.627 -3.3321 -0.719978 0
M  V30 4622 H 450.82 -2.82208 1.01481 0
M  V30 4623 H 448.373 -1.45768 0.564037 0
M  V30 4624 H 449.108 -2.84475 -1.55706 0
M  V30 4625 H 448.893 -3.91835 -0.144266 0
M  V30 4626 H 450.383 -4.02044 -1.12916 0
M  V30 4627 N 450.82 -0.546701 -1.47814 0
M  V30 4628 C 452.045 -0.021268 -2.07389 0
M  V30 4629 C 452.47 1.25822 -1.39822 0
M  V30 4630 O 451.828 1.75111 -0.46968 0
M  V30 4631 C 451.876 0.168502 -3.60206 0
M  V30 4632 O 450.98 1.23347 -3.93522 0
M  V30 4633 H 450.321 -0.0466108 -0.662362 0
M  V30 4634 H 452.851 -0.759387 -1.89985 0
M  V30 4635 H 452.861 0.385982 -4.0617 0
M  V30 4636 H 451.536 -0.766075 -4.08784 0
M  V30 4637 H 450.113 0.997319 -3.59316 0
M  V30 4638 N 452.299 1.55045 -0.282633 0
M  V30 4639 C 453.548 1.98938 0.332667 0
M  V30 4640 C 453.861 1.17455 1.56409 0
M  V30 4641 O 455.067 1.51527 2.25282 0
M  V30 4642 C 453.523 3.54105 0.643226 0
M  V30 4643 C 453.131 4.44374 -0.568814 0
M  V30 4644 C 454.875 4.06569 1.22074 0
M  V30 4645 C 452.782 5.90943 -0.232426 0
M  V30 4646 H 451.712 0.743043 0.128075 0
M  V30 4647 H 454.363 1.79341 -0.388464 0
M  V30 4648 H 452.745 3.69532 1.42346 0
M  V30 4649 H 453.919 4.40718 -1.34551 0
M  V30 4650 H 452.234 4.02585 -1.06369 0
M  V30 4651 H 454.831 5.13626 1.48635 0
M  V30 4652 H 455.174 3.56057 2.15707 0
M  V30 4653 H 455.707 3.94612 0.502621 0
M  V30 4654 H 452.446 6.45567 -1.13683 0
M  V30 4655 H 451.966 5.9765 0.507357 0
M  V30 4656 H 453.645 6.4677 0.172657 0
M  V30 4657 N 453.777 0.010035 1.57597 0
M  V30 4658 C 454.687 -0.994226 2.12491 0
M  V30 4659 C 455.703 -1.37013 1.07254 0
M  V30 4660 O 456.879 -1.45542 1.3921 0
M  V30 4661 C 453.944 -2.2642 2.62555 0
M  V30 4662 C 453.005 -1.95049 3.82432 0
M  V30 4663 C 452.238 -3.15991 4.30099 0
M  V30 4664 O 452.461 -4.28015 3.7704 0
M  V30 4665 O 451.395 -2.99403 5.22151 0
M  V30 4666 H 455.221 -0.557549 2.98538 0
M  V30 4667 H 452.806 -0.209413 1.47925 0
M  V30 4668 H 454.688 -3.01009 2.9491 0
M  V30 4669 H 453.363 -2.69306 1.796 0
M  V30 4670 H 452.27 -1.17904 3.55034 0
M  V30 4671 H 453.603 -1.56992 4.66491 0
M  V30 4672 N 455.255 -1.55392 -0.262866 0
M  V30 4673 C 456.203 -1.8977 -1.345 0
M  V30 4674 C 457.197 -0.775063 -1.50629 0
M  V30 4675 O 458.403 -0.959519 -1.52293 0
M  V30 4676 H 454.778 -0.602467 -0.450041 0
M  V30 4677 H 456.749 -2.80147 -1.02762 0
M  V30 4678 C 455.498 -2.19501 -2.69657 0
M  V30 4679 H 454.821 -3.05378 -2.5804 0
M  V30 4680 H 456.261 -2.47469 -3.44289 0
M  V30 4681 C 454.72 -1.00597 -3.21531 0
M  V30 4682 O 455.25 -0.245768 -4.00947 0
M  V30 4683 N 453.456 -0.800911 -2.79345 0
M  V30 4684 H 453.003 -1.42079 -2.14875 0
M  V30 4685 H 452.961 -0.00697996 -3.14399 0
M  V30 4686 N 456.733 0.527833 -1.48498 0
M  V30 4687 C 457.683 1.62844 -1.5958 0
M  V30 4688 C 458.667 1.54397 -0.452809 0
M  V30 4689 O 459.859 1.62381 -0.704364 0
M  V30 4690 C 456.988 3.01557 -1.64067 0
M  V30 4691 C 456.074 3.151 -2.83853 0
M  V30 4692 N 456.465 2.9861 -4.08247 0
M  V30 4693 C 454.763 3.46158 -2.8123 0
M  V30 4694 C 455.464 3.15626 -4.88626 0
M  V30 4695 N 454.44 3.43298 -4.21483 0
M  V30 4696 H 458.242 1.48708 -2.53502 0
M  V30 4697 H 455.756 0.733343 -1.44899 0
M  V30 4698 H 457.753 3.8062 -1.70101 0
M  V30 4699 H 456.413 3.16783 -0.712636 0
M  V30 4700 H 457.424 2.75329 -4.3865 0
M  V30 4701 H 454.101 3.67728 -1.97692 0
M  V30 4702 H 455.491 3.07596 -5.97356 0
M  V30 4703 N 458.211 1.37122 0.776871 0
M  V30 4704 C 459.46 1.31373 1.53049 0
M  V30 4705 C 459.773 -0.101016 1.95339 0
M  V30 4706 O 460.979 -0.280953 2.70042 0
M  V30 4707 C 459.435 2.30567 2.76346 0
M  V30 4708 C 459.043 3.77543 2.41175 0
M  V30 4709 C 460.787 2.33818 3.54301 0
M  V30 4710 C 458.694 4.68481 3.60943 0
M  V30 4711 H 457.624 0.488234 0.574581 0
M  V30 4712 H 460.275 1.62554 0.851372 0
M  V30 4713 H 458.657 1.92396 3.46121 0
M  V30 4714 H 459.831 4.24521 1.79216 0
M  V30 4715 H 458.146 3.77187 1.76405 0
M  V30 4716 H 460.743 2.98965 4.4331 0
M  V30 4717 H 461.086 1.3503 3.93793 0
M  V30 4718 H 461.619 2.7067 2.91518 0
M  V30 4719 H 458.358 5.68378 3.26537 0
M  V30 4720 H 457.878 4.2621 4.22025 0
M  V30 4721 H 459.557 4.85366 4.27819 0
M  V30 4722 N 459.689 -1.00246 1.21608 0
M  V30 4723 C 461.105 -1.26435 0.973975 0
M  V30 4724 C 461.305 -1.98642 -0.338143 0
M  V30 4725 O 460.361 -2.29026 -1.06317 0
M  V30 4726 C 461.674 -2.08551 2.16626 0
M  V30 4727 C 463.222 -2.21769 2.20879 0
M  V30 4728 C 463.697 -3.07267 3.39633 0
M  V30 4729 N 465.188 -3.14855 3.39736 0
M  V30 4730 C 465.923 -3.81274 4.28273 0
M  V30 4731 N 465.419 -4.497 5.27012 0
M  V30 4732 N 467.212 -3.7794 4.16074 0
M  V30 4733 H 459.363 -0.518089 2.05984 0
M  V30 4734 H 461.626 -0.291368 0.902113 0
M  V30 4735 H 461.332 -1.62847 3.11727 0
M  V30 4736 H 461.206 -3.09303 2.15897 0
M  V30 4737 H 463.593 -2.66691 1.26332 0
M  V30 4738 H 463.674 -1.20478 2.25652 0
M  V30 4739 H 463.318 -2.63047 4.34475 0
M  V30 4740 H 463.248 -4.08678 3.321 0
M  V30 4741 H 465.739 -2.66147 2.6828 0
M  V30 4742 H 466.052 -4.98092 5.90867 0
M  V30 4743 H 464.397 -4.48479 5.30935 0
M  V30 4744 H 467.588 -3.23638 3.38195 0
M  V30 4745 H 467.761 -4.29424 4.85282 0
M  V30 4746 N 461.167 -1.02423 -1.1978 0
M  V30 4747 C 462.097 -0.62157 -2.25075 0
M  V30 4748 C 463.078 0.367148 -1.6609 0
M  V30 4749 O 464.263 0.250892 -1.92573 0
M  V30 4750 C 461.393 0.0331826 -3.47284 0
M  V30 4751 C 460.347 -0.877323 -4.18912 0
M  V30 4752 C 459.673 -0.0879296 -5.34628 0
M  V30 4753 C 460.973 -2.18892 -4.74219 0
M  V30 4754 H 462.667 -1.50179 -2.59011 0
M  V30 4755 H 460.213 -0.723547 -1.24502 0
M  V30 4756 H 462.166 0.326488 -4.20133 0
M  V30 4757 H 460.89 0.948164 -3.12534 0
M  V30 4758 H 459.549 -1.15475 -3.47938 0
M  V30 4759 H 459.197 0.828941 -4.96123 0
M  V30 4760 H 458.897 -0.694359 -5.83483 0
M  V30 4761 H 460.421 0.198743 -6.10276 0
M  V30 4762 H 461.835 -1.95746 -5.38847 0
M  V30 4763 H 460.232 -2.74686 -5.33542 0
M  V30 4764 H 461.302 -2.84674 -3.92541 0
M  V30 4765 N 462.645 1.35699 -0.801477 0
M  V30 4766 C 463.608 2.28199 -0.213994 0
M  V30 4767 C 464.608 1.49359 0.595691 0
M  V30 4768 O 465.798 1.69186 0.414921 0
M  V30 4769 C 462.93 3.33587 0.702297 0
M  V30 4770 H 464.123 2.81666 -1.02976 0
M  V30 4771 H 461.676 1.45467 -0.571759 0
M  V30 4772 H 462.411 2.85297 1.54195 0
M  V30 4773 H 462.196 3.91906 0.123484 0
M  V30 4774 H 463.686 4.02638 1.10783 0
M  V30 4775 N 464.123 0.554532 1.47522 0
M  V30 4776 C 465.369 0.0295227 2.02779 0
M  V30 4777 C 465.702 -1.31582 1.42828 0
M  V30 4778 O 464.977 -1.85561 0.582872 0
M  V30 4779 C 465.26 -0.0664057 3.60039 0
M  V30 4780 C 465.113 1.30585 4.30427 0
M  V30 4781 C 466.432 -0.781162 4.33112 0
M  V30 4782 H 463.551 0.0122027 0.736899 0
M  V30 4783 H 466.193 0.716305 1.7598 0
M  V30 4784 H 464.343 -0.651307 3.83002 0
M  V30 4785 H 466.015 1.93374 4.18813 0
M  V30 4786 H 464.258 1.88125 3.90886 0
M  V30 4787 H 464.929 1.19147 5.38988 0
M  V30 4788 H 467.405 -0.284565 4.15126 0
M  V30 4789 H 466.281 -0.817237 5.42782 0
M  V30 4790 H 466.542 -1.83672 4.0214 0
M  V30 4791 N 465.601 -1.54893 0.290851 0
M  V30 4792 C 466.847 -2.0023 -0.321867 0
M  V30 4793 C 467.18 -1.179 -1.54316 0
M  V30 4794 O 466.455 -0.25293 -1.92848 0
M  V30 4795 C 466.738 -3.53456 -0.688515 0
M  V30 4796 C 466.591 -4.46532 0.541209 0
M  V30 4797 C 467.91 -4.13057 -1.51895 0
M  V30 4798 H 465.029 -0.727891 -0.115515 0
M  V30 4799 H 467.671 -1.85722 0.400931 0
M  V30 4800 H 465.821 -3.6595 -1.30433 0
M  V30 4801 H 467.493 -4.4596 1.17973 0
M  V30 4802 H 465.736 -4.17545 1.17636 0
M  V30 4803 H 466.407 -5.51475 0.240675 0
M  V30 4804 H 468.883 -4.03937 -0.99872 0
M  V30 4805 H 467.759 -5.20448 -1.74429 0
M  V30 4806 H 468.02 -3.64284 -2.50498 0
M  V30 4807 N 467.08 -0.0183926 -1.57589 0
M  V30 4808 C 468.027 0.967022 -2.09565 0
M  V30 4809 C 468.997 1.32983 -0.995225 0
M  V30 4810 O 470.182 1.42501 -1.26878 0
M  V30 4811 C 467.322 2.24772 -2.61861 0
M  V30 4812 C 466.435 1.94232 -3.85873 0
M  V30 4813 C 465.57 3.16518 -4.26603 0
M  V30 4814 C 464.609 2.81748 -5.43401 0
M  V30 4815 N 463.746 3.96626 -5.79338 0
M  V30 4816 H 468.586 0.516874 -2.93483 0
M  V30 4817 H 466.123 0.243544 -1.4507 0
M  V30 4818 H 468.081 2.99667 -2.90268 0
M  V30 4819 H 466.711 2.67423 -1.8079 0
M  V30 4820 H 465.763 1.09625 -3.64262 0
M  V30 4821 H 467.075 1.64616 -4.70853 0
M  V30 4822 H 466.229 3.99743 -4.56389 0
M  V30 4823 H 464.968 3.49286 -3.40368 0
M  V30 4824 H 463.973 1.96933 -5.1332 0
M  V30 4825 H 465.198 2.50207 -6.31327 0
M  V30 4826 H 463.144 4.29257 -4.96059 0
M  V30 4827 H 463.061 3.70598 -6.58933 0
M  V30 4828 H 464.329 4.80586 -6.13724 0
M  V30 4829 N 468.558 1.5553 0.254621 0
M  V30 4830 C 469.804 1.77262 0.985193 0
M  V30 4831 C 470.137 0.582286 1.85265 0
M  V30 4832 O 469.412 -0.419666 1.89919 0
M  V30 4833 C 469.695 3.0881 1.85225 0
M  V30 4834 C 469.548 4.38233 1.0135 0
M  V30 4835 C 470.867 3.3653 2.83612 0
M  V30 4836 H 467.986 0.644906 0.356742 0
M  V30 4837 H 470.628 1.88264 0.256236 0
M  V30 4838 H 468.778 2.99562 2.47376 0
M  V30 4839 H 470.45 4.59463 0.411269 0
M  V30 4840 H 468.693 4.32636 0.317574 0
M  V30 4841 H 469.364 5.26644 1.65379 0
M  V30 4842 H 471.84 3.45691 2.31596 0
M  V30 4843 H 470.716 4.29805 3.41407 0
M  V30 4844 H 470.977 2.57064 3.59681 0
M  V30 4845 N 470.036 -0.519951 1.48776 0
M  V30 4846 C 471.282 -1.27711 1.57536 0
M  V30 4847 C 471.615 -1.92547 0.252866 0
M  V30 4848 O 470.89 -1.7979 -0.742021 0
M  V30 4849 C 471.173 -2.35875 2.72094 0
M  V30 4850 C 471.026 -1.75664 4.1408 0
M  V30 4851 C 472.345 -3.37575 2.82367 0
M  V30 4852 H 469.464 -0.462971 0.573434 0
M  V30 4853 H 472.106 -0.578194 1.80989 0
M  V30 4854 H 470.256 -2.95488 2.52228 0
M  V30 4855 H 471.928 -1.20025 4.45412 0
M  V30 4856 H 470.171 -1.06154 4.20611 0
M  V30 4857 H 470.842 -2.54029 4.90075 0
M  V30 4858 H 473.318 -2.87929 3.00393 0
M  V30 4859 H 472.194 -4.1064 3.64233 0
M  V30 4860 H 472.455 -3.98743 1.90936 0
M  V30 4861 N 471.514 -1.37532 -0.769588 0
M  V30 4862 C 472.76 -1.33057 -1.53048 0
M  V30 4863 C 473.093 0.0841865 -1.94017 0
M  V30 4864 O 472.368 1.04198 -1.64235 0
M  V30 4865 C 472.651 -2.27166 -2.79406 0
M  V30 4866 C 472.504 -3.77429 -2.44677 0
M  V30 4867 C 473.823 -2.19683 -3.81349 0
M  V30 4868 H 470.942 -0.484655 -0.555228 0
M  V30 4869 H 473.584 -1.68251 -0.882702 0
M  V30 4870 H 471.734 -1.97283 -3.34682 0
M  V30 4871 H 473.406 -4.17918 -1.953 0
M  V30 4872 H 471.649 -3.95892 -1.77346 0
M  V30 4873 H 472.32 -4.38716 -3.35011 0
M  V30 4874 H 474.796 -2.46029 -3.35573 0
M  V30 4875 H 473.672 -2.87668 -4.67481 0
M  V30 4876 H 473.933 -1.19045 -4.25771 0
M  V30 4877 N 472.992 0.995999 -1.22138 0
M  V30 4878 C 473.922 2.10387 -1.01289 0
M  V30 4879 C 474.903 1.69975 0.0651454 0
M  V30 4880 O 476.088 1.9396 -0.0964628 0
M  V30 4881 C 473.218 3.42312 -0.586517 0
M  V30 4882 C 472.172 3.96558 -1.61014 0
M  V30 4883 C 471.498 5.24494 -1.0397 0
M  V30 4884 C 472.798 4.27595 -2.99933 0
M  V30 4885 H 474.492 2.28086 -1.93951 0
M  V30 4886 H 472.038 1.09607 -0.933928 0
M  V30 4887 H 473.991 4.19223 -0.427793 0
M  V30 4888 H 472.715 3.24431 0.375761 0
M  V30 4889 H 471.374 3.21776 -1.75658 0
M  V30 4890 H 471.022 5.02953 -0.0688703 0
M  V30 4891 H 470.722 5.61755 -1.72352 0
M  V30 4892 H 472.246 6.04042 -0.892494 0
M  V30 4893 H 473.66 4.95315 -2.8868 0
M  V30 4894 H 472.057 4.76021 -3.6541 0
M  V30 4895 H 473.127 3.35498 -3.50099 0
M  V30 4896 N 474.47 1.03057 1.19235 0
M  V30 4897 C 475.718 0.726581 1.88587 0
M  V30 4898 C 476.039 -0.747227 1.80115 0
M  V30 4899 O 475.309 -1.53849 1.21274 0
M  V30 4900 H 473.889 0.265768 0.698124 0
M  V30 4901 H 476.551 1.30516 1.44746 0
M  V30 4902 H 475.647 1.0224 2.94879 0
M  V30 4903 N 475.948 -1.35272 0.808662 0
M  V30 4904 C 477.225 -1.93077 0.313181 0
M  V30 4905 C 477.605 -1.73847 -1.19752 0
M  V30 4906 O 476.953 -1.1087 -1.998 0
M  V30 4907 C 477.163 -3.41347 0.726859 0
M  V30 4908 C 478.511 -4.18493 0.717532 0
M  V30 4909 O 479.535 -3.4987 0.668535 0
M  V30 4910 O 478.394 -5.40937 0.777779 0
M  V30 4911 H 475.488 -0.822885 0.0824018 0
M  V30 4912 H 478.034 -1.44335 0.892499 0
M  V30 4913 H 476.806 -3.49082 1.76797 0
M  V30 4914 H 476.429 -3.97411 0.122461 0
M  V30 4915 N 477.426 -0.562348 -1.47226 0
M  V30 4916 C 478.373 0.182461 -2.30078 0
M  V30 4917 C 479.343 0.903503 -1.39377 0
M  V30 4918 O 480.528 0.898188 -1.68337 0
M  V30 4919 C 477.668 1.20322 -3.23445 0
M  V30 4920 C 476.781 0.487717 -4.29238 0
M  V30 4921 C 475.916 1.49422 -5.09752 0
M  V30 4922 C 474.955 0.763976 -6.07314 0
M  V30 4923 N 474.092 1.71755 -6.80768 0
M  V30 4924 H 478.932 -0.530169 -2.93246 0
M  V30 4925 H 476.469 -0.273276 -1.44539 0
M  V30 4926 H 478.427 1.80768 -3.76004 0
M  V30 4927 H 477.057 1.88382 -2.6213 0
M  V30 4928 H 476.109 -0.231374 -3.79696 0
M  V30 4929 H 477.421 -0.0841003 -4.98729 0
M  V30 4930 H 476.575 2.17206 -5.66486 0
M  V30 4931 H 475.314 2.09995 -4.40174 0
M  V30 4932 H 474.319 0.0722344 -5.49753 0
M  V30 4933 H 475.544 0.16391 -6.78902 0
M  V30 4934 H 473.49 2.31177 -6.13916 0
M  V30 4935 H 473.407 1.19802 -7.46447 0
M  V30 4936 H 474.675 2.38638 -7.42073 0
M  V30 4937 N 478.904 1.54736 -0.299062 0
M  V30 4938 C 480.181 1.92187 0.363802 0
M  V30 4939 C 480.561 1.22607 1.71845 0
M  V30 4940 O 479.909 0.361141 2.25628 0
M  V30 4941 C 480.119 3.45678 0.480377 0
M  V30 4942 C 481.467 4.17885 0.752147 0
M  V30 4943 O 482.491 3.51702 0.564264 0
M  V30 4944 O 481.35 5.35048 1.11294 0
M  V30 4945 H 478.444 0.801681 0.203066 0
M  V30 4946 H 480.99 1.66115 -0.346978 0
M  V30 4947 H 479.762 3.88443 -0.471999 0
M  V30 4948 H 479.385 3.77779 1.2397 0
M  V30 4949 N 480.382 0.0267497 1.57577 0
M  V30 4950 C 481.329 -0.955894 2.10075 0
M  V30 4951 C 482.299 -1.32453 1.00226 0
M  V30 4952 O 483.484 -1.41826 1.27632 0
M  V30 4953 C 480.624 -2.2338 2.6305 0
M  V30 4954 C 479.737 -1.92183 3.86898 0
M  V30 4955 C 478.872 -3.14251 4.28275 0
M  V30 4956 C 477.911 -2.78862 5.44888 0
M  V30 4957 N 477.048 -3.93548 5.81433 0
M  V30 4958 H 481.888 -0.501303 2.93753 0
M  V30 4959 H 479.425 -0.235847 1.45197 0
M  V30 4960 H 481.383 -2.98124 2.91853 0
M  V30 4961 H 480.013 -2.6646 1.82205 0
M  V30 4962 H 479.065 -1.07692 3.64838 0
M  V30 4963 H 480.377 -1.62117 4.7172 0
M  V30 4964 H 479.531 -3.97317 4.58502 0
M  V30 4965 H 478.27 -3.47476 3.42215 0
M  V30 4966 H 477.275 -1.94208 5.14357 0
M  V30 4967 H 478.5 -2.46855 6.32645 0
M  V30 4968 H 476.446 -4.2662 4.98328 0
M  V30 4969 H 476.363 -3.67098 6.6089 0
M  V30 4970 H 477.631 -4.77325 6.16264 0
M  V30 4971 N 481.861 -1.55662 -0.24637 0
M  V30 4972 C 483.086 -1.81914 -0.996093 0
M  V30 4973 C 483.511 -0.603875 -1.78143 0
M  V30 4974 O 482.869 0.447091 -1.75701 0
M  V30 4975 C 482.917 -3.05908 -1.90925 0
M  V30 4976 O 482.021 -2.82861 -3.00105 0
M  V30 4977 H 481.362 -0.600481 -0.283406 0
M  V30 4978 H 483.892 -2.02848 -0.267199 0
M  V30 4979 H 483.902 -3.35356 -2.3238 0
M  V30 4980 H 482.577 -3.93999 -1.33183 0
M  V30 4981 H 481.154 -2.64583 -2.62775 0
M  V30 4982 N 483.339 0.512053 -1.4905 0
M  V30 4983 C 484.269 1.62365 -1.67809 0
M  V30 4984 C 485.25 1.61737 -0.526809 0
M  V30 4985 O 486.435 1.78651 -0.761404 0
M  V30 4986 C 483.565 3.00895 -1.73435 0
M  V30 4987 C 482.519 3.16387 -2.88242 0
M  V30 4988 C 481.845 4.56157 -2.78971 0
M  V30 4989 C 483.145 2.97457 -4.29321 0
M  V30 4990 H 484.839 1.46921 -2.60873 0
M  V30 4991 H 482.385 0.705379 -1.2554 0
M  V30 4992 H 484.338 3.78549 -1.85145 0
M  V30 4993 H 483.062 3.17403 -0.769619 0
M  V30 4994 H 481.721 2.41155 -2.76116 0
M  V30 4995 H 481.369 4.69525 -1.8043 0
M  V30 4996 H 481.069 4.67465 -3.5602 0
M  V30 4997 H 482.593 5.35886 -2.92675 0
M  V30 4998 H 484.007 3.64888 -4.42187 0
M  V30 4999 H 482.404 3.20245 -5.07507 0
M  V30 5000 H 483.474 1.93692 -4.44535 0
M  V30 5001 N 484.817 1.37938 0.762283 0
M  V30 5002 C 485.727 1.36681 1.90671 0
M  V30 5003 C 486.743 0.265078 1.71969 0
M  V30 5004 O 487.919 0.502055 1.95042 0
M  V30 5005 C 484.984 1.18211 3.25925 0
M  V30 5006 C 484.045 2.3811 3.57214 0
M  V30 5007 C 483.278 2.20512 4.86014 0
M  V30 5008 O 483.501 1.19429 5.57757 0
M  V30 5009 O 482.435 3.08911 5.16583 0
M  V30 5010 H 486.261 2.33091 1.94685 0
M  V30 5011 H 483.846 1.18767 0.906356 0
M  V30 5012 H 485.728 1.09937 4.06807 0
M  V30 5013 H 484.403 0.248807 3.22742 0
M  V30 5014 H 483.31 2.51958 2.76529 0
M  V30 5015 H 484.643 3.30041 3.65149 0
M  V30 5016 N 486.295 -0.989507 1.22664 0
M  V30 5017 C 487.541 -1.7321 1.05481 0
M  V30 5018 C 487.874 -1.89852 -0.408635 0
M  V30 5019 O 487.149 -1.44416 -1.30285 0
M  V30 5020 C 487.432 -3.1357 1.77047 0
M  V30 5021 C 487.285 -3.04555 3.31008 0
M  V30 5022 C 488.604 -4.12812 1.5256 0
M  V30 5023 H 485.723 -0.628697 0.384589 0
M  V30 5024 H 488.365 -1.15258 1.51049 0
M  V30 5025 H 486.515 -3.63046 1.3831 0
M  V30 5026 H 488.187 -2.62674 3.7921 0
M  V30 5027 H 486.43 -2.41278 3.6051 0
M  V30 5028 H 487.101 -4.03894 3.76263 0
M  V30 5029 H 489.577 -3.72106 1.86215 0
M  V30 5030 H 488.453 -5.09132 2.05124 0
M  V30 5031 H 488.714 -4.39711 0.458936 0
M  V30 5032 N 487.773 -1.03688 -1.18687 0
M  V30 5033 C 488.998 -0.757819 -1.93059 0
M  V30 5034 C 489.423 0.678353 -1.75442 0
M  V30 5035 O 488.781 1.46938 -1.06203 0
M  V30 5036 C 488.829 -1.12423 -3.42627 0
M  V30 5037 O 487.933 -0.247505 -4.11657 0
M  V30 5038 H 487.274 -0.279245 -0.602427 0
M  V30 5039 H 489.804 -1.3857 -1.5053 0
M  V30 5040 H 489.814 -1.08454 -3.93322 0
M  V30 5041 H 488.489 -2.17049 -3.54771 0
M  V30 5042 H 487.066 -0.34649 -3.71287 0
M  V30 5043 N 489.251 1.34841 -0.815825 0
M  V30 5044 C 490.198 2.29644 -0.230664 0
M  V30 5045 C 491.168 1.53253 0.640533 0
M  V30 5046 O 492.353 1.81653 0.583672 0
M  V30 5047 C 489.493 3.39715 0.607275 0
M  V30 5048 C 488.606 4.31056 -0.28538 0
M  V30 5049 C 487.741 5.28225 0.561446 0
M  V30 5050 C 486.78 6.11204 -0.331035 0
M  V30 5051 N 485.917 7.00483 0.476302 0
M  V30 5052 H 490.757 2.79095 -1.0445 0
M  V30 5053 H 488.294 1.37351 -0.526595 0
M  V30 5054 H 490.252 4.02208 1.10835 0
M  V30 5055 H 488.882 2.91517 1.38629 0
M  V30 5056 H 487.934 3.69487 -0.904621 0
M  V30 5057 H 489.246 4.89239 -0.97193 0
M  V30 5058 H 488.4 5.96135 1.12728 0
M  V30 5059 H 487.139 4.70562 1.28153 0
M  V30 5060 H 486.144 5.42232 -0.909069 0
M  V30 5061 H 487.369 6.70947 -1.04912 0
M  V30 5062 H 485.315 6.45296 1.18019 0
M  V30 5063 H 485.232 7.55847 -0.152008 0
M  V30 5064 H 486.5 7.7273 1.02512 0
M  V30 5065 N 490.729 0.570148 1.46925 0
M  V30 5066 C 491.677 -0.183181 2.31878 0
M  V30 5067 C 492.671 -0.896721 1.43719 0
M  V30 5068 O 493.877 -0.816536 1.60414 0
M  V30 5069 H 490.252 -0.077944 0.74795 0
M  V30 5070 H 492.223 0.552312 2.93244 0
M  V30 5071 C 490.972 -1.19172 3.2664 0
M  V30 5072 H 490.295 -0.652088 3.94446 0
M  V30 5073 H 491.735 -1.68946 3.88887 0
M  V30 5074 C 490.194 -2.24627 2.51086 0
M  V30 5075 O 490.724 -3.31773 2.26472 0
M  V30 5076 N 488.93 -1.98898 2.11867 0
M  V30 5077 H 488.477 -1.11777 2.32086 0
M  V30 5078 H 488.435 -2.6967 1.61634 0
M  V30 5079 N 492.207 -1.54576 0.307264 0
M  V30 5080 C 493.17 -2.22423 -0.553224 0
M  V30 5081 C 494.17 -1.21231 -1.05639 0
M  V30 5082 O 495.36 -1.45923 -0.951419 0
M  V30 5083 C 492.492 -2.91552 -1.76664 0
M  V30 5084 H 493.685 -2.99874 0.0396484 0
M  V30 5085 H 491.238 -1.56192 0.0581629 0
M  V30 5086 H 491.973 -2.18196 -2.39918 0
M  V30 5087 H 491.758 -3.65738 -1.41343 0
M  V30 5088 H 493.248 -3.43292 -2.37783 0
M  V30 5089 N 493.685 -0.035106 -1.57561 0
M  V30 5090 C 494.648 0.929819 -2.09492 0
M  V30 5091 C 495.648 1.25026 -1.01119 0
M  V30 5092 O 496.838 1.18961 -1.27255 0
M  V30 5093 C 493.97 2.24457 -2.56577 0
M  V30 5094 H 495.163 0.479935 -2.96035 0
M  V30 5095 H 492.716 0.213033 -1.54841 0
M  V30 5096 H 493.451 2.74061 -1.73382 0
M  V30 5097 H 493.236 2.02508 -3.35757 0
M  V30 5098 H 494.726 2.93607 -2.96959 0
M  V30 5099 N 495.163 1.55791 0.238111 0
M  V30 5100 C 496.391 1.82098 0.982233 0
M  V30 5101 C 496.806 0.612025 1.78605 0
M  V30 5102 O 496.163 -0.419381 1.77616 0
M  V30 5103 C 496.214 3.0673 1.91309 0
M  V30 5104 O 495.935 4.2296 1.14179 0
M  V30 5105 C 497.436 3.45903 2.77248 0
M  V30 5106 H 494.656 0.605748 0.288635 0
M  V30 5107 H 497.2 2.02862 0.258341 0
M  V30 5108 H 495.355 2.87991 2.59114 0
M  V30 5109 H 495.769 4.93653 1.7722 0
M  V30 5110 H 497.243 4.36189 3.38295 0
M  V30 5111 H 497.72 2.66891 3.48806 0
M  V30 5112 H 498.326 3.67024 2.14881 0
M  V30 5113 N 496.642 -0.504142 1.49319 0
M  V30 5114 C 497.87 -1.28256 1.62351 0
M  V30 5115 C 498.285 -1.86502 0.293682 0
M  V30 5116 O 497.642 -1.67678 -0.720449 0
M  V30 5117 C 497.693 -2.41507 2.68992 0
M  V30 5118 O 497.414 -1.85656 3.96817 0
M  V30 5119 C 498.915 -3.32929 2.927 0
M  V30 5120 H 496.135 -0.389115 0.546654 0
M  V30 5121 H 498.679 -0.605531 1.95329 0
M  V30 5122 H 496.834 -3.05046 2.38801 0
M  V30 5123 H 497.248 -2.59981 4.55533 0
M  V30 5124 H 498.722 -4.0868 3.71058 0
M  V30 5125 H 499.199 -3.89733 2.02496 0
M  V30 5126 H 499.805 -2.75158 3.24296 0
M  V30 5127 N 498.12 -1.38341 -0.754957 0
M  V30 5128 C 499.05 -1.38176 -1.88227 0
M  V30 5129 C 500.031 -0.247873 -1.68284 0
M  V30 5130 O 501.216 -0.45075 -1.88896 0
M  V30 5131 C 498.346 -1.20471 -3.25736 0
M  V30 5132 C 497.3 -2.3105 -3.60278 0
M  V30 5133 C 496.626 -1.98452 -4.96509 0
M  V30 5134 C 497.926 -3.73305 -3.65295 0
M  V30 5135 H 499.62 -2.32512 -1.88622 0
M  V30 5136 H 497.166 -1.1192 -0.906082 0
M  V30 5137 H 499.119 -1.18982 -4.04254 0
M  V30 5138 H 497.843 -0.225965 -3.25817 0
M  V30 5139 H 496.502 -2.31723 -2.84078 0
M  V30 5140 H 496.15 -0.990641 -4.93148 0
M  V30 5141 H 495.85 -2.7251 -5.20588 0
M  V30 5142 H 497.374 -1.98578 -5.77407 0
M  V30 5143 H 498.788 -3.7467 -4.3393 0
M  V30 5144 H 497.185 -4.46557 -4.00883 0
M  V30 5145 H 498.255 -4.05719 -2.65556 0
M  V30 5146 N 499.598 0.982988 -1.23187 0
M  V30 5147 C 500.545 2.07491 -1.01075 0
M  V30 5148 C 501.515 1.65949 0.070905 0
M  V30 5149 O 502.7 1.90629 -0.0806822 0
M  V30 5150 C 499.84 3.39751 -0.605261 0
M  V30 5151 C 498.953 3.94578 -1.75876 0
M  V30 5152 C 498.088 5.15039 -1.3003 0
M  V30 5153 C 497.127 5.62027 -2.42472 0
M  V30 5154 N 496.264 6.73719 -1.97602 0
M  V30 5155 H 501.104 2.25739 -1.9454 0
M  V30 5156 H 498.641 1.10659 -0.969179 0
M  V30 5157 H 500.599 4.15719 -0.351279 0
M  V30 5158 H 499.229 3.21473 0.292382 0
M  V30 5159 H 498.281 3.1539 -2.12681 0
M  V30 5160 H 499.593 4.25422 -2.60418 0
M  V30 5161 H 498.747 5.9833 -1.00429 0
M  V30 5162 H 497.486 4.85843 -0.425216 0
M  V30 5163 H 496.491 4.77318 -2.7285 0
M  V30 5164 H 497.716 5.93244 -3.30512 0
M  V30 5165 H 495.662 6.46287 -1.1247 0
M  V30 5166 H 495.579 7.03934 -2.75705 0
M  V30 5167 H 496.847 7.6049 -1.71098 0
M  V30 5168 N 501.076 1.04316 1.18135 0
M  V30 5169 C 502.024 0.630175 2.23901 0
M  V30 5170 C 503.018 -0.344254 1.65865 0
M  V30 5171 O 504.224 -0.211273 1.78756 0
M  V30 5172 H 500.599 0.185578 0.728742 0
M  V30 5173 H 502.57 1.53253 2.56039 0
M  V30 5174 C 501.319 0.011666 3.47698 0
M  V30 5175 H 500.642 0.752526 3.92654 0
M  V30 5176 H 502.082 -0.240046 4.2332 0
M  V30 5177 C 500.541 -1.23913 3.13285 0
M  V30 5178 O 501.071 -2.32959 3.27251 0
M  V30 5179 N 499.277 -1.13338 2.67587 0
M  V30 5180 H 498.824 -0.246006 2.56423 0
M  V30 5181 H 498.782 -1.97116 2.44934 0
M  V30 5182 N 502.554 -1.34406 0.822964 0
M  V30 5183 C 503.801 -1.98284 0.411057 0
M  V30 5184 C 504.129 -1.65245 -1.02588 0
M  V30 5185 O 503.384 -0.91619 -1.72929 0
M  V30 5186 C 503.683 -3.52981 0.560268 0
M  V30 5187 C 503.349 -4.05931 1.96293 0
M  V30 5188 C 502.011 -4.20103 2.34664 0
M  V30 5189 C 504.363 -4.34412 2.87985 0
M  V30 5190 C 501.691 -4.60082 3.64062 0
M  V30 5191 C 504.043 -4.75838 4.16847 0
M  V30 5192 C 502.707 -4.88215 4.55195 0
M  V30 5193 H 501.977 -0.725573 0.150416 0
M  V30 5194 H 504.624 -1.60349 1.04692 0
M  V30 5195 H 502.929 -3.91477 -0.158982 0
M  V30 5196 H 504.626 -4.00385 0.222087 0
M  V30 5197 H 501.216 -3.95363 1.65487 0
M  V30 5198 H 505.4 -4.23001 2.59584 0
M  V30 5199 H 500.656 -4.67856 3.93599 0
M  V30 5200 H 504.83 -4.96834 4.87984 0
M  V30 5201 H 502.457 -5.18952 5.55512 0
M  V30 5202 N 504.032 -0.577932 -1.46621 0
M  V30 5203 C 505.272 -0.0643097 -2.04299 0
M  V30 5204 C 505.636 1.26967 -1.44026 0
M  V30 5205 O 506.837 1.87224 -1.92875 0
M  V30 5206 C 505.108 0.00547588 -3.574 0
M  V30 5207 S 506.667 0.462216 -4.36359 0
M  V30 5208 H 503.485 -0.0351573 -0.71013 0
M  V30 5209 H 506.087 -0.76935 -1.79725 0
M  V30 5210 H 504.791 -0.969423 -3.98786 0
M  V30 5211 H 504.322 0.733435 -3.86503 0
M  V30 5212 H 506.337 1.71791 -4.65513 0
M  V30 5213 N 505.51 1.54411 -0.315457 0
M  V30 5214 C 506.457 2.24048 0.554166 0
M  V30 5215 C 507.427 1.2283 1.11812 0
M  V30 5216 O 508.612 1.51491 1.15997 0
M  V30 5217 C 505.752 2.99574 1.71316 0
M  V30 5218 C 504.865 4.15594 1.17922 0
M  V30 5219 C 504 4.78669 2.30324 0
M  V30 5220 C 503.039 5.86807 1.74137 0
M  V30 5221 N 502.176 6.43777 2.8017 0
M  V30 5222 H 507.016 2.97964 -0.0462602 0
M  V30 5223 H 504.553 1.47059 -0.0346009 0
M  V30 5224 H 506.511 3.41604 2.39505 0
M  V30 5225 H 505.141 2.28008 2.285 0
M  V30 5226 H 504.193 3.78404 0.389136 0
M  V30 5227 H 505.505 4.93459 0.728012 0
M  V30 5228 H 504.659 5.23626 3.06433 0
M  V30 5229 H 503.398 4.00168 2.78778 0
M  V30 5230 H 502.403 5.41261 0.965236 0
M  V30 5231 H 503.628 6.67201 1.2657 0
M  V30 5232 H 501.574 5.68153 3.2793 0
M  V30 5233 H 501.491 7.17031 2.39588 0
M  V30 5234 H 502.759 6.9339 3.56132 0
M  V30 5235 N 506.988 0.0434614 1.5754 0
M  V30 5236 C 508.234 -0.627109 1.93491 0
M  V30 5237 C 508.589 -1.68904 0.921362 0
M  V30 5238 O 507.882 -1.91504 -0.0605799 0
M  V30 5239 C 508.076 -1.2738 3.3393 0
M  V30 5240 C 507.905 -0.27603 4.48852 0
M  V30 5241 C 506.675 0.129244 5.05135 0
M  V30 5242 C 508.873 0.475462 5.12098 0
M  V30 5243 N 506.855 1.12068 6.03584 0
M  V30 5244 C 508.226 1.32021 6.05781 0
M  V30 5245 C 510.281 0.534611 4.95022 0
M  V30 5246 C 508.984 2.2188 6.84223 0
M  V30 5247 C 511.01 1.42059 5.74085 0
M  V30 5248 C 510.372 2.25309 6.67394 0
M  V30 5249 H 506.471 -0.201354 0.755633 0
M  V30 5250 H 509.055 0.113991 1.94366 0
M  V30 5251 H 507.226 -1.98496 3.33847 0
M  V30 5252 H 508.958 -1.90255 3.57191 0
M  V30 5253 H 505.713 -0.248145 4.72949 0
M  V30 5254 H 506.137 1.61306 6.57502 0
M  V30 5255 H 510.779 -0.0947817 4.22694 0
M  V30 5256 H 508.497 2.85868 7.55847 0
M  V30 5257 H 512.083 1.47083 5.62901 0
M  V30 5258 H 510.963 2.92754 7.27506 0
M  V30 5259 N 508.466 -1.55915 -0.229846 0
M  V30 5260 C 509.398 -1.88209 -1.30805 0
M  V30 5261 C 510.411 -0.769672 -1.43457 0
M  V30 5262 O 511.6 -1.04792 -1.44502 0
M  V30 5263 C 508.7 -2.06829 -2.68468 0
M  V30 5264 C 507.873 -3.37798 -2.77869 0
M  V30 5265 C 506.932 -3.45952 -3.96489 0
M  V30 5266 O 505.958 -4.19043 -3.85216 0
M  V30 5267 N 507.16 -2.76488 -5.10426 0
M  V30 5268 H 509.925 -2.81286 -1.03431 0
M  V30 5269 H 507.486 -1.5636 -0.41991 0
M  V30 5270 H 509.478 -2.09608 -3.46189 0
M  V30 5271 H 508.048 -1.20416 -2.88477 0
M  V30 5272 H 507.268 -3.4719 -1.86689 0
M  V30 5273 H 508.556 -4.24091 -2.81113 0
M  V30 5274 H 507.954 -2.16868 -5.2248 0
M  V30 5275 H 506.511 -2.84938 -5.8622 0
M  V30 5276 N 509.944 0.496216 -1.49584 0
M  V30 5277 C 510.894 1.59422 -1.62999 0
M  V30 5278 C 511.878 1.53402 -0.485457 0
M  V30 5279 O 513.07 1.60851 -0.738649 0
M  V30 5280 C 510.199 2.98009 -1.70427 0
M  V30 5281 C 509.285 3.09008 -2.90473 0
M  V30 5282 N 509.676 2.89884 -4.14489 0
M  V30 5283 C 507.974 3.40115 -2.8851 0
M  V30 5284 C 508.675 3.0519 -4.95211 0
M  V30 5285 N 507.651 3.3428 -4.2867 0
M  V30 5286 H 511.453 1.43297 -2.56599 0
M  V30 5287 H 508.967 0.702443 -1.46422 0
M  V30 5288 H 510.964 3.76926 -1.78136 0
M  V30 5289 H 509.624 3.152 -0.77967 0
M  V30 5290 H 510.635 2.65963 -4.44392 0
M  V30 5291 H 507.312 3.63452 -2.05448 0
M  V30 5292 H 508.702 2.94856 -6.03746 0
M  V30 5293 N 511.423 1.38739 0.74761 0
M  V30 5294 C 512.355 1.32341 1.87132 0
M  V30 5295 C 513.368 0.234502 1.61102 0
M  V30 5296 O 514.557 0.492516 1.71571 0
M  V30 5297 C 511.657 1.02915 3.22896 0
M  V30 5298 C 510.83 2.22834 3.76383 0
M  V30 5299 C 509.889 1.90059 4.90677 0
M  V30 5300 O 508.915 2.62615 5.04997 0
M  V30 5301 N 510.117 0.859141 5.74107 0
M  V30 5302 H 512.882 2.29175 1.93129 0
M  V30 5303 H 510.443 1.32678 0.927805 0
M  V30 5304 H 512.435 0.79031 3.96908 0
M  V30 5305 H 511.005 0.148572 3.12247 0
M  V30 5306 H 510.225 2.62747 2.93867 0
M  V30 5307 H 511.513 3.02851 4.08851 0
M  V30 5308 H 510.911 0.257564 5.65113 0
M  V30 5309 H 509.468 0.680189 6.48241 0
M  V30 5310 N 512.901 -0.976442 1.23707 0
M  V30 5311 C 513.851 -2.0544 0.988851 0
M  V30 5312 C 514.835 -1.60762 -0.0665901 0
M  V30 5313 O 516.027 -1.76396 0.14604 0
M  V30 5314 C 513.156 -3.38258 0.586223 0
M  V30 5315 C 512.242 -3.89523 1.67728 0
M  V30 5316 N 512.633 -4.13823 2.90834 0
M  V30 5317 C 510.931 -4.18097 1.55277 0
M  V30 5318 C 511.632 -4.55731 3.61502 0
M  V30 5319 N 510.608 -4.60394 2.8903 0
M  V30 5320 H 514.41 -2.22191 1.92376 0
M  V30 5321 H 511.924 -1.15954 1.13704 0
M  V30 5322 H 513.921 -4.15075 0.389658 0
M  V30 5323 H 512.581 -3.22898 -0.341594 0
M  V30 5324 H 513.592 -4.01529 3.271 0
M  V30 5325 H 510.269 -4.11719 0.692351 0
M  V30 5326 H 511.659 -4.83018 4.67059 0
M  V30 5327 N 514.379 -1.04941 -1.1758 0
M  V30 5328 C 515.327 -0.64204 -2.23563 0
M  V30 5329 C 516.321 0.335453 -1.66045 0
M  V30 5330 O 517.527 0.20179 -1.78865 0
M  V30 5331 H 513.902 -0.18944 -0.727748 0
M  V30 5332 H 515.873 -1.54609 -2.55223 0
M  V30 5333 C 514.622 -0.0301051 -3.47687 0
M  V30 5334 H 513.945 -0.773339 -3.92249 0
M  V30 5335 H 515.385 0.217592 -4.23441 0
M  V30 5336 C 513.844 1.2225 -3.13937 0
M  V30 5337 O 514.374 2.3122 -3.28482 0
M  V30 5338 N 512.58 1.11917 -2.68185 0
M  V30 5339 H 512.127 0.232403 -2.5655 0
M  V30 5340 H 512.085 1.95814 -2.45976 0
M  V30 5341 N 515.857 1.33968 -0.830081 0
M  V30 5342 C 516.789 2.28194 -0.21448 0
M  V30 5343 C 517.802 1.5135 0.599752 0
M  V30 5344 O 518.991 1.73286 0.42826 0
M  V30 5345 C 516.091 3.31221 0.717356 0
M  V30 5346 C 515.264 4.37365 -0.055613 0
M  V30 5347 C 514.323 5.2011 0.798231 0
M  V30 5348 O 513.349 5.68691 0.240616 0
M  V30 5349 N 514.551 5.40523 2.11695 0
M  V30 5350 H 517.316 2.81662 -1.02405 0
M  V30 5351 H 514.877 1.46568 -0.687713 0
M  V30 5352 H 516.869 3.83477 1.29334 0
M  V30 5353 H 515.439 2.78095 1.42765 0
M  V30 5354 H 514.659 3.85727 -0.812936 0
M  V30 5355 H 515.947 5.05397 -0.587444 0
M  V30 5356 H 515.345 5.0274 2.59363 0
M  V30 5357 H 513.902 5.95871 2.64162 0
M  V30 5358 N 517.335 0.585699 1.46312 0
M  V30 5359 C 518.265 -0.133556 2.33118 0
M  V30 5360 C 519.246 -0.880707 1.45525 0
M  V30 5361 O 520.431 -0.855579 1.74337 0
M  V30 5362 C 517.561 -1.14585 3.27853 0
M  V30 5363 C 516.515 -0.513341 4.2491 0
M  V30 5364 C 515.841 -1.63231 5.09175 0
M  V30 5365 C 517.141 0.551413 5.19381 0
M  V30 5366 H 518.835 0.59121 2.93505 0
M  V30 5367 H 516.381 0.285761 1.41136 0
M  V30 5368 H 518.334 -1.65741 3.87438 0
M  V30 5369 H 517.058 -1.90093 2.65579 0
M  V30 5370 H 515.717 -0.0228349 3.66593 0
M  V30 5371 H 515.365 -2.37713 4.43285 0
M  V30 5372 H 515.065 -1.21473 5.74907 0
M  V30 5373 H 516.589 -2.14658 5.71624 0
M  V30 5374 H 518.003 0.124804 5.73164 0
M  V30 5375 H 516.4 0.889486 5.93471 0
M  V30 5376 H 517.47 1.43655 4.63132 0
M  V30 5377 N 518.813 -1.54241 0.323641 0
M  V30 5378 C 520.061 -2.00174 -0.278359 0
M  V30 5379 C 520.382 -1.2134 -1.52648 0
M  V30 5380 O 519.652 -0.315244 -1.93347 0
M  V30 5381 H 518.232 -0.739463 -0.105845 0
M  V30 5382 H 520.894 -1.89864 0.440204 0
M  V30 5383 H 519.99 -3.07486 -0.5347 0
M  V30 5384 N 520.291 -0.0518155 -1.57515 0
M  V30 5385 C 521.568 0.661727 -1.84067 0
M  V30 5386 C 521.948 1.88999 -0.940351 0
M  V30 5387 O 521.296 2.285 -0.00155404 0
M  V30 5388 C 521.506 1.01841 -3.3381 0
M  V30 5389 C 522.854 1.40043 -4.00841 0
M  V30 5390 O 523.878 1.11073 -3.38439 0
M  V30 5391 O 522.737 1.94111 -5.10865 0
M  V30 5392 H 519.831 0.326702 -0.759733 0
M  V30 5393 H 522.377 -0.0812277 -1.69505 0
M  V30 5394 H 521.149 0.145202 -3.91031 0
M  V30 5395 H 520.772 1.81879 -3.53562 0
M  V30 5396 N 521.769 1.56035 0.221574 0
M  V30 5397 C 523.046 1.69837 0.970301 0
M  V30 5398 C 523.426 0.599065 2.02421 0
M  V30 5399 O 522.774 -0.393929 2.25079 0
M  V30 5400 C 522.984 3.11148 1.58076 0
M  V30 5401 C 524.332 3.70555 2.07302 0
M  V30 5402 O 525.356 3.14109 1.6797 0
M  V30 5403 O 524.215 4.69562 2.79596 0
M  V30 5404 H 521.309 0.691727 0.453257 0
M  V30 5405 H 523.855 1.68353 0.213358 0
M  V30 5406 H 522.627 3.82617 0.819759 0
M  V30 5407 H 522.25 3.16749 2.40324 0
M  V30 5408 N 523.247 -0.488276 1.49845 0
M  V30 5409 C 524.197 -1.58556 1.63842 0
M  V30 5410 C 525.181 -1.53142 0.493586 0
M  V30 5411 O 526.373 -1.60457 0.747169 0
M  V30 5412 C 523.502 -2.97101 1.72005 0
M  V30 5413 C 522.588 -3.07463 2.92108 0
M  V30 5414 N 522.979 -2.87681 4.16021 0
M  V30 5415 C 521.277 -3.3858 2.90309 0
M  V30 5416 C 521.978 -3.0256 4.96822 0
M  V30 5417 N 520.954 -3.32002 4.30437 0
M  V30 5418 H 524.756 -1.41935 2.57355 0
M  V30 5419 H 522.27 -0.694668 1.46793 0
M  V30 5420 H 524.267 -3.75976 1.80132 0
M  V30 5421 H 522.927 -3.14782 0.796375 0
M  V30 5422 H 523.938 -2.63603 4.45796 0
M  V30 5423 H 520.615 -3.62357 2.07372 0
M  V30 5424 H 522.005 -2.9165 6.05301 0
M  V30 5425 N 524.725 -1.39134 -0.740242 0
M  V30 5426 C 525.635 -1.39697 -1.88473 0
M  V30 5427 C 526.651 -0.292403 -1.71526 0
M  V30 5428 O 527.827 -0.533021 -1.94219 0
M  V30 5429 C 524.892 -1.23382 -3.24003 0
M  V30 5430 C 523.953 -2.43763 -3.53381 0
M  V30 5431 C 523.186 -2.28216 -4.82445 0
M  V30 5432 O 523.409 -1.28288 -5.55786 0
M  V30 5433 O 522.343 -3.1709 -5.11603 0
M  V30 5434 H 526.169 -2.36159 -1.90952 0
M  V30 5435 H 523.754 -1.20194 -0.887346 0
M  V30 5436 H 525.636 -1.16395 -4.05006 0
M  V30 5437 H 524.311 -0.300121 -3.22306 0
M  V30 5438 H 523.218 -2.56325 -2.72485 0
M  V30 5439 H 524.551 -3.35808 -3.59852 0
M  V30 5440 N 526.204 0.969867 -1.24223 0
M  V30 5441 C 527.114 2.09806 -1.0497 0
M  V30 5442 C 528.13 1.73998 0.00886455 0
M  V30 5443 O 529.306 2.00513 -0.188848 0
M  V30 5444 C 526.371 3.40467 -0.654452 0
M  V30 5445 C 525.432 3.90236 -1.78926 0
M  V30 5446 C 524.665 5.14662 -1.41277 0
M  V30 5447 O 524.888 5.69602 -0.301632 0
M  V30 5448 O 523.822 5.58761 -2.23763 0
M  V30 5449 H 527.648 2.28942 -1.99548 0
M  V30 5450 H 525.233 1.08197 -1.03023 0
M  V30 5451 H 527.115 4.19039 -0.445452 0
M  V30 5452 H 525.79 3.22636 0.262216 0
M  V30 5453 H 524.697 3.12735 -2.05299 0
M  V30 5454 H 526.03 4.1254 -2.68462 0
M  V30 5455 N 527.682 1.05563 1.17022 0
M  V30 5456 C 528.632 0.630007 2.19123 0
M  V30 5457 C 529.616 -0.335472 1.57364 0
M  V30 5458 O 530.808 -0.1521 1.76345 0
M  V30 5459 C 527.937 0.0101676 3.43298 0
M  V30 5460 C 527.023 0.999698 4.12149 0
M  V30 5461 N 527.414 2.17251 4.56766 0
M  V30 5462 C 525.712 0.829 4.38228 0
M  V30 5463 C 526.413 2.79883 5.09942 0
M  V30 5464 N 525.389 2.07656 5.02374 0
M  V30 5465 H 529.191 1.52353 2.51328 0
M  V30 5466 H 526.705 0.926288 1.33393 0
M  V30 5467 H 528.702 -0.312541 4.15727 0
M  V30 5468 H 527.362 -0.878707 3.12584 0
M  V30 5469 H 528.373 2.55067 4.50734 0
M  V30 5470 H 525.05 -0.00850974 4.17499 0
M  V30 5471 H 526.44 3.79362 5.54558 0
M  V30 5472 N 529.16 -1.33526 0.837174 0
M  V30 5473 C 530.39 -2.01754 0.444848 0
M  V30 5474 C 530.798 -1.63149 -0.958072 0
M  V30 5475 O 530.141 -0.839827 -1.63379 0
M  V30 5476 C 530.203 -3.56228 0.483917 0
M  V30 5477 C 529.867 -4.18205 1.84265 0
M  V30 5478 C 530.864 -4.37699 2.80563 0
M  V30 5479 C 528.549 -4.54667 2.13503 0
M  V30 5480 C 530.543 -4.928 4.04261 0
M  V30 5481 C 528.23 -5.09475 3.37458 0
M  V30 5482 C 529.228 -5.28488 4.32654 0
M  V30 5483 O 528.916 -5.82132 5.54417 0
M  V30 5484 H 528.648 -0.652928 0.175104 0
M  V30 5485 H 531.202 -1.71469 1.13082 0
M  V30 5486 H 529.432 -3.85833 -0.258826 0
M  V30 5487 H 531.121 -4.05752 0.109653 0
M  V30 5488 H 531.887 -4.0988 2.59274 0
M  V30 5489 H 527.766 -4.39164 1.40201 0
M  V30 5490 H 531.31 -5.07555 4.78574 0
M  V30 5491 H 527.207 -5.36725 3.58604 0
M  V30 5492 H 527.975 -6.00548 5.56133 0
M  V30 5493 N 530.638 -0.59345 -1.46 0
M  V30 5494 C 531.915 -0.0157933 -1.95594 0
M  V30 5495 C 532.295 1.44807 -1.53604 0
M  V30 5496 O 531.643 2.14342 -0.791824 0
M  V30 5497 C 531.853 -0.199081 -3.48432 0
M  V30 5498 C 533.201 -0.0724943 -4.24538 0
M  V30 5499 O 534.225 -0.128469 -3.55968 0
M  V30 5500 O 533.084 0.0542426 -5.46473 0
M  V30 5501 H 530.178 0.043749 -0.825842 0
M  V30 5502 H 532.724 -0.662522 -1.56233 0
M  V30 5503 H 531.496 -1.21631 -3.71916 0
M  V30 5504 H 531.119 0.483576 -3.94648 0
M  V30 5505 N 532.116 1.54067 -0.331816 0
M  V30 5506 C 533.079 2.23275 0.517768 0
M  V30 5507 C 534.079 1.22897 1.03697 0
M  V30 5508 O 535.269 1.47419 0.928084 0
M  V30 5509 C 532.401 2.94326 1.72004 0
M  V30 5510 H 533.594 2.99773 -0.0873507 0
M  V30 5511 H 531.147 1.56079 -0.0830042 0
M  V30 5512 H 531.882 2.21986 2.36417 0
M  V30 5513 H 531.667 3.67941 1.35507 0
M  V30 5514 H 533.157 3.47031 2.32291 0
M  V30 5515 N 533.594 0.0601682 1.57485 0
M  V30 5516 C 534.557 -0.896373 2.10945 0
M  V30 5517 C 535.557 -1.23402 1.03095 0
M  V30 5518 O 536.747 -1.16921 1.29132 0
M  V30 5519 C 533.879 -2.20346 2.60116 0
M  V30 5520 H 535.072 -0.432778 2.96761 0
M  V30 5521 H 532.625 -0.188372 1.55161 0
M  V30 5522 H 533.36 -2.71268 1.7772 0
M  V30 5523 H 533.145 -1.9714 3.38937 0
M  V30 5524 H 534.635 -2.88846 3.01592 0
M  V30 5525 N 535.072 -1.5615 -0.213296 0
M  V30 5526 C 536.321 -1.78743 -0.93455 0
M  V30 5527 C 536.634 -0.630199 -1.8517 0
M  V30 5528 O 537.84 -0.739966 -2.61222 0
M  V30 5529 C 536.296 -3.16571 -1.71203 0
M  V30 5530 C 535.904 -4.40043 -0.840617 0
M  V30 5531 C 537.648 -3.48485 -2.42401 0
M  V30 5532 C 535.555 -5.68895 -1.61592 0
M  V30 5533 H 534.485 -0.666426 -0.352692 0
M  V30 5534 H 537.136 -1.82532 -0.188227 0
M  V30 5535 H 535.518 -3.06981 -2.50157 0
M  V30 5536 H 536.692 -4.6071 -0.0910326 0
M  V30 5537 H 535.007 -4.15706 -0.240365 0
M  V30 5538 H 537.604 -4.41983 -3.00924 0
M  V30 5539 H 537.947 -2.71371 -3.15695 0
M  V30 5540 H 538.48 -3.59442 -1.7043 0
M  V30 5541 H 535.219 -6.48925 -0.926106 0
M  V30 5542 H 534.739 -5.52275 -2.33991 0
M  V30 5543 H 536.418 -6.09365 -2.17447 0
M  V30 5544 N 536.55 0.480323 -1.50102 0
M  V30 5545 C 537.48 1.58769 -1.71215 0
M  V30 5546 C 538.461 1.60583 -0.560997 0
M  V30 5547 O 539.646 1.76996 -0.799127 0
M  V30 5548 C 536.776 2.97148 -1.79778 0
M  V30 5549 C 535.73 3.10201 -2.94888 0
M  V30 5550 C 535.056 4.50137 -2.88584 0
M  V30 5551 C 536.356 2.88283 -4.35534 0
M  V30 5552 H 538.05 1.41354 -2.6393 0
M  V30 5553 H 535.596 0.678591 -1.27008 0
M  V30 5554 H 537.549 3.74536 -1.93133 0
M  V30 5555 H 536.273 3.15699 -0.836772 0
M  V30 5556 H 534.932 2.35244 -2.81169 0
M  V30 5557 H 534.58 4.65593 -1.90349 0
M  V30 5558 H 534.28 4.59808 -3.65856 0
M  V30 5559 H 535.804 5.29558 -3.03976 0
M  V30 5560 H 537.218 3.55427 -4.49827 0
M  V30 5561 H 535.615 3.09408 -5.14186 0
M  V30 5562 H 536.685 1.84219 -4.48544 0
M  V30 5563 N 538.028 1.39524 0.732853 0
M  V30 5564 C 539.275 1.36865 1.49246 0
M  V30 5565 C 539.603 -0.0347118 1.94469 0
M  V30 5566 O 538.858 -1.01596 1.67262 0
M  V30 5567 C 539.157 2.28916 2.74468 0
M  V30 5568 C 538.823 3.76506 2.481 0
M  V30 5569 C 537.485 4.16721 2.40619 0
M  V30 5570 C 539.837 4.69846 2.25598 0
M  V30 5571 C 537.165 5.48334 2.08679 0
M  V30 5572 C 539.517 6.01739 1.95174 0
M  V30 5573 C 538.181 6.41015 1.86163 0
M  V30 5574 H 537.451 0.500824 0.546129 0
M  V30 5575 H 540.098 1.72047 0.840958 0
M  V30 5576 H 538.403 1.86859 3.4437 0
M  V30 5577 H 540.1 2.2415 3.32502 0
M  V30 5578 H 536.69 3.44635 2.54803 0
M  V30 5579 H 540.874 4.39608 2.30344 0
M  V30 5580 H 536.13 5.77685 2.00226 0
M  V30 5581 H 540.304 6.73591 1.76771 0
M  V30 5582 H 537.931 7.42917 1.61179 0
M  V30 5583 N 539.506 -0.963266 1.24736 0
M  V30 5584 C 540.734 -1.74166 1.11686 0
M  V30 5585 C 541.149 -1.8589 -0.330187 0
M  V30 5586 O 540.506 -1.35042 -1.2276 0
M  V30 5587 C 540.557 -3.15989 1.75595 0
M  V30 5588 O 540.278 -3.04847 3.14642 0
M  V30 5589 C 541.779 -4.10145 1.68213 0
M  V30 5590 H 538.999 -0.546031 0.389989 0
M  V30 5591 H 541.543 -1.20907 1.64929 0
M  V30 5592 H 539.698 -3.66219 1.26343 0
M  V30 5593 H 540.112 -3.9425 3.4593 0
M  V30 5594 H 541.586 -5.07299 2.17604 0
M  V30 5595 H 542.063 -4.3445 0.644208 0
M  V30 5596 H 542.669 -3.65827 2.16912 0
M  V30 5597 N 540.985 -1.06182 -1.16461 0
M  V30 5598 C 542.401 -0.785065 -1.38956 0
M  V30 5599 C 542.601 0.616103 -1.9185 0
M  V30 5600 O 541.657 1.37686 -2.11657 0
M  V30 5601 C 542.97 -1.84902 -2.37132 0
M  V30 5602 C 544.518 -1.8724 -2.50819 0
M  V30 5603 C 544.993 -2.92686 -3.52277 0
M  V30 5604 N 546.484 -2.91712 -3.59803 0
M  V30 5605 C 547.219 -3.69949 -4.38093 0
M  V30 5606 N 546.715 -4.58 -5.19815 0
M  V30 5607 N 548.508 -3.58346 -4.33064 0
M  V30 5608 H 540.659 -1.96569 -0.804634 0
M  V30 5609 H 542.922 -0.851747 -0.416211 0
M  V30 5610 H 542.628 -2.85518 -2.0536 0
M  V30 5611 H 542.502 -1.69908 -3.36766 0
M  V30 5612 H 544.889 -0.872827 -2.81897 0
M  V30 5613 H 544.97 -2.06311 -1.51226 0
M  V30 5614 H 544.614 -3.92835 -3.21937 0
M  V30 5615 H 544.544 -2.70864 -4.51598 0
M  V30 5616 H 547.035 -2.27876 -3.01464 0
M  V30 5617 H 547.348 -5.14357 -5.76764 0
M  V30 5618 H 545.693 -4.62056 -5.19162 0
M  V30 5619 H 548.884 -2.88943 -3.68279 0
M  V30 5620 H 549.057 -4.19563 -4.93833 0
M  V30 5621 N 542.463 1.3308 -0.844243 0
M  V30 5622 C 543.373 2.32876 -0.283922 0
M  V30 5623 C 544.389 1.63589 0.592846 0
M  V30 5624 O 545.565 1.95205 0.495693 0
M  V30 5625 C 542.63 3.42667 0.527283 0
M  V30 5626 C 541.691 4.27664 -0.374394 0
M  V30 5627 C 540.924 5.32212 0.39819 0
M  V30 5628 O 541.147 5.46635 1.62932 0
M  V30 5629 O 540.081 6.01458 -0.2306 0
M  V30 5630 H 543.907 2.82671 -1.11045 0
M  V30 5631 H 541.492 1.36518 -0.606903 0
M  V30 5632 H 543.374 4.09652 0.988078 0
M  V30 5633 H 542.049 2.95079 1.33078 0
M  V30 5634 H 540.956 3.63526 -0.883144 0
M  V30 5635 H 542.289 4.78749 -1.1428 0
M  V30 5636 N 543.941 0.601185 1.45683 0
M  V30 5637 C 545.218 0.0261659 1.95582 0
M  V30 5638 C 545.598 -1.4399 1.5437 0
M  V30 5639 O 544.946 -2.13919 0.80318 0
M  V30 5640 C 545.156 0.217557 3.48321 0
M  V30 5641 C 546.504 0.0950076 4.24494 0
M  V30 5642 O 547.528 0.147345 3.55895 0
M  V30 5643 O 546.387 -0.025261 5.46494 0
M  V30 5644 H 543.481 -0.0393688 0.826062 0
M  V30 5645 H 546.027 0.670798 1.55879 0
M  V30 5646 H 544.799 1.23601 3.71266 0
M  V30 5647 H 544.422 -0.46264 3.94899 0
M  V30 5648 N 545.419 -1.53889 0.339982 0
M  V30 5649 C 546.349 -2.27843 -0.510856 0
M  V30 5650 C 547.33 -1.29267 -1.10563 0
M  V30 5651 O 548.515 -1.58104 -1.12768 0
M  V30 5652 C 545.645 -3.04857 -1.66372 0
M  V30 5653 C 544.599 -4.10907 -1.19746 0
M  V30 5654 C 543.925 -4.75855 -2.43857 0
M  V30 5655 C 545.225 -5.21435 -0.300501 0
M  V30 5656 H 546.919 -2.99212 0.106067 0
M  V30 5657 H 544.465 -1.43904 0.0524533 0
M  V30 5658 H 546.418 -3.5533 -2.26537 0
M  V30 5659 H 545.142 -2.31133 -2.30749 0
M  V30 5660 H 543.801 -3.61342 -0.618654 0
M  V30 5661 H 543.449 -3.9873 -3.06633 0
M  V30 5662 H 543.149 -5.47502 -2.13343 0
M  V30 5663 H 544.673 -5.2911 -3.04754 0
M  V30 5664 H 546.087 -5.67565 -0.80889 0
M  V30 5665 H 544.484 -6.00036 -0.0874076 0
M  V30 5666 H 545.554 -4.80328 0.664321 0
M  V30 5667 N 546.897 -0.0685191 -1.57451 0
M  V30 5668 C 548.137 0.605038 -1.9524 0
M  V30 5669 C 548.501 1.66974 -0.947816 0
M  V30 5670 O 549.702 2.39862 -1.21325 0
M  V30 5671 C 547.973 1.16999 -3.37707 0
M  V30 5672 S 549.532 1.85913 -3.97469 0
M  V30 5673 H 546.35 0.198203 -0.682815 0
M  V30 5674 H 548.952 -0.141594 -1.94987 0
M  V30 5675 H 547.656 0.383205 -4.08607 0
M  V30 5676 H 547.187 1.95305 -3.41496 0
M  V30 5677 H 549.202 3.14128 -3.84107 0
M  V30 5678 N 548.375 1.56261 0.205012 0
M  V30 5679 C 549.623 1.79684 0.925096 0
M  V30 5680 C 549.944 0.63989 1.84202 0
M  V30 5681 O 549.214 -0.342345 1.92885 0
M  V30 5682 H 547.794 0.662774 0.344587 0
M  V30 5683 H 550.456 1.93734 0.212899 0
M  V30 5684 H 549.552 2.72467 1.52211 0
M  V30 5685 N 549.853 -0.472356 1.50355 0
M  V30 5686 C 550.803 -1.56809 1.65514 0
M  V30 5687 C 551.787 -1.5261 0.509801 0
M  V30 5688 O 552.979 -1.59655 0.764145 0
M  V30 5689 C 550.108 -2.9526 1.75146 0
M  V30 5690 C 549.194 -3.04348 2.95353 0
M  V30 5691 N 549.585 -2.83253 4.19048 0
M  V30 5692 C 547.883 -3.35482 2.93884 0
M  V30 5693 C 548.584 -2.97273 5.00003 0
M  V30 5694 N 547.56 -3.27418 4.33934 0
M  V30 5695 H 551.362 -1.39197 2.58846 0
M  V30 5696 H 548.876 -0.67906 1.47521 0
M  V30 5697 H 550.873 -3.74044 1.8411 0
M  V30 5698 H 549.533 -3.1392 0.829717 0
M  V30 5699 H 550.544 -2.5886 4.48567 0
M  V30 5700 H 547.221 -3.60138 2.11204 0
M  V30 5701 H 548.611 -2.85214 6.08361 0
M  V30 5702 N 551.331 -1.39911 -0.725443 0
M  V30 5703 C 552.281 -1.35878 -1.83088 0
M  V30 5704 C 553.265 -0.237989 -1.5913 0
M  V30 5705 O 554.457 -0.476302 -1.70471 0
M  V30 5706 C 551.586 -1.21403 -3.21117 0
M  V30 5707 C 550.672 -2.38223 -3.50871 0
M  V30 5708 N 551.063 -3.63703 -3.51502 0
M  V30 5709 C 549.361 -2.31388 -3.81281 0
M  V30 5710 C 550.062 -4.4101 -3.79322 0
M  V30 5711 N 549.038 -3.7072 -3.97577 0
M  V30 5712 H 552.84 -2.3085 -1.81895 0
M  V30 5713 H 550.354 -1.33543 -0.924125 0
M  V30 5714 H 552.351 -1.16597 -4.00263 0
M  V30 5715 H 551.011 -0.273902 -3.23543 0
M  V30 5716 H 552.022 -3.96998 -3.32586 0
M  V30 5717 H 548.699 -1.45689 -3.91256 0
M  V30 5718 H 550.089 -5.49819 -3.86198 0
M  V30 5719 N 552.809 0.956637 -1.25245 0
M  V30 5720 C 554.034 1.74104 -1.12706 0
M  V30 5721 C 554.459 1.85436 0.315429 0
M  V30 5722 O 553.817 1.33334 1.22848 0
M  V30 5723 C 553.865 3.1338 -1.78396 0
M  V30 5724 O 552.969 3.98485 -1.06224 0
M  V30 5725 H 552.31 0.53476 -0.393609 0
M  V30 5726 H 554.84 1.19924 -1.65769 0
M  V30 5727 H 554.85 3.6385 -1.846 0
M  V30 5728 H 553.525 3.04448 -2.83345 0
M  V30 5729 H 552.102 3.56952 -1.07886 0
M  V30 5730 N 554.287 1.06798 1.15896 0
M  V30 5731 C 555.527 0.797041 1.8822 0
M  V30 5732 C 555.891 -0.664549 1.80133 0
M  V30 5733 O 557.092 -1.0503 2.47431 0
M  V30 5734 C 555.363 1.28431 3.33527 0
M  V30 5735 S 556.922 1.14319 4.23647 0
M  V30 5736 H 553.74 0.288988 0.649621 0
M  V30 5737 H 556.342 1.36594 1.39865 0
M  V30 5738 H 555.046 2.34286 3.36954 0
M  V30 5739 H 554.577 0.710371 3.86933 0
M  V30 5740 H 556.592 0.0772467 4.9614 0
M  V30 5741 N 555.766 -1.3263 0.851289 0
M  V30 5742 C 557.043 -1.91982 0.374448 0
M  V30 5743 C 557.423 -1.77568 -1.14161 0
M  V30 5744 O 556.771 -1.1717 -1.96172 0
M  V30 5745 C 556.981 -3.38862 0.835088 0
M  V30 5746 C 558.329 -4.15999 0.850309 0
M  V30 5747 O 559.353 -3.47566 0.779505 0
M  V30 5748 O 558.212 -5.38189 0.949481 0
M  V30 5749 H 555.306 -0.819846 0.10854 0
M  V30 5750 H 557.852 -1.41422 0.937966 0
M  V30 5751 H 556.624 -3.43281 1.87814 0
M  V30 5752 H 556.247 -3.96821 0.248833 0
M  V30 5753 N 557.244 -0.608902 -1.45362 0
M  V30 5754 C 558.472 -0.111013 -2.06602 0
M  V30 5755 C 558.887 1.20516 -1.45332 0
M  V30 5756 O 558.244 1.73437 -0.567978 0
M  V30 5757 C 558.295 0.033688 -3.61484 0
M  V30 5758 O 558.016 -1.23041 -4.20467 0
M  V30 5759 C 559.517 0.562882 -4.39712 0
M  V30 5760 H 556.737 -0.0694453 -0.667397 0
M  V30 5761 H 559.281 -0.837008 -1.86586 0
M  V30 5762 H 557.436 0.710016 -3.80838 0
M  V30 5763 H 557.85 -1.06094 -5.13658 0
M  V30 5764 H 559.324 0.613213 -5.48583 0
M  V30 5765 H 559.801 1.58543 -4.09586 0
M  V30 5766 H 560.407 -0.0794454 -4.25226 0
M  V30 5767 N 558.722 1.53707 -0.348139 0
M  V30 5768 C 559.652 2.28111 0.498766 0
M  V30 5769 C 560.633 1.29851 1.09876 0
M  V30 5770 O 561.818 1.587 1.11928 0
M  V30 5771 C 558.948 3.05735 1.64753 0
M  V30 5772 C 557.902 4.11537 1.17565 0
M  V30 5773 C 557.228 4.77142 2.4133 0
M  V30 5774 C 558.528 5.21587 0.272844 0
M  V30 5775 H 560.222 2.99152 -0.121934 0
M  V30 5776 H 557.768 1.43875 -0.0600842 0
M  V30 5777 H 559.721 3.56526 2.24649 0
M  V30 5778 H 558.445 2.32354 2.2952 0
M  V30 5779 H 557.104 3.61665 0.599483 0
M  V30 5780 H 556.752 4.0035 3.04514 0
M  V30 5781 H 556.452 5.48626 2.10436 0
M  V30 5782 H 557.976 5.30719 3.01943 0
M  V30 5783 H 559.39 5.67986 0.778779 0
M  V30 5784 H 557.787 6.00074 0.0555849 0
M  V30 5785 H 558.857 4.79969 -0.689785 0
M  V30 5786 N 560.2 0.0768682 1.57412 0
M  V30 5787 C 561.448 -0.589918 1.93299 0
M  V30 5788 C 561.769 -1.69842 0.958049 0
M  V30 5789 O 561.039 -1.95899 0.00703261 0
M  V30 5790 H 559.619 -0.220901 0.713591 0
M  V30 5791 H 562.281 0.135917 1.94425 0
M  V30 5792 H 561.377 -1.01195 2.95239 0
M  V30 5793 N 561.678 -1.56367 -0.196722 0
M  V30 5794 C 562.611 -1.89475 -1.2718 0
M  V30 5795 C 563.589 -0.754667 -1.44026 0
M  V30 5796 O 564.773 -1.00551 -1.59442 0
M  V30 5797 C 561.9 -2.12352 -2.63864 0
M  V30 5798 C 560.946 -3.35053 -2.63897 0
M  V30 5799 S 561.779 -4.90228 -2.15492 0
M  V30 5800 C 562.935 -5.16171 -3.54004 0
M  V30 5801 H 563.168 -2.80365 -0.989075 0
M  V30 5802 H 560.701 -1.49125 -0.40014 0
M  V30 5803 H 562.659 -2.26214 -3.42545 0
M  V30 5804 H 561.32 -1.22214 -2.89349 0
M  V30 5805 H 560.513 -3.48182 -3.64397 0
M  V30 5806 H 560.115 -3.20176 -1.93296 0
M  V30 5807 H 562.407 -5.06591 -4.49857 0
M  V30 5808 H 563.35 -6.17938 -3.45771 0
M  V30 5809 H 563.758 -4.43814 -3.48841 0
M  V30 5810 N 563.156 0.464375 -1.50603 0
M  V30 5811 C 564.119 1.54393 -1.69397 0
M  V30 5812 C 565.119 1.50566 -0.564504 0
M  V30 5813 O 566.309 1.53066 -0.831645 0
M  V30 5814 C 563.441 2.9401 -1.72543 0
M  V30 5815 H 564.634 1.39044 -2.65719 0
M  V30 5816 H 562.187 0.69122 -1.40185 0
M  V30 5817 H 562.922 3.14795 -0.77938 0
M  V30 5818 H 562.707 2.98195 -2.54602 0
M  V30 5819 H 564.197 3.72375 -1.89015 0
M  V30 5820 N 564.634 1.40294 0.718013 0
M  V30 5821 C 565.911 1.2894 1.47084 0
M  V30 5822 C 566.291 -0.0933625 2.10893 0
M  V30 5823 O 565.639 -1.10598 1.99951 0
M  V30 5824 C 565.849 2.4264 2.50852 0
M  V30 5825 C 567.197 2.8276 3.16752 0
M  V30 5826 O 568.221 2.42215 2.61171 0
M  V30 5827 O 567.08 3.528 4.17366 0
M  V30 5828 H 564.174 0.506236 0.653952 0
M  V30 5829 H 566.72 1.52208 0.750394 0
M  V30 5830 H 565.492 3.35009 2.022 0
M  V30 5831 H 565.115 2.21129 3.30435 0
M  V30 5832 N 566.112 -0.949982 1.2575 0
M  V30 5833 C 567.358 -1.69766 1.10938 0
M  V30 5834 C 567.691 -1.91056 -0.348028 0
M  V30 5835 O 566.966 -1.48488 -1.25625 0
M  V30 5836 C 567.249 -3.07779 1.86933 0
M  V30 5837 C 567.102 -2.9387 3.4053 0
M  V30 5838 C 568.421 -4.07749 1.65616 0
M  V30 5839 H 565.54 -0.616144 0.404396 0
M  V30 5840 H 568.182 -1.10394 1.54639 0
M  V30 5841 H 566.332 -3.58462 1.4979 0
M  V30 5842 H 568.004 -2.50476 3.87375 0
M  V30 5843 H 566.247 -2.29686 3.68004 0
M  V30 5844 H 566.918 -3.91719 3.88922 0
M  V30 5845 H 569.394 -3.65994 1.97959 0
M  V30 5846 H 568.27 -5.02348 2.21218 0
M  V30 5847 H 568.531 -4.38029 0.598595 0
M  V30 5848 N 567.59 -1.07411 -1.15328 0
M  V30 5849 C 568.838 -0.796073 -1.85761 0
M  V30 5850 C 569.159 0.679864 -1.82764 0
M  V30 5851 O 568.429 1.49242 -1.269 0
M  V30 5852 H 567.009 -0.291495 -0.687779 0
M  V30 5853 H 569.671 -1.35799 -1.39802 0
M  V30 5854 H 568.767 -1.13114 -2.90881 0
M  V30 5855 N 569.068 1.32177 -0.85831 0
M  V30 5856 C 570.296 2.01313 -0.477582 0
M  V30 5857 C 570.711 1.6449 0.926736 0
M  V30 5858 O 570.068 0.868096 1.60531 0
M  V30 5859 C 570.119 3.56293 -0.611337 0
M  V30 5860 O 569.84 3.91794 -1.96034 0
M  V30 5861 C 571.341 4.42702 -0.230093 0
M  V30 5862 H 568.561 0.644323 -0.187322 0
M  V30 5863 H 571.105 1.68674 -1.15626 0
M  V30 5864 H 569.26 3.87395 0.0196494 0
M  V30 5865 H 569.674 4.86513 -1.95973 0
M  V30 5866 H 571.148 5.50727 -0.374674 0
M  V30 5867 H 571.625 4.3129 0.829779 0
M  V30 5868 H 572.231 4.16997 -0.836302 0
M  V30 5869 N 570.547 0.616602 1.45037 0
M  V30 5870 C 571.796 0.112861 2.01384 0
M  V30 5871 C 572.109 -1.26758 1.48969 0
M  V30 5872 O 573.315 -1.86454 1.9735 0
M  V30 5873 C 571.771 0.151057 3.59583 0
M  V30 5874 C 571.379 1.53191 4.20995 0
M  V30 5875 C 573.123 -0.296974 4.2346 0
M  V30 5876 C 571.03 1.526 5.71373 0
M  V30 5877 H 569.96 0.0384254 0.75302 0
M  V30 5878 H 572.611 0.773262 1.66412 0
M  V30 5879 H 570.993 -0.57617 3.91786 0
M  V30 5880 H 572.167 2.28156 4.00352 0
M  V30 5881 H 570.482 1.92279 3.69348 0
M  V30 5882 H 573.079 -0.320712 5.33737 0
M  V30 5883 H 573.422 -1.32145 3.9477 0
M  V30 5884 H 573.955 0.377279 3.96007 0
M  V30 5885 H 570.694 2.52837 6.04776 0
M  V30 5886 H 570.214 0.819064 5.94181 0
M  V30 5887 H 571.893 1.25357 6.3474 0
M  V30 5888 N 572.025 -1.5352 0.356285 0
M  V30 5889 C 573.265 -2.03027 -0.23649 0
M  V30 5890 C 573.629 -1.23813 -1.46746 0
M  V30 5891 O 574.83 -1.63281 -2.13525 0
M  V30 5892 C 573.101 -3.53442 -0.530415 0
M  V30 5893 S 574.66 -4.24836 -1.09819 0
M  V30 5894 H 571.478 -0.707591 -0.0695378 0
M  V30 5895 H 574.08 -1.89077 0.496999 0
M  V30 5896 H 572.784 -4.087 0.373114 0
M  V30 5897 H 572.315 -3.71536 -1.29323 0
M  V30 5898 H 574.33 -4.35228 -2.38309 0
M  V30 5899 N 573.503 -0.0852151 -1.57369 0
M  V30 5900 C 574.728 0.592872 -1.98746 0
M  V30 5901 C 575.153 1.61538 -0.963689 0
M  V30 5902 O 574.511 1.81168 0.069071 0
M  V30 5903 C 574.559 1.22599 -3.39119 0
M  V30 5904 O 573.663 2.34185 -3.39457 0
M  V30 5905 H 573.004 0.151314 -0.646529 0
M  V30 5906 H 575.534 -0.163703 -2.03944 0
M  V30 5907 H 575.544 1.56965 -3.76598 0
M  V30 5908 H 574.219 0.476831 -4.13158 0
M  V30 5909 H 572.796 2.01512 -3.13763 0
M  V30 5910 N 574.981 1.5647 0.188427 0
M  V30 5911 C 576.392 1.70864 0.752494 0
M  V30 5912 C 576.743 0.692905 1.83557 0
M  V30 5913 O 575.868 -0.149307 2.15884 0
M  V30 5914 C 576.463 3.09789 1.37173 0
M  V30 5915 C 575.022 3.25925 1.88281 0
M  V30 5916 C 574.169 2.66817 0.755259 0
M  V30 5917 H 577.12 1.58657 -0.0367408 0
M  V30 5918 H 577.141 3.07489 2.24122 0
M  V30 5919 H 576.653 3.83693 0.583219 0
M  V30 5920 H 574.754 2.56948 2.6983 0
M  V30 5921 H 574.867 4.33498 2.04001 0
M  V30 5922 H 573.231 2.2617 1.17128 0
M  V30 5923 H 574.014 3.43294 -0.0211237 0
M  V30 5924 N 576.459 -0.456382 1.50847 0
M  V30 5925 C 577.369 -1.57805 1.73594 0
M  V30 5926 C 578.385 -1.62599 0.619476 0
M  V30 5927 O 579.561 -1.80195 0.899532 0
M  V30 5928 C 576.626 -2.93926 1.8387 0
M  V30 5929 C 575.687 -2.99402 3.07663 0
M  V30 5930 C 574.92 -4.29031 3.1744 0
M  V30 5931 O 575.143 -5.20358 2.33631 0
M  V30 5932 O 574.077 -4.40401 4.10281 0
M  V30 5933 H 577.903 -1.41531 2.68705 0
M  V30 5934 H 575.488 -0.637422 1.3512 0
M  V30 5935 H 577.37 -3.74747 1.92725 0
M  V30 5936 H 576.045 -3.10368 0.91944 0
M  V30 5937 H 574.952 -2.17606 3.043 0
M  V30 5938 H 576.285 -2.87901 3.99216 0
M  V30 5939 N 577.937 -1.40673 -0.710563 0
M  V30 5940 C 579.353 -1.22813 -1.01928 0
M  V30 5941 C 579.553 -0.10687 -2.01216 0
M  V30 5942 O 578.609 0.533614 -2.46797 0
M  V30 5943 C 579.922 -2.57178 -1.5582 0
M  V30 5944 C 581.47 -2.64233 -1.67779 0
M  V30 5945 C 581.945 -3.98879 -2.25076 0
M  V30 5946 N 583.436 -4.00647 -2.32456 0
M  V30 5947 C 584.171 -5.01621 -2.77784 0
M  V30 5948 N 583.667 -6.12989 -3.22826 0
M  V30 5949 N 585.46 -4.88988 -2.77213 0
M  V30 5950 H 577.611 -2.12335 -0.05253 0
M  V30 5951 H 579.874 -0.9441 -0.085898 0
M  V30 5952 H 579.58 -3.39903 -0.903249 0
M  V30 5953 H 579.454 -2.78618 -2.54267 0
M  V30 5954 H 581.841 -1.81876 -2.3239 0
M  V30 5955 H 581.922 -2.46619 -0.679178 0
M  V30 5956 H 581.566 -4.81678 -1.61086 0
M  V30 5957 H 581.496 -4.13826 -3.25661 0
M  V30 5958 H 583.987 -3.20231 -2.0065 0
M  V30 5959 H 584.3 -6.85921 -3.55995 0
M  V30 5960 H 582.645 -6.16547 -3.20773 0
M  V30 5961 H 585.836 -4.01075 -2.41363 0
M  V30 5962 H 586.009 -5.67822 -3.12221 0
M  V30 5963 N 579.415 0.9433 -1.26252 0
M  V30 5964 C 580.64 1.72898 -1.14547 0
M  V30 5965 C 581.065 1.85761 0.295743 0
M  V30 5966 O 580.423 1.3463 1.21427 0
M  V30 5967 C 580.471 3.11471 -1.8171 0
M  V30 5968 O 579.575 3.97336 -1.10445 0
M  V30 5969 H 578.916 0.530555 -0.399259 0
M  V30 5970 H 581.446 1.18159 -1.67032 0
M  V30 5971 H 581.456 3.61872 -1.88449 0
M  V30 5972 H 580.131 3.01425 -2.86558 0
M  V30 5973 H 578.708 3.55788 -1.11666 0
M  V30 5974 N 580.893 1.08022 1.14757 0
M  V30 5975 C 582.133 0.816959 1.87364 0
M  V30 5976 C 582.497 -0.645407 1.80827 0
M  V30 5977 O 583.698 -1.024 2.48531 0
M  V30 5978 C 581.969 1.31961 3.32146 0
M  V30 5979 S 583.528 1.18806 4.2241 0
M  V30 5980 H 580.346 0.295862 0.646519 0
M  V30 5981 H 582.948 1.3807 1.38408 0
M  V30 5982 H 581.652 2.37847 3.3445 0
M  V30 5983 H 581.183 0.751371 3.86158 0
M  V30 5984 H 583.198 0.129865 4.9603 0
M  V30 5985 N 582.371 -1.3172 0.865308 0
M  V30 5986 C 583.334 -2.26918 0.322627 0
M  V30 5987 C 584.334 -1.52031 -0.523751 0
M  V30 5988 O 585.524 -1.70973 -0.333727 0
M  V30 5989 C 582.656 -3.36558 -0.542338 0
M  V30 5990 H 583.849 -2.76432 1.16298 0
M  V30 5991 H 581.402 -1.42573 0.640512 0
M  V30 5992 H 582.137 -2.92329 -1.40407 0
M  V30 5993 H 581.922 -3.92048 0.0636395 0
M  V30 5994 H 583.412 -4.07465 -0.91446 0
M  V30 5995 N 583.85 -0.624285 -1.44708 0
M  V30 5996 C 585.096 -0.126237 -2.02407 0
M  V30 5997 C 585.428 1.24618 -1.48943 0
M  V30 5998 O 584.704 1.82569 -0.670742 0
M  V30 5999 C 584.986 -0.105449 -3.59946 0
M  V30 6000 C 584.84 -1.50972 -4.23707 0
M  V30 6001 C 586.159 0.573629 -4.36346 0
M  V30 6002 H 583.278 -0.0473472 -0.735478 0
M  V30 6003 H 585.92 -0.799452 -1.72362 0
M  V30 6004 H 584.07 0.46783 -3.85673 0
M  V30 6005 H 585.742 -2.13136 -4.0911 0
M  V30 6006 H 583.985 -2.0656 -3.81465 0
M  V30 6007 H 584.656 -1.44727 -5.32689 0
M  V30 6008 H 587.132 0.0861787 -4.16011 0
M  V30 6009 H 586.008 0.557338 -5.46063 0
M  V30 6010 H 586.269 1.64276 -4.10446 0
M  V30 6011 N 585.328 1.53329 -0.364422 0
M  V30 6012 C 586.577 2.00421 0.226747 0
M  V30 6013 C 586.89 1.25581 1.49963 0
M  V30 6014 O 588.096 1.63256 2.16933 0
M  V30 6015 C 586.552 3.57017 0.454618 0
M  V30 6016 C 586.16 4.40734 -0.803568 0
M  V30 6017 C 587.904 4.12468 1.00351 0
M  V30 6018 C 585.811 5.8888 -0.545345 0
M  V30 6019 H 584.741 0.748787 0.0885082 0
M  V30 6020 H 587.392 1.7703 -0.482983 0
M  V30 6021 H 585.774 3.76558 1.22558 0
M  V30 6022 H 586.948 4.32967 -1.57723 0
M  V30 6023 H 585.263 3.96381 -1.27559 0
M  V30 6024 H 587.86 5.20783 1.212 0
M  V30 6025 H 588.203 3.6699 1.9653 0
M  V30 6026 H 588.736 3.96721 0.29274 0
M  V30 6027 H 585.475 6.38633 -1.47743 0
M  V30 6028 H 584.995 5.99499 0.189842 0
M  V30 6029 H 586.674 6.46776 -0.170425 0
M  V30 6030 N 586.806 0.0935595 1.57322 0
M  V30 6031 C 587.716 -0.880192 2.17462 0
M  V30 6032 C 588.732 -1.31135 1.14366 0
M  V30 6033 O 589.908 -1.37958 1.46729 0
M  V30 6034 C 586.973 -2.12184 2.74188 0
M  V30 6035 C 586.034 -1.74503 3.92234 0
M  V30 6036 C 585.267 -2.92748 4.46245 0
M  V30 6037 O 585.49 -4.07427 3.99198 0
M  V30 6038 O 584.424 -2.71303 5.37288 0
M  V30 6039 H 588.25 -0.398516 3.01074 0
M  V30 6040 H 585.835 -0.130707 1.48827 0
M  V30 6041 H 587.717 -2.84953 3.10451 0
M  V30 6042 H 586.392 -2.59407 1.93623 0
M  V30 6043 H 585.299 -0.989186 3.60785 0
M  V30 6044 H 586.632 -1.32044 4.74157 0
M  V30 6045 N 588.284 -1.56567 -0.180126 0
M  V30 6046 C 589.561 -1.7235 -0.924931 0
M  V30 6047 C 589.941 -0.652523 -2.00762 0
M  V30 6048 O 589.289 0.334115 -2.26044 0
M  V30 6049 C 589.499 -3.1523 -1.49771 0
M  V30 6050 C 590.847 -3.75921 -1.97405 0
M  V30 6051 O 591.871 -3.18452 -1.59583 0
M  V30 6052 O 590.73 -4.7681 -2.67048 0
M  V30 6053 H 587.824 -0.703502 -0.434758 0
M  V30 6054 H 590.37 -1.6886 -0.168647 0
M  V30 6055 H 589.142 -3.84656 -0.718027 0
M  V30 6056 H 588.765 -3.23009 -2.31842 0
M  V30 6057 N 589.762 0.448376 -1.51087 0
M  V30 6058 C 591.039 1.20926 -1.53741 0
M  V30 6059 C 591.419 2.09025 -0.295222 0
M  V30 6060 O 590.767 2.16851 0.720283 0
M  V30 6061 C 590.977 2.02067 -2.84552 0
M  V30 6062 C 592.325 2.59486 -3.36084 0
M  V30 6063 O 593.349 2.12289 -2.86028 0
M  V30 6064 O 592.208 3.45539 -4.23397 0
M  V30 6065 H 589.302 0.549951 -0.617643 0
M  V30 6066 H 591.848 0.458344 -1.63393 0
M  V30 6067 H 590.62 1.37291 -3.66425 0
M  V30 6068 H 590.243 2.84246 -2.78011 0
M  V30 6069 N 591.24 1.41047 0.703093 0
M  V30 6070 C 592.488 1.39723 1.4602 0
M  V30 6071 C 592.809 0.00461257 1.94999 0
M  V30 6072 O 592.079 -0.952292 1.71196 0
M  V30 6073 H 590.659 0.514281 0.541779 0
M  V30 6074 H 593.321 1.76217 0.832678 0
M  V30 6075 H 592.417 2.07982 2.32701 0
M  V30 6076 N 592.718 -0.936591 1.26751 0
M  V30 6077 C 593.648 -2.05315 1.11212 0
M  V30 6078 C 594.629 -1.70092 0.0160262 0
M  V30 6079 O 595.814 -1.93279 0.188894 0
M  V30 6080 C 592.944 -3.39123 0.749171 0
M  V30 6081 C 591.898 -3.88425 1.79751 0
M  V30 6082 C 591.224 -5.18936 1.28876 0
M  V30 6083 C 592.524 -4.12798 3.19992 0
M  V30 6084 H 594.218 -2.18573 2.04613 0
M  V30 6085 H 591.764 -1.05027 0.985159 0
M  V30 6086 H 593.717 -4.16704 0.627323 0
M  V30 6087 H 592.441 -3.25855 -0.220543 0
M  V30 6088 H 591.1 -3.13028 1.90811 0
M  V30 6089 H 590.748 -5.02051 0.308757 0
M  V30 6090 H 590.448 -5.52892 1.98958 0
M  V30 6091 H 591.972 -5.99096 1.17967 0
M  V30 6092 H 593.386 -4.80977 3.11983 0
M  V30 6093 H 591.783 -4.58044 3.87705 0
M  V30 6094 H 592.853 -3.18412 3.65707 0
M  V30 6095 N 594.196 -1.08629 -1.14182 0
M  V30 6096 C 595.146 -0.687882 -2.17376 0
M  V30 6097 C 596.13 0.293632 -1.58198 0
M  V30 6098 O 597.322 0.105292 -1.76687 0
M  V30 6099 C 594.451 -0.101184 -3.43151 0
M  V30 6100 C 593.537 -1.10862 -4.09354 0
M  V30 6101 N 593.928 -2.29285 -4.50846 0
M  V30 6102 C 592.226 -0.944897 -4.35876 0
M  V30 6103 C 592.927 -2.93305 -5.02342 0
M  V30 6104 N 591.903 -2.20903 -4.96692 0
M  V30 6105 H 595.705 -1.58963 -2.472 0
M  V30 6106 H 593.219 -0.961329 -1.3089 0
M  V30 6107 H 595.216 0.202209 -4.16409 0
M  V30 6108 H 593.876 0.795522 -3.14804 0
M  V30 6109 H 594.887 -2.66927 -4.43813 0
M  V30 6110 H 591.564 -0.102186 -4.17375 0
M  V30 6111 H 592.954 -3.93932 -5.44304 0
M  V30 6112 N 595.674 1.31259 -0.872281 0
M  V30 6113 C 596.637 2.26744 -0.334656 0
M  V30 6114 C 597.637 1.52307 0.515681 0
M  V30 6115 O 598.827 1.71148 0.324656 0
M  V30 6116 C 595.959 3.36841 0.524482 0
M  V30 6117 H 597.152 2.75812 -1.17762 0
M  V30 6118 H 594.705 1.42232 -0.648064 0
M  V30 6119 H 595.44 2.93069 1.38855 0
M  V30 6120 H 595.225 3.92009 -0.0844299 0
M  V30 6121 H 596.715 4.07944 0.892838 0
M  V30 6122 N 597.152 0.631951 1.44375 0
M  V30 6123 C 598.115 -0.0628142 2.29114 0
M  V30 6124 C 599.115 -0.771494 1.41084 0
M  V30 6125 O 600.305 -0.615959 1.62947 0
M  V30 6126 C 597.437 -1.09953 3.22681 0
M  V30 6127 H 598.63 0.682509 2.92031 0
M  V30 6128 H 596.183 0.392128 1.51301 0
M  V30 6129 H 596.918 -1.87481 2.64616 0
M  V30 6130 H 596.703 -0.595286 3.87555 0
M  V30 6131 H 598.193 -1.58538 3.86336 0
M  V30 6132 N 598.631 -1.53133 0.372548 0
M  V30 6133 C 599.878 -2.01356 -0.214959 0
M  V30 6134 C 600.206 -1.2596 -1.48204 0
M  V30 6135 O 599.461 -0.343511 -1.92662 0
M  V30 6136 C 599.76 -3.53206 -0.545938 0
M  V30 6137 C 599.426 -4.46511 0.627624 0
M  V30 6138 C 598.088 -4.71737 0.949615 0
M  V30 6139 C 600.44 -5.01666 1.41353 0
M  V30 6140 C 597.768 -5.4937 2.05936 0
M  V30 6141 C 600.12 -5.80511 2.51375 0
M  V30 6142 C 598.784 -6.04022 2.84101 0
M  V30 6143 H 598.054 -0.736813 -0.078659 0
M  V30 6144 H 600.701 -1.84682 0.506447 0
M  V30 6145 H 599.006 -3.67864 -1.34845 0
M  V30 6146 H 600.703 -3.87997 -1.01287 0
M  V30 6147 H 597.293 -4.27029 0.366635 0
M  V30 6148 H 601.477 -4.82117 1.17802 0
M  V30 6149 H 596.733 -5.65803 2.31682 0
M  V30 6150 H 600.907 -6.22255 3.12684 0
M  V30 6151 H 598.534 -6.63962 3.70214 0
M  V30 6152 N 600.109 -0.101901 -1.5727 0
M  V30 6153 C 601.337 0.568392 -1.98939 0
M  V30 6154 C 601.752 1.61301 -0.981194 0
M  V30 6155 O 601.109 1.82478 0.0282869 0
M  V30 6156 C 601.16 1.20997 -3.40649 0
M  V30 6157 O 600.881 0.207129 -4.3761 0
M  V30 6158 C 602.382 1.96523 -3.97358 0
M  V30 6159 H 599.602 0.15186 -0.65359 0
M  V30 6160 H 602.146 -0.183198 -2.03678 0
M  V30 6161 H 600.301 1.91245 -3.36904 0
M  V30 6162 H 600.715 0.671071 -5.20189 0
M  V30 6163 H 602.189 2.36764 -4.98645 0
M  V30 6164 H 602.666 2.83376 -3.35552 0
M  V30 6165 H 603.272 1.31076 -4.04598 0
M  V30 6166 N 601.587 1.56661 0.17182 0
M  V30 6167 C 602.833 1.82235 0.889845 0
M  V30 6168 C 603.166 0.679673 1.81918 0
M  V30 6169 O 602.441 -0.318404 1.91876 0
M  V30 6170 C 602.724 3.18195 1.68595 0
M  V30 6171 C 602.577 4.42989 0.779773 0
M  V30 6172 C 603.896 3.5109 2.65375 0
M  V30 6173 H 601.015 0.66291 0.322056 0
M  V30 6174 H 603.657 1.89358 0.15608 0
M  V30 6175 H 601.807 3.12253 2.3115 0
M  V30 6176 H 603.479 4.60997 0.16714 0
M  V30 6177 H 601.722 4.33711 0.0877964 0
M  V30 6178 H 602.393 5.3467 1.3723 0
M  V30 6179 H 604.869 3.57482 2.12946 0
M  V30 6180 H 603.745 4.47298 3.18144 0
M  V30 6181 H 604.006 2.75768 3.45549 0
M  V30 6182 N 603.065 -0.440357 1.51323 0
M  V30 6183 C 604.028 -1.51679 1.71832 0
M  V30 6184 C 605.028 -1.49648 0.588386 0
M  V30 6185 O 606.218 -1.51724 0.855891 0
M  V30 6186 C 603.35 -2.91228 1.77199 0
M  V30 6187 H 604.543 -1.34799 2.67898 0
M  V30 6188 H 602.096 -0.66883 1.41267 0
M  V30 6189 H 602.831 -3.13516 0.829363 0
M  V30 6190 H 602.616 -2.94107 2.59314 0
M  V30 6191 H 604.106 -3.69321 1.94915 0
M  V30 6192 N 604.543 -1.41418 -0.695603 0
M  V30 6193 C 605.493 -1.39731 -1.80165 0
M  V30 6194 C 606.477 -0.271689 -1.5859 0
M  V30 6195 O 607.669 -0.512354 -1.69422 0
M  V30 6196 C 604.798 -1.28187 -3.1847 0
M  V30 6197 C 603.884 -2.45612 -3.45739 0
M  V30 6198 N 604.275 -3.71077 -3.43708 0
M  V30 6199 C 602.573 -2.39424 -3.76288 0
M  V30 6200 C 603.274 -4.48957 -3.69882 0
M  V30 6201 N 602.25 -3.7907 -3.89624 0
M  V30 6202 H 606.052 -2.34656 -1.76957 0
M  V30 6203 H 603.566 -1.35473 -0.89559 0
M  V30 6204 H 605.563 -1.2506 -3.977 0
M  V30 6205 H 604.223 -0.342468 -3.22889 0
M  V30 6206 H 605.234 -4.03963 -3.2409 0
M  V30 6207 H 601.911 -1.53955 -3.88077 0
M  V30 6208 H 603.301 -5.57887 -3.74448 0
M  V30 6209 N 606.021 0.929856 -1.27246 0
M  V30 6210 C 606.931 2.0636 -1.11592 0
M  V30 6211 C 607.947 1.73938 -0.046496 0
M  V30 6212 O 609.123 1.9981 -0.252544 0
M  V30 6213 C 606.188 3.38213 -0.762437 0
M  V30 6214 C 605.249 3.84346 -1.9125 0
M  V30 6215 C 604.482 5.09906 -1.57579 0
M  V30 6216 O 604.705 5.68354 -0.482694 0
M  V30 6217 O 603.639 5.51359 -2.41426 0
M  V30 6218 H 607.465 2.22478 -2.0673 0
M  V30 6219 H 605.05 1.04865 -1.06413 0
M  V30 6220 H 606.932 4.1741 -0.57854 0
M  V30 6221 H 605.607 3.23307 0.159439 0
M  V30 6222 H 604.514 3.06045 -2.15144 0
M  V30 6223 H 605.847 4.0379 -2.81451 0
M  V30 6224 N 607.499 1.09233 1.13605 0
M  V30 6225 C 608.748 0.82205 1.84188 0
M  V30 6226 C 609.061 -0.654548 1.84323 0
M  V30 6227 O 610.267 -1.04029 2.50779 0
M  V30 6228 C 608.723 1.42066 3.30674 0
M  V30 6229 C 608.331 2.92965 3.38933 0
M  V30 6230 C 610.075 1.22924 4.06313 0
M  V30 6231 C 607.982 3.45922 4.79679 0
M  V30 6232 H 606.912 0.303854 0.690064 0
M  V30 6233 H 609.563 1.31479 1.28006 0
M  V30 6234 H 607.945 0.855613 3.86646 0
M  V30 6235 H 609.119 3.55679 2.92966 0
M  V30 6236 H 607.434 3.11118 2.76757 0
M  V30 6237 H 610.031 1.59945 5.10217 0
M  V30 6238 H 610.374 0.169726 4.15954 0
M  V30 6239 H 610.907 1.76168 3.56665 0
M  V30 6240 H 607.646 4.51484 4.75229 0
M  V30 6241 H 607.166 2.87971 5.26149 0
M  V30 6242 H 608.845 3.43009 5.48592 0
M  V30 6243 N 608.977 -1.30795 0.87923 0
M  V30 6244 C 610.225 -1.95974 0.493809 0
M  V30 6245 C 610.546 -1.69787 -0.959021 0
M  V30 6246 O 609.816 -1.01832 -1.67353 0
M  V30 6247 H 608.396 -0.725083 0.179622 0
M  V30 6248 H 611.058 -1.59432 1.12105 0
M  V30 6249 H 610.154 -3.05058 0.659263 0
M  V30 6250 N 610.455 -0.639598 -1.44038 0
M  V30 6251 C 611.405 0.0823038 -2.27851 0
M  V30 6252 C 612.389 0.807991 -1.39141 0
M  V30 6253 O 613.581 0.692702 -1.62882 0
M  V30 6254 C 610.71 1.05742 -3.26609 0
M  V30 6255 C 609.796 0.330911 -4.22807 0
M  V30 6256 N 610.187 -0.645126 -5.01669 0
M  V30 6257 C 608.485 0.574214 -4.42288 0
M  V30 6258 C 609.186 -1.07513 -5.71678 0
M  V30 6259 N 608.162 -0.412164 -5.42035 0
M  V30 6260 H 611.964 -0.666861 -2.86234 0
M  V30 6261 H 609.478 -0.465777 -1.55577 0
M  V30 6262 H 611.475 1.58927 -3.85419 0
M  V30 6263 H 610.135 1.80679 -2.69787 0
M  V30 6264 H 611.146 -1.02329 -5.0769 0
M  V30 6265 H 607.823 1.30581 -3.96554 0
M  V30 6266 H 609.213 -1.88196 -6.45005 0
M  V30 6267 N 611.933 1.52934 -0.380664 0
M  V30 6268 C 612.863 2.29118 0.450268 0
M  V30 6269 C 613.844 1.32153 1.07096 0
M  V30 6270 O 615.029 1.61038 1.08537 0
M  V30 6271 C 612.159 3.09161 1.58231 0
M  V30 6272 C 611.113 4.13938 1.0881 0
M  V30 6273 C 610.439 4.82153 2.31155 0
M  V30 6274 C 611.739 5.22048 0.162146 0
M  V30 6275 H 613.433 2.98826 -0.185361 0
M  V30 6276 H 610.979 1.43715 -0.0905886 0
M  V30 6277 H 612.932 3.61211 2.17036 0
M  V30 6278 H 611.656 2.3717 2.2454 0
M  V30 6279 H 610.315 3.62855 0.522633 0
M  V30 6280 H 609.963 4.06719 2.95953 0
M  V30 6281 H 609.663 5.52966 1.98752 0
M  V30 6282 H 611.187 5.37004 2.90618 0
M  V30 6283 H 612.601 5.6951 0.658126 0
M  V30 6284 H 610.998 6.00057 -0.0717122 0
M  V30 6285 H 612.068 4.78398 -0.791438 0
M  V30 6286 N 613.412 0.11024 1.57214 0
M  V30 6287 C 614.342 -0.840002 2.17867 0
M  V30 6288 C 615.323 -1.28352 1.11624 0
M  V30 6289 O 616.508 -1.3477 1.39824 0
M  V30 6290 C 613.638 -2.09349 2.77111 0
M  V30 6291 C 612.592 -1.78807 3.8886 0
M  V30 6292 C 611.918 -3.11112 4.34872 0
M  V30 6293 C 613.218 -1.0632 5.11364 0
M  V30 6294 H 614.912 -0.334608 2.97524 0
M  V30 6295 H 612.458 -0.159502 1.43114 0
M  V30 6296 H 614.411 -2.76275 3.18198 0
M  V30 6297 H 613.135 -2.62198 1.9473 0
M  V30 6298 H 611.794 -1.14273 3.48335 0
M  V30 6299 H 611.442 -3.61877 3.49362 0
M  V30 6300 H 611.142 -2.91453 5.10224 0
M  V30 6301 H 612.666 -3.79171 4.78604 0
M  V30 6302 H 614.08 -1.63383 5.49526 0
M  V30 6303 H 612.477 -0.967876 5.92243 0
M  V30 6304 H 613.547 -0.0484569 4.84876 0
M  V30 6305 N 614.89 -1.56749 -0.16351 0
M  V30 6306 C 616.138 -1.82074 -0.87713 0
M  V30 6307 C 616.459 -0.688503 -1.82441 0
M  V30 6308 O 615.729 0.291085 -1.93725 0
M  V30 6309 H 614.309 -0.671677 -0.326893 0
M  V30 6310 H 616.971 -1.9423 -0.161459 0
M  V30 6311 H 616.067 -2.76407 -1.44934 0
M  V30 6312 N 616.368 0.432326 -1.51554 0
M  V30 6313 C 617.298 1.53242 -1.76179 0
M  V30 6314 C 618.279 1.58717 -0.611801 0
M  V30 6315 O 619.464 1.74364 -0.855033 0
M  V30 6316 C 616.594 2.91278 -1.89141 0
M  V30 6317 C 615.548 3.00663 -3.04608 0
M  V30 6318 C 614.874 4.40728 -3.02759 0
M  V30 6319 C 616.174 2.74281 -4.44485 0
M  V30 6320 H 617.868 1.32886 -2.68294 0
M  V30 6321 H 615.414 0.637841 -1.29103 0
M  V30 6322 H 617.367 3.68203 -2.04951 0
M  V30 6323 H 616.091 3.12877 -0.936785 0
M  V30 6324 H 614.75 2.26179 -2.88511 0
M  V30 6325 H 614.398 4.59301 -2.05065 0
M  V30 6326 H 614.098 4.47936 -3.80299 0
M  V30 6327 H 615.622 5.19619 -3.20669 0
M  V30 6328 H 617.036 3.40936 -4.60907 0
M  V30 6329 H 615.433 2.92893 -5.23769 0
M  V30 6330 H 616.503 1.69856 -4.54177 0
M  V30 6331 N 617.846 1.41785 0.688094 0
M  V30 6332 C 619.071 1.45117 1.48175 0
M  V30 6333 C 619.496 0.060129 1.88004 0
M  V30 6334 O 618.854 -0.938385 1.55126 0
M  V30 6335 C 618.902 2.37224 2.71583 0
M  V30 6336 O 618.006 1.83443 3.69354 0
M  V30 6337 H 617.347 0.492208 0.445676 0
M  V30 6338 H 619.877 1.86329 0.845145 0
M  V30 6339 H 619.887 2.53353 3.19806 0
M  V30 6340 H 618.562 3.38293 2.41931 0
M  V30 6341 H 617.139 1.76802 3.28322 0
M  V30 6342 N 619.324 -0.923095 1.27737 0
M  V30 6343 C 620.274 -2.01061 1.0751 0
M  V30 6344 C 621.258 -1.609 0.00165451 0
M  V30 6345 O 622.45 -1.75618 0.220724 0
M  V30 6346 C 619.579 -3.35467 0.729162 0
M  V30 6347 C 618.665 -3.82059 1.84098 0
M  V30 6348 N 619.056 -4.01115 3.08124 0
M  V30 6349 C 617.354 -4.11135 1.7287 0
M  V30 6350 C 618.055 -4.39989 3.80506 0
M  V30 6351 N 617.031 -4.47721 3.08297 0
M  V30 6352 H 620.833 -2.13832 2.01626 0
M  V30 6353 H 618.347 -1.11027 1.18519 0
M  V30 6354 H 620.344 -4.13049 0.565355 0
M  V30 6355 H 619.004 -3.24056 -0.204334 0
M  V30 6356 H 620.015 -3.87294 3.43836 0
M  V30 6357 H 616.692 -4.08412 0.866352 0
M  V30 6358 H 618.082 -4.62773 4.87125 0
M  V30 6359 N 620.802 -1.09834 -1.13024 0
M  V30 6360 C 622.079 -0.749225 -1.80682 0
M  V30 6361 C 622.459 0.765171 -1.96744 0
M  V30 6362 O 621.807 1.68912 -1.53886 0
M  V30 6363 C 622.017 -1.49311 -3.15448 0
M  V30 6364 C 623.365 -1.66162 -3.90737 0
M  V30 6365 O 624.389 -1.45597 -3.25085 0
M  V30 6366 O 623.248 -2.00211 -5.08505 0
M  V30 6367 H 620.342 -0.269614 -0.781817 0
M  V30 6368 H 622.888 -1.20078 -1.19914 0
M  V30 6369 H 621.66 -2.52407 -2.99009 0
M  V30 6370 H 621.283 -1.034 -3.8392 0
M  V30 6371 N 622.28 1.30327 -0.886154 0
M  V30 6372 C 623.557 1.90922 -0.425217 0
M  V30 6373 C 623.937 1.80533 1.09413 0
M  V30 6374 O 623.285 1.2233 1.92996 0
M  V30 6375 C 623.495 3.36529 -0.924638 0
M  V30 6376 C 624.843 4.13598 -0.960305 0
M  V30 6377 O 625.867 3.45377 -0.871382 0
M  V30 6378 O 624.726 5.35482 -1.09184 0
M  V30 6379 H 621.82 0.81668 -0.130238 0
M  V30 6380 H 624.366 1.38886 -0.975132 0
M  V30 6381 H 623.138 3.38181 -1.96849 0
M  V30 6382 H 622.761 3.96021 -0.353955 0
M  V30 6383 N 623.758 0.647228 1.43697 0
M  V30 6384 C 624.983 0.164083 2.0675 0
M  V30 6385 C 625.408 -1.15892 1.48158 0
M  V30 6386 O 624.766 -1.71459 0.589194 0
M  V30 6387 C 624.814 0.0800368 3.60511 0
M  V30 6388 O 623.918 -0.959453 4.01084 0
M  V30 6389 H 623.259 0.0921288 0.657578 0
M  V30 6390 H 625.789 0.88846 1.84303 0
M  V30 6391 H 625.799 -0.105263 4.07864 0
M  V30 6392 H 624.474 1.04586 4.02535 0
M  V30 6393 H 623.051 -0.747425 3.65333 0
M  V30 6394 N 625.236 -1.5273 0.388769 0
M  V30 6395 C 626.183 -2.26437 -0.446639 0
M  V30 6396 C 627.153 -1.28025 -1.05824 0
M  V30 6397 O 628.338 -1.56852 -1.08637 0
M  V30 6398 C 625.478 -3.07407 -1.56828 0
M  V30 6399 C 624.591 -4.20747 -0.979589 0
M  V30 6400 C 623.726 -4.89113 -2.07224 0
M  V30 6401 C 622.765 -5.94447 -1.45942 0
M  V30 6402 N 621.902 -6.56411 -2.49135 0
M  V30 6403 H 626.742 -2.97404 0.18837 0
M  V30 6404 H 624.279 -1.46727 0.104725 0
M  V30 6405 H 626.237 -3.52642 -2.22934 0
M  V30 6406 H 624.867 -2.3865 -2.17361 0
M  V30 6407 H 623.919 -3.7983 -0.208151 0
M  V30 6408 H 625.231 -4.9637 -0.491747 0
M  V30 6409 H 624.385 -5.3765 -2.81101 0
M  V30 6410 H 623.124 -4.13013 -2.59368 0
M  V30 6411 H 622.129 -5.4525 -0.705894 0
M  V30 6412 H 623.354 -6.7248 -0.945932 0
M  V30 6413 H 621.3 -5.83152 -3.00449 0
M  V30 6414 H 621.217 -7.27645 -2.05105 0
M  V30 6415 H 622.485 -7.09592 -3.22644 0
M  V30 6416 N 626.714 -0.118576 -1.57153 0
M  V30 6417 C 627.961 0.539526 -1.9518 0
M  V30 6418 C 628.289 1.66714 -1.00184 0
M  V30 6419 O 627.544 1.95683 -0.0256482 0
M  V30 6420 C 627.843 1.11303 -3.39627 0
M  V30 6421 C 627.509 0.106809 -4.50773 0
M  V30 6422 C 626.171 -0.169876 -4.809 0
M  V30 6423 C 628.523 -0.57895 -5.17975 0
M  V30 6424 C 625.851 -1.13861 -5.75545 0
M  V30 6425 C 628.203 -1.53631 -6.13661 0
M  V30 6426 C 626.867 -1.82099 -6.42181 0
M  V30 6427 H 626.137 0.197427 -0.714215 0
M  V30 6428 H 628.784 -0.199391 -1.90459 0
M  V30 6429 H 627.089 1.92869 -3.4104 0
M  V30 6430 H 628.786 1.63032 -3.66363 0
M  V30 6431 H 625.376 0.332645 -4.27307 0
M  V30 6432 H 629.56 -0.378359 -4.94856 0
M  V30 6433 H 624.816 -1.36592 -5.95947 0
M  V30 6434 H 628.99 -2.07337 -6.64819 0
M  V30 6435 H 626.617 -2.57319 -7.15326 0
M  V30 6436 N 628.193 1.56834 0.155195 0
M  V30 6437 C 629.433 1.84701 0.875488 0
M  V30 6438 C 629.797 0.701747 1.78716 0
M  V30 6439 O 630.998 0.861263 2.54629 0
M  V30 6440 C 629.269 3.1773 1.63654 0
M  V30 6441 S 630.828 3.67128 2.40338 0
M  V30 6442 H 627.646 0.647856 0.292923 0
M  V30 6443 H 630.248 1.95026 0.136024 0
M  V30 6444 H 628.952 3.99059 0.958117 0
M  V30 6445 H 628.483 3.10388 2.41708 0
M  V30 6446 H 630.498 3.35739 3.65368 0
M  V30 6447 N 629.671 -0.424282 1.51781 0
M  V30 6448 C 630.581 -1.54087 1.76902 0
M  V30 6449 C 631.597 -1.61249 0.653826 0
M  V30 6450 O 632.773 -1.78247 0.937552 0
M  V30 6451 C 629.838 -2.8996 1.90063 0
M  V30 6452 C 628.899 -2.92809 3.13945 0
M  V30 6453 C 628.132 -4.22201 3.26469 0
M  V30 6454 O 628.355 -5.15286 2.44616 0
M  V30 6455 O 627.289 -4.31599 4.1953 0
M  V30 6456 H 631.115 -1.358 2.71647 0
M  V30 6457 H 628.7 -0.608618 1.36441 0
M  V30 6458 H 630.582 -3.70575 2.0063 0
M  V30 6459 H 629.257 -3.08347 0.985067 0
M  V30 6460 H 628.164 -2.11102 3.08847 0
M  V30 6461 H 629.497 -2.79369 4.05233 0
M  V30 6462 N 631.149 -1.42148 -0.680565 0
M  V30 6463 C 632.059 -1.47565 -1.82378 0
M  V30 6464 C 633.075 -0.36489 -1.70131 0
M  V30 6465 O 634.251 -0.614916 -1.91783 0
M  V30 6466 C 631.316 -1.37013 -3.18478 0
M  V30 6467 C 630.377 -2.58532 -3.42724 0
M  V30 6468 C 629.61 -2.48473 -4.72331 0
M  V30 6469 O 629.833 -1.51745 -5.49845 0
M  V30 6470 O 628.767 -3.38503 -4.97694 0
M  V30 6471 H 632.593 -2.44045 -1.80764 0
M  V30 6472 H 630.178 -1.23849 -0.835569 0
M  V30 6473 H 632.06 -1.33468 -3.99705 0
M  V30 6474 H 630.735 -0.436552 -3.20743 0
M  V30 6475 H 629.642 -2.67652 -2.61368 0
M  V30 6476 H 630.975 -3.50769 -3.45286 0
M  V30 6477 N 632.627 0.916307 -1.28225 0
M  V30 6478 C 633.855 1.69901 -1.18073 0
M  V30 6479 C 634.27 1.86988 0.260968 0
M  V30 6480 O 633.627 1.39505 1.17663 0
M  V30 6481 C 633.678 3.09254 -1.87201 0
M  V30 6482 O 633.399 2.92959 -3.2574 0
M  V30 6483 C 634.9 4.0362 -1.83319 0
M  V30 6484 H 632.12 0.531181 -0.409985 0
M  V30 6485 H 634.664 1.14703 -1.69303 0
M  V30 6486 H 632.819 3.61277 -1.39848 0
M  V30 6487 H 633.233 3.81139 -3.60324 0
M  V30 6488 H 634.707 4.98873 -2.36282 0
M  V30 6489 H 635.184 4.3176 -0.805007 0
M  V30 6490 H 635.79 3.57524 -2.3034 0
M  V30 6491 N 634.105 1.10431 1.1244 0
M  V30 6492 C 635.352 0.846717 1.83948 0
M  V30 6493 C 635.68 -0.627709 1.84093 0
M  V30 6494 O 634.935 -1.47876 1.28184 0
M  V30 6495 C 635.234 1.34022 3.3132 0
M  V30 6496 C 634.9 2.82606 3.51347 0
M  V30 6497 C 633.562 3.23182 3.56521 0
M  V30 6498 C 635.914 3.78356 3.58464 0
M  V30 6499 C 633.242 4.58258 3.66356 0
M  V30 6500 C 635.594 5.13234 3.69829 0
M  V30 6501 C 634.258 5.53384 3.73259 0
M  V30 6502 H 633.528 0.309836 0.673114 0
M  V30 6503 H 636.175 1.38091 1.32677 0
M  V30 6504 H 634.48 0.726047 3.85014 0
M  V30 6505 H 636.177 1.11739 3.85118 0
M  V30 6506 H 632.767 2.50212 3.47983 0
M  V30 6507 H 636.951 3.48115 3.53737 0
M  V30 6508 H 632.207 4.88787 3.67284 0
M  V30 6509 H 636.381 5.87272 3.74279 0
M  V30 6510 H 634.008 6.58045 3.80633 0
M  V30 6511 N 635.583 -1.29855 0.893053 0
M  V30 6512 C 636.831 -1.9544 0.514566 0
M  V30 6513 C 637.152 -1.70795 -0.940959 0
M  V30 6514 O 636.422 -1.03601 -1.66264 0
M  V30 6515 H 635.002 -0.723137 0.187302 0
M  V30 6516 H 637.664 -1.58234 1.13789 0
M  V30 6517 H 636.76 -3.04341 0.691581 0
M  V30 6518 N 637.061 -0.65484 -1.43351 0
M  V30 6519 C 638.286 -0.175046 -2.0666 0
M  V30 6520 C 638.711 1.15104 -1.4877 0
M  V30 6521 O 638.069 1.71144 -0.598279 0
M  V30 6522 C 638.117 -0.0991544 -3.60464 0
M  V30 6523 O 637.221 0.938169 -4.01587 0
M  V30 6524 H 636.562 -0.0956148 -0.65708 0
M  V30 6525 H 639.092 -0.898222 -1.83829 0
M  V30 6526 H 639.102 0.083632 -4.07914 0
M  V30 6527 H 637.777 -1.06719 -4.01975 0
M  V30 6528 H 636.354 0.72804 -3.65724 0
M  V30 6529 N 638.539 1.52521 -0.396863 0
M  V30 6530 C 639.767 2.06091 0.18275 0
M  V30 6531 C 640.182 1.26796 1.39886 0
M  V30 6532 O 639.539 0.316585 1.79733 0
M  V30 6533 C 639.59 3.57362 0.545377 0
M  V30 6534 O 639.311 4.33656 -0.622428 0
M  V30 6535 C 640.812 4.27305 1.18004 0
M  V30 6536 H 638.032 0.670504 0.025789 0
M  V30 6537 H 640.576 1.96561 -0.564276 0
M  V30 6538 H 638.731 3.66941 1.2423 0
M  V30 6539 H 639.145 5.23507 -0.322662 0
M  V30 6540 H 640.619 5.34366 1.38408 0
M  V30 6541 H 641.096 3.83 2.1496 0
M  V30 6542 H 641.702 4.22064 0.523671 0
M  V30 6543 N 640.017 0.126909 1.57088 0
M  V30 6544 C 640.927 -0.833867 2.1928 0
M  V30 6545 C 641.943 -1.2868 1.17122 0
M  V30 6546 O 643.119 -1.34815 1.49622 0
M  V30 6547 C 640.184 -2.0632 2.78627 0
M  V30 6548 C 639.245 -1.66143 3.95847 0
M  V30 6549 C 638.478 -2.83217 4.52354 0
M  V30 6550 O 638.701 -3.98868 4.0775 0
M  V30 6551 O 637.635 -2.59846 5.42922 0
M  V30 6552 H 641.461 -0.334564 3.01852 0
M  V30 6553 H 639.046 -0.0991091 1.49071 0
M  V30 6554 H 640.928 -2.78304 3.16425 0
M  V30 6555 H 639.603 -2.55242 1.99082 0
M  V30 6556 H 638.51 -0.912435 3.62802 0
M  V30 6557 H 639.843 -1.21957 4.76852 0
M  V30 6558 N 641.495 -1.56914 -0.146875 0
M  V30 6559 C 642.772 -1.74273 -0.888165 0
M  V30 6560 C 643.152 -0.69496 -1.99333 0
M  V30 6561 O 642.5 0.286093 -2.26702 0
M  V30 6562 C 642.71 -3.18336 -1.43051 0
M  V30 6563 C 644.058 -3.80024 -1.89387 0
M  V30 6564 O 645.082 -3.21765 -1.52792 0
M  V30 6565 O 643.941 -4.82367 -2.56874 0
M  V30 6566 H 641.035 -0.712565 -0.419738 0
M  V30 6567 H 643.581 -1.6918 -0.132791 0
M  V30 6568 H 642.353 -3.86092 -0.636274 0
M  V30 6569 H 641.976 -3.27854 -2.24938 0
M  V30 6570 N 642.974 0.416227 -1.52004 0
M  V30 6571 C 643.921 1.50666 -1.74838 0
M  V30 6572 C 644.891 1.55245 -0.590599 0
M  V30 6573 O 646.076 1.71928 -0.827374 0
M  V30 6574 C 643.216 2.88185 -1.89851 0
M  V30 6575 C 642.329 2.92971 -3.17478 0
M  V30 6576 C 641.464 4.21745 -3.22962 0
M  V30 6577 C 640.503 4.20478 -4.4482 0
M  V30 6578 N 639.64 5.40811 -4.47736 0
M  V30 6579 H 644.48 1.30498 -2.67907 0
M  V30 6580 H 642.017 0.633568 -1.32757 0
M  V30 6581 H 643.975 3.68007 -1.96537 0
M  V30 6582 H 642.605 3.06865 -1.00169 0
M  V30 6583 H 641.657 2.05684 -3.19997 0
M  V30 6584 H 642.969 2.87899 -4.07328 0
M  V30 6585 H 642.123 5.09954 -3.28682 0
M  V30 6586 H 640.862 4.29503 -2.31038 0
M  V30 6587 H 639.867 3.30659 -4.39254 0
M  V30 6588 H 641.092 4.14366 -5.38031 0
M  V30 6589 H 639.038 5.4925 -3.58692 0
M  V30 6590 H 638.955 5.37705 -5.31422 0
M  V30 6591 H 640.223 6.30993 -4.57676 0
M  V30 6592 N 644.452 1.42507 0.673017 0
M  V30 6593 C 645.868 1.25472 0.986355 0
M  V30 6594 C 646.068 0.160181 2.00862 0
M  V30 6595 O 645.124 -0.467993 2.48125 0
M  V30 6596 C 646.437 2.61219 1.48947 0
M  V30 6597 C 647.985 2.68589 1.60715 0
M  V30 6598 C 648.46 4.04707 2.14422 0
M  V30 6599 N 649.951 4.0667 2.21752 0
M  V30 6600 C 650.686 5.0881 2.64386 0
M  V30 6601 N 650.182 6.21332 3.0646 0
M  V30 6602 N 651.975 4.96166 2.64151 0
M  V30 6603 H 644.126 2.124 -0.00378532 0
M  V30 6604 H 646.389 0.946046 0.0608367 0
M  V30 6605 H 646.095 3.42179 0.812812 0
M  V30 6606 H 645.969 2.85261 2.46791 0
M  V30 6607 H 648.356 1.87974 2.27486 0
M  V30 6608 H 648.437 2.48333 0.613552 0
M  V30 6609 H 648.081 4.8578 1.48258 0
M  V30 6610 H 648.011 4.22315 3.14575 0
M  V30 6611 H 650.502 3.25438 1.92089 0
M  V30 6612 H 650.815 6.95118 3.37684 0
M  V30 6613 H 649.16 6.24835 3.04313 0
M  V30 6614 H 652.351 4.07334 2.30644 0
M  V30 6615 H 652.524 5.759 2.97057 0
M  V30 6616 N 645.93 -0.909495 1.28709 0
M  V30 6617 C 646.86 -2.0291 1.15542 0
M  V30 6618 C 647.841 -1.7002 0.0521017 0
M  V30 6619 O 649.026 -1.92835 0.229849 0
M  V30 6620 C 646.156 -3.37458 0.820935 0
M  V30 6621 C 645.11 -3.84524 1.87949 0
M  V30 6622 C 644.436 -5.16086 1.39854 0
M  V30 6623 C 645.736 -4.05918 3.28676 0
M  V30 6624 H 647.43 -2.14183 2.09203 0
M  V30 6625 H 644.976 -1.02913 1.00722 0
M  V30 6626 H 646.929 -4.1528 0.715571 0
M  V30 6627 H 645.653 -3.26249 -0.151374 0
M  V30 6628 H 644.312 -3.08911 1.97408 0
M  V30 6629 H 643.96 -5.01284 0.41518 0
M  V30 6630 H 643.66 -5.48547 2.1064 0
M  V30 6631 H 645.184 -5.96459 1.30649 0
M  V30 6632 H 646.598 -4.74252 3.22115 0
M  V30 6633 H 644.995 -4.49717 3.97334 0
M  V30 6634 H 646.065 -3.10583 3.72379 0
M  V30 6635 N 647.408 -1.11026 -1.11852 0
M  V30 6636 C 648.341 -0.708501 -2.16923 0
M  V30 6637 C 649.319 0.293196 -1.59935 0
M  V30 6638 O 650.503 0.190641 -1.87533 0
M  V30 6639 C 647.63 -0.0463705 -3.38668 0
M  V30 6640 C 646.676 -1.01252 -4.14307 0
M  V30 6641 S 647.509 -2.53291 -4.71809 0
M  V30 6642 C 648.665 -1.88366 -5.96883 0
M  V30 6643 H 648.898 -1.59854 -2.50667 0
M  V30 6644 H 646.431 -0.927869 -1.2341 0
M  V30 6645 H 648.389 0.329314 -4.09177 0
M  V30 6646 H 647.05 0.820562 -3.03192 0
M  V30 6647 H 646.243 -0.496596 -5.01548 0
M  V30 6648 H 645.845 -1.33042 -3.49537 0
M  V30 6649 H 648.137 -1.21753 -6.6647 0
M  V30 6650 H 649.08 -2.73588 -6.53112 0
M  V30 6651 H 649.488 -1.34562 -5.48227 0
M  V30 6652 N 648.886 1.2938 -0.899927 0
M  V30 6653 C 650.111 2.00228 -0.540692 0
M  V30 6654 C 650.536 1.66909 0.867359 0
M  V30 6655 O 649.894 0.893824 1.57735 0
M  V30 6656 C 649.942 3.52921 -0.740232 0
M  V30 6657 O 649.046 4.11879 0.207154 0
M  V30 6658 H 648.387 0.629505 -0.211233 0
M  V30 6659 H 650.917 1.6487 -1.21158 0
M  V30 6660 H 650.927 4.0287 -0.644973 0
M  V30 6661 H 649.602 3.76508 -1.76677 0
M  V30 6662 H 648.179 3.72845 0.0643315 0
M  V30 6663 N 650.364 0.662433 1.43002 0
M  V30 6664 C 651.589 0.186003 2.06564 0
M  V30 6665 C 652.014 -1.14314 1.49379 0
M  V30 6666 O 651.372 -1.70824 0.607346 0
M  V30 6667 C 651.42 0.118269 3.60406 0
M  V30 6668 O 650.524 -0.916859 4.02079 0
M  V30 6669 H 649.865 0.0990981 0.656563 0
M  V30 6670 H 652.395 0.907958 1.8335 0
M  V30 6671 H 652.405 -0.0619981 4.07953 0
M  V30 6672 H 651.08 1.08849 4.01403 0
M  V30 6673 H 649.657 -0.708635 3.66105 0
M  V30 6674 N 651.842 -1.52309 0.404946 0
M  V30 6675 C 653.091 -2.00952 -0.173529 0
M  V30 6676 C 653.404 -1.29512 -1.46581 0
M  V30 6677 O 654.61 -1.6895 -2.12528 0
M  V30 6678 C 653.066 -3.58097 -0.359801 0
M  V30 6679 C 652.674 -4.38449 0.920138 0
M  V30 6680 C 654.418 -4.14984 -0.893794 0
M  V30 6681 C 652.325 -5.87227 0.701285 0
M  V30 6682 H 651.255 -0.750871 -0.0686244 0
M  V30 6683 H 653.906 -1.75687 0.529749 0
M  V30 6684 H 652.288 -3.79675 -1.12531 0
M  V30 6685 H 653.462 -4.28633 1.69147 0
M  V30 6686 H 651.777 -3.92859 1.38024 0
M  V30 6687 H 654.374 -5.23813 -1.0735 0
M  V30 6688 H 654.717 -3.72072 -1.8673 0
M  V30 6689 H 655.25 -3.97358 -0.187453 0
M  V30 6690 H 651.989 -6.34491 1.64624 0
M  V30 6691 H 651.509 -5.99792 -0.0308288 0
M  V30 6692 H 653.188 -6.46096 0.341846 0
M  V30 6693 N 653.32 -0.135238 -1.57019 0
M  V30 6694 C 654.25 0.805235 -2.19176 0
M  V30 6695 C 655.231 1.2656 -1.13651 0
M  V30 6696 O 656.416 1.32528 -1.4195 0
M  V30 6697 C 653.546 2.04914 -2.80406 0
M  V30 6698 C 652.5 1.72598 -3.91655 0
M  V30 6699 C 651.826 3.04154 -4.39766 0
M  V30 6700 C 653.126 0.981709 -5.12991 0
M  V30 6701 H 654.82 0.287232 -2.98019 0
M  V30 6702 H 652.366 0.136714 -1.4335 0
M  V30 6703 H 654.319 2.71178 -3.22553 0
M  V30 6704 H 653.043 2.59067 -1.98877 0
M  V30 6705 H 651.702 1.08717 -3.50109 0
M  V30 6706 H 651.35 3.56274 -3.55075 0
M  V30 6707 H 651.05 2.83299 -5.14796 0
M  V30 6708 H 652.574 3.71509 -4.84576 0
M  V30 6709 H 653.988 1.5462 -5.52056 0
M  V30 6710 H 652.385 0.873533 -5.93708 0
M  V30 6711 H 653.455 -0.0286887 -4.84892 0
M  V30 6712 N 654.798 1.5699 0.138552 0
M  V30 6713 C 656.026 1.87976 0.864437 0
M  V30 6714 C 656.441 0.724372 1.74351 0
M  V30 6715 O 655.798 -0.305575 1.79924 0
M  V30 6716 C 655.849 3.18276 1.71414 0
M  V30 6717 O 655.57 4.29365 0.870487 0
M  V30 6718 C 657.071 3.62834 2.54688 0
M  V30 6719 H 654.291 0.622878 0.249528 0
M  V30 6720 H 656.835 2.04094 0.128805 0
M  V30 6721 H 654.99 3.03886 2.40274 0
M  V30 6722 H 655.404 5.03924 1.45466 0
M  V30 6723 H 656.878 4.5682 3.0987 0
M  V30 6724 H 657.355 2.88533 3.31127 0
M  V30 6725 H 657.961 3.79946 1.91105 0
M  V30 6726 N 656.276 -0.40816 1.52223 0
M  V30 6727 C 657.501 -1.18127 1.70472 0
M  V30 6728 C 657.926 -1.83491 0.41384 0
M  V30 6729 O 657.284 -1.70047 -0.628778 0
M  V30 6730 C 657.332 -2.21935 2.84213 0
M  V30 6731 O 656.436 -3.28099 2.4985 0
M  V30 6732 H 655.777 -0.344781 0.56747 0
M  V30 6733 H 658.307 -0.478328 1.9893 0
M  V30 6734 H 658.317 -2.66248 3.09153 0
M  V30 6735 H 656.992 -1.73744 3.7787 0
M  V30 6736 H 655.569 -2.89058 2.35584 0
M  V30 6737 N 657.755 -1.42862 -0.66545 0
M  V30 6738 C 659.004 -1.43119 -1.42126 0
M  V30 6739 C 659.317 -0.0545297 -1.95524 0
M  V30 6740 O 660.523 0.0654747 -2.71421 0
M  V30 6741 C 658.979 -2.51797 -2.5715 0
M  V30 6742 C 658.587 -3.95514 -2.10411 0
M  V30 6743 C 660.331 -2.61233 -3.346 0
M  V30 6744 C 658.238 -4.95682 -3.22573 0
M  V30 6745 H 657.168 -0.532349 -0.533966 0
M  V30 6746 H 659.819 -1.68806 -0.719506 0
M  V30 6747 H 658.201 -2.19292 -3.29738 0
M  V30 6748 H 659.375 -4.3742 -1.44915 0
M  V30 6749 H 657.69 -3.90012 -1.45874 0
M  V30 6750 H 660.287 -3.33248 -4.18151 0
M  V30 6751 H 660.63 -1.65896 -3.81817 0
M  V30 6752 H 661.163 -2.9298 -2.69087 0
M  V30 6753 H 657.902 -5.92529 -2.80338 0
M  V30 6754 H 657.422 -4.58399 -3.86821 0
M  V30 6755 H 659.101 -5.17828 -3.87896 0
M  V30 6756 N 659.233 0.902656 -1.29189 0
M  V30 6757 C 660.51 1.63296 -1.07674 0
M  V30 6758 C 660.89 2.07649 0.380137 0
M  V30 6759 O 660.238 1.82997 1.36837 0
M  V30 6760 C 660.448 2.81603 -2.06158 0
M  V30 6761 C 661.796 3.52359 -2.36914 0
M  V30 6762 O 662.82 2.91767 -2.04329 0
M  V30 6763 O 661.679 4.61586 -2.92576 0
M  V30 6764 H 658.773 0.716889 -0.41231 0
M  V30 6765 H 661.319 0.950984 -1.4055 0
M  V30 6766 H 660.091 2.46004 -3.04299 0
M  V30 6767 H 659.714 3.57508 -1.73993 0
M  V30 6768 N 660.711 1.11618 1.11262 0
M  V30 6769 C 661.674 0.779447 2.15539 0
M  V30 6770 C 662.674 -0.202081 1.59525 0
M  V30 6771 O 663.864 0.0226356 1.74185 0
M  V30 6772 C 660.996 0.15674 3.40539 0
M  V30 6773 H 662.189 1.70324 2.4684 0
M  V30 6774 H 659.742 0.918298 1.26479 0
M  V30 6775 H 660.477 -0.777186 3.1485 0
M  V30 6776 H 660.262 0.863308 3.82478 0
M  V30 6777 H 661.752 -0.062661 4.17553 0
M  V30 6778 N 662.189 -1.289 0.906776 0
M  V30 6779 C 663.414 -1.99939 0.551303 0
M  V30 6780 C 663.839 -1.67366 -0.858496 0
M  V30 6781 O 663.197 -0.902176 -1.57259 0
M  V30 6782 C 663.245 -3.52523 0.758937 0
M  V30 6783 O 662.349 -4.11983 -0.185308 0
M  V30 6784 H 661.69 -0.628376 0.214568 0
M  V30 6785 H 664.22 -1.64225 1.2203 0
M  V30 6786 H 664.23 -4.02522 0.666329 0
M  V30 6787 H 662.905 -3.75566 1.78671 0
M  V30 6788 H 661.482 -3.72873 -0.0445577 0
M  V30 6789 N 663.667 -0.670007 -1.42649 0
M  V30 6790 C 664.614 0.0112928 -2.30797 0
M  V30 6791 C 665.584 0.797627 -1.45695 0
M  V30 6792 O 666.769 0.770845 -1.74535 0
M  V30 6793 C 663.909 0.95998 -3.31479 0
M  V30 6794 C 663.022 0.167975 -4.31673 0
M  V30 6795 C 662.157 1.11198 -5.19431 0
M  V30 6796 C 661.196 0.311381 -6.11307 0
M  V30 6797 N 660.333 1.20784 -6.91633 0
M  V30 6798 H 665.173 -0.746231 -2.88505 0
M  V30 6799 H 662.71 -0.379739 -1.42114 0
M  V30 6800 H 664.668 1.52379 -3.88377 0
M  V30 6801 H 663.298 1.68419 -2.75382 0
M  V30 6802 H 662.35 -0.512385 -3.76933 0
M  V30 6803 H 663.662 -0.453814 -4.96731 0
M  V30 6804 H 662.816 1.74587 -5.81037 0
M  V30 6805 H 661.555 1.76766 -4.54538 0
M  V30 6806 H 660.56 -0.335758 -5.48774 0
M  V30 6807 H 661.785 -0.340135 -6.78248 0
M  V30 6808 H 659.731 1.85001 -6.29373 0
M  V30 6809 H 659.648 0.64102 -7.53277 0
M  V30 6810 H 660.916 1.82936 -7.5773 0
M  V30 6811 N 665.145 1.52092 -0.413018 0
M  V30 6812 C 666.556 1.86617 0.0556967 0
M  V30 6813 C 666.907 1.33156 1.44097 0
M  V30 6814 O 666.032 0.672417 2.05688 0
M  V30 6815 C 666.627 3.38628 0.107844 0
M  V30 6816 C 665.186 3.72778 0.520904 0
M  V30 6817 C 664.333 2.75649 -0.302109 0
M  V30 6818 H 667.284 1.45663 -0.629919 0
M  V30 6819 H 667.305 3.69152 0.922324 0
M  V30 6820 H 666.817 3.77508 -0.900506 0
M  V30 6821 H 664.918 3.39478 1.53575 0
M  V30 6822 H 665.031 4.7838 0.262591 0
M  V30 6823 H 663.395 2.53603 0.236115 0
M  V30 6824 H 664.178 3.17369 -1.30888 0
M  V30 6825 N 666.623 0.143563 1.56945 0
M  V30 6826 C 667.869 -0.502787 1.97088 0
M  V30 6827 C 668.224 -1.62703 1.02691 0
M  V30 6828 O 667.517 -1.91502 0.0613323 0
M  V30 6829 C 667.711 -1.05885 3.41355 0
M  V30 6830 C 667.54 0.00998209 4.49699 0
M  V30 6831 C 666.31 0.450229 5.0329 0
M  V30 6832 C 668.508 0.800174 5.08037 0
M  V30 6833 N 666.49 1.50227 5.95235 0
M  V30 6834 C 667.861 1.70279 5.96158 0
M  V30 6835 C 669.916 0.848344 4.9062 0
M  V30 6836 C 668.619 2.64945 6.68728 0
M  V30 6837 C 670.645 1.78281 5.63888 0
M  V30 6838 C 670.007 2.67296 6.51715 0
M  V30 6839 H 666.106 -0.152891 0.766908 0
M  V30 6840 H 668.69 0.23737 1.93248 0
M  V30 6841 H 666.861 -1.76863 3.45795 0
M  V30 6842 H 668.593 -1.67154 3.68567 0
M  V30 6843 H 665.348 0.0531355 4.7357 0
M  V30 6844 H 665.772 2.02795 6.45913 0
M  V30 6845 H 670.414 0.174228 4.22441 0
M  V30 6846 H 668.132 3.33358 7.36137 0
M  V30 6847 H 671.718 1.82584 5.52408 0
M  V30 6848 H 670.598 3.38428 7.07415 0
M  V30 6849 N 668.101 -1.57061 -0.130224 0
M  V30 6850 C 669.326 -1.88802 -0.858409 0
M  V30 6851 C 669.751 -0.734353 -1.73173 0
M  V30 6852 O 669.109 0.315529 -1.78533 0
M  V30 6853 C 669.157 -3.19228 -1.67708 0
M  V30 6854 O 668.261 -3.04343 -2.78297 0
M  V30 6855 H 667.602 -0.619849 -0.238083 0
M  V30 6856 H 670.132 -2.04271 -0.115995 0
M  V30 6857 H 670.142 -3.51669 -2.06864 0
M  V30 6858 H 668.817 -4.02793 -1.0359 0
M  V30 6859 H 667.394 -2.83346 -2.42425 0
M  V30 6860 N 669.579 0.400081 -1.52437 0
M  V30 6861 C 670.526 1.48803 -1.76426 0
M  V30 6862 C 671.496 1.5461 -0.607032 0
M  V30 6863 O 672.681 1.71041 -0.845563 0
M  V30 6864 C 669.821 2.86156 -1.92896 0
M  V30 6865 C 668.934 2.89587 -3.20567 0
M  V30 6866 C 668.069 4.18296 -3.27417 0
M  V30 6867 C 667.108 4.15736 -4.49255 0
M  V30 6868 N 666.245 5.36032 -4.53447 0
M  V30 6869 H 671.085 1.27649 -2.69276 0
M  V30 6870 H 668.622 0.619451 -1.33421 0
M  V30 6871 H 670.58 3.65901 -2.00429 0
M  V30 6872 H 669.21 3.05785 -1.03418 0
M  V30 6873 H 668.262 2.02278 -3.22161 0
M  V30 6874 H 669.574 2.83562 -4.10358 0
M  V30 6875 H 668.728 5.06439 -3.34072 0
M  V30 6876 H 667.467 4.27028 -2.35581 0
M  V30 6877 H 666.472 3.25982 -4.42737 0
M  V30 6878 H 667.697 4.08636 -5.42396 0
M  V30 6879 H 665.643 5.45415 -3.64498 0
M  V30 6880 H 665.56 5.32038 -5.37096 0
M  V30 6881 H 666.828 6.26104 -4.64343 0
M  V30 6882 N 671.057 1.43213 0.657864 0
M  V30 6883 C 672.297 1.46083 1.42965 0
M  V30 6884 C 672.661 0.0809712 1.91829 0
M  V30 6885 O 673.862 -0.0156305 2.68795 0
M  V30 6886 C 672.133 2.47044 2.58271 0
M  V30 6887 S 673.692 2.68753 3.46868 0
M  V30 6888 H 670.51 0.517015 0.488074 0
M  V30 6889 H 673.112 1.79945 0.764213 0
M  V30 6890 H 671.816 3.46044 2.20639 0
M  V30 6891 H 671.347 2.14665 3.2967 0
M  V30 6892 H 673.362 1.98329 4.54841 0
M  V30 6893 N 672.536 -0.895792 1.29666 0
M  V30 6894 C 673.764 -1.68001 1.20761 0
M  V30 6895 C 674.179 -1.87379 -0.231187 0
M  V30 6896 O 673.536 -1.41359 -1.15429 0
M  V30 6897 C 673.587 -3.06236 1.92098 0
M  V30 6898 O 673.308 -2.8774 3.30359 0
M  V30 6899 C 674.809 -4.00652 1.89717 0
M  V30 6900 H 672.029 -0.524591 0.418384 0
M  V30 6901 H 674.573 -1.11995 1.71106 0
M  V30 6902 H 672.728 -3.59007 1.45578 0
M  V30 6903 H 673.142 -3.75359 3.66342 0
M  V30 6904 H 674.616 -4.95051 2.44189 0
M  V30 6905 H 675.093 -4.30424 0.873595 0
M  V30 6906 H 675.699 -3.53815 2.35998 0
M  V30 6907 N 674.014 -1.12206 -1.10668 0
M  V30 6908 C 675.239 -0.898938 -1.86906 0
M  V30 6909 C 675.664 0.546346 -1.79991 0
M  V30 6910 O 675.022 1.38655 -1.1681 0
M  V30 6911 C 675.07 -1.37529 -3.33344 0
M  V30 6912 O 674.174 -0.55218 -4.08687 0
M  V30 6913 H 673.515 -0.323163 -0.580053 0
M  V30 6914 H 676.045 -1.49355 -1.39837 0
M  V30 6915 H 676.055 -1.3733 -3.84193 0
M  V30 6916 H 674.73 -2.42767 -3.37693 0
M  V30 6917 H 673.307 -0.620947 -3.67694 0
M  V30 6918 N 675.492 1.28418 -0.913599 0
M  V30 6919 C 676.455 2.25564 -0.406624 0
M  V30 6920 C 677.455 1.5387 0.466965 0
M  V30 6921 O 678.645 1.72094 0.270042 0
M  V30 6922 C 675.777 3.38339 0.417053 0
M  V30 6923 H 676.97 2.71926 -1.26477 0
M  V30 6924 H 674.523 1.40098 -0.692986 0
M  V30 6925 H 675.258 2.97339 1.29461 0
M  V30 6926 H 675.043 3.91542 -0.209102 0
M  V30 6927 H 676.533 4.10578 0.762602 0
M  V30 6928 N 676.97 0.677563 1.42291 0
M  V30 6929 C 678.198 0.209459 2.05837 0
M  V30 6930 C 678.613 -1.13444 1.50917 0
M  V30 6931 O 677.97 -1.70529 0.65008 0
M  V30 6932 C 678.021 0.138819 3.61233 0
M  V30 6933 O 677.742 1.42962 4.14118 0
M  V30 6934 C 679.243 -0.352449 4.41897 0
M  V30 6935 H 676.463 0.101209 0.663323 0
M  V30 6936 H 679.007 0.925077 1.8238 0
M  V30 6937 H 677.162 -0.527505 3.83792 0
M  V30 6938 H 677.576 1.3048 5.08011 0
M  V30 6939 H 679.05 -0.350778 5.50884 0
M  V30 6940 H 679.527 -1.3882 4.16684 0
M  V30 6941 H 680.133 0.282236 4.24362 0
M  V30 6942 N 678.448 -1.51871 0.421078 0
M  V30 6943 C 679.697 -2.01125 -0.152206 0
M  V30 6944 C 680.01 -1.3106 -1.45199 0
M  V30 6945 O 681.216 -1.71195 -2.10724 0
M  V30 6946 C 679.672 -3.58458 -0.3218 0
M  V30 6947 C 679.28 -4.37448 0.96659 0
M  V30 6948 C 681.024 -4.15908 -0.84973 0
M  V30 6949 C 678.931 -5.86451 0.763529 0
M  V30 6950 H 677.861 -0.751556 -0.0606565 0
M  V30 6951 H 680.512 -1.75115 0.548354 0
M  V30 6952 H 678.894 -3.80847 -1.08498 0
M  V30 6953 H 680.068 -4.26814 1.73684 0
M  V30 6954 H 678.383 -3.91373 1.42183 0
M  V30 6955 H 680.98 -5.24922 -1.01788 0
M  V30 6956 H 681.323 -3.74031 -1.82774 0
M  V30 6957 H 681.856 -3.97535 -0.145297 0
M  V30 6958 H 678.595 -6.3271 1.71344 0
M  V30 6959 H 678.115 -5.99791 0.0327889 0
M  V30 6960 H 679.794 -6.45697 0.410354 0
M  V30 6961 N 679.926 -0.151884 -1.56866 0
M  V30 6962 C 681.154 0.504813 -2.00647 0
M  V30 6963 C 681.569 1.58098 -1.03201 0
M  V30 6964 O 680.926 1.82476 -0.0297814 0
M  V30 6965 C 680.977 1.10099 -3.44326 0
M  V30 6966 O 680.698 0.0678021 -4.38048 0
M  V30 6967 C 682.199 1.83782 -4.03409 0
M  V30 6968 H 679.419 0.130989 -0.65809 0
M  V30 6969 H 681.963 -0.247903 -2.02992 0
M  V30 6970 H 680.118 1.8043 -3.42817 0
M  V30 6971 H 680.532 0.505237 -5.22061 0
M  V30 6972 H 682.006 2.2078 -5.05925 0
M  V30 6973 H 682.483 2.72557 -3.44397 0
M  V30 6974 H 683.089 1.18138 -4.08563 0
M  V30 6975 N 681.404 1.57128 0.121893 0
M  V30 6976 C 682.314 2.03425 1.16857 0
M  V30 6977 C 683.33 0.954108 1.45509 0
M  V30 6978 O 684.506 1.26541 1.56682 0
M  V30 6979 C 681.571 2.42685 2.47599 0
M  V30 6980 C 680.632 3.64767 2.2637 0
M  V30 6981 C 679.865 4.02145 3.50878 0
M  V30 6982 O 680.088 3.39897 4.58068 0
M  V30 6983 O 679.022 4.95262 3.42051 0
M  V30 6984 H 682.848 2.92825 0.80544 0
M  V30 6985 H 680.433 1.45654 0.332477 0
M  V30 6986 H 682.315 2.68684 3.24634 0
M  V30 6987 H 680.99 1.56432 2.83392 0
M  V30 6988 H 679.897 3.43922 1.47203 0
M  V30 6989 H 681.23 4.51716 1.95482 0
M  V30 6990 N 682.882 -0.391992 1.52647 0
M  V30 6991 C 684.129 -1.13732 1.67545 0
M  V30 6992 C 684.457 -1.90045 0.413881 0
M  V30 6993 O 683.712 -1.86157 -0.603646 0
M  V30 6994 C 684.011 -2.14401 2.85949 0
M  V30 6995 C 683.677 -1.54767 4.23507 0
M  V30 6996 C 682.339 -1.38229 4.60919 0
M  V30 6997 C 684.691 -1.11382 5.0916 0
M  V30 6998 C 682.019 -0.7685 5.81645 0
M  V30 6999 C 684.371 -0.514143 6.30507 0
M  V30 7000 C 683.035 -0.33604 6.66654 0
M  V30 7001 H 682.305 -0.416174 0.613091 0
M  V30 7002 H 684.952 -0.422327 1.86785 0
M  V30 7003 H 683.257 -2.92108 2.61114 0
M  V30 7004 H 684.954 -2.71974 2.94671 0
M  V30 7005 H 681.544 -1.68626 3.94035 0
M  V30 7006 H 685.728 -1.22962 4.80826 0
M  V30 7007 H 680.984 -0.618681 6.08262 0
M  V30 7008 H 685.158 -0.169657 6.96193 0
M  V30 7009 H 682.785 0.14166 7.60068 0
M  V30 7010 N 684.36 -1.4356 -0.65026 0
M  V30 7011 C 685.29 -1.51758 -1.77459 0
M  V30 7012 C 686.271 -0.372019 -1.65982 0
M  V30 7013 O 687.456 -0.589627 -1.85033 0
M  V30 7014 C 684.586 -1.44302 -3.15902 0
M  V30 7015 C 683.54 -2.57138 -3.42146 0
M  V30 7016 C 682.866 -2.34735 -4.8042 0
M  V30 7017 C 684.166 -3.99373 -3.36598 0
M  V30 7018 H 685.86 -2.45863 -1.70855 0
M  V30 7019 H 683.406 -1.18333 -0.820566 0
M  V30 7020 H 685.359 -1.48641 -3.94314 0
M  V30 7021 H 684.083 -0.467026 -3.23244 0
M  V30 7022 H 682.742 -2.52157 -2.66106 0
M  V30 7023 H 682.39 -1.35372 -4.84441 0
M  V30 7024 H 682.09 -3.10375 -4.9894 0
M  V30 7025 H 683.614 -2.40862 -5.61086 0
M  V30 7026 H 685.028 -4.05826 -4.04942 0
M  V30 7027 H 683.425 -4.75063 -3.66654 0
M  V30 7028 H 684.495 -4.243 -2.34729 0
M  V30 7029 N 685.838 0.888903 -1.30139 0
M  V30 7030 C 687.115 1.62145 -1.094 0
M  V30 7031 C 687.495 2.08041 0.358091 0
M  V30 7032 O 686.843 1.84438 1.34888 0
M  V30 7033 C 687.053 2.794 -2.09133 0
M  V30 7034 C 688.401 3.49826 -2.40638 0
M  V30 7035 O 689.425 2.89583 -2.07412 0
M  V30 7036 O 688.284 4.58457 -2.97455 0
M  V30 7037 H 685.378 0.712475 -0.41989 0
M  V30 7038 H 687.924 0.936023 -1.41551 0
M  V30 7039 H 686.696 2.42762 -3.06891 0
M  V30 7040 H 686.319 3.55643 -1.77776 0
M  V30 7041 N 687.317 1.12792 1.10072 0
M  V30 7042 C 688.594 0.796867 1.78632 0
M  V30 7043 C 688.974 -0.712739 1.98704 0
M  V30 7044 O 688.322 -1.64773 1.5831 0
M  V30 7045 C 688.532 1.57622 3.11378 0
M  V30 7046 C 689.88 1.76463 3.86194 0
M  V30 7047 O 690.904 1.54165 3.2111 0
M  V30 7048 O 689.763 2.13623 5.03018 0
M  V30 7049 H 686.857 0.290248 0.774394 0
M  V30 7050 H 689.403 1.23215 1.16688 0
M  V30 7051 H 688.175 2.60246 2.92212 0
M  V30 7052 H 687.798 1.13543 3.81043 0
M  V30 7053 N 688.795 -1.27931 0.920396 0
M  V30 7054 C 690.043 -1.94304 0.555906 0
M  V30 7055 C 690.364 -1.72753 -0.904519 0
M  V30 7056 O 689.634 -1.07104 -1.64029 0
M  V30 7057 H 688.214 -0.719001 0.202599 0
M  V30 7058 H 690.876 -1.55785 1.1712 0
M  V30 7059 H 689.972 -3.02806 0.755981 0
M  V30 7060 N 690.273 -0.685099 -1.4193 0
M  V30 7061 C 691.223 0.00977295 -2.27998 0
M  V30 7062 C 692.207 0.763315 -1.41641 0
M  V30 7063 O 693.399 0.640532 -1.65004 0
M  V30 7064 C 690.528 0.952972 -3.29808 0
M  V30 7065 C 689.614 0.196231 -4.23646 0
M  V30 7066 N 690.005 -0.804401 -4.99363 0
M  V30 7067 C 688.303 0.433213 -4.43891 0
M  V30 7068 C 689.004 -1.25646 -5.67968 0
M  V30 7069 N 687.98 -0.5844 -5.4045 0
M  V30 7070 H 691.782 -0.757586 -2.83968 0
M  V30 7071 H 689.296 -0.515037 -1.54017 0
M  V30 7072 H 691.293 1.46585 -3.9028 0
M  V30 7073 H 689.953 1.72004 -2.75399 0
M  V30 7074 H 690.964 -1.18429 -5.04177 0
M  V30 7075 H 687.641 1.17899 -4.00507 0
M  V30 7076 H 689.031 -2.08622 -6.38691 0
M  V30 7077 N 691.751 1.51645 -0.429126 0
M  V30 7078 C 692.999 2.01616 0.139802 0
M  V30 7079 C 693.32 1.31568 1.43927 0
M  V30 7080 O 692.59 0.447688 1.90716 0
M  V30 7081 H 691.17 0.744998 0.054654 0
M  V30 7082 H 693.832 1.8638 -0.569952 0
M  V30 7083 H 692.928 3.10439 0.321609 0
M  V30 7084 N 693.229 0.160201 1.56784 0
M  V30 7085 C 694.177 -0.791402 2.18723 0
M  V30 7086 C 695.171 -1.24567 1.14801 0
M  V30 7087 O 696.377 -1.21262 1.33025 0
M  V30 7088 H 692.752 -0.273458 0.700517 0
M  V30 7089 H 694.723 -0.244931 2.97393 0
M  V30 7090 C 693.472 -2.01509 2.83354 0
M  V30 7091 H 692.795 -1.67454 3.63041 0
M  V30 7092 H 694.235 -2.66006 3.30177 0
M  V30 7093 C 692.694 -2.83159 1.82545 0
M  V30 7094 O 693.224 -3.79944 1.30405 0
M  V30 7095 N 691.43 -2.47953 1.51552 0
M  V30 7096 H 690.977 -1.69309 1.94144 0
M  V30 7097 H 690.935 -3.02873 0.843519 0
M  V30 7098 N 694.707 -1.5719 -0.113559 0
M  V30 7099 C 695.947 -1.86958 -0.82621 0
M  V30 7100 C 696.311 -0.748884 -1.76793 0
M  V30 7101 O 697.512 -0.92847 -2.52256 0
M  V30 7102 C 695.783 -3.21957 -1.55173 0
M  V30 7103 S 697.342 -3.73371 -2.3052 0
M  V30 7104 H 694.16 -0.655394 -0.275643 0
M  V30 7105 H 696.762 -1.95318 -0.0842684 0
M  V30 7106 H 695.466 -4.01459 -0.851977 0
M  V30 7107 H 694.997 -3.16688 -2.33393 0
M  V30 7108 H 697.012 -3.45308 -3.56338 0
M  V30 7109 N 696.185 0.383891 -1.52853 0
M  V30 7110 C 697.115 1.47559 -1.80965 0
M  V30 7111 C 698.096 1.5669 -0.661986 0
M  V30 7112 O 699.281 1.71556 -0.910072 0
M  V30 7113 C 696.411 2.85114 -1.98312 0
M  V30 7114 C 695.365 2.9082 -3.14019 0
M  V30 7115 C 694.691 4.30873 -3.16627 0
M  V30 7116 C 695.991 2.60001 -4.52986 0
M  V30 7117 H 697.685 1.24283 -2.72386 0
M  V30 7118 H 695.231 0.596445 -1.31067 0
M  V30 7119 H 697.184 3.61496 -2.16561 0
M  V30 7120 H 695.908 3.09738 -1.03585 0
M  V30 7121 H 694.567 2.16886 -2.9556 0
M  V30 7122 H 694.215 4.52545 -2.19573 0
M  V30 7123 H 693.915 4.3561 -3.94357 0
M  V30 7124 H 695.439 5.09154 -3.37038 0
M  V30 7125 H 696.853 3.261 -4.71521 0
M  V30 7126 H 695.25 2.76081 -5.32822 0
M  V30 7127 H 696.32 1.5532 -4.59351 0
M  V30 7128 N 697.663 1.43903 0.642637 0
M  V30 7129 C 698.593 1.52697 1.76652 0
M  V30 7130 C 699.574 0.380816 1.65782 0
M  V30 7131 O 700.759 0.599432 1.84717 0
M  V30 7132 C 697.889 1.45975 3.15133 0
M  V30 7133 C 696.843 2.58949 3.40778 0
M  V30 7134 C 696.169 2.37279 4.79169 0
M  V30 7135 C 697.469 4.01153 3.34475 0
M  V30 7136 H 699.163 2.46766 1.69549 0
M  V30 7137 H 696.709 1.18767 0.814279 0
M  V30 7138 H 698.662 1.5073 3.93521 0
M  V30 7139 H 697.386 0.484162 3.22991 0
M  V30 7140 H 696.045 2.53564 2.64765 0
M  V30 7141 H 695.693 1.37939 4.83717 0
M  V30 7142 H 695.393 3.13016 4.97287 0
M  V30 7143 H 696.917 2.43834 5.59801 0
M  V30 7144 H 698.331 4.07968 4.02784 0
M  V30 7145 H 696.728 4.77001 3.64129 0
M  V30 7146 H 697.798 4.25539 2.32475 0
M  V30 7147 N 699.141 -0.881989 1.30609 0
M  V30 7148 C 700.418 -1.61563 1.10258 0
M  V30 7149 C 700.798 -2.08228 -0.347053 0
M  V30 7150 O 700.146 -1.85151 -1.33908 0
M  V30 7151 C 700.356 -2.78287 2.10612 0
M  V30 7152 C 701.704 -3.48545 2.4249 0
M  V30 7153 O 702.728 -2.88479 2.08945 0
M  V30 7154 O 701.587 -4.56873 2.99883 0
M  V30 7155 H 698.681 -0.710238 0.423663 0
M  V30 7156 H 701.227 -0.928503 1.42045 0
M  V30 7157 H 699.999 -2.41131 3.08174 0
M  V30 7158 H 699.622 -3.54695 1.79659 0
M  V30 7159 N 700.619 -1.13374 -1.09472 0
M  V30 7160 C 701.549 -0.833268 -2.18126 0
M  V30 7161 C 702.53 0.207169 -1.68834 0
M  V30 7162 O 703.715 0.0662012 -1.94087 0
M  V30 7163 C 700.845 -0.297979 -3.46019 0
M  V30 7164 C 699.799 -1.27261 -4.08642 0
M  V30 7165 C 699.125 -0.597104 -5.31356 0
M  V30 7166 C 700.425 -2.63095 -4.51197 0
M  V30 7167 H 702.119 -1.74182 -2.43518 0
M  V30 7168 H 699.665 -0.838921 -1.17039 0
M  V30 7169 H 701.618 -0.0754444 -4.21332 0
M  V30 7170 H 700.342 0.645959 -3.20148 0
M  V30 7171 H 699.001 -1.48113 -3.35348 0
M  V30 7172 H 698.649 0.352293 -5.01765 0
M  V30 7173 H 698.349 -1.24734 -5.74208 0
M  V30 7174 H 699.873 -0.38384 -6.09392 0
M  V30 7175 H 701.287 -2.46214 -5.17737 0
M  V30 7176 H 699.684 -3.2429 -5.04932 0
M  V30 7177 H 700.754 -3.20793 -3.6362 0
M  V30 7178 N 702.098 1.27442 -0.927168 0
M  V30 7179 C 703.509 1.76385 -0.611979 0
M  V30 7180 C 703.86 1.75715 0.872853 0
M  V30 7181 O 702.985 1.3603 1.683 0
M  V30 7182 C 703.58 3.20303 -1.10414 0
M  V30 7183 C 702.139 3.66916 -0.839628 0
M  V30 7184 C 701.286 2.46859 -1.26317 0
M  V30 7185 H 704.237 1.13716 -1.107 0
M  V30 7186 H 704.258 3.77811 -0.451578 0
M  V30 7187 H 703.77 3.20759 -2.18484 0
M  V30 7188 H 701.871 3.71906 0.227292 0
M  V30 7189 H 701.984 4.56415 -1.45679 0
M  V30 7190 H 700.348 2.45407 -0.681723 0
M  V30 7191 H 701.131 2.50025 -2.3525 0
M  V30 7192 N 703.576 0.692616 1.41565 0
M  V30 7193 C 704.992 0.363878 1.55397 0
M  V30 7194 C 705.192 -1.1294 1.66874 0
M  V30 7195 O 704.248 -1.91517 1.64552 0
M  V30 7196 C 705.561 1.10982 2.7947 0
M  V30 7197 C 707.109 1.09387 2.93263 0
M  V30 7198 C 707.584 1.8215 4.20221 0
M  V30 7199 N 709.075 1.79105 4.27172 0
M  V30 7200 C 709.81 2.32247 5.2426 0
M  V30 7201 N 709.306 2.93847 6.27396 0
M  V30 7202 N 711.099 2.22519 5.1618 0
M  V30 7203 H 703.25 1.66116 1.3236 0
M  V30 7204 H 705.513 0.700848 0.63837 0
M  V30 7205 H 705.219 2.1647 2.77188 0
M  V30 7206 H 705.093 0.686492 3.709 0
M  V30 7207 H 707.48 0.0472638 2.95062 0
M  V30 7208 H 707.561 1.55623 2.03015 0
M  V30 7209 H 707.205 2.86789 4.19183 0
M  V30 7210 H 707.135 1.33351 5.09436 0
M  V30 7211 H 709.626 1.34191 3.53272 0
M  V30 7212 H 709.939 3.31972 6.97864 0
M  V30 7213 H 708.284 2.97924 6.27906 0
M  V30 7214 H 711.475 1.7407 4.34531 0
M  V30 7215 H 711.648 2.64239 5.91677 0
M  V30 7216 N 705.054 -1.51416 0.437162 0
M  V30 7217 C 706.001 -2.27743 -0.374374 0
M  V30 7218 C 706.971 -1.31327 -1.01698 0
M  V30 7219 O 708.156 -1.60229 -1.03592 0
M  V30 7220 C 705.296 -3.12241 -1.46969 0
M  V30 7221 C 704.409 -4.23651 -0.845236 0
M  V30 7222 C 703.544 -4.95458 -1.91559 0
M  V30 7223 C 702.583 -5.98789 -1.26956 0
M  V30 7224 N 701.72 -6.64005 -2.28126 0
M  V30 7225 H 706.56 -2.96654 0.282892 0
M  V30 7226 H 704.097 -1.46319 0.151352 0
M  V30 7227 H 706.055 -3.59556 -2.11602 0
M  V30 7228 H 704.685 -2.45445 -2.09659 0
M  V30 7229 H 703.737 -3.803 -0.0872059 0
M  V30 7230 H 705.049 -4.97683 -0.333582 0
M  V30 7231 H 704.203 -5.46321 -2.63854 0
M  V30 7232 H 702.942 -4.21055 -2.46097 0
M  V30 7233 H 701.947 -5.47219 -0.53207 0
M  V30 7234 H 703.172 -6.75149 -0.731509 0
M  V30 7235 H 701.118 -5.92415 -2.81745 0
M  V30 7236 H 701.035 -7.33802 -1.81852 0
M  V30 7237 H 702.303 -7.19498 -2.99905 0
M  V30 7238 N 706.532 -0.168513 -1.56696 0
M  V30 7239 C 707.464 0.794249 -2.14998 0
M  V30 7240 C 708.477 1.1957 -1.10485 0
M  V30 7241 O 709.666 1.13604 -1.37682 0
M  V30 7242 C 706.766 2.08018 -2.67547 0
M  V30 7243 C 705.939 1.84274 -3.96689 0
M  V30 7244 C 704.998 2.97059 -4.3433 0
M  V30 7245 O 704.024 2.67815 -5.02259 0
M  V30 7246 N 705.226 4.24775 -3.9566 0
M  V30 7247 H 707.991 0.295832 -2.98236 0
M  V30 7248 H 705.552 0.0143611 -1.61894 0
M  V30 7249 H 707.544 2.82559 -2.89729 0
M  V30 7250 H 706.114 2.49059 -1.88914 0
M  V30 7251 H 705.334 0.936528 -3.82914 0
M  V30 7252 H 706.622 1.65773 -4.81037 0
M  V30 7253 H 706.02 4.51395 -3.40968 0
M  V30 7254 H 704.577 4.96027 -4.22848 0
M  V30 7255 N 708.01 1.57248 0.105221 0
M  V30 7256 C 709.259 1.84756 0.809198 0
M  V30 7257 C 709.572 0.756262 1.80389 0
M  V30 7258 O 710.778 0.918158 2.55504 0
M  V30 7259 C 709.234 3.27613 1.48989 0
M  V30 7260 C 708.842 4.44788 0.535484 0
M  V30 7261 C 710.586 3.64356 2.17819 0
M  V30 7262 C 708.493 5.78676 1.22019 0
M  V30 7263 H 707.423 0.689139 0.305946 0
M  V30 7264 H 710.074 1.83395 0.0620371 0
M  V30 7265 H 708.456 3.23485 2.28415 0
M  V30 7266 H 709.63 4.60243 -0.226557 0
M  V30 7267 H 707.945 4.16374 -0.0465769 0
M  V30 7268 H 710.542 4.61663 2.69761 0
M  V30 7269 H 710.885 2.92474 2.96251 0
M  V30 7270 H 711.418 3.70328 1.45264 0
M  V30 7271 H 708.157 6.53763 0.476875 0
M  V30 7272 H 707.677 5.67083 1.9539 0
M  V30 7273 H 709.356 6.22897 1.74952 0
M  V30 7274 N 709.488 -0.375779 1.53054 0
M  V30 7275 C 710.418 -1.46598 1.81745 0
M  V30 7276 C 711.399 -1.56337 0.670286 0
M  V30 7277 O 712.584 -1.71071 0.919158 0
M  V30 7278 C 709.714 -2.84058 1.99821 0
M  V30 7279 C 708.668 -2.8915 3.15557 0
M  V30 7280 C 707.994 -4.29187 3.18908 0
M  V30 7281 C 709.294 -2.57595 4.54359 0
M  V30 7282 H 710.988 -1.22837 2.73041 0
M  V30 7283 H 708.534 -0.589485 1.31381 0
M  V30 7284 H 710.487 -3.60342 2.18475 0
M  V30 7285 H 709.211 -3.09184 1.05226 0
M  V30 7286 H 707.87 -2.15316 2.96706 0
M  V30 7287 H 707.518 -4.51374 2.2197 0
M  V30 7288 H 707.218 -4.33512 3.96662 0
M  V30 7289 H 708.742 -5.07359 3.39734 0
M  V30 7290 H 710.156 -3.23595 4.73243 0
M  V30 7291 H 708.553 -2.73252 5.34279 0
M  V30 7292 H 709.623 -1.52882 4.60169 0
M  V30 7293 N 710.966 -1.44241 -0.634997 0
M  V30 7294 C 712.214 -1.46531 -1.39187 0
M  V30 7295 C 712.535 -0.0976441 -1.94755 0
M  V30 7296 O 711.805 0.869528 -1.75545 0
M  V30 7297 H 710.385 -0.539544 -0.516625 0
M  V30 7298 H 713.047 -1.79989 -0.747655 0
M  V30 7299 H 712.143 -2.18848 -2.22513 0
M  V30 7300 N 712.444 0.87505 -1.31075 0
M  V30 7301 C 713.855 1.4433 -1.18431 0
M  V30 7302 C 714.206 1.9506 0.211189 0
M  V30 7303 O 713.331 1.85847 1.10859 0
M  V30 7304 C 713.926 2.62341 -2.14389 0
M  V30 7305 C 712.485 3.15225 -2.05694 0
M  V30 7306 C 711.632 1.87929 -2.03907 0
M  V30 7307 H 714.583 0.684061 -1.432 0
M  V30 7308 H 714.604 3.3887 -1.73053 0
M  V30 7309 H 714.116 2.25388 -3.15946 0
M  V30 7310 H 712.217 3.56812 -1.07314 0
M  V30 7311 H 712.33 3.77853 -2.94558 0
M  V30 7312 H 710.694 2.06679 -1.48849 0
M  V30 7313 H 711.477 1.53221 -3.07211 0
M  V30 7314 N 713.922 1.13953 1.08869 0
M  V30 7315 C 714.832 0.835666 2.19212 0
M  V30 7316 C 715.848 -0.182005 1.73045 0
M  V30 7317 O 717.024 -0.0116661 2.01397 0
M  V30 7318 C 714.089 0.312325 3.4529 0
M  V30 7319 C 713.15 1.39196 4.06107 0
M  V30 7320 C 712.383 0.893496 5.26168 0
M  V30 7321 O 712.606 -0.266807 5.69776 0
M  V30 7322 O 711.54 1.67037 5.78258 0
M  V30 7323 H 715.366 1.75769 2.47667 0
M  V30 7324 H 712.951 0.917421 1.17914 0
M  V30 7325 H 714.833 0.0261582 4.21392 0
M  V30 7326 H 713.508 -0.582042 3.18424 0
M  V30 7327 H 712.415 1.73152 3.31616 0
M  V30 7328 H 713.748 2.26068 4.37212 0
M  V30 7329 N 715.4 -1.26948 0.933913 0
M  V30 7330 C 716.31 -2.30366 0.443671 0
M  V30 7331 C 717.326 -1.67284 -0.478745 0
M  V30 7332 O 718.502 -1.98156 -0.360043 0
M  V30 7333 C 715.567 -3.45485 -0.289974 0
M  V30 7334 C 714.628 -4.24069 0.668114 0
M  V30 7335 C 713.861 -5.33691 -0.0306138 0
M  V30 7336 O 714.084 -5.5656 -1.24888 0
M  V30 7337 O 713.018 -5.98441 0.644384 0
M  V30 7338 H 716.844 -2.74349 1.30254 0
M  V30 7339 H 714.429 -1.32012 0.699506 0
M  V30 7340 H 716.311 -4.15486 -0.70353 0
M  V30 7341 H 714.986 -3.03546 -1.12435 0
M  V30 7342 H 713.893 -3.56579 1.13147 0
M  V30 7343 H 715.226 -4.69739 1.46989 0
M  V30 7344 N 716.879 -0.700114 -1.41195 0
M  V30 7345 C 717.809 -0.0521132 -2.33442 0
M  V30 7346 C 718.79 0.76228 -1.52063 0
M  V30 7347 O 719.975 0.714336 -1.80585 0
M  V30 7348 C 717.105 0.881693 -3.35922 0
M  V30 7349 C 716.059 0.174062 -4.27646 0
M  V30 7350 C 715.385 1.22254 -5.20536 0
M  V30 7351 C 716.685 -0.962396 -5.13357 0
M  V30 7352 H 718.379 -0.822574 -2.87879 0
M  V30 7353 H 715.925 -0.397011 -1.38419 0
M  V30 7354 H 717.878 1.34429 -3.99383 0
M  V30 7355 H 716.602 1.68387 -2.79845 0
M  V30 7356 H 715.261 -0.268551 -3.65615 0
M  V30 7357 H 714.909 2.01736 -4.60773 0
M  V30 7358 H 714.609 0.754038 -5.82742 0
M  V30 7359 H 716.133 1.68555 -5.86874 0
M  V30 7360 H 717.547 -0.579875 -5.7036 0
M  V30 7361 H 715.944 -1.35828 -5.84526 0
M  V30 7362 H 717.014 -1.80003 -4.50252 0
M  V30 7363 N 718.357 1.51182 -0.445186 0
M  V30 7364 C 719.768 1.86693 0.0160999 0
M  V30 7365 C 720.119 1.36183 1.4124 0
M  V30 7366 O 719.244 0.715895 2.04215 0
M  V30 7367 C 719.839 3.38781 0.0359918 0
M  V30 7368 C 718.398 3.73799 0.441715 0
M  V30 7369 C 717.545 2.74947 -0.360511 0
M  V30 7370 H 720.496 1.44294 -0.660674 0
M  V30 7371 H 720.517 3.71026 0.843813 0
M  V30 7372 H 720.029 3.75513 -0.980378 0
M  V30 7373 H 718.13 3.42659 1.4634 0
M  V30 7374 H 718.243 4.78829 0.16106 0
M  V30 7375 H 716.607 2.54047 0.182269 0
M  V30 7376 H 717.39 3.14521 -1.3759 0
M  V30 7377 N 719.835 0.176821 1.56605 0
M  V30 7378 C 721.083 -0.465793 1.96659 0
M  V30 7379 C 721.404 -1.63406 1.06412 0
M  V30 7380 O 720.674 -1.95457 0.131603 0
M  V30 7381 H 719.254 -0.175072 0.726195 0
M  V30 7382 H 721.916 0.25929 1.93168 0
M  V30 7383 H 721.012 -0.822138 3.01077 0
M  V30 7384 N 721.313 -1.57302 -0.09688 0
M  V30 7385 C 722.245 -1.98618 -1.14384 0
M  V30 7386 C 723.258 -0.888483 -1.36418 0
M  V30 7387 O 724.447 -1.16661 -1.35101 0
M  V30 7388 C 721.547 -2.28838 -2.49973 0
M  V30 7389 C 720.72 -3.60132 -2.48241 0
M  V30 7390 C 719.779 -3.7831 -3.65743 0
M  V30 7391 O 718.805 -4.50183 -3.48316 0
M  V30 7392 N 720.007 -3.18752 -4.85157 0
M  V30 7393 H 722.772 -2.8904 -0.792202 0
M  V30 7394 H 720.333 -1.59356 -0.285883 0
M  V30 7395 H 722.325 -2.38193 -3.27179 0
M  V30 7396 H 720.895 -1.44431 -2.77233 0
M  V30 7397 H 720.115 -3.61763 -1.56593 0
M  V30 7398 H 721.403 -4.46389 -2.4416 0
M  V30 7399 H 720.801 -2.60368 -5.0222 0
M  V30 7400 H 719.358 -3.33595 -5.59962 0
M  V30 7401 N 722.791 0.367657 -1.53252 0
M  V30 7402 C 724.019 1.13119 -1.73239 0
M  V30 7403 C 724.434 1.831 -0.460404 0
M  V30 7404 O 723.791 1.73483 0.566557 0
M  V30 7405 C 723.842 2.16308 -2.89643 0
M  V30 7406 O 723.563 1.49175 -4.1192 0
M  V30 7407 C 725.064 3.05224 -3.21486 0
M  V30 7408 H 722.284 0.338318 -0.579467 0
M  V30 7409 H 724.828 0.42721 -1.99988 0
M  V30 7410 H 722.983 2.82307 -2.65295 0
M  V30 7411 H 723.397 2.17912 -4.7709 0
M  V30 7412 H 724.871 3.73613 -4.06346 0
M  V30 7413 H 725.348 3.69919 -2.36763 0
M  V30 7414 H 725.954 2.44843 -3.47753 0
M  V30 7415 N 724.269 1.44576 0.627338 0
M  V30 7416 C 725.499 1.50829 1.41189 0
M  V30 7417 C 725.907 0.133083 1.88731 0
M  V30 7418 O 725.25 -0.87199 1.61685 0
M  V30 7419 C 725.312 2.41449 2.66351 0
M  V30 7420 C 724.976 3.88549 2.40579 0
M  V30 7421 C 725.973 4.78981 2.0217 0
M  V30 7422 C 723.658 4.33287 2.54102 0
M  V30 7423 C 725.652 6.12153 1.77618 0
M  V30 7424 C 723.339 5.66505 2.29163 0
M  V30 7425 C 724.337 6.55756 1.9098 0
M  V30 7426 O 724.025 7.86506 1.66321 0
M  V30 7427 H 723.757 0.513797 0.439304 0
M  V30 7428 H 726.311 1.90256 0.774059 0
M  V30 7429 H 724.541 1.96955 3.32784 0
M  V30 7430 H 726.23 2.38608 3.28361 0
M  V30 7431 H 726.996 4.45689 1.91277 0
M  V30 7432 H 722.875 3.64074 2.82792 0
M  V30 7433 H 726.419 6.81776 1.47739 0
M  V30 7434 H 722.316 5.99358 2.39668 0
M  V30 7435 H 723.084 7.98341 1.80536 0
M  V30 7436 N 725.747 -0.868086 1.31537 0
M  V30 7437 C 727.024 -1.60384 1.11965 0
M  V30 7438 C 727.404 -2.08584 -0.324949 0
M  V30 7439 O 726.752 -1.86561 -1.31937 0
M  V30 7440 C 726.962 -2.76038 2.13551 0
M  V30 7441 C 728.31 -3.45954 2.46173 0
M  V30 7442 O 729.334 -2.86247 2.11993 0
M  V30 7443 O 728.193 -4.53666 3.04711 0
M  V30 7444 H 725.287 -0.705705 0.431172 0
M  V30 7445 H 727.833 -0.913385 1.43022 0
M  V30 7446 H 726.605 -2.37849 3.10714 0
M  V30 7447 H 726.228 -3.52769 1.83411 0
M  V30 7448 N 727.225 -1.14528 -1.08264 0
M  V30 7449 C 728.188 -0.83632 -2.13397 0
M  V30 7450 C 729.188 0.159715 -1.60005 0
M  V30 7451 O 730.378 -0.0688098 -1.74064 0
M  V30 7452 C 727.51 -0.246973 -3.40004 0
M  V30 7453 H 728.703 -1.76808 -2.42237 0
M  V30 7454 H 726.256 -0.951509 -1.24 0
M  V30 7455 H 726.991 0.693436 -3.168 0
M  V30 7456 H 726.776 -0.964412 -3.80055 0
M  V30 7457 H 728.266 -0.0480679 -4.17572 0
M  V30 7458 N 728.703 1.26451 -0.940633 0
M  V30 7459 C 729.931 1.97868 -0.604642 0
M  V30 7460 C 730.346 1.70051 0.820251 0
M  V30 7461 O 729.703 0.96843 1.54686 0
M  V30 7462 C 729.754 3.51684 -0.836689 0
M  V30 7463 O 729.475 3.78533 -2.20554 0
M  V30 7464 C 730.976 4.40343 -0.511169 0
M  V30 7465 H 728.196 0.631105 -0.227919 0
M  V30 7466 H 730.74 1.60979 -1.26119 0
M  V30 7467 H 728.895 3.86736 -0.226759 0
M  V30 7468 H 729.309 4.73065 -2.26517 0
M  V30 7469 H 730.783 5.47229 -0.724157 0
M  V30 7470 H 731.26 4.35694 0.553815 0
M  V30 7471 H 731.866 4.10834 -1.0998 0
M  V30 7472 N 730.181 0.707592 1.40822 0
M  V30 7473 C 731.113 0.0105968 2.29198 0
M  V30 7474 C 732.126 -0.732035 1.45414 0
M  V30 7475 O 733.315 -0.580741 1.68789 0
M  V30 7476 C 730.415 -1.00921 3.23525 0
M  V30 7477 C 729.588 -0.333747 4.36125 0
M  V30 7478 C 728.647 -1.25783 5.10945 0
M  V30 7479 O 727.673 -0.745646 5.64295 0
M  V30 7480 N 728.875 -2.58947 5.19545 0
M  V30 7481 H 731.64 0.76938 2.89656 0
M  V30 7482 H 729.201 0.554579 1.52105 0
M  V30 7483 H 731.193 -1.6294 3.70449 0
M  V30 7484 H 729.763 -1.66942 2.6429 0
M  V30 7485 H 728.983 0.466518 3.9143 0
M  V30 7486 H 730.271 0.135444 5.0862 0
M  V30 7487 H 729.669 -3.03065 4.7767 0
M  V30 7488 H 728.226 -3.16131 5.70004 0
M  V30 7489 N 731.66 -1.50943 0.453197 0
M  V30 7490 C 732.592 -2.25922 -0.38623 0
M  V30 7491 C 733.605 -1.3055 -0.972652 0
M  V30 7492 O 734.794 -1.56191 -0.864097 0
M  V30 7493 C 731.894 -3.01176 -1.5539 0
M  V30 7494 C 731.067 -4.23768 -1.0835 0
M  V30 7495 C 730.126 -4.81466 -2.12313 0
M  V30 7496 O 729.152 -5.42875 -1.71101 0
M  V30 7497 N 730.354 -4.66889 -3.44956 0
M  V30 7498 H 733.119 -2.98601 0.256468 0
M  V30 7499 H 730.68 -1.59408 0.282965 0
M  V30 7500 H 732.672 -3.36659 -2.24594 0
M  V30 7501 H 731.242 -2.31409 -2.10163 0
M  V30 7502 H 730.462 -3.93597 -0.217961 0
M  V30 7503 H 731.75 -5.03289 -0.746857 0
M  V30 7504 H 731.148 -4.18011 -3.81161 0
M  V30 7505 H 729.705 -5.06691 -4.1001 0
M  V30 7506 N 733.138 -0.185124 -1.56509 0
M  V30 7507 C 734.378 0.458547 -1.9919 0
M  V30 7508 C 734.742 1.59484 -1.06906 0
M  V30 7509 O 735.943 2.30201 -1.38783 0
M  V30 7510 C 734.214 0.916263 -3.45455 0
M  V30 7511 S 735.773 1.55918 -4.10165 0
M  V30 7512 H 732.591 0.147008 -0.695636 0
M  V30 7513 H 735.193 -0.285841 -1.93399 0
M  V30 7514 H 733.897 0.0790543 -4.10324 0
M  V30 7515 H 733.428 1.69436 -3.55042 0
M  V30 7516 H 735.443 2.84771 -4.0635 0
M  V30 7517 N 734.616 1.57351 0.0885366 0
M  V30 7518 C 735.564 2.03542 1.12576 0
M  V30 7519 C 736.558 0.937668 1.41082 0
M  V30 7520 O 737.764 1.12283 1.40686 0
M  V30 7521 H 734.139 0.648752 0.380296 0
M  V30 7522 H 736.11 2.89833 0.709906 0
M  V30 7523 C 734.859 2.4811 2.43591 0
M  V30 7524 H 734.182 3.32164 2.22502 0
M  V30 7525 H 735.622 2.842 3.14653 0
M  V30 7526 C 734.081 1.35708 3.08359 0
M  V30 7527 O 734.611 0.689852 3.95732 0
M  V30 7528 N 732.817 1.10641 2.68713 0
M  V30 7529 H 732.364 1.6508 1.97753 0
M  V30 7530 H 732.322 0.356355 3.12374 0
M  V30 7531 N 736.094 -0.359525 1.53444 0
M  V30 7532 C 737.024 -1.44662 1.8329 0
M  V30 7533 C 738.005 -1.55617 0.68683 0
M  V30 7534 O 739.19 -1.70086 0.93725 0
M  V30 7535 C 736.32 -2.81923 2.02822 0
M  V30 7536 C 735.274 -2.85787 3.18606 0
M  V30 7537 C 734.6 -4.25781 3.23442 0
M  V30 7538 C 735.9 -2.52762 4.57065 0
M  V30 7539 H 737.594 -1.19934 2.74329 0
M  V30 7540 H 735.14 -0.575517 1.31999 0
M  V30 7541 H 737.093 -3.58005 2.22285 0
M  V30 7542 H 735.817 -3.08051 1.085 0
M  V30 7543 H 734.476 -2.12157 2.98973 0
M  V30 7544 H 734.124 -4.48994 2.26745 0
M  V30 7545 H 733.824 -4.29281 4.01238 0
M  V30 7546 H 735.348 -5.03727 3.45096 0
M  V30 7547 H 736.762 -3.18557 4.76649 0
M  V30 7548 H 735.159 -2.67569 5.37147 0
M  V30 7549 H 736.229 -1.47993 4.61764 0
M  V30 7550 N 737.572 -1.44907 -0.619662 0
M  V30 7551 C 738.8 -1.51795 -1.40591 0
M  V30 7552 C 739.215 -0.146553 -1.8823 0
M  V30 7553 O 738.572 0.849698 -1.61513 0
M  V30 7554 C 738.623 -2.49229 -2.61853 0
M  V30 7555 O 738.344 -3.81039 -2.16197 0
M  V30 7556 C 739.845 -2.65696 -3.54853 0
M  V30 7557 H 737.065 -0.514463 -0.430777 0
M  V30 7558 H 739.609 -1.8998 -0.756813 0
M  V30 7559 H 737.764 -2.14149 -3.2283 0
M  V30 7560 H 738.178 -4.33747 -2.94896 0
M  V30 7561 H 739.652 -3.37874 -4.36515 0
M  V30 7562 H 740.129 -1.71316 -4.0441 0
M  V30 7563 H 740.735 -3.01724 -2.99737 0
M  V30 7564 N 739.05 0.861098 -1.31996 0
M  V30 7565 C 740.297 1.61481 -1.22188 0
M  V30 7566 C 740.625 1.93276 0.217853 0
M  V30 7567 O 739.88 1.56942 1.16909 0
M  V30 7568 C 740.179 2.94822 -2.02027 0
M  V30 7569 C 739.845 2.82483 -3.51446 0
M  V30 7570 C 738.507 2.78825 -3.92186 0
M  V30 7571 C 740.859 2.68878 -4.46491 0
M  V30 7572 C 738.187 2.59433 -5.26224 0
M  V30 7573 C 740.539 2.51022 -5.80664 0
M  V30 7574 C 739.203 2.45753 -6.20614 0
M  V30 7575 H 738.473 0.590902 -0.447119 0
M  V30 7576 H 741.12 0.999376 -1.63355 0
M  V30 7577 H 739.425 3.6045 -1.53569 0
M  V30 7578 H 741.122 3.52149 -1.91812 0
M  V30 7579 H 737.712 2.86152 -3.19085 0
M  V30 7580 H 741.896 2.70754 -4.1594 0
M  V30 7581 H 737.152 2.53784 -5.5624 0
M  V30 7582 H 741.326 2.39473 -6.53931 0
M  V30 7583 H 738.953 2.30485 -7.24417 0
M  V30 7584 N 740.528 1.15101 1.07655 0
M  V30 7585 C 741.776 0.922149 1.79836 0
M  V30 7586 C 742.097 -0.552346 1.87014 0
M  V30 7587 O 741.367 -1.40145 1.3688 0
M  V30 7588 H 739.947 0.338182 0.666064 0
M  V30 7589 H 742.609 1.45107 1.30115 0
M  V30 7590 H 741.705 1.32883 2.82398 0
M  V30 7591 N 742.006 -1.2595 0.947325 0
M  V30 7592 C 743.417 -1.75389 0.639963 0
M  V30 7593 C 743.768 -1.77081 -0.844788 0
M  V30 7594 O 742.893 -1.3869 -1.66114 0
M  V30 7595 C 743.488 -3.18506 1.15496 0
M  V30 7596 C 742.047 -3.65534 0.897894 0
M  V30 7597 C 741.194 -2.44818 1.30228 0
M  V30 7598 H 744.145 -1.1194 1.12495 0
M  V30 7599 H 744.166 -3.77045 0.511627 0
M  V30 7600 H 743.678 -3.17243 2.23559 0
M  V30 7601 H 741.779 -3.72221 -0.168096 0
M  V30 7602 H 741.892 -4.54039 1.52922 0
M  V30 7603 H 740.256 -2.44291 0.720678 0
M  V30 7604 H 741.039 -2.46251 2.39198 0
M  V30 7605 N 743.484 -0.715051 -1.40445 0
M  V30 7606 C 744.394 -0.0631624 -2.34515 0
M  V30 7607 C 745.41 0.744397 -1.57273 0
M  V30 7608 O 746.586 0.677475 -1.89663 0
M  V30 7609 C 743.651 0.847915 -3.36172 0
M  V30 7610 C 742.712 0.0303655 -4.29289 0
M  V30 7611 C 741.945 0.898051 -5.2609 0
M  V30 7612 O 742.168 2.13729 -5.28844 0
M  V30 7613 O 741.102 0.337328 -6.00954 0
M  V30 7614 H 744.928 -0.839078 -2.91879 0
M  V30 7615 H 742.513 -0.475527 -1.4163 0
M  V30 7616 H 744.395 1.3698 -3.98515 0
M  V30 7617 H 743.07 1.60299 -2.81222 0
M  V30 7618 H 741.977 -0.536573 -3.70232 0
M  V30 7619 H 743.31 -0.686474 -4.87389 0
M  V30 7620 N 744.962 1.50701 -0.461195 0
M  V30 7621 C 746.192 2.06381 0.0950376 0
M  V30 7622 C 746.6 1.32627 1.34933 0
M  V30 7623 O 745.943 0.386137 1.79596 0
M  V30 7624 C 746.005 3.56558 0.458965 0
M  V30 7625 C 745.669 4.51732 -0.691891 0
M  V30 7626 C 746.666 4.95594 -1.57105 0
M  V30 7627 C 744.351 4.94542 -0.879407 0
M  V30 7628 C 746.345 5.80963 -2.62223 0
M  V30 7629 C 744.032 5.79695 -1.93382 0
M  V30 7630 C 745.03 6.22806 -2.80359 0
M  V30 7631 O 744.718 7.06265 -3.83986 0
M  V30 7632 H 744.45 0.676 0.000687488 0
M  V30 7633 H 747.004 1.94974 -0.646087 0
M  V30 7634 H 745.234 3.65832 1.25314 0
M  V30 7635 H 746.923 3.94647 0.949124 0
M  V30 7636 H 747.689 4.63197 -1.43783 0
M  V30 7637 H 743.568 4.60513 -0.211907 0
M  V30 7638 H 747.112 6.14533 -3.30143 0
M  V30 7639 H 743.009 6.11506 -2.06715 0
M  V30 7640 H 743.777 7.24494 -3.80855 0
M  V30 7641 N 746.441 0.193421 1.56409 0
M  V30 7642 C 747.666 -0.454552 2.02358 0
M  V30 7643 C 748.091 -1.54516 1.07268 0
M  V30 7644 O 747.449 -1.81214 0.0558962 0
M  V30 7645 C 747.497 -0.989469 3.46759 0
M  V30 7646 O 746.601 -2.10244 3.54783 0
M  V30 7647 H 745.942 -0.106417 0.655417 0
M  V30 7648 H 748.472 0.303807 2.02332 0
M  V30 7649 H 748.482 -1.30649 3.86516 0
M  V30 7650 H 747.157 -0.191083 4.15461 0
M  V30 7651 H 745.734 -1.79419 3.26899 0
M  V30 7652 N 747.919 -1.57396 -0.0801906 0
M  V30 7653 C 749.165 -1.87113 -0.782083 0
M  V30 7654 C 749.498 -0.78458 -1.77646 0
M  V30 7655 O 748.773 0.205993 -1.93406 0
M  V30 7656 C 749.056 -3.27483 -1.49756 0
M  V30 7657 C 748.909 -4.46782 -0.520171 0
M  V30 7658 C 750.228 -3.65965 -2.44454 0
M  V30 7659 H 747.347 -0.680559 -0.282858 0
M  V30 7660 H 749.989 -1.89946 -0.0454139 0
M  V30 7661 H 748.139 -3.25199 -2.12551 0
M  V30 7662 H 749.811 -4.61187 0.101919 0
M  V30 7663 H 748.054 -4.33485 0.165219 0
M  V30 7664 H 748.725 -5.41761 -1.05824 0
M  V30 7665 H 751.201 -3.69289 -1.91742 0
M  V30 7666 H 750.077 -4.65086 -2.91524 0
M  V30 7667 H 750.338 -2.95446 -3.28883 0
M  V30 7668 N 749.397 0.351382 -1.53633 0
M  V30 7669 C 750.637 1.10102 -1.72212 0
M  V30 7670 C 751.001 1.86128 -0.471198 0
M  V30 7671 O 752.202 2.63445 -0.533887 0
M  V30 7672 C 750.473 2.02348 -2.94602 0
M  V30 7673 S 752.032 2.84641 -3.33954 0
M  V30 7674 H 748.85 0.372145 -0.60583 0
M  V30 7675 H 751.452 0.38044 -1.91763 0
M  V30 7676 H 750.156 1.45283 -3.83824 0
M  V30 7677 H 749.687 2.78856 -2.77493 0
M  V30 7678 H 751.702 4.04724 -2.87076 0
M  V30 7679 N 750.875 1.45233 0.611969 0
M  V30 7680 C 752.286 1.4354 1.19387 0
M  V30 7681 C 752.637 0.160713 1.95541 0
M  V30 7682 O 751.762 -0.737954 2.03429 0
M  V30 7683 C 752.357 2.60045 2.17169 0
M  V30 7684 C 750.916 2.61486 2.70744 0
M  V30 7685 C 750.063 2.35708 1.46072 0
M  V30 7686 H 753.014 1.53536 0.401529 0
M  V30 7687 H 753.035 2.33893 3.00124 0
M  V30 7688 H 752.547 3.52803 1.61714 0
M  V30 7689 H 750.648 1.72721 3.30149 0
M  V30 7690 H 750.761 3.60572 3.15476 0
M  V30 7691 H 749.125 1.85178 1.74875 0
M  V30 7692 H 749.908 3.30606 0.924922 0
M  V30 7693 N 752.353 -0.854086 1.3245 0
M  V30 7694 C 753.601 -1.60513 1.228 0
M  V30 7695 C 753.922 -1.93865 -0.210073 0
M  V30 7696 O 753.192 -1.59673 -1.13496 0
M  V30 7697 H 751.772 -0.595099 0.451516 0
M  V30 7698 H 754.434 -1.0216 1.6598 0
M  V30 7699 H 753.53 -2.54182 1.81102 0
M  V30 7700 N 753.831 -1.1567 -1.07043 0
M  V30 7701 C 754.764 -0.799867 -2.13723 0
M  V30 7702 C 755.742 0.225098 -1.61034 0
M  V30 7703 O 756.926 0.11093 -1.88173 0
M  V30 7704 C 754.053 -0.18997 -3.38167 0
M  V30 7705 C 753.099 -1.18733 -4.0964 0
M  V30 7706 S 753.932 -2.73074 -4.60642 0
M  V30 7707 C 755.088 -2.13512 -5.88356 0
M  V30 7708 H 755.321 -1.70342 -2.43661 0
M  V30 7709 H 752.854 -0.979377 -1.19363 0
M  V30 7710 H 754.812 0.155471 -4.10205 0
M  V30 7711 H 753.473 0.691229 -3.064 0
M  V30 7712 H 752.666 -0.708873 -4.9899 0
M  V30 7713 H 752.268 -1.47747 -3.43579 0
M  V30 7714 H 754.56 -1.49911 -6.60706 0
M  V30 7715 H 755.503 -3.01042 -6.40921 0
M  V30 7716 H 755.911 -1.57693 -5.42027 0
M  V30 7717 N 755.309 1.25446 -0.953992 0
M  V30 7718 C 756.586 1.884 -0.525823 0
M  V30 7719 C 756.966 1.86079 0.996891 0
M  V30 7720 O 756.314 1.32389 1.8624 0
M  V30 7721 C 756.524 3.31154 -1.10172 0
M  V30 7722 C 757.872 4.07926 -1.17819 0
M  V30 7723 O 758.896 3.40273 -1.05323 0
M  V30 7724 O 757.755 5.28942 -1.37415 0
M  V30 7725 H 754.849 0.808629 -0.173345 0
M  V30 7726 H 757.395 1.33522 -1.04738 0
M  V30 7727 H 756.167 3.27271 -2.14499 0
M  V30 7728 H 755.79 3.93588 -0.56338 0
M  V30 7729 N 756.787 0.722489 1.40064 0
M  V30 7730 C 758.033 0.265371 2.01056 0
M  V30 7731 C 758.366 -1.14062 1.57174 0
M  V30 7732 O 757.641 -1.77514 0.794916 0
M  V30 7733 C 757.924 0.353157 3.58364 0
M  V30 7734 C 757.777 1.79802 4.123 0
M  V30 7735 C 759.096 -0.271677 4.39261 0
M  V30 7736 H 756.215 0.0979002 0.730469 0
M  V30 7737 H 758.857 0.916289 1.66446 0
M  V30 7738 H 757.007 -0.201037 3.87979 0
M  V30 7739 H 758.679 2.40813 3.93455 0
M  V30 7740 H 756.922 2.32348 3.66329 0
M  V30 7741 H 757.593 1.81079 5.21454 0
M  V30 7742 H 760.069 0.200607 4.15616 0
M  V30 7743 H 758.945 -0.179843 5.48605 0
M  V30 7744 H 759.206 -1.35611 4.20787 0
M  V30 7745 N 758.265 -1.50454 0.469181 0
M  V30 7746 C 759.505 -2.04222 -0.0852381 0
M  V30 7747 C 759.869 -1.34357 -1.37158 0
M  V30 7748 O 761.07 -1.78669 -2.00825 0
M  V30 7749 C 759.341 -3.56403 -0.266778 0
M  V30 7750 S 760.9 -4.31811 -0.780028 0
M  V30 7751 H 757.718 -0.7108 -0.0168589 0
M  V30 7752 H 760.32 -1.8487 0.635883 0
M  V30 7753 H 759.024 -4.04807 0.67525 0
M  V30 7754 H 758.555 -3.80106 -1.01407 0
M  V30 7755 H 760.57 -4.51706 -2.05368 0
M  V30 7756 N 759.743 -0.201713 -1.56304 0
M  V30 7757 C 760.706 0.702811 -2.18159 0
M  V30 7758 C 761.706 1.13619 -1.13787 0
M  V30 7759 O 762.896 1.0482 -1.39134 0
M  V30 7760 C 760.028 1.96032 -2.78898 0
M  V30 7761 H 761.221 0.163836 -2.99452 0
M  V30 7762 H 758.774 0.04791 -1.56227 0
M  V30 7763 H 759.509 2.54165 -2.01421 0
M  V30 7764 H 759.294 1.65824 -3.55309 0
M  V30 7765 H 760.784 2.60519 -3.26373 0
M  V30 7766 N 761.222 1.57436 0.0718424 0
M  V30 7767 C 762.638 1.53792 0.426628 0
M  V30 7768 C 762.838 0.921887 1.79174 0
M  V30 7769 O 761.894 0.524374 2.46995 0
M  V30 7770 C 763.207 2.98443 0.367739 0
M  V30 7771 C 764.755 3.09778 0.447928 0
M  V30 7772 C 765.23 4.5608 0.418946 0
M  V30 7773 N 766.721 4.60716 0.479022 0
M  V30 7774 C 767.456 5.71397 0.47881 0
M  V30 7775 N 766.952 6.91443 0.433417 0
M  V30 7776 N 768.745 5.59639 0.525364 0
M  V30 7777 H 760.896 1.95848 -0.822033 0
M  V30 7778 H 763.159 0.896418 -0.308447 0
M  V30 7779 H 762.865 3.47072 -0.56865 0
M  V30 7780 H 762.739 3.58335 1.17795 0
M  V30 7781 H 765.126 2.61122 1.37474 0
M  V30 7782 H 765.207 2.52796 -0.390857 0
M  V30 7783 H 764.851 5.05393 -0.504016 0
M  V30 7784 H 764.781 5.10925 1.27526 0
M  V30 7785 H 767.272 3.74328 0.518355 0
M  V30 7786 H 767.585 7.71562 0.43718 0
M  V30 7787 H 765.93 6.93847 0.400106 0
M  V30 7788 H 769.121 4.64756 0.558519 0
M  V30 7789 H 769.294 6.45896 0.52173 0
M  V30 7790 N 762.7 -0.34323 1.53817 0
M  V30 7791 C 763.63 -1.42709 1.84814 0
M  V30 7792 C 764.611 -1.5488 0.703297 0
M  V30 7793 O 765.796 -1.69082 0.955237 0
M  V30 7794 C 762.926 -2.79756 2.05801 0
M  V30 7795 C 761.88 -2.82392 3.21619 0
M  V30 7796 C 761.206 -4.22326 3.2794 0
M  V30 7797 C 762.506 -2.479 4.59721 0
M  V30 7798 H 764.2 -1.17018 2.75585 0
M  V30 7799 H 761.746 -0.561485 1.32602 0
M  V30 7800 H 763.699 -3.55627 2.26069 0
M  V30 7801 H 762.423 -3.06883 1.11761 0
M  V30 7802 H 761.082 -2.08974 3.01207 0
M  V30 7803 H 760.73 -4.46564 2.31494 0
M  V30 7804 H 760.43 -4.25001 4.05768 0
M  V30 7805 H 761.954 -5.00039 3.50419 0
M  V30 7806 H 763.368 -3.13484 4.80001 0
M  V30 7807 H 761.765 -2.61857 5.39954 0
M  V30 7808 H 762.835 -1.43087 4.63308 0
M  V30 7809 N 764.178 -1.45556 -0.604258 0
M  V30 7810 C 765.424 -1.50958 -1.3632 0
M  V30 7811 C 765.779 -0.15051 -1.9181 0
M  V30 7812 O 765.072 0.838035 -1.72301 0
M  V30 7813 C 765.266 -2.52697 -2.52743 0
M  V30 7814 C 765.095 -3.98364 -2.08654 0
M  V30 7815 C 763.865 -4.66295 -1.94671 0
M  V30 7816 C 766.063 -4.86801 -1.6592 0
M  V30 7817 N 764.045 -5.96669 -1.44428 0
M  V30 7818 C 765.416 -6.06829 -1.27115 0
M  V30 7819 C 767.471 -4.73634 -1.53542 0
M  V30 7820 C 766.174 -7.15149 -0.771676 0
M  V30 7821 C 768.2 -5.82005 -1.04998 0
M  V30 7822 C 767.562 -7.01191 -0.671599 0
M  V30 7823 H 763.661 -0.607329 -0.492621 0
M  V30 7824 H 766.245 -1.82048 -0.69041 0
M  V30 7825 H 764.416 -2.23554 -3.17614 0
M  V30 7826 H 766.148 -2.48227 -3.19633 0
M  V30 7827 H 762.903 -4.21496 -2.15959 0
M  V30 7828 H 763.327 -6.66003 -1.21528 0
M  V30 7829 H 767.969 -3.81898 -1.81421 0
M  V30 7830 H 765.687 -8.06671 -0.480442 0
M  V30 7831 H 769.273 -5.73851 -0.958423 0
M  V30 7832 H 768.153 -7.83619 -0.301752 0
M  V30 7833 N 765.656 0.84705 -1.32902 0
M  V30 7834 C 766.896 1.61554 -1.25218 0
M  V30 7835 C 767.26 1.91141 0.18143 0
M  V30 7836 O 768.461 2.6607 0.382106 0
M  V30 7837 C 766.732 2.89553 -2.09509 0
M  V30 7838 S 768.291 3.80283 -2.18931 0
M  V30 7839 H 765.109 0.554031 -0.445613 0
M  V30 7840 H 767.711 1.00251 -1.67839 0
M  V30 7841 H 766.415 2.65776 -3.12716 0
M  V30 7842 H 765.946 3.55868 -1.67694 0
M  V30 7843 H 767.961 4.77641 -1.34438 0
M  V30 7844 N 767.134 1.16236 1.06428 0
M  V30 7845 C 768.097 0.870163 2.1204 0
M  V30 7846 C 769.097 -0.134239 1.60239 0
M  V30 7847 O 770.287 0.0964932 1.73933 0
M  V30 7848 C 767.419 0.301033 3.39568 0
M  V30 7849 H 768.612 1.8064 2.39394 0
M  V30 7850 H 766.165 0.971116 1.2247 0
M  V30 7851 H 766.9 -0.642948 3.17863 0
M  V30 7852 H 766.685 1.02475 3.78472 0
M  V30 7853 H 768.175 0.114494 4.17443 0
M  V30 7854 N 768.612 -1.24939 0.960631 0
M  V30 7855 C 769.858 -1.93104 0.61958 0
M  V30 7856 C 770.191 -1.74991 -0.84212 0
M  V30 7857 O 769.466 -1.09867 -1.60498 0
M  V30 7858 C 769.749 -3.46326 0.986422 0
M  V30 7859 C 769.602 -3.73638 2.50429 0
M  V30 7860 C 770.921 -4.37067 0.515827 0
M  V30 7861 H 768.04 -0.701311 0.226566 0
M  V30 7862 H 770.682 -1.47442 1.19836 0
M  V30 7863 H 768.832 -3.85348 0.493907 0
M  V30 7864 H 770.504 -3.44217 3.07103 0
M  V30 7865 H 768.747 -3.19035 2.93937 0
M  V30 7866 H 769.418 -4.80815 2.71147 0
M  V30 7867 H 771.894 -4.05381 0.938389 0
M  V30 7868 H 770.77 -5.43022 0.80114 0
M  V30 7869 H 771.031 -4.38224 -0.584171 0
M  V30 7870 N 770.09 -0.729906 -1.39679 0
M  V30 7871 C 771.336 -0.27603 -2.00913 0
M  V30 7872 C 771.669 1.13227 -1.57776 0
M  V30 7873 O 770.944 1.7709 -0.804319 0
M  V30 7874 C 771.227 -0.372157 -3.58172 0
M  V30 7875 C 771.08 -1.81986 -4.11341 0
M  V30 7876 C 772.399 0.248378 -4.39399 0
M  V30 7877 H 769.518 -0.101773 -0.729939 0
M  V30 7878 H 772.16 -0.925104 -1.65957 0
M  V30 7879 H 770.31 0.180459 -3.88081 0
M  V30 7880 H 771.982 -2.42896 -3.92172 0
M  V30 7881 H 770.225 -2.34287 -3.65092 0
M  V30 7882 H 770.896 -1.83842 -5.20486 0
M  V30 7883 H 773.372 -0.222645 -4.15504 0
M  V30 7884 H 772.248 0.150746 -5.48693 0
M  V30 7885 H 772.509 1.33378 -4.21501 0
M  V30 7886 N 771.568 1.50203 -0.477153 0
M  V30 7887 C 772.984 1.59056 -0.131663 0
M  V30 7888 C 773.184 1.48473 1.36227 0
M  V30 7889 O 772.24 1.34635 2.13611 0
M  V30 7890 C 773.553 2.92741 -0.687254 0
M  V30 7891 C 775.101 3.0615 -0.651223 0
M  V30 7892 C 775.576 4.42419 -1.18446 0
M  V30 7893 N 777.067 4.48847 -1.14413 0
M  V30 7894 C 777.802 5.52689 -1.52717 0
M  V30 7895 N 777.298 6.63754 -1.98499 0
M  V30 7896 N 779.091 5.43267 -1.44282 0
M  V30 7897 H 771.242 1.55325 -1.44872 0
M  V30 7898 H 773.505 0.734395 -0.599473 0
M  V30 7899 H 773.211 3.0598 -1.73405 0
M  V30 7900 H 773.085 3.76961 -0.134215 0
M  V30 7901 H 775.472 2.92556 0.386677 0
M  V30 7902 H 775.553 2.23673 -1.24114 0
M  V30 7903 H 775.197 4.56763 -2.22103 0
M  V30 7904 H 775.127 5.23498 -0.570709 0
M  V30 7905 H 777.618 3.69152 -0.808416 0
M  V30 7906 H 777.931 7.39059 -2.25859 0
M  V30 7907 H 776.276 6.64858 -2.02456 0
M  V30 7908 H 779.467 4.55387 -1.08352 0
M  V30 7909 H 779.64 6.24074 -1.74459 0
M  V30 7910 N 773.046 0.209999 1.56195 0
M  V30 7911 C 773.978 -0.736967 2.17029 0
M  V30 7912 C 774.991 -1.16599 1.13616 0
M  V30 7913 O 776.18 -1.09914 1.40646 0
M  V30 7914 C 773.28 -2.00852 2.72969 0
M  V30 7915 C 772.453 -1.73691 4.01435 0
M  V30 7916 C 771.512 -2.85439 4.42053 0
M  V30 7917 O 770.538 -2.54405 5.09183 0
M  V30 7918 N 771.74 -4.14135 4.06783 0
M  V30 7919 H 774.505 -0.216656 2.98916 0
M  V30 7920 H 772.066 0.0285672 1.61875 0
M  V30 7921 H 774.058 -2.74778 2.97118 0
M  V30 7922 H 772.628 -2.43963 1.95451 0
M  V30 7923 H 771.848 -0.834676 3.85262 0
M  V30 7924 H 773.136 -1.52961 4.85263 0
M  V30 7925 H 772.534 -4.42196 3.52816 0
M  V30 7926 H 771.091 -4.84642 4.35851 0
M  V30 7927 N 774.524 -1.57472 -0.0634922 0
M  V30 7928 C 775.772 -1.87283 -0.759563 0
M  V30 7929 C 776.093 -0.803135 -1.77693 0
M  V30 7930 O 775.363 0.167293 -1.95184 0
M  V30 7931 H 773.943 -0.691106 -0.283516 0
M  V30 7932 H 776.605 -1.94864 -0.0376091 0
M  V30 7933 H 775.701 -2.85064 -1.27062 0
M  V30 7934 N 776.003 0.335068 -1.53997 0
M  V30 7935 C 776.935 1.4327 -1.78903 0
M  V30 7936 C 777.948 1.48347 -0.670598 0
M  V30 7937 O 779.137 1.51277 -0.947494 0
M  V30 7938 C 776.237 2.81878 -1.88144 0
M  V30 7939 C 775.41 3.00141 -3.18174 0
M  V30 7940 C 774.469 4.19041 -3.18263 0
M  V30 7941 O 773.495 4.12751 -3.9195 0
M  V30 7942 N 774.697 5.28004 -2.41231 0
M  V30 7943 H 777.462 1.22272 -2.73623 0
M  V30 7944 H 775.023 0.524996 -1.53152 0
M  V30 7945 H 777.015 3.59609 -1.85644 0
M  V30 7946 H 775.585 2.9598 -1.00572 0
M  V30 7947 H 774.805 2.09808 -3.33728 0
M  V30 7948 H 776.093 3.0923 -4.04047 0
M  V30 7949 H 775.491 5.35986 -1.8093 0
M  V30 7950 H 774.048 6.04196 -2.44521 0
M  V30 7951 N 777.481 1.45874 0.596531 0
M  V30 7952 C 778.414 1.49889 1.72071 0
M  V30 7953 C 779.392 0.354224 1.58695 0
M  V30 7954 O 780.576 0.556355 1.80103 0
M  V30 7955 C 777.703 1.3644 3.10003 0
M  V30 7956 C 776.749 2.54913 3.41938 0
M  V30 7957 S 777.582 4.17336 3.35545 0
M  V30 7958 C 778.738 4.06372 4.76039 0
M  V30 7959 H 778.971 2.45005 1.68404 0
M  V30 7960 H 776.504 1.33592 0.77412 0
M  V30 7961 H 778.462 1.29368 3.89582 0
M  V30 7962 H 777.123 0.427762 3.11174 0
M  V30 7963 H 776.316 2.41458 4.42396 0
M  V30 7964 H 775.918 2.58904 2.69898 0
M  V30 7965 H 778.21 3.72199 5.66105 0
M  V30 7966 H 779.153 5.0678 4.9455 0
M  V30 7967 H 779.561 3.37846 4.52239 0
M  V30 7968 N 778.959 -0.83999 1.33349 0
M  V30 7969 C 780.205 -1.59753 1.24927 0
M  V30 7970 C 780.538 -1.93318 -0.184855 0
M  V30 7971 O 779.813 -1.586 -1.12589 0
M  V30 7972 C 780.096 -2.90829 2.12345 0
M  V30 7973 C 779.949 -2.63953 3.6421 0
M  V30 7974 C 781.268 -3.92246 1.99577 0
M  V30 7975 H 778.387 -0.579654 0.45516 0
M  V30 7976 H 781.029 -0.968909 1.63439 0
M  V30 7977 H 779.179 -3.44478 1.79631 0
M  V30 7978 H 780.851 -2.16745 4.07209 0
M  V30 7979 H 779.094 -1.97671 3.86146 0
M  V30 7980 H 779.765 -3.57348 4.20721 0
M  V30 7981 H 782.241 -3.479 2.28265 0
M  V30 7982 H 781.117 -4.81793 2.62996 0
M  V30 7983 H 781.378 -4.3138 0.967673 0
M  V30 7984 N 780.437 -1.16799 -1.0581 0
M  V30 7985 C 781.677 -0.963264 -1.80279 0
M  V30 7986 C 782.041 0.499671 -1.85384 0
M  V30 7987 O 783.242 0.823264 -2.55882 0
M  V30 7988 C 781.513 -1.57938 -3.20609 0
M  V30 7989 S 783.072 -1.51997 -4.11634 0
M  V30 7990 H 779.89 -0.346302 -0.620964 0
M  V30 7991 H 782.492 -1.48632 -1.26999 0
M  V30 7992 H 781.196 -2.63672 -3.14492 0
M  V30 7993 H 780.727 -1.05586 -3.78966 0
M  V30 7994 H 782.742 -0.523625 -4.93429 0
M  V30 7995 N 781.915 1.24427 -0.967243 0
M  V30 7996 C 782.845 2.2773 -0.515899 0
M  V30 7997 C 783.826 1.64197 0.444227 0
M  V30 7998 O 785.011 1.91193 0.340451 0
M  V30 7999 C 782.141 3.46751 0.195149 0
M  V30 8000 C 781.095 4.22548 -0.680953 0
M  V30 8001 C 780.421 5.34456 0.161561 0
M  V30 8002 C 781.721 4.83914 -1.96532 0
M  V30 8003 H 783.415 2.65735 -1.37933 0
M  V30 8004 H 780.961 1.27742 -0.664681 0
M  V30 8005 H 782.914 4.18153 0.522117 0
M  V30 8006 H 781.638 3.07771 1.09292 0
M  V30 8007 H 780.297 3.52946 -0.991186 0
M  V30 8008 H 779.945 4.91716 1.05947 0
M  V30 8009 H 779.645 5.86087 -0.421418 0
M  V30 8010 H 781.169 6.08685 0.483211 0
M  V30 8011 H 782.583 5.47392 -1.70396 0
M  V30 8012 H 780.98 5.45775 -2.49499 0
M  V30 8013 H 782.05 4.05393 -2.66053 0
M  V30 8014 N 783.393 0.737304 1.3929 0
M  V30 8015 C 784.621 0.296573 2.04763 0
M  V30 8016 C 785.036 -1.06941 1.55592 0
M  V30 8017 O 784.393 -1.67619 0.721822 0
M  V30 8018 C 784.444 0.291906 3.6032 0
M  V30 8019 O 784.165 1.60397 4.07682 0
M  V30 8020 C 785.666 -0.164708 4.42994 0
M  V30 8021 H 782.886 0.129251 0.658434 0
M  V30 8022 H 785.43 1.0016 1.78293 0
M  V30 8023 H 783.585 -0.364251 3.85684 0
M  V30 8024 H 783.999 1.51909 5.0202 0
M  V30 8025 H 785.473 -0.116814 5.51876 0
M  V30 8026 H 785.95 -1.21022 4.22197 0
M  V30 8027 H 786.556 0.461968 4.22784 0
M  V30 8028 N 784.871 -1.49948 0.485112 0
M  V30 8029 C 785.818 -2.28819 -0.301729 0
M  V30 8030 C 786.788 -1.34496 -0.974683 0
M  V30 8031 O 787.973 -1.63444 -0.984418 0
M  V30 8032 C 785.113 -3.16758 -1.36961 0
M  V30 8033 C 784.226 -4.26125 -0.710027 0
M  V30 8034 C 783.361 -5.01302 -1.75699 0
M  V30 8035 C 782.4 -6.02525 -1.07841 0
M  V30 8036 N 781.537 -6.70927 -2.06886 0
M  V30 8037 H 786.377 -2.95604 0.377127 0
M  V30 8038 H 783.914 -1.45764 0.197826 0
M  V30 8039 H 785.872 -3.66106 -2.00056 0
M  V30 8040 H 784.502 -2.51991 -2.01744 0
M  V30 8041 H 783.554 -3.80385 0.0338278 0
M  V30 8042 H 784.866 -4.98493 -0.175079 0
M  V30 8043 H 784.02 -5.54438 -2.46339 0
M  V30 8044 H 782.759 -4.28672 -2.32577 0
M  V30 8045 H 781.764 -5.48635 -0.357706 0
M  V30 8046 H 782.989 -6.77134 -0.516345 0
M  V30 8047 H 780.935 -6.01079 -2.62755 0
M  V30 8048 H 780.852 -7.39216 -1.58414 0
M  V30 8049 H 782.12 -7.28675 -2.76863 0
M  V30 8050 N 786.349 -0.21828 -1.56081 0
M  V30 8051 C 787.296 0.693189 -2.20144 0
M  V30 8052 C 788.266 1.19274 -1.15598 0
M  V30 8053 O 789.451 1.25243 -1.4394 0
M  V30 8054 C 786.591 1.89715 -2.88275 0
M  V30 8055 C 785.704 1.4368 -4.07407 0
M  V30 8056 C 784.839 2.59807 -4.63329 0
M  V30 8057 C 783.878 2.10492 -5.74769 0
M  V30 8058 N 783.015 3.1988 -6.24997 0
M  V30 8059 H 787.855 0.14016 -2.9767 0
M  V30 8060 H 785.392 0.0574292 -1.46988 0
M  V30 8061 H 787.35 2.60398 -3.25958 0
M  V30 8062 H 785.98 2.42311 -2.13273 0
M  V30 8063 H 785.032 0.625007 -3.7523 0
M  V30 8064 H 786.344 1.03517 -4.8794 0
M  V30 8065 H 785.498 3.38577 -5.03438 0
M  V30 8066 H 784.237 3.03256 -3.81951 0
M  V30 8067 H 783.242 1.30182 -5.34165 0
M  V30 8068 H 784.467 1.68045 -6.5798 0
M  V30 8069 H 782.413 3.62817 -5.46534 0
M  V30 8070 H 782.33 2.83958 -7.00645 0
M  V30 8071 H 783.598 3.98796 -6.69763 0
M  V30 8072 N 787.827 1.57504 0.0551401 0
M  V30 8073 C 788.757 2.07864 1.06372 0
M  V30 8074 C 789.738 0.975565 1.39344 0
M  V30 8075 O 790.923 1.24929 1.48682 0
M  V30 8076 C 788.053 2.53643 2.3724 0
M  V30 8077 C 787.007 3.67978 2.18578 0
M  V30 8078 C 786.333 3.9987 3.54976 0
M  V30 8079 C 787.633 4.97405 1.59329 0
M  V30 8080 H 789.327 2.92379 0.644595 0
M  V30 8081 H 786.873 1.40654 0.308619 0
M  V30 8082 H 788.826 2.8749 3.08103 0
M  V30 8083 H 787.55 1.66177 2.81163 0
M  V30 8084 H 786.209 3.3444 1.50152 0
M  V30 8085 H 785.857 3.0951 3.965 0
M  V30 8086 H 785.557 4.76867 3.43324 0
M  V30 8087 H 787.081 4.36228 4.27244 0
M  V30 8088 H 788.495 5.29375 2.20078 0
M  V30 8089 H 786.892 5.78837 1.58327 0
M  V30 8090 H 787.962 4.81697 0.55638 0
M  V30 8091 N 789.305 -0.326896 1.54172 0
M  V30 8092 C 790.716 -0.901533 1.63491 0
M  V30 8093 C 791.067 -1.88994 0.52684 0
M  V30 8094 O 790.192 -2.137 -0.340794 0
M  V30 8095 C 790.787 -1.64192 2.96355 0
M  V30 8096 C 789.346 -2.16533 3.07881 0
M  V30 8097 C 788.493 -0.98966 2.59039 0
M  V30 8098 H 791.444 -0.104568 1.58355 0
M  V30 8099 H 791.465 -2.50592 2.86328 0
M  V30 8100 H 790.977 -0.922291 3.76982 0
M  V30 8101 H 789.078 -2.91622 2.31922 0
M  V30 8102 H 789.191 -2.41762 4.13628 0
M  V30 8103 H 787.555 -1.36787 2.14852 0
M  V30 8104 H 788.338 -0.284401 3.4212 0
M  V30 8105 N 790.784 -1.46188 -0.588786 0
M  V30 8106 C 791.747 -1.55882 -1.68029 0
M  V30 8107 C 792.747 -0.436515 -1.54762 0
M  V30 8108 O 793.937 -0.700626 -1.59489 0
M  V30 8109 C 791.069 -1.47332 -3.07418 0
M  V30 8110 H 792.262 -2.5315 -1.60795 0
M  V30 8111 H 789.815 -1.33908 -0.806116 0
M  V30 8112 H 790.55 -0.513193 -3.20214 0
M  V30 8113 H 790.335 -2.28753 -3.18456 0
M  V30 8114 H 791.825 -1.57187 -3.86887 0
M  V30 8115 N 792.262 0.832906 -1.33792 0
M  V30 8116 C 793.508 1.59089 -1.25772 0
M  V30 8117 C 793.841 1.93414 0.174601 0
M  V30 8118 O 793.116 1.59195 1.11746 0
M  V30 8119 C 793.399 2.89699 -2.13885 0
M  V30 8120 C 793.252 2.62017 -3.65605 0
M  V30 8121 C 794.571 3.91182 -2.01654 0
M  V30 8122 H 791.69 0.577232 -0.458227 0
M  V30 8123 H 794.332 0.960227 -1.6395 0
M  V30 8124 H 792.482 3.4352 -1.81456 0
M  V30 8125 H 794.154 2.14582 -4.08353 0
M  V30 8126 H 792.397 1.95621 -3.87189 0
M  V30 8127 H 793.068 3.55112 -4.2261 0
M  V30 8128 H 795.544 3.46684 -2.30107 0
M  V30 8129 H 794.42 4.80391 -2.65548 0
M  V30 8130 H 794.681 4.30861 -0.990536 0
M  V30 8131 N 793.74 1.17359 1.05189 0
M  V30 8132 C 794.65 0.904984 2.16442 0
M  V30 8133 C 795.666 -0.12686 1.73537 0
M  V30 8134 O 796.842 0.0524127 2.01332 0
M  V30 8135 C 793.907 0.422019 3.44122 0
M  V30 8136 C 792.968 1.52045 4.01473 0
M  V30 8137 C 792.201 1.06044 5.23059 0
M  V30 8138 O 792.424 -0.0854023 5.70336 0
M  V30 8139 O 791.358 1.85349 5.72651 0
M  V30 8140 H 795.184 1.8356 2.41949 0
M  V30 8141 H 792.769 0.95447 1.14936 0
M  V30 8142 H 794.651 0.160208 4.21095 0
M  V30 8143 H 793.326 -0.480444 3.20115 0
M  V30 8144 H 792.233 1.83615 3.25939 0
M  V30 8145 H 793.566 2.39863 4.29798 0
M  V30 8146 N 795.218 -1.23913 0.973828 0
M  V30 8147 C 796.466 -1.91771 0.637817 0
M  V30 8148 C 796.787 -1.76434 -0.830435 0
M  V30 8149 O 796.057 -1.13965 -1.59339 0
M  V30 8150 H 794.637 -0.709761 0.232912 0
M  V30 8151 H 797.299 -1.50677 1.23622 0
M  V30 8152 H 796.395 -2.99327 0.883731 0
M  V30 8153 N 796.696 -0.74468 -1.38897 0
M  V30 8154 C 797.924 -0.307428 -2.04603 0
M  V30 8155 C 798.339 1.06115 -1.56157 0
M  V30 8156 O 797.696 1.67233 -0.730701 0
M  V30 8157 C 797.747 -0.31101 -3.6016 0
M  V30 8158 O 797.468 -1.62557 -4.06825 0
M  V30 8159 C 798.969 0.141213 -4.43075 0
M  V30 8160 H 796.189 -0.132741 -0.657739 0
M  V30 8161 H 798.733 -1.01104 -1.77759 0
M  V30 8162 H 796.888 0.343792 -3.85872 0
M  V30 8163 H 797.302 -1.54569 -5.01207 0
M  V30 8164 H 798.776 0.0875449 -5.51931 0
M  V30 8165 H 799.253 1.18782 -4.22833 0
M  V30 8166 H 799.859 -0.484383 -4.22533 0
M  V30 8167 N 798.174 1.49689 -0.493057 0
M  V30 8168 C 799.585 1.8665 -0.0433032 0
M  V30 8169 C 799.936 1.40607 1.36836 0
M  V30 8170 O 799.061 0.780503 2.01834 0
M  V30 8171 C 799.656 3.38724 -0.0718069 0
M  V30 8172 C 798.215 3.75015 0.32257 0
M  V30 8173 C 797.362 2.7366 -0.4478 0
M  V30 8174 H 800.313 1.42119 -0.706246 0
M  V30 8175 H 800.334 3.73522 0.725347 0
M  V30 8176 H 799.846 3.72204 -1.09935 0
M  V30 8177 H 797.947 3.47142 1.35364 0
M  V30 8178 H 798.06 4.79099 0.00864259 0
M  V30 8179 H 796.424 2.54498 0.101354 0
M  V30 8180 H 797.207 3.09985 -1.47527 0
M  V30 8181 N 799.652 0.226554 1.55963 0
M  V30 8182 C 800.892 -0.405574 2.00336 0
M  V30 8183 C 801.256 -1.56593 1.11097 0
M  V30 8184 O 802.457 -2.26441 1.44838 0
M  V30 8185 C 800.728 -0.82435 3.47763 0
M  V30 8186 S 802.287 -1.44988 4.14154 0
M  V30 8187 H 799.105 -0.128512 0.699289 0
M  V30 8188 H 801.707 0.337017 1.92573 0
M  V30 8189 H 800.411 0.0297636 4.10389 0
M  V30 8190 H 799.942 -1.59963 3.5941 0
M  V30 8191 H 801.957 -2.73897 4.13757 0
M  V30 8192 N 801.13 -1.57531 -0.0467866 0
M  V30 8193 C 802.378 -1.88078 -0.739656 0
M  V30 8194 C 802.699 -0.821936 -1.76831 0
M  V30 8195 O 801.969 0.146582 -1.95351 0
M  V30 8196 H 800.549 -0.694075 -0.276169 0
M  V30 8197 H 803.211 -1.94893 -0.0169391 0
M  V30 8198 H 802.307 -2.86396 -1.24031 0
M  V30 8199 N 802.608 0.318715 -1.54344 0
M  V30 8200 C 803.555 1.39242 -1.84066 0
M  V30 8201 C 804.525 1.51175 -0.688134 0
M  V30 8202 O 805.71 1.66318 -0.935039 0
M  V30 8203 C 802.85 2.75528 -2.07794 0
M  V30 8204 C 801.963 2.72187 -3.35467 0
M  V30 8205 C 801.098 4.00352 -3.4913 0
M  V30 8206 C 800.137 3.91338 -4.7066 0
M  V30 8207 N 799.274 5.11242 -4.81224 0
M  V30 8208 H 804.114 1.13196 -2.75664 0
M  V30 8209 H 801.651 0.547857 -1.36517 0
M  V30 8210 H 803.609 3.54763 -2.19543 0
M  V30 8211 H 802.239 2.99873 -1.19482 0
M  V30 8212 H 801.291 1.84917 -3.3243 0
M  V30 8213 H 802.603 2.61411 -4.24812 0
M  V30 8214 H 801.757 4.88019 -3.60448 0
M  V30 8215 H 800.496 4.1394 -2.57886 0
M  V30 8216 H 799.501 3.02055 -4.59394 0
M  V30 8217 H 800.726 3.7931 -5.63294 0
M  V30 8218 H 798.672 5.25327 -3.92897 0
M  V30 8219 H 798.589 5.0282 -5.64543 0
M  V30 8220 H 799.857 6.0061 -4.96879 0
M  V30 8221 N 804.086 1.46499 0.581025 0
M  V30 8222 C 805.334 1.51596 1.33653 0
M  V30 8223 C 805.655 0.169859 1.94259 0
M  V30 8224 O 804.925 -0.803776 1.78651 0
M  V30 8225 H 803.505 0.558346 0.496244 0
M  V30 8226 H 806.167 1.8264 0.680338 0
M  V30 8227 H 805.263 2.26956 2.14237 0
M  V30 8228 N 805.565 -0.825799 1.34232 0
M  V30 8229 C 806.981 -1.11848 1.13851 0
M  V30 8230 C 807.181 -2.01405 -0.0619031 0
M  V30 8231 O 806.237 -2.41465 -0.738287 0
M  V30 8232 C 807.55 -1.76797 2.43235 0
M  V30 8233 C 809.098 -1.89304 2.49265 0
M  V30 8234 C 809.573 -2.57669 3.78643 0
M  V30 8235 N 811.064 -2.65171 3.79788 0
M  V30 8236 C 811.799 -3.1879 4.76614 0
M  V30 8237 N 811.295 -3.72995 5.83821 0
M  V30 8238 N 813.088 -3.17164 4.64073 0
M  V30 8239 H 805.239 -0.230049 2.11151 0
M  V30 8240 H 807.502 -0.164609 0.9336 0
M  V30 8241 H 807.208 -1.18455 3.31152 0
M  V30 8242 H 807.082 -2.76693 2.56361 0
M  V30 8243 H 809.469 -2.46796 1.6179 0
M  V30 8244 H 809.55 -0.883191 2.4007 0
M  V30 8245 H 809.194 -2.00833 4.66507 0
M  V30 8246 H 809.124 -3.59152 3.8512 0
M  V30 8247 H 811.615 -2.26746 3.02315 0
M  V30 8248 H 811.928 -4.12151 6.53721 0
M  V30 8249 H 810.273 -3.71246 5.87538 0
M  V30 8250 H 813.464 -2.74082 3.79469 0
M  V30 8251 H 813.637 -3.58647 5.397 0
M  V30 8252 N 807.043 -1.17915 -1.04565 0
M  V30 8253 C 808.292 -0.965816 -1.77073 0
M  V30 8254 C 808.605 0.506005 -1.88942 0
M  V30 8255 O 809.811 0.837717 -2.58253 0
M  V30 8256 C 808.267 -1.67894 -3.18339 0
M  V30 8257 C 807.875 -3.18972 -3.1458 0
M  V30 8258 C 809.619 -1.54823 -3.9526 0
M  V30 8259 C 807.526 -3.82946 -4.50674 0
M  V30 8260 H 806.456 -0.357729 -0.663736 0
M  V30 8261 H 809.107 -1.41235 -1.17153 0
M  V30 8262 H 807.489 -1.16016 -3.78624 0
M  V30 8263 H 808.663 -3.77835 -2.63776 0
M  V30 8264 H 806.978 -3.32127 -2.51159 0
M  V30 8265 H 809.575 -1.99984 -4.95894 0
M  V30 8266 H 809.918 -0.499727 -4.1329 0
M  V30 8267 H 810.451 -2.03953 -3.41538 0
M  V30 8268 H 807.19 -4.8782 -4.37849 0
M  V30 8269 H 806.71 -3.2887 -5.01602 0
M  V30 8270 H 808.389 -3.85518 -5.196 0
M  V30 8271 N 808.521 1.23394 -0.980386 0
M  V30 8272 C 809.761 1.93543 -0.657288 0
M  V30 8273 C 810.125 1.74791 0.794477 0
M  V30 8274 O 811.326 2.39089 1.2284 0
M  V30 8275 C 809.597 3.42025 -1.03701 0
M  V30 8276 S 811.156 4.30871 -0.830379 0
M  V30 8277 H 807.974 0.669012 -0.240717 0
M  V30 8278 H 810.576 1.49478 -1.26002 0
M  V30 8279 H 809.28 3.53183 -2.09022 0
M  V30 8280 H 808.811 3.91091 -0.425559 0
M  V30 8281 H 810.826 4.95377 0.285719 0
M  V30 8282 N 809.999 0.752036 1.385 0
M  V30 8283 C 810.929 0.138718 2.33088 0
M  V30 8284 C 811.91 -0.705318 1.54788 0
M  V30 8285 O 813.095 -0.646821 1.83112 0
M  V30 8286 C 810.225 -0.75641 3.38963 0
M  V30 8287 C 809.179 -0.0152239 4.27997 0
M  V30 8288 C 808.505 -1.0285 5.24715 0
M  V30 8289 C 809.805 1.15226 5.09431 0
M  V30 8290 H 811.499 0.928852 2.84627 0
M  V30 8291 H 809.045 0.448111 1.3685 0
M  V30 8292 H 810.998 -1.19513 4.04097 0
M  V30 8293 H 809.722 -1.57885 2.85902 0
M  V30 8294 H 808.381 0.404061 3.64366 0
M  V30 8295 H 808.029 -1.84496 4.67943 0
M  V30 8296 H 807.729 -0.537238 5.85139 0
M  V30 8297 H 809.253 -1.46657 5.92726 0
M  V30 8298 H 810.667 0.791161 5.67815 0
M  V30 8299 H 809.064 1.57428 5.79082 0
M  V30 8300 H 810.134 1.9659 4.43261 0
M  V30 8301 N 811.477 -1.49425 0.500989 0
M  V30 8302 C 812.409 -2.27037 -0.314159 0
M  V30 8303 C 813.422 -1.33578 -0.930626 0
M  V30 8304 O 814.611 -1.58861 -0.813968 0
M  V30 8305 C 811.711 -3.05968 -1.45729 0
M  V30 8306 C 810.884 -4.27 -0.948135 0
M  V30 8307 C 809.943 -4.87977 -1.96888 0
M  V30 8308 O 808.969 -5.48044 -1.53743 0
M  V30 8309 N 810.171 -4.77627 -3.29928 0
M  V30 8310 H 812.936 -2.97634 0.351336 0
M  V30 8311 H 810.497 -1.58427 0.333536 0
M  V30 8312 H 812.489 -3.43634 -2.1377 0
M  V30 8313 H 811.059 -2.37978 -2.02695 0
M  V30 8314 H 810.279 -3.94091 -0.0926311 0
M  V30 8315 H 811.567 -5.0541 -0.586362 0
M  V30 8316 H 810.965 -4.29926 -3.67669 0
M  V30 8317 H 809.522 -5.19478 -3.93682 0
M  V30 8318 N 812.955 -0.234822 -1.55841 0
M  V30 8319 C 814.203 0.392483 -1.98252 0
M  V30 8320 C 814.524 1.59344 -1.12404 0
M  V30 8321 O 813.794 1.94834 -0.204055 0
M  V30 8322 H 812.374 0.147999 -0.732192 0
M  V30 8323 H 815.036 -0.330804 -1.92072 0
M  V30 8324 H 814.132 0.709829 -3.03921 0
M  V30 8325 N 814.433 1.57553 0.0384317 0
M  V30 8326 C 815.38 2.05942 1.04194 0
M  V30 8327 C 816.35 0.946637 1.36484 0
M  V30 8328 O 817.535 1.21658 1.46983 0
M  V30 8329 C 814.675 2.53588 2.34066 0
M  V30 8330 C 813.788 3.7862 2.08017 0
M  V30 8331 C 812.923 4.14915 3.31692 0
M  V30 8332 C 811.962 5.32891 3.01155 0
M  V30 8333 N 811.099 5.64662 4.17254 0
M  V30 8334 H 815.939 2.91429 0.622341 0
M  V30 8335 H 813.476 1.44098 0.295684 0
M  V30 8336 H 815.434 2.79276 3.09937 0
M  V30 8337 H 814.064 1.71031 2.73767 0
M  V30 8338 H 813.116 3.60073 1.22686 0
M  V30 8339 H 814.428 4.64613 1.81484 0
M  V30 8340 H 813.582 4.41681 4.15936 0
M  V30 8341 H 812.321 3.27555 3.6133 0
M  V30 8342 H 811.326 5.05887 2.15311 0
M  V30 8343 H 812.551 6.21896 2.72804 0
M  V30 8344 H 810.497 4.80261 4.46861 0
M  V30 8345 H 810.414 6.45145 3.94112 0
M  V30 8346 H 811.682 5.96 5.02399 0
M  V30 8347 N 815.911 -0.310526 1.54511 0
M  V30 8348 C 817.151 -1.05498 1.7507 0
M  V30 8349 C 817.515 -1.84814 0.520381 0
M  V30 8350 O 818.716 -2.61937 0.603547 0
M  V30 8351 C 816.987 -1.94466 2.99863 0
M  V30 8352 S 818.546 -2.75686 3.41383 0
M  V30 8353 H 815.364 -0.355951 0.615483 0
M  V30 8354 H 817.966 -0.329464 1.92704 0
M  V30 8355 H 816.67 -1.35055 3.87541 0
M  V30 8356 H 816.201 -2.71401 2.84789 0
M  V30 8357 H 818.216 -3.96971 2.97706 0
M  V30 8358 N 817.389 -1.46805 -0.573248 0
M  V30 8359 C 818.635 -1.5283 -1.33307 0
M  V30 8360 C 818.968 -0.183287 -1.93333 0
M  V30 8361 O 818.243 0.806354 -1.76998 0
M  V30 8362 C 818.526 -2.63414 -2.45531 0
M  V30 8363 C 818.379 -4.07478 -1.90478 0
M  V30 8364 C 819.698 -2.70014 -3.47535 0
M  V30 8365 H 816.817 -0.556371 -0.483343 0
M  V30 8366 H 819.459 -1.78787 -0.643066 0
M  V30 8367 H 817.609 -2.41412 -3.04389 0
M  V30 8368 H 819.281 -4.40795 -1.36004 0
M  V30 8369 H 817.524 -4.16511 -1.21248 0
M  V30 8370 H 818.195 -4.80598 -2.71531 0
M  V30 8371 H 820.671 -2.89817 -2.98572 0
M  V30 8372 H 819.547 -3.49192 -4.23504 0
M  V30 8373 H 819.808 -1.76436 -4.05367 0
M  V30 8374 N 818.867 0.818669 -1.34668 0
M  V30 8375 C 820.144 1.56118 -1.17841 0
M  V30 8376 C 820.524 2.09646 0.24731 0
M  V30 8377 O 819.872 1.91329 1.24922 0
M  V30 8378 C 820.082 2.67922 -2.23649 0
M  V30 8379 C 821.43 3.36579 -2.58843 0
M  V30 8380 O 822.454 2.78182 -2.22471 0
M  V30 8381 O 821.313 4.42045 -3.21339 0
M  V30 8382 H 818.407 0.689216 -0.457067 0
M  V30 8383 H 820.953 0.859674 -1.46314 0
M  V30 8384 H 819.725 2.26153 -3.19328 0
M  V30 8385 H 819.348 3.45719 -1.96377 0
M  V30 8386 N 820.346 1.18468 1.03938 0
M  V30 8387 C 821.293 0.912859 2.1198 0
M  V30 8388 C 822.263 -0.14824 1.65437 0
M  V30 8389 O 823.448 -0.008331 1.90798 0
M  V30 8390 C 820.588 0.446114 3.42204 0
M  V30 8391 C 819.701 1.57278 4.02353 0
M  V30 8392 C 818.836 1.05863 5.20544 0
M  V30 8393 C 817.875 2.1599 5.72726 0
M  V30 8394 N 817.012 1.65959 6.82204 0
M  V30 8395 H 821.852 1.83798 2.34569 0
M  V30 8396 H 819.389 0.916504 1.15059 0
M  V30 8397 H 821.347 0.15697 4.16905 0
M  V30 8398 H 819.977 -0.442025 3.19759 0
M  V30 8399 H 819.029 1.97737 3.24968 0
M  V30 8400 H 820.341 2.40289 4.37107 0
M  V30 8401 H 819.495 0.724087 6.02364 0
M  V30 8402 H 818.234 0.198116 4.87297 0
M  V30 8403 H 817.239 2.50287 4.89527 0
M  V30 8404 H 818.464 3.02479 6.08016 0
M  V30 8405 H 816.41 0.82199 6.5083 0
M  V30 8406 H 816.327 2.42567 7.16029 0
M  V30 8407 H 817.595 1.35436 7.67644 0
M  V30 8408 N 821.824 -1.22873 0.986916 0
M  V30 8409 C 823.052 -1.95487 0.677663 0
M  V30 8410 C 823.467 -1.72978 -0.756572 0
M  V30 8411 O 822.824 -1.02517 -1.50985 0
M  V30 8412 C 822.875 -3.48337 0.966638 0
M  V30 8413 O 822.596 -3.70087 2.34451 0
M  V30 8414 C 824.097 -4.38142 0.674248 0
M  V30 8415 H 821.317 -0.622211 0.251185 0
M  V30 8416 H 823.861 -1.56187 1.32007 0
M  V30 8417 H 822.016 -3.85628 0.370137 0
M  V30 8418 H 822.43 -4.64332 2.43918 0
M  V30 8419 H 823.904 -5.44165 0.926759 0
M  V30 8420 H 824.381 -4.3745 -0.391728 0
M  V30 8421 H 824.987 -4.06469 1.25152 0
M  V30 8422 N 823.302 -0.75937 -1.38099 0
M  V30 8423 C 824.249 -0.135508 -2.30402 0
M  V30 8424 C 825.219 0.703356 -1.50473 0
M  V30 8425 O 826.404 0.658287 -1.79084 0
M  V30 8426 C 823.544 0.747228 -3.36913 0
M  V30 8427 C 822.657 -0.106893 -4.31868 0
M  V30 8428 C 821.792 0.779388 -5.25451 0
M  V30 8429 C 820.831 -0.0780179 -6.1205 0
M  V30 8430 N 819.968 0.765545 -6.97914 0
M  V30 8431 H 824.808 -0.9282 -2.83176 0
M  V30 8432 H 822.345 -0.46935 -1.39411 0
M  V30 8433 H 824.303 1.27371 -3.97281 0
M  V30 8434 H 822.933 1.50565 -2.85535 0
M  V30 8435 H 821.985 -0.751063 -3.72912 0
M  V30 8436 H 823.297 -0.768798 -4.9284 0
M  V30 8437 H 822.451 1.37282 -5.90964 0
M  V30 8438 H 821.19 1.47501 -4.6486 0
M  V30 8439 H 820.195 -0.684078 -5.45528 0
M  V30 8440 H 821.42 -0.770786 -6.74712 0
M  V30 8441 H 819.366 1.44601 -6.39864 0
M  V30 8442 H 819.283 0.160666 -7.55829 0
M  V30 8443 H 820.551 1.34377 -7.6783 0
M  V30 8444 N 824.78 1.49157 -0.508906 0
M  V30 8445 C 825.727 2.2927 0.265288 0
M  V30 8446 C 826.697 1.3603 0.953162 0
M  V30 8447 O 827.882 1.64989 0.958291 0
M  V30 8448 C 825.022 3.18897 1.31904 0
M  V30 8449 C 824.135 4.27201 0.642144 0
M  V30 8450 C 823.27 5.04033 1.67701 0
M  V30 8451 C 822.309 6.04165 0.982422 0
M  V30 8452 N 821.446 6.74133 1.96186 0
M  V30 8453 H 826.286 2.94967 -0.424107 0
M  V30 8454 H 823.823 1.45431 -0.220991 0
M  V30 8455 H 825.781 3.69242 1.94206 0
M  V30 8456 H 824.411 2.55168 1.97709 0
M  V30 8457 H 823.463 3.80283 -0.0943395 0
M  V30 8458 H 824.775 4.98708 0.0957507 0
M  V30 8459 H 823.929 5.58287 2.37487 0
M  V30 8460 H 822.668 4.32317 2.25728 0
M  V30 8461 H 821.673 5.49135 0.270378 0
M  V30 8462 H 822.898 6.7787 0.408554 0
M  V30 8463 H 820.844 6.05183 2.53159 0
M  V30 8464 H 820.761 7.41643 1.46634 0
M  V30 8465 H 822.029 7.32987 2.65236 0
M  V30 8466 N 826.258 0.243083 1.55714 0
M  V30 8467 C 827.205 -0.658078 2.21219 0
M  V30 8468 C 828.175 -1.1742 1.17481 0
M  V30 8469 O 829.36 -1.22937 1.45915 0
M  V30 8470 C 826.5 -1.85104 2.91257 0
M  V30 8471 C 825.613 -1.3718 4.09641 0
M  V30 8472 C 824.748 -2.52403 4.67404 0
M  V30 8473 C 823.787 -2.01321 5.78045 0
M  V30 8474 N 822.924 -3.09896 6.30007 0
M  V30 8475 H 827.764 -0.0927854 2.97856 0
M  V30 8476 H 825.301 -0.0340375 1.47061 0
M  V30 8477 H 827.259 -2.55179 3.3006 0
M  V30 8478 H 825.889 -2.38887 2.17101 0
M  V30 8479 H 824.941 -0.565232 3.76177 0
M  V30 8480 H 826.253 -0.957409 4.89525 0
M  V30 8481 H 825.407 -3.30525 5.08761 0
M  V30 8482 H 824.146 -2.97142 3.86728 0
M  V30 8483 H 823.151 -1.21667 5.36169 0
M  V30 8484 H 824.376 -1.57556 6.6057 0
M  V30 8485 H 822.322 -3.54077 5.52237 0
M  V30 8486 H 822.239 -2.72776 7.05074 0
M  V30 8487 H 823.507 -3.8809 6.76023 0
M  V30 8488 N 827.736 -1.57571 -0.0300757 0
M  V30 8489 C 828.966 -1.93204 -0.731828 0
M  V30 8490 C 829.374 -0.841156 -1.69473 0
M  V30 8491 O 828.717 0.191231 -1.82702 0
M  V30 8492 C 828.779 -3.2463 -1.54453 0
M  V30 8493 C 828.443 -4.50862 -0.746507 0
M  V30 8494 C 829.44 -5.19879 -0.0472309 0
M  V30 8495 C 827.125 -4.9738 -0.701347 0
M  V30 8496 C 829.119 -6.33692 0.686518 0
M  V30 8497 C 826.806 -6.11089 0.036148 0
M  V30 8498 C 827.804 -6.791 0.728841 0
M  V30 8499 O 827.492 -7.90635 1.45436 0
M  V30 8500 H 827.224 -0.6423 -0.210775 0
M  V30 8501 H 829.778 -2.05398 0.00804194 0
M  V30 8502 H 828.008 -3.0876 -2.32818 0
M  V30 8503 H 829.697 -3.45597 -2.1288 0
M  V30 8504 H 830.463 -4.84945 -0.0731582 0
M  V30 8505 H 826.342 -4.44288 -1.23001 0
M  V30 8506 H 829.886 -6.86711 1.22773 0
M  V30 8507 H 825.783 -6.45468 0.064002 0
M  V30 8508 H 826.551 -8.06988 1.36794 0
M  V30 8509 N 829.214 0.302327 -1.54673 0
M  V30 8510 C 830.444 1.05516 -1.77623 0
M  V30 8511 C 830.852 1.81474 -0.535159 0
M  V30 8512 O 830.195 1.76635 0.504543 0
M  V30 8513 C 830.257 2.08305 -2.93001 0
M  V30 8514 C 829.921 1.51554 -4.31139 0
M  V30 8515 C 830.918 0.946261 -5.11216 0
M  V30 8516 C 828.603 1.55157 -4.77736 0
M  V30 8517 C 830.597 0.420559 -6.36011 0
M  V30 8518 C 828.284 1.022 -6.02494 0
M  V30 8519 C 829.282 0.457461 -6.81466 0
M  V30 8520 O 828.97 -0.064083 -8.03874 0
M  V30 8521 H 828.702 0.318756 -0.59613 0
M  V30 8522 H 831.256 0.347558 -2.02438 0
M  V30 8523 H 829.486 2.82742 -2.63807 0
M  V30 8524 H 831.175 2.69479 -3.03539 0
M  V30 8525 H 831.941 0.911338 -4.76361 0
M  V30 8526 H 827.82 1.98037 -4.16296 0
M  V30 8527 H 831.364 -0.0207298 -6.97597 0
M  V30 8528 H 827.261 1.05406 -6.36836 0
M  V30 8529 H 828.029 0.0493422 -8.18485 0
M  V30 8530 N 830.692 1.47107 0.565454 0
M  V30 8531 C 831.917 1.57153 1.35343 0
M  V30 8532 C 832.342 0.219247 1.86818 0
M  V30 8533 O 831.7 -0.803539 1.62521 0
M  V30 8534 C 831.748 2.59387 2.50501 0
M  V30 8535 O 830.852 2.14086 3.52478 0
M  V30 8536 H 830.193 0.528209 0.402357 0
M  V30 8537 H 832.723 1.92821 0.684189 0
M  V30 8538 H 832.733 2.79546 2.97184 0
M  V30 8539 H 831.408 3.57579 2.12391 0
M  V30 8540 H 829.985 2.03991 3.12157 0
M  V30 8541 N 832.17 -0.811516 1.35101 0
M  V30 8542 C 833.398 -1.59981 1.31201 0
M  V30 8543 C 833.813 -1.8847 -0.111552 0
M  V30 8544 O 833.17 -1.48414 -1.06205 0
M  V30 8545 C 833.221 -2.934 2.11184 0
M  V30 8546 O 832.942 -2.66148 3.4799 0
M  V30 8547 C 834.443 -3.87776 2.14813 0
M  V30 8548 H 831.663 -0.496921 0.450899 0
M  V30 8549 H 834.207 -1.00886 1.77883 0
M  V30 8550 H 832.362 -3.49022 1.68115 0
M  V30 8551 H 832.776 -3.51301 3.89471 0
M  V30 8552 H 834.25 -4.7852 2.75178 0
M  V30 8553 H 834.727 -4.23997 1.14556 0
M  V30 8554 H 835.333 -3.3809 2.58022 0
M  V30 8555 N 833.648 -1.19017 -1.03309 0
M  V30 8556 C 834.873 -1.01598 -1.80811 0
M  V30 8557 C 835.298 0.430773 -1.83101 0
M  V30 8558 O 834.656 1.30946 -1.25391 0
M  V30 8559 C 834.704 -1.5845 -3.23923 0
M  V30 8560 O 833.808 -0.810972 -4.04348 0
M  V30 8561 H 833.149 -0.359398 -0.558327 0
M  V30 8562 H 835.679 -1.57945 -1.30055 0
M  V30 8563 H 835.689 -1.61486 -3.74682 0
M  V30 8564 H 834.364 -2.63752 -3.21571 0
M  V30 8565 H 832.941 -0.85353 -3.63 0
M  V30 8566 N 835.127 1.22348 -0.993418 0
M  V30 8567 C 836.352 1.95666 -0.687727 0
M  V30 8568 C 836.777 1.72883 0.741161 0
M  V30 8569 O 836.135 1.00837 1.50671 0
M  V30 8570 C 836.183 3.46457 -0.99998 0
M  V30 8571 O 835.287 4.12281 -0.0989386 0
M  V30 8572 H 834.628 0.612102 -0.257346 0
M  V30 8573 H 837.158 1.55428 -1.33054 0
M  V30 8574 H 837.168 3.96976 -0.942035 0
M  V30 8575 H 835.843 3.62365 -2.04118 0
M  V30 8576 H 834.42 3.72295 -0.212413 0
M  V30 8577 N 836.605 0.766683 1.37694 0
M  V30 8578 C 837.555 0.123173 2.27667 0
M  V30 8579 C 838.539 -0.679436 1.45851 0
M  V30 8580 O 839.731 -0.54324 1.68457 0
M  V30 8581 C 836.86 -0.759064 3.34803 0
M  V30 8582 C 835.946 0.0511009 4.24069 0
M  V30 8583 N 836.337 1.09418 4.93823 0
M  V30 8584 C 834.635 -0.173675 4.45662 0
M  V30 8585 C 835.336 1.58546 5.59677 0
M  V30 8586 N 834.312 0.898503 5.36123 0
M  V30 8587 H 838.114 0.921859 2.79068 0
M  V30 8588 H 835.628 0.603957 1.50752 0
M  V30 8589 H 837.625 -1.23581 3.98163 0
M  V30 8590 H 836.285 -1.55655 2.84959 0
M  V30 8591 H 837.296 1.47623 4.96415 0
M  V30 8592 H 833.973 -0.943473 4.067 0
M  V30 8593 H 835.363 2.45504 6.25442 0
M  V30 8594 N 838.083 -1.48885 0.516809 0
M  V30 8595 C 839.331 -2.02088 -0.0220166 0
M  V30 8596 C 839.652 -1.39735 -1.36011 0
M  V30 8597 O 838.922 -0.558119 -1.87781 0
M  V30 8598 H 837.502 -0.746917 -0.0111255 0
M  V30 8599 H 840.164 -1.8274 0.677647 0
M  V30 8600 H 839.26 -3.11786 -0.140067 0
M  V30 8601 N 839.561 -0.251338 -1.55583 0
M  V30 8602 C 840.509 0.662534 -2.22965 0
M  V30 8603 C 841.503 1.17662 -1.21869 0
M  V30 8604 O 842.709 1.133 -1.39868 0
M  V30 8605 H 839.084 0.232151 -0.715269 0
M  V30 8606 H 841.055 0.0711252 -2.98315 0
M  V30 8607 C 839.804 1.84646 -2.94621 0
M  V30 8608 H 839.127 1.46003 -3.72187 0
M  V30 8609 H 840.567 2.46303 -3.45124 0
M  V30 8610 C 839.026 2.72034 -1.98744 0
M  V30 8611 O 839.556 3.71695 -1.52335 0
M  V30 8612 N 837.762 2.38695 -1.6575 0
M  V30 8613 H 837.309 1.57702 -2.03685 0
M  V30 8614 H 837.267 2.9744 -1.01867 0
M  V30 8615 N 841.039 1.57585 0.0217189 0
M  V30 8616 C 842.285 1.90733 0.706582 0
M  V30 8617 C 842.64 0.850732 1.7257 0
M  V30 8618 O 841.933 -0.139715 1.9109 0
M  V30 8619 C 842.127 3.28377 1.41079 0
M  V30 8620 C 841.956 4.47327 0.461395 0
M  V30 8621 C 840.726 5.05237 0.0797404 0
M  V30 8622 C 842.924 5.13626 -0.263302 0
M  V30 8623 N 840.906 6.07702 -0.870139 0
M  V30 8624 C 842.277 6.10722 -1.06859 0
M  V30 8625 C 844.332 4.96809 -0.329461 0
M  V30 8626 C 843.035 6.92813 -1.93397 0
M  V30 8627 C 845.061 5.79468 -1.18199 0
M  V30 8628 C 844.423 6.7614 -1.97519 0
M  V30 8629 H 840.522 0.74666 0.232427 0
M  V30 8630 H 843.106 1.94671 -0.0335228 0
M  V30 8631 H 841.277 3.25354 2.12131 0
M  V30 8632 H 843.009 3.49018 2.04862 0
M  V30 8633 H 839.764 4.71519 0.443498 0
M  V30 8634 H 840.188 6.6361 -1.33981 0
M  V30 8635 H 844.83 4.2194 0.269485 0
M  V30 8636 H 842.548 7.67022 -2.54369 0
M  V30 8637 H 846.134 5.68502 -1.23681 0
M  V30 8638 H 845.014 7.38989 -2.62421 0
M  V30 8639 N 842.517 -0.29412 1.54831 0
M  V30 8640 C 843.765 -1.02643 1.74094 0
M  V30 8641 C 844.086 -1.87563 0.533402 0
M  V30 8642 O 843.356 -1.9061 -0.452192 0
M  V30 8643 H 841.936 -0.381959 0.641963 0
M  V30 8644 H 844.598 -0.323444 1.92197 0
M  V30 8645 H 843.694 -1.67558 2.63307 0
M  V30 8646 N 843.995 -1.47404 -0.557645 0
M  V30 8647 C 845.22 -1.57868 -1.34508 0
M  V30 8648 C 845.645 -0.229151 -1.86699 0
M  V30 8649 O 845.003 0.794908 -1.62944 0
M  V30 8650 C 845.051 -2.60712 -2.49122 0
M  V30 8651 O 844.155 -2.15952 -3.51338 0
M  V30 8652 H 843.496 -0.530335 -0.399551 0
M  V30 8653 H 846.026 -1.93181 -0.673954 0
M  V30 8654 H 846.036 -2.81118 -2.95697 0
M  V30 8655 H 844.711 -3.58701 -2.10491 0
M  V30 8656 H 843.288 -2.05644 -3.11071 0
M  V30 8657 N 845.473 0.80434 -1.35529 0
M  V30 8658 C 846.719 1.56328 -1.30127 0
M  V30 8659 C 847.074 1.92008 0.122699 0
M  V30 8660 O 846.367 1.58693 1.07364 0
M  V30 8661 C 846.561 2.85988 -2.14349 0
M  V30 8662 C 846.39 2.62977 -3.64792 0
M  V30 8663 C 845.16 2.58757 -4.34019 0
M  V30 8664 C 847.358 2.332 -4.58391 0
M  V30 8665 N 845.34 2.27487 -5.70195 0
M  V30 8666 C 846.711 2.11788 -5.82706 0
M  V30 8667 C 848.766 2.19082 -4.4711 0
M  V30 8668 C 847.469 1.77688 -6.97008 0
M  V30 8669 C 849.495 1.86378 -5.61264 0
M  V30 8670 C 848.857 1.65804 -6.84608 0
M  V30 8671 H 844.956 0.57368 -0.531428 0
M  V30 8672 H 847.54 0.941313 -1.70433 0
M  V30 8673 H 845.711 3.46077 -1.76311 0
M  V30 8674 H 847.443 3.51571 -2.00449 0
M  V30 8675 H 844.198 2.73484 -3.86656 0
M  V30 8676 H 844.622 2.1464 -6.42074 0
M  V30 8677 H 849.264 2.33686 -3.5235 0
M  V30 8678 H 846.982 1.61822 -7.91732 0
M  V30 8679 H 850.568 1.7616 -5.5449 0
M  V30 8680 H 849.448 1.40868 -7.71444 0
M  V30 8681 N 846.951 1.19563 1.02676 0
M  V30 8682 C 848.199 0.997593 1.75763 0
M  V30 8683 C 848.52 -0.47253 1.89188 0
M  V30 8684 O 847.79 -1.34214 1.42701 0
M  V30 8685 H 846.37 0.366128 0.651122 0
M  V30 8686 H 849.032 1.50495 1.23844 0
M  V30 8687 H 848.128 1.44741 2.76508 0
M  V30 8688 N 848.429 -1.21819 0.999893 0
M  V30 8689 C 849.654 -1.95298 0.698094 0
M  V30 8690 C 850.079 -1.73273 -0.731982 0
M  V30 8691 O 849.437 -1.01634 -1.50134 0
M  V30 8692 C 849.485 -3.45922 1.01834 0
M  V30 8693 O 848.589 -4.12223 0.120801 0
M  V30 8694 H 847.93 -0.610729 0.260588 0
M  V30 8695 H 850.46 -1.5472 1.33876 0
M  V30 8696 H 850.47 -3.96471 0.963074 0
M  V30 8697 H 849.145 -3.61278 2.06037 0
M  V30 8698 H 847.722 -3.72177 0.232153 0
M  V30 8699 N 849.908 -0.773975 -1.37286 0
M  V30 8700 C 851.154 -0.348833 -2.00386 0
M  V30 8701 C 851.509 1.06347 -1.60337 0
M  V30 8702 O 850.802 1.72178 -0.840545 0
M  V30 8703 C 850.996 -0.432651 -3.54772 0
M  V30 8704 C 850.825 -1.85155 -4.09814 0
M  V30 8705 C 849.595 -2.47272 -4.40664 0
M  V30 8706 C 851.793 -2.8114 -4.30656 0
M  V30 8707 N 849.775 -3.80912 -4.81435 0
M  V30 8708 C 851.146 -3.99582 -4.74061 0
M  V30 8709 C 853.201 -2.78398 -4.12794 0
M  V30 8710 C 851.904 -5.1567 -5.01475 0
M  V30 8711 C 853.93 -3.9366 -4.41345 0
M  V30 8712 C 853.292 -5.10844 -4.84992 0
M  V30 8713 H 849.391 -0.174738 -0.762227 0
M  V30 8714 H 851.975 -1.00828 -1.66559 0
M  V30 8715 H 850.146 0.19663 -3.87902 0
M  V30 8716 H 851.878 0.0147601 -4.04697 0
M  V30 8717 H 848.633 -1.98872 -4.29822 0
M  V30 8718 H 849.057 -4.49628 -5.06126 0
M  V30 8719 H 853.699 -1.8897 -3.7822 0
M  V30 8720 H 851.417 -6.05696 -5.34938 0
M  V30 8721 H 855.003 -3.92882 -4.2911 0
M  V30 8722 H 853.883 -5.98553 -5.0666 0
M  V30 8723 N 851.386 1.48609 -0.524698 0
M  V30 8724 C 852.634 2.02097 0.0112991 0
M  V30 8725 C 852.955 1.40455 1.35268 0
M  V30 8726 O 852.225 0.56807 1.87483 0
M  V30 8727 H 850.805 0.746966 0.00716426 0
M  V30 8728 H 853.467 1.82378 -0.687329 0
M  V30 8729 H 852.563 3.11855 0.123531 0
M  V30 8730 N 852.864 0.259585 1.55447 0
M  V30 8731 C 853.796 -0.667548 2.19263 0
M  V30 8732 C 854.809 -1.12925 1.17268 0
M  V30 8733 O 855.998 -1.05384 1.44071 0
M  V30 8734 C 853.098 -1.92066 2.7922 0
M  V30 8735 C 852.271 -1.60832 4.06758 0
M  V30 8736 C 851.33 -2.71231 4.50911 0
M  V30 8737 O 850.356 -2.38077 5.17019 0
M  V30 8738 N 851.558 -4.00984 4.19752 0
M  V30 8739 H 854.323 -0.121449 2.99454 0
M  V30 8740 H 851.884 0.0800519 1.61702 0
M  V30 8741 H 853.876 -2.65186 3.0571 0
M  V30 8742 H 852.446 -2.37621 2.03113 0
M  V30 8743 H 851.666 -0.711685 3.87722 0
M  V30 8744 H 852.954 -1.37445 4.89884 0
M  V30 8745 H 852.352 -4.30748 3.66706 0
M  V30 8746 H 850.909 -4.7053 4.51048 0
M  V30 8747 N 854.342 -1.57594 -0.0133615 0
M  V30 8748 C 855.582 -1.91834 -0.705639 0
M  V30 8749 C 855.946 -0.859801 -1.71672 0
M  V30 8750 O 857.147 -1.08702 -2.4584 0
M  V30 8751 C 855.418 -3.31174 -1.34383 0
M  V30 8752 S 856.977 -3.87275 -2.06309 0
M  V30 8753 H 853.795 -0.671598 -0.233404 0
M  V30 8754 H 856.397 -1.95459 0.0401173 0
M  V30 8755 H 855.101 -4.06065 -0.594939 0
M  V30 8756 H 854.632 -3.3089 -2.12781 0
M  V30 8757 H 856.647 -3.67271 -3.33657 0
M  V30 8758 N 855.82 0.285905 -1.54985 0
M  V30 8759 C 857.045 1.04207 -1.7932 0
M  V30 8760 C 857.47 1.79622 -0.558343 0
M  V30 8761 O 856.828 1.74506 0.491661 0
M  V30 8762 C 856.876 1.98648 -3.0095 0
M  V30 8763 O 855.98 3.07207 -2.75132 0
M  V30 8764 H 855.321 0.298596 -0.593074 0
M  V30 8765 H 857.851 0.318736 -2.02102 0
M  V30 8766 H 857.861 2.4084 -3.29333 0
M  V30 8767 H 856.536 1.43167 -3.90482 0
M  V30 8768 H 855.113 2.69423 -2.57809 0
M  V30 8769 N 857.298 1.47698 0.54982 0
M  V30 8770 C 858.714 1.3338 0.876468 0
M  V30 8771 C 858.914 0.329837 1.98782 0
M  V30 8772 O 857.97 -0.256022 2.51199 0
M  V30 8773 C 859.283 2.72903 1.26272 0
M  V30 8774 C 860.831 2.81243 1.37373 0
M  V30 8775 C 861.306 4.21423 1.79351 0
M  V30 8776 N 862.797 4.24 1.86489 0
M  V30 8777 C 863.532 5.29386 2.20313 0
M  V30 8778 N 863.028 6.4507 2.527 0
M  V30 8779 N 864.821 5.16768 2.2115 0
M  V30 8780 H 856.972 2.11603 -0.183781 0
M  V30 8781 H 859.235 0.947798 -0.0195601 0
M  V30 8782 H 858.941 3.47836 0.519889 0
M  V30 8783 H 858.815 3.05151 2.21727 0
M  V30 8784 H 861.202 2.06577 2.10737 0
M  V30 8785 H 861.283 2.52639 0.400882 0
M  V30 8786 H 860.927 4.96597 1.06555 0
M  V30 8787 H 860.857 4.47456 2.77652 0
M  V30 8788 H 863.348 3.40547 1.63817 0
M  V30 8789 H 863.661 7.21236 2.77557 0
M  V30 8790 H 862.006 6.48377 2.50263 0
M  V30 8791 H 865.197 4.25416 1.95293 0
M  V30 8792 H 865.37 5.99004 2.4718 0
M  V30 8793 N 858.776 -0.797141 1.35954 0
M  V30 8794 C 860.001 -1.59097 1.33053 0
M  V30 8795 C 860.426 -1.87897 -0.0874592 0
M  V30 8796 O 859.784 -1.47291 -1.05712 0
M  V30 8797 C 859.832 -2.89346 2.152 0
M  V30 8798 O 858.936 -3.826 1.5392 0
M  V30 8799 H 858.277 -0.482895 0.45575 0
M  V30 8800 H 860.807 -0.988633 1.79129 0
M  V30 8801 H 860.817 -3.38686 2.27499 0
M  V30 8802 H 859.492 -2.6771 3.18283 0
M  V30 8803 H 858.069 -3.41174 1.50516 0
M  V30 8804 N 860.254 -1.20106 -1.0204 0
M  V30 8805 C 861.494 -1.02013 -1.77123 0
M  V30 8806 C 861.858 0.440439 -1.8688 0
M  V30 8807 O 863.059 0.74144 -2.58372 0
M  V30 8808 C 861.33 -1.68058 -3.15423 0
M  V30 8809 S 862.889 -1.65016 -4.0659 0
M  V30 8810 H 859.707 -0.365882 -0.609632 0
M  V30 8811 H 862.309 -1.52597 -1.22206 0
M  V30 8812 H 861.013 -2.73544 -3.05944 0
M  V30 8813 H 860.544 -1.17589 -3.75415 0
M  V30 8814 H 862.559 -0.680341 -4.91514 0
M  V30 8815 N 861.732 1.21287 -1.00634 0
M  V30 8816 C 862.98 1.90013 -0.688438 0
M  V30 8817 C 863.301 1.78573 0.783365 0
M  V30 8818 O 862.571 1.1815 1.56261 0
M  V30 8819 H 861.151 0.703336 -0.251648 0
M  V30 8820 H 863.813 1.47346 -1.27574 0
M  V30 8821 H 862.909 2.96879 -0.962781 0
M  V30 8822 N 863.21 0.781244 1.36873 0
M  V30 8823 C 864.458 0.349198 1.9906 0
M  V30 8824 C 864.779 -1.0806 1.62321 0
M  V30 8825 O 864.049 -1.74351 0.893229 0
M  V30 8826 H 862.629 0.126126 0.736275 0
M  V30 8827 H 865.291 1.00148 1.67202 0
M  V30 8828 H 864.387 0.434451 3.09061 0
M  V30 8829 N 864.689 -1.48329 0.532571 0
M  V30 8830 C 865.937 -2.021 -0.000581206 0
M  V30 8831 C 866.258 -1.4117 -1.34522 0
M  V30 8832 O 865.528 -0.578005 -1.87179 0
M  V30 8833 H 864.108 -0.746993 -0.00320281 0
M  V30 8834 H 866.77 -1.82011 0.696991 0
M  V30 8835 H 865.866 -3.11917 -0.106991 0
M  V30 8836 N 866.167 -0.267825 -1.55308 0
M  V30 8837 C 867.413 0.351556 -1.9973 0
M  V30 8838 C 867.746 1.56049 -1.15596 0
M  V30 8839 O 867.021 1.93203 -0.224274 0
M  V30 8840 C 867.304 0.74091 -3.52395 0
M  V30 8841 C 867.157 -0.474861 -4.47286 0
M  V30 8842 C 868.476 1.5801 -4.10756 0
M  V30 8843 H 865.595 0.126308 -0.726096 0
M  V30 8844 H 868.237 -0.373316 -1.86296 0
M  V30 8845 H 866.387 1.35851 -3.63973 0
M  V30 8846 H 868.059 -1.1134 -4.47662 0
M  V30 8847 H 866.302 -1.11425 -4.19246 0
M  V30 8848 H 866.973 -0.158782 -5.51772 0
M  V30 8849 H 869.449 1.05857 -4.0241 0
M  V30 8850 H 868.325 1.82135 -5.17801 0
M  V30 8851 H 868.586 2.55878 -3.60526 0
M  V30 8852 N 867.645 1.57599 0.00500368 0
M  V30 8853 C 868.577 2.04949 1.02609 0
M  V30 8854 C 869.59 0.966507 1.31006 0
M  V30 8855 O 870.779 1.2434 1.2807 0
M  V30 8856 C 867.879 2.43023 2.36206 0
M  V30 8857 C 867.052 3.73993 2.26821 0
M  V30 8858 C 866.111 3.9899 3.43065 0
M  V30 8859 O 865.137 4.69725 3.21477 0
M  V30 8860 N 866.339 3.46496 4.65748 0
M  V30 8861 H 869.104 2.93167 0.622336 0
M  V30 8862 H 866.665 1.60752 0.192488 0
M  V30 8863 H 868.657 2.56863 3.12735 0
M  V30 8864 H 867.227 1.60349 2.68341 0
M  V30 8865 H 866.447 3.70277 1.35235 0
M  V30 8866 H 867.735 4.59865 2.17719 0
M  V30 8867 H 867.133 2.89206 4.86186 0
M  V30 8868 H 865.69 3.65675 5.3956 0
M  V30 8869 N 869.123 -0.277682 1.55134 0
M  V30 8870 C 870.37 -1.0099 1.7552 0
M  V30 8871 C 870.698 -1.86452 0.553712 0
M  V30 8872 O 869.953 -1.90122 -0.463896 0
M  V30 8873 C 870.252 -1.92599 3.01065 0
M  V30 8874 C 869.918 -1.22926 4.3382 0
M  V30 8875 C 868.58 -1.03659 4.69902 0
M  V30 8876 C 870.932 -0.733071 5.16019 0
M  V30 8877 C 868.26 -0.334933 5.85743 0
M  V30 8878 C 870.612 -0.0450319 6.32584 0
M  V30 8879 C 869.276 0.159393 6.6731 0
M  V30 8880 H 868.546 -0.36955 0.642273 0
M  V30 8881 H 871.193 -0.282611 1.89403 0
M  V30 8882 H 869.498 -2.71934 2.82062 0
M  V30 8883 H 871.195 -2.49367 3.14034 0
M  V30 8884 H 867.785 -1.38933 4.05457 0
M  V30 8885 H 871.969 -0.869565 4.88623 0
M  V30 8886 H 867.225 -0.165783 6.11175 0
M  V30 8887 H 871.399 0.34723 6.95534 0
M  V30 8888 H 869.026 0.70507 7.56923 0
M  V30 8889 N 870.601 -1.47988 -0.541979 0
M  V30 8890 C 871.564 -1.61148 -1.62984 0
M  V30 8891 C 872.564 -0.48553 -1.53295 0
M  V30 8892 O 873.754 -0.751012 -1.5718 0
M  V30 8893 C 870.886 -1.57038 -3.02576 0
M  V30 8894 H 872.079 -2.58138 -1.52659 0
M  V30 8895 H 869.632 -1.36405 -0.763106 0
M  V30 8896 H 870.367 -0.614807 -3.18419 0
M  V30 8897 H 870.152 -2.38769 -3.11018 0
M  V30 8898 H 871.642 -1.69416 -3.81691 0
M  V30 8899 N 872.079 0.78992 -1.36375 0
M  V30 8900 C 873.309 1.57644 -1.33536 0
M  V30 8901 C 873.717 1.89007 0.0855075 0
M  V30 8902 O 873.06 1.50547 1.05267 0
M  V30 8903 C 873.122 2.92424 -2.09113 0
M  V30 8904 C 872.786 2.83793 -3.58205 0
M  V30 8905 C 873.783 2.56072 -4.52464 0
M  V30 8906 C 871.468 3.02386 -4.01084 0
M  V30 8907 C 873.462 2.47044 -5.87578 0
M  V30 8908 C 871.149 2.9298 -5.36289 0
M  V30 8909 C 872.147 2.65347 -6.29349 0
M  V30 8910 O 871.835 2.55935 -7.62071 0
M  V30 8911 H 871.567 0.495639 -0.459694 0
M  V30 8912 H 874.121 0.988354 -1.80058 0
M  V30 8913 H 872.351 3.53282 -1.57254 0
M  V30 8914 H 874.04 3.53693 -1.99139 0
M  V30 8915 H 874.806 2.4141 -4.2065 0
M  V30 8916 H 870.685 3.229 -3.29023 0
M  V30 8917 H 874.229 2.25396 -6.60184 0
M  V30 8918 H 870.126 3.07204 -5.67711 0
M  V30 8919 H 870.894 2.7142 -7.72187 0
M  V30 8920 N 873.557 1.20646 1.01402 0
M  V30 8921 C 874.973 0.961866 1.27359 0
M  V30 8922 C 875.173 -0.357083 1.98311 0
M  V30 8923 O 874.229 -1.08498 2.28001 0
M  V30 8924 C 875.542 2.14627 2.10609 0
M  V30 8925 C 877.09 2.18753 2.23866 0
M  V30 8926 C 877.565 3.36686 3.10494 0
M  V30 8927 N 879.056 3.36716 3.18083 0
M  V30 8928 C 879.791 4.24615 3.85343 0
M  V30 8929 N 879.287 5.22697 4.54708 0
M  V30 8930 N 881.08 4.12449 3.81893 0
M  V30 8931 H 873.231 2.05481 0.537721 0
M  V30 8932 H 875.494 0.899292 0.299963 0
M  V30 8933 H 875.2 3.10159 1.65814 0
M  V30 8934 H 875.074 2.12935 3.11349 0
M  V30 8935 H 877.461 1.23782 2.67885 0
M  V30 8936 H 877.542 2.24492 1.22626 0
M  V30 8937 H 877.186 4.31945 2.67181 0
M  V30 8938 H 877.116 3.28185 4.11828 0
M  V30 8939 H 879.607 2.65728 2.68695 0
M  V30 8940 H 879.92 5.86087 5.03708 0
M  V30 8941 H 878.265 5.26631 4.53525 0
M  V30 8942 H 881.456 3.35091 3.26851 0
M  V30 8943 H 881.629 4.81162 4.34035 0
M  V30 8944 N 875.035 -1.20752 1.01276 0
M  V30 8945 C 875.985 -2.21252 0.550602 0
M  V30 8946 C 876.969 -1.56052 -0.391985 0
M  V30 8947 O 878.161 -1.75682 -0.215575 0
M  V30 8948 C 875.29 -3.43112 -0.113601 0
M  V30 8949 C 874.376 -4.15485 0.850465 0
M  V30 8950 N 874.767 -4.64301 2.00643 0
M  V30 8951 C 873.065 -4.40932 0.670476 0
M  V30 8952 C 873.766 -5.197 2.61317 0
M  V30 8953 N 872.742 -5.09534 1.8941 0
M  V30 8954 H 876.544 -2.56657 1.43194 0
M  V30 8955 H 874.058 -1.36646 0.877597 0
M  V30 8956 H 876.055 -4.1433 -0.462211 0
M  V30 8957 H 874.715 -3.09213 -0.990825 0
M  V30 8958 H 875.726 -4.59637 2.38651 0
M  V30 8959 H 872.403 -4.17197 -0.159016 0
M  V30 8960 H 873.793 -5.67873 3.59123 0
M  V30 8961 N 876.513 -0.788492 -1.36457 0
M  V30 8962 C 877.753 -0.365855 -2.01099 0
M  V30 8963 C 878.117 1.04262 -1.61225 0
M  V30 8964 O 879.318 1.56628 -2.18451 0
M  V30 8965 C 877.589 -0.523344 -3.53548 0
M  V30 8966 S 879.148 -0.188448 -4.38395 0
M  V30 8967 H 875.966 -0.139832 -0.697114 0
M  V30 8968 H 878.568 -1.02678 -1.66365 0
M  V30 8969 H 877.272 -1.54874 -3.80055 0
M  V30 8970 H 876.803 0.153547 -3.931 0
M  V30 8971 H 878.818 1.0103 -4.85806 0
M  V30 8972 N 877.991 1.48044 -0.54043 0
M  V30 8973 C 878.939 2.31461 0.229862 0
M  V30 8974 C 879.933 1.41884 0.925495 0
M  V30 8975 O 881.139 1.58736 0.848689 0
M  V30 8976 H 877.514 0.746227 0.0929975 0
M  V30 8977 H 879.485 2.94297 -0.493118 0
M  V30 8978 C 878.234 3.24172 1.25729 0
M  V30 8979 H 877.557 3.93052 0.731426 0
M  V30 8980 H 878.997 3.85404 1.76747 0
M  V30 8981 C 877.456 2.4651 2.2964 0
M  V30 8982 O 877.986 2.19742 3.36268 0
M  V30 8983 N 876.192 2.07817 2.03127 0
M  V30 8984 H 875.739 2.29786 1.1643 0
M  V30 8985 H 875.697 1.56168 2.72872 0
M  V30 8986 N 879.47 0.276058 1.55163 0
M  V30 8987 C 880.418 -0.626978 2.2399 0
M  V30 8988 C 881.412 -1.15708 1.23725 0
M  V30 8989 O 882.618 -1.1106 1.41653 0
M  V30 8990 H 878.993 -0.220742 0.718872 0
M  V30 8991 H 880.964 -0.0236569 2.98391 0
M  V30 8992 C 879.713 -1.79935 2.97521 0
M  V30 8993 H 879.036 -1.40064 3.74463 0
M  V30 8994 H 880.476 -2.40781 3.48999 0
M  V30 8995 C 878.935 -2.68838 2.03046 0
M  V30 8996 O 879.465 -3.69224 1.58229 0
M  V30 8997 N 877.671 -2.36028 1.69527 0
M  V30 8998 H 877.218 -1.54442 2.06169 0
M  V30 8999 H 877.176 -2.95782 1.06586 0
M  V30 9000 N 880.948 -1.576 0.00335426 0
M  V30 9001 C 882.359 -1.7875 -0.539008 0
M  V30 9002 C 882.71 -0.911097 -1.73763 0
M  V30 9003 O 881.835 -0.114476 -2.16097 0
M  V30 9004 C 882.43 -3.24177 -0.984611 0
M  V30 9005 C 880.989 -3.46412 -1.47226 0
M  V30 9006 C 880.136 -2.74024 -0.425004 0
M  V30 9007 H 883.087 -1.57032 0.229511 0
M  V30 9008 H 883.108 -3.32474 -1.85044 0
M  V30 9009 H 882.62 -3.87938 -0.112035 0
M  V30 9010 H 880.721 -2.8787 -2.36562 0
M  V30 9011 H 880.834 -4.55098 -1.49741 0
M  V30 9012 H 879.198 -2.38741 -0.887394 0
M  V30 9013 H 879.981 -3.40486 0.438662 0
M  V30 9014 N 882.426 0.269451 -1.5528 0
M  V30 9015 C 883.389 1.31642 -1.87625 0
M  V30 9016 C 884.389 1.42182 -0.751058 0
M  V30 9017 O 885.579 1.41272 -1.01921 0
M  V30 9018 C 882.711 2.6973 -2.08467 0
M  V30 9019 H 883.904 1.0419 -2.81219 0
M  V30 9020 H 881.457 0.507685 -1.47825 0
M  V30 9021 H 882.192 3.02356 -1.17266 0
M  V30 9022 H 881.977 2.63465 -2.90394 0
M  V30 9023 H 883.467 3.4537 -2.34753 0
M  V30 9024 N 883.904 1.48273 0.534124 0
M  V30 9025 C 885.315 1.49667 1.1161 0
M  V30 9026 C 885.666 0.264139 1.94414 0
M  V30 9027 O 884.791 -0.629084 2.07054 0
M  V30 9028 C 885.386 2.71191 2.03079 0
M  V30 9029 C 883.945 2.7547 2.56502 0
M  V30 9030 C 883.092 2.43119 1.33373 0
M  V30 9031 H 886.043 1.55449 0.319578 0
M  V30 9032 H 886.064 2.49473 2.87304 0
M  V30 9033 H 885.576 3.60879 1.42785 0
M  V30 9034 H 883.677 1.89979 3.20529 0
M  V30 9035 H 883.79 3.76787 2.95919 0
M  V30 9036 H 882.154 1.94187 1.64813 0
M  V30 9037 H 882.937 3.35044 0.748375 0
M  V30 9038 N 885.382 -0.782676 1.36792 0
M  V30 9039 C 886.798 -1.08169 1.17352 0
M  V30 9040 C 886.998 -2.015 0.0022037 0
M  V30 9041 O 886.054 -2.43692 -0.661093 0
M  V30 9042 C 887.367 -1.68969 2.48737 0
M  V30 9043 C 888.915 -1.81278 2.55161 0
M  V30 9044 C 889.39 -2.45492 3.86649 0
M  V30 9045 N 890.881 -2.52954 3.88032 0
M  V30 9046 C 891.616 -3.03465 4.86515 0
M  V30 9047 N 891.112 -3.54232 5.95392 0
M  V30 9048 N 892.905 -3.02239 4.73928 0
M  V30 9049 H 885.056 -0.162757 2.11775 0
M  V30 9050 H 887.319 -0.134823 0.938364 0
M  V30 9051 H 887.025 -1.07859 3.34753 0
M  V30 9052 H 886.899 -2.68397 2.65034 0
M  V30 9053 H 889.286 -2.41524 1.69559 0
M  V30 9054 H 889.367 -0.806367 2.42758 0
M  V30 9055 H 889.011 -1.85889 4.7266 0
M  V30 9056 H 888.941 -3.46718 3.96351 0
M  V30 9057 H 891.432 -2.17014 3.09376 0
M  V30 9058 H 891.745 -3.91145 6.66503 0
M  V30 9059 H 890.09 -3.52366 5.99052 0
M  V30 9060 H 893.281 -2.61871 3.87996 0
M  V30 9061 H 893.454 -3.41295 5.50837 0
M  V30 9062 N 886.86 -1.21182 -1.00761 0
M  V30 9063 C 887.808 -0.965728 -2.11604 0
M  V30 9064 C 888.802 0.0861028 -1.69181 0
M  V30 9065 O 890.008 -0.0650558 -1.79882 0
M  V30 9066 H 886.383 -0.295023 -0.691712 0
M  V30 9067 H 888.354 -1.90667 -2.2954 0
M  V30 9068 C 887.103 -0.544164 -3.43415 0
M  V30 9069 H 886.426 -1.34515 -3.76491 0
M  V30 9070 H 887.866 -0.411268 -4.22001 0
M  V30 9071 C 886.325 0.744583 -3.28569 0
M  V30 9072 O 886.855 1.80078 -3.59075 0
M  V30 9073 N 885.061 0.710083 -2.81791 0
M  V30 9074 H 884.608 -0.14971 -2.57165 0
M  V30 9075 H 884.566 1.57268 -2.72239 0
M  V30 9076 N 888.338 1.20213 -1.01915 0
M  V30 9077 C 889.286 2.25125 -0.584936 0
M  V30 9078 C 890.28 1.65138 0.377602 0
M  V30 9079 O 891.486 1.78294 0.247245 0
M  V30 9080 H 887.861 0.732333 -0.170858 0
M  V30 9081 H 889.832 2.59075 -1.48063 0
M  V30 9082 C 888.581 3.47651 0.058389 0
M  V30 9083 H 887.904 3.9409 -0.673263 0
M  V30 9084 H 889.344 4.2275 0.325285 0
M  V30 9085 C 887.803 3.10725 1.30199 0
M  V30 9086 O 888.333 3.22491 2.39505 0
M  V30 9087 N 886.539 2.6525 1.18706 0
M  V30 9088 H 886.086 2.55875 0.297618 0
M  V30 9089 H 886.044 2.40913 2.02011 0
M  V30 9090 N 889.816 0.795718 1.36037 0
M  V30 9091 C 891.064 0.370291 1.98679 0
M  V30 9092 C 891.385 -1.06332 1.63458 0
M  V30 9093 O 890.655 -1.73394 0.911671 0
M  V30 9094 H 889.235 0.133928 0.734896 0
M  V30 9095 H 891.897 1.01915 1.6613 0
M  V30 9096 H 890.993 0.467207 3.08583 0
M  V30 9097 N 891.294 -1.47756 0.548274 0
M  V30 9098 C 892.71 -1.58247 0.207401 0
M  V30 9099 C 892.91 -1.54804 -1.28988 0
M  V30 9100 O 891.966 -1.44673 -2.06944 0
M  V30 9101 C 893.279 -2.89129 0.826142 0
M  V30 9102 C 894.827 -3.02695 0.79655 0
M  V30 9103 C 895.302 -4.36264 1.3942 0
M  V30 9104 N 896.793 -4.42877 1.35698 0
M  V30 9105 C 897.528 -5.44773 1.78913 0
M  V30 9106 N 897.024 -6.53528 2.29942 0
M  V30 9107 N 898.817 -5.35765 1.70038 0
M  V30 9108 H 890.968 -1.48236 1.52117 0
M  V30 9109 H 893.231 -0.704957 0.633829 0
M  V30 9110 H 892.937 -2.97358 1.87806 0
M  V30 9111 H 892.811 -3.75891 0.313916 0
M  V30 9112 H 895.198 -2.94067 -0.246655 0
M  V30 9113 H 895.279 -2.17496 1.34644 0
M  V30 9114 H 894.923 -4.45646 2.43642 0
M  V30 9115 H 894.853 -5.20179 0.819827 0
M  V30 9116 H 897.344 -3.64874 0.983623 0
M  V30 9117 H 897.657 -7.27441 2.60863 0
M  V30 9118 H 896.002 -6.54442 2.33947 0
M  V30 9119 H 899.193 -4.49699 1.29955 0
M  V30 9120 H 899.366 -6.1504 2.04035 0
M  V30 9121 N 892.772 -0.284283 -1.55015 0
M  V30 9122 C 894.002 0.332465 -2.03907 0
M  V30 9123 C 894.41 1.49331 -1.16177 0
M  V30 9124 O 893.753 1.82851 -0.176395 0
M  V30 9125 C 893.815 0.867193 -3.48884 0
M  V30 9126 C 893.479 -0.166198 -4.56698 0
M  V30 9127 C 894.476 -0.988898 -5.10408 0
M  V30 9128 C 892.161 -0.303081 -5.01385 0
M  V30 9129 C 894.155 -1.93458 -6.07333 0
M  V30 9130 C 891.842 -1.25223 -5.98133 0
M  V30 9131 C 892.84 -2.06647 -6.50988 0
M  V30 9132 O 892.528 -2.99955 -7.45843 0
M  V30 9133 H 892.26 0.0786597 -0.671408 0
M  V30 9134 H 894.814 -0.416871 -2.01125 0
M  V30 9135 H 893.044 1.66676 -3.48935 0
M  V30 9136 H 894.733 1.39802 -3.81065 0
M  V30 9137 H 895.499 -0.89393 -4.76691 0
M  V30 9138 H 891.378 0.320711 -4.59883 0
M  V30 9139 H 894.922 -2.57053 -6.48513 0
M  V30 9140 H 890.819 -1.34798 -6.31268 0
M  V30 9141 H 891.587 -2.94742 -7.6359 0
M  V30 9142 N 894.251 1.57596 -0.0117121 0
M  V30 9143 C 895.491 1.92932 0.675031 0
M  V30 9144 C 895.855 0.887004 1.70283 0
M  V30 9145 O 897.056 1.12599 2.4408 0
M  V30 9146 C 895.327 3.3327 1.29098 0
M  V30 9147 S 896.886 3.90509 2.00121 0
M  V30 9148 H 893.704 0.675226 0.22269 0
M  V30 9149 H 896.306 1.9537 -0.071208 0
M  V30 9150 H 895.01 4.0696 0.530262 0
M  V30 9151 H 894.541 3.34233 2.0749 0
M  V30 9152 H 896.556 3.72532 3.27771 0
M  V30 9153 N 895.729 -0.261212 1.5542 0
M  V30 9154 C 896.957 -1.00916 1.8062 0
M  V30 9155 C 897.372 -1.79494 0.585444 0
M  V30 9156 O 896.729 -1.76974 -0.445702 0
M  V30 9157 C 896.78 -1.95841 3.03856 0
M  V30 9158 O 896.501 -1.20445 4.21218 0
M  V30 9159 C 898.002 -2.82352 3.41749 0
M  V30 9160 H 895.222 -0.297596 0.601397 0
M  V30 9161 H 897.766 -0.288427 2.02456 0
M  V30 9162 H 895.921 -2.63361 2.84112 0
M  V30 9163 H 896.335 -1.84528 4.90968 0
M  V30 9164 H 897.809 -3.44733 4.31118 0
M  V30 9165 H 898.286 -3.5273 2.61683 0
M  V30 9166 H 898.892 -2.20306 3.63793 0
M  V30 9167 N 897.207 -1.48554 -0.526253 0
M  V30 9168 C 898.455 -1.56452 -1.27935 0
M  V30 9169 C 898.776 -0.24184 -1.93495 0
M  V30 9170 O 898.046 0.736917 -1.81511 0
M  V30 9171 H 896.626 -0.576379 -0.47518 0
M  V30 9172 H 899.288 -1.85039 -0.612083 0
M  V30 9173 H 898.384 -2.34751 -2.05666 0
M  V30 9174 N 898.685 0.775411 -1.37205 0
M  V30 9175 C 899.632 1.88857 -1.32671 0
M  V30 9176 C 900.602 1.64976 -0.192899 0
M  V30 9177 O 901.787 1.86944 -0.381673 0
M  V30 9178 C 898.927 3.25871 -1.13588 0
M  V30 9179 C 898.04 3.61731 -2.36167 0
M  V30 9180 C 897.175 4.87934 -2.09985 0
M  V30 9181 C 896.214 5.16514 -3.2845 0
M  V30 9182 N 895.351 6.33905 -3.01842 0
M  V30 9183 H 900.191 1.92068 -2.27846 0
M  V30 9184 H 897.728 0.939066 -1.13225 0
M  V30 9185 H 899.686 4.04903 -1.00546 0
M  V30 9186 H 898.316 3.22045 -0.220613 0
M  V30 9187 H 897.368 2.77712 -2.59962 0
M  V30 9188 H 898.68 3.78792 -3.24528 0
M  V30 9189 H 897.834 5.74863 -1.93953 0
M  V30 9190 H 896.573 4.7297 -1.18956 0
M  V30 9191 H 895.578 4.28063 -3.45025 0
M  V30 9192 H 896.803 5.33389 -4.20325 0
M  V30 9193 H 894.749 6.20306 -2.13439 0
M  V30 9194 H 894.666 6.51364 -3.83746 0
M  V30 9195 H 895.934 7.23779 -2.8942 0
M  V30 9196 N 900.163 1.21714 1.00117 0
M  V30 9197 C 901.579 0.97532 1.26332 0
M  V30 9198 C 901.779 -0.336029 1.98678 0
M  V30 9199 O 900.835 -1.06073 2.29139 0
M  V30 9200 C 902.148 2.16848 2.0832 0
M  V30 9201 C 903.696 2.21115 2.21533 0
M  V30 9202 C 904.171 3.3996 3.06906 0
M  V30 9203 N 905.662 3.40071 3.14494 0
M  V30 9204 C 906.397 4.28678 3.80818 0
M  V30 9205 N 905.893 5.2749 4.49139 0
M  V30 9206 N 907.686 4.16476 3.77497 0
M  V30 9207 H 899.837 2.06039 0.515897 0
M  V30 9208 H 902.1 0.902423 0.290408 0
M  V30 9209 H 901.806 3.119 1.62515 0
M  V30 9210 H 901.68 2.16226 3.09073 0
M  V30 9211 H 904.067 1.26616 2.66557 0
M  V30 9212 H 904.148 2.2578 1.20238 0
M  V30 9213 H 903.792 4.34755 2.62585 0
M  V30 9214 H 903.722 3.32534 4.08324 0
M  V30 9215 H 906.213 2.68563 2.65861 0
M  V30 9216 H 906.526 5.91397 4.97463 0
M  V30 9217 H 904.871 5.31412 4.47914 0
M  V30 9218 H 908.062 3.38539 3.23278 0
M  V30 9219 H 908.235 4.85739 4.28908 0
M  V30 9220 N 901.641 -1.19671 1.02551 0
M  V30 9221 C 902.604 -2.20987 0.608055 0
M  V30 9222 C 903.604 -1.5745 -0.326534 0
M  V30 9223 O 904.794 -1.73827 -0.114003 0
M  V30 9224 C 901.926 -3.4072 -0.11074 0
M  V30 9225 H 903.119 -2.59434 1.50446 0
M  V30 9226 H 900.672 -1.3329 0.816307 0
M  V30 9227 H 901.407 -3.07787 -1.02165 0
M  V30 9228 H 901.192 -3.88069 0.560772 0
M  V30 9229 H 902.682 -4.15776 -0.389848 0
M  V30 9230 N 903.119 -0.802921 -1.35613 0
M  V30 9231 C 904.368 -0.378087 -1.98125 0
M  V30 9232 C 904.681 1.05953 -1.64418 0
M  V30 9233 O 905.887 1.58729 -2.20266 0
M  V30 9234 C 904.343 -0.625077 -3.5443 0
M  V30 9235 C 903.951 -2.07499 -3.97049 0
M  V30 9236 C 905.695 -0.265419 -4.23669 0
M  V30 9237 C 903.602 -2.26793 -5.46186 0
M  V30 9238 H 902.532 -0.137633 -0.741332 0
M  V30 9239 H 905.183 -0.986461 -1.54729 0
M  V30 9240 H 903.565 0.0531975 -3.95964 0
M  V30 9241 H 904.739 -2.79077 -3.66678 0
M  V30 9242 H 903.054 -2.39417 -3.40688 0
M  V30 9243 H 905.651 -0.387669 -5.33293 0
M  V30 9244 H 905.994 0.787994 -4.08774 0
M  V30 9245 H 906.527 -0.897464 -3.87544 0
M  V30 9246 H 903.266 -3.30566 -5.66045 0
M  V30 9247 H 902.786 -1.59735 -5.78139 0
M  V30 9248 H 904.465 -2.08165 -6.12598 0
M  V30 9249 N 904.597 1.47463 -0.556102 0
M  V30 9250 C 905.827 2.06568 -0.0364056 0
M  V30 9251 C 906.235 1.40939 1.26225 0
M  V30 9252 O 905.578 0.499572 1.76777 0
M  V30 9253 C 905.64 3.58755 0.231278 0
M  V30 9254 C 905.304 4.46417 -0.977776 0
M  V30 9255 C 906.301 4.846 -1.88305 0
M  V30 9256 C 903.986 4.87948 -1.19214 0
M  V30 9257 C 905.98 5.63111 -2.98639 0
M  V30 9258 C 903.667 5.66224 -2.29857 0
M  V30 9259 C 904.665 6.03716 -3.194 0
M  V30 9260 O 904.353 6.80415 -4.28125 0
M  V30 9261 H 904.085 0.674675 -0.042305 0
M  V30 9262 H 906.639 1.9047 -0.768775 0
M  V30 9263 H 904.869 3.73061 1.01794 0
M  V30 9264 H 906.558 3.99884 0.696221 0
M  V30 9265 H 907.324 4.53115 -1.72949 0
M  V30 9266 H 903.203 4.58233 -0.504347 0
M  V30 9267 H 906.747 5.92293 -3.68557 0
M  V30 9268 H 902.644 5.97121 -2.45186 0
M  V30 9269 H 903.412 6.98807 -4.26159 0
M  V30 9270 N 906.075 0.2925 1.54862 0
M  V30 9271 C 907.491 -0.0611461 1.59483 0
M  V30 9272 C 907.691 -1.53141 1.30958 0
M  V30 9273 O 906.747 -2.28291 1.07887 0
M  V30 9274 C 908.06 0.329143 2.98893 0
M  V30 9275 C 909.608 0.2772 3.1177 0
M  V30 9276 C 910.083 0.642185 4.53475 0
M  V30 9277 N 911.574 0.594396 4.5937 0
M  V30 9278 C 912.309 0.849385 5.67074 0
M  V30 9279 N 911.805 1.1699 6.82851 0
M  V30 9280 N 913.598 0.777016 5.56704 0
M  V30 9281 H 905.749 1.25079 1.71665 0
M  V30 9282 H 908.012 0.506516 0.80134 0
M  V30 9283 H 907.718 1.35233 3.24661 0
M  V30 9284 H 907.592 -0.321442 3.75828 0
M  V30 9285 H 909.979 -0.736725 2.85756 0
M  V30 9286 H 910.06 0.962289 2.3701 0
M  V30 9287 H 909.704 1.65388 4.80218 0
M  V30 9288 H 909.634 -0.0648831 5.2656 0
M  V30 9289 H 912.125 0.357256 3.76208 0
M  V30 9290 H 912.438 1.35067 7.60905 0
M  V30 9291 H 910.783 1.20785 6.84424 0
M  V30 9292 H 913.974 0.526333 4.65132 0
M  V30 9293 H 914.147 0.979113 6.4056 0
M  V30 9294 N 907.553 -1.57587 0.0200696 0
M  V30 9295 C 908.778 -1.96124 -0.674547 0
M  V30 9296 C 909.203 -0.896068 -1.65385 0
M  V30 9297 O 908.561 0.143925 -1.80728 0
M  V30 9298 C 908.609 -3.3376 -1.36517 0
M  V30 9299 O 907.713 -3.29483 -2.48022 0
M  V30 9300 H 907.054 -0.639719 -0.177919 0
M  V30 9301 H 909.584 -2.04447 0.0792317 0
M  V30 9302 H 909.594 -3.69785 -1.72403 0
M  V30 9303 H 908.269 -4.10832 -0.647265 0
M  V30 9304 H 906.846 -3.05162 -2.14314 0
M  V30 9305 N 909.032 0.252966 -1.55557 0
M  V30 9306 C 910.272 0.989276 -1.78865 0
M  V30 9307 C 910.636 1.82755 -0.588615 0
M  V30 9308 O 911.837 2.59516 -0.700347 0
M  V30 9309 C 910.108 1.83203 -3.06874 0
M  V30 9310 S 911.667 2.62826 -3.5138 0
M  V30 9311 H 908.485 0.332863 -0.62827 0
M  V30 9312 H 911.087 0.257716 -1.93794 0
M  V30 9313 H 909.791 1.20579 -3.92287 0
M  V30 9314 H 909.322 2.60644 -2.94666 0
M  V30 9315 H 911.337 3.85648 -3.12234 0
M  V30 9316 N 910.51 1.48831 0.518367 0
M  V30 9317 C 911.735 1.61379 1.30275 0
M  V30 9318 C 912.16 0.278571 1.86026 0
M  V30 9319 O 911.518 -0.751427 1.64995 0
M  V30 9320 C 911.566 2.67225 2.42122 0
M  V30 9321 O 910.67 2.25192 3.45489 0
M  V30 9322 H 910.011 0.540742 0.385349 0
M  V30 9323 H 912.541 1.949 0.622498 0
M  V30 9324 H 912.551 2.88859 2.8814 0
M  V30 9325 H 911.226 3.64155 2.00907 0
M  V30 9326 H 909.803 2.13819 3.05509 0
M  V30 9327 N 911.988 -0.768124 1.37614 0
M  V30 9328 C 912.918 -1.89537 1.36374 0
M  V30 9329 C 913.899 -1.68513 0.231803 0
M  V30 9330 O 915.084 -1.89318 0.432705 0
M  V30 9331 C 912.214 -3.26871 1.17358 0
M  V30 9332 C 911.168 -3.62466 2.27602 0
M  V30 9333 C 910.494 -4.9838 1.93705 0
M  V30 9334 C 911.794 -3.68841 3.69802 0
M  V30 9335 H 913.488 -1.90832 2.30702 0
M  V30 9336 H 911.034 -0.91672 1.11051 0
M  V30 9337 H 912.987 -4.05371 1.15119 0
M  V30 9338 H 911.711 -3.26018 0.194865 0
M  V30 9339 H 910.37 -2.86276 2.29002 0
M  V30 9340 H 910.018 -4.94071 0.943539 0
M  V30 9341 H 909.718 -5.23165 2.6753 0
M  V30 9342 H 911.242 -5.79276 1.93059 0
M  V30 9343 H 912.656 -4.37485 3.70513 0
M  V30 9344 H 911.053 -4.05126 4.42711 0
M  V30 9345 H 912.123 -2.69415 4.03167 0
M  V30 9346 N 913.466 -1.22244 -0.994698 0
M  V30 9347 C 914.399 -0.934168 -2.08203 0
M  V30 9348 C 915.377 0.122231 -1.6214 0
M  V30 9349 O 916.561 -0.00896598 -1.88498 0
M  V30 9350 C 913.688 -0.404646 -3.36274 0
M  V30 9351 C 912.734 -1.44544 -4.01259 0
M  V30 9352 S 913.567 -3.01816 -4.42343 0
M  V30 9353 C 914.723 -2.50497 -5.73587 0
M  V30 9354 H 914.956 -1.85493 -2.32335 0
M  V30 9355 H 912.489 -1.0533 -1.12893 0
M  V30 9356 H 914.447 -0.105719 -4.10364 0
M  V30 9357 H 913.108 0.494971 -3.10176 0
M  V30 9358 H 912.301 -1.02478 -4.93472 0
M  V30 9359 H 911.903 -1.69298 -3.33488 0
M  V30 9360 H 914.195 -1.91626 -6.49835 0
M  V30 9361 H 915.138 -3.41193 -6.20478 0
M  V30 9362 H 915.546 -1.91845 -5.30901 0
M  V30 9363 N 914.944 1.19125 -1.03184 0
M  V30 9364 C 916.355 1.70564 -0.759264 0
M  V30 9365 C 916.706 1.8248 0.720794 0
M  V30 9366 O 915.831 1.49804 1.56166 0
M  V30 9367 C 916.426 3.09793 -1.37163 0
M  V30 9368 C 914.985 3.5848 -1.14757 0
M  V30 9369 C 914.132 2.35265 -1.46784 0
M  V30 9370 H 917.083 1.03925 -1.19939 0
M  V30 9371 H 917.104 3.72624 -0.77015 0
M  V30 9372 H 916.616 3.01088 -2.44882 0
M  V30 9373 H 914.717 3.72494 -0.0887182 0
M  V30 9374 H 914.83 4.42426 -1.83836 0
M  V30 9375 H 913.194 2.38747 -0.887254 0
M  V30 9376 H 913.977 2.29188 -2.55593 0
M  V30 9377 N 916.422 0.810101 1.35185 0
M  V30 9378 C 917.662 0.397802 2.00492 0
M  V30 9379 C 918.026 -1.01684 1.62863 0
M  V30 9380 O 919.227 -1.53133 2.20916 0
M  V30 9381 C 917.498 0.579524 3.5267 0
M  V30 9382 S 919.057 0.258169 4.3804 0
M  V30 9383 H 915.875 0.150904 0.694801 0
M  V30 9384 H 918.477 1.05312 1.64711 0
M  V30 9385 H 917.181 1.60901 3.77543 0
M  V30 9386 H 916.712 -0.0909886 3.93295 0
M  V30 9387 H 918.727 -0.932882 4.87352 0
M  V30 9388 N 917.9 -1.47166 0.563914 0
M  V30 9389 C 919.311 -1.86231 0.132307 0
M  V30 9390 C 919.662 -1.46976 -1.29971 0
M  V30 9391 O 918.787 -0.875911 -1.97881 0
M  V30 9392 C 919.382 -3.37996 0.233335 0
M  V30 9393 C 917.941 -3.76127 -0.143278 0
M  V30 9394 C 917.088 -2.71212 0.577857 0
M  V30 9395 H 920.039 -1.38588 0.773249 0
M  V30 9396 H 920.06 -3.76558 -0.546309 0
M  V30 9397 H 919.572 -3.66535 1.27568 0
M  V30 9398 H 917.673 -3.53205 -1.18648 0
M  V30 9399 H 917.786 -4.78595 0.219952 0
M  V30 9400 H 916.15 -2.54692 0.020186 0
M  V30 9401 H 916.933 -3.02593 1.62149 0
M  V30 9402 N 919.378 -0.300708 -1.54705 0
M  V30 9403 C 920.789 0.191995 -1.8571 0
M  V30 9404 C 921.14 1.53447 -1.22264 0
M  V30 9405 O 920.265 2.10054 -0.520226 0
M  V30 9406 C 920.86 0.355148 -3.36933 0
M  V30 9407 C 919.419 0.792071 -3.67972 0
M  V30 9408 C 918.566 -0.099756 -2.77121 0
M  V30 9409 H 921.517 -0.521729 -1.49879 0
M  V30 9410 H 921.538 1.18977 -3.61421 0
M  V30 9411 H 921.05 -0.622075 -3.83082 0
M  V30 9412 H 919.151 1.77986 -3.27341 0
M  V30 9413 H 919.264 0.611661 -4.75179 0
M  V30 9414 H 917.628 0.420909 -2.51198 0
M  V30 9415 H 918.411 -1.07333 -3.2609 0
M  V30 9416 N 920.856 1.57574 -0.0284266 0
M  V30 9417 C 921.804 2.11332 0.971675 0
M  V30 9418 C 922.798 1.03974 1.33738 0
M  V30 9419 O 924.004 1.22409 1.31969 0
M  V30 9420 H 920.379 0.675174 0.331125 0
M  V30 9421 H 922.35 2.943 0.49296 0
M  V30 9422 C 921.099 2.65496 2.24516 0
M  V30 9423 H 920.422 3.47753 1.9725 0
M  V30 9424 H 921.862 3.06757 2.92705 0
M  V30 9425 C 920.321 1.58207 2.97443 0
M  V30 9426 O 920.851 0.981496 3.89525 0
M  V30 9427 N 919.057 1.30269 2.59766 0
M  V30 9428 H 918.604 1.79294 1.84963 0
M  V30 9429 H 918.562 0.587085 3.0887 0
M  V30 9430 N 922.334 -0.244713 1.55689 0
M  V30 9431 C 923.582 -0.970525 1.77272 0
M  V30 9432 C 923.903 -1.85771 0.592804 0
M  V30 9433 O 923.173 -1.91952 -0.391323 0
M  V30 9434 H 921.753 -0.361342 0.653789 0
M  V30 9435 H 924.415 -0.262134 1.93129 0
M  V30 9436 H 923.511 -1.59096 2.68505 0
M  V30 9437 N 923.813 -1.49104 -0.510467 0
M  V30 9438 C 924.76 -1.65074 -1.61305 0
M  V30 9439 C 925.73 -0.492362 -1.58635 0
M  V30 9440 O 926.915 -0.718241 -1.76765 0
M  V30 9441 C 924.055 -1.71457 -2.99493 0
M  V30 9442 C 923.168 -2.98536 -3.12251 0
M  V30 9443 C 922.303 -2.95957 -4.41116 0
M  V30 9444 C 921.342 -4.17655 -4.47471 0
M  V30 9445 N 920.479 -4.13041 -5.67751 0
M  V30 9446 H 925.319 -2.59222 -1.46996 0
M  V30 9447 H 922.856 -1.28535 -0.715346 0
M  V30 9448 H 924.814 -1.7314 -3.79577 0
M  V30 9449 H 923.444 -0.807834 -3.12528 0
M  V30 9450 H 922.496 -3.06509 -2.25292 0
M  V30 9451 H 923.808 -3.88527 -3.12807 0
M  V30 9452 H 922.962 -2.96149 -5.2951 0
M  V30 9453 H 921.701 -2.03728 -4.4311 0
M  V30 9454 H 920.706 -4.17717 -3.57481 0
M  V30 9455 H 921.931 -5.11066 -4.472 0
M  V30 9456 H 919.877 -3.23643 -5.70606 0
M  V30 9457 H 919.794 -4.96757 -5.69884 0
M  V30 9458 H 921.062 -4.17322 -6.58379 0
M  V30 9459 N 925.291 0.760815 -1.38019 0
M  V30 9460 C 926.516 1.55513 -1.37224 0
M  V30 9461 C 926.941 1.88062 0.037611 0
M  V30 9462 O 926.299 1.50042 1.0177 0
M  V30 9463 C 926.347 2.83539 -2.22796 0
M  V30 9464 O 925.451 3.78384 -1.64009 0
M  V30 9465 H 924.792 0.470642 -0.468393 0
M  V30 9466 H 927.322 0.940792 -1.81687 0
M  V30 9467 H 927.332 3.32535 -2.36399 0
M  V30 9468 H 926.007 2.59178 -3.25269 0
M  V30 9469 H 924.584 3.37063 -1.59508 0
M  V30 9470 N 926.769 1.22769 0.988202 0
M  V30 9471 C 928.016 1.05509 1.72841 0
M  V30 9472 C 928.344 -0.409145 1.90148 0
M  V30 9473 O 927.599 -1.3195 1.44526 0
M  V30 9474 C 927.898 1.71679 3.13466 0
M  V30 9475 C 927.564 3.21584 3.16061 0
M  V30 9476 C 926.226 3.62486 3.16476 0
M  V30 9477 C 928.578 4.17511 3.11984 0
M  V30 9478 C 925.906 4.97789 3.10521 0
M  V30 9479 C 928.258 5.52796 3.0757 0
M  V30 9480 C 926.922 5.93072 3.06304 0
M  V30 9481 H 926.192 0.386085 0.632471 0
M  V30 9482 H 928.839 1.52596 1.157 0
M  V30 9483 H 927.144 1.1693 3.73945 0
M  V30 9484 H 928.841 1.55809 3.69492 0
M  V30 9485 H 925.431 2.89019 3.1649 0
M  V30 9486 H 929.615 3.86926 3.10809 0
M  V30 9487 H 924.871 5.28218 3.07888 0
M  V30 9488 H 929.045 6.26848 3.03372 0
M  V30 9489 H 926.672 6.97879 3.01444 0
M  V30 9490 N 928.247 -1.18576 1.03814 0
M  V30 9491 C 929.663 -1.4051 0.756909 0
M  V30 9492 C 929.863 -1.9057 -0.654631 0
M  V30 9493 O 928.919 -2.0884 -1.41922 0
M  V30 9494 C 930.232 -2.4081 1.80087 0
M  V30 9495 C 931.78 -2.54541 1.82148 0
M  V30 9496 C 932.255 -3.58102 2.85529 0
M  V30 9497 N 933.746 -3.65607 2.84404 0
M  V30 9498 C 934.481 -4.45458 3.61047 0
M  V30 9499 N 933.977 -5.28937 4.47434 0
M  V30 9500 N 935.77 -4.40196 3.49548 0
M  V30 9501 H 927.921 -0.844075 1.94908 0
M  V30 9502 H 930.184 -0.433287 0.843188 0
M  V30 9503 H 929.89 -2.1107 2.81322 0
M  V30 9504 H 929.764 -3.4012 1.63089 0
M  V30 9505 H 932.151 -2.83598 0.815855 0
M  V30 9506 H 932.232 -1.55352 2.03223 0
M  V30 9507 H 931.876 -3.29786 3.86269 0
M  V30 9508 H 931.806 -4.56963 2.6171 0
M  V30 9509 H 934.297 -3.05994 2.21756 0
M  V30 9510 H 934.61 -5.8701 5.02632 0
M  V30 9511 H 932.955 -5.28366 4.51503 0
M  V30 9512 H 936.146 -3.74026 2.81464 0
M  V30 9513 H 936.319 -5.02186 4.09528 0
M  V30 9514 N 929.725 -0.817259 -1.34754 0
M  V30 9515 C 930.675 -0.207585 -2.27053 0
M  V30 9516 C 931.659 0.624836 -1.48272 0
M  V30 9517 O 932.851 0.480344 -1.70358 0
M  V30 9518 C 929.98 0.634281 -3.3739 0
M  V30 9519 C 929.066 -0.208456 -4.23587 0
M  V30 9520 N 929.457 -1.2767 -4.89422 0
M  V30 9521 C 927.755 0.00815096 -4.45999 0
M  V30 9522 C 928.456 -1.79209 -5.53407 0
M  V30 9523 N 927.432 -1.09686 -5.32419 0
M  V30 9524 H 931.234 -1.0248 -2.75454 0
M  V30 9525 H 928.748 -0.659492 -1.48406 0
M  V30 9526 H 930.745 1.08718 -4.02475 0
M  V30 9527 H 929.405 1.44972 -2.90539 0
M  V30 9528 H 930.416 -1.65945 -4.90594 0
M  V30 9529 H 927.093 0.791879 -4.09921 0
M  V30 9530 H 928.483 -2.68548 -6.15899 0
M  V30 9531 N 931.203 1.46865 -0.571711 0
M  V30 9532 C 932.113 2.33979 0.170571 0
M  V30 9533 C 933.129 1.49083 0.897239 0
M  V30 9534 O 934.305 1.81979 0.862888 0
M  V30 9535 C 931.37 3.26063 1.17831 0
M  V30 9536 C 930.431 4.26855 0.457499 0
M  V30 9537 C 929.664 5.14539 1.41722 0
M  V30 9538 O 929.887 5.04945 2.65305 0
M  V30 9539 O 928.821 5.94612 0.9338 0
M  V30 9540 H 932.647 2.98781 -0.544396 0
M  V30 9541 H 930.232 1.4566 -0.332198 0
M  V30 9542 H 932.114 3.82903 1.75965 0
M  V30 9543 H 930.789 2.63871 1.87493 0
M  V30 9544 H 929.696 3.73734 -0.165406 0
M  V30 9545 H 931.029 4.91802 -0.197953 0
M  V30 9546 N 932.681 0.308908 1.54543 0
M  V30 9547 C 933.613 -0.597453 2.21276 0
M  V30 9548 C 934.626 -1.09137 1.20801 0
M  V30 9549 O 935.815 -1.00747 1.47351 0
M  V30 9550 C 932.915 -1.83085 2.85189 0
M  V30 9551 C 932.088 -1.4781 4.11669 0
M  V30 9552 C 931.147 -2.56748 4.59311 0
M  V30 9553 O 930.173 -2.21507 5.24331 0
M  V30 9554 N 931.375 -3.87427 4.32297 0
M  V30 9555 H 934.14 -0.0261183 2.99689 0
M  V30 9556 H 931.701 0.131456 1.61365 0
M  V30 9557 H 933.693 -2.55326 3.13992 0
M  V30 9558 H 932.263 -2.31039 2.1057 0
M  V30 9559 H 931.483 -0.587974 3.8979 0
M  V30 9560 H 932.771 -1.2179 4.94009 0
M  V30 9561 H 932.169 -4.18863 3.80224 0
M  V30 9562 H 930.726 -4.55942 4.6579 0
M  V30 9563 N 934.159 -1.57557 0.0367827 0
M  V30 9564 C 935.399 -1.93981 -0.644252 0
M  V30 9565 C 935.763 -0.913982 -1.6885 0
M  V30 9566 O 936.964 -1.16468 -2.42257 0
M  V30 9567 C 935.235 -3.35281 -1.23779 0
M  V30 9568 S 936.794 -3.93643 -1.93883 0
M  V30 9569 H 933.612 -0.678683 -0.21192 0
M  V30 9570 H 936.214 -1.95232 0.102281 0
M  V30 9571 H 934.918 -4.07752 -0.465451 0
M  V30 9572 H 934.449 -3.37492 -2.02146 0
M  V30 9573 H 936.464 -3.777 -3.21803 0
M  V30 9574 N 935.637 0.236453 -1.55816 0
M  V30 9575 C 936.547 1.31418 -1.94336 0
M  V30 9576 C 937.563 1.52095 -0.845164 0
M  V30 9577 O 938.739 1.65515 -1.14746 0
M  V30 9578 C 935.804 2.6468 -2.23932 0
M  V30 9579 C 934.865 2.52435 -3.47239 0
M  V30 9580 C 934.098 3.79342 -3.75414 0
M  V30 9581 O 934.321 4.81694 -3.05495 0
M  V30 9582 O 933.255 3.77347 -4.68927 0
M  V30 9583 H 937.081 1.01739 -2.86152 0
M  V30 9584 H 934.666 0.438084 -1.42833 0
M  V30 9585 H 936.548 3.4341 -2.44228 0
M  V30 9586 H 935.223 2.94071 -1.35292 0
M  V30 9587 H 934.13 1.71955 -3.32238 0
M  V30 9588 H 935.463 2.27987 -4.36214 0
M  V30 9589 N 937.115 1.49373 0.502552 0
M  V30 9590 C 938.078 1.65413 1.58654 0
M  V30 9591 C 939.078 0.526003 1.51953 0
M  V30 9592 O 940.268 0.792421 1.55133 0
M  V30 9593 C 937.4 1.65005 2.98306 0
M  V30 9594 H 938.593 2.62095 1.45762 0
M  V30 9595 H 936.146 1.38381 0.726672 0
M  V30 9596 H 936.881 0.699014 3.16677 0
M  V30 9597 H 936.666 2.46931 3.04578 0
M  V30 9598 H 938.156 1.79477 3.77065 0
M  V30 9599 N 938.594 -0.753485 1.38421 0
M  V30 9600 C 939.541 -1.86723 1.35659 0
M  V30 9601 C 940.511 -1.64648 0.219121 0
M  V30 9602 O 941.696 -1.86313 0.411366 0
M  V30 9603 C 938.836 -3.24023 1.18758 0
M  V30 9604 C 937.949 -3.57928 2.41892 0
M  V30 9605 C 937.084 -4.84532 2.17721 0
M  V30 9606 C 936.123 -5.11224 3.36626 0
M  V30 9607 N 935.26 -6.29023 3.11889 0
M  V30 9608 H 940.1 -1.88419 2.30873 0
M  V30 9609 H 937.637 -0.920934 1.14705 0
M  V30 9610 H 939.595 -4.03252 1.06974 0
M  V30 9611 H 938.225 -3.21654 0.27182 0
M  V30 9612 H 937.277 -2.73541 2.64347 0
M  V30 9613 H 938.589 -3.73581 3.30513 0
M  V30 9614 H 937.743 -5.71704 2.03074 0
M  V30 9615 H 936.482 -4.71018 1.26465 0
M  V30 9616 H 935.487 -4.2252 3.51791 0
M  V30 9617 H 936.712 -5.26635 4.28757 0
M  V30 9618 H 934.658 -6.16832 2.2328 0
M  V30 9619 H 934.575 -6.45177 3.9406 0
M  V30 9620 H 935.843 -7.19083 3.00898 0
M  V30 9621 N 940.072 -1.23292 -0.981677 0
M  V30 9622 C 941.02 -1.0104 -2.09508 0
M  V30 9623 C 942.014 0.0501977 -1.69326 0
M  V30 9624 O 943.22 -0.103197 -1.79704 0
M  V30 9625 H 939.595 -0.309629 -0.685298 0
M  V30 9626 H 941.566 -1.95493 -2.25444 0
M  V30 9627 C 940.315 -0.616885 -3.42184 0
M  V30 9628 H 939.638 -1.4247 -3.73554 0
M  V30 9629 H 941.078 -0.500688 -4.21033 0
M  V30 9630 C 939.537 0.674721 -3.30074 0
M  V30 9631 O 940.067 1.72421 -3.62814 0
M  V30 9632 N 938.273 0.650151 -2.83234 0
M  V30 9633 H 937.82 -0.204225 -2.56789 0
M  V30 9634 H 937.778 1.51458 -2.75514 0
M  V30 9635 N 941.55 1.18024 -1.04442 0
M  V30 9636 C 942.798 1.87727 -0.74854 0
M  V30 9637 C 943.119 1.80975 0.726156 0
M  V30 9638 O 942.389 1.23061 1.52423 0
M  V30 9639 H 940.969 0.694974 -0.273897 0
M  V30 9640 H 943.631 1.43213 -1.32197 0
M  V30 9641 H 942.727 2.93665 -1.05674 0
M  V30 9642 N 943.028 0.824394 1.34319 0
M  V30 9643 C 944.258 0.425576 2.02169 0
M  V30 9644 C 944.666 -0.973596 1.62227 0
M  V30 9645 O 944.009 -1.64173 0.824199 0
M  V30 9646 C 944.071 0.449902 3.56674 0
M  V30 9647 C 943.735 1.80266 4.19944 0
M  V30 9648 C 944.732 2.76373 4.40357 0
M  V30 9649 C 942.417 2.09155 4.56683 0
M  V30 9650 C 944.411 3.9954 4.96635 0
M  V30 9651 C 942.098 3.32581 5.12672 0
M  V30 9652 C 943.096 4.27591 5.32592 0
M  V30 9653 O 942.784 5.48837 5.87395 0
M  V30 9654 H 942.516 0.168866 0.654569 0
M  V30 9655 H 945.07 1.11441 1.7254 0
M  V30 9656 H 943.3 -0.295631 3.85568 0
M  V30 9657 H 944.989 0.0709302 4.05838 0
M  V30 9658 H 945.755 2.55351 4.12336 0
M  V30 9659 H 941.634 1.36004 4.40481 0
M  V30 9660 H 945.178 4.73709 5.12099 0
M  V30 9661 H 941.075 3.53466 5.40122 0
M  V30 9662 H 941.843 5.50377 6.05828 0
M  V30 9663 N 944.506 -1.46559 0.579492 0
M  V30 9664 C 945.438 -2.28383 -0.19337 0
M  V30 9665 C 946.451 -1.38324 -0.858511 0
M  V30 9666 O 947.64 -1.62952 -0.728615 0
M  V30 9667 C 944.74 -3.13262 -1.29306 0
M  V30 9668 C 943.913 -4.31426 -0.720459 0
M  V30 9669 C 942.972 -4.97728 -1.70744 0
M  V30 9670 O 941.998 -5.55423 -1.24476 0
M  V30 9671 N 943.2 -4.94445 -3.04146 0
M  V30 9672 H 945.965 -2.95353 0.508611 0
M  V30 9673 H 943.526 -1.56436 0.417046 0
M  V30 9674 H 945.518 -3.54483 -1.95254 0
M  V30 9675 H 944.088 -2.48388 -1.89795 0
M  V30 9676 H 943.308 -3.94028 0.116398 0
M  V30 9677 H 944.596 -5.07808 -0.31763 0
M  V30 9678 H 943.994 -4.4881 -3.44363 0
M  V30 9679 H 942.551 -5.39616 -3.65592 0
M  V30 9680 N 945.984 -0.3171 -1.54377 0
M  V30 9681 C 947.209 0.292311 -2.0533 0
M  V30 9682 C 947.634 1.45503 -1.19207 0
M  V30 9683 O 946.992 1.80197 -0.199721 0
M  V30 9684 C 947.04 0.710787 -3.53525 0
M  V30 9685 O 946.144 1.81387 -3.70368 0
M  V30 9686 H 945.485 0.0539976 -0.661801 0
M  V30 9687 H 948.015 -0.463629 -1.99278 0
M  V30 9688 H 948.025 0.995216 -3.95676 0
M  V30 9689 H 946.7 -0.139668 -4.15665 0
M  V30 9690 H 945.277 1.52875 -3.40123 0
M  V30 9691 N 947.462 1.57535 -0.0451378 0
M  V30 9692 C 948.739 1.83785 0.669523 0
M  V30 9693 C 949.119 0.932331 1.89396 0
M  V30 9694 O 948.467 -0.00813229 2.28499 0
M  V30 9695 C 948.677 3.33376 1.03255 0
M  V30 9696 C 950.025 4.00243 1.41741 0
M  V30 9697 O 951.049 3.37965 1.12507 0
M  V30 9698 O 949.908 5.10038 1.96275 0
M  V30 9699 H 947.002 0.758342 0.329919 0
M  V30 9700 H 949.548 1.69538 -0.0740415 0
M  V30 9701 H 948.32 3.90965 0.161777 0
M  V30 9702 H 947.943 3.52787 1.83376 0
M  V30 9703 N 948.94 -0.228186 1.55939 0
M  V30 9704 C 949.903 -1.26621 1.91049 0
M  V30 9705 C 950.903 -1.40141 0.788491 0
M  V30 9706 O 952.093 -1.3852 1.05631 0
M  V30 9707 C 949.225 -2.64108 2.15545 0
M  V30 9708 H 950.418 -0.966978 2.83883 0
M  V30 9709 H 947.971 -0.468313 1.49119 0
M  V30 9710 H 948.706 -2.99141 1.25241 0
M  V30 9711 H 948.491 -2.55673 2.97277 0
M  V30 9712 H 949.981 -3.39025 2.43827 0
M  V30 9713 N 950.418 -1.49637 -0.494624 0
M  V30 9714 C 951.365 -1.66776 -1.59545 0
M  V30 9715 C 952.335 -0.509159 -1.58104 0
M  V30 9716 O 953.52 -0.736949 -1.75993 0
M  V30 9717 C 950.66 -1.74624 -2.97658 0
M  V30 9718 C 949.773 -3.01831 -3.09067 0
M  V30 9719 C 948.908 -3.00619 -4.37952 0
M  V30 9720 C 947.947 -4.22378 -4.43016 0
M  V30 9721 N 947.084 -4.1904 -5.63339 0
M  V30 9722 H 951.924 -2.60767 -1.44238 0
M  V30 9723 H 949.461 -1.29286 -0.701673 0
M  V30 9724 H 951.419 -1.77156 -3.77719 0
M  V30 9725 H 950.049 -0.840936 -3.11654 0
M  V30 9726 H 949.101 -3.08881 -2.22029 0
M  V30 9727 H 950.413 -3.91823 -3.08669 0
M  V30 9728 H 949.567 -3.01749 -5.26339 0
M  V30 9729 H 948.306 -2.08416 -4.40924 0
M  V30 9730 H 947.311 -4.21485 -3.5303 0
M  V30 9731 H 948.536 -5.15781 -4.41755 0
M  V30 9732 H 946.482 -3.29677 -5.67141 0
M  V30 9733 H 946.399 -5.02774 -5.64583 0
M  V30 9734 H 947.667 -4.24281 -6.53916 0
M  V30 9735 N 951.896 0.746133 -1.38819 0
M  V30 9736 C 953.144 1.50247 -1.35167 0
M  V30 9737 C 953.465 1.94921 0.0553531 0
M  V30 9738 O 952.735 1.68187 1.00449 0
M  V30 9739 H 951.315 0.557337 -0.497377 0
M  V30 9740 H 953.977 0.886472 -1.73573 0
M  V30 9741 H 953.073 2.38986 -2.00728 0
M  V30 9742 N 953.375 1.23811 0.975125 0
M  V30 9743 C 954.621 1.07495 1.71967 0
M  V30 9744 C 954.954 -0.386451 1.90316 0
M  V30 9745 O 954.229 -1.28591 1.45927 0
M  V30 9746 C 954.512 1.80694 3.11483 0
M  V30 9747 C 954.365 3.3454 3.00671 0
M  V30 9748 C 955.684 1.57367 4.11003 0
M  V30 9749 H 952.803 0.3919 0.624166 0
M  V30 9750 H 955.445 1.52383 1.13487 0
M  V30 9751 H 953.595 1.42538 3.61407 0
M  V30 9752 H 955.267 3.8225 2.5823 0
M  V30 9753 H 953.51 3.63301 2.37054 0
M  V30 9754 H 954.181 3.80951 3.99475 0
M  V30 9755 H 956.657 1.90545 3.69908 0
M  V30 9756 H 955.533 2.11052 5.06703 0
M  V30 9757 H 955.794 0.510221 4.39146 0
M  V30 9758 N 954.853 -1.17469 1.05066 0
M  V30 9759 C 955.8 -2.21443 0.650512 0
M  V30 9760 C 956.77 -1.62441 -0.346702 0
M  V30 9761 O 957.955 -1.89305 -0.238404 0
M  V30 9762 C 955.095 -3.45087 0.0301014 0
M  V30 9763 C 954.208 -4.18385 1.07599 0
M  V30 9764 C 953.343 -5.29513 0.423038 0
M  V30 9765 C 952.382 -5.94596 1.45333 0
M  V30 9766 N 951.519 -6.97241 0.824623 0
M  V30 9767 H 956.359 -2.55025 1.54163 0
M  V30 9768 H 953.896 -1.25274 0.771032 0
M  V30 9769 H 955.854 -4.15754 -0.347032 0
M  V30 9770 H 954.484 -3.12093 -0.824481 0
M  V30 9771 H 953.536 -3.46446 1.57097 0
M  V30 9772 H 954.848 -4.62899 1.85813 0
M  V30 9773 H 954.002 -6.067 -0.00774975 0
M  V30 9774 H 952.741 -4.86129 -0.391092 0
M  V30 9775 H 951.746 -5.16142 1.89415 0
M  V30 9776 H 952.971 -6.40061 2.26934 0
M  V30 9777 H 950.917 -6.55993 0.0309804 0
M  V30 9778 H 950.834 -7.40059 1.54432 0
M  V30 9779 H 952.102 -7.78375 0.418567 0
M  V30 9780 N 956.331 -0.831506 -1.3388 0
M  V30 9781 C 957.559 -0.436925 -2.02234 0
M  V30 9782 C 957.974 0.959689 -1.6259 0
M  V30 9783 O 957.331 1.62248 -0.835576 0
M  V30 9784 C 957.382 -0.539429 -3.57453 0
M  V30 9785 O 957.103 -1.88101 -3.95664 0
M  V30 9786 C 958.604 -0.140852 -4.43076 0
M  V30 9787 H 955.824 -0.174302 -0.647966 0
M  V30 9788 H 958.368 -1.12204 -1.70969 0
M  V30 9789 H 956.523 0.0976959 -3.87277 0
M  V30 9790 H 956.937 -1.86131 -4.90363 0
M  V30 9791 H 958.411 -0.26364 -5.5137 0
M  V30 9792 H 958.888 0.916505 -4.29531 0
M  V30 9793 H 959.494 -0.752117 -4.18597 0
M  V30 9794 N 957.809 1.4625 -0.587256 0
M  V30 9795 C 959.056 2.02363 -0.0745746 0
M  V30 9796 C 959.384 1.4582 1.28712 0
M  V30 9797 O 958.639 0.614922 1.85788 0
M  V30 9798 C 958.938 3.57382 0.036328 0
M  V30 9799 C 958.604 4.32985 -1.25837 0
M  V30 9800 C 957.266 4.53358 -1.61306 0
M  V30 9801 C 959.618 4.76361 -2.11494 0
M  V30 9802 C 956.946 5.14361 -2.82223 0
M  V30 9803 C 959.298 5.38699 -3.31641 0
M  V30 9804 C 957.962 5.57299 -3.67388 0
M  V30 9805 H 957.232 0.740497 -0.0272888 0
M  V30 9806 H 959.879 1.75565 -0.764804 0
M  V30 9807 H 958.184 3.83342 0.809712 0
M  V30 9808 H 959.881 3.9848 0.448838 0
M  V30 9809 H 956.471 4.17427 -0.972251 0
M  V30 9810 H 960.655 4.60372 -1.85394 0
M  V30 9811 H 955.911 5.26952 -3.10051 0
M  V30 9812 H 960.085 5.71267 -3.9828 0
M  V30 9813 H 957.712 6.04338 -4.61173 0
M  V30 9814 N 959.287 0.325282 1.54207 0
M  V30 9815 C 960.533 -0.277185 2.00897 0
M  V30 9816 C 960.866 -1.51651 1.21308 0
M  V30 9817 O 960.141 -1.92237 0.295825 0
M  V30 9818 C 960.424 -0.60961 3.54902 0
M  V30 9819 C 960.277 0.640542 4.45216 0
M  V30 9820 C 961.596 -1.42656 4.16338 0
M  V30 9821 H 958.715 -0.0992722 0.730284 0
M  V30 9822 H 961.357 0.442201 1.84783 0
M  V30 9823 H 959.507 -1.22249 3.68765 0
M  V30 9824 H 961.179 1.27878 4.43221 0
M  V30 9825 H 959.422 1.26908 4.14821 0
M  V30 9826 H 960.093 0.363459 5.50802 0
M  V30 9827 H 962.569 -0.908494 4.06061 0
M  V30 9828 H 961.445 -1.62792 5.24204 0
M  V30 9829 H 961.706 -2.42321 3.69774 0
M  V30 9830 N 960.765 -1.57509 0.0534917 0
M  V30 9831 C 961.675 -2.15152 -0.935249 0
M  V30 9832 C 962.691 -1.10991 -1.34003 0
M  V30 9833 O 963.867 -1.43171 -1.41648 0
M  V30 9834 C 960.932 -2.68699 -2.19093 0
M  V30 9835 C 959.993 -3.87666 -1.84428 0
M  V30 9836 C 959.226 -4.3865 -3.0401 0
M  V30 9837 O 959.449 -3.887 -4.17455 0
M  V30 9838 O 958.383 -5.30209 -2.84889 0
M  V30 9839 H 962.209 -2.99962 -0.475009 0
M  V30 9840 H 959.794 -1.48446 -0.16854 0
M  V30 9841 H 961.676 -3.03098 -2.92762 0
M  V30 9842 H 960.351 -1.86958 -2.6425 0
M  V30 9843 H 959.258 -3.58151 -1.08068 0
M  V30 9844 H 960.591 -4.70643 -1.44068 0
M  V30 9845 N 962.243 0.219913 -1.56058 0
M  V30 9846 C 963.489 0.941055 -1.80321 0
M  V30 9847 C 963.844 1.81906 -0.626735 0
M  V30 9848 O 963.137 1.87811 0.379147 0
M  V30 9849 C 963.331 1.81293 -3.08006 0
M  V30 9850 C 963.16 1.02082 -4.37961 0
M  V30 9851 C 961.93 0.715096 -5.00214 0
M  V30 9852 C 964.128 0.385342 -5.12854 0
M  V30 9853 N 962.11 -0.098246 -6.13821 0
M  V30 9854 C 963.481 -0.291319 -6.19315 0
M  V30 9855 C 965.536 0.29854 -4.97004 0
M  V30 9856 C 964.239 -1.04648 -7.11647 0
M  V30 9857 C 966.265 -0.443159 -5.89737 0
M  V30 9858 C 965.627 -1.10836 -6.95625 0
M  V30 9859 H 961.726 0.324568 -0.711463 0
M  V30 9860 H 964.31 0.211795 -1.93545 0
M  V30 9861 H 962.481 2.51399 -2.96063 0
M  V30 9862 H 964.213 2.47167 -3.20454 0
M  V30 9863 H 960.968 1.03352 -4.62185 0
M  V30 9864 H 961.392 -0.4938 -6.75197 0
M  V30 9865 H 966.034 0.798478 -4.15192 0
M  V30 9866 H 963.752 -1.55793 -7.9294 0
M  V30 9867 H 967.338 -0.511348 -5.79549 0
M  V30 9868 H 966.218 -1.6731 -7.66144 0
M  V30 9869 N 963.721 1.49897 0.486681 0
M  V30 9870 C 964.967 1.60342 1.2417 0
M  V30 9871 C 965.3 0.295694 1.91936 0
M  V30 9872 O 964.575 -0.701788 1.81398 0
M  V30 9873 C 964.858 2.77281 2.29755 0
M  V30 9874 C 964.711 4.1789 1.66397 0
M  V30 9875 C 966.03 2.89817 3.31201 0
M  V30 9876 H 963.149 0.583605 0.450083 0
M  V30 9877 H 965.791 1.82232 0.537734 0
M  V30 9878 H 963.941 2.58748 2.89796 0
M  V30 9879 H 965.613 4.47975 1.10073 0
M  V30 9880 H 963.856 4.22872 0.967579 0
M  V30 9881 H 964.527 4.95612 2.43049 0
M  V30 9882 H 967.003 3.06732 2.81167 0
M  V30 9883 H 965.879 3.7329 4.02425 0
M  V30 9884 H 966.14 1.9977 3.94391 0
M  V30 9885 N 965.199 -0.738761 1.39212 0
M  V30 9886 C 966.61 -1.31684 1.32348 0
M  V30 9887 C 966.961 -1.96195 -0.0139041 0
M  V30 9888 O 966.086 -1.96056 -0.916025 0
M  V30 9889 C 966.681 -2.39444 2.39691 0
M  V30 9890 C 965.24 -2.92935 2.36359 0
M  V30 9891 C 964.387 -1.66465 2.21776 0
M  V30 9892 H 967.338 -0.536543 1.49355 0
M  V30 9893 H 967.359 -3.19744 2.06262 0
M  V30 9894 H 966.871 -1.92463 3.37016 0
M  V30 9895 H 964.972 -3.44207 1.42662 0
M  V30 9896 H 965.085 -3.46306 3.31073 0
M  V30 9897 H 963.449 -1.90657 1.68884 0
M  V30 9898 H 964.232 -1.21541 3.21065 0
M  V30 9899 N 966.677 -1.24326 -0.968545 0
M  V30 9900 C 967.624 -1.0349 -2.06297 0
M  V30 9901 C 968.594 0.0515333 -1.6602 0
M  V30 9902 O 969.779 -0.102924 -1.90522 0
M  V30 9903 C 966.919 -0.64487 -3.39021 0
M  V30 9904 C 966.032 -1.80469 -3.92498 0
M  V30 9905 C 965.167 -1.36032 -5.13487 0
M  V30 9906 C 964.206 -2.49014 -5.59159 0
M  V30 9907 N 963.343 -2.05451 -6.71367 0
M  V30 9908 H 968.183 -1.97161 -2.23454 0
M  V30 9909 H 965.72 -0.982028 -1.0952 0
M  V30 9910 H 967.678 -0.399771 -4.1528 0
M  V30 9911 H 966.308 0.254845 -3.21792 0
M  V30 9912 H 965.36 -2.16348 -3.12886 0
M  V30 9913 H 966.672 -2.65365 -4.22354 0
M  V30 9914 H 965.826 -1.07405 -5.97117 0
M  V30 9915 H 964.565 -0.481887 -4.85313 0
M  V30 9916 H 963.57 -2.78402 -4.74102 0
M  V30 9917 H 964.795 -3.37413 -5.89346 0
M  V30 9918 H 962.741 -1.20004 -6.4493 0
M  V30 9919 H 962.658 -2.83901 -7.00668 0
M  V30 9920 H 963.926 -1.79962 -7.58442 0
M  V30 9921 N 968.156 1.1691 -1.05688 0
M  V30 9922 C 969.386 1.90927 -0.789339 0
M  V30 9923 C 969.794 1.77339 0.659369 0
M  V30 9924 O 969.137 1.11147 1.4626 0
M  V30 9925 C 969.199 3.42361 -1.09677 0
M  V30 9926 C 968.863 3.79733 -2.54267 0
M  V30 9927 C 969.86 3.82163 -3.52487 0
M  V30 9928 C 967.545 4.10547 -2.89406 0
M  V30 9929 C 969.539 4.14884 -4.8389 0
M  V30 9930 C 967.226 4.42936 -4.21011 0
M  V30 9931 C 968.224 4.45084 -5.18063 0
M  V30 9932 O 967.912 4.76707 -6.47307 0
M  V30 9933 H 967.644 0.612466 -0.286115 0
M  V30 9934 H 970.198 1.4916 -1.4121 0
M  V30 9935 H 968.428 3.84446 -0.416924 0
M  V30 9936 H 970.117 3.97645 -0.814456 0
M  V30 9937 H 970.883 3.58476 -3.26681 0
M  V30 9938 H 966.762 4.08044 -2.14525 0
M  V30 9939 H 970.306 4.16475 -5.59638 0
M  V30 9940 H 966.203 4.66088 -4.46579 0
M  V30 9941 H 966.971 4.94544 -6.52203 0
M  V30 9942 N 969.634 0.838594 1.33437 0
M  V30 9943 C 970.597 0.276843 2.27522 0
M  V30 9944 C 971.597 -0.554275 1.50945 0
M  V30 9945 O 972.787 -0.368107 1.70266 0
M  V30 9946 C 969.919 -0.610036 3.35397 0
M  V30 9947 H 971.112 1.10705 2.78719 0
M  V30 9948 H 968.665 0.611657 1.43835 0
M  V30 9949 H 969.4 -1.46269 2.89441 0
M  V30 9950 H 969.185 -0.0153615 3.92097 0
M  V30 9951 H 970.675 -0.996368 4.05539 0
M  V30 9952 N 971.112 -1.45937 0.595003 0
M  V30 9953 C 972.36 -2.01921 0.0851368 0
M  V30 9954 C 972.681 -1.46748 -1.28413 0
M  V30 9955 O 971.951 -0.656873 -1.84559 0
M  V30 9956 H 970.531 -0.746457 0.0284826 0
M  V30 9957 H 973.193 -1.78891 0.773561 0
M  V30 9958 H 972.289 -3.1209 0.0254002 0
M  V30 9959 N 972.59 -0.333456 -1.54032 0
M  V30 9960 C 973.836 0.266527 -2.01041 0
M  V30 9961 C 974.169 1.51006 -1.2211 0
M  V30 9962 O 973.444 1.92078 -0.306016 0
M  V30 9963 C 973.727 0.59078 -3.55221 0
M  V30 9964 C 973.58 -0.664143 -4.4487 0
M  V30 9965 C 974.899 1.40447 -4.17088 0
M  V30 9966 H 972.018 0.0953979 -0.7308 0
M  V30 9967 H 974.66 -0.451995 -1.84545 0
M  V30 9968 H 972.81 1.20292 -3.69408 0
M  V30 9969 H 974.482 -1.30227 -4.42537 0
M  V30 9970 H 972.725 -1.29106 -4.14143 0
M  V30 9971 H 973.396 -0.392664 -5.50602 0
M  V30 9972 H 975.872 0.886946 -4.06537 0
M  V30 9973 H 974.748 1.6001 -5.2506 0
M  V30 9974 H 975.009 2.40357 -3.71054 0
M  V30 9975 N 974.068 1.57479 -0.061844 0
M  V30 9976 C 974.998 2.15181 0.9066 0
M  V30 9977 C 975.979 1.07624 1.31724 0
M  V30 9978 O 977.164 1.35614 1.39006 0
M  V30 9979 C 974.294 2.70542 2.17771 0
M  V30 9980 C 973.248 3.83178 1.9068 0
M  V30 9981 C 972.574 4.25099 3.24337 0
M  V30 9982 C 973.874 5.07853 1.21994 0
M  V30 9983 H 975.568 2.96355 0.42594 0
M  V30 9984 H 973.114 1.42556 0.203435 0
M  V30 9985 H 975.067 3.09552 2.85929 0
M  V30 9986 H 973.791 1.86575 2.68062 0
M  V30 9987 H 972.45 3.44656 1.24931 0
M  V30 9988 H 972.098 3.38069 3.72449 0
M  V30 9989 H 971.798 5.01021 3.07005 0
M  V30 9990 H 973.322 4.66718 3.93709 0
M  V30 9991 H 974.736 5.44242 1.80204 0
M  V30 9992 H 973.133 5.88987 1.14954 0
M  V30 9993 H 974.203 4.84497 0.197536 0
M  V30 9994 N 975.546 -0.211634 1.56173 0
M  V30 9995 C 976.957 -0.777776 1.69728 0
M  V30 9996 C 977.308 -1.84566 0.66558 0
M  V30 9997 O 976.433 -2.15639 -0.181338 0
M  V30 9998 C 977.028 -1.41757 3.07718 0
M  V30 9999 C 975.587 -1.93098 3.23094 0
M  V30 10000 C 974.734 -0.794785 2.65666 0
M  V30 10001 H 977.685 0.0131839 1.58695 0
M  V30 10002 H 977.706 -2.28662 3.04128 0
M  V30 10003 H 977.218 -0.640114 3.82785 0
M  V30 10004 H 975.319 -2.73615 2.52914 0
M  V30 10005 H 975.432 -2.10414 4.30422 0
M  V30 10006 H 973.796 -1.20473 2.24407 0
M  V30 10007 H 974.579 -0.0298408 3.43287 0
M  V30 10008 N 977.024 -1.50153 -0.478725 0
M  V30 10009 C 977.987 -1.67916 -1.56003 0
M  V30 10010 C 978.987 -0.550111 -1.51097 0
M  V30 10011 O 980.177 -0.817001 -1.53853 0
M  V30 10012 C 977.309 -1.6973 -2.95643 0
M  V30 10013 H 978.502 -2.6438 -1.41573 0
M  V30 10014 H 976.055 -1.39519 -0.704565 0
M  V30 10015 H 976.79 -0.749306 -3.15525 0
M  V30 10016 H 976.575 -2.51745 -3.00611 0
M  V30 10017 H 978.065 -1.85453 -3.74162 0
M  V30 10018 N 978.502 0.731368 -1.39602 0
M  V30 10019 C 979.779 1.48308 -1.27531 0
M  V30 10020 C 980.159 2.10795 0.113482 0
M  V30 10021 O 979.507 1.98886 1.12501 0
M  V30 10022 C 979.717 2.53156 -2.40235 0
M  V30 10023 C 981.065 3.19436 -2.79725 0
M  V30 10024 O 982.089 2.6347 -2.39712 0
M  V30 10025 O 980.948 4.20714 -3.48801 0
M  V30 10026 H 978.042 0.658753 -0.499973 0
M  V30 10027 H 980.588 0.764884 -1.51485 0
M  V30 10028 H 979.36 2.05387 -3.33064 0
M  V30 10029 H 978.983 3.3253 -2.17966 0
M  V30 10030 N 979.98 1.24838 0.961938 0
M  V30 10031 C 981.226 1.09313 1.70817 0
M  V30 10032 C 981.559 -0.366244 1.90715 0
M  V30 10033 O 980.834 -1.27036 1.47282 0
M  V30 10034 C 981.117 1.83988 3.09549 0
M  V30 10035 C 980.97 3.3771 2.97106 0
M  V30 10036 C 982.289 1.61718 4.09311 0
M  V30 10037 H 979.408 0.398498 0.619974 0
M  V30 10038 H 982.05 1.53579 1.11864 0
M  V30 10039 H 980.2 1.46363 3.59875 0
M  V30 10040 H 981.872 3.84967 2.54161 0
M  V30 10041 H 980.115 3.65795 2.33187 0
M  V30 10042 H 980.786 3.85166 3.95412 0
M  V30 10043 H 983.262 1.94458 3.67866 0
M  V30 10044 H 982.138 2.16415 5.04436 0
M  V30 10045 H 982.399 0.55677 4.3858 0
M  V30 10046 N 981.458 -1.16348 1.06306 0
M  V30 10047 C 982.698 -1.88556 0.789055 0
M  V30 10048 C 983.062 -1.79849 -0.672179 0
M  V30 10049 O 984.263 -2.46984 -1.06078 0
M  V30 10050 C 982.534 -3.34069 1.27016 0
M  V30 10051 S 984.093 -4.24128 1.12522 0
M  V30 10052 H 980.911 -0.65084 0.286232 0
M  V30 10053 H 983.513 -1.40443 1.36 0
M  V30 10054 H 982.217 -3.37944 2.32856 0
M  V30 10055 H 981.748 -3.87231 0.693963 0
M  V30 10056 H 983.763 -4.96168 0.0562142 0
M  V30 10057 N 982.937 -0.845659 -1.3299 0
M  V30 10058 C 983.884 -0.281761 -2.29074 0
M  V30 10059 C 984.854 0.606237 -1.54641 0
M  V30 10060 O 986.039 0.543063 -1.82908 0
M  V30 10061 C 983.179 0.531451 -3.40983 0
M  V30 10062 C 982.292 -0.381328 -4.30314 0
M  V30 10063 C 981.427 0.443643 -5.29344 0
M  V30 10064 C 980.466 -0.467101 -6.10315 0
M  V30 10065 N 979.603 0.320148 -7.0137 0
M  V30 10066 H 984.443 -1.10641 -2.76699 0
M  V30 10067 H 981.98 -0.55706 -1.36144 0
M  V30 10068 H 983.938 1.01848 -4.04577 0
M  V30 10069 H 982.568 1.32101 -2.94532 0
M  V30 10070 H 981.62 -0.986701 -3.6738 0
M  V30 10071 H 982.932 -1.08067 -4.86953 0
M  V30 10072 H 982.086 0.994212 -5.98498 0
M  V30 10073 H 980.825 1.17639 -4.73299 0
M  V30 10074 H 979.83 -1.02963 -5.40073 0
M  V30 10075 H 981.055 -1.19832 -6.68444 0
M  V30 10076 H 979.001 1.03615 -6.47765 0
M  V30 10077 H 978.918 -0.320338 -7.55321 0
M  V30 10078 H 980.186 0.852735 -7.74822 0
M  V30 10079 N 984.415 1.45619 -0.602734 0
M  V30 10080 C 985.345 2.33258 0.106342 0
M  V30 10081 C 986.326 1.46543 0.863664 0
M  V30 10082 O 987.511 1.75324 0.835175 0
M  V30 10083 C 984.641 3.29168 1.10751 0
M  V30 10084 C 983.595 4.25481 0.463717 0
M  V30 10085 C 982.921 5.11046 1.57278 0
M  V30 10086 C 984.221 5.18702 -0.61199 0
M  V30 10087 H 985.915 2.92795 -0.625423 0
M  V30 10088 H 983.461 1.40793 -0.302213 0
M  V30 10089 H 985.414 3.89346 1.61208 0
M  V30 10090 H 984.138 2.6778 1.8698 0
M  V30 10091 H 982.797 3.66595 -0.0199496 0
M  V30 10092 H 982.445 4.46029 2.32524 0
M  V30 10093 H 982.145 5.76286 1.14755 0
M  V30 10094 H 983.669 5.74091 2.07972 0
M  V30 10095 H 985.083 5.72979 -0.191686 0
M  V30 10096 H 983.48 5.92393 -0.958686 0
M  V30 10097 H 984.55 4.61424 -1.4905 0
M  V30 10098 N 985.893 0.34162 1.53853 0
M  V30 10099 C 987.121 -0.256929 2.05299 0
M  V30 10100 C 987.536 -1.44366 1.21671 0
M  V30 10101 O 986.893 -1.80758 0.251584 0
M  V30 10102 C 986.944 -0.673854 3.55164 0
M  V30 10103 O 986.665 0.465687 4.35618 0
M  V30 10104 C 988.166 -1.33332 4.22773 0
M  V30 10105 H 985.386 -0.0499445 0.669139 0
M  V30 10106 H 987.93 0.493048 1.98467 0
M  V30 10107 H 986.085 -1.37378 3.62224 0
M  V30 10108 H 986.499 0.133723 5.2433 0
M  V30 10109 H 987.973 -1.57582 5.29029 0
M  V30 10110 H 988.45 -2.28628 3.75001 0
M  V30 10111 H 989.056 -0.675489 4.19901 0
M  V30 10112 N 987.371 -1.57444 0.0701946 0
M  V30 10113 C 988.611 -1.95304 -0.60296 0
M  V30 10114 C 988.975 -0.949592 -1.66873 0
M  V30 10115 O 990.176 -1.2158 -2.39733 0
M  V30 10116 C 988.447 -3.37831 -1.16639 0
M  V30 10117 S 990.006 -3.97667 -1.8549 0
M  V30 10118 H 986.824 -0.683026 -0.197476 0
M  V30 10119 H 989.426 -1.94971 0.143669 0
M  V30 10120 H 988.13 -4.08648 -0.378856 0
M  V30 10121 H 987.661 -3.41704 -1.94942 0
M  V30 10122 H 989.676 -3.84441 -3.13719 0
M  V30 10123 N 988.849 0.203349 -1.56283 0
M  V30 10124 C 990.265 0.55384 -1.49682 0
M  V30 10125 C 990.465 1.86261 -0.768701 0
M  V30 10126 O 989.521 2.50517 -0.315824 0
M  V30 10127 C 990.834 0.616216 -2.94318 0
M  V30 10128 C 992.382 0.705611 -3.04943 0
M  V30 10129 C 992.857 0.79917 -4.50974 0
M  V30 10130 N 994.348 0.862916 -4.55091 0
M  V30 10131 C 995.083 0.955334 -5.65386 0
M  V30 10132 N 994.579 1.01057 -6.8539 0
M  V30 10133 N 996.372 0.991884 -5.53279 0
M  V30 10134 H 988.523 -0.655244 -2.0204 0
M  V30 10135 H 990.786 -0.232344 -0.919087 0
M  V30 10136 H 990.492 -0.27619 -3.50614 0
M  V30 10137 H 990.366 1.47371 -3.4722 0
M  V30 10138 H 992.753 1.58845 -2.48701 0
M  V30 10139 H 992.834 -0.177921 -2.5518 0
M  V30 10140 H 992.478 -0.0792841 -5.07838 0
M  V30 10141 H 992.408 1.69838 -4.9846 0
M  V30 10142 H 994.899 0.829812 -3.68677 0
M  V30 10143 H 995.212 1.08137 -7.65197 0
M  V30 10144 H 993.557 0.979384 -6.88065 0
M  V30 10145 H 996.748 0.945514 -4.58451 0
M  V30 10146 H 996.921 1.06045 -6.39264 0
M  V30 10147 N 990.327 1.50405 0.470755 0
M  V30 10148 C 991.29 1.68741 1.5511 0
M  V30 10149 C 992.29 0.558116 1.50804 0
M  V30 10150 O 993.48 0.825149 1.53418 0
M  V30 10151 C 990.612 1.71295 2.94739 0
M  V30 10152 H 991.805 2.65127 1.40169 0
M  V30 10153 H 989.358 1.39891 0.697156 0
M  V30 10154 H 990.093 0.766029 3.15123 0
M  V30 10155 H 989.878 2.53336 2.99271 0
M  V30 10156 H 991.368 1.87434 3.73173 0
M  V30 10157 N 991.805 -0.723954 1.39988 0
M  V30 10158 C 992.752 -1.83803 1.39589 0
M  V30 10159 C 993.722 -1.64146 0.253996 0
M  V30 10160 O 994.907 -1.85398 0.450793 0
M  V30 10161 C 992.047 -3.21431 1.25604 0
M  V30 10162 C 991.16 -3.52717 2.49429 0
M  V30 10163 C 990.295 -4.79805 2.27949 0
M  V30 10164 C 989.334 -5.03968 3.47394 0
M  V30 10165 N 988.471 -6.22266 3.25161 0
M  V30 10166 H 993.311 -1.83479 2.34818 0
M  V30 10167 H 990.848 -0.896396 1.16633 0
M  V30 10168 H 992.806 -4.00892 1.15504 0
M  V30 10169 H 991.436 -3.21005 0.339986 0
M  V30 10170 H 990.488 -2.67872 2.7009 0
M  V30 10171 H 991.8 -3.66486 3.38363 0
M  V30 10172 H 990.954 -5.67268 2.15155 0
M  V30 10173 H 989.693 -4.68229 1.36428 0
M  V30 10174 H 988.698 -4.14963 3.60674 0
M  V30 10175 H 989.923 -5.17422 4.39831 0
M  V30 10176 H 987.869 -6.11957 2.36314 0
M  V30 10177 H 987.786 -6.36673 4.07656 0
M  V30 10178 H 989.054 -7.12539 3.16083 0
M  V30 10179 N 993.283 -1.25346 -0.955304 0
M  V30 10180 C 994.531 -1.09837 -1.69647 0
M  V30 10181 C 994.852 0.361425 -1.91621 0
M  V30 10182 O 994.122 1.25666 -1.50283 0
M  V30 10183 H 992.702 -0.403467 -0.628668 0
M  V30 10184 H 995.364 -1.57459 -1.14859 0
M  V30 10185 H 994.46 -1.60616 -2.67598 0
M  V30 10186 N 994.761 1.15782 -1.06922 0
M  V30 10187 C 995.989 1.90355 -0.81072 0
M  V30 10188 C 996.404 1.77779 0.635614 0
M  V30 10189 O 995.761 1.12675 1.43564 0
M  V30 10190 C 995.812 3.4085 -1.2043 0
M  V30 10191 O 995.533 3.53057 -2.59388 0
M  V30 10192 C 997.034 4.32457 -0.974473 0
M  V30 10193 H 994.254 0.60343 -0.293451 0
M  V30 10194 H 996.798 1.46723 -1.42452 0
M  V30 10195 H 994.953 3.82162 -0.634909 0
M  V30 10196 H 995.367 4.46426 -2.75326 0
M  V30 10197 H 996.841 5.36488 -1.29942 0
M  V30 10198 H 997.318 4.39109 0.0894481 0
M  V30 10199 H 997.924 3.96882 -1.52856 0
M  V30 10200 N 996.239 0.8527 1.3254 0
M  V30 10201 C 997.487 0.454224 1.96929 0
M  V30 10202 C 997.808 -0.993034 1.67821 0
M  V30 10203 O 997.078 -1.69371 0.984393 0
M  V30 10204 H 995.658 0.164977 0.728554 0
M  V30 10205 H 998.32 1.0887 1.61658 0
M  V30 10206 H 997.416 0.597667 3.06324 0
M  V30 10207 N 997.718 -1.45297 0.610449 0
M  V30 10208 C 998.948 -2.0629 0.113047 0
M  V30 10209 C 999.356 -1.45527 -1.20907 0
M  V30 10210 O 998.699 -0.564837 -1.74801 0
M  V30 10211 C 998.761 -3.59366 -0.0979692 0
M  V30 10212 C 998.425 -4.42481 1.14279 0
M  V30 10213 C 999.422 -4.77277 2.06161 0
M  V30 10214 C 997.107 -4.83187 1.37241 0
M  V30 10215 C 999.101 -5.51639 3.19333 0
M  V30 10216 C 996.788 -5.57303 2.50713 0
M  V30 10217 C 997.786 -5.91445 3.41587 0
M  V30 10218 O 997.474 -6.64056 4.53083 0
M  V30 10219 H 997.206 -0.67264 0.0673159 0
M  V30 10220 H 999.76 -1.87486 0.838937 0
M  V30 10221 H 997.99 -3.76582 -0.878783 0
M  V30 10222 H 999.679 -4.02193 -0.547327 0
M  V30 10223 H 1000.44 -4.46384 1.89647 0
M  V30 10224 H 996.324 -4.56045 0.67407 0
M  V30 10225 H 999.868 -5.78207 3.90286 0
M  V30 10226 H 995.765 -5.8761 2.67179 0
M  V30 10227 H 996.533 -6.82509 4.51801 0
M  V30 10228 N 999.196 -0.349774 -1.5367 0
M  V30 10229 C 1000.43 0.245682 -2.05134 0
M  V30 10230 C 1000.83 1.44269 -1.22406 0
M  V30 10231 O 1000.18 1.81938 -0.25379 0
M  V30 10232 C 1000.24 0.718439 -3.52248 0
M  V30 10233 C 999.903 -0.35975 -4.55582 0
M  V30 10234 C 1000.9 -1.20449 -5.05755 0
M  V30 10235 C 998.585 -0.515463 -4.99648 0
M  V30 10236 C 1000.58 -2.19043 -5.98581 0
M  V30 10237 C 998.266 -1.50479 -5.92283 0
M  V30 10238 C 999.264 -2.34072 -6.41638 0
M  V30 10239 O 998.952 -3.31319 -7.3245 0
M  V30 10240 H 998.684 0.0501122 -0.67414 0
M  V30 10241 H 1001.24 -0.5018 -1.99176 0
M  V30 10242 H 999.468 1.51727 -3.55691 0
M  V30 10243 H 1001.16 1.23513 -3.86651 0
M  V30 10244 H 1001.92 -1.09531 -4.7247 0
M  V30 10245 H 997.802 0.12537 -4.60829 0
M  V30 10246 H 1001.35 -2.84327 -6.37027 0
M  V30 10247 H 997.243 -1.61451 -6.24983 0
M  V30 10248 H 998.011 -3.26863 -7.50402 0
M  V30 10249 N 1000.67 1.57404 -0.0785433 0
M  V30 10250 C 1001.92 1.94031 0.589896 0
M  V30 10251 C 1002.25 0.959297 1.68852 0
M  V30 10252 O 1001.53 -0.0103978 1.94497 0
M  V30 10253 C 1001.81 3.40886 1.16055 0
M  V30 10254 C 1001.66 4.49748 0.0681072 0
M  V30 10255 C 1002.98 3.88699 2.06401 0
M  V30 10256 H 1000.1 0.70556 0.212965 0
M  V30 10257 H 1002.74 1.89439 -0.145886 0
M  V30 10258 H 1000.89 3.4493 1.78761 0
M  V30 10259 H 1002.57 4.57823 -0.565318 0
M  V30 10260 H 1000.81 4.29625 -0.600431 0
M  V30 10261 H 1001.48 5.49658 0.507906 0
M  V30 10262 H 1003.96 3.86703 1.53622 0
M  V30 10263 H 1002.83 4.92052 2.43261 0
M  V30 10264 H 1003.09 3.2703 2.97496 0
M  V30 10265 N 1002.15 -0.195058 1.56388 0
M  V30 10266 C 1003.4 -0.9168 1.80894 0
M  V30 10267 C 1003.73 -1.82907 0.652592 0
M  V30 10268 O 1003.01 -1.91382 -0.346853 0
M  V30 10269 C 1003.29 -1.733 3.15657 0
M  V30 10270 C 1003.14 -0.845449 4.41783 0
M  V30 10271 C 1004.46 -2.70557 3.47112 0
M  V30 10272 H 1001.58 -0.331861 0.658056 0
M  V30 10273 H 1004.22 -0.184174 1.89105 0
M  V30 10274 H 1002.37 -2.3576 3.08787 0
M  V30 10275 H 1004.04 -0.235557 4.60698 0
M  V30 10276 H 1002.29 -0.152172 4.33533 0
M  V30 10277 H 1002.96 -1.45152 5.32574 0
M  V30 10278 H 1005.43 -2.1823 3.54281 0
M  V30 10279 H 1004.31 -3.24749 4.42526 0
M  V30 10280 H 1004.57 -3.49605 2.70608 0
M  V30 10281 N 1003.63 -1.50653 -0.462772 0
M  V30 10282 C 1004.88 -1.62057 -1.21424 0
M  V30 10283 C 1005.2 -0.324778 -1.91769 0
M  V30 10284 O 1004.46 0.689828 -1.83139 0
M  V30 10285 C 1004.76 -2.75637 -2.27507 0
M  V30 10286 C 1004.42 -4.15826 -1.74354 0
M  V30 10287 C 1003.09 -4.53969 -1.5958 0
M  V30 10288 C 1005.44 -5.03409 -1.35012 0
M  V30 10289 C 1002.77 -5.77427 -1.03899 0
M  V30 10290 C 1005.12 -6.27422 -0.807704 0
M  V30 10291 C 1003.78 -6.6436 -0.646657 0
M  V30 10292 H 1003.05 -0.59301 -0.44432 0
M  V30 10293 H 1005.7 -1.84612 -0.508999 0
M  V30 10294 H 1004 -2.47203 -3.0397 0
M  V30 10295 H 1005.7 -2.81663 -2.85424 0
M  V30 10296 H 1002.29 -3.85739 -1.86823 0
M  V30 10297 H 1006.48 -4.74567 -1.45258 0
M  V30 10298 H 1001.73 -6.04713 -0.901751 0
M  V30 10299 H 1005.91 -6.94644 -0.494234 0
M  V30 10300 H 1003.53 -7.59901 -0.213053 0
M  V30 10301 N 1005.11 0.71652 -1.4037 0
M  V30 10302 C 1006.33 1.51069 -1.42102 0
M  V30 10303 C 1006.76 1.88087 -0.0222387 0
M  V30 10304 O 1006.12 1.53204 0.969448 0
M  V30 10305 C 1006.16 2.76307 -2.31704 0
M  V30 10306 O 1005.27 3.72975 -1.75964 0
M  V30 10307 H 1004.61 0.455502 -0.483129 0
M  V30 10308 H 1007.14 0.882514 -1.84588 0
M  V30 10309 H 1007.15 3.24846 -2.46859 0
M  V30 10310 H 1005.82 2.48698 -3.3335 0
M  V30 10311 H 1004.4 3.31818 -1.70151 0
M  V30 10312 N 1006.59 1.25851 0.948643 0
M  V30 10313 C 1008 1.09975 1.50872 0
M  V30 10314 C 1008.35 -0.322497 1.93531 0
M  V30 10315 O 1007.47 -1.21316 1.79197 0
M  V30 10316 C 1008.07 1.99021 2.74182 0
M  V30 10317 C 1006.63 1.87313 3.26483 0
M  V30 10318 C 1005.77 1.92815 1.99293 0
M  V30 10319 H 1008.73 1.3905 0.764908 0
M  V30 10320 H 1008.75 1.53372 3.4822 0
M  V30 10321 H 1008.26 3.02527 2.43103 0
M  V30 10322 H 1006.36 0.867136 3.62369 0
M  V30 10323 H 1006.47 2.72446 3.94094 0
M  V30 10324 H 1004.84 1.36774 2.1486 0
M  V30 10325 H 1005.62 2.97936 1.70554 0
M  V30 10326 N 1008.06 -1.15214 1.07534 0
M  V30 10327 C 1009.01 -2.20013 0.697337 0
M  V30 10328 C 1009.98 -1.6314 -0.312168 0
M  V30 10329 O 1011.17 -1.89768 -0.198196 0
M  V30 10330 C 1008.31 -3.44945 0.103293 0
M  V30 10331 C 1007.42 -4.16009 1.1645 0
M  V30 10332 C 1006.55 -5.28496 0.535261 0
M  V30 10333 C 1005.59 -5.9138 1.57912 0
M  V30 10334 N 1004.73 -6.95335 0.972332 0
M  V30 10335 H 1009.57 -2.51698 1.59538 0
M  V30 10336 H 1007.11 -1.2361 0.797431 0
M  V30 10337 H 1009.07 -4.16397 -0.258766 0
M  V30 10338 H 1007.7 -3.13772 -0.758096 0
M  V30 10339 H 1006.75 -3.43035 1.64411 0
M  V30 10340 H 1008.06 -4.58853 1.9559 0
M  V30 10341 H 1007.21 -6.06579 0.120942 0
M  V30 10342 H 1005.95 -4.8685 -0.287889 0
M  V30 10343 H 1004.96 -5.12008 2.0032 0
M  V30 10344 H 1006.18 -6.35103 2.40459 0
M  V30 10345 H 1004.13 -6.55779 0.170119 0
M  V30 10346 H 1004.05 -7.36616 1.70095 0
M  V30 10347 H 1005.31 -7.77312 0.583577 0
M  V30 10348 N 1009.54 -0.859717 -1.32086 0
M  V30 10349 C 1010.79 -0.466271 -1.97367 0
M  V30 10350 C 1011.12 0.976728 -1.6785 0
M  V30 10351 O 1010.4 1.68618 -0.969449 0
M  V30 10352 C 1010.68 -0.711851 -3.52994 0
M  V30 10353 C 1010.53 -2.20364 -3.92122 0
M  V30 10354 C 1011.85 -0.17156 -4.39765 0
M  V30 10355 H 1008.97 -0.170883 -0.716916 0
M  V30 10356 H 1011.61 -1.07907 -1.56384 0
M  V30 10357 H 1009.76 -0.190258 -3.88034 0
M  V30 10358 H 1011.43 -2.7917 -3.67236 0
M  V30 10359 H 1009.68 -2.68019 -3.41099 0
M  V30 10360 H 1010.35 -2.32615 -5.00594 0
M  V30 10361 H 1012.82 -0.617665 -4.1149 0
M  V30 10362 H 1011.7 -0.372921 -5.47632 0
M  V30 10363 H 1011.96 0.925959 -4.32294 0
M  V30 10364 N 1011.02 1.44971 -0.618145 0
M  V30 10365 C 1012.25 2.06527 -0.124165 0
M  V30 10366 C 1012.66 1.46097 1.19588 0
M  V30 10367 O 1012.02 0.57901 1.73071 0
M  V30 10368 C 1012.07 3.61498 0.0106701 0
M  V30 10369 O 1011.79 4.19675 -1.25716 0
M  V30 10370 C 1013.29 4.40061 0.534872 0
M  V30 10371 H 1010.51 0.666941 -0.0736935 0
M  V30 10372 H 1013.06 1.8605 -0.848871 0
M  V30 10373 H 1011.21 3.81282 0.685752 0
M  V30 10374 H 1011.63 5.12972 -1.09362 0
M  V30 10375 H 1013.1 5.48963 0.57827 0
M  V30 10376 H 1013.58 4.10587 1.55931 0
M  V30 10377 H 1014.18 4.25167 -0.10652 0
M  V30 10378 N 1012.5 0.357919 1.53482 0
M  V30 10379 C 1013.78 -0.290164 1.93436 0
M  V30 10380 C 1014.16 -1.67039 1.29079 0
M  V30 10381 O 1013.5 -2.24085 0.447017 0
M  V30 10382 C 1013.71 -0.348055 3.4726 0
M  V30 10383 C 1015.06 -0.59206 4.20452 0
M  V30 10384 O 1016.09 -0.429581 3.536 0
M  V30 10385 O 1014.94 -0.907855 5.38907 0
M  V30 10386 H 1012.04 -0.172312 0.80885 0
M  V30 10387 H 1014.58 0.410144 1.64669 0
M  V30 10388 H 1013.36 0.619953 3.86358 0
M  V30 10389 H 1012.98 -1.09457 3.82237 0
M  V30 10390 N 1013.98 -1.5736 0.0868897 0
M  V30 10391 C 1015.22 -1.9367 -0.577598 0
M  V30 10392 C 1015.55 -0.968844 -1.69229 0
M  V30 10393 O 1014.82 -0.0195061 -1.9589 0
M  V30 10394 H 1013.4 -0.714983 -0.216353 0
M  V30 10395 H 1016.06 -1.94335 0.148294 0
M  V30 10396 H 1015.15 -2.95877 -0.993128 0
M  V30 10397 N 1015.45 0.186762 -1.56489 0
M  V30 10398 C 1016.68 0.921832 -1.85229 0
M  V30 10399 C 1017.1 1.76496 -0.670416 0
M  V30 10400 O 1016.45 1.78899 0.360758 0
M  V30 10401 C 1016.51 1.81121 -3.12854 0
M  V30 10402 O 1016.23 1.00211 -4.26485 0
M  V30 10403 C 1017.73 2.65725 -3.54831 0
M  V30 10404 H 1014.95 0.268563 -0.61491 0
M  V30 10405 H 1017.49 0.191505 -2.03601 0
M  V30 10406 H 1015.65 2.49506 -2.96354 0
M  V30 10407 H 1016.06 1.60893 -4.99213 0
M  V30 10408 H 1017.53 3.23771 -4.47075 0
M  V30 10409 H 1018.01 3.39843 -2.78215 0
M  V30 10410 H 1018.62 2.02698 -3.7389 0
M  V30 10411 N 1016.93 1.50896 0.454776 0
M  V30 10412 C 1017.84 1.73762 1.5762 0
M  V30 10413 C 1018.86 0.621206 1.62533 0
M  V30 10414 O 1020.03 0.901449 1.801 0
M  V30 10415 C 1017.1 1.84183 2.9373 0
M  V30 10416 C 1016.16 3.07982 2.99075 0
M  V30 10417 C 1015.39 3.17896 4.28693 0
M  V30 10418 O 1015.62 2.34184 5.20109 0
M  V30 10419 O 1014.55 4.10749 4.39964 0
M  V30 10420 H 1018.38 2.68856 1.41245 0
M  V30 10421 H 1015.96 1.35187 0.635984 0
M  V30 10422 H 1017.84 1.93123 3.74542 0
M  V30 10423 H 1016.52 0.922742 3.10269 0
M  V30 10424 H 1015.43 3.04531 2.17282 0
M  V30 10425 H 1016.76 3.99523 2.87476 0
M  V30 10426 N 1018.41 -0.709066 1.40748 0
M  V30 10427 C 1019.65 -1.48139 1.40834 0
M  V30 10428 C 1020.01 -1.91996 0.0117625 0
M  V30 10429 O 1021.22 -2.68564 -0.112524 0
M  V30 10430 C 1019.49 -2.67009 2.37573 0
M  V30 10431 S 1021.05 -3.56331 2.56073 0
M  V30 10432 H 1017.86 -0.506396 0.499084 0
M  V30 10433 H 1020.47 -0.828588 1.77072 0
M  V30 10434 H 1019.17 -2.32971 3.37865 0
M  V30 10435 H 1018.7 -3.37195 2.02641 0
M  V30 10436 H 1020.72 -4.61695 1.81803 0
M  V30 10437 N 1019.89 -1.26353 -0.941956 0
M  V30 10438 C 1021.31 -1.03448 -1.21534 0
M  V30 10439 C 1021.51 0.240855 -2.00055 0
M  V30 10440 O 1020.56 0.950199 -2.33939 0
M  V30 10441 C 1021.87 -2.2654 -1.97737 0
M  V30 10442 C 1023.42 -2.31433 -2.10731 0
M  V30 10443 C 1023.9 -3.54216 -2.90336 0
M  V30 10444 N 1025.39 -3.54688 -2.9791 0
M  V30 10445 C 1026.12 -4.4636 -3.59931 0
M  V30 10446 N 1025.62 -5.48319 -4.2346 0
M  V30 10447 N 1027.41 -4.34013 -3.57196 0
M  V30 10448 H 1019.56 -2.08266 -0.417005 0
M  V30 10449 H 1021.83 -0.915251 -0.247021 0
M  V30 10450 H 1021.53 -3.19299 -1.47449 0
M  V30 10451 H 1021.41 -2.30726 -2.98405 0
M  V30 10452 H 1023.79 -1.3919 -2.60212 0
M  V30 10453 H 1023.87 -2.31259 -1.09329 0
M  V30 10454 H 1023.52 -4.46788 -2.41543 0
M  V30 10455 H 1023.45 -3.51637 -3.91993 0
M  V30 10456 H 1025.94 -2.80942 -2.52745 0
M  V30 10457 H 1026.25 -6.14458 -4.6868 0
M  V30 10458 H 1024.6 -5.52177 -4.22049 0
M  V30 10459 H 1027.79 -3.53578 -3.06758 0
M  V30 10460 H 1027.96 -5.0565 -4.05244 0
M  V30 10461 N 1021.37 1.14642 -1.08144 0
M  V30 10462 C 1022.3 2.21775 -0.730609 0
M  V30 10463 C 1023.28 1.67683 0.285702 0
M  V30 10464 O 1024.46 1.93567 0.156667 0
M  V30 10465 C 1021.59 3.47033 -0.136242 0
M  V30 10466 C 1020.55 4.14134 -1.0806 0
M  V30 10467 C 1019.87 5.33563 -0.348585 0
M  V30 10468 C 1021.17 4.62978 -2.41761 0
M  V30 10469 H 1022.87 2.51378 -1.62633 0
M  V30 10470 H 1020.41 1.20825 -0.783411 0
M  V30 10471 H 1022.37 4.21226 0.121182 0
M  V30 10472 H 1021.09 3.16786 0.7946 0
M  V30 10473 H 1019.75 3.41892 -1.32308 0
M  V30 10474 H 1019.4 4.99575 0.585974 0
M  V30 10475 H 1019.1 5.79402 -0.978122 0
M  V30 10476 H 1020.62 6.10519 -0.0991508 0
M  V30 10477 H 1022.04 5.28659 -2.21795 0
M  V30 10478 H 1020.43 5.1951 -3.00383 0
M  V30 10479 H 1021.5 3.78189 -3.03482 0
M  V30 10480 N 1022.85 0.866709 1.31628 0
M  V30 10481 C 1024.08 0.489679 2.00713 0
M  V30 10482 C 1024.48 -0.921492 1.65243 0
M  V30 10483 O 1023.83 -1.61467 0.876012 0
M  V30 10484 C 1023.89 0.563148 3.55062 0
M  V30 10485 C 1023.55 1.93535 4.13996 0
M  V30 10486 C 1024.55 2.90243 4.31341 0
M  V30 10487 C 1022.23 2.23578 4.49798 0
M  V30 10488 C 1024.23 4.15138 4.83673 0
M  V30 10489 C 1021.92 3.48723 5.01832 0
M  V30 10490 C 1022.91 4.44319 5.18719 0
M  V30 10491 O 1022.6 5.67247 5.69637 0
M  V30 10492 H 1022.33 0.189605 0.648865 0
M  V30 10493 H 1024.89 1.16874 1.68907 0
M  V30 10494 H 1023.12 -0.172815 3.86314 0
M  V30 10495 H 1024.81 0.200009 4.05407 0
M  V30 10496 H 1025.57 2.6834 4.04003 0
M  V30 10497 H 1021.45 1.49949 4.35932 0
M  V30 10498 H 1025 4.89762 4.96769 0
M  V30 10499 H 1020.89 3.70471 5.28603 0
M  V30 10500 H 1021.66 5.69372 5.88011 0
M  V30 10501 N 1024.32 -1.44642 0.625825 0
M  V30 10502 C 1025.55 -2.06971 0.133373 0
M  V30 10503 C 1025.97 -1.46421 -1.18078 0
M  V30 10504 O 1025.33 -0.563676 -1.72315 0
M  V30 10505 C 1025.38 -3.6059 0.0265097 0
M  V30 10506 O 1024.48 -3.99615 -1.01889 0
M  V30 10507 H 1023.82 -0.658873 0.0823568 0
M  V30 10508 H 1026.35 -1.85601 0.861002 0
M  V30 10509 H 1026.36 -4.07663 -0.1658 0
M  V30 10510 H 1025.04 -4.04043 0.985986 0
M  V30 10511 H 1023.62 -3.64183 -0.801577 0
M  V30 10512 N 1025.8 -0.366053 -1.5329 0
M  V30 10513 C 1026.75 0.495319 -2.27265 0
M  V30 10514 C 1027.74 1.08298 -1.30261 0
M  V30 10515 O 1028.95 1.02613 -1.47887 0
M  V30 10516 H 1025.32 0.178454 -0.730519 0
M  V30 10517 H 1027.3 -0.150354 -2.98021 0
M  V30 10518 C 1026.04 1.62283 -3.07505 0
M  V30 10519 H 1025.37 1.17993 -3.81992 0
M  V30 10520 H 1026.81 2.20024 -3.62444 0
M  V30 10521 C 1025.27 2.56542 -2.18375 0
M  V30 10522 O 1025.8 3.59371 -1.79486 0
M  V30 10523 N 1024 2.25742 -1.82999 0
M  V30 10524 H 1023.55 1.42159 -2.14822 0
M  V30 10525 H 1023.51 2.89064 -1.2365 0
M  V30 10526 N 1027.28 1.57312 -0.0952337 0
M  V30 10527 C 1028.5 1.99119 0.580206 0
M  V30 10528 C 1028.93 0.973955 1.60922 0
M  V30 10529 O 1028.29 -0.0575338 1.81209 0
M  V30 10530 C 1028.34 3.39893 1.20438 0
M  V30 10531 O 1027.44 3.40941 2.32019 0
M  V30 10532 H 1026.78 0.64748 0.147195 0
M  V30 10533 H 1029.31 2.03836 -0.176686 0
M  V30 10534 H 1029.32 3.7759 1.54564 0
M  V30 10535 H 1028 4.13453 0.450514 0
M  V30 10536 H 1026.57 3.1504 1.9951 0
M  V30 10537 N 1028.76 -0.17846 1.56586 0
M  V30 10538 C 1030 -0.897562 1.81856 0
M  V30 10539 C 1030.34 -1.82204 0.671955 0
M  V30 10540 O 1029.61 -1.91739 -0.326535 0
M  V30 10541 C 1029.89 -1.69942 3.17477 0
M  V30 10542 C 1029.75 -0.798545 4.42655 0
M  V30 10543 C 1031.07 -2.66861 3.49962 0
M  V30 10544 H 1028.19 -0.324863 0.661539 0
M  V30 10545 H 1030.83 -0.164106 1.8929 0
M  V30 10546 H 1028.98 -2.32471 3.11271 0
M  V30 10547 H 1030.65 -0.18668 4.60922 0
M  V30 10548 H 1028.89 -0.106181 4.3367 0
M  V30 10549 H 1029.56 -1.39496 5.34083 0
M  V30 10550 H 1032.04 -2.1446 3.56576 0
M  V30 10551 H 1030.92 -3.20037 4.45946 0
M  V30 10552 H 1031.18 -3.46715 2.74301 0
M  V30 10553 N 1030.24 -1.51135 -0.446768 0
M  V30 10554 C 1031.48 -1.64989 -1.20656 0
M  V30 10555 C 1031.84 -0.353882 -1.88711 0
M  V30 10556 O 1033.04 -0.368099 -2.66268 0
M  V30 10557 C 1031.31 -2.81371 -2.20375 0
M  V30 10558 S 1032.87 -3.15501 -3.04967 0
M  V30 10559 H 1029.69 -0.581372 -0.409301 0
M  V30 10560 H 1032.29 -1.89008 -0.499613 0
M  V30 10561 H 1030.99 -3.73988 -1.69001 0
M  V30 10562 H 1030.53 -2.59512 -2.95664 0
M  V30 10563 H 1032.54 -2.61205 -4.21884 0
M  V30 10564 N 1031.71 0.701592 -1.41122 0
M  V30 10565 C 1032.96 1.46376 -1.40363 0
M  V30 10566 C 1033.29 1.94197 -0.0105442 0
M  V30 10567 O 1032.57 1.69121 0.960637 0
M  V30 10568 C 1032.85 2.67994 -2.40523 0
M  V30 10569 C 1032.7 2.25977 -3.88914 0
M  V30 10570 C 1034.02 3.70181 -2.38022 0
M  V30 10571 H 1031.14 0.530929 -0.511159 0
M  V30 10572 H 1033.78 0.799588 -1.72356 0
M  V30 10573 H 1031.93 3.24661 -2.13372 0
M  V30 10574 H 1033.61 1.74684 -4.26946 0
M  V30 10575 H 1031.85 1.57826 -4.04071 0
M  V30 10576 H 1032.52 3.13215 -4.54533 0
M  V30 10577 H 1035 3.23174 -2.62103 0
M  V30 10578 H 1033.87 4.52894 -3.10127 0
M  V30 10579 H 1034.13 4.19458 -1.3967 0
M  V30 10580 N 1033.19 1.2685 0.935242 0
M  V30 10581 C 1034.61 1.04091 1.20984 0
M  V30 10582 C 1034.81 -0.230242 2.0018 0
M  V30 10583 O 1033.86 -0.93778 2.3444 0
M  V30 10584 C 1035.18 2.27586 1.96533 0
M  V30 10585 C 1036.72 2.32547 2.09501 0
M  V30 10586 C 1037.2 3.55751 2.88454 0
M  V30 10587 N 1038.69 3.56263 2.96025 0
M  V30 10588 C 1039.43 4.48262 3.57559 0
M  V30 10589 N 1038.92 5.50557 4.20546 0
M  V30 10590 N 1040.71 4.35901 3.5489 0
M  V30 10591 H 1032.87 2.08484 0.405954 0
M  V30 10592 H 1035.13 0.916548 0.242164 0
M  V30 10593 H 1034.83 3.20076 1.45753 0
M  V30 10594 H 1034.71 2.32305 2.97177 0
M  V30 10595 H 1037.1 1.40568 2.5947 0
M  V30 10596 H 1037.18 2.31836 1.08101 0
M  V30 10597 H 1036.82 4.48063 2.3917 0
M  V30 10598 H 1036.75 3.53711 3.90123 0
M  V30 10599 H 1039.24 2.82278 2.51252 0
M  V30 10600 H 1039.55 6.16935 4.65415 0
M  V30 10601 H 1037.9 5.54407 4.19115 0
M  V30 10602 H 1041.09 3.552 3.04879 0
M  V30 10603 H 1041.26 5.07792 4.02557 0
M  V30 10604 N 1034.67 -1.14067 1.0875 0
M  V30 10605 C 1035.92 -1.84819 0.817698 0
M  V30 10606 C 1036.24 -1.83545 -0.658488 0
M  V30 10607 O 1035.51 -1.28633 -1.47751 0
M  V30 10608 H 1034.09 -0.68433 0.299502 0
M  V30 10609 H 1036.75 -1.38208 1.37421 0
M  V30 10610 H 1035.85 -2.89541 1.16501 0
M  V30 10611 N 1036.15 -0.873678 -1.31166 0
M  V30 10612 C 1037.1 -0.330288 -2.28424 0
M  V30 10613 C 1038.07 0.573299 -1.55893 0
M  V30 10614 O 1039.25 0.504143 -1.84019 0
M  V30 10615 C 1036.39 0.459004 -3.42034 0
M  V30 10616 C 1035.5 -0.472519 -4.29408 0
M  V30 10617 C 1034.64 0.331261 -5.30166 0
M  V30 10618 C 1033.68 -0.596453 -6.09187 0
M  V30 10619 N 1032.81 0.171305 -7.01891 0
M  V30 10620 H 1037.65 -1.16485 -2.7429 0
M  V30 10621 H 1035.19 -0.585813 -1.34932 0
M  V30 10622 H 1037.15 0.932432 -4.06647 0
M  V30 10623 H 1035.78 1.25824 -2.97268 0
M  V30 10624 H 1034.83 -1.06441 -3.65205 0
M  V30 10625 H 1036.14 -1.18372 -4.84551 0
M  V30 10626 H 1035.3 0.867038 -6.00473 0
M  V30 10627 H 1034.04 1.07573 -4.75688 0
M  V30 10628 H 1033.04 -1.14395 -5.37767 0
M  V30 10629 H 1034.27 -1.33983 -6.65752 0
M  V30 10630 H 1032.21 0.89852 -6.49817 0
M  V30 10631 H 1032.13 -0.480481 -7.54472 0
M  V30 10632 H 1033.4 0.688192 -7.76456 0
M  V30 10633 N 1037.63 1.44308 -0.633487 0
M  V30 10634 C 1038.87 2.03904 -0.14226 0
M  V30 10635 C 1039.23 1.48768 1.21376 0
M  V30 10636 O 1040.43 1.99882 1.79724 0
M  V30 10637 C 1038.7 3.5716 -0.130975 0
M  V30 10638 S 1040.26 4.37805 0.295287 0
M  V30 10639 H 1037.08 0.70827 -0.0622429 0
M  V30 10640 H 1039.68 1.76657 -0.837405 0
M  V30 10641 H 1038.39 3.94794 -1.12096 0
M  V30 10642 H 1037.92 3.89021 0.585342 0
M  V30 10643 H 1039.93 4.71732 1.53894 0
M  V30 10644 N 1039.1 0.374177 1.53094 0
M  V30 10645 C 1040.35 -0.213131 2.01677 0
M  V30 10646 C 1040.68 -1.47715 1.26071 0
M  V30 10647 O 1039.96 -1.91199 0.356834 0
M  V30 10648 C 1040.24 -0.496392 3.56662 0
M  V30 10649 C 1040.09 0.781859 4.42953 0
M  V30 10650 C 1041.41 -1.29339 4.20666 0
M  V30 10651 H 1038.53 -0.0759885 0.733072 0
M  V30 10652 H 1041.17 0.500765 1.83282 0
M  V30 10653 H 1039.32 -1.10455 3.72467 0
M  V30 10654 H 1041 1.41914 4.38928 0
M  V30 10655 H 1039.24 1.40041 4.10574 0
M  V30 10656 H 1039.91 0.538508 5.49367 0
M  V30 10657 H 1042.39 -0.778848 4.08746 0
M  V30 10658 H 1041.26 -1.46033 5.29118 0
M  V30 10659 H 1041.52 -2.30435 3.77296 0
M  V30 10660 N 1040.58 -1.57259 0.103575 0
M  V30 10661 C 1042 -1.57581 -0.253062 0
M  V30 10662 C 1042.2 -1.11531 -1.67819 0
M  V30 10663 O 1041.25 -0.795632 -2.39637 0
M  V30 10664 C 1042.57 -3.00681 -0.0337753 0
M  V30 10665 C 1044.12 -3.12837 -0.10087 0
M  V30 10666 C 1044.59 -4.57911 0.0905295 0
M  V30 10667 N 1046.08 -4.63186 0.0359789 0
M  V30 10668 C 1046.82 -5.73179 0.159199 0
M  V30 10669 N 1046.31 -6.91976 0.337728 0
M  V30 10670 N 1048.11 -5.62011 0.0998662 0
M  V30 10671 H 1040.26 -1.85499 1.0346 0
M  V30 10672 H 1042.52 -0.856584 0.406163 0
M  V30 10673 H 1042.23 -3.38602 0.950858 0
M  V30 10674 H 1042.1 -3.69207 -0.772406 0
M  V30 10675 H 1044.49 -2.74783 -1.07601 0
M  V30 10676 H 1044.57 -2.46886 0.66939 0
M  V30 10677 H 1044.21 -4.9666 1.06258 0
M  V30 10678 H 1044.14 -5.21933 -0.699528 0
M  V30 10679 H 1046.63 -3.7777 -0.099121 0
M  V30 10680 H 1046.95 -7.71641 0.423032 0
M  V30 10681 H 1045.29 -6.93996 0.373504 0
M  V30 10682 H 1048.48 -4.68084 -0.0385356 0
M  V30 10683 H 1048.65 -6.47693 0.199342 0
M  V30 10684 N 1042.06 0.170153 -1.56679 0
M  V30 10685 C 1043.29 0.902134 -1.86197 0
M  V30 10686 C 1043.7 1.75775 -0.689098 0
M  V30 10687 O 1043.06 1.79271 0.341763 0
M  V30 10688 C 1043.11 1.77792 -3.14757 0
M  V30 10689 O 1042.83 0.956817 -4.27524 0
M  V30 10690 C 1044.33 2.61947 -3.57629 0
M  V30 10691 H 1041.55 0.262026 -0.617724 0
M  V30 10692 H 1044.1 0.169899 -2.03793 0
M  V30 10693 H 1042.25 2.46348 -2.98984 0
M  V30 10694 H 1042.67 1.5559 -5.00891 0
M  V30 10695 H 1044.14 3.19011 -4.50484 0
M  V30 10696 H 1044.62 3.36873 -2.81803 0
M  V30 10697 H 1045.22 1.98721 -3.76019 0
M  V30 10698 N 1043.54 1.5137 0.438746 0
M  V30 10699 C 1044.79 1.63645 1.18595 0
M  V30 10700 C 1045.11 0.354241 1.91755 0
M  V30 10701 O 1044.38 -0.629838 1.85499 0
M  V30 10702 H 1042.96 0.603103 0.440767 0
M  V30 10703 H 1045.62 1.88293 0.503159 0
M  V30 10704 H 1044.72 2.46342 1.9163 0
M  V30 10705 N 1045.02 -0.694098 1.41492 0
M  V30 10706 C 1046.26 -1.46637 1.42398 0
M  V30 10707 C 1046.62 -1.91973 0.0321256 0
M  V30 10708 O 1047.82 -2.68669 -0.0840324 0
M  V30 10709 C 1046.09 -2.64474 2.40392 0
M  V30 10710 S 1047.65 -3.53595 2.59838 0
M  V30 10711 H 1044.47 -0.501074 0.504427 0
M  V30 10712 H 1047.07 -0.809761 1.77941 0
M  V30 10713 H 1045.78 -2.29374 3.40317 0
M  V30 10714 H 1045.31 -3.35026 2.06206 0
M  V30 10715 H 1047.32 -4.59741 1.86689 0
M  V30 10716 N 1046.49 -1.27344 -0.928501 0
M  V30 10717 C 1047.77 -1.04362 -1.65433 0
M  V30 10718 C 1048.15 0.421896 -2.06841 0
M  V30 10719 O 1047.5 1.40496 -1.80203 0
M  V30 10720 C 1047.71 -2.00442 -2.85699 0
M  V30 10721 C 1049.06 -2.29767 -3.57061 0
M  V30 10722 O 1050.08 -1.98409 -2.95825 0
M  V30 10723 O 1048.94 -2.83217 -4.67387 0
M  V30 10724 H 1046.03 -0.397783 -0.72505 0
M  V30 10725 H 1048.58 -1.38606 -0.979109 0
M  V30 10726 H 1047.35 -2.99281 -2.52085 0
M  V30 10727 H 1046.98 -1.66755 -3.60941 0
M  V30 10728 N 1047.97 1.13488 -1.09353 0
M  V30 10729 C 1049.22 1.84383 -0.827488 0
M  V30 10730 C 1049.54 1.83892 0.648745 0
M  V30 10731 O 1048.81 1.29415 1.47066 0
M  V30 10732 H 1047.39 0.682732 -0.303127 0
M  V30 10733 H 1050.05 1.37477 -1.38152 0
M  V30 10734 H 1049.15 2.88919 -1.18035 0
M  V30 10735 N 1049.45 0.880621 1.30701 0
M  V30 10736 C 1050.7 0.492957 1.95583 0
M  V30 10737 C 1051.01 -0.961863 1.70316 0
M  V30 10738 O 1052.22 -1.45617 2.29146 0
M  V30 10739 C 1050.68 0.830656 3.50183 0
M  V30 10740 C 1050.28 2.30295 3.84276 0
M  V30 10741 C 1052.03 0.511979 4.21401 0
M  V30 10742 C 1049.93 2.58251 5.32034 0
M  V30 10743 H 1048.86 0.18062 0.732047 0
M  V30 10744 H 1051.52 1.075 1.48715 0
M  V30 10745 H 1049.9 0.177752 3.95601 0
M  V30 10746 H 1051.07 2.99981 3.49783 0
M  V30 10747 H 1049.39 2.58873 3.2615 0
M  V30 10748 H 1051.98 0.697935 5.30125 0
M  V30 10749 H 1052.33 -0.548327 4.12673 0
M  V30 10750 H 1052.86 1.12189 3.81652 0
M  V30 10751 H 1049.6 3.63005 5.45809 0
M  V30 10752 H 1049.12 1.9317 5.67843 0
M  V30 10753 H 1050.8 2.43527 5.99419 0
M  V30 10754 N 1050.93 -1.4397 0.641131 0
M  V30 10755 C 1052.18 -2.01163 0.147026 0
M  V30 10756 C 1052.49 -1.51099 -1.24211 0
M  V30 10757 O 1053.7 -2.00487 -1.83078 0
M  V30 10758 C 1052.15 -3.59275 0.212068 0
M  V30 10759 C 1051.76 -4.18334 1.60314 0
M  V30 10760 C 1053.51 -4.23903 -0.225057 0
M  V30 10761 C 1051.41 -5.68701 1.62276 0
M  V30 10762 H 1050.34 -0.75226 0.051201 0
M  V30 10763 H 1052.99 -1.65075 0.801396 0
M  V30 10764 H 1051.38 -3.92708 -0.509589 0
M  V30 10765 H 1052.55 -3.96422 2.34918 0
M  V30 10766 H 1050.86 -3.66031 1.9852 0
M  V30 10767 H 1053.46 -5.34205 -0.230074 0
M  V30 10768 H 1053.8 -3.96956 -1.25426 0
M  V30 10769 H 1054.34 -3.95309 0.44444 0
M  V30 10770 H 1051.08 -6.00397 2.63066 0
M  V30 10771 H 1050.6 -5.92705 0.919797 0
M  V30 10772 H 1052.28 -6.32521 1.36112 0
M  V30 10773 N 1052.41 -0.382291 -1.52893 0
M  V30 10774 C 1053.66 0.201734 -2.01091 0
M  V30 10775 C 1053.98 1.47905 -1.2708 0
M  V30 10776 O 1053.25 1.92002 -0.38883 0
M  V30 10777 H 1051.83 0.0775373 -0.742965 0
M  V30 10778 H 1054.49 -0.512369 -1.88045 0
M  V30 10779 H 1053.58 0.416919 -3.09303 0
M  V30 10780 N 1053.89 1.57202 -0.111913 0
M  V30 10781 C 1055.11 1.99723 0.559054 0
M  V30 10782 C 1055.54 0.990968 1.59879 0
M  V30 10783 O 1054.89 -0.038311 1.8126 0
M  V30 10784 C 1054.94 3.41151 1.16826 0
M  V30 10785 O 1054.05 3.43383 2.2839 0
M  V30 10786 H 1053.39 0.649004 0.140319 0
M  V30 10787 H 1055.92 2.03637 -0.198295 0
M  V30 10788 H 1055.93 3.79208 1.50551 0
M  V30 10789 H 1054.6 4.13907 0.406637 0
M  V30 10790 H 1053.18 3.17138 1.96158 0
M  V30 10791 N 1055.36 -0.161842 1.56767 0
M  V30 10792 C 1056.31 -1.2002 1.97139 0
M  V30 10793 C 1057.28 -1.43486 0.836713 0
M  V30 10794 O 1058.47 -1.56069 1.0976 0
M  V30 10795 C 1055.61 -2.53228 2.34456 0
M  V30 10796 C 1054.72 -2.37062 3.61145 0
M  V30 10797 C 1053.85 -3.63202 3.87631 0
M  V30 10798 C 1052.89 -3.42008 5.07638 0
M  V30 10799 N 1052.03 -4.60242 5.30209 0
M  V30 10800 H 1056.87 -0.848918 2.85653 0
M  V30 10801 H 1054.41 -0.407753 1.41336 0
M  V30 10802 H 1056.36 -3.30879 2.54116 0
M  V30 10803 H 1054.99 -2.86333 1.4904 0
M  V30 10804 H 1054.05 -1.50539 3.49345 0
M  V30 10805 H 1055.36 -2.17353 4.48953 0
M  V30 10806 H 1054.51 -4.49285 4.0771 0
M  V30 10807 H 1053.25 -3.85899 2.98216 0
M  V30 10808 H 1052.26 -2.54312 4.87448 0
M  V30 10809 H 1053.48 -3.20724 5.98593 0
M  V30 10810 H 1051.43 -4.8314 4.43747 0
M  V30 10811 H 1051.34 -4.43481 6.12259 0
M  V30 10812 H 1052.61 -5.47581 5.54775 0
M  V30 10813 N 1056.84 -1.516 -0.430713 0
M  V30 10814 C 1057.77 -1.76342 -1.53054 0
M  V30 10815 C 1058.75 -0.61349 -1.58652 0
M  V30 10816 O 1059.94 -0.856888 -1.74273 0
M  V30 10817 C 1057.07 -1.8945 -2.91077 0
M  V30 10818 C 1056.02 -3.04928 -3.00339 0
M  V30 10819 C 1055.35 -3.03228 -4.40405 0
M  V30 10820 C 1056.65 -4.44777 -2.73808 0
M  V30 10821 H 1058.34 -2.68435 -1.326 0
M  V30 10822 H 1055.89 -1.29171 -0.636466 0
M  V30 10823 H 1057.84 -2.05343 -3.67984 0
M  V30 10824 H 1056.56 -0.940114 -3.12777 0
M  V30 10825 H 1055.22 -2.88751 -2.25872 0
M  V30 10826 H 1054.87 -2.05553 -4.59083 0
M  V30 10827 H 1054.57 -3.80776 -4.47531 0
M  V30 10828 H 1056.1 -3.21222 -5.19277 0
M  V30 10829 H 1057.51 -4.6127 -3.40445 0
M  V30 10830 H 1055.91 -5.2408 -2.92335 0
M  V30 10831 H 1056.98 -4.54358 -1.69372 0
M  V30 10832 N 1058.32 0.686584 -1.41858 0
M  V30 10833 C 1059.25 1.81202 -1.40352 0
M  V30 10834 C 1060.26 1.5993 -0.304322 0
M  V30 10835 O 1061.45 1.69267 -0.566643 0
M  V30 10836 C 1058.55 3.18116 -1.16856 0
M  V30 10837 C 1057.73 3.66339 -2.38987 0
M  V30 10838 C 1056.79 4.8195 -2.11212 0
M  V30 10839 O 1055.81 4.93102 -2.84323 0
M  V30 10840 N 1057.01 5.69829 -1.10793 0
M  V30 10841 H 1059.78 1.82983 -2.37355 0
M  V30 10842 H 1057.34 0.869244 -1.36586 0
M  V30 10843 H 1059.33 3.93097 -0.962125 0
M  V30 10844 H 1057.9 3.11306 -0.284186 0
M  V30 10845 H 1057.12 2.82166 -2.75274 0
M  V30 10846 H 1058.41 3.95297 -3.2034 0
M  V30 10847 H 1057.81 5.63459 -0.503012 0
M  V30 10848 H 1056.36 6.44671 -0.961379 0
M  V30 10849 N 1059.8 1.27835 0.921735 0
M  V30 10850 C 1061.03 1.17182 1.70153 0
M  V30 10851 C 1061.44 -0.273207 1.87217 0
M  V30 10852 O 1060.78 -1.19729 1.39322 0
M  V30 10853 C 1060.84 1.78969 3.11786 0
M  V30 10854 C 1060.5 3.28179 3.18037 0
M  V30 10855 C 1061.5 4.24729 2.99835 0
M  V30 10856 C 1059.19 3.68995 3.40805 0
M  V30 10857 C 1061.18 5.60071 3.04301 0
M  V30 10858 C 1058.87 5.04465 3.44904 0
M  V30 10859 C 1059.87 5.99813 3.2667 0
M  V30 10860 O 1059.55 7.32813 3.30515 0
M  V30 10861 H 1059.29 0.408079 0.538932 0
M  V30 10862 H 1061.84 1.69326 1.16266 0
M  V30 10863 H 1060.07 1.2131 3.6718 0
M  V30 10864 H 1061.76 1.62946 3.71757 0
M  V30 10865 H 1062.52 3.94533 2.8208 0
M  V30 10866 H 1058.4 2.9525 3.54045 0
M  V30 10867 H 1061.95 6.34471 2.89987 0
M  V30 10868 H 1057.84 5.34315 3.62185 0
M  V30 10869 H 1058.61 7.41338 3.4693 0
M  V30 10870 N 1061.28 -1.12907 1.09954 0
M  V30 10871 C 1062.55 -1.80602 0.751148 0
M  V30 10872 C 1062.93 -1.96826 -0.763077 0
M  V30 10873 O 1062.28 -1.54066 -1.68749 0
M  V30 10874 C 1062.49 -3.15289 1.49646 0
M  V30 10875 C 1063.84 -3.9056 1.66578 0
M  V30 10876 O 1064.86 -3.24929 1.45943 0
M  V30 10877 O 1063.72 -5.08292 2.00752 0
M  V30 10878 H 1060.82 -0.781529 0.270446 0
M  V30 10879 H 1063.36 -1.19786 1.20206 0
M  V30 10880 H 1062.13 -2.9874 2.52725 0
M  V30 10881 H 1061.76 -3.83809 1.03808 0
M  V30 10882 N 1062.75 -0.88754 -1.30232 0
M  V30 10883 C 1063.7 -0.354497 -2.28061 0
M  V30 10884 C 1064.67 0.556732 -1.56492 0
M  V30 10885 O 1065.86 0.484597 -1.84543 0
M  V30 10886 C 1063 0.422701 -3.42501 0
M  V30 10887 C 1062.11 -0.518036 -4.28883 0
M  V30 10888 C 1061.24 0.275011 -5.30488 0
M  V30 10889 C 1060.28 -0.661032 -6.0852 0
M  V30 10890 N 1059.42 0.0968509 -7.02033 0
M  V30 10891 H 1064.26 -1.19388 -2.73039 0
M  V30 10892 H 1061.8 -0.600091 -1.34303 0
M  V30 10893 H 1063.75 0.889249 -4.07613 0
M  V30 10894 H 1062.38 1.22664 -2.98586 0
M  V30 10895 H 1061.44 -1.10308 -3.64055 0
M  V30 10896 H 1062.75 -1.23504 -4.83268 0
M  V30 10897 H 1061.9 0.803301 -6.01358 0
M  V30 10898 H 1060.64 1.02522 -4.76802 0
M  V30 10899 H 1059.65 -1.20093 -5.36524 0
M  V30 10900 H 1060.87 -1.41037 -6.64293 0
M  V30 10901 H 1058.82 0.829548 -6.50734 0
M  V30 10902 H 1058.73 -0.560476 -7.5392 0
M  V30 10903 H 1060 0.6058 -7.77142 0
M  V30 10904 N 1064.23 1.43628 -0.648757 0
M  V30 10905 C 1065.47 2.03742 -0.163878 0
M  V30 10906 C 1065.84 1.50047 1.19791 0
M  V30 10907 O 1067.04 2.01777 1.77594 0
M  V30 10908 C 1065.31 3.57001 -0.168849 0
M  V30 10909 S 1066.87 4.38094 0.248835 0
M  V30 10910 H 1063.69 0.70757 -0.0697515 0
M  V30 10911 H 1066.29 1.75759 -0.856094 0
M  V30 10912 H 1064.99 3.93583 -1.16277 0
M  V30 10913 H 1064.52 3.8962 0.544048 0
M  V30 10914 H 1066.54 4.73338 1.48882 0
M  V30 10915 N 1065.71 0.390394 1.52688 0
M  V30 10916 C 1066.96 -0.191067 2.01195 0
M  V30 10917 C 1067.28 -1.47229 1.27862 0
M  V30 10918 O 1066.55 -1.91793 0.399007 0
M  V30 10919 H 1065.13 -0.073596 0.743366 0
M  V30 10920 H 1067.79 0.522334 1.8777 0
M  V30 10921 H 1066.89 -0.40051 3.0952 0
M  V30 10922 N 1067.19 -1.57141 0.120249 0
M  V30 10923 C 1068.43 -1.95527 -0.538245 0
M  V30 10924 C 1068.77 -1.00373 -1.6625 0
M  V30 10925 O 1068.04 -0.0411734 -1.94456 0
M  V30 10926 C 1068.33 -3.43843 -1.06976 0
M  V30 10927 C 1068.18 -4.49771 0.0511596 0
M  V30 10928 C 1069.5 -3.94035 -1.96022 0
M  V30 10929 H 1066.62 -0.710958 -0.194183 0
M  V30 10930 H 1069.26 -1.88986 0.196061 0
M  V30 10931 H 1067.41 -3.49548 -1.69553 0
M  V30 10932 H 1069.08 -4.56163 0.686503 0
M  V30 10933 H 1067.32 -4.27882 0.714127 0
M  V30 10934 H 1067.99 -5.50812 -0.361995 0
M  V30 10935 H 1070.47 -3.9064 -1.43315 0
M  V30 10936 H 1069.35 -4.98329 -2.3013 0
M  V30 10937 H 1069.61 -3.34803 -2.8872 0
M  V30 10938 N 1068.67 0.153526 -1.5685 0
M  V30 10939 C 1069.91 0.873522 -1.84794 0
M  V30 10940 C 1070.27 1.78642 -0.703648 0
M  V30 10941 O 1071.47 2.54537 -0.863972 0
M  V30 10942 C 1069.74 1.63316 -3.17904 0
M  V30 10943 S 1071.3 2.39948 -3.67383 0
M  V30 10944 H 1068.12 0.292233 -0.648167 0
M  V30 10945 H 1070.72 0.133949 -1.95041 0
M  V30 10946 H 1069.43 0.95387 -3.99161 0
M  V30 10947 H 1068.96 2.41377 -3.10646 0
M  V30 10948 H 1070.97 3.65011 -3.36127 0
M  V30 10949 N 1070.14 1.51827 0.422667 0
M  V30 10950 C 1071.39 1.64893 1.16853 0
M  V30 10951 C 1071.71 0.37456 1.91369 0
M  V30 10952 O 1070.98 -0.610128 1.86157 0
M  V30 10953 H 1069.56 0.607744 0.434345 0
M  V30 10954 H 1072.23 1.88816 0.483159 0
M  V30 10955 H 1071.32 2.48361 1.89006 0
M  V30 10956 N 1071.62 -0.679052 1.4222 0
M  V30 10957 C 1072.87 -1.43627 1.42182 0
M  V30 10958 C 1073.19 -1.94964 0.0377095 0
M  V30 10959 O 1072.46 -1.72788 -0.923098 0
M  V30 10960 H 1071.04 -0.532972 0.523402 0
M  V30 10961 H 1073.7 -0.802649 1.77605 0
M  V30 10962 H 1072.8 -2.29137 2.11902 0
M  V30 10963 N 1073.1 -1.28322 -0.914942 0
M  V30 10964 C 1074.38 -1.06111 -1.64316 0
M  V30 10965 C 1074.76 0.399934 -2.07277 0
M  V30 10966 O 1074.11 1.38577 -1.81683 0
M  V30 10967 C 1074.32 -2.03461 -2.83557 0
M  V30 10968 C 1075.66 -2.33541 -3.54604 0
M  V30 10969 O 1076.69 -2.01536 -2.93704 0
M  V30 10970 O 1075.55 -2.88158 -4.64357 0
M  V30 10971 H 1072.64 -0.405451 -0.72079 0
M  V30 10972 H 1075.19 -1.39636 -0.964352 0
M  V30 10973 H 1073.96 -3.01938 -2.48896 0
M  V30 10974 H 1073.58 -1.70574 -3.59152 0
M  V30 10975 N 1074.58 1.12322 -1.10551 0
M  V30 10976 C 1075.53 2.20166 -0.750317 0
M  V30 10977 C 1076.52 1.67484 0.254066 0
M  V30 10978 O 1077.73 1.79637 0.114309 0
M  V30 10979 H 1074.1 0.717642 -0.22471 0
M  V30 10980 H 1076.07 2.47378 -1.66873 0
M  V30 10981 C 1074.82 3.47126 -0.199651 0
M  V30 10982 H 1074.14 3.88011 -0.963735 0
M  V30 10983 H 1075.58 4.23999 0.0108033 0
M  V30 10984 C 1074.04 3.19526 1.06792 0
M  V30 10985 O 1074.57 3.39368 2.14923 0
M  V30 10986 N 1072.78 2.73324 0.987032 0
M  V30 10987 H 1072.33 2.57378 0.106997 0
M  V30 10988 H 1072.28 2.55234 1.83584 0
M  V30 10989 N 1076.06 0.894434 1.2976 0
M  V30 10990 C 1077.28 0.5322 2.00455 0
M  V30 10991 C 1077.71 -0.874427 1.66539 0
M  V30 10992 O 1077.06 -1.58113 0.887129 0
M  V30 10993 C 1077.11 0.725264 3.53231 0
M  V30 10994 O 1076.22 -0.224612 4.11788 0
M  V30 10995 H 1075.56 0.208562 0.630395 0
M  V30 10996 H 1078.09 1.20458 1.65382 0
M  V30 10997 H 1078.1 0.627889 4.0314 0
M  V30 10998 H 1076.77 1.75079 3.77253 0
M  V30 10999 H 1075.35 -0.0801361 3.72814 0
M  V30 11000 N 1077.53 -1.43282 0.656365 0
M  V30 11001 C 1078.76 -2.06641 0.177245 0
M  V30 11002 C 1079.18 -1.48893 -1.14946 0
M  V30 11003 O 1078.54 -0.600099 -1.7108 0
M  V30 11004 C 1078.59 -3.60453 0.10299 0
M  V30 11005 O 1077.69 -4.01687 -0.933895 0
M  V30 11006 H 1077.04 -0.656978 0.096314 0
M  V30 11007 H 1079.57 -1.83733 0.900178 0
M  V30 11008 H 1079.58 -4.07923 -0.079291 0
M  V30 11009 H 1078.25 -4.01861 1.07147 0
M  V30 11010 H 1076.83 -3.65801 -0.724148 0
M  V30 11011 N 1079.01 -0.398486 -1.52479 0
M  V30 11012 C 1080.25 0.180412 -2.03602 0
M  V30 11013 C 1080.62 1.43276 -1.27812 0
M  V30 11014 O 1081.82 2.08941 -1.69107 0
M  V30 11015 C 1080.09 0.432744 -3.5477 0
M  V30 11016 S 1081.65 0.980612 -4.27703 0
M  V30 11017 H 1078.47 0.0499981 -0.70924 0
M  V30 11018 H 1081.07 -0.548952 -1.87635 0
M  V30 11019 H 1079.77 -0.48568 -4.07516 0
M  V30 11020 H 1079.3 1.19028 -3.74961 0
M  V30 11021 H 1081.32 2.26216 -4.41634 0
M  V30 11022 N 1080.49 1.57075 -0.12858 0
M  V30 11023 C 1081.72 1.99876 0.534544 0
M  V30 11024 C 1082.13 1.00843 1.59612 0
M  V30 11025 O 1081.49 0.00268947 1.825 0
M  V30 11026 C 1081.54 3.42654 1.15198 0
M  V30 11027 O 1081.26 4.37899 0.132823 0
M  V30 11028 C 1082.76 4.00637 1.8975 0
M  V30 11029 H 1079.98 0.656073 0.140744 0
M  V30 11030 H 1082.53 2.03337 -0.217742 0
M  V30 11031 H 1080.68 3.40101 1.85499 0
M  V30 11032 H 1081.1 5.21253 0.582682 0
M  V30 11033 H 1082.57 5.02592 2.28266 0
M  V30 11034 H 1083.05 3.40313 2.7764 0
M  V30 11035 H 1083.65 4.06764 1.2419 0
M  V30 11036 N 1081.97 -0.145205 1.5693 0
M  V30 11037 C 1082.92 -1.17923 1.98401 0
M  V30 11038 C 1083.89 -1.42591 0.851885 0
M  V30 11039 O 1085.07 -1.54896 1.11409 0
M  V30 11040 C 1082.21 -2.50727 2.37128 0
M  V30 11041 C 1081.32 -2.33218 3.63639 0
M  V30 11042 C 1080.46 -3.5907 3.91462 0
M  V30 11043 C 1079.5 -3.36605 5.11237 0
M  V30 11044 N 1078.64 -4.54592 5.35061 0
M  V30 11045 H 1083.48 -0.818573 2.86537 0
M  V30 11046 H 1081.01 -0.392739 1.4176 0
M  V30 11047 H 1082.97 -3.28165 2.57611 0
M  V30 11048 H 1081.6 -2.84736 1.52069 0
M  V30 11049 H 1080.65 -1.46826 3.50922 0
M  V30 11050 H 1081.96 -2.12579 4.51234 0
M  V30 11051 H 1081.12 -4.44936 4.12453 0
M  V30 11052 H 1079.86 -3.82715 3.02293 0
M  V30 11053 H 1078.86 -2.49127 4.90118 0
M  V30 11054 H 1080.09 -3.14357 6.01961 0
M  V30 11055 H 1078.03 -4.78406 4.48847 0
M  V30 11056 H 1077.95 -4.36962 6.16928 0
M  V30 11057 H 1079.22 -5.41666 5.60551 0
M  V30 11058 N 1083.45 -1.52049 -0.414609 0
M  V30 11059 C 1084.7 -1.65067 -1.15912 0
M  V30 11060 C 1085.01 -0.383969 -1.91794 0
M  V30 11061 O 1086.22 -0.393872 -2.68628 0
M  V30 11062 C 1084.67 -2.91611 -2.1093 0
M  V30 11063 C 1084.28 -4.25369 -1.4059 0
M  V30 11064 C 1086.02 -3.13992 -2.85674 0
M  V30 11065 C 1083.93 -5.43041 -2.34223 0
M  V30 11066 H 1082.86 -0.614884 -0.436387 0
M  V30 11067 H 1085.51 -1.78533 -0.424072 0
M  V30 11068 H 1083.89 -2.71831 -2.87965 0
M  V30 11069 H 1085.07 -4.55611 -0.689568 0
M  V30 11070 H 1083.38 -4.09047 -0.779088 0
M  V30 11071 H 1085.98 -3.99082 -3.55861 0
M  V30 11072 H 1086.32 -2.27998 -3.48314 0
M  V30 11073 H 1086.86 -3.34217 -2.1574 0
M  V30 11074 H 1083.59 -6.31364 -1.76238 0
M  V30 11075 H 1083.11 -5.17144 -3.03845 0
M  V30 11076 H 1084.79 -5.75901 -2.94868 0
M  V30 11077 N 1084.93 0.6715 -1.42579 0
M  V30 11078 C 1086.17 1.43366 -1.43436 0
M  V30 11079 C 1086.5 1.94131 -0.0517339 0
M  V30 11080 O 1085.78 1.71121 0.924548 0
M  V30 11081 C 1086.06 2.62832 -2.46154 0
M  V30 11082 C 1085.92 2.17677 -3.9362 0
M  V30 11083 C 1087.23 3.65049 -2.4582 0
M  V30 11084 H 1084.35 0.519967 -0.522306 0
M  V30 11085 H 1087 0.762849 -1.74013 0
M  V30 11086 H 1085.15 3.20062 -2.2021 0
M  V30 11087 H 1086.82 1.65588 -4.30556 0
M  V30 11088 H 1085.06 1.49219 -4.07328 0
M  V30 11089 H 1085.73 3.03503 -4.61075 0
M  V30 11090 H 1088.21 3.17541 -2.68899 0
M  V30 11091 H 1087.08 4.46213 -3.19664 0
M  V30 11092 H 1087.34 4.16401 -1.48536 0
M  V30 11093 N 1086.4 1.28806 0.908124 0
M  V30 11094 C 1087.65 1.16058 1.65454 0
M  V30 11095 C 1087.97 -0.290057 1.92831 0
M  V30 11096 O 1087.24 -1.20001 1.54843 0
M  V30 11097 H 1085.82 0.426522 0.61326 0
M  V30 11098 H 1088.48 1.61614 1.08936 0
M  V30 11099 H 1087.58 1.70437 2.61453 0
M  V30 11100 N 1087.88 -1.11734 1.11145 0
M  V30 11101 C 1089.11 -1.87215 0.880811 0
M  V30 11102 C 1089.52 -1.80016 -0.569195 0
M  V30 11103 O 1088.88 -1.17926 -1.39283 0
M  V30 11104 C 1088.93 -3.36146 1.32998 0
M  V30 11105 O 1088.65 -3.43187 2.72313 0
M  V30 11106 C 1090.15 -4.28542 1.1343 0
M  V30 11107 H 1087.37 -0.592123 0.315645 0
M  V30 11108 H 1089.92 -1.41335 1.478 0
M  V30 11109 H 1088.07 -3.79542 0.776308 0
M  V30 11110 H 1088.49 -4.359 2.91705 0
M  V30 11111 H 1089.96 -5.31295 1.49764 0
M  V30 11112 H 1090.44 -4.39138 0.0735859 0
M  V30 11113 H 1091.04 -3.90935 1.67481 0
M  V30 11114 N 1089.36 -0.901303 -1.29284 0
M  V30 11115 C 1090.61 -0.528043 -1.95494 0
M  V30 11116 C 1090.93 0.92597 -1.71044 0
M  V30 11117 O 1090.19 1.67185 -1.01723 0
M  V30 11118 C 1090.49 -0.768828 -3.49033 0
M  V30 11119 C 1090.15 -2.20045 -3.93562 0
M  V30 11120 C 1088.82 -2.59189 -4.05431 0
M  V30 11121 C 1091.17 -3.13266 -4.1655 0
M  V30 11122 C 1088.5 -3.90733 -4.37658 0
M  V30 11123 C 1090.85 -4.4436 -4.50252 0
M  V30 11124 C 1089.51 -4.83375 -4.60331 0
M  V30 11125 H 1088.78 -0.193225 -0.715364 0
M  V30 11126 H 1091.43 -1.14027 -1.53851 0
M  V30 11127 H 1089.73 -0.0736997 -3.91731 0
M  V30 11128 H 1091.43 -0.459384 -3.9836 0
M  V30 11129 H 1088.02 -1.88666 -3.84842 0
M  V30 11130 H 1092.21 -2.84237 -4.06845 0
M  V30 11131 H 1087.46 -4.2068 -4.43665 0
M  V30 11132 H 1091.64 -5.16618 -4.66989 0
M  V30 11133 H 1089.26 -5.8534 -4.85058 0
M  V30 11134 N 1090.84 1.42931 -0.663954 0
M  V30 11135 C 1091.79 2.32577 0.03287 0
M  V30 11136 C 1092.78 1.49217 0.801918 0
M  V30 11137 O 1093.99 1.65358 0.711106 0
M  V30 11138 H 1090.36 0.751424 0.0294198 0
M  V30 11139 H 1092.33 2.89059 -0.740763 0
M  V30 11140 C 1091.08 3.33661 0.978025 0
M  V30 11141 H 1090.4 3.97837 0.395681 0
M  V30 11142 H 1091.84 3.98997 1.43448 0
M  V30 11143 C 1090.3 2.65085 2.07922 0
M  V30 11144 O 1090.83 2.4745 3.16435 0
M  V30 11145 N 1089.04 2.24285 1.84783 0
M  V30 11146 H 1088.59 2.38827 0.965368 0
M  V30 11147 H 1088.54 1.78732 2.58655 0
M  V30 11148 N 1092.32 0.406567 1.52266 0
M  V30 11149 C 1093.26 -0.420182 2.26943 0
M  V30 11150 C 1094.23 -1.04323 1.29251 0
M  V30 11151 O 1095.42 -1.06799 1.5811 0
M  V30 11152 C 1092.56 -1.5323 3.09216 0
M  V30 11153 C 1091.67 -0.930419 4.21862 0
M  V30 11154 C 1090.81 -2.01502 4.91498 0
M  V30 11155 C 1089.84 -1.38994 5.9611 0
M  V30 11156 N 1088.98 -2.41458 6.59274 0
M  V30 11157 H 1093.82 0.223066 2.97164 0
M  V30 11158 H 1091.36 0.121842 1.46595 0
M  V30 11159 H 1093.32 -2.18803 3.5522 0
M  V30 11160 H 1091.95 -2.14561 2.41171 0
M  V30 11161 H 1091 -0.163809 3.80047 0
M  V30 11162 H 1092.31 -0.433785 4.9691 0
M  V30 11163 H 1091.46 -2.74807 5.40894 0
M  V30 11164 H 1090.2 -2.5453 4.16012 0
M  V30 11165 H 1089.21 -0.642213 5.46036 0
M  V30 11166 H 1090.43 -0.867386 6.73538 0
M  V30 11167 H 1088.38 -2.93623 5.86619 0
M  V30 11168 H 1088.3 -1.96599 7.2999 0
M  V30 11169 H 1089.56 -3.14341 7.13309 0
M  V30 11170 N 1093.79 -1.57004 0.136909 0
M  V30 11171 C 1094.74 -2.16246 -0.806607 0
M  V30 11172 C 1095.71 -1.09246 -1.25118 0
M  V30 11173 O 1096.9 -1.3724 -1.32551 0
M  V30 11174 C 1094.04 -2.78031 -2.04433 0
M  V30 11175 C 1093.15 -3.99393 -1.64649 0
M  V30 11176 C 1092.28 -4.49208 -2.83524 0
M  V30 11177 C 1091.32 -5.63059 -2.40064 0
M  V30 11178 N 1090.46 -6.07537 -3.51913 0
M  V30 11179 H 1095.3 -2.9654 -0.294596 0
M  V30 11180 H 1092.84 -1.46491 -0.133705 0
M  V30 11181 H 1094.8 -3.11992 -2.76978 0
M  V30 11182 H 1093.43 -2.00398 -2.53062 0
M  V30 11183 H 1092.48 -3.71477 -0.819077 0
M  V30 11184 H 1093.79 -4.81904 -1.28723 0
M  V30 11185 H 1092.94 -4.85171 -3.64271 0
M  V30 11186 H 1091.68 -3.65683 -3.22688 0
M  V30 11187 H 1090.69 -5.26682 -1.57754 0
M  V30 11188 H 1091.91 -6.48362 -2.01997 0
M  V30 11189 H 1089.86 -5.2695 -3.90717 0
M  V30 11190 H 1089.78 -6.84949 -3.1997 0
M  V30 11191 H 1091.04 -6.48143 -4.33048 0
M  V30 11192 N 1095.27 0.136881 -1.57004 0
M  V30 11193 C 1096.5 0.866405 -1.88436 0
M  V30 11194 C 1096.92 1.73483 -0.727006 0
M  V30 11195 O 1096.28 1.78398 0.323094 0
M  V30 11196 C 1096.33 1.69059 -3.18514 0
M  V30 11197 O 1095.43 2.79584 -3.03161 0
M  V30 11198 H 1094.77 0.240709 -0.618834 0
M  V30 11199 H 1097.3 0.124653 -2.0422 0
M  V30 11200 H 1097.31 2.08353 -3.50789 0
M  V30 11201 H 1095.99 1.05296 -4.0235 0
M  V30 11202 H 1094.57 2.43623 -2.82315 0
M  V30 11203 N 1096.75 1.52266 0.40654 0
M  V30 11204 C 1097.7 1.75794 1.4955 0
M  V30 11205 C 1098.67 0.600472 1.54866 0
M  V30 11206 O 1099.85 0.838305 1.71397 0
M  V30 11207 C 1096.99 1.91682 2.86971 0
M  V30 11208 C 1096.11 3.19337 2.90943 0
M  V30 11209 C 1095.24 3.25641 4.1968 0
M  V30 11210 C 1094.28 4.47488 4.17637 0
M  V30 11211 N 1093.42 4.51171 5.37949 0
M  V30 11212 H 1098.26 2.68733 1.28789 0
M  V30 11213 H 1095.79 1.33157 0.625102 0
M  V30 11214 H 1097.75 1.98877 3.66748 0
M  V30 11215 H 1096.38 1.02121 3.06221 0
M  V30 11216 H 1095.43 3.21301 2.03642 0
M  V30 11217 H 1096.75 4.09153 2.85299 0
M  V30 11218 H 1095.9 3.31922 5.07851 0
M  V30 11219 H 1094.64 2.33769 4.28023 0
M  V30 11220 H 1093.64 4.41351 3.27856 0
M  V30 11221 H 1094.87 5.40659 4.10932 0
M  V30 11222 H 1092.81 3.62182 5.46955 0
M  V30 11223 H 1092.73 5.34835 5.3431 0
M  V30 11224 H 1094 4.61685 6.28066 0
M  V30 11225 N 1098.23 -0.663929 1.42933 0
M  V30 11226 C 1099.48 -1.42111 1.43697 0
M  V30 11227 C 1099.8 -1.94913 0.0583858 0
M  V30 11228 O 1099.07 -1.73757 -0.904719 0
M  V30 11229 H 1097.65 -0.527391 0.529026 0
M  V30 11230 H 1100.31 -0.783766 1.78446 0
M  V30 11231 H 1099.41 -2.26877 2.1432 0
M  V30 11232 N 1099.71 -1.29285 -0.901281 0
M  V30 11233 C 1100.94 -1.19874 -1.68267 0
M  V30 11234 C 1101.34 0.243387 -1.87628 0
M  V30 11235 O 1100.69 1.17497 -1.41209 0
M  V30 11236 C 1100.75 -1.83907 -3.08899 0
M  V30 11237 C 1100.41 -3.33198 -3.12775 0
M  V30 11238 C 1101.41 -4.29446 -2.9304 0
M  V30 11239 C 1099.1 -3.7437 -3.34892 0
M  V30 11240 C 1101.09 -5.64842 -2.95352 0
M  V30 11241 C 1098.78 -5.09888 -3.36834 0
M  V30 11242 C 1099.77 -6.04934 -3.17087 0
M  V30 11243 O 1099.46 -7.37979 -3.18815 0
M  V30 11244 H 1099.19 -0.416601 -0.532372 0
M  V30 11245 H 1101.75 -1.71154 -1.13558 0
M  V30 11246 H 1099.98 -1.27136 -3.65203 0
M  V30 11247 H 1101.67 -1.6884 -3.69118 0
M  V30 11248 H 1102.43 -3.9897 -2.75767 0
M  V30 11249 H 1098.31 -3.00846 -3.49303 0
M  V30 11250 H 1101.86 -6.39004 -2.79856 0
M  V30 11251 H 1097.75 -5.40009 -3.53638 0
M  V30 11252 H 1098.52 -7.46763 -3.35092 0
M  V30 11253 N 1101.18 1.11143 -1.11736 0
M  V30 11254 C 1102.41 1.86745 -0.890727 0
M  V30 11255 C 1102.83 1.80315 0.55964 0
M  V30 11256 O 1102.18 1.18663 1.38656 0
M  V30 11257 C 1102.24 3.35436 -1.34779 0
M  V30 11258 O 1101.96 3.41738 -2.74129 0
M  V30 11259 C 1103.46 4.27935 -1.15702 0
M  V30 11260 H 1100.68 0.59044 -0.318781 0
M  V30 11261 H 1103.22 1.40549 -1.48547 0
M  V30 11262 H 1101.38 3.79125 -0.796425 0
M  V30 11263 H 1101.79 4.34347 -2.94012 0
M  V30 11264 H 1103.26 5.30494 -1.52579 0
M  V30 11265 H 1103.74 4.39093 -0.0968735 0
M  V30 11266 H 1104.35 3.90042 -1.69551 0
M  V30 11267 N 1102.66 0.908147 1.28804 0
M  V30 11268 C 1103.94 0.457561 1.90173 0
M  V30 11269 C 1104.32 -1.06333 1.82364 0
M  V30 11270 O 1103.67 -1.90892 1.25589 0
M  V30 11271 C 1103.88 0.981624 3.34911 0
M  V30 11272 C 1105.23 1.03037 4.11908 0
M  V30 11273 O 1106.25 0.929878 3.43848 0
M  V30 11274 O 1105.11 1.18257 5.33552 0
M  V30 11275 H 1102.2 0.144081 0.814352 0
M  V30 11276 H 1104.75 0.998565 1.37211 0
M  V30 11277 H 1103.52 2.02561 3.34791 0
M  V30 11278 H 1103.14 0.421122 3.95364 0
M  V30 11279 N 1104.14 -1.42577 0.671525 0
M  V30 11280 C 1105.39 -2.01882 0.192716 0
M  V30 11281 C 1105.72 -1.52959 -1.19654 0
M  V30 11282 O 1104.99 -0.730404 -1.80265 0
M  V30 11283 C 1105.28 -3.59404 0.223734 0
M  V30 11284 C 1105.13 -4.18514 1.64821 0
M  V30 11285 C 1106.45 -4.37996 -0.429858 0
M  V30 11286 H 1103.57 -0.733523 0.0715026 0
M  V30 11287 H 1106.21 -1.69641 0.855689 0
M  V30 11288 H 1104.36 -3.87003 -0.340776 0
M  V30 11289 H 1106.03 -4.01881 2.26472 0
M  V30 11290 H 1104.28 -3.74467 2.1899 0
M  V30 11291 H 1104.95 -5.27643 1.62162 0
M  V30 11292 H 1107.42 -4.16069 0.0506433 0
M  V30 11293 H 1106.3 -5.476 -0.377503 0
M  V30 11294 H 1106.56 -4.15625 -1.50693 0
M  V30 11295 N 1105.62 -0.414636 -1.52048 0
M  V30 11296 C 1106.86 0.159585 -2.02171 0
M  V30 11297 C 1107.2 1.44321 -1.29943 0
M  V30 11298 O 1106.47 1.90185 -0.407402 0
M  V30 11299 C 1106.76 0.401655 -3.57853 0
M  V30 11300 C 1106.61 -0.899026 -4.40724 0
M  V30 11301 C 1107.93 1.1814 -4.23947 0
M  V30 11302 H 1105.05 0.0565257 -0.734829 0
M  V30 11303 H 1107.69 -0.549183 -1.8189 0
M  V30 11304 H 1105.84 1.00541 -3.75265 0
M  V30 11305 H 1107.51 -1.53502 -4.35011 0
M  V30 11306 H 1105.75 -1.50877 -4.06717 0
M  V30 11307 H 1106.42 -0.683974 -5.47746 0
M  V30 11308 H 1108.9 0.670203 -4.10667 0
M  V30 11309 H 1107.78 1.31953 -5.32804 0
M  V30 11310 H 1108.04 2.2035 -3.83273 0
M  V30 11311 N 1107.1 1.56929 -0.145233 0
M  V30 11312 C 1108.51 1.58196 0.211194 0
M  V30 11313 C 1108.71 1.15941 1.64803 0
M  V30 11314 O 1107.77 0.858888 2.37443 0
M  V30 11315 C 1109.08 3.00665 -0.0459569 0
M  V30 11316 C 1110.63 3.12995 0.0178913 0
M  V30 11317 C 1111.1 4.5751 -0.211905 0
M  V30 11318 N 1112.6 4.62928 -0.158772 0
M  V30 11319 C 1113.33 5.72555 -0.311111 0
M  V30 11320 N 1112.83 6.90838 -0.521074 0
M  V30 11321 N 1114.62 5.61549 -0.248838 0
M  V30 11322 H 1106.77 1.8269 -1.08342 0
M  V30 11323 H 1109.03 0.845514 -0.428731 0
M  V30 11324 H 1108.74 3.35962 -1.0403 0
M  V30 11325 H 1108.61 3.71125 0.674246 0
M  V30 11326 H 1111 2.7754 1.00278 0
M  V30 11327 H 1111.08 2.45025 -0.734612 0
M  V30 11328 H 1110.73 4.93669 -1.19389 0
M  V30 11329 H 1110.66 5.23604 0.560901 0
M  V30 11330 H 1113.15 3.779 -0.00107283 0
M  V30 11331 H 1113.46 7.70248 -0.62747 0
M  V30 11332 H 1111.8 6.92761 -0.557374 0
M  V30 11333 H 1115 4.68022 -0.0855821 0
M  V30 11334 H 1115.17 6.46937 -0.370997 0
M  V30 11335 N 1108.58 -0.128553 1.57075 0
M  V30 11336 C 1109.82 -0.836536 1.83535 0
M  V30 11337 C 1110.14 -1.81491 0.7294 0
M  V30 11338 O 1111.34 -2.56838 0.880128 0
M  V30 11339 C 1109.8 -1.53836 3.25365 0
M  V30 11340 C 1109.41 -0.601454 4.43944 0
M  V30 11341 C 1111.15 -2.23204 3.61082 0
M  V30 11342 C 1109.06 -1.30596 5.768 0
M  V30 11343 H 1107.99 -0.316142 0.684522 0
M  V30 11344 H 1110.64 -0.0892555 1.83283 0
M  V30 11345 H 1109.02 -2.33192 3.20058 0
M  V30 11346 H 1110.2 0.158209 4.60528 0
M  V30 11347 H 1108.51 -0.0152393 4.16397 0
M  V30 11348 H 1111.11 -2.76585 4.57608 0
M  V30 11349 H 1111.45 -3.0056 2.88044 0
M  V30 11350 H 1111.98 -1.50746 3.68131 0
M  V30 11351 H 1108.72 -0.573874 6.52983 0
M  V30 11352 H 1108.24 -2.03787 5.6412 0
M  V30 11353 H 1109.92 -1.8418 6.20231 0
M  V30 11354 N 1110.05 -1.5248 -0.398459 0
M  V30 11355 C 1111.46 -1.59107 -0.976817 0
M  V30 11356 C 1111.82 -0.438104 -1.91246 0
M  V30 11357 O 1110.94 0.440111 -2.11877 0
M  V30 11358 C 1111.54 -2.88373 -1.77838 0
M  V30 11359 C 1110.09 -2.97445 -2.30659 0
M  V30 11360 C 1109.24 -2.5414 -1.10942 0
M  V30 11361 H 1112.19 -1.57695 -0.178324 0
M  V30 11362 H 1112.21 -2.74327 -2.63676 0
M  V30 11363 H 1111.73 -3.72269 -1.09714 0
M  V30 11364 H 1109.83 -2.18066 -3.02123 0
M  V30 11365 H 1109.94 -4.019 -2.60794 0
M  V30 11366 H 1108.3 -2.08237 -1.46661 0
M  V30 11367 H 1109.09 -3.40421 -0.443684 0
M  V30 11368 N 1111.53 0.65634 -1.43283 0
M  V30 11369 C 1112.44 1.79847 -1.50639 0
M  V30 11370 C 1113.46 1.69487 -0.393714 0
M  V30 11371 O 1114.63 1.90712 -0.647379 0
M  V30 11372 C 1111.7 3.16107 -1.42398 0
M  V30 11373 C 1110.76 3.38287 -2.64312 0
M  V30 11374 C 1109.99 4.68046 -2.56454 0
M  V30 11375 O 1110.22 5.4719 -1.61056 0
M  V30 11376 O 1109.15 4.91877 -3.46902 0
M  V30 11377 H 1112.98 1.76596 -2.47078 0
M  V30 11378 H 1110.56 0.814428 -1.25249 0
M  V30 11379 H 1112.44 3.97382 -1.40233 0
M  V30 11380 H 1111.12 3.19956 -0.490929 0
M  V30 11381 H 1110.02 2.56788 -2.72049 0
M  V30 11382 H 1111.36 3.39282 -3.56579 0
M  V30 11383 N 1113.01 1.29761 0.894412 0
M  V30 11384 C 1114.26 1.17806 1.64214 0
M  V30 11385 C 1114.58 -0.269588 1.93127 0
M  V30 11386 O 1113.85 -1.18352 1.56107 0
M  V30 11387 H 1112.43 0.433002 0.608702 0
M  V30 11388 H 1115.09 1.6276 1.07216 0
M  V30 11389 H 1114.19 1.73201 2.5963 0
M  V30 11390 N 1114.49 -1.10549 1.12324 0
M  V30 11391 C 1115.45 -2.15039 0.793156 0
M  V30 11392 C 1116.45 -1.59651 -0.19192 0
M  V30 11393 O 1117.64 -1.74167 0.0337262 0
M  V30 11394 C 1114.77 -3.40433 0.17842 0
M  V30 11395 H 1115.97 -2.4575 1.71892 0
M  V30 11396 H 1113.52 -1.25892 0.926333 0
M  V30 11397 H 1114.25 -3.15338 -0.757122 0
M  V30 11398 H 1114.04 -3.81921 0.887645 0
M  V30 11399 H 1115.53 -4.17584 -0.0360724 0
M  V30 11400 N 1115.97 -0.914965 -1.28321 0
M  V30 11401 C 1117.19 -0.564654 -1.99046 0
M  V30 11402 C 1117.61 0.854345 -1.68364 0
M  V30 11403 O 1116.97 1.56605 -0.937068 0
M  V30 11404 C 1117.02 -0.765663 -3.53299 0
M  V30 11405 O 1116.74 -2.12883 -3.829 0
M  V30 11406 C 1118.24 -0.422347 -4.41283 0
M  V30 11407 H 1115.46 -0.215158 -0.635569 0
M  V30 11408 H 1118 -1.2285 -1.63487 0
M  V30 11409 H 1116.16 -0.148795 -3.87114 0
M  V30 11410 H 1116.57 -2.1694 -4.77533 0
M  V30 11411 H 1118.05 -0.613757 -5.48577 0
M  V30 11412 H 1118.52 0.641484 -4.3449 0
M  V30 11413 H 1119.13 -1.01681 -4.12966 0
M  V30 11414 N 1117.44 1.42219 -0.679077 0
M  V30 11415 C 1118.39 2.27992 0.0194379 0
M  V30 11416 C 1119.38 1.41317 0.769313 0
M  V30 11417 O 1120.57 1.64731 0.647521 0
M  V30 11418 C 1117.7 3.29401 0.966945 0
M  V30 11419 C 1116.78 4.23559 0.214187 0
M  V30 11420 N 1117.18 4.99699 -0.783226 0
M  V30 11421 C 1115.47 4.43703 0.452026 0
M  V30 11422 C 1116.17 5.68496 -1.23237 0
M  V30 11423 N 1115.15 5.40692 -0.561484 0
M  V30 11424 H 1118.95 2.84287 -0.745542 0
M  V30 11425 H 1116.47 1.54234 -0.508504 0
M  V30 11426 H 1118.46 3.89655 1.48238 0
M  V30 11427 H 1117.12 2.74667 1.7317 0
M  V30 11428 H 1118.13 5.04675 -1.16291 0
M  V30 11429 H 1114.81 4.00004 1.19595 0
M  V30 11430 H 1116.2 6.3957 -2.05912 0
M  V30 11431 N 1118.92 0.422693 1.51826 0
M  V30 11432 C 1120.17 -0.150066 2.01141 0
M  V30 11433 C 1120.48 -1.45059 1.31214 0
M  V30 11434 O 1121.69 -2.10542 1.71419 0
M  V30 11435 C 1120.15 -0.317985 3.58492 0
M  V30 11436 C 1119.75 0.971244 4.37345 0
M  V30 11437 C 1121.5 -0.845303 4.15999 0
M  V30 11438 C 1119.4 0.769769 5.86369 0
M  V30 11439 H 1118.33 -0.0598567 0.75162 0
M  V30 11440 H 1120.99 0.550217 1.75057 0
M  V30 11441 H 1119.37 -1.08092 3.80962 0
M  V30 11442 H 1120.54 1.74138 4.26629 0
M  V30 11443 H 1118.86 1.42599 3.91222 0
M  V30 11444 H 1121.45 -1.01229 5.2503 0
M  V30 11445 H 1121.8 -1.82375 3.74226 0
M  V30 11446 H 1122.33 -0.141067 3.9755 0
M  V30 11447 H 1119.07 1.72017 6.32527 0
M  V30 11448 H 1118.59 0.0391717 5.99787 0
M  V30 11449 H 1120.27 0.417225 6.45653 0
M  V30 11450 N 1120.4 -1.5685 0.153553 0
M  V30 11451 C 1121.35 -2.1709 -0.783626 0
M  V30 11452 C 1122.32 -1.10567 -1.23952 0
M  V30 11453 O 1123.5 -1.38638 -1.31088 0
M  V30 11454 C 1120.64 -2.80183 -2.01473 0
M  V30 11455 C 1119.75 -4.01117 -1.60403 0
M  V30 11456 C 1118.89 -4.5219 -2.78743 0
M  V30 11457 C 1117.93 -5.65574 -2.34079 0
M  V30 11458 N 1117.07 -6.11235 -3.4545 0
M  V30 11459 H 1121.91 -2.96836 -0.263127 0
M  V30 11460 H 1119.44 -1.46625 -0.11816 0
M  V30 11461 H 1121.4 -3.14912 -2.73654 0
M  V30 11462 H 1120.03 -2.03071 -2.50923 0
M  V30 11463 H 1119.08 -3.72325 -0.779631 0
M  V30 11464 H 1120.39 -4.83243 -1.23605 0
M  V30 11465 H 1119.55 -4.89008 -3.59105 0
M  V30 11466 H 1118.29 -3.69085 -3.18791 0
M  V30 11467 H 1117.29 -5.28326 -1.52158 0
M  V30 11468 H 1118.52 -6.50468 -1.95109 0
M  V30 11469 H 1116.46 -5.31064 -3.85106 0
M  V30 11470 H 1116.38 -6.88304 -3.12687 0
M  V30 11471 H 1117.65 -6.527 -4.26149 0
M  V30 11472 N 1121.88 0.120221 -1.57141 0
M  V30 11473 C 1123.12 0.829449 -1.85062 0
M  V30 11474 C 1123.46 1.79585 -0.739116 0
M  V30 11475 O 1122.73 1.92819 0.255147 0
M  V30 11476 C 1123.01 1.58042 -3.23566 0
M  V30 11477 C 1122.87 0.633706 -4.45314 0
M  V30 11478 C 1124.19 2.53688 -3.59625 0
M  V30 11479 H 1121.31 0.300086 -0.67314 0
M  V30 11480 H 1123.95 0.0937393 -1.89769 0
M  V30 11481 H 1122.1 2.20758 -3.19684 0
M  V30 11482 H 1123.77 0.0154836 -4.61297 0
M  V30 11483 H 1122.01 -0.054846 -4.33765 0
M  V30 11484 H 1122.68 1.19577 -5.38893 0
M  V30 11485 H 1125.16 2.01078 -3.6429 0
M  V30 11486 H 1124.04 3.03265 -4.57516 0
M  V30 11487 H 1124.3 3.36296 -2.8698 0
M  V30 11488 N 1123.36 1.52689 0.390367 0
M  V30 11489 C 1124.77 1.41909 0.730338 0
M  V30 11490 C 1124.97 0.538427 1.94173 0
M  V30 11491 O 1124.03 0.0113527 2.52497 0
M  V30 11492 C 1125.34 2.84737 0.966714 0
M  V30 11493 C 1126.89 2.94206 1.06827 0
M  V30 11494 C 1127.36 4.38042 1.33728 0
M  V30 11495 N 1128.86 4.4136 1.40553 0
M  V30 11496 C 1129.59 5.49735 1.63031 0
M  V30 11497 N 1129.09 6.68197 1.82988 0
M  V30 11498 N 1130.88 5.37276 1.65199 0
M  V30 11499 H 1123.03 2.08469 -0.406766 0
M  V30 11500 H 1125.29 0.940401 -0.11979 0
M  V30 11501 H 1125 3.51385 0.148725 0
M  V30 11502 H 1124.87 3.26909 1.88176 0
M  V30 11503 H 1127.26 2.27726 1.87683 0
M  V30 11504 H 1127.34 2.55463 0.131168 0
M  V30 11505 H 1126.99 5.05087 0.533832 0
M  V30 11506 H 1126.92 4.74336 2.28721 0
M  V30 11507 H 1129.41 3.55976 1.26844 0
M  V30 11508 H 1129.72 7.46567 1.99643 0
M  V30 11509 H 1128.06 6.71228 1.80215 0
M  V30 11510 H 1131.26 4.437 1.49158 0
M  V30 11511 H 1131.43 6.21806 1.82377 0
M  V30 11512 N 1124.83 -0.648732 1.43629 0
M  V30 11513 C 1125.77 -1.77417 1.45107 0
M  V30 11514 C 1126.78 -1.59067 0.346618 0
M  V30 11515 O 1127.97 -1.67705 0.611322 0
M  V30 11516 C 1125.07 -3.14906 1.25249 0
M  V30 11517 C 1124.24 -3.59874 2.48616 0
M  V30 11518 C 1123.3 -4.76181 2.23916 0
M  V30 11519 O 1122.33 -4.8539 2.97296 0
M  V30 11520 N 1123.53 -5.66691 1.25862 0
M  V30 11521 H 1126.29 -1.76626 2.42123 0
M  V30 11522 H 1123.85 -0.832725 1.38843 0
M  V30 11523 H 1125.85 -3.90408 1.06601 0
M  V30 11524 H 1124.42 -3.10443 0.366623 0
M  V30 11525 H 1123.64 -2.74768 2.82659 0
M  V30 11526 H 1124.92 -3.86665 3.30708 0
M  V30 11527 H 1124.32 -5.61927 0.652227 0
M  V30 11528 H 1122.88 -6.41895 1.13196 0
M  V30 11529 N 1126.31 -1.30234 -0.887518 0
M  V30 11530 C 1127.56 -1.1891 -1.6391 0
M  V30 11531 C 1127.89 0.256749 -1.92798 0
M  V30 11532 O 1127.14 1.20047 -1.54555 0
M  V30 11533 C 1127.44 -1.96046 -2.98832 0
M  V30 11534 C 1127.11 -3.45683 -2.89507 0
M  V30 11535 C 1125.77 -3.86489 -2.8667 0
M  V30 11536 C 1128.12 -4.40983 -2.7782 0
M  V30 11537 C 1125.45 -5.2089 -2.69982 0
M  V30 11538 C 1127.8 -5.75489 -2.6267 0
M  V30 11539 C 1126.47 -6.15537 -2.58207 0
M  V30 11540 H 1125.74 -0.435123 -0.599791 0
M  V30 11541 H 1128.38 -1.61308 -1.03209 0
M  V30 11542 H 1126.69 -1.46275 -3.6347 0
M  V30 11543 H 1128.38 -1.84678 -3.55942 0
M  V30 11544 H 1124.97 -3.13255 -2.92523 0
M  V30 11545 H 1129.16 -4.10401 -2.79079 0
M  V30 11546 H 1124.41 -5.51014 -2.6494 0
M  V30 11547 H 1128.59 -6.48973 -2.526 0
M  V30 11548 H 1126.22 -7.19627 -2.45034 0
M  V30 11549 N 1127.79 1.09952 -1.12909 0
M  V30 11550 C 1128.74 2.16436 -0.801514 0
M  V30 11551 C 1129.71 1.64444 0.233976 0
M  V30 11552 O 1130.89 1.90497 0.10743 0
M  V30 11553 C 1128.03 3.4406 -0.267753 0
M  V30 11554 C 1127.15 4.09979 -1.36165 0
M  V30 11555 C 1126.28 5.25341 -0.786803 0
M  V30 11556 C 1125.32 5.83172 -1.85948 0
M  V30 11557 N 1124.46 6.89904 -1.30298 0
M  V30 11558 H 1129.3 2.43799 -1.71365 0
M  V30 11559 H 1126.83 1.19665 -0.855499 0
M  V30 11560 H 1128.79 4.17157 0.0598031 0
M  V30 11561 H 1127.42 3.17031 0.607528 0
M  V30 11562 H 1126.47 3.34801 -1.8059 0
M  V30 11563 H 1127.79 4.48999 -2.17259 0
M  V30 11564 H 1126.94 6.05312 -0.410211 0
M  V30 11565 H 1125.68 4.87669 0.055279 0
M  V30 11566 H 1124.68 5.01867 -2.24521 0
M  V30 11567 H 1125.91 6.22907 -2.70487 0
M  V30 11568 H 1123.85 6.54221 -0.482806 0
M  V30 11569 H 1123.77 7.27662 -2.05046 0
M  V30 11570 H 1125.04 7.73643 -0.953779 0
M  V30 11571 N 1129.27 0.921757 1.27833 0
M  V30 11572 C 1130.23 0.420978 2.25301 0
M  V30 11573 C 1131.23 -0.457158 1.54165 0
M  V30 11574 O 1132.42 -0.259079 1.72263 0
M  V30 11575 C 1129.55 -0.395501 3.38598 0
M  V30 11576 H 1130.75 1.28206 2.71115 0
M  V30 11577 H 1128.3 0.701893 1.39654 0
M  V30 11578 H 1129.03 -1.27565 2.98157 0
M  V30 11579 H 1128.82 0.234029 3.91401 0
M  V30 11580 H 1130.31 -0.736444 4.11055 0
M  V30 11581 N 1130.75 -1.41857 0.686609 0
M  V30 11582 C 1131.69 -2.30795 0.015643 0
M  V30 11583 C 1132.66 -1.46616 -0.780569 0
M  V30 11584 O 1133.85 -1.75423 -0.750424 0
M  V30 11585 C 1130.99 -3.32577 -0.921229 0
M  V30 11586 C 1130.1 -4.3184 -0.117585 0
M  V30 11587 C 1129.24 -5.20693 -1.05128 0
M  V30 11588 C 1128.28 -6.11629 -0.240018 0
M  V30 11589 N 1127.41 -6.92995 -1.12704 0
M  V30 11590 H 1132.25 -2.87615 0.77985 0
M  V30 11591 H 1129.79 -1.41661 0.396298 0
M  V30 11592 H 1131.75 -3.90129 -1.47836 0
M  V30 11593 H 1130.38 -2.77328 -1.65193 0
M  V30 11594 H 1129.43 -3.7631 0.55634 0
M  V30 11595 H 1130.74 -4.96168 0.511753 0
M  V30 11596 H 1129.9 -5.83035 -1.67795 0
M  V30 11597 H 1128.63 -4.5657 -1.71449 0
M  V30 11598 H 1127.64 -5.48345 0.399779 0
M  V30 11599 H 1128.86 -6.77805 0.419266 0
M  V30 11600 H 1126.81 -6.31489 -1.77644 0
M  V30 11601 H 1126.73 -7.53974 -0.553065 0
M  V30 11602 H 1128 -7.59813 -1.7408 0
M  V30 11603 N 1132.22 -0.430739 -1.51599 0
M  V30 11604 C 1133.5 0.197543 -1.946 0
M  V30 11605 C 1133.88 1.6069 -1.36901 0
M  V30 11606 O 1133.23 2.21697 -0.553422 0
M  V30 11607 C 1133.44 0.181976 -3.48525 0
M  V30 11608 C 1134.79 0.390783 -4.22798 0
M  V30 11609 O 1135.81 0.260384 -3.55247 0
M  V30 11610 O 1134.67 0.649701 -5.42624 0
M  V30 11611 H 1131.76 0.133524 -0.81615 0
M  V30 11612 H 1134.31 -0.488243 -1.62525 0
M  V30 11613 H 1133.08 -0.803584 -3.8296 0
M  V30 11614 H 1132.71 0.910952 -3.87024 0
M  V30 11615 N 1133.7 1.56767 -0.161869 0
M  V30 11616 C 1134.63 2.1466 0.803356 0
M  V30 11617 C 1135.65 1.09977 1.20037 0
M  V30 11618 O 1136.84 1.37199 1.14187 0
M  V30 11619 C 1133.94 2.66663 2.09151 0
M  V30 11620 C 1133.11 3.95904 1.85953 0
M  V30 11621 C 1132.17 4.33067 2.98897 0
M  V30 11622 O 1131.19 5.01119 2.69942 0
M  V30 11623 N 1132.4 3.93856 4.26448 0
M  V30 11624 H 1135.16 2.98108 0.308472 0
M  V30 11625 H 1132.72 1.61886 0.0212238 0
M  V30 11626 H 1134.71 2.88528 2.83784 0
M  V30 11627 H 1133.28 1.87856 2.49857 0
M  V30 11628 H 1132.5 3.82513 0.952751 0
M  V30 11629 H 1133.79 4.8033 1.67811 0
M  V30 11630 H 1133.19 3.39051 4.52836 0
M  V30 11631 H 1131.75 4.20741 4.97815 0
M  V30 11632 N 1135.18 -0.111886 1.57202 0
M  V30 11633 C 1136.41 -0.832407 1.89416 0
M  V30 11634 C 1136.82 -1.73096 0.753861 0
M  V30 11635 O 1136.18 -1.80416 -0.274992 0
M  V30 11636 C 1136.23 -1.65988 3.21139 0
M  V30 11637 O 1135.95 -0.797485 4.3078 0
M  V30 11638 C 1137.45 -2.48493 3.67105 0
M  V30 11639 H 1134.67 -0.238919 0.627024 0
M  V30 11640 H 1137.22 -0.0941456 2.04283 0
M  V30 11641 H 1135.37 -2.35082 3.07921 0
M  V30 11642 H 1135.79 -1.36892 5.06321 0
M  V30 11643 H 1137.26 -3.02072 4.62014 0
M  V30 11644 H 1137.74 -3.26182 2.94112 0
M  V30 11645 H 1138.34 -1.84628 3.83135 0
M  V30 11646 N 1136.66 -1.52894 -0.382264 0
M  V30 11647 C 1138.07 -1.42295 -0.722802 0
M  V30 11648 C 1138.27 -0.548717 -1.93885 0
M  V30 11649 O 1137.33 -0.0247431 -2.52488 0
M  V30 11650 C 1138.64 -2.85246 -0.9516 0
M  V30 11651 C 1140.19 -2.94768 -1.05265 0
M  V30 11652 C 1140.67 -4.38745 -1.31404 0
M  V30 11653 N 1142.16 -4.421 -1.38211 0
M  V30 11654 C 1142.89 -5.50592 -1.60113 0
M  V30 11655 N 1142.39 -6.69158 -1.79442 0
M  V30 11656 N 1144.18 -5.38145 -1.62347 0
M  V30 11657 H 1136.33 -2.0825 0.417816 0
M  V30 11658 H 1138.6 -0.939753 0.124776 0
M  V30 11659 H 1138.3 -3.51459 -0.130088 0
M  V30 11660 H 1138.18 -3.27903 -1.86439 0
M  V30 11661 H 1140.56 -2.28718 -1.86472 0
M  V30 11662 H 1140.64 -2.55529 -0.117619 0
M  V30 11663 H 1140.29 -5.05363 -0.507038 0
M  V30 11664 H 1140.22 -4.75542 -2.26202 0
M  V30 11665 H 1142.71 -3.56644 -1.24954 0
M  V30 11666 H 1143.02 -7.47615 -1.95681 0
M  V30 11667 H 1141.37 -6.72175 -1.76653 0
M  V30 11668 H 1144.56 -4.44485 -1.46803 0
M  V30 11669 H 1144.73 -6.22764 -1.79077 0
M  V30 11670 N 1138.14 0.641106 -1.43971 0
M  V30 11671 C 1139.38 1.40084 -1.46228 0
M  V30 11672 C 1139.71 1.94287 -0.0911011 0
M  V30 11673 O 1138.97 1.73481 0.905688 0
M  V30 11674 C 1139.27 2.59092 -2.46183 0
M  V30 11675 C 1138.93 2.23237 -3.9176 0
M  V30 11676 C 1137.59 2.13171 -4.31407 0
M  V30 11677 C 1139.95 1.94746 -4.83449 0
M  V30 11678 C 1137.27 1.72788 -5.60679 0
M  V30 11679 C 1139.63 1.55858 -6.13099 0
M  V30 11680 C 1138.29 1.44326 -6.5171 0
M  V30 11681 H 1137.56 0.512603 -0.535088 0
M  V30 11682 H 1140.21 0.727956 -1.77124 0
M  V30 11683 H 1138.51 3.31568 -2.08734 0
M  V30 11684 H 1140.21 3.17313 -2.4518 0
M  V30 11685 H 1136.8 2.31986 -3.60389 0
M  V30 11686 H 1140.98 2.01438 -4.53582 0
M  V30 11687 H 1136.24 1.62455 -5.89422 0
M  V30 11688 H 1140.41 1.32848 -6.83611 0
M  V30 11689 H 1138.04 1.12806 -7.51784 0
M  V30 11690 N 1139.62 1.30703 0.880598 0
M  V30 11691 C 1140.84 1.22714 1.6658 0
M  V30 11692 C 1141.26 -0.209303 1.87636 0
M  V30 11693 O 1140.62 -1.13771 1.42697 0
M  V30 11694 C 1140.67 1.95659 3.03974 0
M  V30 11695 O 1140.39 3.33695 2.83865 0
M  V30 11696 C 1141.89 1.9438 3.98411 0
M  V30 11697 H 1139.11 0.424478 0.519673 0
M  V30 11698 H 1141.65 1.72402 1.0999 0
M  V30 11699 H 1139.81 1.49758 3.57283 0
M  V30 11700 H 1140.22 3.70697 3.71058 0
M  V30 11701 H 1141.7 2.4995 4.92168 0
M  V30 11702 H 1142.17 0.923767 4.29375 0
M  V30 11703 H 1142.78 2.40112 3.51036 0
M  V30 11704 N 1141.09 -1.09351 1.1349 0
M  V30 11705 C 1142.06 -2.14185 0.815919 0
M  V30 11706 C 1143.06 -1.59845 -0.174976 0
M  V30 11707 O 1144.25 -1.74122 0.0521971 0
M  V30 11708 C 1141.38 -3.40224 0.214517 0
M  V30 11709 H 1142.57 -2.43913 1.74489 0
M  V30 11710 H 1140.12 -1.24902 0.939634 0
M  V30 11711 H 1140.86 -3.16123 -0.723634 0
M  V30 11712 H 1140.64 -3.80958 0.928102 0
M  V30 11713 H 1142.13 -4.17599 0.00821999 0
M  V30 11714 N 1142.57 -0.928524 -1.27343 0
M  V30 11715 C 1143.8 -0.584884 -1.98148 0
M  V30 11716 C 1144.21 0.841603 -1.69451 0
M  V30 11717 O 1143.55 1.57104 -0.952053 0
M  V30 11718 C 1143.61 -0.731911 -3.51971 0
M  V30 11719 C 1143.28 -2.13067 -4.04291 0
M  V30 11720 C 1144.28 -3.10492 -4.17002 0
M  V30 11721 C 1141.96 -2.44784 -4.38619 0
M  V30 11722 C 1143.95 -4.37742 -4.63315 0
M  V30 11723 C 1141.64 -3.72269 -4.84622 0
M  V30 11724 C 1142.64 -4.68562 -4.9693 0
M  V30 11725 O 1142.33 -5.93779 -5.41924 0
M  V30 11726 H 1142.06 -0.220347 -0.63908 0
M  V30 11727 H 1144.61 -1.24799 -1.63139 0
M  V30 11728 H 1142.84 -0.0116966 -3.86698 0
M  V30 11729 H 1144.53 -0.393206 -4.03991 0
M  V30 11730 H 1145.3 -2.8731 -3.9074 0
M  V30 11731 H 1141.18 -1.70577 -4.28281 0
M  V30 11732 H 1144.72 -5.12905 -4.72836 0
M  V30 11733 H 1140.62 -3.95269 -5.10326 0
M  V30 11734 H 1141.39 -5.96779 -5.60176 0
M  V30 11735 N 1144.05 1.41491 -0.694123 0
M  V30 11736 C 1144.98 2.33462 -0.0422169 0
M  V30 11737 C 1145.96 1.51739 0.76872 0
M  V30 11738 O 1147.15 1.8028 0.721985 0
M  V30 11739 C 1144.28 3.35545 0.895925 0
M  V30 11740 C 1143.23 4.27568 0.192188 0
M  V30 11741 C 1142.56 5.20014 1.24459 0
M  V30 11742 C 1143.86 5.1376 -0.940626 0
M  V30 11743 H 1145.55 2.88225 -0.810363 0
M  V30 11744 H 1143.1 1.38586 -0.39114 0
M  V30 11745 H 1145.05 3.9881 1.36121 0
M  V30 11746 H 1143.77 2.79129 1.69572 0
M  V30 11747 H 1142.43 3.65726 -0.25305 0
M  V30 11748 H 1142.08 4.59913 2.03687 0
M  V30 11749 H 1141.78 5.82417 0.778734 0
M  V30 11750 H 1143.3 5.86155 1.71041 0
M  V30 11751 H 1144.72 5.70601 -0.555692 0
M  V30 11752 H 1143.11 5.85097 -1.33349 0
M  V30 11753 H 1144.18 4.51011 -1.78093 0
M  V30 11754 N 1145.53 0.438773 1.51369 0
M  V30 11755 C 1146.49 -0.36032 2.2635 0
M  V30 11756 C 1147.49 -0.948465 1.29849 0
M  V30 11757 O 1148.68 -0.822692 1.53549 0
M  V30 11758 C 1145.81 -1.50994 3.05636 0
M  V30 11759 H 1147.01 0.296826 2.98427 0
M  V30 11760 H 1144.56 0.191978 1.55117 0
M  V30 11761 H 1145.29 -2.2031 2.37979 0
M  V30 11762 H 1145.08 -1.09437 3.76518 0
M  V30 11763 H 1146.57 -2.07447 3.6243 0
M  V30 11764 N 1147.01 -1.56678 0.170181 0
M  V30 11765 C 1147.94 -2.20916 -0.756213 0
M  V30 11766 C 1148.92 -1.16442 -1.23997 0
M  V30 11767 O 1150.1 -1.44867 -1.29333 0
M  V30 11768 C 1147.23 -2.84901 -1.98617 0
M  V30 11769 C 1146.19 -3.95403 -1.63831 0
M  V30 11770 C 1145.51 -4.46432 -2.94282 0
M  V30 11771 C 1146.81 -5.15051 -0.867195 0
M  V30 11772 H 1148.51 -2.98585 -0.220776 0
M  V30 11773 H 1146.05 -1.43619 -0.104748 0
M  V30 11774 H 1148 -3.28514 -2.63926 0
M  V30 11775 H 1146.73 -2.04598 -2.54572 0
M  V30 11776 H 1145.39 -3.52444 -1.00891 0
M  V30 11777 H 1145.04 -3.62923 -3.48276 0
M  V30 11778 H 1144.74 -5.20979 -2.71762 0
M  V30 11779 H 1146.26 -4.92731 -3.60622 0
M  V30 11780 H 1147.67 -5.55363 -1.42285 0
M  V30 11781 H 1146.07 -5.95507 -0.741065 0
M  V30 11782 H 1147.14 -4.84707 0.136693 0
M  V30 11783 N 1148.48 0.103547 -1.57259 0
M  V30 11784 C 1149.43 1.12621 -2.01458 0
M  V30 11785 C 1150.4 1.40282 -0.889391 0
M  V30 11786 O 1151.59 1.51887 -1.15477 0
M  V30 11787 C 1148.73 2.44352 -2.43692 0
M  V30 11788 C 1147.84 2.23495 -3.69695 0
M  V30 11789 C 1146.97 3.48565 -4.00844 0
M  V30 11790 C 1146.01 3.22932 -5.19982 0
M  V30 11791 N 1145.15 4.40246 -5.46926 0
M  V30 11792 H 1149.99 0.742315 -2.88606 0
M  V30 11793 H 1147.53 0.355016 -1.42752 0
M  V30 11794 H 1149.48 3.2122 -2.66221 0
M  V30 11795 H 1148.11 2.80605 -1.59565 0
M  V30 11796 H 1147.17 1.3747 -3.54692 0
M  V30 11797 H 1148.48 2.0054 -4.56711 0
M  V30 11798 H 1147.63 4.33844 -4.24104 0
M  V30 11799 H 1146.37 3.74565 -3.12333 0
M  V30 11800 H 1145.38 2.36045 -4.96551 0
M  V30 11801 H 1146.6 2.98286 -6.10084 0
M  V30 11802 H 1144.55 4.66338 -4.61373 0
M  V30 11803 H 1144.46 4.20452 -6.28296 0
M  V30 11804 H 1145.73 5.26614 -5.74716 0
M  V30 11805 N 1149.96 1.53094 0.37415 0
M  V30 11806 C 1150.91 1.78927 1.45787 0
M  V30 11807 C 1151.88 0.633187 1.53558 0
M  V30 11808 O 1153.06 0.874472 1.69581 0
M  V30 11809 C 1150.2 1.97726 2.8284 0
M  V30 11810 C 1149.32 3.25436 2.84104 0
M  V30 11811 C 1148.45 3.3447 4.12678 0
M  V30 11812 C 1147.49 4.56246 4.08051 0
M  V30 11813 N 1146.63 4.6248 5.28258 0
M  V30 11814 H 1151.47 2.71404 1.2306 0
M  V30 11815 H 1149 1.34453 0.596716 0
M  V30 11816 H 1150.96 2.06611 3.62447 0
M  V30 11817 H 1149.59 1.08593 3.03986 0
M  V30 11818 H 1148.64 3.25548 1.96781 0
M  V30 11819 H 1149.96 4.15112 2.76556 0
M  V30 11820 H 1149.11 3.4262 5.00696 0
M  V30 11821 H 1147.85 2.42795 4.22968 0
M  V30 11822 H 1146.85 4.48206 3.1842 0
M  V30 11823 H 1148.08 5.49254 3.99371 0
M  V30 11824 H 1146.03 3.73703 5.3915 0
M  V30 11825 H 1145.94 5.46049 5.22845 0
M  V30 11826 H 1147.21 4.74903 6.18132 0
M  V30 11827 N 1151.44 -0.633461 1.44309 0
M  V30 11828 C 1152.39 -1.74554 1.50995 0
M  V30 11829 C 1153.36 -1.62199 0.357873 0
M  V30 11830 O 1154.54 -1.82156 0.567787 0
M  V30 11831 C 1151.68 -3.12792 1.45791 0
M  V30 11832 C 1150.79 -3.3614 2.71356 0
M  V30 11833 C 1149.93 -4.64337 2.58002 0
M  V30 11834 C 1148.97 -4.80855 3.78741 0
M  V30 11835 N 1148.11 -6.00327 3.64077 0
M  V30 11836 H 1152.95 -1.68174 2.46011 0
M  V30 11837 H 1150.48 -0.820407 1.22097 0
M  V30 11838 H 1152.44 -3.92735 1.40765 0
M  V30 11839 H 1151.07 -3.18193 0.543445 0
M  V30 11840 H 1150.12 -2.50154 2.86579 0
M  V30 11841 H 1151.43 -3.44226 3.60985 0
M  V30 11842 H 1150.59 -5.52437 2.50795 0
M  V30 11843 H 1149.33 -4.58605 1.65929 0
M  V30 11844 H 1148.33 -3.91185 3.86334 0
M  V30 11845 H 1149.56 -4.88403 4.71847 0
M  V30 11846 H 1147.5 -5.9569 2.74754 0
M  V30 11847 H 1147.42 -6.09459 4.47321 0
M  V30 11848 H 1148.69 -6.90995 3.60758 0
M  V30 11849 N 1152.92 -1.31168 -0.873655 0
M  V30 11850 C 1153.87 -1.18432 -2.00191 0
M  V30 11851 C 1154.86 -0.0934873 -1.69142 0
M  V30 11852 O 1156.07 -0.255126 -1.78183 0
M  V30 11853 H 1152.44 -0.366594 -0.656592 0
M  V30 11854 H 1154.41 -2.13896 -2.08065 0
M  V30 11855 C 1153.16 -0.904668 -3.35725 0
M  V30 11856 H 1152.48 -1.73617 -3.60135 0
M  V30 11857 H 1153.92 -0.855715 -4.15275 0
M  V30 11858 C 1152.38 0.392554 -3.34605 0
M  V30 11859 O 1152.91 1.41052 -3.76121 0
M  V30 11860 N 1151.12 0.40777 -2.87725 0
M  V30 11861 H 1150.67 -0.42112 -2.54134 0
M  V30 11862 H 1150.62 1.27564 -2.87358 0
M  V30 11863 N 1154.4 1.08748 -1.14068 0
M  V30 11864 C 1155.64 1.80707 -0.904947 0
M  V30 11865 C 1155.97 1.86478 0.570167 0
M  V30 11866 O 1155.24 1.35536 1.41445 0
M  V30 11867 H 1153.82 0.669261 -0.331811 0
M  V30 11868 H 1156.48 1.31494 -1.43859 0
M  V30 11869 H 1155.57 2.83653 -1.30182 0
M  V30 11870 N 1155.87 0.935264 1.26849 0
M  V30 11871 C 1156.78 0.446122 2.30319 0
M  V30 11872 C 1157.8 -0.476965 1.67335 0
M  V30 11873 O 1158.98 -0.357934 1.98194 0
M  V30 11874 C 1156.04 -0.286297 3.45516 0
M  V30 11875 C 1155.1 0.672626 4.23998 0
M  V30 11876 C 1154.34 -0.0249345 5.33694 0
M  V30 11877 O 1154.56 -1.24296 5.56693 0
M  V30 11878 O 1153.49 0.650752 5.98372 0
M  V30 11879 H 1157.32 1.30546 2.74211 0
M  V30 11880 H 1154.9 0.70091 1.31938 0
M  V30 11881 H 1156.79 -0.699109 4.1556 0
M  V30 11882 H 1155.46 -1.12112 3.03665 0
M  V30 11883 H 1154.37 1.13527 3.56458 0
M  V30 11884 H 1155.7 1.47489 4.69583 0
M  V30 11885 N 1157.35 -1.41121 0.701616 0
M  V30 11886 C 1158.58 -2.05154 0.244011 0
M  V30 11887 C 1158.99 -1.52922 -1.11407 0
M  V30 11888 O 1158.33 -0.67486 -1.70855 0
M  V30 11889 C 1158.4 -3.59262 0.130773 0
M  V30 11890 C 1158.06 -4.34318 1.42187 0
M  V30 11891 C 1159.06 -4.632 2.36097 0
M  V30 11892 C 1156.74 -4.73481 1.67693 0
M  V30 11893 C 1158.74 -5.30214 3.53768 0
M  V30 11894 C 1156.42 -5.4023 2.85648 0
M  V30 11895 C 1157.42 -5.68524 3.78509 0
M  V30 11896 O 1157.11 -6.33898 4.94397 0
M  V30 11897 H 1156.84 -0.666997 0.109957 0
M  V30 11898 H 1159.39 -1.81771 0.956473 0
M  V30 11899 H 1157.62 -3.81409 -0.637512 0
M  V30 11900 H 1159.31 -4.0486 -0.29044 0
M  V30 11901 H 1160.08 -4.3342 2.17652 0
M  V30 11902 H 1155.96 -4.50835 0.962733 0
M  V30 11903 H 1159.5 -5.52215 4.26267 0
M  V30 11904 H 1155.4 -5.69429 3.04008 0
M  V30 11905 H 1156.17 -6.52394 4.94292 0
M  V30 11906 N 1158.83 -0.446794 -1.51134 0
M  V30 11907 C 1159.76 0.350229 -2.30858 0
M  V30 11908 C 1160.74 1.0125 -1.36684 0
M  V30 11909 O 1161.93 1.01433 -1.65605 0
M  V30 11910 C 1159.06 1.4464 -3.15748 0
M  V30 11911 C 1158.01 0.907102 -4.18277 0
M  V30 11912 C 1157.34 2.09974 -4.91747 0
M  V30 11913 C 1158.64 -0.0649758 -5.2226 0
M  V30 11914 H 1160.33 -0.315105 -2.97737 0
M  V30 11915 H 1157.88 -0.152985 -1.43185 0
M  V30 11916 H 1159.83 2.01127 -3.70305 0
M  V30 11917 H 1158.55 2.14016 -2.46708 0
M  V30 11918 H 1157.21 0.364382 -3.64785 0
M  V30 11919 H 1156.86 2.77991 -4.19202 0
M  V30 11920 H 1156.56 1.74523 -5.61084 0
M  V30 11921 H 1158.08 2.66996 -5.49131 0
M  V30 11922 H 1159.5 0.4099 -5.71833 0
M  V30 11923 H 1157.9 -0.332529 -5.99178 0
M  V30 11924 H 1158.97 -0.998681 -4.74504 0
M  V30 11925 N 1160.31 1.56586 -0.178487 0
M  V30 11926 C 1161.56 1.96273 0.464745 0
M  V30 11927 C 1161.87 1.0675 1.63902 0
M  V30 11928 O 1163.08 1.36148 2.34896 0
M  V30 11929 C 1161.53 3.49021 0.878207 0
M  V30 11930 C 1161.14 4.4718 -0.270861 0
M  V30 11931 C 1162.88 3.97512 1.48946 0
M  V30 11932 C 1160.79 5.91176 0.162632 0
M  V30 11933 H 1159.72 0.732834 0.177398 0
M  V30 11934 H 1162.37 1.81534 -0.267861 0
M  V30 11935 H 1160.75 3.59203 1.667 0
M  V30 11936 H 1161.93 4.48718 -1.04826 0
M  V30 11937 H 1160.24 4.08788 -0.792529 0
M  V30 11938 H 1162.84 5.02556 1.82595 0
M  V30 11939 H 1163.18 3.40861 2.38997 0
M  V30 11940 H 1163.72 3.90376 0.76496 0
M  V30 11941 H 1160.46 6.51716 -0.703286 0
M  V30 11942 H 1159.98 5.9293 0.905243 0
M  V30 11943 H 1161.65 6.44174 0.604084 0
M  V30 11944 N 1161.79 -0.095206 1.57312 0
M  V30 11945 C 1162.73 -1.13438 2.03063 0
M  V30 11946 C 1163.73 -1.41478 0.931679 0
M  V30 11947 O 1164.93 -1.41161 1.11686 0
M  V30 11948 H 1161.31 -0.383042 0.647134 0
M  V30 11949 H 1163.28 -0.722186 2.89529 0
M  V30 11950 C 1162.03 -2.44641 2.47075 0
M  V30 11951 H 1161.35 -2.23908 3.31218 0
M  V30 11952 H 1162.79 -3.15855 2.82863 0
M  V30 11953 C 1161.25 -3.08931 1.34399 0
M  V30 11954 O 1161.78 -3.96021 0.673071 0
M  V30 11955 N 1159.99 -2.6918 1.09501 0
M  V30 11956 H 1159.53 -1.98451 1.6424 0
M  V30 11957 H 1159.49 -3.12522 0.34311 0
M  V30 11958 N 1163.26 -1.53291 -0.366026 0
M  V30 11959 C 1164.51 -1.69117 -1.10653 0
M  V30 11960 C 1164.83 -0.445327 -1.89847 0
M  V30 11961 O 1164.1 0.540616 -1.88293 0
M  V30 11962 H 1162.68 -0.623446 -0.41149 0
M  V30 11963 H 1165.35 -1.90479 -0.412749 0
M  V30 11964 H 1164.44 -2.55205 -1.79658 0
M  V30 11965 N 1164.74 0.6258 -1.44643 0
M  V30 11966 C 1165.69 1.73751 -1.51919 0
M  V30 11967 C 1166.66 1.62007 -0.36647 0
M  V30 11968 O 1167.84 1.81852 -0.577439 0
M  V30 11969 C 1164.98 3.12015 -1.47448 0
M  V30 11970 C 1164.1 3.34696 -2.73135 0
M  V30 11971 C 1163.23 4.62962 -2.6046 0
M  V30 11972 C 1162.27 4.7884 -3.81286 0
M  V30 11973 N 1161.41 5.98388 -3.67255 0
M  V30 11974 H 1166.25 1.66867 -2.46899 0
M  V30 11975 H 1163.79 0.813921 -1.22531 0
M  V30 11976 H 1165.74 3.91983 -1.42846 0
M  V30 11977 H 1164.37 3.179 -0.560312 0
M  V30 11978 H 1163.43 2.4863 -2.87901 0
M  V30 11979 H 1164.74 3.42306 -3.62806 0
M  V30 11980 H 1163.89 5.51099 -2.53722 0
M  V30 11981 H 1162.63 4.57719 -1.68359 0
M  V30 11982 H 1161.64 3.89131 -3.88403 0
M  V30 11983 H 1162.86 4.85893 -4.74431 0
M  V30 11984 H 1160.81 5.94224 -2.77909 0
M  V30 11985 H 1160.72 6.07078 -4.50547 0
M  V30 11986 H 1161.99 6.89072 -3.64417 0
M  V30 11987 N 1166.22 1.31629 0.866686 0
M  V30 11988 C 1167.45 1.24293 1.6503 0
M  V30 11989 C 1167.86 -0.193556 1.88207 0
M  V30 11990 O 1167.2 -1.13712 1.44275 0
M  V30 11991 C 1167.26 1.92032 3.03914 0
M  V30 11992 C 1166.93 3.41373 3.03831 0
M  V30 11993 C 1167.92 4.37064 2.81551 0
M  V30 11994 C 1165.61 3.83118 3.24848 0
M  V30 11995 C 1167.6 5.72474 2.80272 0
M  V30 11996 C 1165.29 5.18639 3.23197 0
M  V30 11997 C 1166.29 6.13128 3.00936 0
M  V30 11998 O 1165.98 7.46172 2.99137 0
M  V30 11999 H 1165.71 0.430569 0.521139 0
M  V30 12000 H 1168.26 1.74105 1.0898 0
M  V30 12001 H 1166.49 1.36774 3.61704 0
M  V30 12002 H 1168.18 1.78567 3.64512 0
M  V30 12003 H 1168.95 4.06142 2.65093 0
M  V30 12004 H 1164.83 3.10001 3.41204 0
M  V30 12005 H 1168.37 6.46199 2.62816 0
M  V30 12006 H 1164.27 5.49196 3.39197 0
M  V30 12007 H 1165.04 7.55385 3.15175 0
M  V30 12008 N 1167.7 -1.08142 1.14644 0
M  V30 12009 C 1168.63 -2.14476 0.779437 0
M  V30 12010 C 1169.61 -1.60812 -0.240454 0
M  V30 12011 O 1170.79 -1.88059 -0.128881 0
M  V30 12012 C 1167.92 -3.38333 0.157692 0
M  V30 12013 C 1166.97 -4.10754 1.14819 0
M  V30 12014 S 1167.8 -4.63227 2.68666 0
M  V30 12015 C 1168.96 -5.90367 2.07888 0
M  V30 12016 H 1169.19 -2.45276 1.68009 0
M  V30 12017 H 1166.72 -1.20292 0.967942 0
M  V30 12018 H 1168.68 -4.10038 -0.194607 0
M  V30 12019 H 1167.34 -3.05726 -0.720435 0
M  V30 12020 H 1166.53 -4.99644 0.661226 0
M  V30 12021 H 1166.14 -3.44974 1.44462 0
M  V30 12022 H 1168.43 -6.62107 1.43599 0
M  V30 12023 H 1169.37 -6.43764 2.94913 0
M  V30 12024 H 1169.78 -5.43507 1.52514 0
M  V30 12025 N 1169.18 -0.941978 -1.26351 0
M  V30 12026 C 1170.43 -0.585711 -1.93009 0
M  V30 12027 C 1170.74 0.879507 -1.74711 0
M  V30 12028 O 1171.95 1.34518 -2.35833 0
M  V30 12029 C 1170.4 -0.996787 -3.45821 0
M  V30 12030 C 1170.01 -2.48367 -3.72851 0
M  V30 12031 C 1171.75 -0.712452 -4.18479 0
M  V30 12032 C 1169.66 -2.83341 -5.19107 0
M  V30 12033 H 1168.59 -0.215342 -0.722595 0
M  V30 12034 H 1171.24 -1.14472 -1.43417 0
M  V30 12035 H 1169.62 -0.366295 -3.94302 0
M  V30 12036 H 1170.8 -3.16328 -3.35072 0
M  V30 12037 H 1169.11 -2.74139 -3.13427 0
M  V30 12038 H 1171.71 -0.95007 -5.26192 0
M  V30 12039 H 1172.05 0.350811 -4.14819 0
M  V30 12040 H 1172.59 -1.3027 -3.75865 0
M  V30 12041 H 1169.32 -3.88633 -5.27868 0
M  V30 12042 H 1168.84 -2.20043 -5.5798 0
M  V30 12043 H 1170.52 -2.71849 -5.87118 0
M  V30 12044 N 1170.66 1.40747 -0.709091 0
M  V30 12045 C 1171.88 2.05841 -0.253816 0
M  V30 12046 C 1172.31 1.53056 1.09341 0
M  V30 12047 O 1171.66 0.663181 1.68735 0
M  V30 12048 C 1171.71 3.59822 -0.236699 0
M  V30 12049 O 1170.82 4.04876 0.784168 0
M  V30 12050 H 1170.16 0.65295 -0.120631 0
M  V30 12051 H 1172.69 1.80266 -0.967749 0
M  V30 12052 H 1172.7 4.07936 -0.0721616 0
M  V30 12053 H 1171.37 3.97608 -1.21988 0
M  V30 12054 H 1169.95 3.68237 0.587884 0
M  V30 12055 N 1172.13 0.454803 1.50895 0
M  V30 12056 C 1173.36 -0.103936 2.06639 0
M  V30 12057 C 1173.78 -1.34943 1.32044 0
M  V30 12058 O 1173.13 -1.78393 0.384972 0
M  V30 12059 C 1173.18 -0.408546 3.59184 0
M  V30 12060 O 1172.91 0.787535 4.30963 0
M  V30 12061 C 1174.41 -1.01605 4.31499 0
M  V30 12062 H 1171.63 -0.000171839 0.671 0
M  V30 12063 H 1174.17 0.638907 1.94263 0
M  V30 12064 H 1172.33 -1.1013 3.71416 0
M  V30 12065 H 1172.74 0.52229 5.21893 0
M  V30 12066 H 1174.21 -1.17906 5.39261 0
M  V30 12067 H 1174.69 -2.00182 3.90927 0
M  V30 12068 H 1175.3 -0.362155 4.23755 0
M  V30 12069 N 1173.61 -1.56489 0.186789 0
M  V30 12070 C 1174.84 -2.02163 -0.463126 0
M  V30 12071 C 1175.26 -1.06612 -1.54969 0
M  V30 12072 O 1174.62 -0.0482139 -1.81236 0
M  V30 12073 C 1174.67 -3.46337 -1.00416 0
M  V30 12074 O 1173.77 -3.53889 -2.11747 0
M  V30 12075 H 1173.11 -0.65496 -0.109194 0
M  V30 12076 H 1175.64 -2.02459 0.295227 0
M  V30 12077 H 1175.65 -3.85959 -1.32287 0
M  V30 12078 H 1174.33 -4.15376 -0.208693 0
M  V30 12079 H 1172.9 -3.26136 -1.80803 0
M  V30 12080 N 1175.09 0.086862 -1.5736 0
M  V30 12081 C 1176 1.12297 -2.05977 0
M  V30 12082 C 1177.02 1.43347 -0.986284 0
M  V30 12083 O 1178.19 1.53825 -1.3 0
M  V30 12084 C 1175.26 2.42131 -2.4814 0
M  V30 12085 C 1174.32 2.18189 -3.69719 0
M  V30 12086 C 1173.55 3.41833 -4.09861 0
M  V30 12087 O 1173.77 4.50383 -3.50016 0
M  V30 12088 O 1172.71 3.30934 -5.02759 0
M  V30 12089 H 1176.53 0.740012 -2.94546 0
M  V30 12090 H 1174.12 0.29995 -1.46358 0
M  V30 12091 H 1176 3.18568 -2.75848 0
M  V30 12092 H 1174.68 2.79837 -1.62705 0
M  V30 12093 H 1173.58 1.39506 -3.47115 0
M  V30 12094 H 1174.92 1.85372 -4.55959 0
M  V30 12095 N 1176.57 1.53483 0.357892 0
M  V30 12096 C 1177.8 1.73956 1.12013 0
M  V30 12097 C 1178.21 0.472053 1.82803 0
M  V30 12098 O 1177.57 -0.555499 1.7384 0
M  V30 12099 C 1177.62 2.91015 2.14459 0
M  V30 12100 O 1177.34 4.12862 1.4655 0
M  V30 12101 C 1178.84 3.23423 3.0317 0
M  V30 12102 H 1176.06 0.58161 0.334621 0
M  V30 12103 H 1178.6 2.00256 0.414467 0
M  V30 12104 H 1176.76 2.67087 2.80612 0
M  V30 12105 H 1177.17 4.78468 2.14869 0
M  V30 12106 H 1178.65 4.08717 3.71018 0
M  V30 12107 H 1179.12 2.39114 3.68404 0
M  V30 12108 H 1179.73 3.49305 2.42624 0
M  V30 12109 N 1178.05 -0.61812 1.44973 0
M  V30 12110 C 1179.29 -1.37343 1.47715 0
M  V30 12111 C 1179.61 -1.95239 0.118784 0
M  V30 12112 O 1180.81 -2.7149 0.0237981 0
M  V30 12113 C 1179.27 -2.48732 2.60116 0
M  V30 12114 C 1178.88 -1.97294 4.02218 0
M  V30 12115 C 1180.62 -3.25831 2.72093 0
M  V30 12116 C 1178.53 -3.06102 5.06019 0
M  V30 12117 H 1177.46 -0.516175 0.549617 0
M  V30 12118 H 1180.11 -0.663617 1.7108 0
M  V30 12119 H 1178.49 -3.2235 2.30014 0
M  V30 12120 H 1179.67 -1.30455 4.41948 0
M  V30 12121 H 1177.98 -1.32972 3.94598 0
M  V30 12122 H 1180.58 -4.06968 3.46815 0
M  V30 12123 H 1180.92 -3.76156 1.7836 0
M  V30 12124 H 1181.45 -2.59309 3.01668 0
M  V30 12125 H 1178.19 -2.60706 6.01426 0
M  V30 12126 H 1177.71 -3.71541 4.70869 0
M  V30 12127 H 1179.39 -3.70662 5.30301 0
M  V30 12128 N 1179.52 -1.32087 -0.859693 0
M  V30 12129 C 1180.77 -1.21716 -1.60836 0
M  V30 12130 C 1181.09 0.220904 -1.94349 0
M  V30 12131 O 1182.29 0.446422 -2.67805 0
M  V30 12132 C 1180.75 -2.13143 -2.89997 0
M  V30 12133 C 1180.36 -3.62003 -2.63928 0
M  V30 12134 C 1182.1 -2.11596 -3.68004 0
M  V30 12135 C 1180.01 -4.45407 -3.89059 0
M  V30 12136 H 1178.94 -0.45199 -0.603507 0
M  V30 12137 H 1181.59 -1.57013 -0.949687 0
M  V30 12138 H 1179.97 -1.70755 -3.57294 0
M  V30 12139 H 1181.14 -4.12701 -2.04974 0
M  V30 12140 H 1179.46 -3.6563 -1.99258 0
M  V30 12141 H 1182.06 -2.71149 -4.6085 0
M  V30 12142 H 1182.4 -1.10568 -4.01348 0
M  V30 12143 H 1182.93 -2.52238 -3.07605 0
M  V30 12144 H 1179.67 -5.4723 -3.60859 0
M  V30 12145 H 1179.19 -3.99462 -4.47427 0
M  V30 12146 H 1180.87 -4.58149 -4.56846 0
M  V30 12147 N 1181 1.07532 -1.15215 0
M  V30 12148 C 1182.28 1.76813 -0.83646 0
M  V30 12149 C 1182.66 2.00242 0.6683 0
M  V30 12150 O 1182.01 1.61941 1.61206 0
M  V30 12151 C 1182.22 3.0779 -1.64519 0
M  V30 12152 C 1183.56 3.82168 -1.85022 0
M  V30 12153 O 1184.59 3.17596 -1.61279 0
M  V30 12154 O 1183.45 4.98135 -2.24775 0
M  V30 12155 H 1180.54 0.767736 -0.307426 0
M  V30 12156 H 1183.09 1.13914 -1.25784 0
M  V30 12157 H 1181.86 2.86342 -2.6669 0
M  V30 12158 H 1181.48 3.78419 -1.22002 0
M  V30 12159 N 1182.48 0.948665 1.2585 0
M  V30 12160 C 1183.73 0.595938 1.92695 0
M  V30 12161 C 1184.04 -0.870229 1.75175 0
M  V30 12162 O 1185.25 -1.33266 2.36543 0
M  V30 12163 C 1183.7 1.01511 3.45288 0
M  V30 12164 C 1183.31 2.50341 3.71528 0
M  V30 12165 C 1185.06 0.734635 4.18095 0
M  V30 12166 C 1182.96 2.8609 5.17597 0
M  V30 12167 H 1181.89 0.219171 0.721443 0
M  V30 12168 H 1184.54 1.15231 1.42807 0
M  V30 12169 H 1182.93 0.387201 3.94102 0
M  V30 12170 H 1184.1 3.18101 3.3339 0
M  V30 12171 H 1182.42 2.75797 3.11969 0
M  V30 12172 H 1185.01 0.977962 5.25681 0
M  V30 12173 H 1185.36 -0.328807 4.14999 0
M  V30 12174 H 1185.89 1.32262 3.75169 0
M  V30 12175 H 1182.63 3.91427 5.25799 0
M  V30 12176 H 1182.15 2.22999 5.56805 0
M  V30 12177 H 1183.83 2.74959 5.85668 0
M  V30 12178 N 1183.96 -1.40369 0.716545 0
M  V30 12179 C 1184.91 -2.32539 0.053472 0
M  V30 12180 C 1185.9 -1.5209 -0.745984 0
M  V30 12181 O 1187.11 -1.67883 -0.649245 0
M  V30 12182 H 1183.48 -0.751998 -0.00151088 0
M  V30 12183 H 1185.45 -2.86111 0.847535 0
M  V30 12184 C 1184.2 -3.37061 -0.853515 0
M  V30 12185 H 1183.52 -3.99032 -0.247754 0
M  V30 12186 H 1184.96 -4.04046 -1.28541 0
M  V30 12187 C 1183.42 -2.72619 -1.97941 0
M  V30 12188 O 1183.95 -2.59024 -3.07033 0
M  V30 12189 N 1182.16 -2.30988 -1.76332 0
M  V30 12190 H 1181.71 -2.42246 -0.876063 0
M  V30 12191 H 1181.66 -1.88209 -2.51843 0
M  V30 12192 N 1185.44 -0.462799 -1.50652 0
M  V30 12193 C 1186.68 0.0948568 -2.01877 0
M  V30 12194 C 1187.01 1.4096 -1.34741 0
M  V30 12195 O 1186.28 1.89671 -0.49006 0
M  V30 12196 H 1184.86 0.0380453 -0.746031 0
M  V30 12197 H 1187.52 -0.611327 -1.85064 0
M  V30 12198 H 1186.61 0.252378 -3.11078 0
M  V30 12199 N 1186.91 1.56388 -0.195085 0
M  V30 12200 C 1188.14 2.01963 0.449289 0
M  V30 12201 C 1188.56 1.07522 1.55192 0
M  V30 12202 O 1187.91 0.0800915 1.82324 0
M  V30 12203 C 1187.97 3.47231 1.00561 0
M  V30 12204 O 1187.69 4.38068 -0.0530241 0
M  V30 12205 C 1189.19 4.08324 1.72587 0
M  V30 12206 H 1186.41 0.661452 0.112792 0
M  V30 12207 H 1188.95 2.02231 -0.303788 0
M  V30 12208 H 1187.11 3.47663 1.70907 0
M  V30 12209 H 1187.52 5.23256 0.361076 0
M  V30 12210 H 1188.99 5.11821 2.06744 0
M  V30 12211 H 1189.47 3.51782 2.62956 0
M  V30 12212 H 1190.08 4.11665 1.06826 0
M  V30 12213 N 1188.39 -0.0785156 1.57404 0
M  V30 12214 C 1189.64 -0.780092 1.87196 0
M  V30 12215 C 1189.97 -1.77562 0.78647 0
M  V30 12216 O 1189.25 -1.93428 -0.203935 0
M  V30 12217 C 1189.53 -1.49408 3.27642 0
M  V30 12218 C 1189.38 -0.515416 4.46837 0
M  V30 12219 C 1190.7 -2.44064 3.66225 0
M  V30 12220 H 1187.82 -0.282134 0.680859 0
M  V30 12221 H 1190.46 -0.0433926 1.8995 0
M  V30 12222 H 1188.61 -2.12205 3.25425 0
M  V30 12223 H 1190.28 0.106827 4.61176 0
M  V30 12224 H 1188.53 0.169832 4.33467 0
M  V30 12225 H 1189.2 -1.05247 5.41874 0
M  V30 12226 H 1191.67 -1.91349 3.69493 0
M  V30 12227 H 1190.55 -2.91029 4.65396 0
M  V30 12228 H 1190.81 -3.28569 2.95796 0
M  V30 12229 N 1189.87 -1.5367 -0.349747 0
M  V30 12230 C 1190.8 -1.7603 -1.4522 0
M  V30 12231 C 1191.78 -0.609171 -1.50758 0
M  V30 12232 O 1192.97 -0.843613 -1.68569 0
M  V30 12233 C 1190.09 -1.85336 -2.83493 0
M  V30 12234 C 1189.14 -3.07438 -2.95608 0
M  V30 12235 S 1189.97 -4.66625 -2.62719 0
M  V30 12236 C 1191.13 -4.78802 -4.03112 0
M  V30 12237 H 1191.36 -2.69263 -1.26035 0
M  V30 12238 H 1188.89 -1.4446 -0.545044 0
M  V30 12239 H 1190.85 -1.91383 -3.63157 0
M  V30 12240 H 1189.51 -0.931267 -2.99977 0
M  V30 12241 H 1188.71 -3.10606 -3.96913 0
M  V30 12242 H 1188.31 -2.99585 -2.23886 0
M  V30 12243 H 1190.6 -4.5983 -4.97557 0
M  V30 12244 H 1191.54 -5.80886 -4.04941 0
M  V30 12245 H 1191.95 -4.07305 -3.90849 0
M  V30 12246 N 1191.35 0.610423 -1.45298 0
M  V30 12247 C 1192.3 1.74245 -1.54083 0
M  V30 12248 C 1193.29 1.64338 -0.411003 0
M  V30 12249 O 1194.5 1.70167 -0.586799 0
M  V30 12250 H 1190.87 0.575612 -0.483916 0
M  V30 12251 H 1192.84 1.63961 -2.49318 0
M  V30 12252 C 1191.59 3.1262 -1.52198 0
M  V30 12253 H 1190.91 3.209 -2.3846 0
M  V30 12254 H 1192.35 3.91665 -1.62403 0
M  V30 12255 C 1190.81 3.36001 -0.24595 0
M  V30 12256 O 1191.34 3.95982 0.675374 0
M  V30 12257 N 1189.55 2.9025 -0.142537 0
M  V30 12258 H 1189.1 2.41621 -0.893143 0
M  V30 12259 H 1189.05 3.06268 0.710427 0
M  V30 12260 N 1192.83 1.32541 0.852676 0
M  V30 12261 C 1194.06 1.26037 1.63702 0
M  V30 12262 C 1194.46 -0.173583 1.88402 0
M  V30 12263 O 1193.81 -1.12175 1.45473 0
M  V30 12264 C 1193.87 1.95245 3.01861 0
M  V30 12265 C 1193.53 3.44576 3.00193 0
M  V30 12266 C 1194.53 4.40026 2.76899 0
M  V30 12267 C 1192.22 3.86541 3.20766 0
M  V30 12268 C 1194.21 5.75414 2.74185 0
M  V30 12269 C 1191.9 5.22038 3.17678 0
M  V30 12270 C 1192.89 6.16286 2.94416 0
M  V30 12271 O 1192.58 7.49303 2.91206 0
M  V30 12272 H 1192.31 0.436073 0.516543 0
M  V30 12273 H 1194.87 1.75251 1.07127 0
M  V30 12274 H 1193.1 1.40603 3.60233 0
M  V30 12275 H 1194.79 1.82423 3.62597 0
M  V30 12276 H 1195.55 4.0893 2.6077 0
M  V30 12277 H 1191.43 3.13603 3.37897 0
M  V30 12278 H 1194.98 6.4895 2.55947 0
M  V30 12279 H 1190.87 5.52762 3.33353 0
M  V30 12280 H 1191.64 7.58686 3.07146 0
M  V30 12281 N 1194.3 -1.0692 1.15784 0
M  V30 12282 C 1195.53 -1.83849 0.959903 0
M  V30 12283 C 1195.95 -1.8169 -0.486873 0
M  V30 12284 O 1195.31 -1.21305 -1.34739 0
M  V30 12285 C 1195.36 -3.28642 1.48414 0
M  V30 12286 O 1194.46 -4.0665 0.686249 0
M  V30 12287 H 1193.81 -0.569115 0.342059 0
M  V30 12288 H 1196.34 -1.34851 1.53871 0
M  V30 12289 H 1196.35 -3.7947 1.49888 0
M  V30 12290 H 1195.02 -3.29529 2.53739 0
M  V30 12291 H 1193.6 -3.65453 0.741501 0
M  V30 12292 N 1195.78 -0.955326 -1.25345 0
M  V30 12293 C 1197.03 -0.609278 -1.92697 0
M  V30 12294 C 1197.35 0.856535 -1.75181 0
M  V30 12295 O 1196.62 1.61013 -1.11587 0
M  V30 12296 H 1195.2 -0.22235 -0.713141 0
M  V30 12297 H 1197.86 -1.21372 -1.52496 0
M  V30 12298 H 1196.96 -0.839198 -3.00606 0
M  V30 12299 N 1197.26 1.39987 -0.723979 0
M  V30 12300 C 1198.51 2.01514 -0.276365 0
M  V30 12301 C 1198.86 1.56399 1.12058 0
M  V30 12302 O 1198.16 0.777927 1.75097 0
M  V30 12303 C 1198.35 3.56101 -0.304472 0
M  V30 12304 C 1198.18 4.16223 -1.70261 0
M  V30 12305 C 1196.95 4.49292 -2.31225 0
M  V30 12306 C 1199.15 4.40512 -2.65431 0
M  V30 12307 N 1197.13 4.94854 -3.63308 0
M  V30 12308 C 1198.5 4.88158 -3.82232 0
M  V30 12309 C 1200.55 4.22562 -2.63335 0
M  V30 12310 C 1199.26 5.19739 -4.97256 0
M  V30 12311 C 1201.28 4.5525 -3.77493 0
M  V30 12312 C 1200.65 5.03093 -4.93028 0
M  V30 12313 H 1196.74 0.768031 -0.147146 0
M  V30 12314 H 1199.33 1.70085 -0.947581 0
M  V30 12315 H 1197.5 3.86941 0.336344 0
M  V30 12316 H 1199.23 4.04381 0.160647 0
M  V30 12317 H 1195.99 4.36712 -1.83248 0
M  V30 12318 H 1196.41 5.22007 -4.31089 0
M  V30 12319 H 1201.05 3.84786 -1.75212 0
M  V30 12320 H 1198.77 5.56426 -5.86017 0
M  V30 12321 H 1202.36 4.42995 -3.77156 0
M  V30 12322 H 1201.24 5.27909 -5.79898 0
M  V30 12323 N 1198.74 0.470782 1.50404 0
M  V30 12324 C 1199.96 -0.084284 2.07229 0
M  V30 12325 C 1200.39 -1.32774 1.33239 0
M  V30 12326 O 1199.75 -1.77274 0.379971 0
M  V30 12327 C 1199.8 -0.351565 3.58882 0
M  V30 12328 O 1198.9 -1.43211 3.86736 0
M  V30 12329 H 1198.24 0.0128479 0.663876 0
M  V30 12330 H 1200.77 0.661735 1.93603 0
M  V30 12331 H 1200.78 -0.592151 4.0368 0
M  V30 12332 H 1199.46 0.557084 4.12152 0
M  V30 12333 H 1198.03 -1.17886 3.53776 0
M  V30 12334 N 1200.22 -1.56282 0.203376 0
M  V30 12335 C 1201.17 -2.16094 -0.727145 0
M  V30 12336 C 1202.15 -1.10404 -1.17046 0
M  V30 12337 O 1203.34 -1.36444 -1.12748 0
M  V30 12338 C 1200.47 -2.83029 -1.94293 0
M  V30 12339 C 1199.56 -3.9592 -1.52013 0
M  V30 12340 N 1199.95 -4.99292 -0.808794 0
M  V30 12341 C 1198.25 -4.07674 -1.80881 0
M  V30 12342 C 1198.95 -5.78641 -0.595738 0
M  V30 12343 N 1197.92 -5.31362 -1.14697 0
M  V30 12344 H 1201.73 -2.93378 -0.175041 0
M  V30 12345 H 1199.24 -1.624 0.00390859 0
M  V30 12346 H 1201.24 -3.24277 -2.62012 0
M  V30 12347 H 1199.9 -2.07235 -2.49968 0
M  V30 12348 H 1200.91 -5.15823 -0.463383 0
M  V30 12349 H 1197.59 -3.43016 -2.38005 0
M  V30 12350 H 1198.98 -6.71893 -0.0308618 0
M  V30 12351 N 1201.7 0.070167 -1.57444 0
M  V30 12352 C 1203.11 0.424991 -1.53838 0
M  V30 12353 C 1203.31 1.79076 -0.923793 0
M  V30 12354 O 1202.37 2.46939 -0.527002 0
M  V30 12355 C 1203.68 0.364562 -2.98482 0
M  V30 12356 C 1205.23 0.444631 -3.09826 0
M  V30 12357 C 1205.7 0.414093 -4.56124 0
M  V30 12358 N 1207.19 0.474119 -4.60767 0
M  V30 12359 C 1207.93 0.472729 -5.71448 0
M  V30 12360 N 1207.43 0.426059 -6.91489 0
M  V30 12361 N 1209.22 0.519408 -5.59695 0
M  V30 12362 H 1201.37 -0.824117 -1.9576 0
M  V30 12363 H 1203.63 -0.309401 -0.896089 0
M  V30 12364 H 1203.34 -0.572343 -3.47012 0
M  V30 12365 H 1203.21 1.17414 -3.5846 0
M  V30 12366 H 1205.6 1.37196 -2.61269 0
M  V30 12367 H 1205.68 -0.393547 -2.52755 0
M  V30 12368 H 1205.32 -0.509394 -5.05339 0
M  V30 12369 H 1205.25 1.26983 -5.11061 0
M  V30 12370 H 1207.75 0.514371 -3.74383 0
M  V30 12371 H 1208.06 0.428969 -7.71609 0
M  V30 12372 H 1206.4 0.392722 -6.9389 0
M  V30 12373 H 1209.59 0.553573 -4.64815 0
M  V30 12374 H 1209.77 0.514856 -6.45951 0
M  V30 12375 N 1203.17 1.53854 0.341593 0
M  V30 12376 C 1204.45 1.61823 1.09875 0
M  V30 12377 C 1204.83 0.440711 2.06448 0
M  V30 12378 O 1204.18 -0.566833 2.21358 0
M  V30 12379 C 1204.39 2.9799 1.81668 0
M  V30 12380 C 1205.74 3.53411 2.35341 0
M  V30 12381 O 1206.76 3.00177 1.91761 0
M  V30 12382 O 1205.62 4.4653 3.15076 0
M  V30 12383 H 1202.71 0.654599 0.5054 0
M  V30 12384 H 1205.26 1.66199 0.342929 0
M  V30 12385 H 1204.03 3.7513 1.11323 0
M  V30 12386 H 1203.65 2.97213 2.64103 0
M  V30 12387 N 1204.65 -0.602709 1.4562 0
M  V30 12388 C 1205.93 -1.36224 1.40366 0
M  V30 12389 C 1206.31 -2.1096 0.0767645 0
M  V30 12390 O 1205.66 -2.08207 -0.941378 0
M  V30 12391 C 1205.87 -2.30499 2.62052 0
M  V30 12392 C 1207.21 -2.92954 3.07348 0
M  V30 12393 O 1208.24 -2.40818 2.62459 0
M  V30 12394 O 1207.1 -3.87601 3.85263 0
M  V30 12395 H 1204.19 -0.611064 0.557253 0
M  V30 12396 H 1206.74 -0.625391 1.57756 0
M  V30 12397 H 1205.51 -1.74566 3.50203 0
M  V30 12398 H 1205.13 -3.11556 2.4702 0
M  V30 12399 N 1206.13 -1.32992 -0.845635 0
M  V30 12400 C 1207.38 -1.24065 -1.60044 0
M  V30 12401 C 1207.7 0.195282 -1.93517 0
M  V30 12402 O 1206.96 1.1507 -1.58296 0
M  V30 12403 C 1207.26 -2.05454 -2.92444 0
M  V30 12404 C 1206.92 -3.54718 -2.78362 0
M  V30 12405 C 1205.59 -3.95413 -2.74229 0
M  V30 12406 C 1207.94 -4.49598 -2.63649 0
M  V30 12407 C 1205.27 -5.29216 -2.53274 0
M  V30 12408 C 1207.62 -5.83554 -2.44228 0
M  V30 12409 C 1206.28 -6.2344 -2.38493 0
M  V30 12410 H 1205.55 -0.453985 -0.585644 0
M  V30 12411 H 1208.2 -1.6451 -0.980244 0
M  V30 12412 H 1206.5 -1.57765 -3.58633 0
M  V30 12413 H 1208.2 -1.95909 -3.49887 0
M  V30 12414 H 1204.79 -3.22403 -2.82409 0
M  V30 12415 H 1208.98 -4.19072 -2.65881 0
M  V30 12416 H 1204.23 -5.59164 -2.47275 0
M  V30 12417 H 1208.41 -6.56681 -2.31825 0
M  V30 12418 H 1206.03 -7.27058 -2.22015 0
M  V30 12419 N 1207.61 1.06304 -1.1635 0
M  V30 12420 C 1208.54 2.15745 -0.893103 0
M  V30 12421 C 1209.52 1.69341 0.160531 0
M  V30 12422 O 1210.7 1.94196 0.0126526 0
M  V30 12423 C 1207.83 3.45066 -0.393287 0
M  V30 12424 C 1206.79 4.04978 -1.38482 0
M  V30 12425 C 1206.11 5.29507 -0.743409 0
M  V30 12426 C 1207.41 4.4377 -2.75438 0
M  V30 12427 H 1209.11 2.38622 -1.80831 0
M  V30 12428 H 1206.65 1.14681 -0.870878 0
M  V30 12429 H 1208.61 4.20964 -0.191607 0
M  V30 12430 H 1207.33 3.21808 0.557426 0
M  V30 12431 H 1205.99 3.31136 -1.57304 0
M  V30 12432 H 1205.64 5.02545 0.213787 0
M  V30 12433 H 1205.34 5.7055 -1.40521 0
M  V30 12434 H 1206.86 6.08102 -0.551746 0
M  V30 12435 H 1208.28 5.1075 -2.60398 0
M  V30 12436 H 1206.67 4.95797 -3.38091 0
M  V30 12437 H 1207.74 3.54636 -3.30699 0
M  V30 12438 N 1209.09 0.96196 1.24836 0
M  V30 12439 C 1210.04 0.458643 2.23339 0
M  V30 12440 C 1211.02 -0.456178 1.54298 0
M  V30 12441 O 1212.21 -0.288036 1.74641 0
M  V30 12442 C 1209.34 -0.255381 3.42349 0
M  V30 12443 C 1208.43 0.677934 4.18646 0
M  V30 12444 N 1208.82 1.81273 4.72201 0
M  V30 12445 C 1207.12 0.487577 4.43327 0
M  V30 12446 C 1207.82 2.39604 5.30061 0
M  V30 12447 N 1206.79 1.68179 5.1693 0
M  V30 12448 H 1210.59 1.32459 2.62358 0
M  V30 12449 H 1208.11 0.820343 1.40158 0
M  V30 12450 H 1210.11 -0.633142 4.12064 0
M  V30 12451 H 1208.77 -1.11784 3.04852 0
M  V30 12452 H 1209.78 2.19441 4.69112 0
M  V30 12453 H 1206.45 -0.331392 4.16183 0
M  V30 12454 H 1207.84 3.35334 5.82237 0
M  V30 12455 N 1210.56 -1.39601 0.731392 0
M  V30 12456 C 1211.81 -2.0019 0.277208 0
M  V30 12457 C 1212.13 -1.5832 -1.13841 0
M  V30 12458 O 1211.4 -0.829793 -1.77458 0
M  V30 12459 H 1209.98 -0.740344 0.0995006 0
M  V30 12460 H 1212.64 -1.70704 0.940547 0
M  V30 12461 H 1211.74 -3.10427 0.322749 0
M  V30 12462 N 1212.04 -0.478751 -1.50152 0
M  V30 12463 C 1212.98 0.357584 -2.25381 0
M  V30 12464 C 1213.95 0.98965 -1.29014 0
M  V30 12465 O 1215.14 1.02409 -1.58255 0
M  V30 12466 C 1212.26 1.50167 -3.03591 0
M  V30 12467 C 1211.31 0.986215 -4.14941 0
M  V30 12468 S 1212.14 -0.105239 -5.35397 0
M  V30 12469 C 1213.3 1.04254 -6.17156 0
M  V30 12470 H 1213.53 -0.280985 -2.95969 0
M  V30 12471 H 1211.07 -0.263734 -1.52131 0
M  V30 12472 H 1213.02 2.15733 -3.49241 0
M  V30 12473 H 1211.68 2.11178 -2.32514 0
M  V30 12474 H 1210.88 1.84295 -4.69096 0
M  V30 12475 H 1210.48 0.408141 -3.71766 0
M  V30 12476 H 1212.77 1.95255 -6.48754 0
M  V30 12477 H 1213.71 0.540083 -7.06037 0
M  V30 12478 H 1214.12 1.29983 -5.49331 0
M  V30 12479 N 1213.52 1.56172 -0.211661 0
M  V30 12480 C 1214.77 1.97648 0.421871 0
M  V30 12481 C 1215.09 1.10026 1.60995 0
M  V30 12482 O 1214.36 0.175109 1.95116 0
M  V30 12483 H 1212.94 0.729914 0.158852 0
M  V30 12484 H 1215.6 1.92542 -0.302254 0
M  V30 12485 H 1214.7 3.02834 0.754868 0
M  V30 12486 N 1215 -0.0618163 1.57479 0
M  V30 12487 C 1216.23 -0.770605 1.9169 0
M  V30 12488 C 1216.64 -1.71134 0.806841 0
M  V30 12489 O 1215.98 -1.8228 -0.228002 0
M  V30 12490 C 1216.04 -1.60962 3.21452 0
M  V30 12491 C 1215.71 -0.837193 4.49266 0
M  V30 12492 C 1216.7 -0.151964 5.19678 0
M  V30 12493 C 1214.39 -0.801414 4.95866 0
M  V30 12494 C 1216.38 0.558705 6.34947 0
M  V30 12495 C 1214.07 -0.0869788 6.11038 0
M  V30 12496 C 1215.07 0.591871 6.80431 0
M  V30 12497 O 1214.75 1.29478 7.93405 0
M  V30 12498 H 1214.49 -0.223673 0.637923 0
M  V30 12499 H 1217.04 -0.0333424 2.05373 0
M  V30 12500 H 1215.27 -2.38992 3.04006 0
M  V30 12501 H 1216.96 -2.19799 3.41238 0
M  V30 12502 H 1217.73 -0.170848 4.84699 0
M  V30 12503 H 1213.6 -1.31927 4.4172 0
M  V30 12504 H 1217.15 1.08913 6.89046 0
M  V30 12505 H 1213.05 -0.066057 6.45466 0
M  V30 12506 H 1213.81 1.20507 8.0958 0
M  V30 12507 N 1216.48 -1.54033 -0.333429 0
M  V30 12508 C 1217.7 -1.76031 -1.09672 0
M  V30 12509 C 1218.13 -0.502844 -1.81254 0
M  V30 12510 O 1217.48 0.54509 -1.72912 0
M  V30 12511 C 1217.53 -2.947 -2.07809 0
M  V30 12512 O 1216.64 -2.65555 -3.15522 0
M  V30 12513 H 1215.98 -0.583611 -0.316692 0
M  V30 12514 H 1218.51 -2.01026 -0.380732 0
M  V30 12515 H 1218.52 -3.21771 -2.50853 0
M  V30 12516 H 1217.19 -3.85895 -1.55106 0
M  V30 12517 H 1215.77 -2.49403 -2.77223 0
M  V30 12518 N 1217.95 0.594978 -1.45938 0
M  V30 12519 C 1218.92 1.68688 -1.55168 0
M  V30 12520 C 1219.92 1.54945 -0.429951 0
M  V30 12521 O 1221.11 1.59785 -0.693859 0
M  V30 12522 C 1218.24 3.0804 -1.46027 0
M  V30 12523 H 1219.43 1.61866 -2.52467 0
M  V30 12524 H 1216.99 0.811785 -1.33565 0
M  V30 12525 H 1217.72 3.20428 -0.499614 0
M  V30 12526 H 1217.51 3.19423 -2.27401 0
M  V30 12527 H 1219 3.8755 -1.55546 0
M  V30 12528 N 1219.43 1.33438 0.838571 0
M  V30 12529 C 1220.66 1.27951 1.62592 0
M  V30 12530 C 1221.08 -0.149502 1.88207 0
M  V30 12531 O 1220.43 -1.09174 1.46244 0
M  V30 12532 C 1220.48 2.0523 2.97595 0
M  V30 12533 O 1220.2 3.42557 2.73105 0
M  V30 12534 C 1221.71 2.06957 3.92025 0
M  V30 12535 H 1218.93 0.440796 0.505905 0
M  V30 12536 H 1221.47 1.75814 1.0445 0
M  V30 12537 H 1219.62 1.61049 3.52338 0
M  V30 12538 H 1220.04 3.82314 3.59076 0
M  V30 12539 H 1221.51 2.65481 4.83967 0
M  V30 12540 H 1221.99 1.0599 4.26219 0
M  V30 12541 H 1222.6 2.51158 3.4322 0
M  V30 12542 N 1220.91 -1.05686 1.16912 0
M  V30 12543 C 1221.86 -2.13312 0.88129 0
M  V30 12544 C 1222.83 -1.65199 -0.172783 0
M  V30 12545 O 1224.01 -1.90765 -0.0366542 0
M  V30 12546 C 1221.15 -3.42829 0.395264 0
M  V30 12547 C 1220.27 -4.04643 1.51288 0
M  V30 12548 C 1219.4 -5.22059 0.981238 0
M  V30 12549 C 1218.44 -5.75869 2.07464 0
M  V30 12550 N 1217.58 -6.84592 1.55813 0
M  V30 12551 H 1222.42 -2.37271 1.80295 0
M  V30 12552 H 1219.95 -1.16407 0.899322 0
M  V30 12553 H 1221.91 -4.17092 0.0950633 0
M  V30 12554 H 1220.54 -3.19068 -0.489445 0
M  V30 12555 H 1219.59 -3.27867 1.92891 0
M  V30 12556 H 1220.91 -4.40626 2.33774 0
M  V30 12557 H 1220.06 -6.03372 0.634586 0
M  V30 12558 H 1218.8 -4.87538 0.125754 0
M  V30 12559 H 1217.8 -4.93188 2.42992 0
M  V30 12560 H 1219.03 -6.12439 2.93419 0
M  V30 12561 H 1216.97 -6.51978 0.725283 0
M  V30 12562 H 1216.89 -7.19551 2.31911 0
M  V30 12563 H 1218.16 -7.6957 1.24025 0
M  V30 12564 N 1222.39 -0.968567 -1.24324 0
M  V30 12565 C 1223.3 -0.50703 -2.29055 0
M  V30 12566 C 1224.31 0.432431 -1.68541 0
M  V30 12567 O 1225.49 0.30526 -1.99073 0
M  V30 12568 C 1222.56 0.194589 -3.46153 0
M  V30 12569 C 1221.62 -0.784805 -4.22066 0
M  V30 12570 C 1220.85 -0.116574 -5.33573 0
M  V30 12571 O 1221.07 1.09492 -5.59792 0
M  V30 12572 O 1220.01 -0.809171 -5.96436 0
M  V30 12573 H 1223.83 -1.3777 -2.70653 0
M  V30 12574 H 1221.42 -0.735645 -1.30033 0
M  V30 12575 H 1223.3 0.588684 -4.17268 0
M  V30 12576 H 1221.97 1.04021 -3.06531 0
M  V30 12577 H 1220.88 -1.22938 -3.53323 0
M  V30 12578 H 1222.21 -1.59887 -4.65507 0
M  V30 12579 N 1223.87 1.39211 -0.738786 0
M  V30 12580 C 1225.12 1.99673 -0.285254 0
M  V30 12581 C 1225.43 1.59297 1.13507 0
M  V30 12582 O 1226.63 2.12622 1.68832 0
M  V30 12583 C 1225.09 3.5696 -0.45906 0
M  V30 12584 C 1224.7 4.06297 -1.88751 0
M  V30 12585 C 1226.44 4.24446 -0.0674954 0
M  V30 12586 C 1224.35 5.56171 -2.01067 0
M  V30 12587 H 1223.28 0.746945 -0.102901 0
M  V30 12588 H 1225.93 1.59163 -0.913209 0
M  V30 12589 H 1224.31 3.95285 0.23785 0
M  V30 12590 H 1225.49 3.79297 -2.61669 0
M  V30 12591 H 1223.8 3.51486 -2.23264 0
M  V30 12592 H 1226.4 5.34521 -0.138475 0
M  V30 12593 H 1226.74 4.04653 0.977823 0
M  V30 12594 H 1227.27 3.91309 -0.715704 0
M  V30 12595 H 1224.01 5.80849 -3.03801 0
M  V30 12596 H 1223.53 5.84961 -1.32591 0
M  V30 12597 H 1225.21 6.21642 -1.79362 0
M  V30 12598 N 1225.34 0.486708 1.49896 0
M  V30 12599 C 1226.27 -0.288898 2.31706 0
M  V30 12600 C 1227.26 -0.975901 1.3932 0
M  V30 12601 O 1228.44 -0.970065 1.68236 0
M  V30 12602 C 1225.57 -1.36218 3.19471 0
M  V30 12603 C 1224.52 -0.795884 4.20535 0
M  V30 12604 C 1223.85 -1.96862 4.97141 0
M  V30 12605 C 1225.15 0.203421 5.21904 0
M  V30 12606 H 1226.84 0.393934 2.96797 0
M  V30 12607 H 1224.39 0.190894 1.42729 0
M  V30 12608 H 1226.34 -1.91238 3.75508 0
M  V30 12609 H 1225.07 -2.074 2.52295 0
M  V30 12610 H 1223.73 -0.267538 3.65622 0
M  V30 12611 H 1223.37 -2.66779 4.26425 0
M  V30 12612 H 1223.07 -1.59585 5.65514 0
M  V30 12613 H 1224.6 -2.52343 5.56017 0
M  V30 12614 H 1226.01 -0.258144 5.72719 0
M  V30 12615 H 1224.41 0.491273 5.98086 0
M  V30 12616 H 1225.48 1.12414 4.7169 0
M  V30 12617 N 1226.82 -1.56058 0.219941 0
M  V30 12618 C 1228.07 -1.97436 -0.412543 0
M  V30 12619 C 1228.39 -1.11058 -1.61014 0
M  V30 12620 O 1229.59 -1.42328 -2.31203 0
M  V30 12621 C 1228.05 -3.51227 -0.785362 0
M  V30 12622 C 1227.66 -4.46305 0.389328 0
M  V30 12623 C 1229.4 -4.01321 -1.38354 0
M  V30 12624 C 1227.31 -5.914 -0.00583531 0
M  V30 12625 H 1226.24 -0.73728 -0.157906 0
M  V30 12626 H 1228.89 -1.8076 0.315898 0
M  V30 12627 H 1227.27 -3.63497 -1.57118 0
M  V30 12628 H 1228.44 -4.45781 1.16686 0
M  V30 12629 H 1226.76 -4.06543 0.900633 0
M  V30 12630 H 1229.36 -5.07221 -1.69207 0
M  V30 12631 H 1229.7 -3.47077 -2.29876 0
M  V30 12632 H 1230.23 -3.92267 -0.66119 0
M  V30 12633 H 1226.97 -6.49623 0.87583 0
M  V30 12634 H 1226.49 -5.95121 -0.74772 0
M  V30 12635 H 1228.17 -6.45549 -0.43308 0
M  V30 12636 N 1228.3 0.053464 -1.57509 0
M  V30 12637 C 1229.55 0.750212 -1.88414 0
M  V30 12638 C 1229.88 1.76288 -0.814619 0
M  V30 12639 O 1229.16 1.93728 0.173136 0
M  V30 12640 C 1229.44 1.44176 -3.29978 0
M  V30 12641 C 1229.29 0.444263 -4.47601 0
M  V30 12642 C 1230.61 2.38207 -3.70061 0
M  V30 12643 H 1227.73 0.271266 -0.685262 0
M  V30 12644 H 1230.37 0.0131676 -1.89995 0
M  V30 12645 H 1228.52 2.07001 -3.2876 0
M  V30 12646 H 1230.19 -0.180182 -4.60948 0
M  V30 12647 H 1228.44 -0.238771 -4.33142 0
M  V30 12648 H 1229.11 0.966134 -5.43479 0
M  V30 12649 H 1231.58 1.85446 -3.7249 0
M  V30 12650 H 1230.46 2.83588 -4.69967 0
M  V30 12651 H 1230.72 3.23821 -3.00985 0
M  V30 12652 N 1229.78 1.54207 0.325255 0
M  V30 12653 C 1230.71 1.79812 1.42128 0
M  V30 12654 C 1231.72 0.68003 1.47917 0
M  V30 12655 O 1232.91 0.957107 1.50671 0
M  V30 12656 C 1230.01 1.89935 2.80674 0
M  V30 12657 C 1229.19 3.20078 2.98108 0
M  V30 12658 C 1228.25 3.20924 4.17006 0
M  V30 12659 O 1227.27 3.94571 4.10247 0
M  V30 12660 N 1228.47 2.44588 5.26457 0
M  V30 12661 H 1231.24 2.74396 1.20527 0
M  V30 12662 H 1228.8 1.53483 0.515233 0
M  V30 12663 H 1230.79 1.8793 3.58419 0
M  V30 12664 H 1229.36 1.02455 2.95333 0
M  V30 12665 H 1228.58 3.35057 2.07679 0
M  V30 12666 H 1229.87 4.06008 3.06651 0
M  V30 12667 H 1229.27 1.8434 5.34823 0
M  V30 12668 H 1227.82 2.48363 6.02627 0
M  V30 12669 N 1231.26 -0.58723 1.46251 0
M  V30 12670 C 1232.51 -1.34179 1.50595 0
M  V30 12671 C 1232.82 -1.94943 0.160171 0
M  V30 12672 O 1234.03 -2.71378 0.0813797 0
M  V30 12673 C 1232.48 -2.43159 2.65333 0
M  V30 12674 C 1232.09 -1.88718 4.06312 0
M  V30 12675 C 1233.83 -3.19986 2.78943 0
M  V30 12676 C 1231.74 -2.953 5.12398 0
M  V30 12677 H 1230.67 -0.504401 0.560442 0
M  V30 12678 H 1233.32 -0.627179 1.72449 0
M  V30 12679 H 1231.7 -3.17398 2.368 0
M  V30 12680 H 1232.88 -1.21051 4.44616 0
M  V30 12681 H 1231.19 -1.24572 3.97329 0
M  V30 12682 H 1233.79 -3.9952 3.5537 0
M  V30 12683 H 1234.13 -3.72288 1.86298 0
M  V30 12684 H 1234.67 -2.52852 3.07101 0
M  V30 12685 H 1231.4 -2.4789 6.0682 0
M  V30 12686 H 1230.92 -3.61469 4.78644 0
M  V30 12687 H 1232.6 -3.5933 5.38044 0
M  V30 12688 N 1232.74 -1.33881 -0.831482 0
M  V30 12689 C 1233.67 -1.27384 -1.95693 0
M  V30 12690 C 1234.65 -0.152943 -1.69411 0
M  V30 12691 O 1235.83 -0.34392 -1.9113 0
M  V30 12692 C 1232.96 -1.01982 -3.31989 0
M  V30 12693 C 1231.92 -2.10445 -3.72689 0
M  V30 12694 C 1231.24 -1.70245 -5.06873 0
M  V30 12695 C 1232.54 -3.52194 -3.8569 0
M  V30 12696 H 1234.24 -2.21549 -2.01386 0
M  V30 12697 H 1231.78 -1.06653 -0.967526 0
M  V30 12698 H 1233.73 -0.960841 -4.103 0
M  V30 12699 H 1232.46 -0.0425709 -3.26572 0
M  V30 12700 H 1231.12 -2.15398 -2.96647 0
M  V30 12701 H 1230.77 -0.712036 -4.97935 0
M  V30 12702 H 1230.47 -2.42834 -5.35075 0
M  V30 12703 H 1231.99 -1.65827 -5.87651 0
M  V30 12704 H 1233.4 -3.49701 -4.54293 0
M  V30 12705 H 1231.8 -4.23331 -4.25336 0
M  V30 12706 H 1232.87 -3.9016 -2.87929 0
M  V30 12707 N 1234.21 1.05064 -1.1747 0
M  V30 12708 C 1235.18 2.1101 -0.89485 0
M  V30 12709 C 1236.18 1.60384 0.11553 0
M  V30 12710 O 1237.37 1.73808 -0.116785 0
M  V30 12711 C 1234.5 3.39194 -0.340642 0
M  V30 12712 H 1235.69 2.37269 -1.83421 0
M  V30 12713 H 1233.24 1.21329 -0.985343 0
M  V30 12714 H 1233.98 3.18591 0.605808 0
M  V30 12715 H 1233.76 3.77251 -1.06885 0
M  V30 12716 H 1235.25 4.17281 -0.163204 0
M  V30 12717 N 1235.69 0.975146 1.23809 0
M  V30 12718 C 1236.92 0.658978 1.96125 0
M  V30 12719 C 1237.33 -0.773044 1.72248 0
M  V30 12720 O 1236.69 -1.51956 1.01072 0
M  V30 12721 C 1236.74 0.933355 3.49243 0
M  V30 12722 O 1236.46 2.30909 3.72307 0
M  V30 12723 C 1237.96 0.632408 4.38766 0
M  V30 12724 H 1235.18 0.245237 0.62458 0
M  V30 12725 H 1237.73 1.3051 1.5744 0
M  V30 12726 H 1235.88 0.333323 3.85963 0
M  V30 12727 H 1236.3 2.39476 4.66638 0
M  V30 12728 H 1237.77 0.874791 5.45024 0
M  V30 12729 H 1238.25 -0.433453 4.37056 0
M  V30 12730 H 1238.85 1.21268 4.07645 0
M  V30 12731 N 1237.17 -1.38817 0.746158 0
M  V30 12732 C 1238.45 -1.94303 0.224841 0
M  V30 12733 C 1238.83 -1.68207 -1.27552 0
M  V30 12734 O 1238.17 -1.01647 -2.04646 0
M  V30 12735 C 1238.38 -3.44306 0.5705 0
M  V30 12736 C 1239.73 -4.21329 0.526015 0
M  V30 12737 O 1240.76 -3.52554 0.508351 0
M  V30 12738 O 1239.62 -5.4392 0.530383 0
M  V30 12739 H 1236.71 -0.825785 0.0448047 0
M  V30 12740 H 1239.26 -1.48253 0.825775 0
M  V30 12741 H 1238.03 -3.56779 1.60701 0
M  V30 12742 H 1237.65 -3.97556 -0.0588271 0
M  V30 12743 N 1238.65 -0.49465 -1.49636 0
M  V30 12744 C 1240.06 -0.0452894 -1.86645 0
M  V30 12745 C 1240.41 1.36686 -1.40753 0
M  V30 12746 O 1239.53 2.01751 -0.78265 0
M  V30 12747 C 1240.13 -0.0754115 -3.38716 0
M  V30 12748 C 1238.69 0.318579 -3.75049 0
M  V30 12749 C 1237.84 -0.450712 -2.73613 0
M  V30 12750 H 1240.79 -0.707758 -1.42044 0
M  V30 12751 H 1240.81 0.721372 -3.73599 0
M  V30 12752 H 1240.32 -1.10331 -3.72087 0
M  V30 12753 H 1238.42 1.34995 -3.47285 0
M  V30 12754 H 1238.53 0.00354416 -4.791 0
M  V30 12755 H 1236.9 0.0986455 -2.54509 0
M  V30 12756 H 1237.68 -1.47857 -3.09828 0
M  V30 12757 N 1240.13 1.55939 -0.228214 0
M  V30 12758 C 1241.35 2.0287 0.406348 0
M  V30 12759 C 1241.77 1.1079 1.52876 0
M  V30 12760 O 1241.13 0.118747 1.82113 0
M  V30 12761 C 1241.18 3.49286 0.931734 0
M  V30 12762 O 1240.9 4.37857 -0.145933 0
M  V30 12763 C 1242.4 4.11893 1.63887 0
M  V30 12764 H 1239.62 0.663696 0.0987358 0
M  V30 12765 H 1242.16 2.01541 -0.346616 0
M  V30 12766 H 1240.32 3.5121 1.63494 0
M  V30 12767 H 1240.73 5.23904 0.250005 0
M  V30 12768 H 1242.21 5.16091 1.95841 0
M  V30 12769 H 1242.68 3.57281 2.55435 0
M  V30 12770 H 1243.29 4.13839 0.980697 0
M  V30 12771 N 1241.6 -0.0451101 1.57535 0
M  V30 12772 C 1242.55 -1.05066 2.05499 0
M  V30 12773 C 1243.52 -1.36884 0.940843 0
M  V30 12774 O 1244.71 -1.47497 1.21034 0
M  V30 12775 C 1241.85 -2.35139 2.52594 0
M  V30 12776 C 1240.96 -2.0962 3.77735 0
M  V30 12777 C 1240.09 -3.33447 4.13505 0
M  V30 12778 C 1239.13 -3.03411 5.31609 0
M  V30 12779 N 1238.27 -4.19644 5.62888 0
M  V30 12780 H 1243.11 -0.63469 2.91163 0
M  V30 12781 H 1240.65 -0.30179 1.43971 0
M  V30 12782 H 1242.61 -3.11118 2.7796 0
M  V30 12783 H 1241.24 -2.74489 1.69869 0
M  V30 12784 H 1240.29 -1.24211 3.59549 0
M  V30 12785 H 1241.6 -1.83452 4.63839 0
M  V30 12786 H 1240.75 -4.17805 4.39914 0
M  V30 12787 H 1239.49 -3.62715 3.2602 0
M  V30 12788 H 1238.5 -2.17453 5.04969 0
M  V30 12789 H 1239.72 -2.75438 6.20734 0
M  V30 12790 H 1237.67 -4.48893 4.78363 0
M  V30 12791 H 1237.59 -3.96843 6.43468 0
M  V30 12792 H 1238.85 -5.04921 5.93865 0
M  V30 12793 N 1243.08 -1.54377 -0.317073 0
M  V30 12794 C 1244.49 -1.64062 -0.891105 0
M  V30 12795 C 1244.84 -0.538863 -1.88655 0
M  V30 12796 O 1243.97 0.32718 -2.13912 0
M  V30 12797 C 1244.56 -2.97395 -1.62302 0
M  V30 12798 C 1243.12 -3.09253 -2.14568 0
M  V30 12799 C 1242.27 -2.59664 -0.973146 0
M  V30 12800 H 1245.22 -1.58418 -0.0944829 0
M  V30 12801 H 1245.24 -2.87918 -2.48764 0
M  V30 12802 H 1244.75 -3.77562 -0.898268 0
M  V30 12803 H 1242.86 -2.33774 -2.90139 0
M  V30 12804 H 1242.97 -4.15159 -2.39123 0
M  V30 12805 H 1241.33 -2.15719 -1.35416 0
M  V30 12806 H 1242.12 -3.42294 -0.262611 0
M  V30 12807 N 1244.56 0.579466 -1.4656 0
M  V30 12808 C 1245.49 1.69846 -1.60233 0
M  V30 12809 C 1246.47 1.6397 -0.452533 0
M  V30 12810 O 1247.66 1.81936 -0.679174 0
M  V30 12811 C 1244.79 3.08488 -1.59538 0
M  V30 12812 C 1243.74 3.29197 -2.7352 0
M  V30 12813 C 1243.07 4.684 -2.57887 0
M  V30 12814 C 1244.37 3.16718 -4.15315 0
M  V30 12815 H 1246.06 1.5866 -2.53904 0
M  V30 12816 H 1243.61 0.761873 -1.22194 0
M  V30 12817 H 1245.56 3.86595 -1.67696 0
M  V30 12818 H 1244.28 3.20581 -0.62413 0
M  V30 12819 H 1242.94 2.53491 -2.64836 0
M  V30 12820 H 1242.59 4.77262 -1.58839 0
M  V30 12821 H 1242.29 4.83208 -3.34341 0
M  V30 12822 H 1243.81 5.48671 -2.67942 0
M  V30 12823 H 1245.23 3.84666 -4.25094 0
M  V30 12824 H 1243.63 3.43047 -4.92381 0
M  V30 12825 H 1244.7 2.13755 -4.35244 0
M  V30 12826 N 1246.04 1.3432 0.824371 0
M  V30 12827 C 1247.32 1.17178 1.56616 0
M  V30 12828 C 1247.7 -0.256195 2.0954 0
M  V30 12829 O 1247.04 -1.25732 1.90798 0
M  V30 12830 C 1247.25 2.22511 2.68867 0
M  V30 12831 C 1248.6 2.57414 3.37673 0
M  V30 12832 O 1249.63 2.2129 2.79122 0
M  V30 12833 O 1248.48 3.19462 4.43403 0
M  V30 12834 H 1245.58 0.454141 0.691147 0
M  V30 12835 H 1248.12 1.45948 0.865869 0
M  V30 12836 H 1246.9 3.18366 2.27505 0
M  V30 12837 H 1246.52 1.9491 3.46548 0
M  V30 12838 N 1247.52 -1.0444 1.18026 0
M  V30 12839 C 1248.76 -1.77838 0.974756 0
M  V30 12840 C 1249.1 -1.87792 -0.494755 0
M  V30 12841 O 1248.37 -1.38327 -1.36733 0
M  V30 12842 C 1248.65 -3.21315 1.62569 0
M  V30 12843 C 1248.51 -3.19327 3.16781 0
M  V30 12844 C 1249.83 -4.19337 1.33583 0
M  V30 12845 H 1246.94 -0.645575 0.35553 0
M  V30 12846 H 1249.59 -1.22023 1.45638 0
M  V30 12847 H 1247.74 -3.68974 1.21617 0
M  V30 12848 H 1249.41 -2.79687 3.66842 0
M  V30 12849 H 1247.65 -2.57461 3.49137 0
M  V30 12850 H 1248.32 -4.20626 3.5746 0
M  V30 12851 H 1250.8 -3.80208 1.69059 0
M  V30 12852 H 1249.67 -5.17953 1.81702 0
M  V30 12853 H 1249.94 -4.41346 0.258016 0
M  V30 12854 N 1248.99 -0.981699 -1.2329 0
M  V30 12855 C 1250.41 -0.690539 -1.43888 0
M  V30 12856 C 1250.61 0.742816 -1.87309 0
M  V30 12857 O 1249.67 1.5151 -2.01993 0
M  V30 12858 C 1250.98 -1.68657 -2.48948 0
M  V30 12859 C 1252.53 -1.70076 -2.62761 0
M  V30 12860 C 1253 -2.68513 -3.71032 0
M  V30 12861 N 1254.49 -2.67039 -3.78476 0
M  V30 12862 C 1255.23 -3.39874 -4.61815 0
M  V30 12863 N 1254.72 -4.22273 -5.49233 0
M  V30 12864 N 1256.52 -3.28633 -4.56023 0
M  V30 12865 H 1248.67 -1.90758 -0.934077 0
M  V30 12866 H 1250.93 -0.822058 -0.472149 0
M  V30 12867 H 1250.64 -2.7117 -2.23964 0
M  V30 12868 H 1250.51 -1.47045 -3.47358 0
M  V30 12869 H 1252.9 -0.682673 -2.87095 0
M  V30 12870 H 1252.98 -1.95754 -1.64663 0
M  V30 12871 H 1252.62 -3.70464 -3.47446 0
M  V30 12872 H 1252.55 -2.40109 -4.68674 0
M  V30 12873 H 1255.04 -2.07241 -3.16006 0
M  V30 12874 H 1255.36 -4.74702 -6.09818 0
M  V30 12875 H 1253.7 -4.26364 -5.48852 0
M  V30 12876 H 1256.89 -2.6371 -3.86749 0
M  V30 12877 H 1257.07 -3.85656 -5.20743 0
M  V30 12878 N 1250.47 1.3842 -0.753509 0
M  V30 12879 C 1251.7 2.04107 -0.319985 0
M  V30 12880 C 1252.11 1.56951 1.05655 0
M  V30 12881 O 1251.45 0.737807 1.68232 0
M  V30 12882 C 1251.52 3.58529 -0.26402 0
M  V30 12883 C 1251.18 4.28741 -1.58209 0
M  V30 12884 C 1252.18 4.54118 -2.53126 0
M  V30 12885 C 1249.86 4.66931 -1.8515 0
M  V30 12886 C 1251.86 5.16719 -3.73203 0
M  V30 12887 C 1249.54 5.29256 -3.05502 0
M  V30 12888 C 1250.54 5.54085 -3.99348 0
M  V30 12889 O 1250.23 6.15112 -5.17584 0
M  V30 12890 H 1249.96 0.662457 -0.134636 0
M  V30 12891 H 1252.51 1.78096 -1.02328 0
M  V30 12892 H 1250.74 3.83512 0.495516 0
M  V30 12893 H 1252.43 4.05659 0.139979 0
M  V30 12894 H 1253.2 4.25043 -2.33588 0
M  V30 12895 H 1249.08 4.46952 -1.12939 0
M  V30 12896 H 1252.62 5.36014 -4.46469 0
M  V30 12897 H 1248.52 5.57754 -3.24932 0
M  V30 12898 H 1249.29 6.33599 -5.18164 0
M  V30 12899 N 1251.95 0.502579 1.49372 0
M  V30 12900 C 1253.18 -0.0403087 2.07361 0
M  V30 12901 C 1253.6 -1.29918 1.36026 0
M  V30 12902 O 1252.96 -1.76428 0.417488 0
M  V30 12903 C 1253.01 -0.275362 3.59547 0
M  V30 12904 O 1252.11 -1.34975 3.89686 0
M  V30 12905 H 1251.45 0.0269268 0.663454 0
M  V30 12906 H 1253.98 0.702652 1.92156 0
M  V30 12907 H 1253.99 -0.506392 4.04845 0
M  V30 12908 H 1252.67 0.644382 4.10878 0
M  V30 12909 H 1251.24 -1.10355 3.56197 0
M  V30 12910 N 1253.43 -1.55816 0.23648 0
M  V30 12911 C 1254.68 -1.98686 -0.391146 0
M  V30 12912 C 1255 -1.12443 -1.58703 0
M  V30 12913 O 1254.26 -0.172805 -1.94936 0
M  V30 12914 C 1254.56 -3.47039 -0.85434 0
M  V30 12915 C 1254.22 -4.50299 0.232651 0
M  V30 12916 C 1252.89 -4.78259 0.531218 0
M  V30 12917 C 1255.24 -5.1215 0.967027 0
M  V30 12918 C 1252.57 -5.65347 1.56842 0
M  V30 12919 C 1254.92 -6.00363 1.99367 0
M  V30 12920 C 1253.58 -6.2666 2.299 0
M  V30 12921 H 1252.85 -0.727045 -0.14313 0
M  V30 12922 H 1255.5 -1.88419 0.342125 0
M  V30 12923 H 1253.8 -3.54585 -1.66663 0
M  V30 12924 H 1255.5 -3.7759 -1.35005 0
M  V30 12925 H 1252.09 -4.28599 -0.0102014 0
M  V30 12926 H 1256.27 -4.90606 0.749609 0
M  V30 12927 H 1251.53 -5.83981 1.81043 0
M  V30 12928 H 1255.7 -6.47335 2.56769 0
M  V30 12929 H 1253.33 -6.93938 3.1041 0
M  V30 12930 N 1254.91 0.036755 -1.57557 0
M  V30 12931 C 1256.15 0.729106 -1.88919 0
M  V30 12932 C 1256.48 1.75769 -0.832801 0
M  V30 12933 O 1255.74 1.94985 0.167173 0
M  V30 12934 C 1256.04 1.44206 -3.27016 0
M  V30 12935 C 1255.7 0.550184 -4.47531 0
M  V30 12936 C 1254.36 0.304511 -4.80236 0
M  V30 12937 C 1256.72 -0.0660664 -5.21158 0
M  V30 12938 C 1254.04 -0.566316 -5.8396 0
M  V30 12939 C 1256.4 -0.92455 -6.25807 0
M  V30 12940 C 1255.06 -1.17976 -6.56992 0
M  V30 12941 H 1254.33 0.266799 -0.691303 0
M  V30 12942 H 1256.98 -0.0108698 -1.91497 0
M  V30 12943 H 1255.28 2.25516 -3.2039 0
M  V30 12944 H 1256.98 1.98317 -3.48527 0
M  V30 12945 H 1253.57 0.751814 -4.21955 0
M  V30 12946 H 1257.75 0.110784 -4.96176 0
M  V30 12947 H 1253.01 -0.772428 -6.06501 0
M  V30 12948 H 1257.18 -1.40861 -6.82005 0
M  V30 12949 H 1254.81 -1.85627 -7.37188 0
M  V30 12950 N 1256.39 1.54543 0.308881 0
M  V30 12951 C 1257.63 1.73706 1.04661 0
M  V30 12952 C 1257.96 0.517111 1.87189 0
M  V30 12953 O 1257.24 -0.485856 1.88334 0
M  V30 12954 C 1257.52 3.02141 1.95916 0
M  V30 12955 C 1257.38 4.34419 1.1662 0
M  V30 12956 C 1258.69 3.26401 2.95213 0
M  V30 12957 H 1255.81 0.63203 0.379087 0
M  V30 12958 H 1258.46 1.87253 0.321947 0
M  V30 12959 H 1256.61 2.90723 2.57706 0
M  V30 12960 H 1258.28 4.57743 0.571772 0
M  V30 12961 H 1256.52 4.3126 0.468747 0
M  V30 12962 H 1257.19 5.20535 1.83704 0
M  V30 12963 H 1259.67 3.37377 2.43549 0
M  V30 12964 H 1258.54 4.17597 3.56235 0
M  V30 12965 H 1258.8 2.44322 3.68455 0
M  V30 12966 N 1257.86 -0.571685 1.46866 0
M  V30 12967 C 1259.27 -1.15383 1.46778 0
M  V30 12968 C 1259.63 -1.95023 0.214576 0
M  V30 12969 O 1258.75 -2.05386 -0.681574 0
M  V30 12970 C 1259.35 -2.09915 2.65935 0
M  V30 12971 C 1257.9 -2.6343 2.68852 0
M  V30 12972 C 1257.05 -1.39517 2.39646 0
M  V30 12973 H 1260 -0.359036 1.54585 0
M  V30 12974 H 1260.02 -2.9356 2.42081 0
M  V30 12975 H 1259.54 -1.51923 3.57129 0
M  V30 12976 H 1257.64 -3.2526 1.8176 0
M  V30 12977 H 1257.75 -3.05412 3.69134 0
M  V30 12978 H 1256.11 -1.69702 1.8993 0
M  V30 12979 H 1256.9 -0.833399 3.33031 0
M  V30 12980 N 1259.34 -1.34755 -0.817236 0
M  V30 12981 C 1260.29 -1.26801 -1.92848 0
M  V30 12982 C 1261.26 -0.142077 -1.65491 0
M  V30 12983 O 1262.44 -0.324006 -1.88029 0
M  V30 12984 C 1259.58 -1.03513 -3.2921 0
M  V30 12985 C 1258.7 -2.24932 -3.68822 0
M  V30 12986 C 1257.83 -1.94881 -4.94161 0
M  V30 12987 C 1256.87 -3.12411 -5.2637 0
M  V30 12988 N 1256.01 -2.82207 -6.42887 0
M  V30 12989 H 1260.85 -2.21832 -1.98983 0
M  V30 12990 H 1258.38 -1.10284 -0.973439 0
M  V30 12991 H 1260.34 -0.88047 -4.07803 0
M  V30 12992 H 1258.97 -0.121478 -3.22571 0
M  V30 12993 H 1258.02 -2.51299 -2.85575 0
M  V30 12994 H 1259.34 -3.12726 -3.88592 0
M  V30 12995 H 1258.49 -1.76184 -5.80555 0
M  V30 12996 H 1257.23 -1.04355 -4.76405 0
M  V30 12997 H 1256.23 -3.31698 -4.3847 0
M  V30 12998 H 1257.46 -4.03724 -5.46062 0
M  V30 12999 H 1255.41 -1.94263 -6.26576 0
M  V30 13000 H 1255.32 -3.63534 -6.62857 0
M  V30 13001 H 1256.59 -2.67026 -7.32337 0
M  V30 13002 N 1260.82 1.03812 -1.18578 0
M  V30 13003 C 1261.77 2.11883 -0.915115 0
M  V30 13004 C 1262.74 1.65453 0.146479 0
M  V30 13005 O 1263.92 1.90799 0.00630058 0
M  V30 13006 C 1261.06 3.42157 -0.449755 0
M  V30 13007 C 1260.17 4.02185 -1.57706 0
M  V30 13008 C 1259.31 5.20431 -1.06417 0
M  V30 13009 C 1258.35 5.72496 -2.16599 0
M  V30 13010 N 1257.49 6.82027 -1.66685 0
M  V30 13011 H 1262.33 2.34373 -1.84047 0
M  V30 13012 H 1259.86 1.14962 -0.917728 0
M  V30 13013 H 1261.82 4.16888 -0.161407 0
M  V30 13014 H 1260.45 3.19806 0.438622 0
M  V30 13015 H 1259.5 3.24757 -1.98083 0
M  V30 13016 H 1260.81 4.36851 -2.40754 0
M  V30 13017 H 1259.97 6.02286 -0.730497 0
M  V30 13018 H 1258.71 4.87276 -0.203301 0
M  V30 13019 H 1257.71 4.8926 -2.50808 0
M  V30 13020 H 1258.94 6.07694 -3.03126 0
M  V30 13021 H 1256.88 6.50742 -0.828916 0
M  V30 13022 H 1256.8 7.1577 -2.43329 0
M  V30 13023 H 1258.07 7.67499 -1.36253 0
M  V30 13024 N 1262.3 0.988223 1.22768 0
M  V30 13025 C 1263.52 0.679426 1.95955 0
M  V30 13026 C 1263.95 -0.748483 1.72567 0
M  V30 13027 O 1263.31 -1.51097 1.00197 0
M  V30 13028 C 1263.35 0.985284 3.46878 0
M  V30 13029 O 1262.46 0.0814607 4.1232 0
M  V30 13030 H 1261.8 0.254749 0.613188 0
M  V30 13031 H 1264.33 1.32393 1.55991 0
M  V30 13032 H 1264.34 0.925198 3.97371 0
M  V30 13033 H 1263.01 2.02581 3.63227 0
M  V30 13034 H 1261.59 0.196629 3.72381 0
M  V30 13035 N 1263.78 -1.38018 0.760839 0
M  V30 13036 C 1265 -2.04231 0.331285 0
M  V30 13037 C 1265.42 -1.57385 -1.04285 0
M  V30 13038 O 1264.78 -0.750168 -1.66369 0
M  V30 13039 C 1264.83 -3.59772 0.353021 0
M  V30 13040 O 1264.55 -4.049 1.67294 0
M  V30 13041 C 1266.05 -4.4321 -0.0894942 0
M  V30 13042 H 1263.27 -0.656145 0.140408 0
M  V30 13043 H 1265.81 -1.76567 1.03172 0
M  V30 13044 H 1263.97 -3.86246 -0.298735 0
M  V30 13045 H 1264.38 -4.99369 1.60408 0
M  V30 13046 H 1265.86 -5.51995 -0.0231262 0
M  V30 13047 H 1266.33 -4.2419 -1.13839 0
M  V30 13048 H 1266.94 -4.21939 0.533661 0
M  V30 13049 N 1265.25 -0.510493 -1.49103 0
M  V30 13050 C 1266.66 -0.0650831 -1.86587 0
M  V30 13051 C 1267.02 1.35185 -1.42195 0
M  V30 13052 O 1266.14 2.0091 -0.804004 0
M  V30 13053 C 1266.74 -0.111333 -3.38617 0
M  V30 13054 C 1265.29 0.278782 -3.75366 0
M  V30 13055 C 1264.44 -0.479707 -2.73119 0
M  V30 13056 H 1267.39 -0.722784 -1.41285 0
M  V30 13057 H 1267.41 0.681706 -3.74343 0
M  V30 13058 H 1266.93 -1.14271 -3.70896 0
M  V30 13059 H 1265.03 1.31304 -3.48698 0
M  V30 13060 H 1265.14 -0.047271 -4.79077 0
M  V30 13061 H 1263.5 0.0716459 -2.54599 0
M  V30 13062 H 1264.29 -1.51135 -3.08242 0
M  V30 13063 N 1266.73 1.55688 -0.24474 0
M  V30 13064 C 1267.68 2.21289 0.655723 0
M  V30 13065 C 1268.65 1.17606 1.17295 0
M  V30 13066 O 1269.83 1.46045 1.22782 0
M  V30 13067 C 1266.97 2.91453 1.84794 0
M  V30 13068 C 1266.09 4.09787 1.36744 0
M  V30 13069 C 1265.22 4.67672 2.51905 0
M  V30 13070 C 1264.26 5.78259 2.00706 0
M  V30 13071 N 1263.4 6.30336 3.09225 0
M  V30 13072 H 1268.24 2.97865 0.0896156 0
M  V30 13073 H 1265.77 1.47064 0.0324725 0
M  V30 13074 H 1267.73 3.30331 2.54828 0
M  V30 13075 H 1266.36 2.17355 2.38656 0
M  V30 13076 H 1265.41 3.76237 0.561228 0
M  V30 13077 H 1266.73 4.89627 0.952199 0
M  V30 13078 H 1265.88 5.09113 3.29984 0
M  V30 13079 H 1264.62 3.87044 2.9673 0
M  V30 13080 H 1263.62 5.36298 1.21097 0
M  V30 13081 H 1264.85 6.60737 1.56853 0
M  V30 13082 H 1262.8 5.52614 3.53489 0
M  V30 13083 H 1262.71 7.05364 2.72025 0
M  V30 13084 H 1263.98 6.76435 3.8737 0
M  V30 13085 N 1268.21 -0.0283989 1.57574 0
M  V30 13086 C 1269.46 -0.720142 1.89583 0
M  V30 13087 C 1269.79 -1.7497 0.842562 0
M  V30 13088 O 1269.06 -1.93979 -0.142294 0
M  V30 13089 C 1269.35 -1.38909 3.32229 0
M  V30 13090 C 1269.2 -0.372998 4.48251 0
M  V30 13091 C 1270.52 -2.32289 3.73804 0
M  V30 13092 H 1267.64 -0.26033 0.689491 0
M  V30 13093 H 1270.28 0.0170607 1.89992 0
M  V30 13094 H 1268.43 -2.01744 3.32011 0
M  V30 13095 H 1270.1 0.253492 4.60603 0
M  V30 13096 H 1268.34 0.30765 4.32708 0
M  V30 13097 H 1269.02 -0.879549 5.44948 0
M  V30 13098 H 1271.49 -1.79497 3.75393 0
M  V30 13099 H 1270.37 -2.76075 4.74419 0
M  V30 13100 H 1270.63 -3.18992 3.06099 0
M  V30 13101 N 1269.69 -1.54705 -0.300681 0
M  V30 13102 C 1270.64 -1.86433 -1.39087 0
M  V30 13103 C 1271.63 -0.738101 -1.52474 0
M  V30 13104 O 1272.84 -0.922096 -1.54588 0
M  V30 13105 H 1269.21 -0.591314 -0.464599 0
M  V30 13106 H 1271.18 -2.77558 -1.09563 0
M  V30 13107 C 1269.93 -2.1286 -2.74929 0
M  V30 13108 H 1269.25 -2.98994 -2.6541 0
M  V30 13109 H 1270.69 -2.39 -3.50222 0
M  V30 13110 C 1269.15 -0.92726 -3.23888 0
M  V30 13111 O 1269.68 -0.147921 -4.01428 0
M  V30 13112 N 1267.89 -0.732553 -2.81215 0
M  V30 13113 H 1267.44 -1.36797 -2.18276 0
M  V30 13114 H 1267.39 0.0696902 -3.14323 0
M  V30 13115 N 1271.17 0.563888 -1.47167 0
M  V30 13116 C 1272.39 1.35176 -1.57297 0
M  V30 13117 C 1272.82 1.86794 -0.221235 0
M  V30 13118 O 1272.17 1.62606 0.801809 0
M  V30 13119 C 1272.22 2.50225 -2.59654 0
M  V30 13120 O 1271.33 3.5225 -2.14461 0
M  V30 13121 H 1270.67 0.401795 -0.528637 0
M  V30 13122 H 1273.2 0.682137 -1.92894 0
M  V30 13123 H 1273.21 2.96886 -2.79862 0
M  V30 13124 H 1271.88 2.1201 -3.57805 0
M  V30 13125 H 1270.46 3.1194 -2.04323 0
M  V30 13126 N 1272.64 1.35187 0.810078 0
M  V30 13127 C 1273.89 1.28454 1.56931 0
M  V30 13128 C 1274.22 -0.141747 1.93682 0
M  V30 13129 O 1273.5 -1.09028 1.61069 0
M  V30 13130 C 1273.78 2.18771 2.86027 0
M  V30 13131 C 1273.63 3.69999 2.55774 0
M  V30 13132 C 1274.95 2.08265 3.87703 0
M  V30 13133 H 1272.07 0.467959 0.569371 0
M  V30 13134 H 1274.71 1.65556 0.932262 0
M  V30 13135 H 1272.86 1.8726 3.40391 0
M  V30 13136 H 1274.54 4.11936 2.07621 0
M  V30 13137 H 1272.78 3.90453 1.89021 0
M  V30 13138 H 1273.45 4.28577 3.47888 0
M  V30 13139 H 1275.93 2.35958 3.42729 0
M  V30 13140 H 1274.8 2.73663 4.75815 0
M  V30 13141 H 1275.06 1.06352 4.29117 0
M  V30 13142 N 1274.12 -1.03182 1.19127 0
M  V30 13143 C 1275.35 -1.80165 1.01726 0
M  V30 13144 C 1275.77 -1.83742 -0.434095 0
M  V30 13145 O 1275.12 -1.27932 -1.30152 0
M  V30 13146 C 1275.17 -3.25354 1.57566 0
M  V30 13147 O 1274.89 -3.22042 2.9702 0
M  V30 13148 C 1276.4 -4.18948 1.44906 0
M  V30 13149 H 1273.62 -0.567078 0.358698 0
M  V30 13150 H 1276.16 -1.29982 1.57877 0
M  V30 13151 H 1274.31 -3.72738 1.0557 0
M  V30 13152 H 1274.73 -4.13061 3.23235 0
M  V30 13153 H 1276.2 -5.18723 1.88762 0
M  V30 13154 H 1276.68 -4.37383 0.399125 0
M  V30 13155 H 1277.29 -3.77435 1.96018 0
M  V30 13156 N 1275.6 -0.99472 -1.22242 0
M  V30 13157 C 1276.83 -0.689809 -1.95592 0
M  V30 13158 C 1277.25 0.739321 -1.72961 0
M  V30 13159 O 1276.61 1.50563 -1.00997 0
M  V30 13160 C 1276.66 -1.00367 -3.46351 0
M  V30 13161 O 1275.76 -0.103326 -4.12271 0
M  V30 13162 H 1275.1 -0.257997 -0.611828 0
M  V30 13163 H 1277.63 -1.33219 -1.55286 0
M  V30 13164 H 1277.64 -0.946259 -3.96875 0
M  V30 13165 H 1276.32 -2.04504 -3.62148 0
M  V30 13166 H 1274.89 -0.216374 -3.72272 0
M  V30 13167 N 1277.08 1.37613 -0.768148 0
M  V30 13168 C 1278.03 2.27654 -0.125596 0
M  V30 13169 C 1279.01 1.45923 0.677883 0
M  V30 13170 O 1280.2 1.68515 0.541448 0
M  V30 13171 C 1277.33 3.34884 0.7555 0
M  V30 13172 C 1276.42 4.24064 -0.0556137 0
M  V30 13173 N 1276.81 4.93707 -1.09943 0
M  V30 13174 C 1275.11 4.4568 0.168932 0
M  V30 13175 C 1275.81 5.59508 -1.59142 0
M  V30 13176 N 1274.79 5.36027 -0.904208 0
M  V30 13177 H 1278.59 2.7897 -0.924828 0
M  V30 13178 H 1276.1 1.50687 -0.605561 0
M  V30 13179 H 1278.1 3.98294 1.23157 0
M  V30 13180 H 1276.76 2.85124 1.55352 0
M  V30 13181 H 1277.77 4.96258 -1.48151 0
M  V30 13182 H 1274.45 4.068 0.939144 0
M  V30 13183 H 1275.84 6.2518 -2.4617 0
M  V30 13184 N 1278.56 0.518393 1.4883 0
M  V30 13185 C 1279.8 -0.019866 2.0209 0
M  V30 13186 C 1280.13 -1.35863 1.3988 0
M  V30 13187 O 1279.4 -1.87722 0.560117 0
M  V30 13188 H 1277.98 -0.0103306 0.746929 0
M  V30 13189 H 1280.64 0.679591 1.82668 0
M  V30 13190 H 1279.73 -0.136749 3.118 0
M  V30 13191 N 1280.03 -1.55556 0.252993 0
M  V30 13192 C 1281.26 -2.03945 -0.376965 0
M  V30 13193 C 1281.68 -1.13089 -1.50308 0
M  V30 13194 O 1281.04 -0.125039 -1.80868 0
M  V30 13195 C 1281.09 -3.50284 -0.856363 0
M  V30 13196 O 1280.19 -3.62551 -1.96546 0
M  V30 13197 H 1279.54 -0.659002 -0.081317 0
M  V30 13198 H 1282.07 -2.01024 0.380831 0
M  V30 13199 H 1282.08 -3.91222 -1.15798 0
M  V30 13200 H 1280.75 -4.15887 -0.0323302 0
M  V30 13201 H 1279.33 -3.33511 -1.66808 0
M  V30 13202 N 1281.51 0.0200419 -1.57587 0
M  V30 13203 C 1282.46 1.0362 -2.08244 0
M  V30 13204 C 1283.45 1.36872 -0.998119 0
M  V30 13205 O 1284.66 1.35671 -1.18293 0
M  V30 13206 H 1281.04 0.351731 -0.664673 0
M  V30 13207 H 1283.01 0.583226 -2.92645 0
M  V30 13208 C 1281.76 2.32574 -2.58466 0
M  V30 13209 H 1281.08 2.0785 -3.41523 0
M  V30 13210 H 1282.52 3.02 -2.97611 0
M  V30 13211 C 1280.98 3.02167 -1.48986 0
M  V30 13212 O 1281.51 3.92359 -0.861251 0
M  V30 13213 N 1279.71 2.63649 -1.22219 0
M  V30 13214 H 1279.26 1.90389 -1.73521 0
M  V30 13215 H 1279.22 3.10529 -0.491828 0
M  V30 13216 N 1282.99 1.54862 0.292472 0
M  V30 13217 C 1283.94 1.86403 1.36098 0
M  V30 13218 C 1284.91 0.713694 1.49985 0
M  V30 13219 O 1286.09 0.963134 1.64707 0
M  V30 13220 C 1283.23 2.1244 2.71962 0
M  V30 13221 C 1282.35 3.40038 2.66454 0
M  V30 13222 C 1281.48 3.55875 3.94368 0
M  V30 13223 C 1280.52 4.77235 3.83293 0
M  V30 13224 N 1279.66 4.89832 5.03 0
M  V30 13225 H 1284.5 2.77546 1.085 0
M  V30 13226 H 1282.03 1.37427 0.524607 0
M  V30 13227 H 1283.99 2.25533 3.50985 0
M  V30 13228 H 1282.62 1.24554 2.97802 0
M  V30 13229 H 1281.67 3.35521 1.79248 0
M  V30 13230 H 1282.99 4.29188 2.54163 0
M  V30 13231 H 1282.14 3.68679 4.8183 0
M  V30 13232 H 1280.88 2.64874 4.09503 0
M  V30 13233 H 1279.88 4.64455 2.94214 0
M  V30 13234 H 1281.11 5.69651 3.69695 0
M  V30 13235 H 1279.05 4.01756 5.18582 0
M  V30 13236 H 1278.97 5.72996 4.93165 0
M  V30 13237 H 1280.24 5.07001 5.92089 0
M  V30 13238 N 1284.47 -0.556076 1.47464 0
M  V30 13239 C 1285.71 -1.31515 1.54375 0
M  V30 13240 C 1286.05 -1.93106 0.205837 0
M  V30 13241 O 1285.32 -1.77927 -0.785643 0
M  V30 13242 C 1285.61 -2.4244 2.66261 0
M  V30 13243 C 1285.46 -1.8571 4.09673 0
M  V30 13244 C 1286.78 -3.4436 2.74051 0
M  V30 13245 H 1283.9 -0.476817 0.561974 0
M  V30 13246 H 1286.54 -0.622157 1.79525 0
M  V30 13247 H 1284.69 -3.01551 2.44948 0
M  V30 13248 H 1286.36 -1.30851 4.42353 0
M  V30 13249 H 1284.6 -1.16379 4.17898 0
M  V30 13250 H 1285.27 -2.65904 4.83735 0
M  V30 13251 H 1287.75 -2.95169 2.93282 0
M  V30 13252 H 1286.63 -4.194 3.54111 0
M  V30 13253 H 1286.89 -4.03281 1.81155 0
M  V30 13254 N 1285.95 -1.35615 -0.802897 0
M  V30 13255 C 1287.2 -1.28839 -1.55708 0
M  V30 13256 C 1287.52 0.135906 -1.94526 0
M  V30 13257 O 1286.79 1.07317 -1.6389 0
M  V30 13258 H 1285.37 -0.473906 -0.577427 0
M  V30 13259 H 1288.03 -1.69759 -0.957487 0
M  V30 13260 H 1287.12 -1.90675 -2.47082 0
M  V30 13261 N 1287.43 1.02549 -1.19673 0
M  V30 13262 C 1288.65 1.8016 -1.02748 0
M  V30 13263 C 1289.08 1.83372 0.419105 0
M  V30 13264 O 1288.43 1.26222 1.30144 0
M  V30 13265 C 1288.48 3.22907 -1.60509 0
M  V30 13266 O 1287.59 4.03823 -0.836702 0
M  V30 13267 H 1286.93 0.556027 -0.362946 0
M  V30 13268 H 1289.46 1.29047 -1.5877 0
M  V30 13269 H 1289.47 3.73646 -1.63868 0
M  V30 13270 H 1288.14 3.19885 -2.65794 0
M  V30 13271 H 1286.72 3.6245 -0.876626 0
M  V30 13272 N 1288.9 1.00119 1.21713 0
M  V30 13273 C 1289.85 0.529464 2.21767 0
M  V30 13274 C 1290.84 -0.406858 1.55671 0
M  V30 13275 O 1292.03 -0.232329 1.75469 0
M  V30 13276 C 1289.16 -0.146336 3.42988 0
M  V30 13277 C 1288.24 0.81078 4.16278 0
M  V30 13278 N 1288.64 1.96204 4.66195 0
M  V30 13279 C 1286.93 0.628371 4.41551 0
M  V30 13280 C 1287.63 2.56346 5.2217 0
M  V30 13281 N 1286.61 1.8454 5.11318 0
M  V30 13282 H 1290.41 1.40738 2.58012 0
M  V30 13283 H 1287.93 0.864518 1.37477 0
M  V30 13284 H 1289.92 -0.501726 4.1387 0
M  V30 13285 H 1288.58 -1.02029 3.08254 0
M  V30 13286 H 1289.59 2.34255 4.61893 0
M  V30 13287 H 1286.27 -0.198819 4.17026 0
M  V30 13288 H 1287.66 3.53688 5.71274 0
M  V30 13289 N 1290.38 -1.37203 0.775435 0
M  V30 13290 C 1291.61 -2.03868 0.352927 0
M  V30 13291 C 1292.02 -1.58482 -1.0261 0
M  V30 13292 O 1291.38 -0.767772 -1.65564 0
M  V30 13293 C 1291.43 -3.59378 0.39116 0
M  V30 13294 O 1291.15 -4.03103 1.71579 0
M  V30 13295 C 1292.65 -4.4328 -0.0424808 0
M  V30 13296 H 1289.87 -0.654619 0.14736 0
M  V30 13297 H 1292.42 -1.75463 1.05039 0
M  V30 13298 H 1290.57 -3.86542 -0.257752 0
M  V30 13299 H 1290.99 -4.9764 1.65695 0
M  V30 13300 H 1292.46 -5.51989 0.0354215 0
M  V30 13301 H 1292.94 -4.25374 -1.09333 0
M  V30 13302 H 1293.54 -4.21349 0.578384 0
M  V30 13303 N 1291.86 -0.526279 -1.48553 0
M  V30 13304 C 1293.08 0.00731432 -2.07399 0
M  V30 13305 C 1293.51 1.27737 -1.38075 0
M  V30 13306 O 1292.87 1.75741 -0.445503 0
M  V30 13307 C 1292.92 0.218126 -3.5994 0
M  V30 13308 O 1292.02 1.28759 -3.91784 0
M  V30 13309 H 1291.36 -0.0374784 -0.662941 0
M  V30 13310 H 1293.89 -0.733133 -1.91014 0
M  V30 13311 H 1293.9 0.44192 -4.056 0
M  V30 13312 H 1292.58 -0.709668 -4.09801 0
M  V30 13313 H 1291.15 1.04674 -3.57907 0
M  V30 13314 N 1293.34 1.5542 -0.261239 0
M  V30 13315 C 1294.27 2.19334 0.665214 0
M  V30 13316 C 1295.28 1.17388 1.128 0
M  V30 13317 O 1296.47 1.44183 1.0523 0
M  V30 13318 C 1293.57 2.79425 1.91768 0
M  V30 13319 C 1292.74 4.06929 1.60399 0
M  V30 13320 C 1291.8 4.51199 2.70751 0
M  V30 13321 O 1290.83 5.17272 2.37526 0
M  V30 13322 N 1292.03 4.20179 4.00537 0
M  V30 13323 H 1294.8 2.99467 0.118262 0
M  V30 13324 H 1292.36 1.61693 -0.0817727 0
M  V30 13325 H 1294.35 3.05992 2.64861 0
M  V30 13326 H 1292.92 2.03366 2.37405 0
M  V30 13327 H 1292.14 3.87798 0.707559 0
M  V30 13328 H 1293.43 4.9003 1.36924 0
M  V30 13329 H 1292.83 3.67164 4.30357 0
M  V30 13330 H 1291.38 4.51549 4.7005 0
M  V30 13331 N 1294.82 -0.0116844 1.57596 0
M  V30 13332 C 1296.23 -0.55604 1.78228 0
M  V30 13333 C 1296.58 -1.74624 0.894474 0
M  V30 13334 O 1295.7 -2.16196 0.0938498 0
M  V30 13335 C 1296.3 -1.0155 3.23223 0
M  V30 13336 C 1294.86 -1.50525 3.44992 0
M  V30 13337 C 1294 -0.451133 2.73606 0
M  V30 13338 H 1296.95 0.214516 1.57243 0
M  V30 13339 H 1296.98 -1.88208 3.30693 0
M  V30 13340 H 1296.49 -0.149048 3.87814 0
M  V30 13341 H 1294.59 -2.39298 2.856 0
M  V30 13342 H 1294.7 -1.54076 4.53649 0
M  V30 13343 H 1293.07 -0.910135 2.37884 0
M  V30 13344 H 1293.85 0.406152 3.40889 0
M  V30 13345 N 1296.29 -1.55015 -0.284256 0
M  V30 13346 C 1297.23 -1.83517 -1.3731 0
M  V30 13347 C 1298.24 -0.719009 -1.46062 0
M  V30 13348 O 1299.43 -0.996719 -1.4808 0
M  V30 13349 C 1296.53 -1.97309 -2.7554 0
M  V30 13350 C 1295.7 -3.2787 -2.89517 0
M  V30 13351 C 1294.76 -3.31868 -4.08351 0
M  V30 13352 O 1293.79 -4.05309 -3.99642 0
M  V30 13353 N 1294.99 -2.5846 -5.19787 0
M  V30 13354 H 1297.75 -2.77495 -1.1321 0
M  V30 13355 H 1295.31 -1.54795 -0.474359 0
M  V30 13356 H 1297.31 -1.97367 -3.53311 0
M  V30 13357 H 1295.88 -1.10249 -2.92513 0
M  V30 13358 H 1295.1 -3.40445 -1.98722 0
M  V30 13359 H 1296.38 -4.13996 -2.95779 0
M  V30 13360 H 1295.78 -1.98455 -5.29747 0
M  V30 13361 H 1294.34 -2.64253 -5.9583 0
M  V30 13362 N 1297.77 0.548248 -1.47757 0
M  V30 13363 C 1299.02 1.30458 -1.56052 0
M  V30 13364 C 1299.37 1.91096 -0.22363 0
M  V30 13365 O 1298.67 1.75375 0.771644 0
M  V30 13366 C 1298.86 2.42911 -2.62162 0
M  V30 13367 C 1298.69 1.93293 -4.06039 0
M  V30 13368 C 1297.46 1.76727 -4.73387 0
M  V30 13369 C 1299.66 1.47214 -4.9278 0
M  V30 13370 N 1297.64 1.21543 -6.01748 0
M  V30 13371 C 1299.01 1.03855 -6.1124 0
M  V30 13372 C 1301.06 1.35348 -4.79151 0
M  V30 13373 C 1299.77 0.498086 -7.17573 0
M  V30 13374 C 1301.79 0.827023 -5.85589 0
M  V30 13375 C 1301.16 0.40341 -7.03244 0
M  V30 13376 H 1297.25 0.469075 -0.625694 0
M  V30 13377 H 1299.84 0.620405 -1.84551 0
M  V30 13378 H 1298.01 3.08847 -2.35516 0
M  V30 13379 H 1299.74 3.09924 -2.60249 0
M  V30 13380 H 1296.5 1.99709 -4.29433 0
M  V30 13381 H 1296.92 0.960132 -6.70157 0
M  V30 13382 H 1301.56 1.66708 -3.88546 0
M  V30 13383 H 1299.28 0.172123 -8.07917 0
M  V30 13384 H 1302.87 0.738641 -5.77092 0
M  V30 13385 H 1301.75 0.00236338 -7.842 0
M  V30 13386 N 1299.25 1.36039 0.795694 0
M  V30 13387 C 1300.5 1.30112 1.5556 0
M  V30 13388 C 1300.83 -0.121197 1.93821 0
M  V30 13389 O 1300.1 -1.07313 1.62216 0
M  V30 13390 C 1300.39 2.21792 2.8369 0
M  V30 13391 C 1300.24 3.72691 2.51836 0
M  V30 13392 C 1301.56 2.12365 3.85472 0
M  V30 13393 H 1298.68 0.473971 0.564376 0
M  V30 13394 H 1301.32 1.66536 0.91465 0
M  V30 13395 H 1299.47 1.9086 3.38386 0
M  V30 13396 H 1301.14 4.14115 2.0324 0
M  V30 13397 H 1299.38 3.92436 1.84869 0
M  V30 13398 H 1300.06 4.32242 3.43323 0
M  V30 13399 H 1302.53 2.3958 3.40207 0
M  V30 13400 H 1301.41 2.78695 4.72885 0
M  V30 13401 H 1301.67 1.10898 4.27965 0
M  V30 13402 N 1300.73 -1.01913 1.20215 0
M  V30 13403 C 1301.96 -1.79076 1.03631 0
M  V30 13404 C 1302.37 -1.84192 -0.414583 0
M  V30 13405 O 1301.73 -1.29306 -1.28788 0
M  V30 13406 C 1301.78 -3.23665 1.61008 0
M  V30 13407 O 1301.5 -3.18873 3.00419 0
M  V30 13408 C 1303 -4.17387 1.49342 0
M  V30 13409 H 1300.22 -0.563241 0.364692 0
M  V30 13410 H 1302.77 -1.283 1.59246 0
M  V30 13411 H 1300.92 -3.71597 1.09518 0
M  V30 13412 H 1301.33 -4.09609 3.27598 0
M  V30 13413 H 1302.81 -5.16691 1.94253 0
M  V30 13414 H 1303.29 -4.36935 0.445493 0
M  V30 13415 H 1303.89 -3.75335 2.0001 0
M  V30 13416 N 1302.21 -1.00763 -1.2118 0
M  V30 13417 C 1303.45 -0.690459 -1.8994 0
M  V30 13418 C 1303.78 0.781464 -1.78656 0
M  V30 13419 O 1303.05 1.56135 -1.18316 0
M  V30 13420 H 1301.63 -0.252397 -0.703068 0
M  V30 13421 H 1304.29 -1.2773 -1.47211 0
M  V30 13422 H 1303.38 -0.96594 -2.96776 0
M  V30 13423 N 1303.68 1.3679 -0.7827 0
M  V30 13424 C 1305.1 1.82006 -0.41603 0
M  V30 13425 C 1305.45 1.65151 1.05922 0
M  V30 13426 O 1304.57 1.1687 1.82127 0
M  V30 13427 C 1305.17 3.30432 -0.748353 0
M  V30 13428 C 1303.73 3.73883 -0.4346 0
M  V30 13429 C 1302.87 2.59159 -0.986505 0
M  V30 13430 H 1305.82 1.25107 -0.976423 0
M  V30 13431 H 1305.84 3.80482 -0.036985 0
M  V30 13432 H 1305.36 3.42667 -1.82212 0
M  V30 13433 H 1303.46 3.67211 0.631401 0
M  V30 13434 H 1303.57 4.69577 -0.950511 0
M  V30 13435 H 1301.93 2.51377 -0.410108 0
M  V30 13436 H 1302.72 2.74182 -2.06589 0
M  V30 13437 N 1305.16 0.53415 1.48272 0
M  V30 13438 C 1306.41 0.00971554 2.03398 0
M  V30 13439 C 1306.76 -1.316 1.40353 0
M  V30 13440 O 1306.06 -1.83786 0.541589 0
M  V30 13441 C 1306.25 -0.165144 3.57018 0
M  V30 13442 C 1306.08 1.14208 4.34956 0
M  V30 13443 C 1304.85 1.70309 4.75734 0
M  V30 13444 C 1307.05 2.05371 4.71516 0
M  V30 13445 N 1305.03 2.95276 5.38224 0
M  V30 13446 C 1306.4 3.14915 5.34068 0
M  V30 13447 C 1308.46 2.05647 4.53447 0
M  V30 13448 C 1307.16 4.24804 5.8046 0
M  V30 13449 C 1309.18 3.14533 5.00823 0
M  V30 13450 C 1308.55 4.22795 5.63404 0
M  V30 13451 H 1304.65 0.0451562 0.780695 0
M  V30 13452 H 1307.23 0.71635 1.81043 0
M  V30 13453 H 1305.4 -0.840869 3.79189 0
M  V30 13454 H 1307.13 -0.68956 3.98782 0
M  V30 13455 H 1303.89 1.24395 4.56971 0
M  V30 13456 H 1304.31 3.58911 5.74031 0
M  V30 13457 H 1308.95 1.23239 4.0444 0
M  V30 13458 H 1306.67 5.07987 6.2847 0
M  V30 13459 H 1310.26 3.15806 4.88629 0
M  V30 13460 H 1309.14 5.05661 5.99397 0
M  V30 13461 N 1306.64 -1.55279 0.269478 0
M  V30 13462 C 1307.57 -2.25278 -0.614188 0
M  V30 13463 C 1308.55 -1.24092 -1.1634 0
M  V30 13464 O 1309.74 -1.52799 -1.19858 0
M  V30 13465 C 1306.87 -2.96956 -1.80096 0
M  V30 13466 C 1305.82 -4.05021 -1.38353 0
M  V30 13467 C 1305.15 -4.64244 -2.65295 0
M  V30 13468 C 1306.45 -5.19523 -0.537886 0
M  V30 13469 H 1308.14 -2.99385 -0.0304397 0
M  V30 13470 H 1305.69 -1.43994 -0.0132004 0
M  V30 13471 H 1307.64 -3.44633 -2.42499 0
M  V30 13472 H 1306.36 -2.20374 -2.41045 0
M  V30 13473 H 1305.02 -3.58146 -0.78273 0
M  V30 13474 H 1304.67 -3.84337 -3.2449 0
M  V30 13475 H 1304.37 -5.37208 -2.38079 0
M  V30 13476 H 1305.89 -5.14668 -3.28557 0
M  V30 13477 H 1307.31 -5.63287 -1.06677 0
M  V30 13478 H 1305.71 -5.99014 -0.360845 0
M  V30 13479 H 1306.78 -4.82857 0.444672 0
M  V30 13480 N 1308.12 0.00332656 -1.576 0
M  V30 13481 C 1309.08 0.980628 -2.07163 0
M  V30 13482 C 1310.08 1.27455 -0.980402 0
M  V30 13483 O 1311.27 1.22029 -1.24317 0
M  V30 13484 C 1308.4 2.30647 -2.51028 0
M  V30 13485 H 1309.6 0.551982 -2.94776 0
M  V30 13486 H 1307.15 0.250728 -1.54276 0
M  V30 13487 H 1307.88 2.78207 -1.66647 0
M  V30 13488 H 1307.67 2.10635 -3.30719 0
M  V30 13489 H 1309.16 3.00761 -2.89711 0
M  V30 13490 N 1309.6 1.55164 0.276031 0
M  V30 13491 C 1310.84 1.77377 1.01572 0
M  V30 13492 C 1311.2 0.56142 1.83608 0
M  V30 13493 O 1312.4 0.661745 2.60527 0
M  V30 13494 C 1310.67 3.0412 1.87738 0
M  V30 13495 S 1312.23 3.4744 2.68013 0
M  V30 13496 H 1309.05 0.62326 0.342153 0
M  V30 13497 H 1311.65 1.9339 0.286456 0
M  V30 13498 H 1310.36 3.90453 1.26389 0
M  V30 13499 H 1309.89 2.90764 2.6499 0
M  V30 13500 H 1311.9 3.06474 3.90241 0
M  V30 13501 N 1311.07 -0.540404 1.48045 0
M  V30 13502 C 1312.3 -1.32656 1.59427 0
M  V30 13503 C 1312.72 -1.86419 0.250924 0
M  V30 13504 O 1312.08 -1.63861 -0.775838 0
M  V30 13505 C 1312.13 -2.46062 2.63602 0
M  V30 13506 O 1311.23 -3.48794 2.20038 0
M  V30 13507 H 1310.58 -0.393334 0.534962 0
M  V30 13508 H 1313.11 -0.651363 1.93955 0
M  V30 13509 H 1313.12 -2.92396 2.84549 0
M  V30 13510 H 1311.79 -2.06291 3.61133 0
M  V30 13511 H 1310.37 -3.0865 2.0926 0
M  V30 13512 N 1312.55 -1.36459 -0.788468 0
M  V30 13513 C 1313.97 -1.16893 -1.08666 0
M  V30 13514 C 1314.17 0.00633808 -2.01499 0
M  V30 13515 O 1313.22 0.671417 -2.4341 0
M  V30 13516 C 1314.54 -2.48018 -1.70022 0
M  V30 13517 C 1316.09 -2.5439 -1.82358 0
M  V30 13518 C 1316.56 -3.85605 -2.47129 0
M  V30 13519 N 1318.05 -3.86956 -2.54597 0
M  V30 13520 C 1318.79 -4.85224 -3.05525 0
M  V30 13521 N 1318.28 -5.93885 -3.56753 0
M  V30 13522 N 1320.08 -4.72643 -3.04246 0
M  V30 13523 H 1312.23 -2.11705 -0.171733 0
M  V30 13524 H 1314.49 -0.937784 -0.1388 0
M  V30 13525 H 1314.2 -3.34292 -1.09277 0
M  V30 13526 H 1314.07 -2.63894 -2.69518 0
M  V30 13527 H 1316.46 -1.68534 -2.4224 0
M  V30 13528 H 1316.54 -2.42414 -0.816651 0
M  V30 13529 H 1316.18 -4.71868 -1.87891 0
M  V30 13530 H 1316.11 -3.94878 -3.48395 0
M  V30 13531 H 1318.6 -3.08453 -2.18323 0
M  V30 13532 H 1318.92 -6.64839 -3.93966 0
M  V30 13533 H 1317.26 -5.97553 -3.54902 0
M  V30 13534 H 1320.45 -3.86883 -2.63513 0
M  V30 13535 H 1320.62 -5.49385 -3.43627 0
M  V30 13536 N 1314.03 1.01274 -1.20754 0
M  V30 13537 C 1315.26 1.78524 -1.04579 0
M  V30 13538 C 1315.67 1.84409 0.404809 0
M  V30 13539 O 1315.03 1.29987 1.281 0
M  V30 13540 C 1315.08 3.22806 -1.62722 0
M  V30 13541 O 1314.8 3.17276 -3.02106 0
M  V30 13542 C 1316.3 4.16589 -1.51553 0
M  V30 13543 H 1313.52 0.561299 -0.367674 0
M  V30 13544 H 1316.07 1.27454 -1.59924 0
M  V30 13545 H 1314.22 3.71011 -1.11487 0
M  V30 13546 H 1314.64 4.07866 -3.29766 0
M  V30 13547 H 1316.11 5.15654 -1.9699 0
M  V30 13548 H 1316.59 4.36692 -0.468659 0
M  V30 13549 H 1317.19 3.74269 -2.01998 0
M  V30 13550 N 1315.51 1.01404 1.20644 0
M  V30 13551 C 1316.75 0.710412 1.91657 0
M  V30 13552 C 1317.11 -0.745972 1.76916 0
M  V30 13553 O 1318.31 -1.162 2.42386 0
M  V30 13554 C 1316.59 1.13093 3.39035 0
M  V30 13555 S 1318.14 0.948885 4.28418 0
M  V30 13556 H 1314.96 0.259074 0.662119 0
M  V30 13557 H 1317.56 1.30077 1.45946 0
M  V30 13558 H 1316.27 2.18682 3.47284 0
M  V30 13559 H 1315.8 0.533248 3.89769 0
M  V30 13560 H 1317.81 -0.149 4.95976 0
M  V30 13561 N 1316.99 -1.36373 0.789944 0
M  V30 13562 C 1318.26 -1.9349 0.286543 0
M  V30 13563 C 1318.64 -1.7218 -1.22136 0
M  V30 13564 O 1317.99 -1.08106 -2.01309 0
M  V30 13565 C 1318.2 -3.42316 0.679749 0
M  V30 13566 C 1319.55 -4.19442 0.659791 0
M  V30 13567 O 1320.57 -3.50758 0.620256 0
M  V30 13568 O 1319.43 -5.41957 0.703159 0
M  V30 13569 H 1316.53 -0.823942 0.0710537 0
M  V30 13570 H 1319.07 -1.45551 0.872523 0
M  V30 13571 H 1317.85 -3.51485 1.7197 0
M  V30 13572 H 1317.47 -3.97542 0.0676823 0
M  V30 13573 N 1318.47 -0.542005 -1.47987 0
M  V30 13574 C 1319.69 -0.016717 -2.06893 0
M  V30 13575 C 1320.11 1.27015 -1.39687 0
M  V30 13576 O 1319.47 1.75845 -0.488326 0
M  V30 13577 C 1319.52 0.198437 -3.60955 0
M  V30 13578 O 1319.24 -1.03746 -4.25639 0
M  V30 13579 C 1320.74 0.762741 -4.36689 0
M  V30 13580 H 1317.96 -0.0389497 -0.669869 0
M  V30 13581 H 1320.5 -0.751082 -1.90208 0
M  V30 13582 H 1318.66 0.882884 -3.77205 0
M  V30 13583 H 1319.07 -0.82568 -5.1796 0
M  V30 13584 H 1320.55 0.862649 -5.45218 0
M  V30 13585 H 1321.02 1.77049 -4.01933 0
M  V30 13586 H 1321.63 0.114478 -4.25146 0
M  V30 13587 N 1319.94 1.55134 -0.277709 0
M  V30 13588 C 1321.19 1.99259 0.337662 0
M  V30 13589 C 1321.51 1.16755 1.56183 0
M  V30 13590 O 1320.78 0.257707 1.94198 0
M  V30 13591 H 1319.36 0.735995 0.127751 0
M  V30 13592 H 1322.02 1.91087 -0.383646 0
M  V30 13593 H 1321.12 3.05763 0.625747 0
M  V30 13594 N 1321.42 0.00503138 1.57599 0
M  V30 13595 C 1322.67 -0.674107 1.91905 0
M  V30 13596 C 1323.02 -1.71101 0.8799 0
M  V30 13597 O 1322.32 -1.913 -0.107261 0
M  V30 13598 C 1322.51 -1.35485 3.30724 0
M  V30 13599 C 1322.34 -0.385403 4.48045 0
M  V30 13600 C 1321.11 0.00602574 5.053 0
M  V30 13601 C 1323.31 0.350442 5.13105 0
M  V30 13602 N 1321.29 0.97316 6.06138 0
M  V30 13603 C 1322.66 1.1721 6.0882 0
M  V30 13604 C 1324.71 0.413738 4.96178 0
M  V30 13605 C 1323.42 2.05129 6.89431 0
M  V30 13606 C 1325.44 1.28018 5.77378 0
M  V30 13607 C 1324.81 2.08967 6.7269 0
M  V30 13608 H 1320.9 -0.219721 0.750498 0
M  V30 13609 H 1323.49 0.0665598 1.94586 0
M  V30 13610 H 1321.66 -2.06578 3.28907 0
M  V30 13611 H 1323.39 -1.98909 3.52445 0
M  V30 13612 H 1320.15 -0.363403 4.72204 0
M  V30 13613 H 1320.57 1.45225 6.6124 0
M  V30 13614 H 1325.21 -0.19783 4.22337 0
M  V30 13615 H 1322.93 2.67351 7.62594 0
M  V30 13616 H 1326.52 1.33313 5.66321 0
M  V30 13617 H 1325.4 2.74926 7.34428 0
M  V30 13618 N 1322.9 -1.55308 -0.267798 0
M  V30 13619 C 1323.85 -1.84933 -1.33356 0
M  V30 13620 C 1324.83 -0.708605 -1.44456 0
M  V30 13621 O 1326.03 -0.970069 -1.4805 0
M  V30 13622 C 1323.15 -2.12927 -2.69289 0
M  V30 13623 C 1322.24 -3.33273 -2.62279 0
M  V30 13624 N 1322.63 -4.53055 -2.24889 0
M  V30 13625 C 1320.93 -3.35966 -2.93331 0
M  V30 13626 C 1321.63 -5.35156 -2.27998 0
M  V30 13627 N 1320.61 -4.73692 -2.66677 0
M  V30 13628 H 1324.41 -2.75086 -1.03465 0
M  V30 13629 H 1321.92 -1.55254 -0.476435 0
M  V30 13630 H 1323.92 -2.32309 -3.46177 0
M  V30 13631 H 1322.58 -1.24061 -3.00065 0
M  V30 13632 H 1323.59 -4.79059 -1.9678 0
M  V30 13633 H 1320.27 -2.57308 -3.28784 0
M  V30 13634 H 1321.66 -6.4094 -2.01608 0
M  V30 13635 N 1324.38 0.532545 -1.4833 0
M  V30 13636 C 1325.61 1.31331 -1.59874 0
M  V30 13637 C 1326.02 1.87028 -0.258037 0
M  V30 13638 O 1325.38 1.66272 0.752317 0
M  V30 13639 C 1325.43 2.46596 -2.64334 0
M  V30 13640 O 1325.15 1.93195 -3.93201 0
M  V30 13641 C 1326.65 3.38454 -2.86294 0
M  V30 13642 H 1323.87 0.399476 -0.539129 0
M  V30 13643 H 1326.41 0.642696 -1.94138 0
M  V30 13644 H 1324.57 3.09548 -2.32936 0
M  V30 13645 H 1324.98 2.68627 -4.50489 0
M  V30 13646 H 1326.46 4.15687 -3.63192 0
M  V30 13647 H 1326.93 3.93526 -1.95022 0
M  V30 13648 H 1327.54 2.81297 -3.18986 0
M  V30 13649 N 1325.86 1.36875 0.78122 0
M  V30 13650 C 1327.27 1.17467 1.08044 0
M  V30 13651 C 1327.47 0.00434799 2.015 0
M  V30 13652 O 1326.53 -0.658499 2.43762 0
M  V30 13653 C 1327.84 2.48917 1.68704 0
M  V30 13654 C 1329.39 2.55354 1.81007 0
M  V30 13655 C 1329.86 3.8691 2.45081 0
M  V30 13656 N 1331.35 3.88301 2.52541 0
M  V30 13657 C 1332.09 4.86837 3.02947 0
M  V30 13658 N 1331.59 5.95768 3.53598 0
M  V30 13659 N 1333.38 4.74249 3.01735 0
M  V30 13660 H 1325.53 2.11793 0.160503 0
M  V30 13661 H 1327.79 0.938507 0.133825 0
M  V30 13662 H 1327.5 3.34867 1.07503 0
M  V30 13663 H 1327.37 2.65319 2.68115 0
M  V30 13664 H 1329.76 1.69816 2.41343 0
M  V30 13665 H 1329.84 2.42843 0.803783 0
M  V30 13666 H 1329.48 4.72858 1.85386 0
M  V30 13667 H 1329.41 3.9672 3.46296 0
M  V30 13668 H 1331.91 3.09607 2.16684 0
M  V30 13669 H 1332.22 6.66918 3.90435 0
M  V30 13670 H 1330.56 5.99426 3.51728 0
M  V30 13671 H 1333.75 3.88275 2.61458 0
M  V30 13672 H 1333.93 5.512 3.40709 0
M  V30 13673 N 1327.33 -1.00632 1.21289 0
M  V30 13674 C 1328.56 -1.77967 1.05524 0
M  V30 13675 C 1328.98 -1.84621 -0.395023 0
M  V30 13676 O 1328.33 -1.30664 -1.27409 0
M  V30 13677 C 1328.38 -3.21939 1.64432 0
M  V30 13678 O 1328.11 -3.15669 3.03784 0
M  V30 13679 C 1329.61 -4.1578 1.5376 0
M  V30 13680 H 1326.83 -0.559341 0.370646 0
M  V30 13681 H 1329.37 -1.26604 1.60598 0
M  V30 13682 H 1327.53 -3.70415 1.13453 0
M  V30 13683 H 1327.94 -4.06112 3.31924 0
M  V30 13684 H 1329.41 -5.14602 1.99722 0
M  V30 13685 H 1329.89 -4.36438 0.491811 0
M  V30 13686 H 1330.5 -3.73192 2.0398 0
M  V30 13687 N 1328.81 -1.02043 -1.20104 0
M  V30 13688 C 1330.06 -0.713027 -1.89852 0
M  V30 13689 C 1330.39 0.755767 -1.7889 0
M  V30 13690 O 1329.67 1.54948 -1.17564 0
M  V30 13691 C 1329.95 -1.15417 -3.41103 0
M  V30 13692 C 1329.8 -2.68355 -3.60979 0
M  V30 13693 C 1331.12 -0.728389 -4.34031 0
M  V30 13694 H 1328.24 -0.260502 -0.689426 0
M  V30 13695 H 1330.88 -1.26885 -1.41422 0
M  V30 13696 H 1329.03 -0.68127 -3.8248 0
M  V30 13697 H 1330.7 -3.23526 -3.28829 0
M  V30 13698 H 1328.95 -3.09148 -3.04319 0
M  V30 13699 H 1329.62 -2.94276 -4.67018 0
M  V30 13700 H 1332.09 -1.13499 -4.00321 0
M  V30 13701 H 1330.97 -1.06504 -5.38468 0
M  V30 13702 H 1331.23 0.369736 -4.40551 0
M  V30 13703 N 1330.29 1.35952 -0.797165 0
M  V30 13704 C 1331.22 2.28649 -0.15877 0
M  V30 13705 C 1332.24 1.49842 0.636481 0
M  V30 13706 O 1333.42 1.72191 0.47039 0
M  V30 13707 C 1330.52 3.29373 0.797913 0
M  V30 13708 C 1329.7 4.3737 0.0510574 0
M  V30 13709 C 1328.76 5.18009 0.924826 0
M  V30 13710 O 1327.78 5.67935 0.379223 0
M  V30 13711 N 1328.98 5.352 2.24813 0
M  V30 13712 H 1331.75 2.84075 -0.955056 0
M  V30 13713 H 1329.31 1.48201 -0.651767 0
M  V30 13714 H 1331.3 3.80209 1.38646 0
M  V30 13715 H 1329.87 2.74531 1.49504 0
M  V30 13716 H 1329.09 3.87594 -0.718633 0
M  V30 13717 H 1330.38 5.0668 -0.464025 0
M  V30 13718 H 1329.78 4.96266 2.71545 0
M  V30 13719 H 1328.34 5.89252 2.78614 0
M  V30 13720 N 1331.77 0.549846 1.47697 0
M  V30 13721 C 1333.01 0.0253105 2.04384 0
M  V30 13722 C 1333.37 -1.29692 1.41576 0
M  V30 13723 O 1334.57 -1.9087 1.89267 0
M  V30 13724 C 1332.84 -0.0736795 3.57324 0
M  V30 13725 S 1334.4 -0.545405 4.35397 0
M  V30 13726 H 1331.22 0.0215991 0.710672 0
M  V30 13727 H 1333.82 0.734912 1.81161 0
M  V30 13728 H 1332.53 0.893144 4.00563 0
M  V30 13729 H 1332.06 -0.80706 3.85033 0
M  V30 13730 H 1334.07 -1.80644 4.6215 0
M  V30 13731 N 1333.25 -1.54984 0.285932 0
M  V30 13732 C 1334.18 -2.20365 -0.630236 0
M  V30 13733 C 1335.19 -1.19168 -1.10918 0
M  V30 13734 O 1336.38 -1.45839 -1.02923 0
M  V30 13735 C 1333.48 -2.8244 -1.87299 0
M  V30 13736 C 1332.65 -4.09429 -1.53905 0
M  V30 13737 C 1331.71 -4.55449 -2.63538 0
M  V30 13738 O 1330.74 -5.20985 -2.29267 0
M  V30 13739 N 1331.94 -4.26498 -3.93802 0
M  V30 13740 H 1334.71 -2.99617 -0.0706044 0
M  V30 13741 H 1332.27 -1.61543 0.107486 0
M  V30 13742 H 1334.26 -3.10167 -2.59959 0
M  V30 13743 H 1332.83 -2.07117 -2.34139 0
M  V30 13744 H 1332.05 -3.88875 -0.645774 0
M  V30 13745 H 1333.34 -4.92146 -1.29111 0
M  V30 13746 H 1332.73 -3.73964 -4.24461 0
M  V30 13747 H 1331.29 -4.5897 -4.62807 0
M  V30 13748 N 1334.72 -0.0133892 -1.57594 0
M  V30 13749 C 1336 0.706416 -1.82398 0
M  V30 13750 C 1336.38 1.91236 -0.893983 0
M  V30 13751 O 1335.73 2.28436 0.0541675 0
M  V30 13752 C 1335.94 1.09951 -3.31228 0
M  V30 13753 C 1337.29 1.49776 -3.97306 0
M  V30 13754 O 1338.31 1.19293 -3.3563 0
M  V30 13755 O 1337.17 2.06511 -5.0598 0
M  V30 13756 H 1334.26 0.345131 -0.751541 0
M  V30 13757 H 1336.81 -0.0398687 -1.69653 0
M  V30 13758 H 1335.58 0.240514 -3.9056 0
M  V30 13759 H 1335.21 1.90447 -3.49021 0
M  V30 13760 N 1336.2 1.55448 0.259558 0
M  V30 13761 C 1337.45 1.76337 0.987396 0
M  V30 13762 C 1337.77 0.57505 1.86328 0
M  V30 13763 O 1337.04 -0.409621 1.9157 0
M  V30 13764 H 1335.62 0.650312 0.367565 0
M  V30 13765 H 1338.28 1.9287 0.280551 0
M  V30 13766 H 1337.38 2.66975 1.61651 0
M  V30 13767 N 1337.68 -0.524672 1.4861 0
M  V30 13768 C 1338.63 -1.64965 1.6398 0
M  V30 13769 C 1339.62 -1.61663 0.506118 0
M  V30 13770 O 1340.83 -1.66456 0.685013 0
M  V30 13771 H 1337.2 -0.546419 0.516653 0
M  V30 13772 H 1339.17 -1.49146 2.58453 0
M  V30 13773 C 1337.92 -3.03215 1.70165 0
M  V30 13774 H 1337.25 -3.06451 2.56764 0
M  V30 13775 H 1338.69 -3.8153 1.84962 0
M  V30 13776 C 1337.15 -3.33996 0.44143 0
M  V30 13777 O 1337.68 -3.99246 -0.443356 0
M  V30 13778 N 1335.88 -2.88925 0.311518 0
M  V30 13779 H 1335.43 -2.36003 1.0325 0
M  V30 13780 H 1335.39 -3.09889 -0.530655 0
M  V30 13781 N 1339.16 -1.37287 -0.77395 0
M  V30 13782 C 1340.57 -1.18039 -1.0742 0
M  V30 13783 C 1340.77 -0.0150339 -2.01494 0
M  V30 13784 O 1339.83 0.645562 -2.44108 0
M  V30 13785 C 1341.14 -2.49808 -1.67382 0
M  V30 13786 C 1342.69 -2.5631 -1.7965 0
M  V30 13787 C 1343.17 -3.88204 -2.43025 0
M  V30 13788 N 1344.66 -3.89634 -2.50478 0
M  V30 13789 C 1345.39 -4.88437 -3.00361 0
M  V30 13790 N 1344.89 -5.97635 -3.50434 0
M  V30 13791 N 1346.68 -4.75843 -2.99215 0
M  V30 13792 H 1338.83 -2.11875 -0.149269 0
M  V30 13793 H 1341.1 -0.939203 -0.128846 0
M  V30 13794 H 1340.8 -3.35433 -1.05726 0
M  V30 13795 H 1340.68 -2.66737 -2.66704 0
M  V30 13796 H 1343.06 -1.71094 -2.40439 0
M  V30 13797 H 1343.14 -2.43266 -0.790894 0
M  V30 13798 H 1342.79 -4.73834 -1.82876 0
M  V30 13799 H 1342.72 -3.98551 -3.44187 0
M  V30 13800 H 1345.21 -3.10751 -2.15039 0
M  V30 13801 H 1345.52 -6.6898 -3.86893 0
M  V30 13802 H 1343.87 -6.01283 -3.48545 0
M  V30 13803 H 1347.06 -3.89656 -2.59395 0
M  V30 13804 H 1347.23 -5.52999 -3.37781 0
M  V30 13805 N 1340.64 0.999871 -1.21821 0
M  V30 13806 C 1341.58 2.08864 -0.98206 0
M  V30 13807 C 1342.55 1.65835 0.0937677 0
M  V30 13808 O 1343.74 1.90722 -0.0544038 0
M  V30 13809 C 1340.88 3.40553 -0.558382 0
M  V30 13810 C 1339.99 3.96964 -1.70422 0
M  V30 13811 C 1339.13 5.16782 -1.2292 0
M  V30 13812 C 1338.17 5.65315 -2.34703 0
M  V30 13813 N 1337.3 6.76379 -1.88299 0
M  V30 13814 H 1342.14 2.28399 -1.9141 0
M  V30 13815 H 1339.68 1.11984 -0.953837 0
M  V30 13816 H 1341.64 4.16163 -0.293955 0
M  V30 13817 H 1340.27 3.2104 0.336656 0
M  V30 13818 H 1339.32 3.18291 -2.08315 0
M  V30 13819 H 1340.63 4.2897 -2.54531 0
M  V30 13820 H 1339.79 5.99657 -0.92174 0
M  V30 13821 H 1338.52 4.86383 -0.358222 0
M  V30 13822 H 1337.53 4.81033 -2.66246 0
M  V30 13823 H 1338.75 5.97742 -3.22306 0
M  V30 13824 H 1336.7 6.47775 -1.03552 0
M  V30 13825 H 1336.62 7.07666 -2.65978 0
M  V30 13826 H 1337.89 7.62776 -1.60601 0
M  V30 13827 N 1342.11 1.02678 1.19562 0
M  V30 13828 C 1343.04 0.626359 2.24942 0
M  V30 13829 C 1344.03 -0.363612 1.66168 0
M  V30 13830 O 1345.21 -0.246793 1.92625 0
M  V30 13831 C 1342.34 -0.0257912 3.4729 0
M  V30 13832 C 1341.29 0.886237 4.18724 0
M  V30 13833 C 1340.62 0.0993081 5.34608 0
M  V30 13834 C 1341.92 2.19901 4.73752 0
M  V30 13835 H 1343.61 1.50729 2.58691 0
M  V30 13836 H 1341.16 0.726195 1.24348 0
M  V30 13837 H 1343.11 -0.317545 4.20202 0
M  V30 13838 H 1341.84 -0.941511 3.12735 0
M  V30 13839 H 1340.5 1.16215 3.47692 0
M  V30 13840 H 1340.14 -0.81838 4.96298 0
M  V30 13841 H 1339.84 0.706776 5.83334 0
M  V30 13842 H 1341.37 -0.185754 6.10317 0
M  V30 13843 H 1342.78 1.96892 5.3843 0
M  V30 13844 H 1341.18 2.75821 5.32956 0
M  V30 13845 H 1342.25 2.85509 3.91934 0
M  V30 13846 N 1343.59 -1.35528 0.804364 0
M  V30 13847 C 1344.56 -2.28153 0.21885 0
M  V30 13848 C 1345.56 -1.49486 -0.592511 0
M  V30 13849 O 1346.75 -1.69274 -0.411319 0
M  V30 13850 C 1343.88 -3.33736 -0.695195 0
M  V30 13851 H 1345.07 -2.81446 1.03576 0
M  V30 13852 H 1342.62 -1.45345 0.574854 0
M  V30 13853 H 1343.36 -2.85625 -1.53587 0
M  V30 13854 H 1343.14 -3.91931 -0.115143 0
M  V30 13855 H 1344.63 -4.02872 -1.09925 0
M  V30 13856 N 1345.07 -0.557671 -1.47404 0
M  V30 13857 C 1346.02 0.189765 -2.30019 0
M  V30 13858 C 1346.99 0.907923 -1.3909 0
M  V30 13859 O 1348.17 0.903528 -1.68051 0
M  V30 13860 C 1345.31 1.21348 -3.23061 0
M  V30 13861 C 1344.43 0.501343 -4.29081 0
M  V30 13862 C 1343.56 1.51039 -5.09275 0
M  V30 13863 C 1342.6 0.783254 -6.07068 0
M  V30 13864 N 1341.74 1.73916 -6.80219 0
M  V30 13865 H 1346.58 -0.520856 -2.93413 0
M  V30 13866 H 1344.11 -0.268686 -1.44625 0
M  V30 13867 H 1346.07 1.81961 -3.75428 0
M  V30 13868 H 1344.7 1.89213 -2.61531 0
M  V30 13869 H 1343.75 -0.219317 -3.79767 0
M  V30 13870 H 1345.07 -0.0682656 -4.98753 0
M  V30 13871 H 1344.22 2.19004 -5.65793 0
M  V30 13872 H 1342.96 2.11392 -4.39505 0
M  V30 13873 H 1341.96 0.0896883 -5.49727 0
M  V30 13874 H 1343.19 0.185464 -6.78847 0
M  V30 13875 H 1341.14 2.33125 -6.13179 0
M  V30 13876 H 1341.05 1.22171 -7.46063 0
M  V30 13877 H 1342.32 2.40993 -7.41311 0
M  V30 13878 N 1346.55 1.54831 -0.294147 0
M  V30 13879 C 1347.8 1.99606 0.316509 0
M  V30 13880 C 1348.12 1.18405 1.54936 0
M  V30 13881 O 1347.39 0.278289 1.93913 0
M  V30 13882 H 1345.97 0.737309 0.119938 0
M  V30 13883 H 1348.63 1.90669 -0.403891 0
M  V30 13884 H 1347.73 3.06409 0.593282 0
M  V30 13885 N 1348.03 0.0217466 1.57585 0
M  V30 13886 C 1349.27 -0.662733 1.93358 0
M  V30 13887 C 1349.63 -1.69715 0.897829 0
M  V30 13888 O 1350.83 -2.43358 1.14151 0
M  V30 13889 C 1349.1 -1.26973 3.34085 0
M  V30 13890 S 1350.66 -1.97631 3.91775 0
M  V30 13891 H 1347.48 -0.218386 0.67663 0
M  V30 13892 H 1350.08 0.0836466 1.95321 0
M  V30 13893 H 1348.79 -0.504339 4.07289 0
M  V30 13894 H 1348.32 -2.05357 3.35547 0
M  V30 13895 H 1350.33 -3.25393 3.74612 0
M  V30 13896 N 1349.51 -1.55583 -0.251311 0
M  V30 13897 C 1350.92 -1.67693 -0.820719 0
M  V30 13898 C 1351.27 -0.618393 -1.862 0
M  V30 13899 O 1350.39 0.236158 -2.15108 0
M  V30 13900 C 1350.99 -3.04011 -1.49542 0
M  V30 13901 C 1349.55 -3.18075 -2.01259 0
M  V30 13902 C 1348.69 -2.63557 -0.862138 0
M  V30 13903 H 1351.64 -1.58677 -0.0272072 0
M  V30 13904 H 1351.67 -2.9821 -2.36328 0
M  V30 13905 H 1351.18 -3.81032 -0.737323 0
M  V30 13906 H 1349.28 -2.45869 -2.79963 0
M  V30 13907 H 1349.39 -4.24927 -2.213 0
M  V30 13908 H 1347.76 -2.21268 -1.26145 0
M  V30 13909 H 1348.54 -3.431 -0.117196 0
M  V30 13910 N 1350.98 0.516783 -1.48886 0
M  V30 13911 C 1351.91 1.62897 -1.67292 0
M  V30 13912 C 1352.89 1.61903 -0.521671 0
M  V30 13913 O 1354.08 1.78892 -0.755728 0
M  V30 13914 C 1351.21 3.01444 -1.72478 0
M  V30 13915 C 1350.16 3.173 -2.87236 0
M  V30 13916 C 1349.49 4.5704 -2.77522 0
M  V30 13917 C 1350.79 2.98818 -4.28375 0
M  V30 13918 H 1352.48 1.47748 -2.60405 0
M  V30 13919 H 1350.03 0.709361 -1.25316 0
M  V30 13920 H 1351.98 3.79135 -1.83942 0
M  V30 13921 H 1350.71 3.17645 -0.759538 0
M  V30 13922 H 1349.37 2.4203 -2.75349 0
M  V30 13923 H 1349.01 4.70096 -1.78938 0
M  V30 13924 H 1348.71 4.68593 -3.54534 0
M  V30 13925 H 1350.24 5.36813 -2.90972 0
M  V30 13926 H 1351.65 3.66291 -4.41026 0
M  V30 13927 H 1350.05 3.21854 -5.06488 0
M  V30 13928 H 1351.12 1.95102 -4.43918 0
M  V30 13929 N 1352.46 1.37696 0.766659 0
M  V30 13930 C 1353.69 1.36564 1.56093 0
M  V30 13931 C 1354.11 -0.0455828 1.88045 0
M  V30 13932 O 1353.47 -1.02405 1.49609 0
M  V30 13933 C 1353.52 2.21592 2.84481 0
M  V30 13934 O 1352.62 1.62404 3.79076 0
M  V30 13935 H 1351.96 0.466394 0.472623 0
M  V30 13936 H 1354.49 1.81287 0.948486 0
M  V30 13937 H 1354.5 2.34987 3.33534 0
M  V30 13938 H 1353.18 3.24167 2.60554 0
M  V30 13939 H 1351.75 1.58078 3.37736 0
M  V30 13940 N 1353.94 -0.993397 1.22349 0
M  V30 13941 C 1354.87 -2.08543 0.950925 0
M  V30 13942 C 1355.88 -1.62648 -0.0702741 0
M  V30 13943 O 1357.07 -1.77748 0.16367 0
M  V30 13944 C 1354.17 -3.36429 0.408466 0
M  V30 13945 C 1353.35 -4.11356 1.48676 0
M  V30 13946 C 1352.41 -5.17526 0.951478 0
M  V30 13947 O 1351.43 -5.45135 1.63757 0
M  V30 13948 N 1352.63 -5.80055 -0.227378 0
M  V30 13949 H 1355.4 -2.32506 1.89106 0
M  V30 13950 H 1352.96 -1.15911 1.13032 0
M  V30 13951 H 1354.95 -4.04684 0.0356968 0
M  V30 13952 H 1353.52 -3.09534 -0.436767 0
M  V30 13953 H 1352.74 -3.37739 2.03288 0
M  V30 13954 H 1354.03 -4.58187 2.21228 0
M  V30 13955 H 1353.43 -5.59992 -0.801601 0
M  V30 13956 H 1351.98 -6.49546 -0.541538 0
M  V30 13957 N 1355.42 -1.03311 -1.19015 0
M  V30 13958 C 1356.83 -0.750946 -1.4083 0
M  V30 13959 C 1357.03 0.662704 -1.90291 0
M  V30 13960 O 1356.09 1.42806 -2.08237 0
M  V30 13961 C 1357.4 -1.79064 -2.41571 0
M  V30 13962 C 1358.95 -1.81068 -2.55311 0
M  V30 13963 C 1359.43 -2.84008 -3.59309 0
M  V30 13964 N 1360.92 -2.82852 -3.6681 0
M  V30 13965 C 1361.65 -3.59156 -4.46984 0
M  V30 13966 N 1361.15 -4.45188 -5.30829 0
M  V30 13967 N 1362.94 -3.47679 -4.41674 0
M  V30 13968 H 1355.09 -1.94548 -0.852329 0
M  V30 13969 H 1357.35 -0.841344 -0.436858 0
M  V30 13970 H 1357.06 -2.80425 -2.12261 0
M  V30 13971 H 1356.93 -1.61646 -3.40809 0
M  V30 13972 H 1359.32 -0.803825 -2.83941 0
M  V30 13973 H 1359.4 -2.02562 -1.56212 0
M  V30 13974 H 1359.05 -3.84867 -3.3142 0
M  V30 13975 H 1358.98 -2.59771 -4.58069 0
M  V30 13976 H 1361.47 -2.20457 -3.06932 0
M  V30 13977 H 1361.78 -5.00139 -5.89135 0
M  V30 13978 H 1360.13 -4.49259 -5.30275 0
M  V30 13979 H 1363.32 -2.79876 -3.75216 0
M  V30 13980 H 1363.49 -4.07396 -5.03917 0
M  V30 13981 N 1356.9 1.35099 -0.81154 0
M  V30 13982 C 1358.31 1.81082 -0.454543 0
M  V30 13983 C 1358.66 1.67361 1.02395 0
M  V30 13984 O 1357.78 1.20707 1.79607 0
M  V30 13985 C 1358.38 3.2877 -0.818274 0
M  V30 13986 C 1356.94 3.72877 -0.513808 0
M  V30 13987 C 1356.08 2.57008 -1.04125 0
M  V30 13988 H 1359.03 1.23007 -1.00274 0
M  V30 13989 H 1359.06 3.80318 -0.117683 0
M  V30 13990 H 1358.57 3.38725 -1.89439 0
M  V30 13991 H 1356.67 3.68468 0.553368 0
M  V30 13992 H 1356.78 4.67455 -1.0499 0
M  V30 13993 H 1355.15 2.5045 -0.463337 0
M  V30 13994 H 1355.93 2.69738 -2.12358 0
M  V30 13995 N 1358.37 0.56548 1.47106 0
M  V30 13996 C 1359.6 0.0476763 2.07345 0
M  V30 13997 C 1360.02 -1.24032 1.41413 0
M  V30 13998 O 1359.38 -1.74498 0.491941 0
M  V30 13999 C 1359.43 -0.122618 3.60391 0
M  V30 14000 O 1358.53 -1.18326 3.9506 0
M  V30 14001 H 1357.87 0.0550419 0.661715 0
M  V30 14002 H 1360.4 0.78352 1.89003 0
M  V30 14003 H 1360.41 -0.334227 4.06629 0
M  V30 14004 H 1359.09 0.81807 4.07775 0
M  V30 14005 H 1357.67 -0.951481 3.60557 0
M  V30 14006 N 1359.85 -1.54672 0.302354 0
M  V30 14007 C 1360.82 -2.22246 -0.560283 0
M  V30 14008 C 1361.82 -1.20895 -1.06023 0
M  V30 14009 O 1363.01 -1.45621 -0.956047 0
M  V30 14010 C 1360.14 -2.9099 -1.77589 0
M  V30 14011 H 1361.33 -2.99885 0.0301274 0
M  V30 14012 H 1358.88 -1.56209 0.0532036 0
M  V30 14013 H 1359.62 -2.17433 -2.4061 0
M  V30 14014 H 1359.4 -3.65288 -1.42503 0
M  V30 14015 H 1360.89 -3.42535 -2.38871 0
M  V30 14016 N 1361.33 -0.0301034 -1.57571 0
M  V30 14017 C 1362.58 0.648323 -1.91841 0
M  V30 14018 C 1362.91 1.72078 -0.906601 0
M  V30 14019 O 1362.16 1.95518 0.0843233 0
M  V30 14020 C 1362.46 1.30206 -3.32838 0
M  V30 14021 C 1362.13 0.359876 -4.49462 0
M  V30 14022 C 1360.79 0.100552 -4.81095 0
M  V30 14023 C 1363.14 -0.287048 -5.20409 0
M  V30 14024 C 1360.47 -0.813484 -5.81033 0
M  V30 14025 C 1362.82 -1.18914 -6.21323 0
M  V30 14026 C 1361.48 -1.45735 -6.51397 0
M  V30 14027 H 1360.75 0.237238 -0.701997 0
M  V30 14028 H 1363.4 -0.0920804 -1.91278 0
M  V30 14029 H 1361.71 2.11724 -3.29667 0
M  V30 14030 H 1363.4 1.83356 -3.56625 0
M  V30 14031 H 1359.99 0.572172 -4.24764 0
M  V30 14032 H 1364.18 -0.0997611 -4.962 0
M  V30 14033 H 1359.43 -1.02897 -6.02679 0
M  V30 14034 H 1363.61 -1.69661 -6.75417 0
M  V30 14035 H 1361.23 -2.16727 -7.28652 0
M  V30 14036 N 1362.81 1.55714 0.243056 0
M  V30 14037 C 1363.76 1.90638 1.30099 0
M  V30 14038 C 1364.73 0.761049 1.47639 0
M  V30 14039 O 1365.91 1.01505 1.61559 0
M  V30 14040 C 1363.05 2.20985 2.65065 0
M  V30 14041 C 1362.16 3.48343 2.55501 0
M  V30 14042 C 1361.3 3.68241 3.82847 0
M  V30 14043 C 1360.34 4.89187 3.67916 0
M  V30 14044 N 1359.47 5.05586 4.87162 0
M  V30 14045 H 1364.31 2.80857 0.996155 0
M  V30 14046 H 1361.85 1.39027 0.480619 0
M  V30 14047 H 1363.81 2.36585 3.43632 0
M  V30 14048 H 1362.44 1.33966 2.93689 0
M  V30 14049 H 1361.49 3.41054 1.68483 0
M  V30 14050 H 1362.8 4.37057 2.4038 0
M  V30 14051 H 1361.96 3.83822 4.69857 0
M  V30 14052 H 1360.7 2.77768 4.00869 0
M  V30 14053 H 1359.7 4.7358 2.79289 0
M  V30 14054 H 1360.93 5.81124 3.51385 0
M  V30 14055 H 1358.87 4.18051 5.05538 0
M  V30 14056 H 1358.79 5.88395 4.74686 0
M  V30 14057 H 1360.06 5.25582 5.7566 0
M  V30 14058 N 1364.29 -0.50888 1.49158 0
M  V30 14059 C 1365.22 -1.62778 1.61356 0
M  V30 14060 C 1366.23 -1.55039 0.496653 0
M  V30 14061 O 1367.42 -1.61115 0.768386 0
M  V30 14062 C 1364.52 -3.01534 1.54694 0
M  V30 14063 C 1363.69 -3.34539 2.81785 0
M  V30 14064 C 1362.75 -4.5267 2.68283 0
M  V30 14065 O 1361.78 -4.54844 3.42207 0
M  V30 14066 N 1362.98 -5.52115 1.79303 0
M  V30 14067 H 1365.75 -1.52744 2.57855 0
M  V30 14068 H 1363.31 -0.696597 1.46148 0
M  V30 14069 H 1365.3 -3.7847 1.43327 0
M  V30 14070 H 1363.87 -3.05535 0.660849 0
M  V30 14071 H 1363.09 -2.46576 3.07561 0
M  V30 14072 H 1364.38 -3.53384 3.66057 0
M  V30 14073 H 1363.77 -5.53153 1.18485 0
M  V30 14074 H 1362.33 -6.28184 1.73863 0
M  V30 14075 N 1365.76 -1.381 -0.759346 0
M  V30 14076 C 1367 -1.35402 -1.5312 0
M  V30 14077 C 1367.37 0.0574616 -1.91914 0
M  V30 14078 O 1368.57 0.20927 -2.67984 0
M  V30 14079 C 1366.84 -2.27793 -2.754 0
M  V30 14080 S 1368.4 -2.43061 -3.65331 0
M  V30 14081 H 1365.22 -0.480503 -0.524059 0
M  V30 14082 H 1367.82 -1.7397 -0.891886 0
M  V30 14083 H 1366.52 -3.29247 -2.45 0
M  V30 14084 H 1366.05 -1.90353 -3.44281 0
M  V30 14085 H 1368.07 -1.6504 -4.67949 0
M  V30 14086 N 1367.24 0.986894 -1.22875 0
M  V30 14087 C 1368.17 2.09628 -1.0285 0
M  V30 14088 C 1369.15 1.70019 0.0525118 0
M  V30 14089 O 1370.34 1.93883 -0.110874 0
M  V30 14090 C 1367.47 3.41866 -0.61194 0
M  V30 14091 C 1366.42 3.95351 -1.63956 0
M  V30 14092 C 1365.75 5.23707 -1.07865 0
M  V30 14093 C 1367.05 4.25354 -3.03102 0
M  V30 14094 H 1368.74 2.26639 -1.95641 0
M  V30 14095 H 1366.29 1.0891 -0.942048 0
M  V30 14096 H 1368.24 4.18893 -0.458936 0
M  V30 14097 H 1366.97 3.24701 0.35164 0
M  V30 14098 H 1365.62 3.20462 -1.78045 0
M  V30 14099 H 1365.27 5.02888 -0.106246 0
M  V30 14100 H 1364.97 5.60459 -1.76522 0
M  V30 14101 H 1366.5 6.03362 -0.937359 0
M  V30 14102 H 1367.91 4.93156 -2.92353 0
M  V30 14103 H 1366.31 4.73292 -3.68938 0
M  V30 14104 H 1367.38 3.32887 -3.52583 0
M  V30 14105 N 1368.72 1.0394 1.18466 0
M  V30 14106 C 1369.65 0.650182 2.24265 0
M  V30 14107 C 1370.63 -0.345968 1.66545 0
M  V30 14108 O 1371.82 -0.226348 1.92876 0
M  V30 14109 C 1368.95 0.0110451 3.47298 0
M  V30 14110 C 1367.9 0.930599 4.17761 0
M  V30 14111 C 1367.23 0.156005 5.34472 0
M  V30 14112 C 1368.53 2.24913 4.71393 0
M  V30 14113 H 1370.22 1.53465 2.57078 0
M  V30 14114 H 1367.77 0.739343 1.23571 0
M  V30 14115 H 1369.72 -0.272959 4.20515 0
M  V30 14116 H 1368.44 -0.908288 3.13716 0
M  V30 14117 H 1367.1 1.19897 3.4644 0
M  V30 14118 H 1366.75 -0.765695 4.97138 0
M  V30 14119 H 1366.45 0.768606 5.82551 0
M  V30 14120 H 1367.97 -0.121011 6.1048 0
M  V30 14121 H 1369.39 2.02592 5.36311 0
M  V30 14122 H 1367.79 2.81459 5.30001 0
M  V30 14123 H 1368.86 2.8965 3.88884 0
M  V30 14124 N 1370.2 -1.34667 0.818693 0
M  V30 14125 C 1371.15 -2.29595 0.235551 0
M  V30 14126 C 1372.12 -1.53389 -0.63727 0
M  V30 14127 O 1373.3 -1.81777 -0.579804 0
M  V30 14128 C 1370.44 -3.39843 -0.600043 0
M  V30 14129 C 1369.55 -4.30995 0.294553 0
M  V30 14130 C 1368.69 -5.28343 -0.550203 0
M  V30 14131 C 1367.73 -6.11132 0.344043 0
M  V30 14132 N 1366.86 -7.00582 -0.461392 0
M  V30 14133 H 1371.7 -2.78872 1.05044 0
M  V30 14134 H 1369.24 -1.37239 0.529517 0
M  V30 14135 H 1371.2 -4.02443 -1.09978 0
M  V30 14136 H 1369.83 -2.91811 -1.38008 0
M  V30 14137 H 1368.88 -3.69294 0.912483 0
M  V30 14138 H 1370.19 -4.89031 0.982341 0
M  V30 14139 H 1369.35 -5.96374 -1.11459 0
M  V30 14140 H 1368.09 -4.70833 -1.27151 0
M  V30 14141 H 1367.09 -5.42038 0.920608 0
M  V30 14142 H 1368.32 -6.70722 1.0634 0
M  V30 14143 H 1366.26 -6.45546 -1.16645 0
M  V30 14144 H 1366.18 -7.55813 0.168095 0
M  V30 14145 H 1367.45 -7.72946 -1.00867 0
M  V30 14146 N 1371.68 -0.573274 -1.46804 0
M  V30 14147 C 1372.62 0.165358 -2.30207 0
M  V30 14148 C 1373.59 0.89312 -1.40045 0
M  V30 14149 O 1374.78 0.885653 -1.68999 0
M  V30 14150 C 1371.92 1.17915 -3.2433 0
M  V30 14151 C 1371.03 0.455805 -4.29589 0
M  V30 14152 C 1370.17 1.45629 -5.10848 0
M  V30 14153 C 1369.21 0.718822 -6.07865 0
M  V30 14154 N 1368.34 1.66691 -6.82025 0
M  V30 14155 H 1373.18 -0.551947 -2.92844 0
M  V30 14156 H 1370.72 -0.28401 -1.44332 0
M  V30 14157 H 1372.68 1.77969 -3.77337 0
M  V30 14158 H 1371.31 1.86429 -2.63523 0
M  V30 14159 H 1370.36 -0.259584 -3.79513 0
M  V30 14160 H 1371.67 -0.121161 -4.98653 0
M  V30 14161 H 1370.83 2.1299 -5.68084 0
M  V30 14162 H 1369.56 2.06718 -4.41723 0
M  V30 14163 H 1368.57 0.0313773 -5.49791 0
M  V30 14164 H 1369.79 0.113452 -6.79005 0
M  V30 14165 H 1367.74 2.26608 -6.15617 0
M  V30 14166 H 1367.66 1.14251 -7.47317 0
M  V30 14167 H 1368.93 2.33117 -7.43826 0
M  V30 14168 N 1373.15 1.5451 -0.310553 0
M  V30 14169 C 1374.39 2.02236 0.296659 0
M  V30 14170 C 1374.76 1.19402 1.50357 0
M  V30 14171 O 1375.96 1.5687 2.18278 0
M  V30 14172 C 1374.23 3.51712 0.635107 0
M  V30 14173 S 1375.79 4.21388 1.22382 0
M  V30 14174 H 1372.61 0.705215 0.0905134 0
M  V30 14175 H 1375.21 1.90469 -0.440649 0
M  V30 14176 H 1373.91 4.09628 -0.251619 0
M  V30 14177 H 1373.44 3.67533 1.40295 0
M  V30 14178 H 1375.46 4.27962 2.51124 0
M  V30 14179 O 1374.67 0.177526 1.60521 0
M  V30 14180 H 1375.36 -0.411086 1.89288 0
M  V30 END ATOM
M  V30 BEGIN BOND
M  V30 END BOND
M  V30 END CTAB
M  END
$$$$
