drugbank_target|Q13488 V-type proton ATPase 116 kDa subunit a isoform 3 (DB01133)
 OpenBabel12092121233D

  0  0  0     0  0            999 V3000
M  V30 BEGIN CTAB
M  V30 COUNTS 13149 13316 0 0 0
M  V30 BEGIN ATOM
M  V30 1 H -0.908 1.98254 -0.117106 0
M  V30 2 N 0 1.576 0 0
M  V30 3 C 0.933 2.03868 1.02534 0
M  V30 4 C 1.911 0.928543 1.3348 0
M  V30 5 O 3.095 1.19667 1.45644 0
M  V30 6 C 0.222 2.43627 2.35294 0
M  V30 7 C -0.732 3.65373 2.2001 0
M  V30 8 S 0.101 5.13292 1.52614 0
M  V30 9 C 1.257 5.56322 2.86805 0
M  V30 10 H 1.49 2.90518 0.631377 0
M  V30 11 H -0.977 1.52953 0.210867 0
M  V30 12 H 0.981 2.67203 3.11629 0
M  V30 13 H -0.358 1.57376 2.7183 0
M  V30 14 H -1.165 3.90944 3.18086 0
M  V30 15 H -1.563 3.418 1.51819 0
M  V30 16 H 0.729 5.58782 3.83104 0
M  V30 17 H 1.672 6.56266 2.65933 0
M  V30 18 H 2.08 4.83886 2.90714 0
M  V30 19 N 1.4781 -0.272755 1.55222 0
M  V30 20 C 2.7261 -1.00234 1.75492 0
M  V30 21 C 3.0471 -1.8681 0.5592 0
M  V30 22 O 2.3171 -1.91215 -0.425882 0
M  V30 23 H 0.8971 -0.373076 0.647166 0
M  V30 24 H 3.5591 -0.296926 1.92625 0
M  V30 25 H 2.6551 -1.63913 2.65592 0
M  V30 26 N 2.9562 -1.48159 -0.537278 0
M  V30 27 C 4.1812 -1.59707 -1.32319 0
M  V30 28 C 4.6062 -0.254859 -1.86365 0
M  V30 29 O 3.9642 0.772378 -1.64024 0
M  V30 30 C 4.0122 -2.6412 -2.45505 0
M  V30 31 O 3.1162 -2.20774 -3.48328 0
M  V30 32 H 2.4572 -0.535791 -0.392204 0
M  V30 33 H 4.9872 -1.94092 -0.647268 0
M  V30 34 H 4.9972 -2.85166 -2.91795 0
M  V30 35 H 3.6722 -3.61567 -2.05528 0
M  V30 36 H 2.2492 -2.09911 -3.08207 0
M  V30 37 N 4.4343 0.785586 -1.36625 0
M  V30 38 C 5.3673 1.90509 -1.25625 0
M  V30 39 C 6.3453 1.62 -0.139607 0
M  V30 40 O 7.5293 1.8591 -0.31141 0
M  V30 41 C 4.6563 3.25419 -0.939158 0
M  V30 42 C 3.7023 3.72856 -2.07077 0
M  V30 43 S 4.5353 3.88162 -3.68904 0
M  V30 44 C 5.6913 5.25942 -3.39317 0
M  V30 45 H 5.9243 1.99549 -2.20381 0
M  V30 46 H 3.4573 0.945226 -1.22085 0
M  V30 47 H 5.4153 4.03346 -0.763029 0
M  V30 48 H 4.0763 3.14099 -0.00931402 0
M  V30 49 H 3.2693 4.70624 -1.80357 0
M  V30 50 H 2.8713 3.01989 -2.20632 0
M  V30 51 H 5.1633 6.10651 -2.93447 0
M  V30 52 H 6.1063 5.57668 -4.36363 0
M  V30 53 H 6.5143 4.93224 -2.74573 0
M  V30 54 N 5.9124 1.20967 1.01018 0
M  V30 55 C 7.1594 1.02374 1.74716 0
M  V30 56 C 7.4874 -0.443375 1.89379 0
M  V30 57 O 6.7424 -1.34535 1.42123 0
M  V30 58 C 7.0414 1.65997 3.16512 0
M  V30 59 C 6.7074 3.15831 3.2181 0
M  V30 60 C 5.3694 3.56719 3.22963 0
M  V30 61 C 7.7214 4.11816 3.19464 0
M  V30 62 C 5.0494 4.92107 3.19449 0
M  V30 63 C 7.4014 5.47158 3.17491 0
M  V30 64 C 6.0654 5.87451 3.16951 0
M  V30 65 H 5.3354 0.374614 0.639332 0
M  V30 66 H 7.9824 1.50485 1.18434 0
M  V30 67 H 6.2874 1.10166 3.75993 0
M  V30 68 H 7.9844 1.49119 3.72242 0
M  V30 69 H 4.5744 2.83263 3.21652 0
M  V30 70 H 8.7584 3.81257 3.17737 0
M  V30 71 H 4.0144 5.22579 3.17366 0
M  V30 72 H 8.1884 6.21274 3.14629 0
M  V30 73 H 5.8154 6.92329 3.13983 0
M  V30 74 N 7.3905 -1.2043 1.01659 0
M  V30 75 C 8.8065 -1.41852 0.731442 0
M  V30 76 C 9.0065 -1.89358 -0.688898 0
M  V30 77 O 8.0625 -2.06247 -1.45666 0
M  V30 78 C 9.3755 -2.44019 1.75714 0
M  V30 79 C 10.9235 -2.57785 1.77527 0
M  V30 80 C 11.3985 -3.63194 2.79023 0
M  V30 81 N 12.8895 -3.70678 2.77763 0
M  V30 82 C 13.6245 -4.51897 3.52954 0
M  V30 83 N 13.1205 -5.36921 4.37821 0
M  V30 84 N 14.9135 -4.4643 3.41551 0
M  V30 85 H 7.0645 -0.879093 1.93354 0
M  V30 86 H 9.3275 -0.448425 0.835236 0
M  V30 87 H 9.0335 -2.1611 2.77469 0
M  V30 88 H 8.9075 -3.43007 1.56927 0
M  V30 89 H 11.2945 -2.85023 0.764569 0
M  V30 90 H 11.3755 -1.58992 2.00387 0
M  V30 91 H 11.0195 -3.36699 3.80258 0
M  V30 92 H 10.9495 -4.61609 2.53425 0
M  V30 93 H 13.4405 -3.09944 2.16201 0
M  V30 94 H 13.7535 -5.95981 4.91962 0
M  V30 95 H 12.0985 -5.36424 4.41899 0
M  V30 96 H 15.2895 -3.79042 2.74672 0
M  V30 97 H 15.4625 -5.09491 4.00404 0
M  V30 98 N 8.8686 -0.792821 -1.36206 0
M  V30 99 C 10.0936 -0.377701 -2.03932 0
M  V30 100 C 10.5186 0.998947 -1.59382 0
M  V30 101 O 9.8766 1.64421 -0.763903 0
M  V30 102 C 9.9246 -0.453635 -3.57735 0
M  V30 103 O 9.0286 0.538151 -4.08874 0
M  V30 104 H 8.3696 -0.159855 -0.644471 0
M  V30 105 H 10.8996 -1.07488 -1.7409 0
M  V30 106 H 10.9096 -0.318464 -4.06755 0
M  V30 107 H 9.5846 -1.45784 -3.89512 0
M  V30 108 H 8.1616 0.364359 -3.71116 0
M  V30 109 N 10.3467 1.47872 -0.545128 0
M  V30 110 C 11.2567 2.33633 0.212746 0
M  V30 111 C 12.2727 1.4744 0.923983 0
M  V30 112 O 13.4487 1.80393 0.895572 0
M  V30 113 C 10.5137 3.23884 1.23693 0
M  V30 114 C 9.5747 4.25961 0.534417 0
M  V30 115 C 8.8077 5.11899 1.5098 0
M  V30 116 O 9.0307 5.00077 2.7437 0
M  V30 117 O 7.9647 5.92831 1.0409 0
M  V30 118 H 11.7907 2.99714 -0.490416 0
M  V30 119 H 9.3757 1.46235 -0.305871 0
M  V30 120 H 11.2577 3.79666 1.82843 0
M  V30 121 H 9.9327 2.60446 1.92222 0
M  V30 122 H 8.8397 3.73972 -0.0979679 0
M  V30 123 H 10.1727 4.92079 -0.109213 0
M  V30 124 N 11.8248 0.280983 1.55075 0
M  V30 125 C 12.7348 -0.61388 2.26426 0
M  V30 126 C 13.7508 -1.16521 1.29224 0
M  V30 127 O 14.9268 -1.19426 1.62171 0
M  V30 128 C 11.9918 -1.7788 2.9759 0
M  V30 129 C 11.0528 -1.26355 4.10284 0
M  V30 130 C 10.2858 -2.37295 4.78045 0
M  V30 131 O 10.5088 -3.56777 4.45047 0
M  V30 132 O 9.4428 -2.05119 5.65871 0
M  V30 133 H 13.2688 -0.0356932 3.03679 0
M  V30 134 H 10.8538 0.0481686 1.49322 0
M  V30 135 H 12.7358 -2.45791 3.42293 0
M  V30 136 H 11.4108 -2.34397 2.23249 0
M  V30 137 H 10.3178 -0.550735 3.70024 0
M  V30 138 H 11.6508 -0.744065 4.86543 0
M  V30 139 N 13.3029 -1.57598 0.00835791 0
M  V30 140 C 14.5489 -1.91211 -0.675732 0
M  V30 141 C 14.8819 -0.883139 -1.72958 0
M  V30 142 O 14.1569 0.097016 -1.94258 0
M  V30 143 C 14.4399 -3.35379 -1.31123 0
M  V30 144 C 14.2929 -4.48999 -0.268356 0
M  V30 145 C 15.6119 -3.7912 -2.23508 0
M  V30 146 H 12.7309 -0.695374 -0.244179 0
M  V30 147 H 15.3729 -1.89901 0.0613655 0
M  V30 148 H 13.5229 -3.36626 -1.93946 0
M  V30 149 H 15.1949 -4.59887 0.360844 0
M  V30 150 H 13.4379 -4.31873 0.408482 0
M  V30 151 H 14.1089 -5.46851 -0.752218 0
M  V30 152 H 16.5849 -3.79477 -1.70693 0
M  V30 153 H 15.4609 -4.80729 -2.64936 0
M  V30 154 H 15.7219 -3.13455 -3.11766 0
M  V30 155 N 14.781 0.264519 -1.55364 0
M  V30 156 C 15.744 1.31046 -1.88042 0
M  V30 157 C 16.744 1.41943 -0.755569 0
M  V30 158 O 17.934 1.40947 -1.02369 0
M  V30 159 C 15.066 2.69067 -2.09323 0
M  V30 160 H 16.259 1.03297 -2.81549 0
M  V30 161 H 13.812 0.502989 -1.47986 0
M  V30 162 H 14.547 3.01982 -1.18226 0
M  V30 163 H 14.332 2.62542 -2.91229 0
M  V30 164 H 15.822 3.44623 -2.35848 0
M  V30 165 N 16.2591 1.48442 0.529413 0
M  V30 166 C 17.1891 1.65902 1.64313 0
M  V30 167 C 18.1701 0.507897 1.6234 0
M  V30 168 O 19.3551 0.740503 1.79528 0
M  V30 169 C 16.4851 1.69911 3.02898 0
M  V30 170 C 15.4391 2.8453 3.19729 0
M  V30 171 C 14.7651 2.73629 4.59381 0
M  V30 172 C 16.0651 4.25821 3.02447 0
M  V30 173 H 17.7591 2.5914 1.49955 0
M  V30 174 H 15.3051 1.24709 0.719982 0
M  V30 175 H 17.2581 1.80715 3.80684 0
M  V30 176 H 15.9821 0.732524 3.18279 0
M  V30 177 H 14.6411 2.73283 2.44361 0
M  V30 178 H 14.2891 1.74938 4.71599 0
M  V30 179 H 13.9891 3.50541 4.71588 0
M  V30 180 H 15.5131 2.86401 5.39265 0
M  V30 181 H 16.9271 4.37898 3.70024 0
M  V30 182 H 15.3241 5.03735 3.26146 0
M  V30 183 H 16.3941 4.42244 1.98867 0
M  V30 184 N 17.7372 -0.778329 1.37039 0
M  V30 185 C 18.9832 -1.53892 1.32079 0
M  V30 186 C 19.3162 -1.9396 -0.0965386 0
M  V30 187 O 18.5912 -1.63568 -1.05242 0
M  V30 188 C 18.8742 -2.80847 2.25382 0
M  V30 189 C 18.7272 -2.47076 3.75864 0
M  V30 190 C 20.0462 -3.82741 2.1725 0
M  V30 191 H 17.1652 -0.558303 0.48111 0
M  V30 192 H 19.8072 -0.893397 1.67685 0
M  V30 193 H 17.9572 -3.35931 1.95148 0
M  V30 194 H 19.6292 -1.97957 4.16666 0
M  V30 195 H 17.8722 -1.79863 3.94755 0
M  V30 196 H 18.5432 -3.37798 4.36574 0
M  V30 197 H 21.0192 -3.37133 2.43887 0
M  V30 198 H 19.8952 -4.69303 2.84686 0
M  V30 199 H 20.1562 -4.2652 1.16331 0
M  V30 200 N 19.2153 -1.21501 -1.00376 0
M  V30 201 C 20.1473 -0.933174 -2.09343 0
M  V30 202 C 21.1603 0.0840896 -1.62583 0
M  V30 203 O 22.3493 -0.148563 -1.77881 0
M  V30 204 C 19.4493 -0.379869 -3.36764 0
M  V30 205 C 18.6223 -1.45176 -4.12605 0
M  V30 206 C 17.6813 -0.907476 -5.18316 0
M  V30 207 O 16.7073 -1.5912 -5.46507 0
M  V30 208 N 17.9093 0.276649 -5.7984 0
M  V30 209 H 20.6743 -1.87124 -2.34104 0
M  V30 210 H 18.2353 -1.12043 -1.16867 0
M  V30 211 H 20.2273 -0.00131488 -4.047 0
M  V30 212 H 18.7973 0.463048 -3.09151 0
M  V30 213 H 18.0173 -2.00411 -3.39454 0
M  V30 214 H 19.3053 -2.17328 -4.6005 0
M  V30 215 H 18.7033 0.849147 -5.59291 0
M  V30 216 H 17.2603 0.596702 -6.49063 0
M  V30 217 N 20.6934 1.19889 -1.02296 0
M  V30 218 C 21.6234 2.25141 -0.619174 0
M  V30 219 C 22.6044 1.66051 0.368915 0
M  V30 220 O 23.7894 1.92546 0.252941 0
M  V30 221 C 20.9194 3.4728 0.0368783 0
M  V30 222 C 19.8734 4.19005 -0.872865 0
M  V30 223 C 19.1994 5.34637 -0.0822402 0
M  V30 224 C 20.4994 4.74452 -2.18387 0
M  V30 225 H 22.1934 2.59171 -1.49903 0
M  V30 226 H 19.7394 1.24579 -0.722222 0
M  V30 227 H 21.6924 4.20098 0.330958 0
M  V30 228 H 20.4164 3.12433 0.95149 0
M  V30 229 H 19.0754 3.48061 -1.15105 0
M  V30 230 H 18.7234 4.96034 0.83422 0
M  V30 231 H 18.4234 5.83557 -0.688149 0
M  V30 232 H 19.9474 6.10255 0.205238 0
M  V30 233 H 21.3614 5.39055 -1.95172 0
M  V30 234 H 19.7584 5.33834 -2.74119 0
M  V30 235 H 20.8284 3.92844 -2.84257 0
M  V30 236 N 22.1715 0.800033 1.35784 0
M  V30 237 C 23.4185 0.377342 1.98953 0
M  V30 238 C 23.7465 -1.05378 1.6348 0
M  V30 239 O 23.0015 -1.74459 0.886707 0
M  V30 240 C 23.3005 0.500276 3.53881 0
M  V30 241 C 22.9665 1.89375 4.09204 0
M  V30 242 C 21.6285 2.27499 4.24025 0
M  V30 243 C 23.9805 2.8057 4.39238 0
M  V30 244 C 21.3085 3.562 4.66195 0
M  V30 245 C 23.6605 4.0871 4.82844 0
M  V30 246 C 22.3245 4.46843 4.95871 0
M  V30 247 H 21.5945 0.138079 0.728021 0
M  V30 248 H 24.2415 1.01955 1.62103 0
M  V30 249 H 22.5465 -0.225405 3.91151 0
M  V30 250 H 24.2435 0.154097 4.00704 0
M  V30 251 H 20.8335 1.58753 3.98115 0
M  V30 252 H 25.0175 2.52367 4.27346 0
M  V30 253 H 20.2735 3.85602 4.74469 0
M  V30 254 H 24.4475 4.79481 5.05046 0
M  V30 255 H 22.0745 5.46623 5.28306 0
M  V30 256 N 23.6496 -1.47581 0.552962 0
M  V30 257 C 24.5796 -2.32762 -0.185451 0
M  V30 258 C 25.5606 -1.43527 -0.912905 0
M  V30 259 O 26.7456 -1.72388 -0.894201 0
M  V30 260 C 23.8756 -3.25219 -1.21859 0
M  V30 261 C 22.8296 -4.23661 -0.607864 0
M  V30 262 C 22.1556 -5.05413 -1.74533 0
M  V30 263 C 23.4556 -5.20481 0.435582 0
M  V30 264 H 25.1496 -2.94749 0.525684 0
M  V30 265 H 22.6956 -1.41738 0.254251 0
M  V30 266 H 24.6486 -3.8365 -1.7433 0
M  V30 267 H 23.3726 -2.61279 -1.95961 0
M  V30 268 H 22.0316 -3.66451 -0.104489 0
M  V30 269 H 21.6796 -4.3788 -2.47529 0
M  V30 270 H 21.3796 -5.72059 -1.34249 0
M  V30 271 H 22.9036 -5.66701 -2.27338 0
M  V30 272 H 24.3176 -5.733 -0.00290157 0
M  V30 273 H 22.7146 -5.95305 0.757067 0
M  V30 274 H 23.7846 -4.66217 1.33303 0
M  V30 275 N 25.1277 -0.289203 -1.54924 0
M  V30 276 C 26.5387 0.205791 -1.85562 0
M  V30 277 C 26.8897 1.54351 -1.2112 0
M  V30 278 O 26.0147 2.10435 -0.504601 0
M  V30 279 C 26.6097 0.380177 -3.3666 0
M  V30 280 C 25.1687 0.819395 -3.67373 0
M  V30 281 C 24.3157 -0.079159 -2.77187 0
M  V30 282 H 27.2667 -0.510577 -1.50262 0
M  V30 283 H 27.2877 1.21659 -3.60526 0
M  V30 284 H 26.7997 -0.593589 -3.83534 0
M  V30 285 H 24.9007 1.80413 -3.26009 0
M  V30 286 H 25.0137 0.646957 -4.74712 0
M  V30 287 H 23.3777 0.439565 -2.50878 0
M  V30 288 H 24.1607 -1.04906 -3.26878 0
M  V30 289 N 26.6058 1.57591 -0.0167156 0
M  V30 290 C 27.8338 1.95575 0.675128 0
M  V30 291 C 28.2488 0.892542 1.6637 0
M  V30 292 O 27.6058 -0.126912 1.82058 0
M  V30 293 C 27.6568 3.33608 1.39239 0
M  V30 294 O 27.3778 4.3585 0.443444 0
M  V30 295 C 28.8788 3.86151 2.17721 0
M  V30 296 H 26.0988 0.644423 0.186978 0
M  V30 297 H 28.6428 2.0437 -0.0728 0
M  V30 298 H 26.7978 3.2607 2.09182 0
M  V30 299 H 27.2118 5.158 0.951358 0
M  V30 300 H 28.6858 4.85114 2.63379 0
M  V30 301 H 29.1628 3.19738 3.01105 0
M  V30 302 H 29.7688 3.96918 1.52761 0
M  V30 303 N 28.0839 -0.256276 1.55502 0
M  V30 304 C 29.0469 -1.30047 1.88734 0
M  V30 305 C 30.0469 -1.4154 0.763086 0
M  V30 306 O 31.2369 -1.40403 1.03115 0
M  V30 307 C 28.3689 -2.67953 2.10747 0
M  V30 308 H 29.5619 -1.01802 2.82093 0
M  V30 309 H 27.1149 -0.495134 1.4825 0
M  V30 310 H 27.8499 -3.01351 1.19825 0
M  V30 311 H 27.6349 -2.60993 2.92617 0
M  V30 312 H 29.1249 -3.43368 2.37673 0
M  V30 313 N 29.562 -1.4872 -0.521534 0
M  V30 314 C 30.525 -1.63379 -1.60748 0
M  V30 315 C 31.525 -0.50661 -1.52611 0
M  V30 316 O 32.715 -0.772601 -1.5613 0
M  V30 317 C 29.847 -1.61192 -3.00383 0
M  V30 318 H 31.04 -2.60217 -1.49087 0
M  V30 319 H 28.593 -1.37444 -0.744235 0
M  V30 320 H 29.328 -0.65863 -3.17541 0
M  V30 321 H 29.113 -2.43032 -3.07698 0
M  V30 322 H 30.603 -1.7466 -3.7932 0
M  V30 323 N 31.0401 0.771051 -1.3745 0
M  V30 324 C 32.0031 1.86598 -1.33093 0
M  V30 325 C 33.0031 1.59076 -0.234845 0
M  V30 326 O 34.1931 1.67145 -0.490732 0
M  V30 327 C 31.3251 3.23747 -1.06773 0
M  V30 328 H 32.5181 1.91873 -2.30488 0
M  V30 329 H 30.0711 0.970876 -1.2249 0
M  V30 330 H 30.8061 3.24148 -0.099129 0
M  V30 331 H 30.5911 3.45115 -1.86112 0
M  V30 332 H 32.0811 4.03824 -1.06377 0
M  V30 333 N 32.5182 1.22032 0.997298 0
M  V30 334 C 33.7482 1.06686 1.76923 0
M  V30 335 C 34.1562 -0.385838 1.85224 0
M  V30 336 O 33.4992 -1.27929 1.31833 0
M  V30 337 C 33.5612 1.59802 3.22031 0
M  V30 338 C 33.2252 3.08362 3.37286 0
M  V30 339 C 34.2222 4.05835 3.24952 0
M  V30 340 C 31.9072 3.47727 3.6248 0
M  V30 341 C 33.9012 5.4066 3.37588 0
M  V30 342 C 31.5882 4.82701 3.74757 0
M  V30 343 C 32.5862 5.78977 3.62319 0
M  V30 344 O 32.2742 7.11502 3.74193 0
M  V30 345 H 32.0062 0.374767 0.562606 0
M  V30 346 H 34.5602 1.61991 1.26286 0
M  V30 347 H 32.7902 0.989003 3.73839 0
M  V30 348 H 34.4792 1.40184 3.80924 0
M  V30 349 H 35.2452 3.76766 3.05405 0
M  V30 350 H 31.1242 2.73317 3.7124 0
M  V30 351 H 34.6682 6.15788 3.27796 0
M  V30 352 H 30.5652 5.11453 3.9381 0
M  V30 353 H 31.3332 7.19019 3.91093 0
M  V30 354 N 33.9963 -1.19345 1.0293 0
M  V30 355 C 35.2243 -1.92997 0.745644 0
M  V30 356 C 35.6393 -1.75519 -0.695589 0
M  V30 357 O 34.9963 -1.07737 -1.47306 0
M  V30 358 C 35.0473 -3.44741 1.08792 0
M  V30 359 O 34.7683 -3.61658 2.47256 0
M  V30 360 C 36.2693 -4.35515 0.827129 0
M  V30 361 H 33.4893 -0.613042 0.272801 0
M  V30 362 H 36.0333 -1.51473 1.3739 0
M  V30 363 H 34.1883 -3.84097 0.504832 0
M  V30 364 H 34.6023 -4.55514 2.60015 0
M  V30 365 H 36.0763 -5.40589 1.11658 0
M  V30 366 H 36.5533 -4.38552 -0.238436 0
M  V30 367 H 37.1593 -4.01841 1.39297 0
M  V30 368 N 35.4744 -0.807222 -1.35358 0
M  V30 369 C 36.7144 -0.393534 -2.00576 0
M  V30 370 C 37.0784 1.0203 -1.62647 0
M  V30 371 O 38.2794 1.53603 -2.20589 0
M  V30 372 C 36.5504 -0.572017 -3.52793 0
M  V30 373 S 38.1094 -0.248845 -4.38094 0
M  V30 374 H 34.9274 -0.149425 -0.695121 0
M  V30 375 H 37.5294 -1.04961 -1.64935 0
M  V30 376 H 36.2334 -1.60097 -3.77885 0
M  V30 377 H 35.7644 0.099359 -3.93275 0
M  V30 378 H 37.7794 0.943253 -4.87152 0
M  V30 379 N 36.9525 1.47285 -0.560781 0
M  V30 380 C 38.1985 2.02764 -0.0381184 0
M  V30 381 C 38.5315 1.43384 1.30976 0
M  V30 382 O 37.8065 0.590733 1.85312 0
M  V30 383 C 38.0895 3.60064 0.0511427 0
M  V30 384 C 37.9425 4.2987 -1.32408 0
M  V30 385 C 39.2615 4.33439 0.762795 0
M  V30 386 H 36.3805 0.736841 -0.0153264 0
M  V30 387 H 39.0225 1.75675 -0.723759 0
M  V30 388 H 37.1725 3.83274 0.635065 0
M  V30 389 H 38.8445 4.17989 -1.95148 0
M  V30 390 H 37.0875 3.90085 -1.8978 0
M  V30 391 H 37.7585 5.38478 -1.21431 0
M  V30 392 H 40.2345 4.15243 0.266965 0
M  V30 393 H 39.1105 5.43124 0.794221 0
M  V30 394 H 39.3715 4.02915 1.81966 0
M  V30 395 N 38.4306 0.297415 1.54768 0
M  V30 396 C 39.6556 -0.318435 2.04941 0
M  V30 397 C 40.0806 -1.4701 1.17345 0
M  V30 398 O 39.4386 -1.80436 0.176758 0
M  V30 399 C 39.4866 -0.755749 3.52592 0
M  V30 400 O 38.5906 -1.86088 3.68028 0
M  V30 401 H 37.9316 -0.062421 0.661059 0
M  V30 402 H 40.4616 0.438215 1.99852 0
M  V30 403 H 40.4716 -1.04552 3.94376 0
M  V30 404 H 39.1466 0.0867233 4.1581 0
M  V30 405 H 37.7236 -1.57193 3.38149 0
M  V30 406 N 39.9087 -1.5758 0.0250728 0
M  V30 407 C 41.3247 -1.56124 -0.331282 0
M  V30 408 C 41.5247 -1.03029 -1.73169 0
M  V30 409 O 40.5807 -0.675215 -2.43305 0
M  V30 410 C 41.8937 -3.00139 -0.183584 0
M  V30 411 C 43.4417 -3.11946 -0.256654 0
M  V30 412 C 43.9167 -4.57793 -0.137792 0
M  V30 413 N 45.4077 -4.6279 -0.194904 0
M  V30 414 C 46.1427 -5.7326 -0.126655 0
M  V30 415 N 45.6387 -6.928 -0.00755288 0
M  V30 416 N 47.4317 -5.61811 -0.180348 0
M  V30 417 H 39.5827 -1.90424 0.94087 0
M  V30 418 H 41.8457 -0.875761 0.362968 0
M  V30 419 H 41.5517 -3.4292 0.780927 0
M  V30 420 H 41.4257 -3.64899 -0.955448 0
M  V30 421 H 43.8127 -2.69079 -1.21162 0
M  V30 422 H 43.8937 -2.49915 0.545517 0
M  V30 423 H 43.5377 -5.01339 0.813739 0
M  V30 424 H 43.4677 -5.17798 -0.958775 0
M  V30 425 H 45.9587 -3.76807 -0.287267 0
M  V30 426 H 46.2717 -7.72791 0.0379428 0
M  V30 427 H 44.6167 -6.94995 0.0271731 0
M  V30 428 H 47.8077 -4.6731 -0.271767 0
M  V30 429 H 47.9807 -6.47882 -0.123697 0
M  V30 430 N 41.3868 0.248026 -1.55636 0
M  V30 431 C 42.3168 1.31079 -1.93237 0
M  V30 432 C 43.2978 1.50264 -0.797174 0
M  V30 433 O 44.4828 1.62891 -1.05737 0
M  V30 434 C 41.6128 2.66575 -2.22609 0
M  V30 435 C 40.5668 2.62087 -3.3837 0
M  V30 436 C 39.8928 4.01369 -3.53281 0
M  V30 437 C 41.1928 2.19171 -4.7409 0
M  V30 438 H 42.8868 0.998556 -2.82257 0
M  V30 439 H 40.4328 0.47891 -1.35803 0
M  V30 440 H 42.3858 3.41057 -2.47503 0
M  V30 441 H 41.1098 2.99432 -1.30414 0
M  V30 442 H 39.7688 1.90063 -3.13483 0
M  V30 443 H 39.4168 4.31489 -2.58508 0
M  V30 444 H 39.1168 3.99254 -4.31127 0
M  V30 445 H 40.6408 4.77552 -3.80495 0
M  V30 446 H 42.0548 2.83384 -4.98363 0
M  V30 447 H 40.4518 2.2817 -5.5503 0
M  V30 448 H 41.5218 1.14336 -4.71227 0
M  V30 449 N 42.8649 1.48995 0.513639 0
M  V30 450 C 44.1129 1.57531 1.26604 0
M  V30 451 C 44.4339 0.258236 1.93283 0
M  V30 452 O 43.7039 -0.721502 1.8213 0
M  V30 453 H 42.2839 0.580387 0.470276 0
M  V30 454 H 44.9459 1.85552 0.596373 0
M  V30 455 H 44.0419 2.36486 2.03669 0
M  V30 456 N 44.343 -0.763751 1.37857 0
M  V30 457 C 45.253 -1.90817 1.36478 0
M  V30 458 C 46.269 -1.71997 0.263248 0
M  V30 459 O 47.445 -1.95095 0.499979 0
M  V30 460 C 44.51 -3.2605 1.17864 0
M  V30 461 C 43.571 -3.57467 2.3773 0
M  V30 462 C 42.804 -4.86249 2.19995 0
M  V30 463 O 43.027 -5.57884 1.18836 0
M  V30 464 O 41.961 -5.16911 3.08361 0
M  V30 465 H 45.787 -1.94933 2.32884 0
M  V30 466 H 43.372 -0.907619 1.1867 0
M  V30 467 H 45.254 -4.06924 1.09504 0
M  V30 468 H 43.929 -3.22769 0.245372 0
M  V30 469 H 42.836 -2.76796 2.51664 0
M  V30 470 H 44.169 -3.655 3.29652 0
M  V30 471 N 45.8211 -1.22559 -0.990812 0
M  V30 472 C 46.7511 -1.0218 -2.09956 0
M  V30 473 C 47.7321 0.0579394 -1.70001 0
M  V30 474 O 48.9171 -0.104684 -1.93918 0
M  V30 475 C 46.0471 -0.601023 -3.4206 0
M  V30 476 C 45.0011 -1.62694 -3.95872 0
M  V30 477 C 44.3271 -1.06193 -5.24049 0
M  V30 478 C 45.6271 -3.01743 -4.2632 0
M  V30 479 H 47.3211 -1.94916 -2.27262 0
M  V30 480 H 44.8671 -0.938566 -1.09211 0
M  V30 481 H 46.8201 -0.445561 -4.19038 0
M  V30 482 H 45.5441 0.362005 -3.24588 0
M  V30 483 H 44.2031 -1.77021 -3.21028 0
M  V30 484 H 43.8511 -0.0901903 -5.02919 0
M  V30 485 H 43.5511 -1.74732 -5.61019 0
M  V30 486 H 45.0751 -0.918092 -6.03658 0
M  V30 487 H 46.4891 -2.90777 -4.94087 0
M  V30 488 H 44.8861 -3.67425 -4.74467 0
M  V30 489 H 45.9561 -3.51518 -3.34011 0
M  V30 490 N 47.2992 1.18797 -1.03562 0
M  V30 491 C 48.5472 1.88278 -0.734569 0
M  V30 492 C 48.8682 1.8043 0.739586 0
M  V30 493 O 48.1382 1.21925 1.53333 0
M  V30 494 H 46.7182 0.696991 -0.268725 0
M  V30 495 H 49.3802 1.44192 -1.31129 0
M  V30 496 H 48.4762 2.94443 -1.03489 0
M  V30 497 N 48.7773 0.814389 1.34928 0
M  V30 498 C 49.7073 0.244827 2.32213 0
M  V30 499 C 50.6883 -0.634024 1.57842 0
M  V30 500 O 51.8733 -0.562676 1.8587 0
M  V30 501 C 49.0033 -0.601106 3.42058 0
M  V30 502 C 47.9573 0.179896 4.27622 0
M  V30 503 C 47.2833 -0.788237 5.28858 0
M  V30 504 C 48.5833 1.38329 5.03649 0
M  V30 505 H 50.2773 1.05763 2.80097 0
M  V30 506 H 47.8233 0.510029 1.34665 0
M  V30 507 H 49.7763 -1.00968 4.09125 0
M  V30 508 H 48.5003 -1.44688 2.92802 0
M  V30 509 H 47.1593 0.569739 3.62146 0
M  V30 510 H 46.8073 -1.62973 4.75866 0
M  V30 511 H 46.5073 -0.269942 5.8698 0
M  V30 512 H 48.0313 -1.19485 5.98795 0
M  V30 513 H 49.4453 1.04918 5.63618 0
M  V30 514 H 47.8423 1.83662 5.71304 0
M  V30 515 H 48.9123 2.16592 4.33839 0
M  V30 516 N 50.2554 -1.46986 0.568584 0
M  V30 517 C 51.5014 -2.02741 0.0488709 0
M  V30 518 C 51.8344 -1.44077 -1.30214 0
M  V30 519 O 51.1094 -0.600552 -1.84996 0
M  V30 520 C 51.3924 -3.60086 -0.032047 0
M  V30 521 C 51.2454 -4.29162 1.34686 0
M  V30 522 C 52.5644 -4.33838 -0.739798 0
M  V30 523 H 49.6834 -0.736749 0.0192338 0
M  V30 524 H 52.3254 -1.75289 0.733065 0
M  V30 525 H 50.4754 -3.83606 -0.61473 0
M  V30 526 H 52.1474 -4.16948 1.97362 0
M  V30 527 H 50.3904 -3.89073 1.91846 0
M  V30 528 H 51.0614 -5.37826 1.24285 0
M  V30 529 H 53.5374 -4.15378 -0.244939 0
M  V30 530 H 52.4134 -5.43537 -0.765406 0
M  V30 531 H 52.6744 -4.03875 -1.79827 0
M  V30 532 N 51.7335 -0.305618 -1.54608 0
M  V30 533 C 52.6435 0.57778 -2.27374 0
M  V30 534 C 53.6595 1.14451 -1.31061 0
M  V30 535 O 54.8355 1.16831 -1.6405 0
M  V30 536 C 51.9005 1.73123 -3.00382 0
M  V30 537 C 50.9615 1.19812 -4.12242 0
M  V30 538 C 50.1945 2.2966 -4.81759 0
M  V30 539 O 50.4175 3.49651 -4.50666 0
M  V30 540 O 49.3515 1.96091 -5.69062 0
M  V30 541 H 53.1775 -0.012624 -3.03697 0
M  V30 542 H 50.7625 -0.0719184 -1.49227 0
M  V30 543 H 52.6445 2.40315 -3.4616 0
M  V30 544 H 51.3195 2.30815 -2.26949 0
M  V30 545 H 50.2265 0.491798 -3.70853 0
M  V30 546 H 51.5595 0.666566 -4.87666 0
M  V30 547 N 53.2116 1.57565 -0.0334293 0
M  V30 548 C 54.4586 1.91978 0.644272 0
M  V30 549 C 54.7866 0.910231 1.71887 0
M  V30 550 O 54.0416 -0.0801961 1.95536 0
M  V30 551 C 54.3406 3.33112 1.29504 0
M  V30 552 C 54.0066 4.49537 0.350388 0
M  V30 553 C 52.6686 4.81115 0.0903974 0
M  V30 554 C 55.0206 5.20347 -0.298032 0
M  V30 555 C 52.3486 5.8086 -0.825746 0
M  V30 556 C 54.7006 6.2107 -1.20226 0
M  V30 557 C 53.3646 6.51088 -1.4711 0
M  V30 558 H 52.6346 0.702496 0.235756 0
M  V30 559 H 55.2816 1.91259 -0.0961176 0
M  V30 560 H 53.5866 3.30113 2.11028 0
M  V30 561 H 55.2836 3.57011 1.82603 0
M  V30 562 H 51.8736 4.24883 0.563205 0
M  V30 563 H 56.0576 4.96178 -0.110234 0
M  V30 564 H 51.3136 6.02461 -1.04169 0
M  V30 565 H 55.4876 6.75057 -1.71086 0
M  V30 566 H 53.1146 7.28193 -2.18264 0
M  V30 567 N 54.6897 -0.239769 1.55765 0
M  V30 568 C 56.1057 -0.588624 1.48349 0
M  V30 569 C 56.3057 -1.88005 0.72502 0
M  V30 570 O 55.3617 -2.51186 0.257269 0
M  V30 571 C 56.6747 -0.68474 2.928 0
M  V30 572 C 58.2227 -0.77659 3.03213 0
M  V30 573 C 58.6977 -0.904207 4.48986 0
M  V30 574 N 60.1887 -0.968896 4.52953 0
M  V30 575 C 60.9237 -1.08703 5.63002 0
M  V30 576 N 60.4197 -1.17026 6.82845 0
M  V30 577 N 62.2127 -1.12074 5.50814 0
M  V30 578 H 54.3637 0.607911 2.03515 0
M  V30 579 H 56.6267 0.21083 0.924259 0
M  V30 580 H 56.3327 0.194284 3.51163 0
M  V30 581 H 56.2067 -1.55435 3.43686 0
M  V30 582 H 58.5937 -1.64606 2.44926 0
M  V30 583 H 58.6747 0.118315 2.55526 0
M  V30 584 H 58.3187 -0.0392633 5.07885 0
M  V30 585 H 58.2487 -1.81426 4.9436 0
M  V30 586 H 60.7397 -0.915633 3.6664 0
M  V30 587 H 61.0527 -1.25966 7.62465 0
M  V30 588 H 59.3977 -1.13971 6.85591 0
M  V30 589 H 62.5887 -1.05226 4.5612 0
M  V30 590 H 62.7617 -1.20936 6.36615 0
M  V30 591 N 56.1678 -1.49265 -0.50573 0
M  V30 592 C 57.4448 -1.49012 -1.26707 0
M  V30 593 C 57.8248 -0.215205 -2.1 0
M  V30 594 O 57.1728 0.802547 -2.13943 0
M  V30 595 C 57.3828 -2.7663 -2.12783 0
M  V30 596 C 58.7308 -3.25932 -2.72127 0
M  V30 597 O 59.7548 -2.77715 -2.23054 0
M  V30 598 O 58.6138 -4.09897 -3.61451 0
M  V30 599 H 55.7078 -0.596197 -0.57313 0
M  V30 600 H 58.2538 -1.61524 -0.52039 0
M  V30 601 H 57.0258 -3.60916 -1.5118 0
M  V30 602 H 56.6488 -2.66956 -2.94653 0
M  V30 603 N 57.6459 0.756429 -1.3826 0
M  V30 604 C 58.5759 1.88374 -1.37976 0
M  V30 605 C 59.5569 1.68311 -0.246082 0
M  V30 606 O 60.7419 1.88944 -0.44874 0
M  V30 607 C 57.8719 3.25864 -1.20125 0
M  V30 608 C 56.8259 3.60523 -2.30666 0
M  V30 609 C 56.1519 4.9672 -1.97923 0
M  V30 610 C 57.4519 3.65692 -3.72916 0
M  V30 611 H 59.1459 1.88869 -2.32312 0
M  V30 612 H 56.6919 0.907272 -1.11824 0
M  V30 613 H 58.6449 4.0438 -1.18552 0
M  V30 614 H 57.3689 3.25841 -0.222498 0
M  V30 615 H 56.0279 2.84324 -2.3142 0
M  V30 616 H 55.6759 4.93253 -0.985393 0
M  V30 617 H 55.3759 5.20878 -2.71955 0
M  V30 618 H 56.8999 5.77618 -1.97964 0
M  V30 619 H 58.3139 4.34328 -3.74208 0
M  V30 620 H 56.7109 4.01358 -4.4613 0
M  V30 621 H 57.7809 2.65987 -4.05436 0
M  V30 622 N 59.124 1.23083 0.984299 0
M  V30 623 C 60.072 1.00593 2.09723 0
M  V30 624 C 61.066 -0.0538014 1.69315 0
M  V30 625 O 62.272 0.0993719 1.79725 0
M  V30 626 H 58.647 0.30817 0.685956 0
M  V30 627 H 60.618 1.95012 2.2586 0
M  V30 628 C 59.367 0.609601 3.42314 0
M  V30 629 H 58.69 1.41675 3.73856 0
M  V30 630 H 60.13 0.491726 4.21139 0
M  V30 631 C 58.589 -0.681745 3.2993 0
M  V30 632 O 59.119 -1.73192 3.62446 0
M  V30 633 N 57.325 -0.656178 2.83095 0
M  V30 634 H 56.872 0.198759 2.56832 0
M  V30 635 H 56.83 -1.52044 2.75191 0
M  V30 636 N 60.6021 -1.18246 1.0419 0
M  V30 637 C 61.5651 -2.20128 0.638452 0
M  V30 638 C 62.5651 -1.57885 -0.304805 0
M  V30 639 O 63.7551 -1.73967 -0.0900369 0
M  V30 640 C 60.8871 -3.4084 -0.0637751 0
M  V30 641 H 62.0801 -2.57336 1.54007 0
M  V30 642 H 59.6331 -1.32152 0.834598 0
M  V30 643 H 60.3681 -3.09166 -0.979136 0
M  V30 644 H 60.1531 -3.8726 0.614198 0
M  V30 645 H 61.6431 -4.16274 -0.332512 0
M  V30 646 N 62.0802 -0.821533 -1.34494 0
M  V30 647 C 63.3052 -0.420873 -2.03085 0
M  V30 648 C 63.7302 0.964915 -1.61465 0
M  V30 649 O 63.0882 1.62763 -0.798607 0
M  V30 650 C 63.1362 -0.529414 -3.56693 0
M  V30 651 O 62.2402 0.451302 -4.09923 0
M  V30 652 H 61.5812 -0.173489 -0.640935 0
M  V30 653 H 64.1112 -1.11157 -1.71771 0
M  V30 654 H 64.1212 -0.404671 -4.05988 0
M  V30 655 H 62.7962 -1.54014 -3.86332 0
M  V30 656 H 61.3732 0.285558 -3.71805 0
M  V30 657 N 63.5583 1.46682 -0.576371 0
M  V30 658 C 64.8043 2.02712 -0.0596221 0
M  V30 659 C 65.1373 1.44765 1.29448 0
M  V30 660 O 64.4123 0.610355 1.84675 0
M  V30 661 C 64.6953 3.60098 0.0129503 0
M  V30 662 C 64.5483 4.28441 -1.3696 0
M  V30 663 C 65.8673 4.34224 0.71678 0
M  V30 664 H 62.9863 0.736637 -0.0231407 0
M  V30 665 H 65.6283 1.74898 -0.742351 0
M  V30 666 H 63.7783 3.83926 0.594378 0
M  V30 667 H 65.4503 4.15896 -1.9957 0
M  V30 668 H 63.6933 3.8805 -1.93907 0
M  V30 669 H 64.3643 5.3716 -1.27135 0
M  V30 670 H 66.8403 4.15503 0.222908 0
M  V30 671 H 65.7163 5.43936 0.73657 0
M  V30 672 H 65.9773 4.04823 1.77682 0
M  V30 673 N 65.0364 0.313813 1.54444 0
M  V30 674 C 66.2614 -0.296681 2.05267 0
M  V30 675 C 66.6864 -1.45757 1.18897 0
M  V30 676 O 66.0444 -1.80239 0.195886 0
M  V30 677 C 66.0924 -0.71831 3.53373 0
M  V30 678 O 65.1964 -1.82175 3.69981 0
M  V30 679 H 64.5374 -0.0554061 0.661684 0
M  V30 680 H 67.0674 0.459387 1.99376 0
M  V30 681 H 67.0774 -1.00364 3.95463 0
M  V30 682 H 65.7524 0.130821 4.15694 0
M  V30 683 H 64.3294 -1.53598 3.39797 0
M  V30 684 N 66.5145 -1.57545 0.0417849 0
M  V30 685 C 67.4775 -2.09885 -0.92093 0
M  V30 686 C 68.4775 -1.01648 -1.24596 0
M  V30 687 O 69.6675 -1.27759 -1.1842 0
M  V30 688 C 66.7995 -2.57527 -2.23367 0
M  V30 689 H 67.9925 -2.96236 -0.467382 0
M  V30 690 H 65.5455 -1.5493 -0.206467 0
M  V30 691 H 66.2805 -1.74542 -2.73323 0
M  V30 692 H 66.0655 -3.36613 -2.01083 0
M  V30 693 H 67.5555 -2.98201 -2.92346 0
M  V30 694 N 67.9926 0.231505 -1.5589 0
M  V30 695 C 69.2396 0.957352 -1.78441 0
M  V30 696 C 69.5676 1.84726 -0.60882 0
M  V30 697 O 68.8226 1.91416 0.40725 0
M  V30 698 C 69.1216 1.83577 -3.0665 0
M  V30 699 C 68.7876 1.09993 -4.37278 0
M  V30 700 C 67.4496 0.896629 -4.72773 0
M  V30 701 C 69.8016 0.579558 -5.17968 0
M  V30 702 C 67.1296 0.160896 -5.86479 0
M  V30 703 C 69.4816 -0.142783 -6.32439 0
M  V30 704 C 68.1456 -0.357427 -6.66542 0
M  V30 705 H 67.4156 0.35032 -0.65296 0
M  V30 706 H 70.0626 0.226259 -1.90159 0
M  V30 707 H 68.3676 2.63441 -2.90011 0
M  V30 708 H 70.0646 2.39934 -3.21298 0
M  V30 709 H 66.6546 1.26835 -4.09403 0
M  V30 710 H 70.8386 0.724125 -4.90989 0
M  V30 711 H 66.0946 -0.0157293 -6.11398 0
M  V30 712 H 70.2686 -0.553559 -6.94196 0
M  V30 713 H 67.8956 -0.929466 -7.54497 0
M  V30 714 N 69.4707 1.49531 0.497807 0
M  V30 715 C 70.4027 1.62559 1.61578 0
M  V30 716 C 71.4157 0.508134 1.54667 0
M  V30 717 O 72.6047 0.780309 1.60541 0
M  V30 718 C 69.7047 1.56925 3.00379 0
M  V30 719 C 68.8777 2.84257 3.3244 0
M  V30 720 C 67.9367 2.71632 4.50669 0
M  V30 721 O 66.9627 3.4557 4.52294 0
M  V30 722 N 68.1647 1.83391 5.5077 0
M  V30 723 H 70.9297 2.58981 1.50828 0
M  V30 724 H 68.4907 1.4666 0.685743 0
M  V30 725 H 70.4827 1.46129 3.77397 0
M  V30 726 H 69.0527 0.683483 3.05037 0
M  V30 727 H 68.2727 3.09381 2.44289 0
M  V30 728 H 69.5607 3.68666 3.5066 0
M  V30 729 H 68.9587 1.22583 5.52259 0
M  V30 730 H 67.5157 1.78515 6.26878 0
M  V30 731 N 70.9488 -0.749086 1.3866 0
M  V30 732 C 72.3648 -1.05276 1.19955 0
M  V30 733 C 72.5648 -2.01435 0.05134 0
M  V30 734 O 71.6208 -2.45232 -0.60147 0
M  V30 735 C 72.9338 -1.62853 2.52783 0
M  V30 736 C 74.4818 -1.75002 2.59506 0
M  V30 737 C 74.9568 -2.35991 3.92521 0
M  V30 738 N 76.4478 -2.43416 3.94085 0
M  V30 739 C 77.1828 -2.91511 4.9377 0
M  V30 740 N 76.6788 -3.39608 6.03853 0
M  V30 741 N 78.4718 -2.90592 4.81157 0
M  V30 742 H 70.6228 -0.111066 2.12109 0
M  V30 743 H 72.8858 -0.111901 0.941373 0
M  V30 744 H 72.5918 -0.99664 3.37283 0
M  V30 745 H 72.4658 -2.61854 2.715 0
M  V30 746 H 74.8528 -2.37317 1.75398 0
M  V30 747 H 74.9338 -0.74693 2.44652 0
M  V30 748 H 74.5778 -1.74308 4.77053 0
M  V30 749 H 74.5078 -3.3695 4.04688 0
M  V30 750 H 76.9988 -2.09405 3.14576 0
M  V30 751 H 77.3118 -3.74775 6.75843 0
M  V30 752 H 75.6568 -3.37653 6.07466 0
M  V30 753 H 78.8478 -2.52332 3.94267 0
M  V30 754 H 79.0208 -3.27762 5.58996 0
M  V30 755 N 72.4269 -1.23603 -0.977757 0
M  V30 756 C 73.8429 -0.999251 -1.24447 0
M  V30 757 C 74.0429 0.298053 -1.99283 0
M  V30 758 O 73.0989 1.01681 -2.31122 0
M  V30 759 C 74.4119 -2.20784 -2.04144 0
M  V30 760 C 75.9599 -2.25303 -2.17273 0
M  V30 761 C 76.4349 -3.45755 -3.00362 0
M  V30 762 N 77.9259 -3.4601 -3.07947 0
M  V30 763 C 78.6609 -4.35868 -3.72568 0
M  V30 764 N 78.1569 -5.35966 -4.38991 0
M  V30 765 N 79.9499 -4.23605 -3.6948 0
M  V30 766 H 72.1009 -2.06986 -0.476483 0
M  V30 767 H 74.3639 -0.907801 -0.273134 0
M  V30 768 H 74.0699 -3.14945 -1.56533 0
M  V30 769 H 73.9439 -2.22085 -3.04891 0
M  V30 770 H 76.3309 -1.3168 -2.64092 0
M  V30 771 H 76.4119 -2.28033 -1.15907 0
M  V30 772 H 76.0559 -4.39687 -2.5424 0
M  V30 773 H 75.9859 -3.40266 -4.01904 0
M  V30 774 H 78.4769 -2.73588 -2.60688 0
M  V30 775 H 78.7899 -6.00783 -4.86086 0
M  V30 776 H 77.1349 -5.39863 -4.37691 0
M  V30 777 H 80.3259 -3.44647 -3.16759 0
M  V30 778 H 80.4989 -4.93836 -4.1956 0
M  V30 779 N 73.905 1.17692 -1.04816 0
M  V30 780 C 75.152 1.87859 -0.75599 0
M  V30 781 C 75.48 1.80812 0.716752 0
M  V30 782 O 74.735 1.20819 1.53952 0
M  V30 783 C 75.034 3.37462 -1.17703 0
M  V30 784 C 74.7 3.64713 -2.65133 0
M  V30 785 C 73.362 3.71859 -3.05408 0
M  V30 786 C 75.714 3.76492 -3.60421 0
M  V30 787 C 73.042 3.88271 -4.39843 0
M  V30 788 C 75.394 3.94421 -4.94585 0
M  V30 789 C 74.058 3.99806 -5.3452 0
M  V30 790 H 73.328 0.687425 -0.276636 0
M  V30 791 H 75.975 1.39255 -1.31455 0
M  V30 792 H 74.28 3.88097 -0.537395 0
M  V30 793 H 75.977 3.90109 -0.928218 0
M  V30 794 H 72.567 3.59772 -2.32942 0
M  V30 795 H 76.751 3.70295 -3.30447 0
M  V30 796 H 72.007 3.90687 -4.70291 0
M  V30 797 H 76.181 4.02477 -5.68318 0
M  V30 798 H 73.808 4.12276 -6.38696 0
M  V30 799 N 75.3831 0.828654 1.34056 0
M  V30 800 C 76.6291 0.42008 1.98402 0
M  V30 801 C 76.9621 -1.01564 1.65525 0
M  V30 802 O 76.2371 -1.70834 0.929831 0
M  V30 803 C 76.5201 0.62927 3.54559 0
M  V30 804 C 76.3731 2.11152 3.97159 0
M  V30 805 C 77.6921 0.0688756 4.40046 0
M  V30 806 H 74.8111 0.154104 0.720709 0
M  V30 807 H 77.4531 1.04228 1.5886 0
M  V30 808 H 75.6031 0.0996418 3.88372 0
M  V30 809 H 77.2751 2.70522 3.73651 0
M  V30 810 H 75.5181 2.59985 3.47261 0
M  V30 811 H 76.1891 2.20868 5.05887 0
M  V30 812 H 78.6651 0.521458 4.1282 0
M  V30 813 H 77.5411 0.245006 5.48353 0
M  V30 814 H 77.8021 -1.0266 4.30015 0
M  V30 815 N 76.8612 -1.46375 0.584142 0
M  V30 816 C 78.1072 -2.02678 0.0703716 0
M  V30 817 C 78.4402 -1.4545 -1.28678 0
M  V30 818 O 77.7152 -0.62014 -1.84349 0
M  V30 819 C 77.9982 -3.60099 0.00614674 0
M  V30 820 C 77.8512 -4.27709 1.3923 0
M  V30 821 C 79.1702 -4.34598 -0.693742 0
M  V30 822 H 76.2892 -0.736504 0.027047 0
M  V30 823 H 78.9312 -1.74501 0.751615 0
M  V30 824 H 77.0812 -3.84236 -0.574009 0
M  V30 825 H 78.7532 -4.14832 2.01773 0
M  V30 826 H 76.9962 -3.87016 1.95962 0
M  V30 827 H 77.6672 -5.36478 1.29982 0
M  V30 828 H 80.1432 -4.15615 -0.200869 0
M  V30 829 H 79.0192 -5.44318 -0.707714 0
M  V30 830 H 79.2802 -4.05759 -1.75533 0
M  V30 831 N 78.3393 -0.321999 -1.54275 0
M  V30 832 C 79.6163 0.335232 -1.92706 0
M  V30 833 C 79.9963 1.70006 -1.25145 0
M  V30 834 O 79.3443 2.25067 -0.394596 0
M  V30 835 C 79.5543 0.429008 -3.46353 0
M  V30 836 C 80.9023 0.690029 -4.18956 0
M  V30 837 O 81.9263 0.511992 -3.52501 0
M  V30 838 O 80.7853 1.03338 -5.36641 0
M  V30 839 H 77.8793 0.191143 -0.804608 0
M  V30 840 H 80.4253 -0.3716 -1.65581 0
M  V30 841 H 79.1973 -0.529611 -3.87699 0
M  V30 842 H 78.8203 1.18348 -3.79578 0
M  V30 843 N 79.8174 1.5752 -0.0501392 0
M  V30 844 C 81.0634 1.92936 0.624798 0
M  V30 845 C 81.3964 0.928685 1.70555 0
M  V30 846 O 80.6714 -0.0454779 1.94447 0
M  V30 847 C 80.9544 3.38737 1.22185 0
M  V30 848 C 80.8074 4.49552 0.149218 0
M  V30 849 C 82.1264 3.84913 2.13378 0
M  V30 850 H 79.2454 0.701604 0.225657 0
M  V30 851 H 81.8874 1.89671 -0.111693 0
M  V30 852 H 80.0374 3.4165 1.84953 0
M  V30 853 H 81.7094 4.58768 -0.482648 0
M  V30 854 H 79.9524 4.30638 -0.522841 0
M  V30 855 H 80.6234 5.48653 0.606966 0
M  V30 856 H 83.0994 3.8387 1.60572 0
M  V30 857 H 81.9754 4.87584 2.52097 0
M  V30 858 H 82.2364 3.21611 3.03346 0
M  V30 859 N 81.2955 -0.223234 1.56011 0
M  V30 860 C 82.7115 -0.572856 1.48965 0
M  V30 861 C 82.9115 -1.87225 0.74492 0
M  V30 862 O 81.9675 -2.50899 0.283896 0
M  V30 863 C 83.2805 -0.653646 2.9351 0
M  V30 864 C 84.8285 -0.744386 3.0402 0
M  V30 865 C 85.3035 -0.856535 4.49919 0
M  V30 866 N 86.7945 -0.9208 4.53955 0
M  V30 867 C 87.5295 -1.02726 5.64123 0
M  V30 868 N 87.0255 -1.09777 6.84047 0
M  V30 869 N 88.8185 -1.06226 5.51971 0
M  V30 870 H 80.9695 0.629462 2.02858 0
M  V30 871 H 83.2325 0.220621 0.921971 0
M  V30 872 H 82.9385 0.231518 3.50937 0
M  V30 873 H 82.8125 -1.51781 3.45315 0
M  V30 874 H 85.1995 -1.61999 2.46658 0
M  V30 875 H 85.2805 0.14541 2.55386 0
M  V30 876 H 84.9245 0.0146069 5.07898 0
M  V30 877 H 84.8545 -1.76172 4.96257 0
M  V30 878 H 87.3455 -0.876694 3.6759 0
M  V30 879 H 87.6585 -1.17872 7.63758 0
M  V30 880 H 86.0035 -1.06693 6.86762 0
M  V30 881 H 89.1945 -1.00382 4.5721 0
M  V30 882 H 89.3675 -1.14177 6.37862 0
M  V30 883 N 82.7736 -1.49793 -0.48987 0
M  V30 884 C 84.1896 -1.36803 -0.822022 0
M  V30 885 C 84.3896 -0.409652 -1.97292 0
M  V30 886 O 83.4456 0.154614 -2.52026 0
M  V30 887 C 84.7586 -2.77768 -1.15175 0
M  V30 888 C 86.3066 -2.86549 -1.25931 0
M  V30 889 C 86.7816 -4.28306 -1.62228 0
M  V30 890 N 88.2726 -4.31169 -1.69256 0
M  V30 891 C 89.0076 -5.37832 -1.98807 0
M  V30 892 N 88.5036 -6.54726 -2.26507 0
M  V30 893 N 90.2966 -5.25258 -2.00152 0
M  V30 894 H 82.4476 -2.10691 0.268881 0
M  V30 895 H 84.7106 -0.946241 0.057728 0
M  V30 896 H 84.4166 -3.49648 -0.379335 0
M  V30 897 H 84.2906 -3.13836 -2.09253 0
M  V30 898 H 86.6776 -2.14899 -2.02243 0
M  V30 899 H 86.7586 -2.54049 -0.298776 0
M  V30 900 H 86.4026 -5.00486 -0.864622 0
M  V30 901 H 86.3326 -4.58279 -2.594 0
M  V30 902 H 88.8236 -3.4687 -1.49965 0
M  V30 903 H 89.1366 -7.31833 -2.48276 0
M  V30 904 H 87.4816 -6.57933 -2.23939 0
M  V30 905 H 90.6726 -4.32938 -1.77996 0
M  V30 906 H 90.8456 -6.08476 -2.22848 0
M  V30 907 N 84.2517 0.741722 -1.39055 0
M  V30 908 C 85.4917 1.51385 -1.37338 0
M  V30 909 C 85.8557 1.91972 0.0330513 0
M  V30 910 O 87.0567 2.68229 0.175174 0
M  V30 911 C 85.3277 2.72481 -2.31276 0
M  V30 912 S 86.8867 3.62211 -2.47687 0
M  V30 913 H 83.7047 0.517906 -0.487129 0
M  V30 914 H 86.3067 0.86969 -1.7509 0
M  V30 915 H 85.0107 2.40793 -3.32336 0
M  V30 916 H 84.5417 3.41832 -1.94716 0
M  V30 917 H 86.5567 4.65812 -1.70978 0
M  V30 918 N 85.7298 1.2412 0.971189 0
M  V30 919 C 86.6398 1.04747 2.09917 0
M  V30 920 C 87.6558 -0.0107162 1.73997 0
M  V30 921 O 88.8318 0.186714 2.00533 0
M  V30 922 C 85.8968 0.650828 3.40537 0
M  V30 923 C 84.9578 1.7851 3.90426 0
M  V30 924 C 84.1908 1.40729 5.14812 0
M  V30 925 O 84.4138 0.29557 5.69634 0
M  V30 926 O 83.3478 2.23168 5.58999 0
M  V30 927 H 87.1738 1.99304 2.29154 0
M  V30 928 H 84.7588 1.02908 1.08307 0
M  V30 929 H 86.6408 0.440992 4.19086 0
M  V30 930 H 85.3158 -0.265649 3.22608 0
M  V30 931 H 84.2228 2.04966 3.12953 0
M  V30 932 H 85.5558 2.68023 4.12825 0
M  V30 933 N 87.2079 -1.17134 1.05439 0
M  V30 934 C 88.1179 -2.24878 0.668365 0
M  V30 935 C 89.1339 -1.71186 -0.311687 0
M  V30 936 O 90.3099 -2.00738 -0.163161 0
M  V30 937 C 87.3749 -3.46662 0.051648 0
M  V30 938 C 86.4359 -4.15429 1.08246 0
M  V30 939 C 85.6689 -5.31399 0.495082 0
M  V30 940 O 85.8919 -5.66153 -0.694743 0
M  V30 941 O 84.8259 -5.89187 1.23056 0
M  V30 942 H 88.6519 -2.60189 1.56637 0
M  V30 943 H 86.2369 -1.24482 0.826104 0
M  V30 944 H 88.1189 -4.20394 -0.290966 0
M  V30 945 H 86.7939 -3.13142 -0.819971 0
M  V30 946 H 85.7009 -3.43704 1.47711 0
M  V30 947 H 87.0339 -4.52982 1.92532 0
M  V30 948 N 88.686 -0.835752 -1.33615 0
M  V30 949 C 89.616 -0.281739 -2.31794 0
M  V30 950 C 90.597 0.608833 -1.58831 0
M  V30 951 O 91.782 0.533035 -1.86741 0
M  V30 952 C 88.912 0.546612 -3.42971 0
M  V30 953 C 87.866 -0.247904 -4.27281 0
M  V30 954 C 87.192 0.704001 -5.30045 0
M  V30 955 C 88.492 -1.46324 -5.01385 0
M  V30 956 H 90.186 -1.10206 -2.78379 0
M  V30 957 H 87.732 -0.531388 -1.33837 0
M  V30 958 H 89.685 0.944467 -4.1068 0
M  V30 959 H 88.409 1.40011 -2.95067 0
M  V30 960 H 87.068 -0.627281 -3.61194 0
M  V30 961 H 86.716 1.55381 -4.78399 0
M  V30 962 H 86.416 0.176524 -5.87335 0
M  V30 963 H 87.94 1.09944 -6.0062 0
M  V30 964 H 89.354 -1.13871 -5.61877 0
M  V30 965 H 87.751 -1.92728 -5.6831 0
M  V30 966 H 88.821 -2.23467 -4.30338 0
M  V30 967 N 90.1641 1.46063 -0.591896 0
M  V30 968 C 91.0741 2.34192 0.13831 0
M  V30 969 C 92.0901 1.50305 0.876608 0
M  V30 970 O 93.2661 1.8315 0.837728 0
M  V30 971 C 90.3311 3.27656 1.13326 0
M  V30 972 C 89.3921 4.27445 0.39863 0
M  V30 973 C 88.6251 5.16443 1.34618 0
M  V30 974 O 88.8481 5.08553 2.58321 0
M  V30 975 O 87.7821 5.95843 0.851768 0
M  V30 976 H 91.6081 2.98002 -0.58552 0
M  V30 977 H 89.1931 1.45188 -0.352239 0
M  V30 978 H 91.0751 3.85291 1.70671 0
M  V30 979 H 89.7501 2.6643 1.83839 0
M  V30 980 H 88.6571 3.73471 -0.216895 0
M  V30 981 H 89.9901 4.91482 -0.265709 0
M  V30 982 N 91.6422 0.330177 1.54103 0
M  V30 983 C 92.5892 -0.532762 2.24567 0
M  V30 984 C 93.5592 -1.10635 1.23892 0
M  V30 985 O 94.7442 -1.14546 1.5259 0
M  V30 986 C 91.8842 -1.6845 3.01195 0
M  V30 987 C 90.9972 -1.13951 4.167 0
M  V30 988 C 90.1322 -2.25746 4.80845 0
M  V30 989 C 89.1712 -1.6853 5.88442 0
M  V30 990 N 88.3082 -2.74014 6.46421 0
M  V30 991 H 93.1482 0.0746905 2.97906 0
M  V30 992 H 90.6852 0.048632 1.4702 0
M  V30 993 H 92.6432 -2.36234 3.43874 0
M  V30 994 H 91.2732 -2.26314 2.30178 0
M  V30 995 H 90.3252 -0.35301 3.78758 0
M  V30 996 H 91.6372 -0.680892 4.94131 0
M  V30 997 H 90.7912 -3.01422 5.26526 0
M  V30 998 H 89.5302 -2.74947 4.0281 0
M  V30 999 H 88.5352 -0.913543 5.42157 0
M  V30 1000 H 89.7602 -1.20198 6.68378 0
M  V30 1001 H 87.7062 -3.22494 5.71256 0
M  V30 1002 H 87.6232 -2.32735 7.19285 0
M  V30 1003 H 88.8912 -3.49499 6.96757 0
M  V30 1004 N 93.1203 -1.57491 0.0584922 0
M  V30 1005 C 94.3483 -1.97296 -0.623037 0
M  V30 1006 C 94.7633 -0.936338 -1.63946 0
M  V30 1007 O 94.1203 0.0785981 -1.82331 0
M  V30 1008 C 94.1713 -3.37183 -1.30345 0
M  V30 1009 O 93.8923 -4.36872 -0.32773 0
M  V30 1010 C 95.3933 -3.91788 -2.07406 0
M  V30 1011 H 92.6133 -0.649153 -0.169826 0
M  V30 1012 H 95.1573 -2.04106 0.12696 0
M  V30 1013 H 93.3123 -3.31502 -2.00463 0
M  V30 1014 H 93.7263 -5.18141 -0.814269 0
M  V30 1015 H 95.2003 -4.91926 -2.50425 0
M  V30 1016 H 95.6773 -3.27609 -2.92521 0
M  V30 1017 H 96.2833 -4.00829 -1.42184 0
M  V30 1018 N 94.5984 0.214957 -1.56127 0
M  V30 1019 C 95.8454 0.938372 -1.79446 0
M  V30 1020 C 96.1734 1.8407 -0.628378 0
M  V30 1021 O 95.4284 1.91837 0.386925 0
M  V30 1022 C 95.7274 1.80314 -3.0858 0
M  V30 1023 C 95.3934 1.05349 -4.3842 0
M  V30 1024 C 94.0554 0.846435 -4.73697 0
M  V30 1025 C 96.4074 0.524588 -5.18553 0
M  V30 1026 C 93.7354 0.098683 -5.86617 0
M  V30 1027 C 96.0874 -0.209853 -6.32252 0
M  V30 1028 C 94.7514 -0.428102 -6.66126 0
M  V30 1029 H 94.0214 0.343375 -0.656639 0
M  V30 1030 H 96.6684 0.206077 -1.90388 0
M  V30 1031 H 94.9734 2.6035 -2.92789 0
M  V30 1032 H 96.6704 2.36513 -3.23825 0
M  V30 1033 H 93.2604 1.22486 -4.10725 0
M  V30 1034 H 97.4444 0.672008 -4.91729 0
M  V30 1035 H 92.7004 -0.0805753 -6.11347 0
M  V30 1036 H 96.8744 -0.627157 -6.9357 0
M  V30 1037 H 94.5014 -1.00944 -7.53468 0
M  V30 1038 N 96.0765 1.50051 0.48192 0
M  V30 1039 C 97.3045 1.64237 1.25832 0
M  V30 1040 C 97.7195 0.321336 1.86045 0
M  V30 1041 O 97.0765 -0.695478 1.68729 0
M  V30 1042 C 97.1275 2.72548 2.37487 0
M  V30 1043 O 96.8485 3.99529 1.79745 0
M  V30 1044 C 98.3495 2.9761 3.28547 0
M  V30 1045 H 95.5695 0.55237 0.380957 0
M  V30 1046 H 98.1135 1.96207 0.576467 0
M  V30 1047 H 96.2685 2.43303 3.01467 0
M  V30 1048 H 96.6825 4.59342 2.5319 0
M  V30 1049 H 98.1565 3.77084 4.03127 0
M  V30 1050 H 98.6335 2.0826 3.86684 0
M  V30 1051 H 99.2395 3.28345 2.70314 0
M  V30 1052 N 97.5546 -0.734337 1.39446 0
M  V30 1053 C 98.8016 -1.49391 1.36706 0
M  V30 1054 C 99.1296 -1.94465 -0.0367813 0
M  V30 1055 O 98.3846 -1.67154 -1.01774 0
M  V30 1056 C 98.6836 -2.74711 2.28623 0
M  V30 1057 C 98.3496 -2.48501 3.76242 0
M  V30 1058 C 97.0116 -2.41062 4.16464 0
M  V30 1059 C 99.3636 -2.26098 4.69606 0
M  V30 1060 C 96.6916 -2.09262 5.48112 0
M  V30 1061 C 99.0436 -1.95814 6.01531 0
M  V30 1062 C 97.7076 -1.86845 6.40816 0
M  V30 1063 H 96.9776 -0.546661 0.500243 0
M  V30 1064 H 99.6246 -0.842788 1.71957 0
M  V30 1065 H 97.9296 -3.44569 1.86492 0
M  V30 1066 H 99.6266 -3.32741 2.23796 0
M  V30 1067 H 96.2166 -2.55169 3.44364 0
M  V30 1068 H 100.401 -2.30812 4.39363 0
M  V30 1069 H 95.6566 -2.00841 5.77471 0
M  V30 1070 H 99.8306 -1.77488 6.73403 0
M  V30 1071 H 97.4576 -1.6197 7.42745 0
M  V30 1072 N 99.0327 -1.24633 -0.964593 0
M  V30 1073 C 99.9627 -1.06611 -2.07741 0
M  V30 1074 C 100.944 0.0218666 -1.70086 0
M  V30 1075 O 102.129 -0.145793 -1.93652 0
M  V30 1076 C 99.2587 -0.673444 -3.40708 0
M  V30 1077 C 98.2127 -1.71054 -3.92332 0
M  V30 1078 C 97.5387 -1.17285 -5.21678 0
M  V30 1079 C 98.8387 -3.10718 -4.19824 0
M  V30 1080 H 100.533 -1.99693 -2.23076 0
M  V30 1081 H 98.0787 -0.96152 -1.07195 0
M  V30 1082 H 100.032 -0.534345 -4.17998 0
M  V30 1083 H 98.7557 0.293073 -3.25282 0
M  V30 1084 H 97.4147 -1.83791 -3.17201 0
M  V30 1085 H 97.0627 -0.196847 -5.02615 0
M  V30 1086 H 96.7627 -1.86592 -5.57187 0
M  V30 1087 H 98.2867 -1.04593 -6.01575 0
M  V30 1088 H 99.7007 -3.01192 -4.87808 0
M  V30 1089 H 98.0977 -3.77406 -4.66567 0
M  V30 1090 H 99.1677 -3.58524 -3.26479 0
M  V30 1091 N 100.511 1.16574 -1.06058 0
M  V30 1092 C 101.443 2.2045 -0.627239 0
M  V30 1093 C 102.456 1.59752 0.313534 0
M  V30 1094 O 103.645 1.78192 0.104896 0
M  V30 1095 C 100.745 3.3875 0.100974 0
M  V30 1096 C 99.9178 4.29008 -0.852687 0
M  V30 1097 C 98.9768 5.25944 -0.164152 0
M  V30 1098 O 98.0028 5.63535 -0.801047 0
M  V30 1099 N 99.2048 5.70075 1.09518 0
M  V30 1100 H 101.97 2.58249 -1.52077 0
M  V30 1101 H 99.5308 1.3156 -0.943594 0
M  V30 1102 H 101.523 4.00638 0.57194 0
M  V30 1103 H 100.093 2.99476 0.89628 0
M  V30 1104 H 99.3128 3.64419 -1.50308 0
M  V30 1105 H 100.601 4.86195 -1.49972 0
M  V30 1106 H 99.9988 5.41624 1.6328 0
M  V30 1107 H 98.5558 6.34067 1.51006 0
M  V30 1108 N 101.989 0.842826 1.3317 0
M  V30 1109 C 102.899 0.281444 2.32906 0
M  V30 1110 C 103.915 -0.594587 1.63526 0
M  V30 1111 O 105.091 -0.49777 1.95152 0
M  V30 1112 C 102.156 -0.530929 3.42611 0
M  V30 1113 C 101.217 0.369843 4.27704 0
M  V30 1114 C 100.45 -0.403853 5.3217 0
M  V30 1115 O 100.673 -1.63513 5.46461 0
M  V30 1116 O 99.6069 0.224199 6.01482 0
M  V30 1117 H 103.433 1.10744 2.82789 0
M  V30 1118 H 101.018 0.60545 1.36582 0
M  V30 1119 H 102.9 -0.992437 4.09547 0
M  V30 1120 H 101.575 -1.33392 2.94938 0
M  V30 1121 H 100.482 0.879275 3.6362 0
M  V30 1122 H 101.815 1.13771 4.78871 0
M  V30 1123 N 103.467 -1.45747 0.599634 0
M  V30 1124 C 104.377 -2.34262 -0.125888 0
M  V30 1125 C 105.393 -1.50768 -0.868625 0
M  V30 1126 O 106.569 -1.83592 -0.828003 0
M  V30 1127 C 103.634 -3.28252 -1.11587 0
M  V30 1128 C 102.695 -4.27651 -0.375956 0
M  V30 1129 C 101.928 -5.1715 -1.31877 0
M  V30 1130 O 102.151 -5.09916 -2.55621 0
M  V30 1131 O 101.085 -5.96286 -0.820157 0
M  V30 1132 H 104.911 -2.97688 0.601315 0
M  V30 1133 H 102.496 -1.44999 0.359934 0
M  V30 1134 H 104.378 -3.86191 -1.68626 0
M  V30 1135 H 103.053 -2.67401 -1.82424 0
M  V30 1136 H 101.96 -3.7335 0.236698 0
M  V30 1137 H 103.293 -4.91334 0.29177 0
M  V30 1138 N 104.945 -0.338344 -1.53925 0
M  V30 1139 C 106.191 0.260143 -2.01125 0
M  V30 1140 C 106.524 1.50617 -1.22589 0
M  V30 1141 O 105.799 1.91979 -0.312113 0
M  V30 1142 C 106.082 0.579499 -3.55407 0
M  V30 1143 C 105.935 -0.678264 -4.44657 0
M  V30 1144 C 107.254 1.39122 -4.17532 0
M  V30 1145 H 104.373 0.0930772 -0.731099 0
M  V30 1146 H 107.015 -0.457852 -1.84401 0
M  V30 1147 H 105.165 1.19118 -3.69788 0
M  V30 1148 H 106.837 -1.31631 -4.42121 0
M  V30 1149 H 105.08 -1.3042 -4.13731 0
M  V30 1150 H 105.751 -0.410143 -5.50474 0
M  V30 1151 H 108.227 0.874035 -4.06817 0
M  V30 1152 H 107.103 1.58342 -5.25565 0
M  V30 1153 H 107.364 2.39178 -3.71815 0
M  V30 1154 N 106.423 1.57458 -0.0668435 0
M  V30 1155 C 107.839 1.56947 0.289772 0
M  V30 1156 C 108.039 1.07584 1.70376 0
M  V30 1157 O 107.095 0.739486 2.41429 0
M  V30 1158 C 108.408 3.0052 0.103943 0
M  V30 1159 C 109.956 3.12517 0.173857 0
M  V30 1160 C 110.431 4.57997 0.0163682 0
M  V30 1161 N 111.922 4.63144 0.0721352 0
M  V30 1162 C 112.657 5.73394 -0.0253794 0
M  V30 1163 N 112.153 6.92576 -0.176133 0
M  V30 1164 N 113.946 5.62091 0.0313305 0
M  V30 1165 H 106.097 1.87863 -0.991027 0
M  V30 1166 H 108.36 0.86583 -0.38606 0
M  V30 1167 H 108.066 3.40729 -0.871572 0
M  V30 1168 H 107.94 3.67304 0.858366 0
M  V30 1169 H 110.327 2.72197 1.13985 0
M  V30 1170 H 110.408 2.48381 -0.611586 0
M  V30 1171 H 110.052 4.99005 -0.946374 0
M  V30 1172 H 109.982 5.20158 0.821153 0
M  V30 1173 H 112.473 3.77436 0.187263 0
M  V30 1174 H 112.786 7.72418 -0.242821 0
M  V30 1175 H 111.131 6.94678 -0.211429 0
M  V30 1176 H 114.322 4.67867 0.147773 0
M  V30 1177 H 114.495 6.47982 -0.048121 0
M  V30 1178 N 107.901 -0.206675 1.56239 0
M  V30 1179 C 109.317 -0.557025 1.49564 0
M  V30 1180 C 109.517 -1.86424 0.764735 0
M  V30 1181 O 108.573 -2.50584 0.310491 0
M  V30 1182 C 109.886 -0.622478 2.94186 0
M  V30 1183 C 111.434 -0.712099 3.04792 0
M  V30 1184 C 111.909 -0.808767 4.50803 0
M  V30 1185 N 113.4 -0.8726 4.54907 0
M  V30 1186 C 114.135 -0.967365 5.65181 0
M  V30 1187 N 113.631 -1.02515 6.85173 0
M  V30 1188 N 115.424 -1.00366 5.53067 0
M  V30 1189 H 107.575 0.650943 2.02179 0
M  V30 1190 H 109.838 0.230387 0.919579 0
M  V30 1191 H 109.544 0.268727 3.50672 0
M  V30 1192 H 109.418 -1.4811 3.46905 0
M  V30 1193 H 111.805 -1.59374 2.48363 0
M  V30 1194 H 111.886 0.172489 2.55218 0
M  V30 1195 H 111.53 0.0684754 5.07854 0
M  V30 1196 H 111.46 -1.70899 4.98098 0
M  V30 1197 H 113.951 -0.837657 3.68499 0
M  V30 1198 H 114.264 -1.09765 7.64965 0
M  V30 1199 H 112.609 -0.994026 6.87855 0
M  V30 1200 H 115.8 -0.95527 4.58249 0
M  V30 1201 H 115.973 -1.07405 6.39037 0
M  V30 1202 N 109.379 -1.50304 -0.473955 0
M  V30 1203 C 110.342 -1.6841 -1.55469 0
M  V30 1204 C 111.342 -0.554905 -1.50922 0
M  V30 1205 O 112.532 -0.821882 -1.53593 0
M  V30 1206 C 109.664 -1.70667 -2.95102 0
M  V30 1207 H 110.857 -2.64828 -1.40733 0
M  V30 1208 H 108.41 -1.39742 -0.700132 0
M  V30 1209 H 109.145 -0.75932 -3.15285 0
M  V30 1210 H 108.93 -2.52698 -2.9981 0
M  V30 1211 H 110.42 -1.8664 -3.73571 0
M  V30 1212 N 110.857 0.726932 -1.39834 0
M  V30 1213 C 112.105 1.4837 -1.37225 0
M  V30 1214 C 112.426 1.94979 0.0284857 0
M  V30 1215 O 111.696 1.69555 0.981213 0
M  V30 1216 H 110.276 0.55043 -0.505011 0
M  V30 1217 H 112.938 0.862468 -1.74778 0
M  V30 1218 H 112.034 2.36198 -2.04003 0
M  V30 1219 N 112.336 1.25143 0.95797 0
M  V30 1220 C 113.266 1.07711 2.07173 0
M  V30 1221 C 114.247 -0.0128462 1.70095 0
M  V30 1222 O 115.432 0.156061 1.93572 0
M  V30 1223 C 112.562 0.691503 3.40346 0
M  V30 1224 C 111.516 1.73132 3.9142 0
M  V30 1225 C 110.842 1.20049 5.21049 0
M  V30 1226 C 112.142 3.1294 4.1817 0
M  V30 1227 H 113.836 2.00873 2.22014 0
M  V30 1228 H 111.382 0.967191 1.06684 0
M  V30 1229 H 113.335 0.556505 4.17709 0
M  V30 1230 H 112.059 -0.275819 3.25433 0
M  V30 1231 H 110.718 1.8547 3.16222 0
M  V30 1232 H 110.366 0.223499 5.02503 0
M  V30 1233 H 110.066 1.89545 5.56189 0
M  V30 1234 H 111.59 1.07782 6.01012 0
M  V30 1235 H 113.004 3.03775 4.86203 0
M  V30 1236 H 111.401 3.79875 4.64559 0
M  V30 1237 H 112.471 3.6025 3.24573 0
M  V30 1238 N 113.814 -1.1601 1.06675 0
M  V30 1239 C 115.06 -1.86909 0.786945 0
M  V30 1240 C 115.393 -1.81717 -0.685018 0
M  V30 1241 O 114.668 -1.23551 -1.50218 0
M  V30 1242 C 114.951 -3.36313 1.28707 0
M  V30 1243 C 114.804 -3.50175 2.82308 0
M  V30 1244 C 116.123 -4.3084 0.898071 0
M  V30 1245 H 113.242 -0.678677 0.287343 0
M  V30 1246 H 115.884 -1.36336 1.32334 0
M  V30 1247 H 114.034 -3.79513 0.830768 0
M  V30 1248 H 115.706 -3.15886 3.36175 0
M  V30 1249 H 113.949 -2.91959 3.20847 0
M  V30 1250 H 114.62 -4.55116 3.12368 0
M  V30 1251 H 117.096 -3.95561 1.29114 0
M  V30 1252 H 115.972 -5.33876 1.27543 0
M  V30 1253 H 116.233 -4.41662 -0.196651 0
M  V30 1254 N 115.292 -0.849877 -1.32721 0
M  V30 1255 C 116.222 -0.306308 -2.31482 0
M  V30 1256 C 117.203 0.591952 -1.59468 0
M  V30 1257 O 118.388 0.513199 -1.87296 0
M  V30 1258 C 115.518 0.510204 -3.43532 0
M  V30 1259 C 114.472 -0.293209 -4.26994 0
M  V30 1260 C 113.798 0.647743 -5.30762 0
M  V30 1261 C 115.098 -1.51634 -4.99804 0
M  V30 1262 H 116.792 -1.13153 -2.77195 0
M  V30 1263 H 114.338 -0.545553 -1.33266 0
M  V30 1264 H 116.291 0.900856 -4.11658 0
M  V30 1265 H 115.015 1.36874 -2.96535 0
M  V30 1266 H 113.674 -0.665555 -3.60508 0
M  V30 1267 H 113.322 1.50299 -4.8002 0
M  V30 1268 H 113.022 0.11422 -5.87489 0
M  V30 1269 H 114.546 1.03567 -6.01753 0
M  V30 1270 H 115.96 -1.19824 -5.60638 0
M  V30 1271 H 114.357 -1.98745 -5.66234 0
M  V30 1272 H 115.427 -2.28018 -4.27943 0
M  V30 1273 N 116.77 1.45427 -0.607355 0
M  V30 1274 C 118.181 1.85756 -0.187535 0
M  V30 1275 C 118.532 1.5077 1.25551 0
M  V30 1276 O 117.657 0.93427 1.95193 0
M  V30 1277 C 118.252 3.37154 -0.333572 0
M  V30 1278 C 116.811 3.76387 0.0315542 0
M  V30 1279 C 115.958 2.69377 -0.658117 0
M  V30 1280 H 118.909 1.36231 -0.81405 0
M  V30 1281 H 118.93 3.78014 0.43428 0
M  V30 1282 H 118.442 3.62586 -1.38393 0
M  V30 1283 H 116.543 3.56571 1.0811 0
M  V30 1284 H 116.656 4.77731 -0.361935 0
M  V30 1285 H 115.02 2.5452 -0.0957873 0
M  V30 1286 H 115.803 2.97646 -1.7106 0
M  V30 1287 N 118.248 0.346503 1.53744 0
M  V30 1288 C 119.659 -0.136779 1.86198 0
M  V30 1289 C 120.01 -1.49749 1.26766 0
M  V30 1290 O 119.135 -2.08417 0.582355 0
M  V30 1291 C 119.73 -0.254966 3.37839 0
M  V30 1292 C 118.289 -0.682482 3.70161 0
M  V30 1293 C 117.436 0.181981 2.76702 0
M  V30 1294 H 120.387 0.565994 1.48264 0
M  V30 1295 H 120.408 -1.08195 3.64793 0
M  V30 1296 H 119.92 0.735526 3.81066 0
M  V30 1297 H 118.021 -1.68189 3.3248 0
M  V30 1298 H 118.134 -0.470326 4.76786 0
M  V30 1299 H 116.498 -0.34615 2.52337 0
M  V30 1300 H 117.281 1.16966 3.2276 0
M  V30 1301 N 119.726 -1.57421 0.075193 0
M  V30 1302 C 121.137 -1.81021 -0.456964 0
M  V30 1303 C 121.488 -0.98936 -1.69429 0
M  V30 1304 O 120.613 -0.212865 -2.15351 0
M  V30 1305 C 121.208 -3.28329 -0.83581 0
M  V30 1306 C 119.767 -3.52764 -1.31281 0
M  V30 1307 C 118.914 -2.75676 -0.299648 0
M  V30 1308 H 121.865 -1.55822 0.300856 0
M  V30 1309 H 121.886 -3.40564 -1.69696 0
M  V30 1310 H 121.398 -3.88046 0.0649238 0
M  V30 1311 H 119.499 -2.98355 -2.23193 0
M  V30 1312 H 119.612 -4.61451 -1.28839 0
M  V30 1313 H 117.976 -2.42538 -0.777641 0
M  V30 1314 H 118.759 -3.38132 0.593417 0
M  V30 1315 N 121.204 0.198386 -1.56346 0
M  V30 1316 C 122.151 1.24589 -1.94284 0
M  V30 1317 C 123.121 1.454 -0.802997 0
M  V30 1318 O 124.306 1.58588 -1.06087 0
M  V30 1319 C 121.446 2.58631 -2.28482 0
M  V30 1320 C 120.559 2.45426 -3.55514 0
M  V30 1321 C 119.694 3.7215 -3.79049 0
M  V30 1322 C 118.733 3.53763 -4.99518 0
M  V30 1323 N 117.87 4.72491 -5.19323 0
M  V30 1324 H 122.71 0.915356 -2.83593 0
M  V30 1325 H 120.247 0.440629 -1.40346 0
M  V30 1326 H 122.205 3.3672 -2.46324 0
M  V30 1327 H 120.835 2.89734 -1.42317 0
M  V30 1328 H 119.887 1.58652 -3.45737 0
M  V30 1329 H 121.199 2.27772 -4.43758 0
M  V30 1330 H 120.353 4.58679 -3.97113 0
M  V30 1331 H 119.092 3.92754 -2.89129 0
M  V30 1332 H 118.097 2.65619 -4.8138 0
M  V30 1333 H 119.322 3.34607 -5.90944 0
M  V30 1334 H 117.268 4.93365 -4.3235 0
M  V30 1335 H 117.185 4.5765 -6.01741 0
M  V30 1336 H 118.453 5.6038 -5.41843 0
M  V30 1337 N 122.682 1.50554 0.465978 0
M  V30 1338 C 123.93 1.61479 1.21528 0
M  V30 1339 C 124.251 0.319596 1.92363 0
M  V30 1340 O 123.521 -0.663194 1.84333 0
M  V30 1341 H 122.101 0.595055 0.451573 0
M  V30 1342 H 124.763 1.87355 0.53704 0
M  V30 1343 H 123.859 2.42846 1.96042 0
M  V30 1344 N 124.16 -0.719506 1.40217 0
M  V30 1345 C 125.576 -1.02707 1.22161 0
M  V30 1346 C 125.776 -2.0128 0.0940557 0
M  V30 1347 O 124.832 -2.46452 -0.549318 0
M  V30 1348 C 126.145 -1.57454 2.56181 0
M  V30 1349 C 127.693 -1.69458 2.63159 0
M  V30 1350 C 128.168 -2.27611 3.97438 0
M  V30 1351 N 129.659 -2.35002 3.99159 0
M  V30 1352 C 130.394 -2.80972 4.99842 0
M  V30 1353 N 129.89 -3.26723 6.10921 0
M  V30 1354 N 131.683 -2.80321 4.87213 0
M  V30 1355 H 123.834 -0.0660492 2.12297 0
M  V30 1356 H 126.097 -0.0919077 0.943534 0
M  V30 1357 H 125.803 -0.924873 3.39321 0
M  V30 1358 H 125.677 -2.56036 2.76993 0
M  V30 1359 H 128.064 -2.33543 1.80393 0
M  V30 1360 H 128.145 -0.694867 2.46181 0
M  V30 1361 H 127.789 -1.6415 4.80643 0
M  V30 1362 H 127.719 -3.2829 4.11744 0
M  V30 1363 H 130.21 -2.02685 3.18947 0
M  V30 1364 H 130.523 -3.60355 6.8364 0
M  V30 1365 H 128.868 -3.24692 6.14492 0
M  V30 1366 H 132.059 -2.43912 3.9953 0
M  V30 1367 H 132.232 -3.15831 5.65822 0
M  V30 1368 N 125.638 -1.25649 -0.95132 0
M  V30 1369 C 126.568 -1.08808 -2.06599 0
M  V30 1370 C 127.549 0.00382547 -1.701 0
M  V30 1371 O 128.734 -0.166325 -1.93486 0
M  V30 1372 C 125.864 -0.709542 -3.39975 0
M  V30 1373 C 124.818 -1.75206 -3.90496 0
M  V30 1374 C 124.144 -1.22811 -5.20405 0
M  V30 1375 C 125.444 -3.15153 -4.16504 0
M  V30 1376 H 127.138 -2.02048 -2.20946 0
M  V30 1377 H 124.684 -0.972835 -1.06169 0
M  V30 1378 H 126.637 -0.578649 -4.17408 0
M  V30 1379 H 125.361 0.258556 -3.25575 0
M  V30 1380 H 124.02 -1.87145 -3.15234 0
M  V30 1381 H 123.668 -0.250145 -5.02378 0
M  V30 1382 H 123.368 -1.92492 -5.55176 0
M  V30 1383 H 124.892 -1.10968 -6.00432 0
M  V30 1384 H 126.306 -3.06349 -4.84586 0
M  V30 1385 H 124.703 -3.82333 -4.62538 0
M  V30 1386 H 125.773 -3.61966 -3.22658 0
M  V30 1387 N 127.117 1.15442 -1.07289 0
M  V30 1388 C 128.528 1.67803 -0.818475 0
M  V30 1389 C 128.879 1.8489 0.656507 0
M  V30 1390 O 128.004 1.55176 1.50829 0
M  V30 1391 C 128.599 3.04805 -1.47917 0
M  V30 1392 C 127.158 3.54245 -1.27229 0
M  V30 1393 C 126.305 2.29986 -1.54925 0
M  V30 1394 H 129.256 0.996646 -1.23502 0
M  V30 1395 H 129.277 3.69702 -0.90005 0
M  V30 1396 H 128.789 2.92336 -2.55267 0
M  V30 1397 H 126.89 3.71956 -0.21899 0
M  V30 1398 H 127.003 4.35723 -1.99203 0
M  V30 1399 H 125.367 2.35496 -0.970242 0
M  V30 1400 H 126.15 2.20105 -2.63455 0
M  V30 1401 N 128.595 0.856903 1.32268 0
M  V30 1402 C 129.558 0.308171 2.27119 0
M  V30 1403 C 130.558 -0.533421 1.51695 0
M  V30 1404 O 131.748 -0.344607 1.70757 0
M  V30 1405 C 128.88 -0.563757 3.36206 0
M  V30 1406 H 130.073 1.14535 2.77167 0
M  V30 1407 H 127.626 0.631421 1.42978 0
M  V30 1408 H 128.361 -1.42266 2.91429 0
M  V30 1409 H 128.146 0.0386749 3.92081 0
M  V30 1410 H 129.636 -0.940386 4.06874 0
M  V30 1411 N 130.073 -1.45103 0.615059 0
M  V30 1412 C 131.484 -1.85654 0.197383 0
M  V30 1413 C 131.835 -1.51433 -1.24749 0
M  V30 1414 O 130.96 -0.944608 -1.94695 0
M  V30 1415 C 131.555 -3.36972 0.351448 0
M  V30 1416 C 130.114 -3.76398 -0.011593 0
M  V30 1417 C 129.261 -2.69024 0.672394 0
M  V30 1418 H 132.212 -1.35797 0.821263 0
M  V30 1419 H 132.233 -3.78239 -0.414227 0
M  V30 1420 H 131.745 -3.61847 1.40314 0
M  V30 1421 H 129.846 -3.5714 -1.06217 0
M  V30 1422 H 129.959 -4.77532 0.387265 0
M  V30 1423 H 128.323 -2.54465 0.109284 0
M  V30 1424 H 129.106 -2.96735 1.72636 0
M  V30 1425 N 131.551 -0.354651 -1.53558 0
M  V30 1426 C 132.962 0.126902 -1.86268 0
M  V30 1427 C 133.313 1.49075 -1.27558 0
M  V30 1428 O 132.438 2.08105 -0.5934 0
M  V30 1429 C 133.033 0.237046 -3.3797 0
M  V30 1430 C 131.592 0.662842 -3.70518 0
M  V30 1431 C 130.739 -0.196652 -2.76602 0
M  V30 1432 H 133.69 -0.573849 -1.47962 0
M  V30 1433 H 133.711 1.06259 -3.65362 0
M  V30 1434 H 133.223 -0.755725 -3.80671 0
M  V30 1435 H 131.324 1.66424 -3.33367 0
M  V30 1436 H 131.437 0.445034 -4.77029 0
M  V30 1437 H 129.801 0.332763 -2.52517 0
M  V30 1438 H 130.584 -1.18676 -3.22135 0
M  V30 1439 N 133.029 1.57378 -0.0835403 0
M  V30 1440 C 134.44 1.81261 0.447358 0
M  V30 1441 C 134.791 0.998331 1.68902 0
M  V30 1442 O 133.916 0.224282 2.15235 0
M  V30 1443 C 134.511 3.28767 0.818386 0
M  V30 1444 C 133.07 3.53455 1.29409 0
M  V30 1445 C 132.217 2.75831 0.285024 0
M  V30 1446 H 135.168 1.5566 -0.309115 0
M  V30 1447 H 135.189 3.41459 1.67887 0
M  V30 1448 H 134.701 3.88006 -0.0855019 0
M  V30 1449 H 132.802 2.99534 2.21608 0
M  V30 1450 H 132.915 4.62128 1.2639 0
M  V30 1451 H 131.279 2.42947 0.764767 0
M  V30 1452 H 132.062 3.37813 -0.611341 0
M  V30 1453 N 134.507 -0.190092 1.56449 0
M  V30 1454 C 135.923 -0.54113 1.50146 0
M  V30 1455 C 136.123 -1.85603 0.784465 0
M  V30 1456 O 135.179 -2.5024 0.337051 0
M  V30 1457 C 136.492 -0.591241 2.9483 0
M  V30 1458 C 138.04 -0.679732 3.0553 0
M  V30 1459 C 138.515 -0.760908 4.51635 0
M  V30 1460 N 140.006 -0.824302 4.55806 0
M  V30 1461 C 140.741 -0.907365 5.66175 0
M  V30 1462 N 140.237 -0.952422 6.86222 0
M  V30 1463 N 142.03 -0.94494 5.541 0
M  V30 1464 H 134.181 0.67235 2.01478 0
M  V30 1465 H 136.444 0.240127 0.917084 0
M  V30 1466 H 136.15 0.305905 3.50367 0
M  V30 1467 H 136.024 -1.44422 3.48457 0
M  V30 1468 H 138.411 -1.56731 2.50039 0
M  V30 1469 H 138.492 0.199549 2.5502 0
M  V30 1470 H 138.136 0.122336 5.07753 0
M  V30 1471 H 138.066 -1.65606 4.99882 0
M  V30 1472 H 140.557 -0.798526 3.69367 0
M  V30 1473 H 140.87 -1.01645 7.66086 0
M  V30 1474 H 139.215 -0.921014 6.8887 0
M  V30 1475 H 142.406 -0.906612 4.59236 0
M  V30 1476 H 142.579 -1.00622 6.4014 0
M  V30 1477 N 135.985 -1.50799 -0.457987 0
M  V30 1478 C 137.262 -1.52968 -1.21902 0
M  V30 1479 C 137.642 -0.281906 -2.09209 0
M  V30 1480 O 136.99 0.734076 -2.16388 0
M  V30 1481 C 137.2 -2.8326 -2.03875 0
M  V30 1482 C 138.548 -3.34425 -2.6162 0
M  V30 1483 O 139.572 -2.8467 -2.14106 0
M  V30 1484 O 138.431 -4.21188 -3.48228 0
M  V30 1485 H 135.525 -0.614129 -0.553873 0
M  V30 1486 H 138.071 -1.63098 -0.468739 0
M  V30 1487 H 136.843 -3.65543 -1.39621 0
M  V30 1488 H 136.466 -2.76195 -2.8601 0
M  V30 1489 N 137.463 0.71206 -1.40597 0
M  V30 1490 C 138.393 1.83889 -1.43899 0
M  V30 1491 C 139.374 1.67442 -0.299504 0
M  V30 1492 O 140.559 1.87421 -0.508624 0
M  V30 1493 C 137.689 3.21877 -1.30431 0
M  V30 1494 C 136.643 3.53002 -2.42019 0
M  V30 1495 C 135.969 4.90172 -2.13626 0
M  V30 1496 C 137.269 3.53643 -3.84362 0
M  V30 1497 H 138.963 1.81383 -2.38203 0
M  V30 1498 H 136.509 0.871237 -1.14654 0
M  V30 1499 H 138.462 4.00404 -1.31357 0
M  V30 1500 H 137.186 3.24968 -0.326049 0
M  V30 1501 H 135.845 2.76818 -2.40349 0
M  V30 1502 H 135.493 4.89869 -1.14182 0
M  V30 1503 H 135.193 5.11962 -2.88389 0
M  V30 1504 H 136.717 5.71028 -2.1624 0
M  V30 1505 H 138.131 4.22203 -3.87837 0
M  V30 1506 H 136.528 3.86961 -4.58673 0
M  V30 1507 H 137.598 2.52954 -4.13693 0
M  V30 1508 N 138.941 1.26152 0.944643 0
M  V30 1509 C 139.871 1.09902 2.06019 0
M  V30 1510 C 140.852 0.00519538 1.70099 0
M  V30 1511 O 142.037 0.176583 1.93396 0
M  V30 1512 C 139.167 0.727562 3.39594 0
M  V30 1513 C 138.121 1.77274 3.89561 0
M  V30 1514 C 137.447 1.25569 5.19747 0
M  V30 1515 C 138.747 3.17357 4.14827 0
M  V30 1516 H 140.441 2.03217 2.19871 0
M  V30 1517 H 137.987 0.978452 1.05652 0
M  V30 1518 H 139.94 0.600777 4.17095 0
M  V30 1519 H 138.664 -0.241287 3.25707 0
M  V30 1520 H 137.323 1.88814 3.14237 0
M  V30 1521 H 136.971 0.276783 5.02238 0
M  V30 1522 H 136.671 1.95433 5.54148 0
M  V30 1523 H 138.195 1.1415 5.99835 0
M  V30 1524 H 139.609 3.08914 4.82954 0
M  V30 1525 H 138.006 3.84781 4.60504 0
M  V30 1526 H 139.076 3.63673 3.20734 0
M  V30 1527 N 140.419 -1.14872 1.07899 0
M  V30 1528 C 141.835 -1.37776 0.805606 0
M  V30 1529 C 142.035 -1.92743 -0.587555 0
M  V30 1530 O 141.091 -2.13678 -1.34528 0
M  V30 1531 C 142.404 -2.34361 1.88402 0
M  V30 1532 C 143.952 -2.48012 1.90942 0
M  V30 1533 C 144.427 -3.47893 2.97883 0
M  V30 1534 N 145.918 -3.55433 2.97021 0
M  V30 1535 C 146.653 -4.32553 3.76412 0
M  V30 1536 N 146.149 -5.12959 4.65666 0
M  V30 1537 N 147.942 -4.27697 3.64735 0
M  V30 1538 H 140.093 -0.775365 1.97742 0
M  V30 1539 H 142.356 -0.403521 0.857831 0
M  V30 1540 H 142.062 -2.01098 2.88535 0
M  V30 1541 H 141.936 -3.34206 1.74889 0
M  V30 1542 H 144.323 -2.8057 0.914579 0
M  V30 1543 H 144.404 -1.48147 2.08534 0
M  V30 1544 H 144.048 -3.16069 3.97571 0
M  V30 1545 H 143.978 -4.47527 2.77538 0
M  V30 1546 H 146.469 -2.98048 2.32326 0
M  V30 1547 H 146.782 -5.69065 5.22862 0
M  V30 1548 H 145.127 -5.12245 4.69712 0
M  V30 1549 H 148.318 -3.63949 2.94378 0
M  V30 1550 H 148.491 -4.8755 4.26848 0
M  V30 1551 N 141.898 -0.863906 -1.31812 0
M  V30 1552 C 143.147 -0.46801 -1.96195 0
M  V30 1553 C 143.46 0.983474 -1.69077 0
M  V30 1554 O 144.666 1.48523 -2.27273 0
M  V30 1555 C 143.122 -0.785995 -3.51212 0
M  V30 1556 C 142.73 -2.25383 -3.87178 0
M  V30 1557 C 144.474 -0.458274 -4.22019 0
M  V30 1558 C 142.381 -2.51455 -5.3528 0
M  V30 1559 H 141.311 -0.171283 -0.734287 0
M  V30 1560 H 143.962 -1.05597 -1.50072 0
M  V30 1561 H 142.344 -0.127359 -3.95795 0
M  V30 1562 H 143.518 -2.95502 -3.53575 0
M  V30 1563 H 141.833 -2.54698 -3.2942 0
M  V30 1564 H 144.43 -0.630369 -5.30971 0
M  V30 1565 H 144.773 0.600834 -4.11941 0
M  V30 1566 H 145.306 -1.07319 -3.8305 0
M  V30 1567 H 142.045 -3.56025 -5.50387 0
M  V30 1568 H 141.565 -1.85923 -5.70257 0
M  V30 1569 H 143.244 -2.35874 -6.02472 0
M  V30 1570 N 143.376 1.44774 -0.622745 0
M  V30 1571 C 144.308 2.28856 0.125485 0
M  V30 1572 C 145.321 1.40811 0.817069 0
M  V30 1573 O 146.51 1.65044 0.679918 0
M  V30 1574 C 143.61 3.16963 1.19949 0
M  V30 1575 C 142.783 4.33374 0.592064 0
M  V30 1576 C 141.842 5.02577 1.55893 0
M  V30 1577 O 140.868 5.58873 1.07933 0
M  V30 1578 N 142.07 5.03256 2.89334 0
M  V30 1579 H 144.835 2.93713 -0.596068 0
M  V30 1580 H 142.396 1.55129 -0.463303 0
M  V30 1581 H 144.388 3.60123 1.84644 0
M  V30 1582 H 142.958 2.53913 1.82337 0
M  V30 1583 H 142.178 3.93509 -0.233322 0
M  V30 1584 H 143.466 5.08527 0.166738 0
M  V30 1585 H 142.864 4.58836 3.30887 0
M  V30 1586 H 141.421 5.50232 3.49412 0
M  V30 1587 N 144.854 0.36279 1.53368 0
M  V30 1588 C 145.764 -0.492994 2.29362 0
M  V30 1589 C 146.78 -1.09507 1.35219 0
M  V30 1590 O 147.956 -1.10662 1.68273 0
M  V30 1591 C 145.021 -1.61855 3.066 0
M  V30 1592 C 144.082 -1.04429 4.16405 0
M  V30 1593 C 143.315 -2.11621 4.89951 0
M  V30 1594 O 143.538 -3.32684 4.63333 0
M  V30 1595 O 142.472 -1.74835 5.75948 0
M  V30 1596 H 146.298 0.125331 3.03441 0
M  V30 1597 H 143.883 0.127253 1.48857 0
M  V30 1598 H 145.765 -2.27302 3.54841 0
M  V30 1599 H 144.44 -2.22233 2.3536 0
M  V30 1600 H 143.347 -0.353819 3.72423 0
M  V30 1601 H 144.68 -0.485113 4.89804 0
M  V30 1602 N 146.332 -1.57332 0.0918853 0
M  V30 1603 C 147.242 -2.17368 -0.882505 0
M  V30 1604 C 148.258 -1.14226 -1.31257 0
M  V30 1605 O 149.434 -1.46582 -1.38115 0
M  V30 1606 C 146.499 -2.73962 -2.12476 0
M  V30 1607 C 145.56 -3.92048 -1.7492 0
M  V30 1608 C 144.793 -4.45933 -2.93223 0
M  V30 1609 O 145.016 -3.98764 -4.07852 0
M  V30 1610 O 143.95 -5.36999 -2.71875 0
M  V30 1611 H 147.776 -3.01031 -0.40172 0
M  V30 1612 H 145.361 -1.48813 -0.132291 0
M  V30 1613 H 147.243 -3.10147 -2.85283 0
M  V30 1614 H 145.918 -1.93347 -2.59613 0
M  V30 1615 H 144.825 -3.6068 -0.993025 0
M  V30 1616 H 146.158 -4.74017 -1.32548 0
M  V30 1617 N 147.81 0.181792 -1.56548 0
M  V30 1618 C 149.038 0.915947 -1.85521 0
M  V30 1619 C 149.453 1.76282 -0.676016 0
M  V30 1620 O 148.81 1.79012 0.355077 0
M  V30 1621 C 148.861 1.80126 -3.13427 0
M  V30 1622 O 148.582 0.988562 -4.26801 0
M  V30 1623 C 150.083 2.64597 -3.55673 0
M  V30 1624 H 147.303 0.26661 -0.61576 0
M  V30 1625 H 149.847 0.185039 -2.03661 0
M  V30 1626 H 148.002 2.48563 -2.97145 0
M  V30 1627 H 148.416 1.59308 -4.99721 0
M  V30 1628 H 149.89 3.2235 -4.48101 0
M  V30 1629 H 150.367 3.38958 -2.79292 0
M  V30 1630 H 150.973 2.0151 -3.74532 0
M  V30 1631 N 149.288 1.51039 0.449983 0
M  V30 1632 C 150.198 1.74261 1.57067 0
M  V30 1633 C 151.214 0.626363 1.62335 0
M  V30 1634 O 152.39 0.907162 1.79812 0
M  V30 1635 C 149.455 1.85114 2.93144 0
M  V30 1636 C 148.516 3.0893 2.98095 0
M  V30 1637 C 147.749 3.19256 4.27681 0
M  V30 1638 O 147.972 2.35835 5.19363 0
M  V30 1639 O 146.906 4.12144 4.38658 0
M  V30 1640 H 150.732 2.69303 1.40391 0
M  V30 1641 H 148.317 1.35389 0.631688 0
M  V30 1642 H 150.199 1.94311 3.73926 0
M  V30 1643 H 148.874 0.932588 3.09975 0
M  V30 1644 H 147.781 3.0522 2.16314 0
M  V30 1645 H 149.114 4.00433 2.86206 0
M  V30 1646 N 150.766 -0.704594 1.40972 0
M  V30 1647 C 152.182 -1.01406 1.23244 0
M  V30 1648 C 152.382 -2.01169 0.115399 0
M  V30 1649 O 151.438 -2.47021 -0.523147 0
M  V30 1650 C 152.751 -1.54728 2.57836 0
M  V30 1651 C 154.299 -1.66658 2.64942 0
M  V30 1652 C 154.774 -2.23383 3.9983 0
M  V30 1653 N 156.265 -2.30756 4.01629 0
M  V30 1654 C 157 -2.75655 5.02794 0
M  V30 1655 N 156.496 -3.20225 6.14352 0
M  V30 1656 N 158.289 -2.75138 4.90159 0
M  V30 1657 H 150.44 -0.0435285 2.12355 0
M  V30 1658 H 152.703 -0.0818951 0.944456 0
M  V30 1659 H 152.409 -0.888832 3.40283 0
M  V30 1660 H 152.283 -2.53084 2.79693 0
M  V30 1661 H 154.67 -2.31617 1.8286 0
M  V30 1662 H 154.751 -0.668717 2.46904 0
M  V30 1663 H 154.395 -1.59043 4.82357 0
M  V30 1664 H 154.325 -3.23904 4.15203 0
M  V30 1665 H 156.816 -1.99291 3.21079 0
M  V30 1666 H 157.129 -3.53084 6.87424 0
M  V30 1667 H 155.474 -3.18156 6.17901 0
M  V30 1668 H 158.665 -2.39661 4.02095 0
M  V30 1669 H 158.838 -3.09812 5.6914 0
M  V30 1670 N 152.244 -1.26651 -0.937939 0
M  V30 1671 C 153.174 -1.10993 -2.05433 0
M  V30 1672 C 154.155 -0.0142161 -1.70094 0
M  V30 1673 O 155.34 -0.186837 -1.93299 0
M  V30 1674 C 152.47 -0.745561 -3.39203 0
M  V30 1675 C 151.424 -1.79337 -3.88616 0
M  V30 1676 C 150.75 -1.28324 -5.19073 0
M  V30 1677 C 152.05 -3.19553 -4.13138 0
M  V30 1678 H 153.744 -2.0438 -2.1879 0
M  V30 1679 H 151.29 -0.984041 -1.05131 0
M  V30 1680 H 153.243 -0.622888 -4.16771 0
M  V30 1681 H 151.967 0.22401 -3.25831 0
M  V30 1682 H 150.626 -1.90477 -3.13231 0
M  V30 1683 H 150.274 -0.303414 -5.02084 0
M  V30 1684 H 149.974 -1.98369 -5.53103 0
M  V30 1685 H 151.498 -1.1733 -5.99221 0
M  V30 1686 H 152.912 -3.11471 -4.81309 0
M  V30 1687 H 151.309 -3.87218 -4.58457 0
M  V30 1688 H 152.379 -3.65368 -3.18801 0
M  V30 1689 N 153.722 1.14298 -1.08507 0
M  V30 1690 C 154.685 2.17607 -0.719711 0
M  V30 1691 C 155.685 1.58907 0.245997 0
M  V30 1692 O 156.875 1.74181 0.0254081 0
M  V30 1693 C 154.007 3.40842 -0.0627695 0
M  V30 1694 H 155.2 2.51443 -1.63452 0
M  V30 1695 H 152.753 1.28963 -0.88307 0
M  V30 1696 H 153.488 3.12587 0.863716 0
M  V30 1697 H 153.273 3.84713 -0.757504 0
M  V30 1698 H 154.763 4.17221 0.177786 0
M  V30 1699 N 155.201 0.870884 1.31352 0
M  V30 1700 C 156.133 0.28455 2.27427 0
M  V30 1701 C 157.146 -0.552927 1.53123 0
M  V30 1702 O 158.335 -0.374771 1.74521 0
M  V30 1703 C 155.435 -0.615164 3.3327 0
M  V30 1704 C 154.608 0.190079 4.36987 0
M  V30 1705 C 153.667 -0.637917 5.22319 0
M  V30 1706 O 152.693 -0.065626 5.69162 0
M  V30 1707 N 153.895 -1.94973 5.46778 0
M  V30 1708 H 156.66 1.11017 2.7838 0
M  V30 1709 H 154.221 0.732458 1.44384 0
M  V30 1710 H 156.213 -1.1748 3.87273 0
M  V30 1711 H 154.783 -1.34146 2.82354 0
M  V30 1712 H 154.003 0.931165 3.83044 0
M  V30 1713 H 155.291 0.742579 5.03352 0
M  V30 1714 H 154.689 -2.4378 5.10478 0
M  V30 1715 H 153.246 -2.45713 6.03712 0
M  V30 1716 N 156.679 -1.44442 0.630414 0
M  V30 1717 C 157.589 -2.34476 -0.0761693 0
M  V30 1718 C 158.605 -1.52576 -0.836449 0
M  V30 1719 O 159.781 -1.85307 -0.788874 0
M  V30 1720 C 156.846 -3.30545 -1.04599 0
M  V30 1721 C 155.907 -4.28352 -0.28516 0
M  V30 1722 C 155.14 -5.19831 -1.20878 0
M  V30 1723 O 155.363 -5.15223 -2.44747 0
M  V30 1724 O 154.297 -5.97892 -0.693491 0
M  V30 1725 H 158.123 -2.96345 0.664324 0
M  V30 1726 H 155.708 -1.44203 0.39061 0
M  V30 1727 H 157.59 -3.89681 -1.60396 0
M  V30 1728 H 156.265 -2.7121 -1.76711 0
M  V30 1729 H 155.172 -3.72764 0.315837 0
M  V30 1730 H 156.505 -4.90605 0.395924 0
M  V30 1731 N 158.157 -0.370918 -1.53173 0
M  V30 1732 C 159.087 0.464847 -2.28826 0
M  V30 1733 C 160.068 1.07936 -1.31468 0
M  V30 1734 O 161.253 1.0956 -1.60344 0
M  V30 1735 C 158.383 1.60196 -3.08147 0
M  V30 1736 C 157.337 1.11443 -4.13237 0
M  V30 1737 C 156.663 2.3422 -4.80672 0
M  V30 1738 C 157.963 0.195384 -5.21934 0
M  V30 1739 H 159.657 -0.166329 -2.98938 0
M  V30 1740 H 157.203 -0.0814359 -1.4377 0
M  V30 1741 H 159.156 2.19332 -3.59822 0
M  V30 1742 H 157.88 2.26045 -2.35735 0
M  V30 1743 H 156.539 0.545727 -3.62515 0
M  V30 1744 H 156.187 2.98537 -4.04827 0
M  V30 1745 H 155.887 2.02269 -5.51689 0
M  V30 1746 H 157.411 2.94032 -5.35143 0
M  V30 1747 H 158.825 0.694375 -5.69079 0
M  V30 1748 H 157.222 -0.0335027 -6.00091 0
M  V30 1749 H 158.292 -0.760961 -4.78892 0
M  V30 1750 N 159.635 1.57281 -0.100228 0
M  V30 1751 C 161.051 1.57527 0.256416 0
M  V30 1752 C 161.251 1.11173 1.68056 0
M  V30 1753 O 160.307 0.79053 2.39806 0
M  V30 1754 C 161.62 3.00673 0.0401747 0
M  V30 1755 C 163.168 3.12815 0.107528 0
M  V30 1756 C 163.643 4.57929 -0.0807834 0
M  V30 1757 N 165.134 4.63193 -0.0261207 0
M  V30 1758 C 165.869 5.73212 -0.146999 0
M  V30 1759 N 165.365 6.92047 -0.322999 0
M  V30 1760 N 167.158 5.62031 -0.0879044 0
M  V30 1761 H 159.309 1.85718 -1.03065 0
M  V30 1762 H 161.572 0.857446 -0.404339 0
M  V30 1763 H 161.278 3.38804 -0.943649 0
M  V30 1764 H 161.152 3.69042 0.780262 0
M  V30 1765 H 163.539 2.74554 1.08186 0
M  V30 1766 H 163.62 2.47028 -0.664134 0
M  V30 1767 H 163.264 4.96886 -1.05201 0
M  V30 1768 H 163.194 5.21783 0.710635 0
M  V30 1769 H 165.685 3.77748 0.107161 0
M  V30 1770 H 165.998 7.7173 -0.406608 0
M  V30 1771 H 164.343 6.94074 -0.358733 0
M  V30 1772 H 167.534 4.68075 0.048498 0
M  V30 1773 H 167.707 6.47734 -0.185557 0
M  V30 1774 N 161.113 -0.173488 1.56642 0
M  V30 1775 C 162.39 -0.917617 1.7274 0
M  V30 1776 C 162.77 -2.00484 0.661027 0
M  V30 1777 O 162.118 -2.26184 -0.32453 0
M  V30 1778 C 162.328 -1.48433 3.15862 0
M  V30 1779 C 163.676 -1.95809 3.76754 0
M  V30 1780 O 164.7 -1.58231 3.19126 0
M  V30 1781 O 163.559 -2.65024 4.77938 0
M  V30 1782 H 160.653 -0.431772 0.705338 0
M  V30 1783 H 163.199 -0.161487 1.6893 0
M  V30 1784 H 161.971 -0.701715 3.84957 0
M  V30 1785 H 161.594 -2.30471 3.23989 0
M  V30 1786 N 162.591 -1.51276 -0.441967 0
M  V30 1787 C 163.837 -1.63958 -1.19355 0
M  V30 1788 C 164.17 -0.352543 -1.90973 0
M  V30 1789 O 163.445 0.647627 -1.83401 0
M  V30 1790 C 163.728 -2.83979 -2.21422 0
M  V30 1791 C 163.581 -4.22646 -1.53918 0
M  V30 1792 C 164.9 -2.99521 -3.22451 0
M  V30 1793 H 162.019 -0.596709 -0.432559 0
M  V30 1794 H 164.661 -1.83748 -0.483398 0
M  V30 1795 H 162.811 -2.67237 -2.81987 0
M  V30 1796 H 164.483 -4.51045 -0.967256 0
M  V30 1797 H 162.726 -4.25558 -0.841615 0
M  V30 1798 H 163.397 -5.02609 -2.28229 0
M  V30 1799 H 165.873 -3.14944 -2.71937 0
M  V30 1800 H 164.749 -3.85072 -3.91166 0
M  V30 1801 H 165.01 -2.11391 -3.88287 0
M  V30 1802 N 164.069 0.697108 -1.41344 0
M  V30 1803 C 165.485 1.00751 -1.2378 0
M  V30 1804 C 165.685 2.01105 -0.126066 0
M  V30 1805 O 164.741 2.47295 0.51004 0
M  V30 1806 C 166.054 1.53359 -2.58653 0
M  V30 1807 C 167.602 1.6525 -2.65822 0
M  V30 1808 C 168.077 2.2126 -4.01009 0
M  V30 1809 N 169.568 2.28622 -4.02847 0
M  V30 1810 C 170.303 2.72984 -5.04249 0
M  V30 1811 N 169.799 3.16962 -6.16041 0
M  V30 1812 N 171.592 2.72534 -4.91611 0
M  V30 1813 H 163.743 0.0322662 -2.12375 0
M  V30 1814 H 166.006 0.0768853 -0.944877 0
M  V30 1815 H 165.712 0.870773 -3.4075 0
M  V30 1816 H 165.586 2.51597 -2.81032 0
M  V30 1817 H 167.973 2.30644 -1.84086 0
M  V30 1818 H 168.054 0.655614 -2.47256 0
M  V30 1819 H 167.698 1.56482 -4.83193 0
M  V30 1820 H 167.628 3.21698 -4.16915 0
M  V30 1821 H 170.119 1.97585 -3.22131 0
M  V30 1822 H 170.432 3.49434 -6.89287 0
M  V30 1823 H 168.777 3.14875 -6.1958 0
M  V30 1824 H 171.968 2.37525 -4.0336 0
M  V30 1825 H 172.141 3.06789 -5.70775 0
M  V30 1826 N 165.547 1.27147 0.931209 0
M  V30 1827 C 166.795 1.13055 1.6752 0
M  V30 1828 C 167.116 -0.324791 1.92276 0
M  V30 1829 O 166.386 -1.22775 1.52654 0
M  V30 1830 H 164.966 0.415391 0.620854 0
M  V30 1831 H 167.628 1.59623 1.11833 0
M  V30 1832 H 166.724 1.65694 2.64485 0
M  V30 1833 N 167.025 -1.13721 1.09112 0
M  V30 1834 C 167.973 -2.21103 0.722219 0
M  V30 1835 C 168.967 -1.67147 -0.275374 0
M  V30 1836 O 170.173 -1.79477 -0.137176 0
M  V30 1837 H 166.548 -0.720445 0.215553 0
M  V30 1838 H 168.519 -2.49483 1.63709 0
M  V30 1839 C 167.268 -3.47352 0.15543 0
M  V30 1840 H 166.591 -3.89206 0.914246 0
M  V30 1841 H 168.031 -4.2395 -0.0647967 0
M  V30 1842 C 166.49 -3.1814 -1.10852 0
M  V30 1843 O 167.02 -3.36604 -2.19227 0
M  V30 1844 N 165.226 -2.72045 -1.02176 0
M  V30 1845 H 164.773 -2.57221 -0.139764 0
M  V30 1846 H 164.731 -2.52875 -1.8682 0
M  V30 1847 N 168.503 -0.877838 -1.30888 0
M  V30 1848 C 169.435 -0.296607 -2.27273 0
M  V30 1849 C 170.448 0.544799 -1.53414 0
M  V30 1850 O 171.637 0.365511 -1.74718 0
M  V30 1851 C 168.737 0.597481 -3.33592 0
M  V30 1852 C 167.91 -0.213251 -4.3688 0
M  V30 1853 C 166.969 0.610208 -5.2265 0
M  V30 1854 O 165.995 0.035441 -5.69189 0
M  V30 1855 N 167.197 1.92071 -5.47804 0
M  V30 1856 H 169.962 -1.12492 -2.77787 0
M  V30 1857 H 167.523 -0.740105 -1.43993 0
M  V30 1858 H 169.515 1.15425 -3.87891 0
M  V30 1859 H 168.085 1.32647 -2.83061 0
M  V30 1860 H 167.305 -0.951466 -3.82545 0
M  V30 1861 H 168.593 -0.769262 -5.02951 0
M  V30 1862 H 167.991 2.4107 -5.11763 0
M  V30 1863 H 166.548 2.42508 -6.05007 0
M  V30 1864 N 169.982 1.44106 -0.638065 0
M  V30 1865 C 170.914 2.28976 0.101205 0
M  V30 1866 C 171.927 1.4167 0.802088 0
M  V30 1867 O 173.116 1.65755 0.662375 0
M  V30 1868 C 170.216 3.18217 1.16581 0
M  V30 1869 C 169.389 4.33978 0.546066 0
M  V30 1870 C 168.448 5.04202 1.50554 0
M  V30 1871 O 167.474 5.59986 1.01999 0
M  V30 1872 N 168.676 5.06296 2.8398 0
M  V30 1873 H 171.441 2.93064 -0.627186 0
M  V30 1874 H 169.002 1.54629 -0.479731 0
M  V30 1875 H 170.994 3.62061 1.80815 0
M  V30 1876 H 169.564 2.55833 1.79634 0
M  V30 1877 H 168.784 3.93239 -0.275046 0
M  V30 1878 H 170.072 5.08675 0.112793 0
M  V30 1879 H 169.47 4.62319 3.26002 0
M  V30 1880 H 168.027 5.53907 3.43556 0
M  V30 1881 N 171.46 0.379036 1.52974 0
M  V30 1882 C 172.423 -0.448865 2.24762 0
M  V30 1883 C 173.423 -0.998689 1.26027 0
M  V30 1884 O 174.613 -0.882313 1.50203 0
M  V30 1885 C 171.745 -1.62872 2.99476 0
M  V30 1886 H 172.938 0.179491 2.99362 0
M  V30 1887 H 170.491 0.13096 1.5575 0
M  V30 1888 H 171.226 -2.29479 2.29151 0
M  V30 1889 H 171.011 -1.24128 3.71934 0
M  V30 1890 H 172.501 -2.2151 3.5401 0
M  V30 1891 N 172.938 -1.57226 0.108567 0
M  V30 1892 C 173.868 -2.17778 -0.84232 0
M  V30 1893 C 174.849 -1.11487 -1.2847 0
M  V30 1894 O 176.034 -1.39681 -1.34918 0
M  V30 1895 C 173.164 -2.76888 -2.09644 0
M  V30 1896 C 172.118 -3.88669 -1.79221 0
M  V30 1897 C 171.444 -4.34541 -3.11574 0
M  V30 1898 C 172.744 -5.11251 -1.06864 0
M  V30 1899 H 174.438 -2.97489 -0.337774 0
M  V30 1900 H 171.984 -1.43097 -0.161025 0
M  V30 1901 H 173.937 -3.17904 -2.76614 0
M  V30 1902 H 172.661 -1.94451 -2.62405 0
M  V30 1903 H 171.32 -3.48213 -1.14644 0
M  V30 1904 H 170.968 -3.48977 -3.62249 0
M  V30 1905 H 170.668 -5.09914 -2.91996 0
M  V30 1906 H 172.192 -4.782 -3.7968 0
M  V30 1907 H 173.606 -5.49352 -1.63968 0
M  V30 1908 H 172.003 -5.9214 -0.974178 0
M  V30 1909 H 173.073 -4.8487 -0.0536168 0
M  V30 1910 N 174.416 0.165178 -1.56732 0
M  V30 1911 C 175.832 0.517174 -1.50988 0
M  V30 1912 C 176.032 1.84331 -0.813894 0
M  V30 1913 O 175.088 2.49672 -0.37682 0
M  V30 1914 C 176.401 0.544261 -2.95733 0
M  V30 1915 C 177.949 0.631039 -3.06573 0
M  V30 1916 C 178.424 0.68896 -4.52788 0
M  V30 1917 N 179.915 0.751683 -4.5706 0
M  V30 1918 C 180.65 0.817177 -5.67547 0
M  V30 1919 N 180.146 0.843129 -6.8765 0
M  V30 1920 N 181.939 0.856668 -5.55534 0
M  V30 1921 H 174.09 -0.704318 -2.00382 0
M  V30 1922 H 176.353 -0.254687 -0.913148 0
M  V30 1923 H 176.059 -0.361607 -3.49836 0
M  V30 1924 H 175.933 1.3886 -3.5071 0
M  V30 1925 H 178.32 1.52733 -2.52501 0
M  V30 1926 H 178.401 -0.240095 -2.54671 0
M  V30 1927 H 178.045 -0.2031 -5.07494 0
M  V30 1928 H 177.975 1.57633 -5.02454 0
M  V30 1929 H 180.466 0.739661 -3.70591 0
M  V30 1930 H 180.779 0.894448 -7.67606 0
M  V30 1931 H 179.124 0.811304 -6.90248 0
M  V30 1932 H 182.315 0.833437 -4.60621 0
M  V30 1933 H 182.488 0.904247 -6.4166 0
M  V30 1934 N 175.894 1.51508 0.433938 0
M  V30 1935 C 176.857 1.72473 1.50949 0
M  V30 1936 C 177.857 0.594725 1.49398 0
M  V30 1937 O 179.047 0.862315 1.5136 0
M  V30 1938 C 176.179 1.78431 2.90474 0
M  V30 1939 H 177.372 2.68467 1.33662 0
M  V30 1940 H 174.925 1.41549 0.662836 0
M  V30 1941 H 175.66 0.842645 3.13161 0
M  V30 1942 H 175.445 2.60558 2.93005 0
M  V30 1943 H 176.935 1.96479 3.68491 0
M  V30 1944 N 177.372 -0.689602 1.41712 0
M  V30 1945 C 178.304 -1.815 1.39966 0
M  V30 1946 C 179.317 -1.59995 0.300917 0
M  V30 1947 O 180.506 -1.69387 0.563039 0
M  V30 1948 C 177.606 -3.18364 1.16179 0
M  V30 1949 C 176.779 -3.66847 2.38206 0
M  V30 1950 C 175.838 -4.82398 2.10186 0
M  V30 1951 O 174.864 -4.93706 2.83272 0
M  V30 1952 N 176.066 -5.70064 1.0958 0
M  V30 1953 H 178.831 -1.83488 2.36965 0
M  V30 1954 H 176.392 -0.872149 1.36401 0
M  V30 1955 H 178.384 -3.93301 0.953756 0
M  V30 1956 H 176.954 -3.11365 0.27756 0
M  V30 1957 H 176.174 -2.82751 2.74673 0
M  V30 1958 H 177.462 -3.95978 3.19498 0
M  V30 1959 H 176.86 -5.63565 0.491019 0
M  V30 1960 H 175.417 -6.44874 0.947656 0
M  V30 1961 N 178.85 -1.27639 -0.924453 0
M  V30 1962 C 179.78 -1.13166 -2.04244 0
M  V30 1963 C 180.761 -0.032256 -1.70069 0
M  V30 1964 O 181.946 -0.207328 -1.9309 0
M  V30 1965 C 179.076 -0.781496 -3.38393 0
M  V30 1966 C 178.03 -1.83449 -3.86692 0
M  V30 1967 C 177.356 -1.33822 -5.17683 0
M  V30 1968 C 178.656 -3.23917 -4.09726 0
M  V30 1969 H 180.35 -2.06689 -2.1661 0
M  V30 1970 H 177.896 -0.995136 -1.04082 0
M  V30 1971 H 179.849 -0.667057 -4.16087 0
M  V30 1972 H 178.573 0.189439 -3.2605 0
M  V30 1973 H 177.232 -1.93789 -3.11193 0
M  V30 1974 H 176.88 -0.35665 -5.01734 0
M  V30 1975 H 176.58 -2.04224 -5.50968 0
M  V30 1976 H 178.104 -1.23679 -5.97943 0
M  V30 1977 H 179.518 -3.16559 -4.77978 0
M  V30 1978 H 177.915 -3.92059 -4.54324 0
M  V30 1979 H 178.985 -3.68729 -3.14908 0
M  V30 1980 N 180.328 1.1314 -1.09713 0
M  V30 1981 C 181.278 2.16709 -0.708593 0
M  V30 1982 C 182.262 1.58471 0.278523 0
M  V30 1983 O 183.454 1.76779 0.088427 0
M  V30 1984 C 180.583 3.43039 -0.133923 0
M  V30 1985 C 179.669 4.08277 -1.14763 0
M  V30 1986 N 180.06 4.48637 -2.33577 0
M  V30 1987 C 178.358 4.34954 -0.986446 0
M  V30 1988 C 179.059 4.9952 -2.98085 0
M  V30 1989 N 178.035 4.94561 -2.25632 0
M  V30 1990 H 181.837 2.45672 -1.61315 0
M  V30 1991 H 179.351 1.29967 -0.973775 0
M  V30 1992 H 181.348 4.16583 0.162465 0
M  V30 1993 H 180.008 3.15549 0.765447 0
M  V30 1994 H 181.019 4.41246 -2.7115 0
M  V30 1995 H 177.696 4.17258 -0.142008 0
M  V30 1996 H 179.086 5.40521 -3.99108 0
M  V30 1997 N 181.806 0.884767 1.30421 0
M  V30 1998 C 182.738 0.308655 2.27112 0
M  V30 1999 C 183.751 -0.536655 1.53701 0
M  V30 2000 O 184.94 -0.35624 1.74909 0
M  V30 2001 C 182.04 -0.579782 3.33904 0
M  V30 2002 C 181.213 0.236417 4.36761 0
M  V30 2003 C 180.272 -0.582482 5.22966 0
M  V30 2004 O 179.298 -0.00525502 5.692 0
M  V30 2005 N 180.5 -1.89163 5.48815 0
M  V30 2006 H 183.265 1.13964 2.77186 0
M  V30 2007 H 180.826 0.747731 1.43599 0
M  V30 2008 H 182.818 -1.13366 3.88497 0
M  V30 2009 H 181.388 -1.31144 2.83761 0
M  V30 2010 H 180.608 0.97174 3.82035 0
M  V30 2011 H 181.896 0.795924 5.02536 0
M  V30 2012 H 181.294 -2.38352 5.13035 0
M  V30 2013 H 179.851 -2.39296 6.06284 0
M  V30 2014 N 183.284 -1.43765 0.645699 0
M  V30 2015 C 184.214 -2.33471 -0.0370477 0
M  V30 2016 C 185.195 -1.49042 -0.819779 0
M  V30 2017 O 186.38 -1.77726 -0.782758 0
M  V30 2018 C 183.51 -3.32311 -1.0093 0
M  V30 2019 C 182.464 -4.2667 -0.337201 0
M  V30 2020 C 181.79 -5.1549 -1.42037 0
M  V30 2021 C 183.09 -5.16657 0.765706 0
M  V30 2022 H 184.784 -2.90809 0.712069 0
M  V30 2023 H 182.33 -1.39834 0.343876 0
M  V30 2024 H 184.283 -3.9396 -1.49578 0
M  V30 2025 H 183.007 -2.73213 -1.78948 0
M  V30 2026 H 181.666 -3.66374 0.128771 0
M  V30 2027 H 181.314 -4.52735 -2.1918 0
M  V30 2028 H 181.014 -5.79438 -0.975966 0
M  V30 2029 H 182.538 -5.80012 -1.90838 0
M  V30 2030 H 183.952 -5.72158 0.361702 0
M  V30 2031 H 182.349 -5.89286 1.13413 0
M  V30 2032 H 183.419 -4.56796 1.62683 0
M  V30 2033 N 184.763 -0.387143 -1.52771 0
M  V30 2034 C 185.695 0.484089 -2.2403 0
M  V30 2035 C 186.708 1.02849 -1.26198 0
M  V30 2036 O 187.897 0.931186 -1.52286 0
M  V30 2037 C 184.997 1.68337 -2.94136 0
M  V30 2038 C 184.17 1.26672 -4.18656 0
M  V30 2039 C 183.229 2.33045 -4.7178 0
M  V30 2040 O 182.255 1.94541 -5.34923 0
M  V30 2041 N 183.457 3.64929 -4.5145 0
M  V30 2042 H 186.222 -0.126404 -2.99433 0
M  V30 2043 H 183.783 -0.213392 -1.60488 0
M  V30 2044 H 185.775 2.39019 -3.26577 0
M  V30 2045 H 184.345 2.20025 -2.22053 0
M  V30 2046 H 183.565 0.388878 -3.92277 0
M  V30 2047 H 184.853 0.964964 -4.99566 0
M  V30 2048 H 184.251 3.98974 -4.01044 0
M  V30 2049 H 182.808 4.31651 -4.88386 0
M  V30 2050 N 186.241 1.57166 -0.116904 0
M  V30 2051 C 187.171 2.18222 0.830759 0
M  V30 2052 C 188.152 1.12167 1.27877 0
M  V30 2053 O 189.337 1.40394 1.34176 0
M  V30 2054 C 186.467 2.77996 2.08172 0
M  V30 2055 C 185.421 3.89614 1.77157 0
M  V30 2056 C 184.747 4.36187 3.09265 0
M  V30 2057 C 186.047 5.1181 1.04151 0
M  V30 2058 H 187.741 2.97664 0.321992 0
M  V30 2059 H 185.287 1.4318 0.153434 0
M  V30 2060 H 187.24 3.19366 2.74924 0
M  V30 2061 H 185.964 1.9584 2.6137 0
M  V30 2062 H 184.623 3.48816 1.12796 0
M  V30 2063 H 184.271 3.50893 3.60393 0
M  V30 2064 H 183.971 5.11455 2.89288 0
M  V30 2065 H 185.495 4.80207 3.77139 0
M  V30 2066 H 186.909 5.50214 1.61052 0
M  V30 2067 H 185.306 5.92648 0.942762 0
M  V30 2068 H 186.376 4.84892 0.0279022 0
M  V30 2069 N 187.719 -0.156864 1.56817 0
M  V30 2070 C 188.669 -1.19891 1.93934 0
M  V30 2071 C 189.653 -1.39061 0.809372 0
M  V30 2072 O 190.845 -1.40789 1.07273 0
M  V30 2073 C 187.974 -2.53493 2.31508 0
M  V30 2074 C 187.06 -2.37957 3.51052 0
M  V30 2075 N 187.451 -1.92158 4.67877 0
M  V30 2076 C 185.749 -2.68739 3.55943 0
M  V30 2077 C 186.45 -1.8943 5.49992 0
M  V30 2078 N 185.426 -2.32375 4.91429 0
M  V30 2079 H 189.228 -0.836746 2.81737 0
M  V30 2080 H 186.742 -0.365012 1.58245 0
M  V30 2081 H 188.739 -3.28811 2.56299 0
M  V30 2082 H 187.399 -2.905 1.45051 0
M  V30 2083 H 188.41 -1.62274 4.91821 0
M  V30 2084 H 185.087 -3.09687 2.80001 0
M  V30 2085 H 186.477 -1.55596 6.53636 0
M  V30 2086 N 189.197 -1.51736 -0.425897 0
M  V30 2087 C 190.16 -1.73271 -1.50032 0
M  V30 2088 C 191.16 -0.602639 -1.4908 0
M  V30 2089 O 192.35 -0.87033 -1.509 0
M  V30 2090 C 189.482 -1.79969 -2.89523 0
M  V30 2091 H 190.675 -2.69172 -1.32237 0
M  V30 2092 H 188.228 -1.41899 -0.65532 0
M  V30 2093 H 188.963 -0.859241 -3.1271 0
M  V30 2094 H 188.748 -2.62109 -2.91619 0
M  V30 2095 H 190.238 -1.9843 -3.67444 0
M  V30 2096 N 190.675 0.682077 -1.42076 0
M  V30 2097 C 191.638 1.77756 -1.44691 0
M  V30 2098 C 192.638 1.5726 -0.335535 0
M  V30 2099 O 193.828 1.63686 -0.596037 0
M  V30 2100 C 190.96 3.16301 -1.27146 0
M  V30 2101 H 192.153 1.76826 -2.42224 0
M  V30 2102 H 189.706 0.891012 -1.28416 0
M  V30 2103 H 190.441 3.22862 -0.305075 0
M  V30 2104 H 190.226 3.32581 -2.07683 0
M  V30 2105 H 191.716 3.96241 -1.31843 0
M  V30 2106 N 192.153 1.28127 0.917671 0
M  V30 2107 C 193.399 1.15223 1.66888 0
M  V30 2108 C 193.732 -0.299293 1.9188 0
M  V30 2109 O 193.007 -1.21805 1.51637 0
M  V30 2110 C 193.29 1.94706 3.02922 0
M  V30 2111 C 193.143 3.47898 2.85109 0
M  V30 2112 C 194.462 1.75939 4.03402 0
M  V30 2113 H 191.581 0.419946 0.605652 0
M  V30 2114 H 194.223 1.57398 1.06423 0
M  V30 2115 H 192.373 1.58864 3.54534 0
M  V30 2116 H 194.045 3.93624 2.40537 0
M  V30 2117 H 192.288 3.7373 2.20246 0
M  V30 2118 H 192.959 3.98765 3.81694 0
M  V30 2119 H 195.435 2.07209 3.60837 0
M  V30 2120 H 194.311 2.33931 4.96556 0
M  V30 2121 H 194.572 0.709877 4.36364 0
M  V30 2122 N 193.631 -1.12557 1.10312 0
M  V30 2123 C 194.561 -2.20341 0.772798 0
M  V30 2124 C 195.542 -1.68198 -0.25365 0
M  V30 2125 O 196.727 -1.93831 -0.119699 0
M  V30 2126 C 193.857 -3.46709 0.202443 0
M  V30 2127 C 192.811 -4.11996 1.15943 0
M  V30 2128 C 192.137 -5.328 0.450345 0
M  V30 2129 C 193.437 -4.5828 2.50552 0
M  V30 2130 H 195.131 -2.48229 1.674 0
M  V30 2131 H 192.677 -1.19308 0.806326 0
M  V30 2132 H 194.63 -4.2138 -0.0407752 0
M  V30 2133 H 193.354 -3.18245 -0.734001 0
M  V30 2134 H 192.013 -3.39305 1.38808 0
M  V30 2135 H 191.661 -5.00602 -0.490531 0
M  V30 2136 H 191.361 -5.7743 1.08851 0
M  V30 2137 H 192.885 -6.10219 0.215642 0
M  V30 2138 H 194.299 -5.2433 2.31843 0
M  V30 2139 H 192.696 -5.13683 3.10242 0
M  V30 2140 H 193.766 -3.72329 3.10643 0
M  V30 2141 N 195.109 -0.891671 -1.2995 0
M  V30 2142 C 196.525 -0.58662 -1.48428 0
M  V30 2143 C 196.725 0.873951 -1.81561 0
M  V30 2144 O 195.781 1.65471 -1.90724 0
M  V30 2145 C 197.094 -1.50553 -2.60296 0
M  V30 2146 C 198.642 -1.50988 -2.74175 0
M  V30 2147 C 199.117 -2.41488 -3.89163 0
M  V30 2148 N 200.608 -2.39489 -3.96483 0
M  V30 2149 C 201.343 -3.06223 -4.84784 0
M  V30 2150 N 200.839 -3.82206 -5.77833 0
M  V30 2151 N 202.632 -2.95421 -4.78208 0
M  V30 2152 H 194.783 -1.83644 -1.06718 0
M  V30 2153 H 197.046 -0.786455 -0.529332 0
M  V30 2154 H 196.752 -2.54581 -2.42654 0
M  V30 2155 H 196.626 -1.22008 -3.56923 0
M  V30 2156 H 199.013 -0.47708 -2.91218 0
M  V30 2157 H 199.094 -1.83567 -1.78148 0
M  V30 2158 H 198.738 -3.44857 -3.72876 0
M  V30 2159 H 198.668 -2.06222 -4.84541 0
M  V30 2160 H 201.159 -1.84278 -3.29924 0
M  V30 2161 H 201.472 -4.302 -6.41988 0
M  V30 2162 H 199.817 -3.86313 -5.77743 0
M  V30 2163 H 203.008 -2.35581 -4.04499 0
M  V30 2164 H 203.181 -3.47704 -5.46814 0
M  V30 2165 N 196.587 1.43421 -0.653314 0
M  V30 2166 C 197.519 2.29071 0.0769134 0
M  V30 2167 C 198.532 1.42513 0.787017 0
M  V30 2168 O 199.721 1.66449 0.644757 0
M  V30 2169 C 196.821 3.19436 1.13199 0
M  V30 2170 C 195.994 4.34533 0.500006 0
M  V30 2171 C 195.053 5.05771 1.45198 0
M  V30 2172 O 194.079 5.61037 0.960538 0
M  V30 2173 N 195.281 5.0928 2.78594 0
M  V30 2174 H 198.046 2.92382 -0.658235 0
M  V30 2175 H 195.607 1.54112 -0.496104 0
M  V30 2176 H 197.599 3.63958 1.76964 0
M  V30 2177 H 196.169 2.57724 1.7691 0
M  V30 2178 H 195.389 3.92925 -0.316738 0
M  V30 2179 H 196.677 5.08766 0.0588345 0
M  V30 2180 H 196.075 4.65751 3.2108 0
M  V30 2181 H 194.632 5.57519 3.37662 0
M  V30 2182 N 198.065 0.39524 1.52563 0
M  V30 2183 C 199.313 -0.184678 2.01254 0
M  V30 2184 C 199.634 -1.46822 1.28329 0
M  V30 2185 O 198.904 -1.91666 0.405094 0
M  V30 2186 H 197.484 -0.0712355 0.743596 0
M  V30 2187 H 200.146 0.528293 1.87603 0
M  V30 2188 H 199.242 -0.390681 3.09645 0
M  V30 2189 N 199.544 -1.57102 0.125237 0
M  V30 2190 C 200.494 -2.12202 -0.833936 0
M  V30 2191 C 201.478 -1.04433 -1.22403 0
M  V30 2192 O 202.67 -1.30655 -1.19408 0
M  V30 2193 C 199.799 -2.72994 -2.08157 0
M  V30 2194 C 198.885 -3.87852 -1.71556 0
M  V30 2195 N 199.276 -4.9464 -1.05662 0
M  V30 2196 C 197.574 -3.98153 -2.00973 0
M  V30 2197 C 198.275 -5.74953 -0.883376 0
M  V30 2198 N 197.251 -5.24985 -1.41036 0
M  V30 2199 H 201.053 -2.92141 -0.321035 0
M  V30 2200 H 198.567 -1.62217 -0.0770315 0
M  V30 2201 H 200.564 -3.10816 -2.77847 0
M  V30 2202 H 199.224 -1.9452 -2.59985 0
M  V30 2203 H 200.235 -5.12872 -0.719878 0
M  V30 2204 H 196.912 -3.30728 -2.54804 0
M  V30 2205 H 198.302 -6.70904 -0.365675 0
M  V30 2206 N 201.022 0.148545 -1.56898 0
M  V30 2207 C 201.932 1.20293 -2.01412 0
M  V30 2208 C 202.948 1.47107 -0.929273 0
M  V30 2209 O 204.124 1.58807 -1.23863 0
M  V30 2210 C 201.189 2.51682 -2.38447 0
M  V30 2211 C 200.25 2.32529 -3.60872 0
M  V30 2212 C 199.483 3.57653 -3.96132 0
M  V30 2213 O 199.706 4.63771 -3.32073 0
M  V30 2214 O 198.64 3.50408 -4.89385 0
M  V30 2215 H 202.466 0.855025 -2.91416 0
M  V30 2216 H 200.051 0.357151 -1.45068 0
M  V30 2217 H 201.933 3.29147 -2.63135 0
M  V30 2218 H 200.608 2.86006 -1.51599 0
M  V30 2219 H 199.515 1.53019 -3.41373 0
M  V30 2220 H 200.848 2.03121 -4.48333 0
M  V30 2221 N 202.5 1.5196 0.417844 0
M  V30 2222 C 203.911 1.57851 0.997 0
M  V30 2223 C 204.262 0.413714 1.91789 0
M  V30 2224 O 203.387 -0.467057 2.113 0
M  V30 2225 C 203.982 2.86085 1.81496 0
M  V30 2226 C 202.541 2.94483 2.34428 0
M  V30 2227 C 201.688 2.52707 1.14169 0
M  V30 2228 H 204.639 1.57455 0.198392 0
M  V30 2229 H 204.66 2.70947 2.67148 0
M  V30 2230 H 204.172 3.70842 1.14446 0
M  V30 2231 H 202.273 2.142 3.04875 0
M  V30 2232 H 202.386 3.98546 2.65891 0
M  V30 2233 H 200.75 2.06353 1.49301 0
M  V30 2234 H 201.533 3.39828 0.486999 0
M  V30 2235 N 203.978 -0.674533 1.42435 0
M  V30 2236 C 204.91 -1.80005 1.41883 0
M  V30 2237 C 205.923 -1.59667 0.31787 0
M  V30 2238 O 207.112 -1.68781 0.580973 0
M  V30 2239 C 204.212 -3.17114 1.19549 0
M  V30 2240 C 203.385 -3.64299 2.42084 0
M  V30 2241 C 202.444 -4.80142 2.15291 0
M  V30 2242 O 201.47 -4.90673 2.88493 0
M  V30 2243 N 202.672 -5.68869 1.1562 0
M  V30 2244 H 205.437 -1.80964 2.38898 0
M  V30 2245 H 202.998 -0.857633 1.37318 0
M  V30 2246 H 204.99 -3.92267 0.995417 0
M  V30 2247 H 203.56 -3.11053 0.310569 0
M  V30 2248 H 202.78 -2.79822 2.77657 0
M  V30 2249 H 204.068 -3.92567 3.23679 0
M  V30 2250 H 203.466 -5.63012 0.550765 0
M  V30 2251 H 202.023 -6.43833 1.016 0
M  V30 2252 N 205.456 -1.28612 -0.910864 0
M  V30 2253 C 206.386 -1.15326 -2.03032 0
M  V30 2254 C 207.367 -0.0502924 -1.70026 0
M  V30 2255 O 208.552 -0.227797 -1.92859 0
M  V30 2256 C 205.682 -0.817343 -3.37545 0
M  V30 2257 C 204.636 -1.8754 -3.84724 0
M  V30 2258 C 203.962 -1.39305 -5.16235 0
M  V30 2259 C 205.262 -3.28244 -4.06267 0
M  V30 2260 H 206.956 -2.08975 -2.14406 0
M  V30 2261 H 204.502 -1.00612 -1.03021 0
M  V30 2262 H 206.455 -0.711151 -4.15356 0
M  V30 2263 H 205.179 0.154846 -3.26233 0
M  V30 2264 H 203.838 -1.97079 -3.09121 0
M  V30 2265 H 203.486 -0.409846 -5.01328 0
M  V30 2266 H 203.186 -2.10057 -5.48771 0
M  V30 2267 H 204.71 -1.30014 -5.96598 0
M  V30 2268 H 206.124 -3.21611 -4.74594 0
M  V30 2269 H 204.521 -3.96855 -4.5014 0
M  V30 2270 H 205.591 -3.72048 -3.10979 0
M  V30 2271 N 206.934 1.1197 -1.10907 0
M  V30 2272 C 207.897 2.16031 -0.765707 0
M  V30 2273 C 208.897 1.59393 0.212235 0
M  V30 2274 O 210.087 1.74196 -0.0115441 0
M  V30 2275 C 207.219 3.40632 -0.135053 0
M  V30 2276 H 208.412 2.47919 -1.68748 0
M  V30 2277 H 205.965 1.27061 -0.910226 0
M  V30 2278 H 206.7 3.14348 0.797218 0
M  V30 2279 H 206.485 3.8302 -0.838937 0
M  V30 2280 H 207.975 4.17505 0.0892469 0
M  V30 2281 N 208.412 0.89855 1.29475 0
M  V30 2282 C 209.375 0.380272 2.26023 0
M  V30 2283 C 210.375 -0.484891 1.53315 0
M  V30 2284 O 211.565 -0.290108 1.71767 0
M  V30 2285 C 208.697 -0.45651 3.3783 0
M  V30 2286 H 209.89 1.23295 2.73383 0
M  V30 2287 H 207.443 0.676589 1.40897 0
M  V30 2288 H 208.178 -1.32922 2.95808 0
M  V30 2289 H 207.963 0.163393 3.91759 0
M  V30 2290 H 209.453 -0.810466 4.0966 0
M  V30 2291 N 209.89 -1.43072 0.660911 0
M  V30 2292 C 210.853 -2.29194 -0.0166406 0
M  V30 2293 C 211.853 -1.42609 -0.742912 0
M  V30 2294 O 213.043 -1.64155 -0.583004 0
M  V30 2295 C 210.175 -3.24831 -1.0343 0
M  V30 2296 H 211.368 -2.90596 0.741208 0
M  V30 2297 H 208.921 -1.5048 0.422532 0
M  V30 2298 H 209.656 -2.68339 -1.82111 0
M  V30 2299 H 209.441 -3.88676 -0.517082 0
M  V30 2300 H 210.931 -3.89451 -1.50723 0
M  V30 2301 N 211.368 -0.403325 -1.52352 0
M  V30 2302 C 212.318 0.442244 -2.2367 0
M  V30 2303 C 213.302 1.01823 -1.24583 0
M  V30 2304 O 214.494 0.942005 -1.49851 0
M  V30 2305 C 211.623 1.5615 -3.05732 0
M  V30 2306 C 210.709 0.996575 -4.12225 0
M  V30 2307 N 211.1 0.157804 -5.05554 0
M  V30 2308 C 209.398 1.26767 -4.27605 0
M  V30 2309 C 210.099 -0.155853 -5.81491 0
M  V30 2310 N 209.075 0.451775 -5.41719 0
M  V30 2311 H 212.877 -0.204964 -2.93184 0
M  V30 2312 H 210.391 -0.213418 -1.60992 0
M  V30 2313 H 212.388 2.17981 -3.55373 0
M  V30 2314 H 211.048 2.21139 -2.37755 0
M  V30 2315 H 212.059 -0.206049 -5.1749 0
M  V30 2316 H 208.736 1.91757 -3.70858 0
M  V30 2317 H 210.126 -0.836329 -6.66675 0
M  V30 2318 N 212.846 1.57033 -0.133567 0
M  V30 2319 C 214.074 2.00044 0.528195 0
M  V30 2320 C 214.489 1.01349 1.59291 0
M  V30 2321 O 213.846 0.00848369 1.82498 0
M  V30 2322 C 213.897 3.43018 1.1411 0
M  V30 2323 O 213.618 4.37939 0.11892 0
M  V30 2324 C 215.119 4.01237 1.88477 0
M  V30 2325 H 212.339 0.656517 0.138661 0
M  V30 2326 H 214.883 2.03267 -0.224196 0
M  V30 2327 H 213.038 3.40688 1.84418 0
M  V30 2328 H 213.452 5.21436 0.56613 0
M  V30 2329 H 214.926 5.03314 2.26669 0
M  V30 2330 H 215.403 3.41193 2.76558 0
M  V30 2331 H 216.009 4.07156 1.22898 0
M  V30 2332 N 214.325 -0.140222 1.56975 0
M  V30 2333 C 215.602 -0.880769 1.74648 0
M  V30 2334 C 215.982 -1.99036 0.703404 0
M  V30 2335 O 215.33 -2.26821 -0.27648 0
M  V30 2336 C 215.54 -1.417 3.18939 0
M  V30 2337 C 216.888 -1.87774 3.80823 0
M  V30 2338 O 217.912 -1.51427 3.2241 0
M  V30 2339 O 216.771 -2.54827 4.83452 0
M  V30 2340 H 213.865 -0.416713 0.714338 0
M  V30 2341 H 216.411 -0.125618 1.69234 0
M  V30 2342 H 215.183 -0.619902 3.86359 0
M  V30 2343 H 214.806 -2.23546 3.28805 0
M  V30 2344 N 215.803 -1.52179 -0.40978 0
M  V30 2345 C 217.051 -1.65878 -1.15451 0
M  V30 2346 C 217.372 -0.390771 -1.91044 0
M  V30 2347 O 216.642 0.594323 -1.86667 0
M  V30 2348 H 215.222 -0.611405 -0.429177 0
M  V30 2349 H 217.884 -1.89219 -0.467134 0
M  V30 2350 H 216.98 -2.49954 -1.86894 0
M  V30 2351 N 217.281 0.66697 -1.42791 0
M  V30 2352 C 218.244 1.76211 -1.46568 0
M  V30 2353 C 219.244 1.56896 -0.352196 0
M  V30 2354 O 220.434 1.63044 -0.613364 0
M  V30 2355 C 217.566 3.14935 -1.30494 0
M  V30 2356 H 218.759 1.74247 -2.44086 0
M  V30 2357 H 216.312 0.877342 -1.29354 0
M  V30 2358 H 217.047 3.2252 -0.339301 0
M  V30 2359 H 216.832 3.30359 -2.11199 0
M  V30 2360 H 218.322 3.94821 -1.36038 0
M  V30 2361 N 218.759 1.29093 0.90403 0
M  V30 2362 C 219.984 1.19809 1.69294 0
M  V30 2363 C 220.409 -0.238481 1.86582 0
M  V30 2364 O 219.767 -1.1723 1.383 0
M  V30 2365 C 219.815 1.91202 3.05736 0
M  V30 2366 O 218.919 1.22611 3.93752 0
M  V30 2367 H 218.26 0.415385 0.518027 0
M  V30 2368 H 220.79 1.70586 1.12967 0
M  V30 2369 H 220.8 1.99487 3.55906 0
M  V30 2370 H 219.475 2.95692 2.92471 0
M  V30 2371 H 218.052 1.22554 3.52186 0
M  V30 2372 N 220.237 -1.11381 1.11499 0
M  V30 2373 C 221.147 -2.21019 0.786628 0
M  V30 2374 C 222.163 -1.72597 -0.220507 0
M  V30 2375 O 223.339 -2.01321 -0.0565251 0
M  V30 2376 C 220.404 -3.459 0.235333 0
M  V30 2377 C 219.465 -4.09107 1.30115 0
M  V30 2378 C 218.698 -5.28027 0.776068 0
M  V30 2379 O 218.921 -5.6904 -0.393661 0
M  V30 2380 O 217.855 -5.81835 1.54114 0
M  V30 2381 H 221.681 -2.51521 1.70209 0
M  V30 2382 H 219.266 -1.19928 0.890928 0
M  V30 2383 H 221.148 -4.21346 -0.067715 0
M  V30 2384 H 219.823 -3.17049 -0.652828 0
M  V30 2385 H 218.73 -3.35391 1.65722 0
M  V30 2386 H 220.063 -4.42139 2.16273 0
M  V30 2387 N 221.715 -0.905404 -1.28997 0
M  V30 2388 C 223.131 -0.60233 -1.47798 0
M  V30 2389 C 223.331 0.854645 -1.82478 0
M  V30 2390 O 222.387 1.63439 -1.92468 0
M  V30 2391 C 223.7 -1.53306 -2.58685 0
M  V30 2392 C 225.248 -1.53887 -2.72558 0
M  V30 2393 C 225.723 -2.45602 -3.86579 0
M  V30 2394 N 227.214 -2.43681 -3.93921 0
M  V30 2395 C 227.949 -3.11347 -4.81509 0
M  V30 2396 N 227.445 -3.88313 -5.73746 0
M  V30 2397 N 229.238 -3.00476 -4.75048 0
M  V30 2398 H 221.389 -1.84765 -1.04764 0
M  V30 2399 H 223.652 -0.792025 -0.520961 0
M  V30 2400 H 223.358 -2.57141 -2.39941 0
M  V30 2401 H 223.232 -1.25787 -3.55609 0
M  V30 2402 H 225.619 -0.507941 -2.90696 0
M  V30 2403 H 225.7 -1.85447 -1.76191 0
M  V30 2404 H 225.344 -3.48792 -3.69197 0
M  V30 2405 H 225.274 -2.11349 -4.82327 0
M  V30 2406 H 227.765 -1.87767 -3.27951 0
M  V30 2407 H 228.078 -4.36985 -6.37389 0
M  V30 2408 H 226.423 -3.92419 -5.73614 0
M  V30 2409 H 229.614 -2.39858 -4.01977 0
M  V30 2410 H 229.787 -3.53485 -5.43095 0
M  V30 2411 N 223.193 1.4272 -0.668489 0
M  V30 2412 C 224.421 2.05966 -0.196348 0
M  V30 2413 C 224.836 1.50191 1.14403 0
M  V30 2414 O 224.193 0.639208 1.7094 0
M  V30 2415 C 224.244 3.61314 -0.115815 0
M  V30 2416 O 223.965 4.1502 -1.40322 0
M  V30 2417 C 225.466 4.41663 0.380579 0
M  V30 2418 H 222.686 0.663954 -0.0969829 0
M  V30 2419 H 225.23 1.82966 -0.913446 0
M  V30 2420 H 223.385 3.83448 0.551931 0
M  V30 2421 H 223.799 5.08832 -1.27243 0
M  V30 2422 H 225.273 5.5065 0.385848 0
M  V30 2423 H 225.75 4.15792 1.41471 0
M  V30 2424 H 226.356 4.24534 -0.255209 0
M  V30 2425 N 224.671 0.411399 1.52136 0
M  V30 2426 C 226.082 -0.0576826 1.86611 0
M  V30 2427 C 226.433 -1.44238 1.33003 0
M  V30 2428 O 225.558 -2.05759 0.670228 0
M  V30 2429 C 226.153 -0.111448 3.38617 0
M  V30 2430 C 224.712 -0.52487 3.72723 0
M  V30 2431 C 223.859 0.299176 2.75681 0
M  V30 2432 H 226.81 0.628368 1.4573 0
M  V30 2433 H 226.831 -0.926252 3.69054 0
M  V30 2434 H 226.343 0.896488 3.77604 0
M  V30 2435 H 224.444 -1.53936 3.39315 0
M  V30 2436 H 224.557 -0.267681 4.78352 0
M  V30 2437 H 222.921 -0.238814 2.53578 0
M  V30 2438 H 223.704 1.3055 3.17508 0
M  V30 2439 N 226.149 -1.5696 0.141893 0
M  V30 2440 C 227.079 -2.19516 -0.795936 0
M  V30 2441 C 228.06 -1.14187 -1.26077 0
M  V30 2442 O 229.245 -1.42511 -1.31925 0
M  V30 2443 C 226.375 -2.81272 -2.03723 0
M  V30 2444 C 225.329 -3.92384 -1.70936 0
M  V30 2445 C 224.655 -4.41052 -3.02287 0
M  V30 2446 C 225.955 -5.13403 -0.959954 0
M  V30 2447 H 227.649 -2.98138 -0.274596 0
M  V30 2448 H 225.195 -1.43406 -0.130636 0
M  V30 2449 H 227.148 -3.237 -2.69808 0
M  V30 2450 H 225.872 -1.99973 -2.58221 0
M  V30 2451 H 224.531 -3.50566 -1.07232 0
M  V30 2452 H 224.179 -3.56582 -3.54765 0
M  V30 2453 H 223.879 -5.15993 -2.81114 0
M  V30 2454 H 225.403 -4.86146 -3.69451 0
M  V30 2455 H 226.817 -5.52706 -1.52279 0
M  V30 2456 H 225.214 -5.94073 -0.848357 0
M  V30 2457 H 226.284 -4.84875 0.0492434 0
M  V30 2458 N 227.627 0.131896 -1.57047 0
M  V30 2459 C 228.557 1.16384 -2.02428 0
M  V30 2460 C 229.538 1.43936 -0.90644 0
M  V30 2461 O 230.723 1.54599 -1.17528 0
M  V30 2462 C 227.853 2.49328 -2.4177 0
M  V30 2463 C 226.807 2.36266 -3.56879 0
M  V30 2464 C 226.133 3.74057 -3.8208 0
M  V30 2465 C 227.433 1.834 -4.89042 0
M  V30 2466 H 229.127 0.786433 -2.88887 0
M  V30 2467 H 226.673 0.376855 -1.38981 0
M  V30 2468 H 228.626 3.21759 -2.7212 0
M  V30 2469 H 227.35 2.88934 -1.52266 0
M  V30 2470 H 226.009 1.66286 -3.26718 0
M  V30 2471 H 225.657 4.11125 -2.89803 0
M  V30 2472 H 225.357 3.66174 -4.59554 0
M  V30 2473 H 226.881 4.48012 -4.1487 0
M  V30 2474 H 228.295 2.45636 -5.18011 0
M  V30 2475 H 226.692 1.8637 -5.70426 0
M  V30 2476 H 227.762 0.790662 -4.7841 0
M  V30 2477 N 229.106 1.52395 0.401703 0
M  V30 2478 C 230.038 1.72505 1.50912 0
M  V30 2479 C 231.051 0.605468 1.51122 0
M  V30 2480 O 232.24 0.880828 1.55254 0
M  V30 2481 C 229.34 1.75711 2.89791 0
M  V30 2482 C 228.513 3.04824 3.1369 0
M  V30 2483 C 227.572 2.99743 4.32482 0
M  V30 2484 O 226.598 3.73635 4.29402 0
M  V30 2485 N 227.8 2.18047 5.37992 0
M  V30 2486 H 230.565 2.68049 1.34052 0
M  V30 2487 H 228.126 1.50724 0.591084 0
M  V30 2488 H 230.118 1.69834 3.6734 0
M  V30 2489 H 228.688 0.876092 3.00072 0
M  V30 2490 H 227.908 3.2429 2.24119 0
M  V30 2491 H 229.196 3.90221 3.26504 0
M  V30 2492 H 228.594 1.57456 5.43345 0
M  V30 2493 H 227.151 2.18021 6.14256 0
M  V30 2494 N 230.584 -0.659388 1.43143 0
M  V30 2495 C 231.547 -1.75432 1.47501 0
M  V30 2496 C 232.547 -1.56707 0.360512 0
M  V30 2497 O 233.737 -1.62717 0.622002 0
M  V30 2498 C 230.869 -3.14239 1.32162 0
M  V30 2499 H 232.062 -1.7295 2.45006 0
M  V30 2500 H 229.615 -0.870469 1.29817 0
M  V30 2501 H 230.35 -3.22336 0.356401 0
M  V30 2502 H 230.135 -3.29235 2.12948 0
M  V30 2503 H 231.625 -3.94094 1.3813 0
M  V30 2504 N 232.062 -1.29571 -0.897171 0
M  V30 2505 C 233.473 -1.15964 -1.46319 0
M  V30 2506 C 233.824 0.244267 -1.94674 0
M  V30 2507 O 232.949 1.13998 -1.83939 0
M  V30 2508 C 233.544 -2.09906 -2.65942 0
M  V30 2509 C 232.103 -2.00314 -3.18671 0
M  V30 2510 C 231.25 -2.00687 -1.91363 0
M  V30 2511 H 234.201 -1.42019 -0.708268 0
M  V30 2512 H 234.222 -1.67276 -3.41759 0
M  V30 2513 H 233.734 -3.12075 -2.30718 0
M  V30 2514 H 231.835 -1.01242 -3.58582 0
M  V30 2515 H 231.948 -2.88102 -3.82798 0
M  V30 2516 H 230.312 -1.45319 -2.09175 0
M  V30 2517 H 231.095 -3.04566 -1.58413 0
M  V30 2518 N 233.54 1.10788 -1.12088 0
M  V30 2519 C 234.788 1.8231 -0.872205 0
M  V30 2520 C 235.109 1.85419 0.603709 0
M  V30 2521 O 234.379 1.32963 1.43867 0
M  V30 2522 H 232.959 0.675137 -0.319686 0
M  V30 2523 H 235.621 1.34068 -1.41463 0
M  V30 2524 H 234.717 2.85955 -1.25045 0
M  V30 2525 N 235.018 0.912232 1.28515 0
M  V30 2526 C 236.266 0.543523 1.94654 0
M  V30 2527 C 236.587 -0.9155 1.72173 0
M  V30 2528 O 235.857 -1.64708 1.06058 0
M  V30 2529 H 234.437 0.198017 0.720277 0
M  V30 2530 H 237.099 1.16126 1.56527 0
M  V30 2531 H 236.195 0.736684 3.03281 0
M  V30 2532 N 236.496 -1.42363 0.676048 0
M  V30 2533 C 237.907 -1.84649 0.275948 0
M  V30 2534 C 238.258 -1.56588 -1.18214 0
M  V30 2535 O 237.383 -1.02634 -1.90513 0
M  V30 2536 C 237.978 -3.35178 0.494053 0
M  V30 2537 C 236.537 -3.76109 0.148061 0
M  V30 2538 C 235.684 -2.65931 0.785891 0
M  V30 2539 H 238.635 -1.32192 0.878121 0
M  V30 2540 H 238.656 -3.79655 -0.25343 0
M  V30 2541 H 238.168 -3.55571 1.55535 0
M  V30 2542 H 236.269 -3.61323 -0.909742 0
M  V30 2543 H 236.382 -4.7546 0.589454 0
M  V30 2544 H 234.746 -2.53773 0.217113 0
M  V30 2545 H 235.529 -2.89146 1.85067 0
M  V30 2546 N 237.974 -0.419461 -1.51915 0
M  V30 2547 C 238.924 0.418496 -2.24126 0
M  V30 2548 C 239.908 1.00495 -1.25656 0
M  V30 2549 O 241.1 0.926058 -1.50842 0
M  V30 2550 C 238.229 1.52899 -3.07371 0
M  V30 2551 C 237.315 0.952797 -4.13258 0
M  V30 2552 N 237.706 0.104175 -5.05693 0
M  V30 2553 C 236.004 1.22224 -4.28926 0
M  V30 2554 C 236.705 -0.21752 -5.81293 0
M  V30 2555 N 235.681 0.394293 -5.42168 0
M  V30 2556 H 239.483 -0.236048 -2.92951 0
M  V30 2557 H 236.997 -0.230481 -1.60756 0
M  V30 2558 H 238.994 2.14199 -3.57665 0
M  V30 2559 H 237.654 2.18605 -2.40088 0
M  V30 2560 H 238.665 -0.260924 -5.17242 0
M  V30 2561 H 235.342 1.87812 -3.72871 0
M  V30 2562 H 236.732 -0.906992 -6.6575 0
M  V30 2563 N 239.452 1.56882 -0.150215 0
M  V30 2564 C 240.384 2.14057 0.819286 0
M  V30 2565 C 241.397 1.09082 1.20851 0
M  V30 2566 O 242.586 1.36347 1.15203 0
M  V30 2567 C 239.686 2.65102 2.11127 0
M  V30 2568 C 238.859 3.94511 1.88891 0
M  V30 2569 C 237.918 4.30834 3.02107 0
M  V30 2570 O 236.944 4.99099 2.73659 0
M  V30 2571 N 238.146 3.90676 4.29363 0
M  V30 2572 H 240.911 2.97871 0.330618 0
M  V30 2573 H 238.472 1.61866 0.0332538 0
M  V30 2574 H 240.464 2.86411 2.85921 0
M  V30 2575 H 239.034 1.85994 2.51247 0
M  V30 2576 H 238.254 3.81795 0.981152 0
M  V30 2577 H 239.542 4.7907 1.71376 0
M  V30 2578 H 238.94 3.35677 4.55343 0
M  V30 2579 H 237.497 4.1703 5.00928 0
M  V30 2580 N 240.93 -0.123565 1.57115 0
M  V30 2581 C 242.207 -0.862196 1.75572 0
M  V30 2582 C 242.587 -1.98279 0.724475 0
M  V30 2583 O 241.935 -2.27102 -0.252407 0
M  V30 2584 C 242.145 -1.38309 3.20424 0
M  V30 2585 C 243.493 -1.83724 3.82793 0
M  V30 2586 O 244.517 -1.47999 3.23998 0
M  V30 2587 O 243.376 -2.49685 4.86127 0
M  V30 2588 H 240.47 -0.409113 0.718718 0
M  V30 2589 H 243.016 -0.107661 1.69358 0
M  V30 2590 H 241.788 -0.578889 3.86994 0
M  V30 2591 H 241.411 -2.20046 3.31158 0
M  V30 2592 N 242.408 -1.52605 -0.393616 0
M  V30 2593 C 243.338 -1.80022 -1.48709 0
M  V30 2594 C 244.319 -0.651995 -1.57108 0
M  V30 2595 O 245.504 -0.89913 -1.72132 0
M  V30 2596 C 242.634 -1.96492 -2.86371 0
M  V30 2597 C 241.588 -3.12161 -2.92813 0
M  V30 2598 C 240.914 -3.13877 -4.3288 0
M  V30 2599 C 242.214 -4.51322 -2.6288 0
M  V30 2600 H 243.908 -2.71589 -1.26015 0
M  V30 2601 H 241.454 -1.30684 -0.604778 0
M  V30 2602 H 243.407 -2.14255 -3.62867 0
M  V30 2603 H 242.131 -1.01611 -3.10391 0
M  V30 2604 H 240.79 -2.94173 -2.18764 0
M  V30 2605 H 240.438 -2.16687 -4.53933 0
M  V30 2606 H 240.138 -3.91576 -4.38112 0
M  V30 2607 H 241.662 -3.33789 -5.1129 0
M  V30 2608 H 243.076 -4.69435 -3.29096 0
M  V30 2609 H 241.473 -5.31053 -2.79468 0
M  V30 2610 H 242.543 -4.58353 -1.58242 0
M  V30 2611 N 243.887 0.651787 -1.4349 0
M  V30 2612 C 245.303 0.96762 -1.26922 0
M  V30 2613 C 245.503 2.00602 -0.189982 0
M  V30 2614 O 244.559 2.48793 0.431107 0
M  V30 2615 C 245.872 1.45052 -2.63401 0
M  V30 2616 C 247.42 1.5671 -2.70945 0
M  V30 2617 C 247.895 2.0839 -4.07845 0
M  V30 2618 N 249.386 2.1569 -4.09917 0
M  V30 2619 C 250.121 2.56804 -5.12679 0
M  V30 2620 N 249.617 2.97203 -6.25813 0
M  V30 2621 N 251.41 2.56756 -5.00033 0
M  V30 2622 H 243.561 -0.0353158 -2.12371 0
M  V30 2623 H 245.824 0.0467858 -0.946845 0
M  V30 2624 H 245.53 0.761926 -3.43348 0
M  V30 2625 H 245.404 2.42529 -2.88894 0
M  V30 2626 H 247.791 2.2467 -1.9133 0
M  V30 2627 H 247.872 0.57662 -2.49216 0
M  V30 2628 H 247.516 1.41031 -4.87927 0
M  V30 2629 H 247.446 3.08271 -4.26938 0
M  V30 2630 H 249.937 1.87237 -3.28254 0
M  V30 2631 H 250.25 3.27328 -7.00055 0
M  V30 2632 H 248.595 2.95004 -6.29283 0
M  V30 2633 H 251.786 2.24572 -4.10713 0
M  V30 2634 H 251.959 2.88475 -5.80247 0
M  V30 2635 N 245.365 1.30045 0.890287 0
M  V30 2636 C 246.611 1.18737 1.64406 0
M  V30 2637 C 246.944 -0.258525 1.92472 0
M  V30 2638 O 246.219 -1.18562 1.54186 0
M  V30 2639 C 246.502 2.01087 2.98724 0
M  V30 2640 C 246.355 3.53867 2.77665 0
M  V30 2641 C 247.674 1.84457 3.9958 0
M  V30 2642 H 244.793 0.432698 0.596608 0
M  V30 2643 H 247.435 1.5962 1.0306 0
M  V30 2644 H 245.585 1.66349 3.51084 0
M  V30 2645 H 247.257 3.98637 2.32133 0
M  V30 2646 H 245.5 3.78318 2.12269 0
M  V30 2647 H 246.171 4.06772 3.7315 0
M  V30 2648 H 248.647 2.14817 3.56361 0
M  V30 2649 H 247.523 2.44411 4.91482 0
M  V30 2650 H 247.784 0.802276 4.3476 0
M  V30 2651 N 246.843 -1.10192 1.12674 0
M  V30 2652 C 247.791 -2.18694 0.792196 0
M  V30 2653 C 248.785 -1.67938 -0.222058 0
M  V30 2654 O 249.991 -1.79822 -0.0800074 0
M  V30 2655 H 246.366 -0.713223 0.238364 0
M  V30 2656 H 248.337 -2.44149 1.71564 0
M  V30 2657 C 247.086 -3.46682 0.265859 0
M  V30 2658 H 246.409 -3.86101 1.03761 0
M  V30 2659 H 247.849 -4.23942 0.0701128 0
M  V30 2660 C 246.308 -3.21506 -1.00675 0
M  V30 2661 O 246.838 -3.43408 -2.08408 0
M  V30 2662 N 245.044 -2.75158 -0.934692 0
M  V30 2663 H 244.591 -2.57535 -0.0578604 0
M  V30 2664 H 244.549 -2.58691 -1.7868 0
M  V30 2665 N 248.321 -0.919034 -1.28029 0
M  V30 2666 C 249.568 -0.554934 -1.94748 0
M  V30 2667 C 249.896 0.90231 -1.72304 0
M  V30 2668 O 249.151 1.65767 -1.04018 0
M  V30 2669 C 249.45 -0.816855 -3.4794 0
M  V30 2670 C 249.116 -2.25448 -3.90492 0
M  V30 2671 C 247.778 -2.64752 -4.01821 0
M  V30 2672 C 250.13 -3.18977 -4.12193 0
M  V30 2673 C 247.458 -3.96727 -4.32232 0
M  V30 2674 C 249.81 -4.50523 -4.44086 0
M  V30 2675 C 248.474 -4.89673 -4.53626 0
M  V30 2676 H 247.744 -0.203065 -0.712633 0
M  V30 2677 H 250.391 -1.16136 -1.52265 0
M  V30 2678 H 248.696 -0.127677 -3.91592 0
M  V30 2679 H 250.393 -0.514238 -3.97689 0
M  V30 2680 H 246.983 -1.93952 -3.82205 0
M  V30 2681 H 251.167 -2.89817 -4.02889 0
M  V30 2682 H 246.423 -4.26754 -4.37825 0
M  V30 2683 H 250.597 -5.23005 -4.59825 0
M  V30 2684 H 248.224 -5.91969 -4.76946 0
M  V30 2685 N 249.799 1.42003 -0.683588 0
M  V30 2686 C 251.045 2.01712 -0.209825 0
M  V30 2687 C 251.378 1.53968 1.18353 0
M  V30 2688 O 250.653 0.745661 1.79639 0
M  V30 2689 C 250.936 3.59202 -0.254197 0
M  V30 2690 C 250.789 4.17102 -1.68363 0
M  V30 2691 C 252.108 4.38344 0.392709 0
M  V30 2692 H 249.227 0.732891 -0.0777189 0
M  V30 2693 H 251.869 1.68909 -0.87004 0
M  V30 2694 H 250.019 3.87278 0.307954 0
M  V30 2695 H 251.691 3.99946 -2.29871 0
M  V30 2696 H 249.934 3.72597 -2.22157 0
M  V30 2697 H 250.605 5.26249 -1.6663 0
M  V30 2698 H 253.081 4.16011 -0.0859162 0
M  V30 2699 H 251.957 5.47901 0.331063 0
M  V30 2700 H 252.218 4.16887 1.47164 0
M  V30 2701 N 251.277 0.427512 1.51691 0
M  V30 2702 C 252.24 -0.377132 2.26076 0
M  V30 2703 C 253.24 -0.958089 1.29141 0
M  V30 2704 O 254.43 -0.83408 1.52934 0
M  V30 2705 C 251.562 -1.53262 3.04506 0
M  V30 2706 H 252.755 0.27464 2.9864 0
M  V30 2707 H 250.308 0.180445 1.55255 0
M  V30 2708 H 251.043 -2.22072 2.36335 0
M  V30 2709 H 250.828 -1.12232 3.75694 0
M  V30 2710 H 252.318 -2.10135 3.60878 0
M  V30 2711 N 252.755 -1.56801 0.158532 0
M  V30 2712 C 254.003 -1.96102 -0.488712 0
M  V30 2713 C 254.324 -1.04498 -1.64636 0
M  V30 2714 O 253.594 -0.108783 -1.95598 0
M  V30 2715 H 252.174 -0.724102 -0.183535 0
M  V30 2716 H 254.836 -1.93457 0.236728 0
M  V30 2717 H 253.932 -3.00097 -0.857219 0
M  V30 2718 N 254.233 0.115231 -1.57178 0
M  V30 2719 C 255.196 1.12526 -1.99676 0
M  V30 2720 C 256.196 1.34095 -0.88742 0
M  V30 2721 O 257.386 1.30548 -1.15337 0
M  V30 2722 C 254.518 2.4789 -2.34015 0
M  V30 2723 H 255.711 0.759912 -2.90113 0
M  V30 2724 H 253.264 0.359648 -1.52106 0
M  V30 2725 H 253.999 2.89339 -1.4647 0
M  V30 2726 H 253.784 2.33588 -3.14927 0
M  V30 2727 H 255.274 3.20575 -2.67622 0
M  V30 2728 N 255.711 1.52812 0.385517 0
M  V30 2729 C 256.957 1.68275 1.13188 0
M  V30 2730 C 257.29 0.423179 1.89533 0
M  V30 2731 O 256.565 -0.579113 1.85679 0
M  V30 2732 C 256.848 2.92001 2.1073 0
M  V30 2733 C 256.701 4.28067 1.38125 0
M  V30 2734 C 258.02 3.11283 3.11113 0
M  V30 2735 H 255.139 0.612352 0.410115 0
M  V30 2736 H 257.781 1.85415 0.414869 0
M  V30 2737 H 255.931 2.77519 2.71874 0
M  V30 2738 H 257.603 4.54324 0.799187 0
M  V30 2739 H 255.846 4.28388 0.683092 0
M  V30 2740 H 256.517 5.10733 2.09417 0
M  V30 2741 H 258.993 3.2482 2.6006 0
M  V30 2742 H 257.869 3.99325 3.76605 0
M  V30 2743 H 258.13 2.25656 3.80173 0
M  V30 2744 N 257.189 -0.644168 1.43834 0
M  V30 2745 C 258.099 -1.78563 1.52159 0
M  V30 2746 C 259.115 -1.69147 0.408069 0
M  V30 2747 O 260.291 -1.90156 0.663524 0
M  V30 2748 C 257.356 -3.14888 1.45073 0
M  V30 2749 C 256.417 -3.36034 2.6717 0
M  V30 2750 C 255.65 -4.65855 2.60413 0
M  V30 2751 O 255.873 -5.45805 1.65689 0
M  V30 2752 O 254.807 -4.88918 3.5106 0
M  V30 2753 H 258.633 -1.74494 2.48567 0
M  V30 2754 H 256.218 -0.80378 1.25935 0
M  V30 2755 H 258.1 -3.96179 1.43597 0
M  V30 2756 H 256.775 -3.19528 0.518037 0
M  V30 2757 H 255.682 -2.54472 2.74217 0
M  V30 2758 H 257.015 -3.36247 3.59442 0
M  V30 2759 N 258.668 -1.30515 -0.883378 0
M  V30 2760 C 260.079 -1.17509 -1.45081 0
M  V30 2761 C 260.43 0.223605 -1.94922 0
M  V30 2762 O 259.555 1.12041 -1.85137 0
M  V30 2763 C 260.15 -2.12715 -2.63701 0
M  V30 2764 C 258.709 -2.03682 -3.16529 0
M  V30 2765 C 257.856 -2.02706 -1.89224 0
M  V30 2766 H 260.807 -1.42762 -0.693165 0
M  V30 2767 H 260.828 -1.70891 -3.39965 0
M  V30 2768 H 260.34 -3.14505 -2.27395 0
M  V30 2769 H 258.441 -1.05039 -3.57488 0
M  V30 2770 H 258.554 -2.92146 -3.7972 0
M  V30 2771 H 256.918 -1.4753 -2.07622 0
M  V30 2772 H 257.701 -3.06229 -1.55174 0
M  V30 2773 N 260.146 1.09593 -1.13257 0
M  V30 2774 C 261.096 2.14345 -0.777179 0
M  V30 2775 C 262.08 1.59277 0.227966 0
M  V30 2776 O 263.272 1.76971 0.0321413 0
M  V30 2777 C 260.401 3.42439 -0.242991 0
M  V30 2778 C 259.487 4.04419 -1.27694 0
M  V30 2779 N 259.878 4.40979 -2.47732 0
M  V30 2780 C 258.176 4.31596 -1.12432 0
M  V30 2781 C 258.877 4.89784 -3.13826 0
M  V30 2782 N 257.853 4.87133 -2.41252 0
M  V30 2783 H 261.655 2.40415 -1.69049 0
M  V30 2784 H 259.169 1.26803 -1.01463 0
M  V30 2785 H 261.166 4.16889 0.0298496 0
M  V30 2786 H 259.826 3.17824 0.66467 0
M  V30 2787 H 260.837 4.32396 -2.85051 0
M  V30 2788 H 257.514 4.16595 -0.274684 0
M  V30 2789 H 258.904 5.2755 -4.16102 0
M  V30 2790 N 261.624 0.925811 1.2754 0
M  V30 2791 C 262.571 0.422045 2.26908 0
M  V30 2792 C 263.541 -0.510029 1.58076 0
M  V30 2793 O 264.726 -0.429599 1.85901 0
M  V30 2794 C 261.866 -0.320837 3.43605 0
M  V30 2795 C 260.979 0.64513 4.27156 0
M  V30 2796 C 260.114 -0.117405 5.3107 0
M  V30 2797 C 259.153 0.841391 6.0629 0
M  V30 2798 N 258.29 0.111604 7.02011 0
M  V30 2799 H 263.13 1.27441 2.69375 0
M  V30 2800 H 260.667 0.639697 1.32462 0
M  V30 2801 H 262.625 -0.76785 4.10073 0
M  V30 2802 H 261.255 -1.13745 3.02096 0
M  V30 2803 H 260.307 1.21067 3.6062 0
M  V30 2804 H 261.619 1.37797 4.79389 0
M  V30 2805 H 260.773 -0.624422 6.03478 0
M  V30 2806 H 259.512 -0.883219 4.79636 0
M  V30 2807 H 258.517 1.35967 5.32722 0
M  V30 2808 H 259.742 1.60696 6.59813 0
M  V30 2809 H 257.688 -0.635999 6.5291 0
M  V30 2810 H 257.605 0.784044 7.51923 0
M  V30 2811 H 258.873 -0.374823 7.78598 0
M  V30 2812 N 263.102 -1.41638 0.69111 0
M  V30 2813 C 264.065 -2.29178 0.0319786 0
M  V30 2814 C 265.065 -1.44153 -0.712496 0
M  V30 2815 O 266.255 -1.65354 -0.548053 0
M  V30 2816 C 263.387 -3.26952 -0.965161 0
M  V30 2817 H 264.58 -2.88959 0.802681 0
M  V30 2818 H 262.133 -1.4955 0.454356 0
M  V30 2819 H 262.868 -2.72142 -1.76378 0
M  V30 2820 H 262.653 -3.89685 -0.434522 0
M  V30 2821 H 264.143 -3.92561 -1.42428 0
M  V30 2822 N 264.58 -0.43555 -1.51462 0
M  V30 2823 C 265.991 0.0279871 -1.86679 0
M  V30 2824 C 266.342 1.42104 -1.35281 0
M  V30 2825 O 265.467 2.04667 -0.702878 0
M  V30 2826 C 266.062 0.0575626 -3.38751 0
M  V30 2827 C 264.621 0.465507 -3.7351 0
M  V30 2828 C 263.768 -0.342996 -2.75171 0
M  V30 2829 H 266.719 -0.651473 -1.44712 0
M  V30 2830 H 266.74 0.867421 -3.70481 0
M  V30 2831 H 266.252 -0.956448 -3.7613 0
M  V30 2832 H 264.353 1.48519 -3.41721 0
M  V30 2833 H 264.466 0.191546 -4.78717 0
M  V30 2834 H 262.83 0.198442 -2.53926 0
M  V30 2835 H 263.613 -1.35585 -3.15391 0
M  V30 2836 N 266.058 1.56714 -0.166846 0
M  V30 2837 C 267.021 2.16539 0.751232 0
M  V30 2838 C 268.021 1.11228 1.16125 0
M  V30 2839 O 269.211 1.36765 1.07894 0
M  V30 2840 C 266.343 2.74462 2.02196 0
M  V30 2841 H 267.536 2.99013 0.230499 0
M  V30 2842 H 265.089 1.56081 0.0826982 0
M  V30 2843 H 265.824 1.95709 2.58589 0
M  V30 2844 H 265.609 3.51527 1.73698 0
M  V30 2845 H 267.099 3.20489 2.67725 0
M  V30 2846 N 267.536 -0.106894 1.57237 0
M  V30 2847 C 268.466 -1.13148 2.04254 0
M  V30 2848 C 269.447 -1.42476 0.929224 0
M  V30 2849 O 270.632 -1.52709 1.19973 0
M  V30 2850 C 267.762 -2.4545 2.45706 0
M  V30 2851 C 266.716 -2.30558 3.60592 0
M  V30 2852 C 266.042 -3.67931 3.87983 0
M  V30 2853 C 267.342 -1.75597 4.91897 0
M  V30 2854 H 269.036 -0.740374 2.90101 0
M  V30 2855 H 266.582 -0.354696 1.39563 0
M  V30 2856 H 268.535 -3.17389 2.77205 0
M  V30 2857 H 267.259 -2.86475 1.56843 0
M  V30 2858 H 265.918 -1.61067 3.29322 0
M  V30 2859 H 265.566 -4.06462 2.96306 0
M  V30 2860 H 265.266 -3.58817 4.65322 0
M  V30 2861 H 266.79 -4.41356 4.21945 0
M  V30 2862 H 268.204 -2.37364 5.21854 0
M  V30 2863 H 266.601 -1.77272 5.73319 0
M  V30 2864 H 267.671 -0.714451 4.79608 0
M  V30 2865 N 269.014 -1.53014 -0.377408 0
M  V30 2866 C 269.924 -1.81557 -1.48574 0
M  V30 2867 C 270.94 -0.703102 -1.59162 0
M  V30 2868 O 272.116 -0.99192 -1.75279 0
M  V30 2869 C 269.181 -1.9889 -2.83978 0
M  V30 2870 C 268.242 -3.22801 -2.83016 0
M  V30 2871 C 267.475 -3.39298 -4.11962 0
M  V30 2872 O 267.698 -2.60345 -5.0752 0
M  V30 2873 O 266.632 -4.32604 -4.18494 0
M  V30 2874 H 270.458 -2.75695 -1.27382 0
M  V30 2875 H 268.043 -1.38248 -0.566373 0
M  V30 2876 H 269.925 -2.11931 -3.6423 0
M  V30 2877 H 268.6 -1.07942 -3.05172 0
M  V30 2878 H 267.507 -3.15193 -2.01505 0
M  V30 2879 H 268.84 -4.13632 -2.66775 0
M  V30 2880 N 270.492 0.636531 -1.44174 0
M  V30 2881 C 271.908 0.954104 -1.27941 0
M  V30 2882 C 272.108 2.0039 -0.211248 0
M  V30 2883 O 271.164 2.49236 0.404695 0
M  V30 2884 C 272.477 1.4225 -2.64925 0
M  V30 2885 C 274.025 1.53827 -2.72592 0
M  V30 2886 C 274.5 2.04053 -4.10032 0
M  V30 2887 N 275.991 2.11331 -4.12182 0
M  V30 2888 C 276.726 2.51352 -5.15374 0
M  V30 2889 N 276.222 2.90549 -6.2893 0
M  V30 2890 N 278.015 2.51438 -5.02728 0
M  V30 2891 H 270.166 -0.0578386 -2.12321 0
M  V30 2892 H 272.429 0.0367406 -0.947288 0
M  V30 2893 H 272.135 0.725466 -3.44136 0
M  V30 2894 H 272.009 2.39451 -2.9145 0
M  V30 2895 H 274.396 2.22628 -1.93702 0
M  V30 2896 H 274.477 0.550154 -2.49814 0
M  V30 2897 H 274.121 1.35848 -4.89395 0
M  V30 2898 H 274.051 3.03726 -4.30184 0
M  V30 2899 H 276.542 1.83745 -3.30222 0
M  V30 2900 H 276.855 3.19884 -7.03487 0
M  V30 2901 H 275.2 2.88313 -6.32377 0
M  V30 2902 H 278.391 2.20203 -4.13072 0
M  V30 2903 H 278.564 2.82304 -5.83274 0
M  V30 2904 N 271.97 1.30982 0.876444 0
M  V30 2905 C 272.9 1.20668 1.99903 0
M  V30 2906 C 273.881 0.095354 1.69833 0
M  V30 2907 O 275.066 0.27885 1.92188 0
M  V30 2908 C 272.196 0.90655 3.3526 0
M  V30 2909 C 271.15 1.97675 3.79617 0
M  V30 2910 C 270.476 1.52943 5.1236 0
M  V30 2911 C 271.776 3.389 3.97422 0
M  V30 2912 H 273.47 2.14586 2.0879 0
M  V30 2913 H 271.016 1.03308 1.00317 0
M  V30 2914 H 272.969 0.821025 4.13324 0
M  V30 2915 H 271.693 -0.0682969 3.26529 0
M  V30 2916 H 270.352 2.05205 3.03787 0
M  V30 2917 H 270 0.54262 5.00065 0
M  V30 2918 H 269.7 2.24532 5.43009 0
M  V30 2919 H 271.224 1.45786 5.92941 0
M  V30 2920 H 272.638 3.34081 4.659 0
M  V30 2921 H 271.035 4.0865 4.3946 0
M  V30 2922 H 272.105 3.80163 3.01006 0
M  V30 2923 N 273.449 -1.08991 1.13837 0
M  V30 2924 C 274.379 -2.17771 0.842507 0
M  V30 2925 C 275.36 -1.6892 -0.20001 0
M  V30 2926 O 276.545 -1.94113 -0.0579731 0
M  V30 2927 C 273.675 -3.4589 0.312644 0
M  V30 2928 C 272.629 -4.08099 1.28992 0
M  V30 2929 C 271.955 -5.31098 0.619623 0
M  V30 2930 C 273.255 -4.50077 2.65005 0
M  V30 2931 H 274.949 -2.42777 1.75213 0
M  V30 2932 H 272.495 -1.16682 0.843875 0
M  V30 2933 H 274.448 -4.21297 0.0933043 0
M  V30 2934 H 273.172 -3.20419 -0.632382 0
M  V30 2935 H 271.831 -3.34717 1.49533 0
M  V30 2936 H 271.479 -5.0191 -0.33102 0
M  V30 2937 H 271.179 -5.73674 1.27167 0
M  V30 2938 H 272.703 -6.09224 0.409669 0
M  V30 2939 H 274.117 -5.16688 2.48407 0
M  V30 2940 H 272.514 -5.03553 3.26427 0
M  V30 2941 H 273.584 -3.62257 3.22332 0
M  V30 2942 N 274.927 -0.932562 -1.27047 0
M  V30 2943 C 276.173 -0.585913 -1.94778 0
M  V30 2944 C 276.528 0.864142 -1.71902 0
M  V30 2945 O 275.821 1.60894 -1.04037 0
M  V30 2946 C 276.015 -0.853713 -3.47054 0
M  V30 2947 C 275.844 -2.32825 -3.84737 0
M  V30 2948 C 274.614 -2.98184 -4.07939 0
M  V30 2949 C 276.812 -3.30612 -3.93954 0
M  V30 2950 N 274.794 -4.3574 -4.3244 0
M  V30 2951 C 276.165 -4.53395 -4.22887 0
M  V30 2952 C 278.22 -3.25755 -3.76548 0
M  V30 2953 C 276.923 -5.71927 -4.36224 0
M  V30 2954 C 278.949 -4.43604 -3.91113 0
M  V30 2955 C 278.311 -5.65166 -4.20437 0
M  V30 2956 H 274.41 -0.264617 -0.735868 0
M  V30 2957 H 276.994 -1.20019 -1.53309 0
M  V30 2958 H 275.165 -0.268557 -3.8747 0
M  V30 2959 H 276.897 -0.469202 -4.01971 0
M  V30 2960 H 273.652 -2.48835 -4.02961 0
M  V30 2961 H 274.076 -5.06915 -4.48738 0
M  V30 2962 H 278.718 -2.32835 -3.52913 0
M  V30 2963 H 276.436 -6.65308 -4.58683 0
M  V30 2964 H 280.022 -4.41368 -3.79059 0
M  V30 2965 H 278.902 -6.54836 -4.31462 0
M  V30 2966 N 276.405 1.4127 -0.698611 0
M  V30 2967 C 277.821 1.55241 -0.370462 0
M  V30 2968 C 278.021 1.67351 1.12231 0
M  V30 2969 O 277.077 1.65363 1.90818 0
M  V30 2970 C 278.39 2.78997 -1.12165 0
M  V30 2971 C 279.938 2.92797 -1.1063 0
M  V30 2972 C 280.413 4.19445 -1.8393 0
M  V30 2973 N 281.904 4.26409 -1.80914 0
M  V30 2974 C 282.639 5.23271 -2.34467 0
M  V30 2975 N 282.135 6.26145 -2.96504 0
M  V30 2976 N 283.928 5.15232 -2.24706 0
M  V30 2977 H 276.079 1.31654 -1.66676 0
M  V30 2978 H 278.342 0.635393 -0.703548 0
M  V30 2979 H 278.048 2.76268 -2.17644 0
M  V30 2980 H 277.922 3.70606 -0.702209 0
M  V30 2981 H 280.309 2.95039 -0.0597713 0
M  V30 2982 H 280.39 2.02353 -1.56483 0
M  V30 2983 H 280.034 4.17964 -2.88563 0
M  V30 2984 H 279.964 5.08866 -1.35509 0
M  V30 2985 H 282.455 3.527 -1.35687 0
M  V30 2986 H 282.768 6.96451 -3.34927 0
M  V30 2987 H 281.113 6.26638 -3.00583 0
M  V30 2988 H 284.304 4.33789 -1.7591 0
M  V30 2989 H 284.477 5.90552 -2.66745 0
M  V30 2990 N 277.883 0.443576 1.51229 0
M  V30 2991 C 278.846 -0.353132 2.26463 0
M  V30 2992 C 279.846 -0.944338 1.3015 0
M  V30 2993 O 281.036 -0.817813 1.5381 0
M  V30 2994 C 278.168 -1.50023 3.06114 0
M  V30 2995 H 279.361 0.3063 2.98332 0
M  V30 2996 H 276.914 0.196902 1.55055 0
M  V30 2997 H 277.649 -2.19553 2.38677 0
M  V30 2998 H 277.434 -1.08241 3.76864 0
M  V30 2999 H 278.924 -2.06296 3.63087 0
M  V30 3000 N 279.361 -1.56624 0.175154 0
M  V30 3001 C 280.601 -1.98894 -0.471221 0
M  V30 3002 C 280.965 -1.05889 -1.60161 0
M  V30 3003 O 282.166 -1.37315 -2.3108 0
M  V30 3004 C 280.437 -3.44865 -0.938241 0
M  V30 3005 S 281.996 -4.09164 -1.58526 0
M  V30 3006 H 278.814 -0.694686 -0.151434 0
M  V30 3007 H 281.416 -1.93577 0.27352 0
M  V30 3008 H 280.12 -4.10265 -0.10518 0
M  V30 3009 H 279.651 -3.53956 -1.71693 0
M  V30 3010 H 281.666 -4.04528 -2.87352 0
M  V30 3011 N 280.839 0.0985539 -1.57292 0
M  V30 3012 C 282.255 0.45267 -1.53046 0
M  V30 3013 C 282.455 1.80713 -0.891342 0
M  V30 3014 O 281.511 2.4785 -0.482375 0
M  V30 3015 C 282.824 0.418341 -2.97776 0
M  V30 3016 C 284.372 0.500443 -3.08973 0
M  V30 3017 C 284.847 0.496297 -4.55303 0
M  V30 3018 N 286.338 0.557151 -4.59837 0
M  V30 3019 C 287.073 0.575726 -5.70502 0
M  V30 3020 N 286.569 0.550714 -6.90608 0
M  V30 3021 N 288.362 0.620277 -5.58667 0
M  V30 3022 H 280.513 -0.788673 -1.97215 0
M  V30 3023 H 282.776 -0.293188 -0.901524 0
M  V30 3024 H 282.482 -0.509659 -3.47988 0
M  V30 3025 H 282.356 1.2386 -3.56284 0
M  V30 3026 H 284.743 1.41886 -2.58751 0
M  V30 3027 H 284.824 -0.347894 -2.53423 0
M  V30 3028 H 284.468 -0.418162 -5.06176 0
M  V30 3029 H 284.398 1.3618 -5.08687 0
M  V30 3030 H 286.889 0.581816 -3.73394 0
M  V30 3031 H 287.202 0.568075 -7.70709 0
M  V30 3032 H 285.547 0.517816 -6.93068 0
M  V30 3033 H 288.738 0.637322 -4.63741 0
M  V30 3034 H 288.911 0.631283 -6.44918 0
M  V30 3035 N 282.317 1.53212 0.369288 0
M  V30 3036 C 283.565 1.68881 1.11012 0
M  V30 3037 C 283.886 0.441285 1.89941 0
M  V30 3038 O 283.156 -0.544623 1.88177 0
M  V30 3039 H 281.736 0.622569 0.412816 0
M  V30 3040 H 284.398 1.90391 0.416802 0
M  V30 3041 H 283.494 2.54822 1.80201 0
M  V30 3042 N 283.795 -0.628877 1.44509 0
M  V30 3043 C 285.042 -1.38839 1.47411 0
M  V30 3044 C 285.37 -1.94202 0.10757 0
M  V30 3045 O 284.625 -1.74243 -0.890947 0
M  V30 3046 C 284.924 -2.56995 2.48371 0
M  V30 3047 C 284.59 -2.19908 3.93639 0
M  V30 3048 C 283.252 -2.09506 4.33198 0
M  V30 3049 C 285.604 -1.9064 4.85083 0
M  V30 3050 C 282.932 -1.68028 5.62124 0
M  V30 3051 C 285.284 -1.50655 6.14399 0
M  V30 3052 C 283.948 -1.38796 6.5291 0
M  V30 3053 H 283.218 -0.508048 0.539414 0
M  V30 3054 H 285.865 -0.712913 1.77735 0
M  V30 3055 H 284.17 -3.29786 2.11538 0
M  V30 3056 H 285.867 -3.15223 2.47861 0
M  V30 3057 H 282.457 -2.28922 3.62343 0
M  V30 3058 H 286.641 -1.97585 4.55273 0
M  V30 3059 H 281.897 -1.57452 5.90778 0
M  V30 3060 H 286.071 -1.27048 6.84713 0
M  V30 3061 H 283.698 -1.06429 7.52713 0
M  V30 3062 N 285.273 -1.31445 -0.869486 0
M  V30 3063 C 286.203 -1.21727 -1.99261 0
M  V30 3064 C 287.184 -0.104359 -1.6978 0
M  V30 3065 O 288.369 -0.289038 -1.92037 0
M  V30 3066 C 285.499 -0.924317 -3.34774 0
M  V30 3067 C 284.453 -1.99685 -3.78563 0
M  V30 3068 C 283.779 -1.55658 -5.11541 0
M  V30 3069 C 285.079 -3.41003 -3.95619 0
M  V30 3070 H 286.773 -2.1569 -2.07649 0
M  V30 3071 H 284.319 -1.03839 -0.997675 0
M  V30 3072 H 286.272 -0.842934 -4.12883 0
M  V30 3073 H 284.996 0.0509793 -3.2656 0
M  V30 3074 H 283.655 -2.06813 -3.02694 0
M  V30 3075 H 283.303 -0.569132 -4.9977 0
M  V30 3076 H 283.003 -2.27409 -5.41811 0
M  V30 3077 H 284.527 -1.48928 -5.92159 0
M  V30 3078 H 285.941 -3.36547 -4.64122 0
M  V30 3079 H 284.338 -4.10975 -4.37286 0
M  V30 3080 H 285.408 -3.81754 -2.98985 0
M  V30 3081 N 286.751 1.08385 -1.14413 0
M  V30 3082 C 288 1.80153 -0.907076 0
M  V30 3083 C 288.313 1.87176 0.567851 0
M  V30 3084 O 289.519 2.55359 0.922172 0
M  V30 3085 C 287.975 3.23687 -1.57336 0
M  V30 3086 C 287.583 3.24897 -3.08457 0
M  V30 3087 C 289.327 4.00136 -1.41744 0
M  V30 3088 C 287.234 4.6302 -3.67921 0
M  V30 3089 H 286.164 0.675139 -0.335714 0
M  V30 3090 H 288.815 1.21733 -1.37307 0
M  V30 3091 H 287.197 3.82234 -1.03505 0
M  V30 3092 H 288.371 2.76055 -3.68958 0
M  V30 3093 H 286.686 2.61943 -3.2369 0
M  V30 3094 H 289.283 5.02201 -1.83572 0
M  V30 3095 H 289.626 4.14709 -0.363576 0
M  V30 3096 H 290.159 3.48058 -1.92614 0
M  V30 3097 H 286.898 4.5365 -4.73161 0
M  V30 3098 H 286.418 5.12143 -3.12201 0
M  V30 3099 H 288.097 5.31994 -3.68227 0
M  V30 3100 N 288.23 0.939286 1.26551 0
M  V30 3101 C 289.193 0.451987 2.24699 0
M  V30 3102 C 290.193 -0.435869 1.5478 0
M  V30 3103 O 291.383 -0.235314 1.72603 0
M  V30 3104 C 288.515 -0.348801 3.39111 0
M  V30 3105 H 289.708 1.3193 2.69322 0
M  V30 3106 H 287.261 0.721072 1.38673 0
M  V30 3107 H 287.996 -1.23444 2.99887 0
M  V30 3108 H 287.781 0.287945 3.91041 0
M  V30 3109 H 289.271 -0.679726 4.12031 0
M  V30 3110 N 289.708 -1.40897 0.706093 0
M  V30 3111 C 290.933 -2.05895 0.249435 0
M  V30 3112 C 291.358 -1.52823 -1.09666 0
M  V30 3113 O 290.716 -0.659589 -1.68876 0
M  V30 3114 C 290.764 -3.59872 0.22904 0
M  V30 3115 O 289.868 -4.04708 -0.792784 0
M  V30 3116 H 289.209 -0.653206 0.119241 0
M  V30 3117 H 291.739 -1.80471 0.96391 0
M  V30 3118 H 291.749 -4.07951 0.0634791 0
M  V30 3119 H 290.424 -3.97866 1.21141 0
M  V30 3120 H 289.001 -3.68111 -0.59572 0
M  V30 3121 N 291.186 -0.45159 -1.50991 0
M  V30 3122 C 292.433 0.110074 -2.02201 0
M  V30 3123 C 292.761 1.4146 -1.33489 0
M  V30 3124 O 292.016 1.90617 -0.443125 0
M  V30 3125 C 292.315 0.361728 -3.55565 0
M  V30 3126 C 291.981 -0.858717 -4.42648 0
M  V30 3127 C 290.643 -1.19338 -4.66167 0
M  V30 3128 C 292.995 -1.67221 -4.93646 0
M  V30 3129 C 290.323 -2.34195 -5.37931 0
M  V30 3130 C 292.675 -2.8119 -5.6667 0
M  V30 3131 C 291.339 -3.15094 -5.88449 0
M  V30 3132 H 290.609 0.040279 -0.739904 0
M  V30 3133 H 293.256 -0.601696 -1.81802 0
M  V30 3134 H 291.561 1.15554 -3.74372 0
M  V30 3135 H 293.258 0.80996 -3.92735 0
M  V30 3136 H 289.848 -0.58796 -4.24548 0
M  V30 3137 H 294.032 -1.42686 -4.75347 0
M  V30 3138 H 289.288 -2.6076 -5.53005 0
M  V30 3139 H 293.462 -3.44585 -6.05173 0
M  V30 3140 H 291.089 -4.04204 -6.43835 0
M  V30 3141 N 292.664 1.56529 -0.183458 0
M  V30 3142 C 294.08 1.58664 0.172554 0
M  V30 3143 C 294.28 1.19925 1.61926 0
M  V30 3144 O 293.336 0.916534 2.35278 0
M  V30 3145 C 294.649 3.00463 -0.119262 0
M  V30 3146 C 296.197 3.12945 -0.0584396 0
M  V30 3147 C 296.672 4.56857 -0.323408 0
M  V30 3148 N 298.163 4.62403 -0.271612 0
M  V30 3149 C 298.898 5.71626 -0.450639 0
M  V30 3150 N 298.394 6.89362 -0.689384 0
M  V30 3151 N 300.187 5.60775 -0.385701 0
M  V30 3152 H 292.338 1.79994 -1.12765 0
M  V30 3153 H 294.601 0.834808 -0.449222 0
M  V30 3154 H 294.307 3.33326 -1.12192 0
M  V30 3155 H 294.181 3.72659 0.583544 0
M  V30 3156 H 296.568 2.79902 0.934805 0
M  V30 3157 H 296.649 2.4316 -0.794144 0
M  V30 3158 H 296.293 4.9061 -1.31392 0
M  V30 3159 H 296.223 5.24816 0.43305 0
M  V30 3160 H 298.714 3.77785 -0.0932256 0
M  V30 3161 H 299.027 7.68489 -0.815113 0
M  V30 3162 H 297.372 6.91196 -0.726142 0
M  V30 3163 H 300.563 4.67674 -0.199687 0
M  V30 3164 H 300.736 6.4584 -0.528646 0
M  V30 3165 N 294.142 -0.090211 1.57342 0
M  V30 3166 C 295.052 -1.12735 2.05738 0
M  V30 3167 C 296.068 -1.43557 0.983231 0
M  V30 3168 O 297.244 -1.54101 1.29672 0
M  V30 3169 C 294.309 -2.42659 2.47624 0
M  V30 3170 C 293.37 -2.18975 3.69254 0
M  V30 3171 C 292.603 -3.42704 4.09133 0
M  V30 3172 O 292.826 -4.51127 3.49057 0
M  V30 3173 O 291.76 -3.32003 5.02053 0
M  V30 3174 H 295.586 -0.746279 2.94388 0
M  V30 3175 H 293.171 -0.303064 1.46294 0
M  V30 3176 H 295.053 -3.19155 2.7517 0
M  V30 3177 H 293.728 -2.80182 1.62109 0
M  V30 3178 H 292.635 -1.40244 3.46818 0
M  V30 3179 H 293.968 -1.86342 4.55563 0
M  V30 3180 N 295.62 -1.53406 -0.361157 0
M  V30 3181 C 296.55 -1.83136 -1.44857 0
M  V30 3182 C 297.531 -0.685174 -1.5569 0
M  V30 3183 O 298.716 -0.93544 -1.70186 0
M  V30 3184 C 295.846 -2.02522 -2.82138 0
M  V30 3185 C 294.8 -3.18302 -2.86126 0
M  V30 3186 C 294.126 -3.22989 -4.26125 0
M  V30 3187 C 295.426 -4.56796 -2.53248 0
M  V30 3188 H 297.12 -2.74201 -1.20226 0
M  V30 3189 H 294.666 -1.31938 -0.576922 0
M  V30 3190 H 296.619 -2.21904 -3.58241 0
M  V30 3191 H 295.343 -1.08172 -3.08166 0
M  V30 3192 H 294.002 -2.98747 -2.12475 0
M  V30 3193 H 293.65 -2.26267 -4.49235 0
M  V30 3194 H 293.35 -4.00781 -4.29708 0
M  V30 3195 H 294.874 -3.44559 -5.04094 0
M  V30 3196 H 296.288 -4.7631 -3.19064 0
M  V30 3197 H 294.685 -5.36862 -2.68141 0
M  V30 3198 H 295.755 -4.61606 -1.48484 0
M  V30 3199 N 297.098 0.621204 -1.44841 0
M  V30 3200 C 298.008 1.7612 -1.5498 0
M  V30 3201 C 299.024 1.68477 -0.434927 0
M  V30 3202 O 300.2 1.89076 -0.693693 0
M  V30 3203 C 297.265 3.1254 -1.50065 0
M  V30 3204 C 296.326 3.31741 -2.72482 0
M  V30 3205 C 295.559 4.61653 -2.67792 0
M  V30 3206 O 295.782 5.431 -1.74352 0
M  V30 3207 O 294.716 4.83271 -3.58794 0
M  V30 3208 H 298.542 1.70518 -2.51311 0
M  V30 3209 H 296.127 0.783643 -1.27198 0
M  V30 3210 H 298.009 3.93844 -1.49882 0
M  V30 3211 H 296.684 3.18663 -0.568806 0
M  V30 3212 H 295.591 2.50077 -2.7823 0
M  V30 3213 H 296.924 3.30486 -3.64746 0
M  V30 3214 N 298.576 1.31904 0.862503 0
M  V30 3215 C 299.508 1.16005 1.97675 0
M  V30 3216 C 300.521 0.0971234 1.6251 0
M  V30 3217 O 301.71 0.345337 1.75128 0
M  V30 3218 C 298.81 0.751791 3.30456 0
M  V30 3219 C 297.983 1.90133 3.93914 0
M  V30 3220 C 297.042 1.4779 5.05019 0
M  V30 3221 O 296.068 2.18872 5.25437 0
M  V30 3222 N 297.27 0.369491 5.79323 0
M  V30 3223 H 300.035 2.11982 2.11857 0
M  V30 3224 H 297.596 1.24337 1.03691 0
M  V30 3225 H 299.588 0.451084 4.02178 0
M  V30 3226 H 298.158 -0.116593 3.12382 0
M  V30 3227 H 297.378 2.36896 3.15078 0
M  V30 3228 H 298.666 2.67111 4.33047 0
M  V30 3229 H 298.064 -0.222299 5.65263 0
M  V30 3230 H 296.621 0.128354 6.51674 0
M  V30 3231 N 300.054 -1.07777 1.14986 0
M  V30 3232 C 301.465 -1.61766 0.932127 0
M  V30 3233 C 301.816 -1.88974 -0.527581 0
M  V30 3234 O 300.941 -1.65198 -1.39781 0
M  V30 3235 C 301.536 -2.93891 1.68563 0
M  V30 3236 C 300.095 -3.44639 1.5133 0
M  V30 3237 C 299.242 -2.18767 1.704 0
M  V30 3238 H 302.193 -0.909201 1.30074 0
M  V30 3239 H 302.214 -3.62623 1.15259 0
M  V30 3240 H 301.726 -2.74057 2.74799 0
M  V30 3241 H 299.827 -3.69564 0.474702 0
M  V30 3242 H 299.94 -4.20966 2.28746 0
M  V30 3243 H 298.304 -2.28253 1.13016 0
M  V30 3244 H 299.087 -2.01433 2.77992 0
M  V30 3245 N 301.532 -0.945985 -1.26051 0
M  V30 3246 C 302.462 -0.477172 -2.28572 0
M  V30 3247 C 303.443 0.472032 -1.63419 0
M  V30 3248 O 304.628 0.372853 -1.90587 0
M  V30 3249 C 301.758 0.253975 -3.4637 0
M  V30 3250 C 300.712 -0.609135 -4.23643 0
M  V30 3251 C 300.038 0.252252 -5.34105 0
M  V30 3252 C 301.338 -1.8829 -4.8718 0
M  V30 3253 H 303.032 -1.33402 -2.68038 0
M  V30 3254 H 300.578 -0.642904 -1.28852 0
M  V30 3255 H 302.531 0.593016 -4.17207 0
M  V30 3256 H 301.255 1.145 -3.05871 0
M  V30 3257 H 299.914 -0.931138 -3.54578 0
M  V30 3258 H 299.562 1.14278 -4.89846 0
M  V30 3259 H 299.262 -0.32188 -5.86718 0
M  V30 3260 H 300.786 0.586454 -6.07777 0
M  V30 3261 H 302.2 -1.61081 -5.50205 0
M  V30 3262 H 300.597 -2.40199 -5.49931 0
M  V30 3263 H 301.667 -2.59134 -4.09851 0
M  V30 3264 N 303.011 1.40521 -0.713556 0
M  V30 3265 C 303.921 2.34522 -0.0606667 0
M  V30 3266 C 304.937 1.57193 0.74607 0
M  V30 3267 O 306.113 1.89591 0.679493 0
M  V30 3268 C 303.178 3.36081 0.851491 0
M  V30 3269 C 302.239 4.29286 0.0349339 0
M  V30 3270 C 301.472 5.25994 0.903649 0
M  V30 3271 O 301.695 5.28616 2.14292 0
M  V30 3272 O 300.629 6.00918 0.343723 0
M  V30 3273 H 304.455 2.91968 -0.835972 0
M  V30 3274 H 302.04 1.41681 -0.47402 0
M  V30 3275 H 303.922 3.98369 1.37404 0
M  V30 3276 H 302.597 2.81052 1.60598 0
M  V30 3277 H 301.504 3.70289 -0.532633 0
M  V30 3278 H 302.837 4.87462 -0.681287 0
M  V30 3279 N 304.489 0.459591 1.5075 0
M  V30 3280 C 305.439 -0.358926 2.25157 0
M  V30 3281 C 306.423 -0.971285 1.28276 0
M  V30 3282 O 307.615 -0.885739 1.53244 0
M  V30 3283 C 304.744 -1.44695 3.11317 0
M  V30 3284 C 303.83 -0.842894 4.15639 0
M  V30 3285 N 304.221 0.0299373 5.05791 0
M  V30 3286 C 302.519 -1.10809 4.32015 0
M  V30 3287 C 303.22 0.371563 5.80512 0
M  V30 3288 N 302.196 -0.250409 5.43023 0
M  V30 3289 H 305.998 0.313636 2.92222 0
M  V30 3290 H 303.512 0.273021 1.60089 0
M  V30 3291 H 305.509 -2.04641 3.63218 0
M  V30 3292 H 304.169 -2.12162 2.45799 0
M  V30 3293 H 305.18 0.39797 5.16369 0
M  V30 3294 H 301.857 -1.7786 3.77719 0
M  V30 3295 H 303.247 1.08319 6.63111 0
M  V30 3296 N 305.967 -1.56429 0.191757 0
M  V30 3297 C 307.378 -1.83912 -0.321428 0
M  V30 3298 C 307.729 -1.11231 -1.61623 0
M  V30 3299 O 306.854 -0.37202 -2.13178 0
M  V30 3300 C 307.449 -3.33624 -0.589961 0
M  V30 3301 C 306.008 -3.6153 -1.04753 0
M  V30 3302 C 305.155 -2.7714 -0.0943327 0
M  V30 3303 H 308.106 -1.53161 0.415612 0
M  V30 3304 H 308.127 -3.52213 -1.43966 0
M  V30 3305 H 307.639 -3.86495 0.352588 0
M  V30 3306 H 305.74 -3.14089 -2.00447 0
M  V30 3307 H 305.853 -4.69737 -0.942549 0
M  V30 3308 H 304.217 -2.47638 -0.595589 0
M  V30 3309 H 305 -3.32799 0.842601 0
M  V30 3310 N 307.445 0.0818655 -1.57387 0
M  V30 3311 C 308.691 0.784074 -1.8703 0
M  V30 3312 C 309.024 1.77729 -0.782689 0
M  V30 3313 O 308.299 1.93384 0.208051 0
M  V30 3314 C 308.582 1.50105 -3.27323 0
M  V30 3315 C 308.435 0.524925 -4.46727 0
M  V30 3316 C 309.754 2.44843 -3.65705 0
M  V30 3317 H 306.873 0.283582 -0.680257 0
M  V30 3318 H 309.515 0.0474352 -1.89941 0
M  V30 3319 H 307.665 2.12897 -3.24972 0
M  V30 3320 H 309.337 -0.0970111 -4.61198 0
M  V30 3321 H 307.58 -0.160606 -4.33503 0
M  V30 3322 H 308.251 1.064 -5.41648 0
M  V30 3323 H 310.727 1.92135 -3.69085 0
M  V30 3324 H 309.603 2.92018 -4.64776 0
M  V30 3325 H 309.864 3.29197 -2.95096 0
M  V30 3326 N 308.923 1.53595 0.353017 0
M  V30 3327 C 310.151 1.74311 1.1146 0
M  V30 3328 C 310.566 0.477854 1.82653 0
M  V30 3329 O 309.923 -0.549977 1.74016 0
M  V30 3330 C 309.974 2.91694 2.13534 0
M  V30 3331 O 309.695 4.13325 1.45238 0
M  V30 3332 C 311.196 3.24384 3.02142 0
M  V30 3333 H 308.416 0.582669 0.332773 0
M  V30 3334 H 310.96 2.00386 0.408107 0
M  V30 3335 H 309.115 2.67977 2.79763 0
M  V30 3336 H 309.529 4.79148 2.13349 0
M  V30 3337 H 311.003 4.09893 3.69718 0
M  V30 3338 H 311.48 2.40282 3.67643 0
M  V30 3339 H 312.086 3.50073 2.41514 0
M  V30 3340 N 310.401 -0.613514 1.45168 0
M  V30 3341 C 311.649 -1.36997 1.48581 0
M  V30 3342 C 311.97 -1.94589 0.126545 0
M  V30 3343 O 311.24 -1.76816 -0.843372 0
M  V30 3344 H 309.82 -0.508558 0.547154 0
M  V30 3345 H 312.482 -0.720853 1.81079 0
M  V30 3346 H 311.578 -2.1924 2.22127 0
M  V30 3347 N 311.879 -1.3236 -0.855495 0
M  V30 3348 C 312.789 -1.23221 -1.99634 0
M  V30 3349 C 313.805 -0.145983 -1.73387 0
M  V30 3350 O 314.981 -0.366502 -1.98037 0
M  V30 3351 C 312.046 -0.954782 -3.33294 0
M  V30 3352 C 311.107 -2.12937 -3.72769 0
M  V30 3353 C 310.34 -1.86508 -5.00051 0
M  V30 3354 O 310.563 -0.807231 -5.64659 0
M  V30 3355 O 309.497 -2.72591 -5.36636 0
M  V30 3356 H 313.323 -2.19126 -2.1028 0
M  V30 3357 H 310.908 -1.12241 -0.986018 0
M  V30 3358 H 312.79 -0.816519 -4.13414 0
M  V30 3359 H 311.465 -0.0258854 -3.2369 0
M  V30 3360 H 310.372 -2.3231 -2.93228 0
M  V30 3361 H 311.705 -3.04102 -3.87018 0
M  V30 3362 N 313.357 1.07166 -1.15556 0
M  V30 3363 C 314.768 1.6127 -0.940693 0
M  V30 3364 C 315.119 1.89251 0.517551 0
M  V30 3365 O 314.244 1.65937 1.38903 0
M  V30 3366 C 314.839 2.92993 -1.7012 0
M  V30 3367 C 313.398 3.43832 -1.53156 0
M  V30 3368 C 312.545 2.1786 -1.71558 0
M  V30 3369 H 315.496 0.90229 -1.30554 0
M  V30 3370 H 315.517 3.62007 -1.17181 0
M  V30 3371 H 315.029 2.72596 -2.76248 0
M  V30 3372 H 313.13 3.69307 -0.494294 0
M  V30 3373 H 313.243 4.19747 -2.30975 0
M  V30 3374 H 311.607 2.2765 -1.14225 0
M  V30 3375 H 312.39 1.99956 -2.79056 0
M  V30 3376 N 314.835 0.952656 1.25548 0
M  V30 3377 C 315.798 0.475794 2.24207 0
M  V30 3378 C 316.798 -0.419428 1.55234 0
M  V30 3379 O 317.988 -0.216994 1.72843 0
M  V30 3380 C 315.12 -0.312814 3.39462 0
M  V30 3381 H 316.313 1.34779 2.67908 0
M  V30 3382 H 313.866 0.735739 1.37901 0
M  V30 3383 H 314.601 -1.20257 3.01179 0
M  V30 3384 H 314.386 0.329404 3.90714 0
M  V30 3385 H 315.876 -0.635986 4.12729 0
M  V30 3386 N 316.313 -1.40141 0.720998 0
M  V30 3387 C 317.541 -2.05096 0.272656 0
M  V30 3388 C 317.956 -1.54334 -1.0875 0
M  V30 3389 O 317.313 -0.702211 -1.6845 0
M  V30 3390 C 317.364 -3.60636 0.249835 0
M  V30 3391 O 317.085 -4.09526 1.55629 0
M  V30 3392 C 318.586 -4.42772 -0.216396 0
M  V30 3393 H 315.806 -0.659897 0.121558 0
M  V30 3394 H 318.35 -1.79449 0.980723 0
M  V30 3395 H 316.505 -3.85232 -0.409237 0
M  V30 3396 H 316.919 -5.03758 1.4604 0
M  V30 3397 H 318.393 -5.51702 -0.181212 0
M  V30 3398 H 318.87 -4.20756 -1.25941 0
M  V30 3399 H 319.476 -4.23294 0.412596 0
M  V30 3400 N 317.792 -0.46758 -1.50504 0
M  V30 3401 C 319.038 0.0808869 -2.03239 0
M  V30 3402 C 319.393 1.37721 -1.34353 0
M  V30 3403 O 318.686 1.86016 -0.459194 0
M  V30 3404 C 318.88 0.323995 -3.55928 0
M  V30 3405 C 318.709 -0.947215 -4.39611 0
M  V30 3406 C 317.479 -1.48951 -4.82848 0
M  V30 3407 C 319.677 -1.84166 -4.80195 0
M  V30 3408 N 317.659 -2.71011 -5.50842 0
M  V30 3409 C 319.03 -2.90815 -5.47564 0
M  V30 3410 C 321.085 -1.85246 -4.62156 0
M  V30 3411 C 319.788 -3.98529 -5.98805 0
M  V30 3412 C 321.814 -2.91914 -5.14335 0
M  V30 3413 C 321.176 -3.97282 -5.81676 0
M  V30 3414 H 317.275 -0.0103394 -0.781932 0
M  V30 3415 H 319.859 -0.635003 -1.84054 0
M  V30 3416 H 318.03 1.00892 -3.75067 0
M  V30 3417 H 319.762 0.866492 -3.95315 0
M  V30 3418 H 316.517 -1.03918 -4.62058 0
M  V30 3419 H 316.941 -3.32988 -5.89447 0
M  V30 3420 H 321.583 -1.05103 -4.09528 0
M  V30 3421 H 319.301 -4.79491 -6.50472 0
M  V30 3422 H 322.887 -2.93729 -5.0221 0
M  V30 3423 H 321.767 -4.78462 -6.21324 0
M  V30 3424 N 319.27 1.56325 -0.20005 0
M  V30 3425 C 320.203 2.15234 0.758267 0
M  V30 3426 C 321.181 1.09046 1.20614 0
M  V30 3427 O 322.365 1.37186 1.29276 0
M  V30 3428 C 319.492 2.71524 2.02466 0
M  V30 3429 C 318.538 3.90345 1.71852 0
M  V30 3430 S 319.371 5.28513 0.862249 0
M  V30 3431 C 320.527 5.88227 2.13868 0
M  V30 3432 H 320.76 2.96183 0.2575 0
M  V30 3433 H 318.293 1.54393 0.0150099 0
M  V30 3434 H 320.251 3.04598 2.75191 0
M  V30 3435 H 318.912 1.90607 2.49655 0
M  V30 3436 H 318.105 4.28158 2.65888 0
M  V30 3437 H 317.707 3.58306 1.07205 0
M  V30 3438 H 319.999 6.02891 3.09076 0
M  V30 3439 H 320.942 6.84714 1.80479 0
M  V30 3440 H 321.35 5.16874 2.2694 0
M  V30 3441 N 320.748 -0.0735177 1.57428 0
M  V30 3442 C 321.976 -0.785969 1.9139 0
M  V30 3443 C 322.391 -1.71207 0.795847 0
M  V30 3444 O 321.748 -1.81033 -0.230915 0
M  V30 3445 C 321.799 -1.58107 3.25091 0
M  V30 3446 O 321.52 -0.6922 4.32597 0
M  V30 3447 C 323.021 -2.39467 3.73055 0
M  V30 3448 H 320.241 -0.223558 0.632663 0
M  V30 3449 H 322.785 -0.044302 2.04452 0
M  V30 3450 H 320.94 -2.27503 3.13562 0
M  V30 3451 H 321.354 -1.24504 5.09508 0
M  V30 3452 H 322.828 -2.90716 4.69242 0
M  V30 3453 H 323.305 -3.18913 3.01979 0
M  V30 3454 H 323.911 -1.7523 3.87523 0
M  V30 3455 N 322.226 -1.5378 -0.344866 0
M  V30 3456 C 323.473 -1.70963 -1.08526 0
M  V30 3457 C 323.801 -0.472126 -1.88683 0
M  V30 3458 O 323.056 0.546116 -1.87926 0
M  V30 3459 C 323.355 -2.92407 -2.05506 0
M  V30 3460 C 323.021 -4.28066 -1.41671 0
M  V30 3461 C 321.683 -4.64951 -1.2399 0
M  V30 3462 C 324.035 -5.12344 -0.956726 0
M  V30 3463 C 321.363 -5.83733 -0.589277 0
M  V30 3464 C 323.715 -6.3179 -0.320015 0
M  V30 3465 C 322.379 -6.67372 -0.130881 0
M  V30 3466 H 321.649 -0.625598 -0.397124 0
M  V30 3467 H 324.296 -1.87995 -0.36469 0
M  V30 3468 H 322.601 -2.69973 -2.8394 0
M  V30 3469 H 324.298 -3.02895 -2.62784 0
M  V30 3470 H 320.888 -3.99034 -1.56429 0
M  V30 3471 H 325.072 -4.8438 -1.08118 0
M  V30 3472 H 320.328 -6.09877 -0.431344 0
M  V30 3473 H 324.502 -6.96386 0.0445072 0
M  V30 3474 H 322.129 -7.59273 0.375318 0
M  V30 3475 N 323.704 0.605807 -1.45491 0
M  V30 3476 C 324.634 1.72709 -1.57143 0
M  V30 3477 C 325.615 1.6476 -0.422884 0
M  V30 3478 O 326.8 1.83132 -0.646247 0
M  V30 3479 C 323.93 3.11316 -1.53948 0
M  V30 3480 C 322.884 3.34077 -2.67537 0
M  V30 3481 C 322.21 4.72975 -2.49397 0
M  V30 3482 C 323.51 3.24158 -4.09535 0
M  V30 3483 H 325.204 1.63214 -2.51001 0
M  V30 3484 H 322.75 0.78379 -1.208 0
M  V30 3485 H 324.703 3.89557 -1.60696 0
M  V30 3486 H 323.427 3.21655 -0.566205 0
M  V30 3487 H 322.086 2.58227 -2.6022 0
M  V30 3488 H 321.734 4.8005 -1.50205 0
M  V30 3489 H 321.434 4.8916 -3.25571 0
M  V30 3490 H 322.958 5.53414 -2.58002 0
M  V30 3491 H 324.372 3.92271 -4.18086 0
M  V30 3492 H 322.769 3.51872 -4.86113 0
M  V30 3493 H 323.839 2.2157 -4.31317 0
M  V30 3494 N 325.182 1.32811 0.848464 0
M  V30 3495 C 326.431 1.23075 1.59798 0
M  V30 3496 C 326.744 -0.204419 1.94529 0
M  V30 3497 O 327.95 -0.423701 2.68173 0
M  V30 3498 C 326.406 2.15594 2.88179 0
M  V30 3499 C 326.014 3.64228 2.60849 0
M  V30 3500 C 327.758 2.14709 3.66197 0
M  V30 3501 C 325.665 4.48689 3.85269 0
M  V30 3502 H 324.595 0.457091 0.599653 0
M  V30 3503 H 327.246 1.57813 0.936342 0
M  V30 3504 H 325.628 1.73778 3.55833 0
M  V30 3505 H 326.802 4.14424 2.01467 0
M  V30 3506 H 325.117 3.67306 1.96151 0
M  V30 3507 H 327.714 2.75046 4.58534 0
M  V30 3508 H 328.057 1.13966 4.00397 0
M  V30 3509 H 328.59 2.54837 3.05455 0
M  V30 3510 H 325.329 5.5027 3.56207 0
M  V30 3511 H 324.849 4.03241 4.44024 0
M  V30 3512 H 326.528 4.62006 4.52946 0
M  V30 3513 N 326.66 -1.06551 1.16123 0
M  V30 3514 C 327.885 -1.83544 0.965735 0
M  V30 3515 C 328.31 -1.81843 -0.481102 0
M  V30 3516 O 327.668 -1.21732 -1.34354 0
M  V30 3517 C 327.716 -3.28169 1.49457 0
M  V30 3518 O 326.82 -4.0643 0.699157 0
M  V30 3519 H 326.161 -0.568026 0.343864 0
M  V30 3520 H 328.691 -1.34362 1.54299 0
M  V30 3521 H 328.701 -3.78992 1.51092 0
M  V30 3522 H 327.376 -3.28722 2.54784 0
M  V30 3523 H 325.953 -3.65216 0.7531 0
M  V30 3524 N 328.138 -0.959301 -1.25041 0
M  V30 3525 C 329.368 -0.63303 -1.96663 0
M  V30 3526 C 329.776 0.800031 -1.71453 0
M  V30 3527 O 329.119 1.54736 -0.99008 0
M  V30 3528 C 329.181 -0.817523 -3.50081 0
M  V30 3529 C 328.845 -2.22863 -3.98975 0
M  V30 3530 C 329.842 -3.20569 -4.09306 0
M  V30 3531 C 327.527 -2.55407 -4.32519 0
M  V30 3532 C 329.521 -4.4891 -4.52503 0
M  V30 3533 C 327.208 -3.83976 -4.754 0
M  V30 3534 C 328.206 -4.8054 -4.85356 0
M  V30 3535 O 327.894 -6.06817 -5.27284 0
M  V30 3536 H 327.626 -0.235866 -0.633516 0
M  V30 3537 H 330.18 -1.2874 -1.60047 0
M  V30 3538 H 328.41 -0.105992 -3.86555 0
M  V30 3539 H 330.099 -0.491604 -4.02912 0
M  V30 3540 H 330.865 -2.96753 -3.83618 0
M  V30 3541 H 326.744 -1.8097 -4.23994 0
M  V30 3542 H 330.288 -5.24283 -4.60188 0
M  V30 3543 H 326.185 -4.07596 -5.00535 0
M  V30 3544 H 326.953 -6.10262 -5.45457 0
M  V30 3545 N 329.616 1.39756 -0.72842 0
M  V30 3546 C 330.862 2.01425 -0.282761 0
M  V30 3547 C 331.217 1.56754 1.11561 0
M  V30 3548 O 330.51 0.783482 1.74849 0
M  V30 3549 C 330.704 3.56002 -0.315776 0
M  V30 3550 C 330.533 4.1568 -1.71582 0
M  V30 3551 C 329.303 4.48555 -2.32651 0
M  V30 3552 C 331.501 4.39667 -2.66829 0
M  V30 3553 N 329.483 4.93698 -3.64877 0
M  V30 3554 C 330.854 4.86942 -3.8378 0
M  V30 3555 C 332.909 4.21724 -2.64675 0
M  V30 3556 C 331.612 5.18158 -4.98904 0
M  V30 3557 C 333.638 4.54049 -3.78937 0
M  V30 3558 C 333 5.01525 -4.94623 0
M  V30 3559 H 329.099 0.76756 -0.149583 0
M  V30 3560 H 331.683 1.69784 -0.952976 0
M  V30 3561 H 329.854 3.87046 0.324057 0
M  V30 3562 H 331.586 4.0443 0.147808 0
M  V30 3563 H 328.341 4.36128 -1.84633 0
M  V30 3564 H 328.765 5.20635 -4.32744 0
M  V30 3565 H 333.407 3.84228 -1.76433 0
M  V30 3566 H 331.125 5.54562 -5.87781 0
M  V30 3567 H 334.711 4.41795 -3.78561 0
M  V30 3568 H 333.591 5.26065 -5.81572 0
M  V30 3569 N 331.094 0.475555 1.50254 0
M  V30 3570 C 332.342 -0.077738 2.0195 0
M  V30 3571 C 332.663 -1.39813 1.35931 0
M  V30 3572 O 331.933 -1.89249 0.506123 0
M  V30 3573 H 330.513 -0.031719 0.746326 0
M  V30 3574 H 333.175 0.626995 1.84539 0
M  V30 3575 H 332.271 -0.225995 3.11281 0
M  V30 3576 N 332.573 -1.56217 0.208337 0
M  V30 3577 C 333.483 -2.23316 -0.718836 0
M  V30 3578 C 334.499 -1.23648 -1.22422 0
M  V30 3579 O 335.675 -1.56423 -1.26861 0
M  V30 3580 C 332.74 -2.88968 -1.91568 0
M  V30 3581 C 331.801 -4.03943 -1.45357 0
M  V30 3582 C 331.034 -4.66455 -2.59337 0
M  V30 3583 O 331.257 -4.27919 -3.77149 0
M  V30 3584 O 330.191 -5.55686 -2.31293 0
M  V30 3585 H 334.017 -3.03182 -0.177315 0
M  V30 3586 H 331.602 -1.49384 -0.0215402 0
M  V30 3587 H 333.484 -3.30455 -2.61491 0
M  V30 3588 H 332.159 -2.12071 -2.44556 0
M  V30 3589 H 331.066 -3.67052 -0.722746 0
M  V30 3590 H 332.399 -4.82543 -0.970219 0
M  V30 3591 N 334.051 0.0651679 -1.57465 0
M  V30 3592 C 334.983 1.10359 -2.00882 0
M  V30 3593 C 335.996 1.346 -0.915788 0
M  V30 3594 O 337.185 1.32723 -1.1936 0
M  V30 3595 C 334.285 2.45312 -2.33828 0
M  V30 3596 C 333.458 2.40934 -3.65061 0
M  V30 3597 C 332.517 3.58047 -3.85602 0
M  V30 3598 O 331.543 3.39175 -4.57109 0
M  V30 3599 N 332.745 4.78637 -3.28462 0
M  V30 3600 H 335.51 0.733807 -2.90578 0
M  V30 3601 H 333.071 0.253719 -1.599 0
M  V30 3602 H 335.063 3.22314 -2.44737 0
M  V30 3603 H 333.633 2.74267 -1.49988 0
M  V30 3604 H 332.853 1.49273 -3.64844 0
M  V30 3605 H 334.141 2.35117 -4.51218 0
M  V30 3606 H 333.539 4.96872 -2.70433 0
M  V30 3607 H 332.096 5.53127 -3.44809 0
M  V30 3608 N 335.529 1.53961 0.336706 0
M  V30 3609 C 336.778 1.70751 1.07363 0
M  V30 3610 C 337.091 0.481061 1.89592 0
M  V30 3611 O 338.297 0.530046 2.66276 0
M  V30 3612 C 336.753 3.01965 1.95818 0
M  V30 3613 C 336.361 4.31971 1.18764 0
M  V30 3614 C 338.105 3.28121 2.69327 0
M  V30 3615 C 336.012 5.54255 2.06289 0
M  V30 3616 H 334.942 0.636292 0.404535 0
M  V30 3617 H 337.593 1.80459 0.332681 0
M  V30 3618 H 335.975 2.86132 2.7376 0
M  V30 3619 H 337.149 4.5853 0.456849 0
M  V30 3620 H 335.464 4.12481 0.569946 0
M  V30 3621 H 338.061 4.16673 3.35094 0
M  V30 3622 H 338.404 2.45426 3.36261 0
M  V30 3623 H 338.937 3.44762 1.98454 0
M  V30 3624 H 335.676 6.39513 1.43885 0
M  V30 3625 H 335.196 5.31935 2.77138 0
M  V30 3626 H 336.875 5.90159 2.65182 0
M  V30 3627 N 337.007 -0.598083 1.45811 0
M  V30 3628 C 338.255 -1.35413 1.50026 0
M  V30 3629 C 338.576 -1.94444 0.147177 0
M  V30 3630 O 337.846 -1.77701 -0.824571 0
M  V30 3631 H 336.426 -0.502727 0.552517 0
M  V30 3632 H 339.088 -0.701606 1.81834 0
M  V30 3633 H 338.184 -2.16871 2.2444 0
M  V30 3634 N 338.485 -1.33259 -0.841409 0
M  V30 3635 C 339.417 -1.19136 -1.95804 0
M  V30 3636 C 340.43 -0.122965 -1.62335 0
M  V30 3637 O 341.619 -0.373154 -1.74556 0
M  V30 3638 C 338.719 -0.804268 -3.29218 0
M  V30 3639 C 337.892 -1.96376 -3.90839 0
M  V30 3640 C 336.951 -1.55806 -5.02604 0
M  V30 3641 O 335.977 -2.27203 -5.21888 0
M  V30 3642 N 337.179 -0.461609 -5.78662 0
M  V30 3643 H 339.944 -2.15326 -2.08458 0
M  V30 3644 H 337.505 -1.25971 -1.017 0
M  V30 3645 H 339.497 -0.51501 -4.0141 0
M  V30 3646 H 338.067 0.0668809 -3.12528 0
M  V30 3647 H 337.287 -2.41879 -3.11269 0
M  V30 3648 H 338.575 -2.73966 -4.28742 0
M  V30 3649 H 337.973 0.132343 -5.65545 0
M  V30 3650 H 336.53 -0.232013 -6.51387 0
M  V30 3651 N 339.963 1.05934 -1.16686 0
M  V30 3652 C 340.91 2.13499 -0.876748 0
M  V30 3653 C 341.88 1.65162 0.176299 0
M  V30 3654 O 343.065 1.90757 0.0407143 0
M  V30 3655 C 340.205 3.42912 -0.387967 0
M  V30 3656 C 339.318 4.04964 -1.50426 0
M  V30 3657 C 338.453 5.22266 -0.970125 0
M  V30 3658 C 337.492 5.76309 -2.06238 0
M  V30 3659 N 336.629 6.84922 -1.54356 0
M  V30 3660 H 341.469 2.37654 -1.7979 0
M  V30 3661 H 339.006 1.16598 -0.896843 0
M  V30 3662 H 340.964 4.17111 -0.086186 0
M  V30 3663 H 339.594 3.18963 0.496235 0
M  V30 3664 H 338.646 3.28277 -1.92193 0
M  V30 3665 H 339.958 4.41122 -2.32836 0
M  V30 3666 H 339.112 6.03506 -0.621743 0
M  V30 3667 H 337.851 4.87564 -0.115377 0
M  V30 3668 H 336.856 4.93704 -2.41942 0
M  V30 3669 H 338.081 6.13062 -2.92115 0
M  V30 3670 H 336.027 6.52131 -0.711406 0
M  V30 3671 H 335.944 7.20043 -2.30379 0
M  V30 3672 H 337.212 7.69832 -1.22387 0
M  V30 3673 N 341.441 0.965919 1.2453 0
M  V30 3674 C 342.69 0.622437 1.91856 0
M  V30 3675 C 343.003 -0.846006 1.76358 0
M  V30 3676 O 344.209 -1.29993 2.38357 0
M  V30 3677 C 342.665 1.0626 3.43856 0
M  V30 3678 C 342.273 2.55437 3.68043 0
M  V30 3679 C 344.017 0.792183 4.17043 0
M  V30 3680 C 341.924 2.93196 5.13605 0
M  V30 3681 H 340.854 0.229092 0.718354 0
M  V30 3682 H 343.505 1.17189 1.41206 0
M  V30 3683 H 341.887 0.441476 3.93531 0
M  V30 3684 H 343.061 3.22665 3.28974 0
M  V30 3685 H 341.376 2.8007 3.08139 0
M  V30 3686 H 343.973 1.05031 5.24283 0
M  V30 3687 H 344.316 -0.271584 4.15413 0
M  V30 3688 H 344.849 1.37419 3.73311 0
M  V30 3689 H 341.588 3.98636 5.20355 0
M  V30 3690 H 341.108 2.30651 5.53679 0
M  V30 3691 H 342.787 2.83004 5.81823 0
M  V30 3692 N 342.919 -1.39368 0.735821 0
M  V30 3693 C 344.335 -1.54204 0.411492 0
M  V30 3694 C 344.535 -1.70268 -1.07755 0
M  V30 3695 O 343.591 -1.70364 -1.86366 0
M  V30 3696 C 344.904 -2.75925 1.19523 0
M  V30 3697 C 346.452 -2.89761 1.18354 0
M  V30 3698 C 346.927 -4.14421 1.94986 0
M  V30 3699 N 348.418 -4.21462 1.92156 0
M  V30 3700 C 349.153 -5.16871 2.48258 0
M  V30 3701 N 348.649 -6.18063 3.13001 0
M  V30 3702 N 350.442 -5.09093 2.38287 0
M  V30 3703 H 342.593 -1.27189 1.70108 0
M  V30 3704 H 344.856 -0.616517 0.720147 0
M  V30 3705 H 344.562 -2.70401 2.24892 0
M  V30 3706 H 344.436 -3.68614 0.800222 0
M  V30 3707 H 346.823 -2.94777 0.137975 0
M  V30 3708 H 346.904 -1.98133 1.61793 0
M  V30 3709 H 346.548 -4.10166 2.99543 0
M  V30 3710 H 346.478 -5.05095 1.48953 0
M  V30 3711 H 348.969 -3.48979 1.44991 0
M  V30 3712 H 349.282 -6.87326 3.53275 0
M  V30 3713 H 347.627 -6.18448 3.17091 0
M  V30 3714 H 350.818 -4.28973 1.8735 0
M  V30 3715 H 350.991 -5.83272 2.82308 0
M  V30 3716 N 344.397 -0.483516 -1.5 0
M  V30 3717 C 345.344 0.304164 -2.28787 0
M  V30 3718 C 346.314 0.976114 -1.34392 0
M  V30 3719 O 347.499 0.986156 -1.63339 0
M  V30 3720 C 344.639 1.37298 -3.16612 0
M  V30 3721 C 343.752 0.714561 -4.26049 0
M  V30 3722 C 342.887 1.76232 -5.01114 0
M  V30 3723 C 341.926 1.08483 -6.0241 0
M  V30 3724 N 341.063 2.076 -6.70706 0
M  V30 3725 H 345.903 -0.373981 -2.95644 0
M  V30 3726 H 343.44 -0.196275 -1.45785 0
M  V30 3727 H 345.398 2.00445 -3.65893 0
M  V30 3728 H 344.028 2.02012 -2.51776 0
M  V30 3729 H 343.08 -0.0297798 -3.80388 0
M  V30 3730 H 344.392 0.180383 -4.98474 0
M  V30 3731 H 343.546 2.46929 -5.54176 0
M  V30 3732 H 342.285 2.33033 -4.28424 0
M  V30 3733 H 341.29 0.363545 -5.48597 0
M  V30 3734 H 342.515 0.523551 -6.77079 0
M  V30 3735 H 340.461 2.63394 -6.00799 0
M  V30 3736 H 340.378 1.59201 -7.39047 0
M  V30 3737 H 341.646 2.77639 -7.2838 0
M  V30 3738 N 345.875 1.56104 -0.216619 0
M  V30 3739 C 347.124 1.97348 0.416744 0
M  V30 3740 C 347.437 1.10715 1.6125 0
M  V30 3741 O 348.643 1.41836 2.31506 0
M  V30 3742 C 347.099 3.51059 0.792835 0
M  V30 3743 C 346.707 4.46387 -0.379828 0
M  V30 3744 C 348.451 4.01026 1.39208 0
M  V30 3745 C 346.358 5.91397 0.0184223 0
M  V30 3746 H 345.288 0.736942 0.159475 0
M  V30 3747 H 347.939 1.80827 -0.31205 0
M  V30 3748 H 346.321 3.63162 1.57891 0
M  V30 3749 H 347.495 4.46029 -1.15737 0
M  V30 3750 H 345.81 4.06734 -0.891979 0
M  V30 3751 H 348.407 5.0686 1.70286 0
M  V30 3752 H 348.75 3.46587 2.30614 0
M  V30 3753 H 349.283 3.92125 0.669537 0
M  V30 3754 H 346.022 6.49807 -0.862002 0
M  V30 3755 H 345.542 5.94961 0.760384 0
M  V30 3756 H 347.221 6.45455 0.446818 0
M  V30 3757 N 347.353 -0.0568162 1.57498 0
M  V30 3758 C 348.581 -0.765626 1.92213 0
M  V30 3759 C 348.996 -1.70353 0.813961 0
M  V30 3760 O 348.353 -1.81268 -0.211701 0
M  V30 3761 C 348.404 -1.5465 3.2675 0
M  V30 3762 O 348.125 -0.646278 4.33307 0
M  V30 3763 C 349.626 -2.35497 3.75574 0
M  V30 3764 H 346.846 -0.216835 0.634999 0
M  V30 3765 H 349.39 -0.0226146 2.04487 0
M  V30 3766 H 347.545 -2.24165 3.15957 0
M  V30 3767 H 347.959 -1.19093 5.108 0
M  V30 3768 H 349.433 -2.85722 4.72299 0
M  V30 3769 H 349.91 -3.15692 3.05344 0
M  V30 3770 H 350.516 -1.7111 3.8936 0
M  V30 3771 N 348.832 -1.54138 -0.328536 0
M  V30 3772 C 350.109 -1.62749 -1.08499 0
M  V30 3773 C 350.489 -0.458198 -2.06067 0
M  V30 3774 O 349.837 0.548046 -2.2183 0
M  V30 3775 C 350.047 -2.99519 -1.79135 0
M  V30 3776 C 351.395 -3.55394 -2.32337 0
M  V30 3777 O 352.419 -3.01792 -1.89209 0
M  V30 3778 O 351.278 -4.49186 -3.11279 0
M  V30 3779 H 348.372 -0.65886 -0.499832 0
M  V30 3780 H 350.918 -1.66484 -0.328826 0
M  V30 3781 H 349.69 -3.76061 -1.08139 0
M  V30 3782 H 349.313 -2.99441 -2.61574 0
M  V30 3783 N 350.31 0.590341 -1.46126 0
M  V30 3784 C 351.55 1.35995 -1.52593 0
M  V30 3785 C 351.914 1.91243 -0.170368 0
M  V30 3786 O 353.115 2.68576 -0.109775 0
M  V30 3787 C 351.386 2.46465 -2.58823 0
M  V30 3788 S 352.945 3.33953 -2.84641 0
M  V30 3789 H 349.763 0.463425 -0.53922 0
M  V30 3790 H 352.365 0.67944 -1.83314 0
M  V30 3791 H 351.069 2.04256 -3.5596 0
M  V30 3792 H 350.6 3.19297 -2.2981 0
M  V30 3793 H 352.615 4.45094 -2.19331 0
M  V30 3794 N 351.788 1.33704 0.83433 0
M  V30 3795 C 353.035 1.25417 1.58987 0
M  V30 3796 C 353.363 -0.178869 1.93676 0
M  V30 3797 O 352.618 -1.13723 1.59265 0
M  V30 3798 C 352.917 2.07926 2.90692 0
M  V30 3799 C 352.583 3.57066 2.75345 0
M  V30 3800 C 351.245 3.97724 2.70867 0
M  V30 3801 C 353.597 4.51817 2.59828 0
M  V30 3802 C 350.925 5.31344 2.48778 0
M  V30 3803 C 353.277 5.85604 2.39272 0
M  V30 3804 C 351.941 6.25439 2.33199 0
M  V30 3805 H 351.211 0.458934 0.581774 0
M  V30 3806 H 353.858 1.65335 0.966261 0
M  V30 3807 H 352.163 1.608 3.57282 0
M  V30 3808 H 353.86 1.98868 3.48213 0
M  V30 3809 H 350.45 3.24785 2.79665 0
M  V30 3810 H 354.634 4.21311 2.62319 0
M  V30 3811 H 349.89 5.61241 2.42526 0
M  V30 3812 H 354.064 6.58623 2.2625 0
M  V30 3813 H 351.691 7.28914 2.15843 0
M  V30 3814 N 353.266 -1.05314 1.17247 0
M  V30 3815 C 354.216 -2.11313 0.856196 0
M  V30 3816 C 355.2 -1.60013 -0.168694 0
M  V30 3817 O 356.392 -1.76968 0.0335624 0
M  V30 3818 C 353.521 -3.41301 0.369917 0
M  V30 3819 C 352.607 -3.99401 1.42616 0
M  V30 3820 N 352.998 -4.31481 2.63928 0
M  V30 3821 C 351.296 -4.27126 1.28373 0
M  V30 3822 C 351.997 -4.77799 3.31787 0
M  V30 3823 N 350.973 -4.77843 2.59166 0
M  V30 3824 H 354.775 -2.33976 1.77856 0
M  V30 3825 H 352.289 -1.2295 1.06099 0
M  V30 3826 H 354.286 -4.16713 0.124897 0
M  V30 3827 H 352.946 -3.20072 -0.546253 0
M  V30 3828 H 353.957 -4.21519 3.00902 0
M  V30 3829 H 350.634 -4.15289 0.429111 0
M  V30 3830 H 352.024 -5.11743 4.35395 0
M  V30 3831 N 354.744 -0.972509 -1.24016 0
M  V30 3832 C 355.984 -0.644951 -1.93958 0
M  V30 3833 C 356.348 0.80559 -1.74282 0
M  V30 3834 O 357.549 1.2436 -2.38302 0
M  V30 3835 C 355.82 -1.01521 -3.42678 0
M  V30 3836 S 357.379 -0.802927 -4.31391 0
M  V30 3837 H 354.197 -0.236452 -0.670531 0
M  V30 3838 H 356.799 -1.25048 -1.50277 0
M  V30 3839 H 355.503 -2.06769 -3.54506 0
M  V30 3840 H 355.034 -0.400648 -3.91355 0
M  V30 3841 H 357.049 0.317256 -4.95185 0
M  V30 3842 N 356.222 1.38976 -0.743202 0
M  V30 3843 C 357.172 2.27843 -0.084513 0
M  V30 3844 C 358.156 1.44677 0.704094 0
M  V30 3845 O 359.348 1.67511 0.571755 0
M  V30 3846 C 356.477 3.33466 0.815781 0
M  V30 3847 C 355.563 4.24095 0.0208844 0
M  V30 3848 N 355.954 4.95609 -1.0102 0
M  V30 3849 C 354.252 4.45303 0.249293 0
M  V30 3850 C 354.953 5.62287 -1.49024 0
M  V30 3851 N 353.929 5.37571 -0.807377 0
M  V30 3852 H 357.731 2.80593 -0.87436 0
M  V30 3853 H 355.245 1.51755 -0.578283 0
M  V30 3854 H 357.242 3.96008 1.30321 0
M  V30 3855 H 355.902 2.82276 1.6047 0
M  V30 3856 H 356.913 4.98849 -1.39176 0
M  V30 3857 H 353.59 4.0504 1.01237 0
M  V30 3858 H 354.98 6.29519 -2.34853 0
M  V30 3859 N 357.7 0.491464 1.49741 0
M  V30 3860 C 358.946 -0.0565092 2.02721 0
M  V30 3861 C 359.279 -1.37522 1.37118 0
M  V30 3862 O 358.554 -1.87866 0.503645 0
M  V30 3863 C 358.837 -0.219051 3.59433 0
M  V30 3864 C 358.69 1.12211 4.35579 0
M  V30 3865 C 360.009 -0.964157 4.29409 0
M  V30 3866 H 357.128 -0.0190627 0.736753 0
M  V30 3867 H 359.77 0.641021 1.7886 0
M  V30 3868 H 357.92 -0.813165 3.79895 0
M  V30 3869 H 359.592 1.75437 4.26637 0
M  V30 3870 H 357.835 1.71377 3.98513 0
M  V30 3871 H 358.506 0.961794 5.43556 0
M  V30 3872 H 360.982 -0.460378 4.13545 0
M  V30 3873 H 359.858 -1.04671 5.38828 0
M  V30 3874 H 360.119 -2.00563 3.93988 0
M  V30 3875 N 359.178 -1.55987 0.224894 0
M  V30 3876 C 360.425 -1.9839 -0.4059 0
M  V30 3877 C 360.753 -1.11261 -1.59535 0
M  V30 3878 O 360.008 -0.158314 -1.95059 0
M  V30 3879 C 360.307 -3.46394 -0.880106 0
M  V30 3880 C 359.973 -4.5046 0.19918 0
M  V30 3881 C 358.635 -4.7864 0.495661 0
M  V30 3882 C 360.987 -5.12855 0.928939 0
M  V30 3883 C 358.315 -5.66497 1.52636 0
M  V30 3884 C 360.667 -6.01828 1.949 0
M  V30 3885 C 359.331 -6.28351 2.25236 0
M  V30 3886 H 358.601 -0.725961 -0.148529 0
M  V30 3887 H 361.248 -1.88668 0.328113 0
M  V30 3888 H 359.553 -3.53337 -1.69294 0
M  V30 3889 H 361.25 -3.76577 -1.37808 0
M  V30 3890 H 357.84 -4.28579 -0.0420526 0
M  V30 3891 H 362.024 -4.9115 0.713129 0
M  V30 3892 H 357.28 -5.8531 1.76698 0
M  V30 3893 H 361.454 -6.49225 2.51951 0
M  V30 3894 H 359.081 -6.96226 3.05244 0
M  V30 3895 N 360.656 0.0484629 -1.57525 0
M  V30 3896 C 362.067 0.597486 -1.76881 0
M  V30 3897 C 362.418 1.76664 -0.853475 0
M  V30 3898 O 361.543 2.16357 -0.0433656 0
M  V30 3899 C 362.138 1.09066 -3.20765 0
M  V30 3900 C 360.697 1.58535 -3.41385 0
M  V30 3901 C 359.844 0.514868 -2.72478 0
M  V30 3902 H 362.795 -0.177758 -1.57701 0
M  V30 3903 H 362.816 1.95875 -3.2621 0
M  V30 3904 H 362.328 0.239521 -3.8736 0
M  V30 3905 H 360.429 2.45898 -2.79937 0
M  V30 3906 H 360.542 1.64622 -4.49929 0
M  V30 3907 H 358.906 0.965407 -2.35695 0
M  V30 3908 H 359.689 -0.32648 -3.41744 0
M  V30 3909 N 362.134 1.5431 0.320358 0
M  V30 3910 C 363.381 1.72668 1.05792 0
M  V30 3911 C 363.709 0.502084 1.87908 0
M  V30 3912 O 362.964 -0.516149 1.88771 0
M  V30 3913 C 363.263 2.95639 2.00828 0
M  V30 3914 C 362.929 4.30265 1.34843 0
M  V30 3915 C 361.591 4.66865 1.16578 0
M  V30 3916 C 363.943 5.13801 0.875095 0
M  V30 3917 C 361.271 5.84597 0.496336 0
M  V30 3918 C 363.623 6.32219 0.219463 0
M  V30 3919 C 362.287 6.67495 0.0246915 0
M  V30 3920 H 361.557 0.631837 0.387121 0
M  V30 3921 H 364.204 1.88552 0.334735 0
M  V30 3922 H 362.509 2.74456 2.79609 0
M  V30 3923 H 364.206 3.07038 2.57932 0
M  V30 3924 H 360.796 4.01472 1.50061 0
M  V30 3925 H 364.98 4.86039 1.00398 0
M  V30 3926 H 360.236 6.10486 0.334264 0
M  V30 3927 H 364.41 6.96227 -0.155291 0
M  V30 3928 H 362.037 7.5858 -0.496065 0
M  V30 3929 N 363.613 -0.582584 1.46437 0
M  V30 3930 C 364.543 -1.70187 1.59871 0
M  V30 3931 C 365.524 -1.64066 0.449042 0
M  V30 3932 O 366.709 -1.82081 0.6753 0
M  V30 3933 C 363.839 -3.08827 1.58881 0
M  V30 3934 C 362.793 -3.29779 2.72819 0
M  V30 3935 C 362.119 -4.68947 2.5689 0
M  V30 3936 C 363.419 -3.17601 4.1464 0
M  V30 3937 H 365.113 -1.592 2.53566 0
M  V30 3938 H 362.659 -0.764472 1.22032 0
M  V30 3939 H 364.612 -3.86951 1.66873 0
M  V30 3940 H 363.336 -3.20713 0.617306 0
M  V30 3941 H 361.995 -2.54054 2.64296 0
M  V30 3942 H 361.643 -4.77599 1.57823 0
M  V30 3943 H 361.343 -4.83919 3.33312 0
M  V30 3944 H 362.867 -5.4924 2.66773 0
M  V30 3945 H 364.281 -3.8557 4.24274 0
M  V30 3946 H 362.678 -3.44094 4.9165 0
M  V30 3947 H 363.748 -2.14681 4.34788 0
M  V30 3948 N 365.091 -1.34144 -0.827227 0
M  V30 3949 C 366.023 -1.21206 -1.9453 0
M  V30 3950 C 367.036 -0.140176 -1.62195 0
M  V30 3951 O 368.225 -0.391647 -1.7415 0
M  V30 3952 C 365.325 -0.839141 -3.28347 0
M  V30 3953 C 364.498 -2.0051 -3.88734 0
M  V30 3954 C 363.557 -1.61128 -5.00923 0
M  V30 3955 O 362.583 -2.32726 -5.19449 0
M  V30 3956 N 363.785 -0.522958 -5.7814 0
M  V30 3957 H 366.55 -2.17525 -2.06162 0
M  V30 3958 H 364.111 -1.27043 -1.00358 0
M  V30 3959 H 366.103 -0.557556 -4.00841 0
M  V30 3960 H 364.673 0.0337293 -3.12582 0
M  V30 3961 H 363.893 -2.45166 -3.08686 0
M  V30 3962 H 365.181 -2.78498 -4.25812 0
M  V30 3963 H 364.579 0.0723518 -5.65654 0
M  V30 3964 H 363.136 -0.301089 -6.51104 0
M  V30 3965 N 366.569 1.04691 -1.17803 0
M  V30 3966 C 367.501 2.12571 -0.857097 0
M  V30 3967 C 368.514 1.62174 0.142647 0
M  V30 3968 O 369.703 1.78301 -0.0843387 0
M  V30 3969 C 366.803 3.37915 -0.258216 0
M  V30 3970 C 365.976 4.1757 -1.30207 0
M  V30 3971 C 365.035 5.2125 -0.720029 0
M  V30 3972 O 364.061 5.51888 -1.39314 0
M  V30 3973 N 365.263 5.78466 0.485507 0
M  V30 3974 H 368.028 2.40698 -1.78562 0
M  V30 3975 H 365.589 1.20831 -1.07757 0
M  V30 3976 H 367.581 4.04442 0.144584 0
M  V30 3977 H 366.151 3.07281 0.574199 0
M  V30 3978 H 365.371 3.46458 -1.88043 0
M  V30 3979 H 366.659 4.67586 -2.00601 0
M  V30 3980 H 366.057 5.55866 1.05022 0
M  V30 3981 H 364.614 6.4649 0.830307 0
M  V30 3982 N 368.047 0.979072 1.23499 0
M  V30 3983 C 368.957 0.526431 2.28617 0
M  V30 3984 C 369.973 -0.418126 1.68901 0
M  V30 3985 O 371.149 -0.288372 1.99325 0
M  V30 3986 C 368.214 -0.165235 3.46306 0
M  V30 3987 C 367.275 0.82056 4.21385 0
M  V30 3988 C 366.508 0.161807 5.33455 0
M  V30 3989 O 366.731 -1.04742 5.60701 0
M  V30 3990 O 365.665 0.859708 5.95729 0
M  V30 3991 H 369.491 1.4006 2.69475 0
M  V30 3992 H 367.076 0.746643 1.29405 0
M  V30 3993 H 368.958 -0.553287 4.17752 0
M  V30 3994 H 367.633 -1.01419 3.07402 0
M  V30 3995 H 366.54 1.25929 3.52268 0
M  V30 3996 H 367.873 1.63828 4.64135 0
M  V30 3997 N 369.525 -1.3858 0.750561 0
M  V30 3998 C 370.435 -2.34278 0.122825 0
M  V30 3999 C 371.451 -1.59116 -0.704131 0
M  V30 4000 O 372.627 -1.91326 -0.628987 0
M  V30 4001 C 369.692 -3.38221 -0.762086 0
M  V30 4002 C 368.753 -4.29227 0.078896 0
M  V30 4003 C 367.986 -5.28205 -0.763874 0
M  V30 4004 O 368.209 -5.34112 -2.00201 0
M  V30 4005 O 367.143 -6.01618 -0.18428 0
M  V30 4006 H 370.969 -2.89649 0.913088 0
M  V30 4007 H 368.554 -1.40374 0.511417 0
M  V30 4008 H 370.436 -4.01872 -1.26793 0
M  V30 4009 H 369.111 -2.85211 -1.5309 0
M  V30 4010 H 368.018 -3.68747 0.630621 0
M  V30 4011 H 369.351 -4.85484 0.810289 0
M  V30 4012 N 371.003 -0.499398 -1.49478 0
M  V30 4013 C 371.966 0.268838 -2.27618 0
M  V30 4014 C 372.966 0.895383 -1.33565 0
M  V30 4015 O 374.156 0.760164 -1.56739 0
M  V30 4016 C 371.288 1.38559 -3.11471 0
M  V30 4017 H 372.481 -0.416812 -2.96989 0
M  V30 4018 H 370.034 -0.254313 -1.54217 0
M  V30 4019 H 370.769 2.10544 -2.46661 0
M  V30 4020 H 370.554 0.941797 -3.80621 0
M  V30 4021 H 372.044 1.92678 -3.70493 0
M  V30 4022 N 372.481 1.55866 -0.233164 0
M  V30 4023 C 373.897 1.59133 0.121988 0
M  V30 4024 C 374.097 1.25016 1.58029 0
M  V30 4025 O 373.153 0.990922 2.32243 0
M  V30 4026 C 374.466 2.99932 -0.214792 0
M  V30 4027 C 376.014 3.12601 -0.157971 0
M  V30 4028 C 376.489 4.55597 -0.46859 0
M  V30 4029 N 377.98 4.61305 -0.418585 0
M  V30 4030 C 378.715 5.69903 -0.63227 0
M  V30 4031 N 378.211 6.86819 -0.90835 0
M  V30 4032 N 380.004 5.59264 -0.563913 0
M  V30 4033 H 372.155 1.76315 -1.18434 0
M  V30 4034 H 374.418 0.820093 -0.475553 0
M  V30 4035 H 374.124 3.29588 -1.22739 0
M  V30 4036 H 373.998 3.74327 0.464691 0
M  V30 4037 H 376.385 2.82735 0.845283 0
M  V30 4038 H 376.466 2.40511 -0.871102 0
M  V30 4039 H 376.11 4.86182 -1.46934 0
M  V30 4040 H 376.04 5.25928 0.265865 0
M  V30 4041 H 378.531 3.77297 -0.213368 0
M  V30 4042 H 378.844 7.65507 -1.05919 0
M  V30 4043 H 377.189 6.88536 -0.945673 0
M  V30 4044 H 380.38 4.66802 -0.348372 0
M  V30 4045 H 380.553 6.43831 -0.733847 0
M  V30 4046 N 373.959 -0.0401083 1.57549 0
M  V30 4047 C 374.889 -1.04384 2.08869 0
M  V30 4048 C 375.87 -1.38407 0.988817 0
M  V30 4049 O 377.055 -1.47483 1.26342 0
M  V30 4050 C 374.185 -2.34808 2.55895 0
M  V30 4051 C 373.139 -2.15057 3.70047 0
M  V30 4052 C 372.465 -3.51145 4.03239 0
M  V30 4053 C 373.765 -1.54576 4.98902 0
M  V30 4054 H 375.459 -0.616666 2.92981 0
M  V30 4055 H 373.005 -0.295184 1.40942 0
M  V30 4056 H 374.958 -3.05346 2.90417 0
M  V30 4057 H 373.682 -2.79565 1.68853 0
M  V30 4058 H 372.341 -1.46954 3.35857 0
M  V30 4059 H 371.989 -3.93529 3.13279 0
M  V30 4060 H 371.689 -3.38758 4.80122 0
M  V30 4061 H 373.213 -4.23062 4.40285 0
M  V30 4062 H 374.627 -2.15017 5.31451 0
M  V30 4063 H 373.024 -1.52796 5.80322 0
M  V30 4064 H 374.094 -0.51039 4.82206 0
M  V30 4065 N 375.437 -1.54477 -0.31217 0
M  V30 4066 C 376.685 -1.72884 -1.04668 0
M  V30 4067 C 377.006 -0.511477 -1.88173 0
M  V30 4068 O 376.276 0.474407 -1.90069 0
M  V30 4069 H 374.856 -0.637461 -0.389425 0
M  V30 4070 H 377.518 -1.91807 -0.345852 0
M  V30 4071 H 376.614 -2.61334 -1.70619 0
M  V30 4072 N 376.915 0.57481 -1.46744 0
M  V30 4073 C 377.878 1.66533 -1.57478 0
M  V30 4074 C 378.878 1.54338 -0.451263 0
M  V30 4075 O 380.068 1.58814 -0.715813 0
M  V30 4076 C 377.2 3.05999 -1.50259 0
M  V30 4077 H 378.393 1.58372 -2.54673 0
M  V30 4078 H 375.946 0.793301 -1.34672 0
M  V30 4079 H 376.681 3.19709 -0.543725 0
M  V30 4080 H 376.466 3.16259 -2.31781 0
M  V30 4081 H 377.956 3.8537 -1.60872 0
M  V30 4082 N 378.394 1.34581 0.820102 0
M  V30 4083 C 379.324 1.29038 1.94606 0
M  V30 4084 C 380.305 0.1673 1.69275 0
M  V30 4085 O 381.49 0.360112 1.90832 0
M  V30 4086 C 378.62 1.04793 3.31113 0
M  V30 4087 C 377.574 2.13597 3.70891 0
M  V30 4088 C 376.9 1.74537 5.05412 0
M  V30 4089 C 378.2 3.55451 3.8269 0
M  V30 4090 H 379.894 2.23248 1.99501 0
M  V30 4091 H 377.44 1.0747 0.958449 0
M  V30 4092 H 379.393 0.995592 4.0947 0
M  V30 4093 H 378.117 0.0702565 3.26524 0
M  V30 4094 H 376.776 2.17905 2.9481 0
M  V30 4095 H 376.424 0.754226 4.97313 0
M  V30 4096 H 376.124 2.47361 5.32997 0
M  V30 4097 H 377.648 1.70803 5.86224 0
M  V30 4098 H 379.062 3.5354 4.51312 0
M  V30 4099 H 377.459 4.26922 4.21732 0
M  V30 4100 H 378.529 3.92587 2.84611 0
M  V30 4101 N 379.872 -1.04064 1.18357 0
M  V30 4102 C 380.804 -2.12114 0.868358 0
M  V30 4103 C 381.817 -1.62247 -0.134045 0
M  V30 4104 O 383.006 -1.78253 0.0937933 0
M  V30 4105 C 380.106 -3.37773 0.276132 0
M  V30 4106 C 379.279 -4.16874 1.3242 0
M  V30 4107 C 378.338 -5.20861 0.747662 0
M  V30 4108 O 377.364 -5.51141 1.42239 0
M  V30 4109 N 378.566 -5.78715 -0.454823 0
M  V30 4110 H 381.331 -2.39748 1.79836 0
M  V30 4111 H 378.892 -1.20258 1.08396 0
M  V30 4112 H 380.884 -4.04513 -0.123133 0
M  V30 4113 H 379.454 -3.07581 -0.557895 0
M  V30 4114 H 378.674 -3.45456 1.89878 0
M  V30 4115 H 379.962 -4.66516 2.03078 0
M  V30 4116 H 379.36 -5.56415 -1.02073 0
M  V30 4117 H 377.917 -6.46921 -0.79601 0
M  V30 4118 N 381.35 -0.985608 -1.22978 0
M  V30 4119 C 382.282 -0.488154 -2.23941 0
M  V30 4120 C 383.295 0.41282 -1.57479 0
M  V30 4121 O 384.484 0.216121 -1.77187 0
M  V30 4122 C 381.584 0.312611 -3.37455 0
M  V30 4123 C 380.757 -0.582741 -4.33501 0
M  V30 4124 C 379.816 0.165064 -5.25941 0
M  V30 4125 O 378.842 -0.447077 -5.67442 0
M  V30 4126 N 380.044 1.44953 -5.62111 0
M  V30 4127 H 382.809 -1.3563 -2.67254 0
M  V30 4128 H 380.37 -0.859477 -1.37203 0
M  V30 4129 H 382.362 0.821357 -3.96277 0
M  V30 4130 H 380.932 1.0818 -2.93285 0
M  V30 4131 H 380.152 -1.27225 -3.73105 0
M  V30 4132 H 381.44 -1.19275 -4.94622 0
M  V30 4133 H 380.838 1.9683 -5.30353 0
M  V30 4134 H 379.395 1.90361 -6.23383 0
M  V30 4135 N 382.828 1.3818 -0.7579 0
M  V30 4136 C 383.758 2.33027 -0.148597 0
M  V30 4137 C 384.739 1.55085 0.69875 0
M  V30 4138 O 385.924 1.83384 0.639053 0
M  V30 4139 C 383.054 3.3928 0.742034 0
M  V30 4140 C 382.008 4.28 -0.00291946 0
M  V30 4141 C 381.334 5.25146 1.00625 0
M  V30 4142 C 382.634 5.08938 -1.17385 0
M  V30 4143 H 384.328 2.84231 -0.940909 0
M  V30 4144 H 381.874 1.36659 -0.453908 0
M  V30 4145 H 383.827 4.046 1.17799 0
M  V30 4146 H 382.551 2.86569 1.56671 0
M  V30 4147 H 381.21 3.64192 -0.419504 0
M  V30 4148 H 380.858 4.68721 1.8251 0
M  V30 4149 H 380.558 5.85361 0.512428 0
M  V30 4150 H 382.082 5.93342 1.44143 0
M  V30 4151 H 383.496 5.67474 -0.815224 0
M  V30 4152 H 381.893 5.7841 -1.59882 0
M  V30 4153 H 382.963 4.42424 -1.98468 0
M  V30 4154 N 384.306 0.507319 1.49211 0
M  V30 4155 C 385.238 -0.304532 2.27168 0
M  V30 4156 C 386.251 -0.924956 1.33972 0
M  V30 4157 O 387.44 -0.807227 1.59205 0
M  V30 4158 C 384.54 -1.44431 3.06583 0
M  V30 4159 C 383.713 -0.930026 4.27398 0
M  V30 4160 C 382.772 -1.94817 4.88807 0
M  V30 4161 O 381.798 -1.51418 5.4869 0
M  V30 4162 N 383 -3.279 4.79022 0
M  V30 4163 H 385.765 0.36395 2.97482 0
M  V30 4164 H 383.326 0.340249 1.58284 0
M  V30 4165 H 385.318 -2.12311 3.44537 0
M  V30 4166 H 383.888 -2.01684 2.38835 0
M  V30 4167 H 383.108 -0.0759244 3.94127 0
M  V30 4168 H 384.396 -0.564932 5.05654 0
M  V30 4169 H 383.794 -3.65843 4.3148 0
M  V30 4170 H 382.351 -3.91476 5.21142 0
M  V30 4171 N 385.784 -1.5574 0.241426 0
M  V30 4172 C 386.716 -2.18469 -0.693091 0
M  V30 4173 C 387.729 -1.15942 -1.14286 0
M  V30 4174 O 388.918 -1.42832 -1.07058 0
M  V30 4175 C 386.018 -2.7696 -1.95311 0
M  V30 4176 C 385.191 -4.04853 -1.65568 0
M  V30 4177 C 384.25 -4.47715 -2.76474 0
M  V30 4178 O 383.276 -5.14205 -2.44094 0
M  V30 4179 N 384.478 -4.15044 -4.05855 0
M  V30 4180 H 387.243 -2.99292 -0.156388 0
M  V30 4181 H 384.804 -1.61784 0.0611752 0
M  V30 4182 H 386.796 -3.02594 -2.68736 0
M  V30 4183 H 385.366 -2.00326 -2.39975 0
M  V30 4184 H 384.586 -3.86865 -0.756886 0
M  V30 4185 H 385.874 -4.88246 -1.43153 0
M  V30 4186 H 385.272 -3.61654 -4.34998 0
M  V30 4187 H 383.829 -4.45526 -4.75762 0
M  V30 4188 N 387.262 0.0317525 -1.57568 0
M  V30 4189 C 388.194 1.06073 -2.03178 0
M  V30 4190 C 389.207 1.32627 -0.944132 0
M  V30 4191 O 390.396 1.30162 -1.22148 0
M  V30 4192 C 387.496 2.40297 -2.38978 0
M  V30 4193 C 386.669 2.33137 -3.70089 0
M  V30 4194 C 385.728 3.49787 -3.9311 0
M  V30 4195 O 384.754 3.29403 -4.64201 0
M  V30 4196 N 385.956 4.71562 -3.38541 0
M  V30 4197 H 388.721 0.672006 -2.92069 0
M  V30 4198 H 386.282 0.219745 -1.60402 0
M  V30 4199 H 388.274 3.1705 -2.51518 0
M  V30 4200 H 386.844 2.71024 -1.55771 0
M  V30 4201 H 386.064 1.415 -3.67928 0
M  V30 4202 H 387.352 2.25493 -4.56104 0
M  V30 4203 H 386.75 4.91024 -2.80912 0
M  V30 4204 H 385.307 5.45689 -3.56464 0
M  V30 4205 N 388.74 1.54641 0.303973 0
M  V30 4206 C 389.965 1.78092 1.06292 0
M  V30 4207 C 390.39 0.537342 1.80262 0
M  V30 4208 O 389.748 -0.511993 1.7392 0
M  V30 4209 C 389.796 2.98612 2.02147 0
M  V30 4210 O 388.9 2.71528 3.10397 0
M  V30 4211 H 388.241 0.589548 0.305497 0
M  V30 4212 H 390.771 2.01716 0.3423 0
M  V30 4213 H 390.781 3.265 2.44667 0
M  V30 4214 H 389.456 3.88785 1.47714 0
M  V30 4215 H 388.033 2.54648 2.72413 0
M  V30 4216 N 390.218 -0.567019 1.47046 0
M  V30 4217 C 391.15 -1.68985 1.54844 0
M  V30 4218 C 392.163 -1.56869 0.435431 0
M  V30 4219 O 393.352 -1.64006 0.70457 0
M  V30 4220 C 390.452 -3.07373 1.42742 0
M  V30 4221 C 389.625 -3.45339 2.6844 0
M  V30 4222 C 388.684 -4.62849 2.50314 0
M  V30 4223 O 387.71 -4.67922 3.24095 0
M  V30 4224 N 388.912 -5.58726 1.57499 0
M  V30 4225 H 391.677 -1.62745 2.51663 0
M  V30 4226 H 389.238 -0.753411 1.43302 0
M  V30 4227 H 391.23 -3.83803 1.28365 0
M  V30 4228 H 389.8 -3.07893 0.540445 0
M  V30 4229 H 389.02 -2.58455 2.97648 0
M  V30 4230 H 390.308 -3.67476 3.51907 0
M  V30 4231 H 389.706 -5.57376 0.966876 0
M  V30 4232 H 388.263 -6.34523 1.49078 0
M  V30 4233 N 391.696 -1.35014 -0.812953 0
M  V30 4234 C 392.606 -1.2951 -1.95613 0
M  V30 4235 C 393.622 -0.20107 -1.72834 0
M  V30 4236 O 394.798 -0.42932 -1.96771 0
M  V30 4237 C 391.863 -1.06033 -3.30088 0
M  V30 4238 C 390.924 -2.24688 -3.65805 0
M  V30 4239 C 390.157 -2.02322 -4.93864 0
M  V30 4240 O 390.38 -0.986464 -5.61805 0
M  V30 4241 O 389.314 -2.89525 -5.27692 0
M  V30 4242 H 393.14 -2.25705 -2.03202 0
M  V30 4243 H 390.725 -1.15321 -0.949811 0
M  V30 4244 H 392.607 -0.94763 -4.10607 0
M  V30 4245 H 391.282 -0.128852 -3.23443 0
M  V30 4246 H 390.189 -2.41521 -2.85689 0
M  V30 4247 H 391.522 -3.16261 -3.77147 0
M  V30 4248 N 393.175 1.03435 -1.18907 0
M  V30 4249 C 394.105 2.13503 -0.945448 0
M  V30 4250 C 395.086 1.69682 0.119189 0
M  V30 4251 O 396.271 1.94169 -0.034707 0
M  V30 4252 C 393.401 3.44004 -0.477316 0
M  V30 4253 C 392.355 4.0148 -1.48316 0
M  V30 4254 C 391.681 5.27537 -0.872311 0
M  V30 4255 C 392.981 4.36921 -2.86177 0
M  V30 4256 H 394.675 2.34141 -1.86597 0
M  V30 4257 H 392.221 1.12523 -0.898584 0
M  V30 4258 H 394.174 4.20372 -0.294204 0
M  V30 4259 H 392.898 3.23072 0.478786 0
M  V30 4260 H 391.557 3.27201 -1.65332 0
M  V30 4261 H 391.205 5.02917 0.0911752 0
M  V30 4262 H 390.905 5.66954 -1.54393 0
M  V30 4263 H 392.429 6.06576 -0.699871 0
M  V30 4264 H 393.843 5.04248 -2.72776 0
M  V30 4265 H 392.24 4.87405 -3.50081 0
M  V30 4266 H 393.31 3.46466 -3.39248 0
M  V30 4267 N 394.653 0.992116 1.22453 0
M  V30 4268 C 395.585 0.500024 2.23679 0
M  V30 4269 C 396.598 -0.404463 1.57696 0
M  V30 4270 O 397.787 -0.206722 1.77299 0
M  V30 4271 C 394.887 -0.294711 3.37616 0
M  V30 4272 C 394.06 0.605723 4.33186 0
M  V30 4273 C 393.119 -0.13717 5.26021 0
M  V30 4274 O 392.145 0.477164 5.67196 0
M  V30 4275 N 393.347 -1.4197 5.62872 0
M  V30 4276 H 396.112 1.37045 2.66531 0
M  V30 4277 H 393.673 0.866741 1.36745 0
M  V30 4278 H 395.665 -0.800329 3.96707 0
M  V30 4279 H 394.235 -1.06623 2.93854 0
M  V30 4280 H 393.455 1.29202 3.72425 0
M  V30 4281 H 394.743 1.21896 4.93983 0
M  V30 4282 H 394.141 -1.94015 5.31389 0
M  V30 4283 H 392.698 -1.87052 6.24383 0
M  V30 4284 N 396.131 -1.37776 0.765217 0
M  V30 4285 C 397.041 -2.34135 0.147666 0
M  V30 4286 C 398.057 -1.59854 -0.687215 0
M  V30 4287 O 399.233 -1.91983 -0.608659 0
M  V30 4288 C 396.298 -3.3901 -0.72617 0
M  V30 4289 C 395.359 -4.2912 0.124417 0
M  V30 4290 C 394.592 -5.28986 -0.707807 0
M  V30 4291 O 394.815 -5.36205 -1.94525 0
M  V30 4292 O 393.749 -6.01779 -0.12046 0
M  V30 4293 H 397.575 -2.88664 0.943758 0
M  V30 4294 H 395.16 -1.39824 0.526277 0
M  V30 4295 H 397.042 -4.03195 -1.22524 0
M  V30 4296 H 395.717 -2.86819 -1.50056 0
M  V30 4297 H 394.624 -3.68057 0.669696 0
M  V30 4298 H 395.957 -4.84598 0.861736 0
M  V30 4299 N 397.609 -0.515225 -1.4894 0
M  V30 4300 C 398.855 0.0242508 -2.02785 0
M  V30 4301 C 399.188 1.35323 -1.39289 0
M  V30 4302 O 398.463 1.87041 -0.533469 0
M  V30 4303 C 398.746 0.16184 -3.59736 0
M  V30 4304 C 398.599 -1.19127 -4.33738 0
M  V30 4305 C 399.918 0.895719 -4.30888 0
M  V30 4306 H 397.037 0.00733914 -0.736963 0
M  V30 4307 H 399.679 -0.669395 -1.77818 0
M  V30 4308 H 397.829 0.752624 -3.8114 0
M  V30 4309 H 399.501 -1.82202 -4.23792 0
M  V30 4310 H 397.744 -1.77695 -3.95736 0
M  V30 4311 H 398.415 -1.04815 -5.41957 0
M  V30 4312 H 400.891 0.394528 -4.14225 0
M  V30 4313 H 399.767 0.960859 -5.40425 0
M  V30 4314 H 400.028 1.9427 -3.97129 0
M  V30 4315 N 399.087 1.5561 -0.249682 0
M  V30 4316 C 400.017 2.24477 0.642826 0
M  V30 4317 C 400.998 1.22601 1.17911 0
M  V30 4318 O 402.183 1.5126 1.21795 0
M  V30 4319 C 399.313 2.94638 1.83863 0
M  V30 4320 C 398.267 4.03227 1.435 0
M  V30 4321 C 397.593 4.60828 2.71186 0
M  V30 4322 C 398.893 5.18796 0.604002 0
M  V30 4323 H 400.587 2.99321 0.0685625 0
M  V30 4324 H 398.133 1.43965 0.0315363 0
M  V30 4325 H 400.086 3.41517 2.46868 0
M  V30 4326 H 398.81 2.17287 2.43832 0
M  V30 4327 H 397.469 3.57121 0.828275 0
M  V30 4328 H 397.117 3.80174 3.29358 0
M  V30 4329 H 396.817 5.34132 2.44901 0
M  V30 4330 H 398.341 5.10442 3.35084 0
M  V30 4331 H 399.755 5.61883 1.13842 0
M  V30 4332 H 398.152 5.98506 0.437097 0
M  V30 4333 H 399.222 4.83384 -0.383147 0
M  V30 4334 N 400.565 -0.0233959 1.57583 0
M  V30 4335 C 401.813 -0.711654 1.89156 0
M  V30 4336 C 402.134 -1.75591 0.848096 0
M  V30 4337 O 401.404 -1.95547 -0.117566 0
M  V30 4338 H 399.984 -0.265835 0.698098 0
M  V30 4339 H 402.646 0.0119948 1.94896 0
M  V30 4340 H 401.742 -1.19766 2.88206 0
M  V30 4341 N 402.043 -1.548 -0.295768 0
M  V30 4342 C 402.953 -1.89177 -1.38742 0
M  V30 4343 C 403.969 -0.786481 -1.55211 0
M  V30 4344 O 405.145 -1.08344 -1.69775 0
M  V30 4345 C 402.21 -2.13663 -2.73036 0
M  V30 4346 C 401.271 -3.37349 -2.65508 0
M  V30 4347 C 400.504 -3.60658 -3.93398 0
M  V30 4348 O 400.727 -2.86882 -4.93006 0
M  V30 4349 O 399.661 -4.54179 -3.94975 0
M  V30 4350 H 403.487 -2.82059 -1.12589 0
M  V30 4351 H 401.072 -1.41056 -0.492295 0
M  V30 4352 H 402.954 -2.3094 -3.52484 0
M  V30 4353 H 401.629 -1.23967 -2.99022 0
M  V30 4354 H 400.536 -3.25431 -1.84514 0
M  V30 4355 H 401.869 -4.27192 -2.44474 0
M  V30 4356 N 403.521 0.559213 -1.47345 0
M  V30 4357 C 404.749 1.34194 -1.57479 0
M  V30 4358 C 405.164 1.87463 -0.224261 0
M  V30 4359 O 404.521 1.64888 0.782185 0
M  V30 4360 C 404.572 2.51324 -2.59843 0
M  V30 4361 O 404.293 2.00256 -3.89653 0
M  V30 4362 C 405.794 3.43563 -2.80142 0
M  V30 4363 H 403.014 0.409136 -0.531835 0
M  V30 4364 H 405.558 0.677609 -1.92947 0
M  V30 4365 H 403.713 3.13699 -2.27314 0
M  V30 4366 H 404.127 2.76708 -4.4557 0
M  V30 4367 H 405.601 4.2217 -3.55635 0
M  V30 4368 H 406.078 3.9698 -1.87892 0
M  V30 4369 H 406.684 2.87005 -3.1386 0
M  V30 4370 N 404.999 1.35443 0.805782 0
M  V30 4371 C 405.909 1.30546 1.94923 0
M  V30 4372 C 406.925 0.210233 1.72725 0
M  V30 4373 O 408.101 0.43975 1.9654 0
M  V30 4374 C 405.166 1.07782 3.29521 0
M  V30 4375 C 404.227 2.26625 3.64609 0
M  V30 4376 C 403.46 2.04938 4.92784 0
M  V30 4377 O 403.683 1.01624 5.61274 0
M  V30 4378 O 402.617 2.9232 5.26149 0
M  V30 4379 H 406.443 2.26779 2.02002 0
M  V30 4380 H 404.028 1.15823 0.943682 0
M  V30 4381 H 405.91 0.969392 4.10098 0
M  V30 4382 H 404.585 0.146003 3.23371 0
M  V30 4383 H 403.492 2.43033 2.84404 0
M  V30 4384 H 404.825 3.18257 3.75464 0
M  V30 4385 N 406.477 -1.02803 1.19454 0
M  V30 4386 C 407.893 -1.28473 0.946937 0
M  V30 4387 C 408.093 -1.97881 -0.380202 0
M  V30 4388 O 407.149 -2.26719 -1.11151 0
M  V30 4389 C 408.462 -2.13099 2.12154 0
M  V30 4390 C 410.01 -2.26404 2.16126 0
M  V30 4391 C 410.485 -3.14402 3.33039 0
M  V30 4392 N 411.976 -3.21991 3.32981 0
M  V30 4393 C 412.711 -3.90272 4.20089 0
M  V30 4394 N 412.207 -4.60777 5.17355 0
M  V30 4395 N 414 -3.8668 4.07964 0
M  V30 4396 H 406.151 -0.561665 2.04839 0
M  V30 4397 H 408.414 -0.310438 0.89573 0
M  V30 4398 H 408.12 -1.69422 3.08203 0
M  V30 4399 H 407.994 -3.13813 2.09287 0
M  V30 4400 H 410.381 -2.69311 1.20647 0
M  V30 4401 H 410.462 -1.25237 2.23045 0
M  V30 4402 H 410.106 -2.72204 4.28798 0
M  V30 4403 H 410.036 -4.1563 3.23356 0
M  V30 4404 H 412.527 -2.71778 2.62574 0
M  V30 4405 H 412.84 -5.10513 5.80169 0
M  V30 4406 H 411.185 -4.5964 5.21302 0
M  V30 4407 H 414.376 -3.30739 3.31254 0
M  V30 4408 H 414.549 -4.39621 4.76064 0
M  V30 4409 N 407.956 -0.998596 -1.21925 0
M  V30 4410 C 409.203 -0.677663 -1.90824 0
M  V30 4411 C 409.531 0.790905 -1.77693 0
M  V30 4412 O 408.786 1.58817 -1.14349 0
M  V30 4413 C 409.085 -1.03648 -3.42041 0
M  V30 4414 C 408.751 -2.49825 -3.75364 0
M  V30 4415 C 407.413 -2.8977 -3.8417 0
M  V30 4416 C 409.765 -3.44545 -3.91073 0
M  V30 4417 C 407.093 -4.23412 -4.06127 0
M  V30 4418 C 409.445 -4.77853 -4.14535 0
M  V30 4419 C 408.109 -5.17531 -4.21566 0
M  V30 4420 H 407.379 -0.247975 -0.698276 0
M  V30 4421 H 410.026 -1.25584 -1.44571 0
M  V30 4422 H 408.331 -0.376457 -3.89987 0
M  V30 4423 H 410.028 -0.766113 -3.93614 0
M  V30 4424 H 406.618 -2.17866 -3.69097 0
M  V30 4425 H 410.802 -3.14853 -3.83642 0
M  V30 4426 H 406.058 -4.53734 -4.09799 0
M  V30 4427 H 410.232 -5.51189 -4.25633 0
M  V30 4428 H 407.859 -6.21102 -4.38333 0
M  V30 4429 N 409.434 1.37368 -0.772513 0
M  V30 4430 C 410.364 2.32856 -0.173304 0
M  V30 4431 C 411.345 1.55818 0.682262 0
M  V30 4432 O 412.53 1.84052 0.619566 0
M  V30 4433 C 409.66 3.40048 0.706007 0
M  V30 4434 C 408.614 4.27973 -0.0483144 0
M  V30 4435 C 407.94 5.26184 0.950491 0
M  V30 4436 C 409.24 5.07665 -1.22776 0
M  V30 4437 H 410.934 2.83217 -0.971002 0
M  V30 4438 H 408.48 1.3617 -0.468377 0
M  V30 4439 H 410.433 4.05827 1.13501 0
M  V30 4440 H 409.157 2.88214 1.53623 0
M  V30 4441 H 407.816 3.63726 -0.458107 0
M  V30 4442 H 407.464 4.7063 1.77529 0
M  V30 4443 H 407.164 5.85872 0.450314 0
M  V30 4444 H 408.688 5.94838 1.37842 0
M  V30 4445 H 410.102 5.66578 -0.875366 0
M  V30 4446 H 408.499 5.76681 -1.66007 0
M  V30 4447 H 409.569 4.40294 -2.03149 0
M  V30 4448 N 410.912 0.523116 1.48665 0
M  V30 4449 C 412.137 -0.0117284 2.07397 0
M  V30 4450 C 412.562 -1.28031 1.37803 0
M  V30 4451 O 411.92 -1.75836 0.441762 0
M  V30 4452 C 411.968 -0.225786 3.59892 0
M  V30 4453 O 411.072 -1.29592 3.91509 0
M  V30 4454 H 410.413 0.0360673 0.66302 0
M  V30 4455 H 412.943 0.729066 1.9117 0
M  V30 4456 H 412.953 -0.450552 4.05505 0
M  V30 4457 H 411.628 0.700944 4.09951 0
M  V30 4458 H 410.205 -1.05436 3.57684 0
M  V30 4459 N 412.39 -1.55475 0.257931 0
M  V30 4460 C 413.322 -2.19192 -0.669881 0
M  V30 4461 C 414.335 -1.17148 -1.1305 0
M  V30 4462 O 415.524 -1.43959 -1.05537 0
M  V30 4463 C 412.624 -2.79016 -1.92363 0
M  V30 4464 C 411.797 -4.06586 -1.61265 0
M  V30 4465 C 410.856 -4.50622 -2.7171 0
M  V30 4466 O 409.882 -5.16765 -2.38627 0
M  V30 4467 N 411.084 -4.19325 -4.01431 0
M  V30 4468 H 413.849 -2.99441 -0.124635 0
M  V30 4469 H 411.41 -1.6171 0.0783311 0
M  V30 4470 H 413.402 -3.05427 -2.65511 0
M  V30 4471 H 411.972 -2.0286 -2.37837 0
M  V30 4472 H 411.192 -3.87646 -0.715811 0
M  V30 4473 H 412.48 -4.89737 -1.37967 0
M  V30 4474 H 411.878 -3.66247 -4.31138 0
M  V30 4475 H 410.435 -4.50547 -4.7101 0
M  V30 4476 N 413.868 0.0150385 -1.57593 0
M  V30 4477 C 415.114 0.704043 -1.90187 0
M  V30 4478 C 415.447 1.74249 -0.857366 0
M  V30 4479 O 414.722 1.94092 0.125843 0
M  V30 4480 C 415.005 1.36087 -3.33395 0
M  V30 4481 C 414.858 0.334981 -4.48551 0
M  V30 4482 C 416.177 2.29112 -3.7576 0
M  V30 4483 H 413.296 0.254475 -0.691673 0
M  V30 4484 H 415.938 -0.0331678 -1.89971 0
M  V30 4485 H 414.088 1.98922 -3.3371 0
M  V30 4486 H 415.76 -0.292534 -4.60372 0
M  V30 4487 H 414.003 -0.344325 -4.32431 0
M  V30 4488 H 414.674 0.833316 -5.45674 0
M  V30 4489 H 417.15 1.76308 -3.76902 0
M  V30 4490 H 416.026 2.72043 -4.76743 0
M  V30 4491 H 416.287 3.16385 -3.08793 0
M  V30 4492 N 415.346 1.54954 0.287554 0
M  V30 4493 C 416.276 1.89839 1.35954 0
M  V30 4494 C 417.257 0.758675 1.52244 0
M  V30 4495 O 418.442 1.01557 1.65529 0
M  V30 4496 C 415.572 2.15753 2.72154 0
M  V30 4497 C 414.526 3.3159 2.70614 0
M  V30 4498 C 413.852 3.42952 4.10229 0
M  V30 4499 C 415.152 4.68359 2.31165 0
M  V30 4500 H 416.846 2.79625 1.07007 0
M  V30 4501 H 414.392 1.3454 0.513316 0
M  V30 4502 H 416.345 2.38743 3.47246 0
M  V30 4503 H 415.069 1.22752 3.02654 0
M  V30 4504 H 413.728 3.08545 1.97979 0
M  V30 4505 H 413.376 2.47443 4.37928 0
M  V30 4506 H 413.076 4.20826 4.10097 0
M  V30 4507 H 414.6 3.68218 4.87081 0
M  V30 4508 H 416.014 4.9099 2.95976 0
M  V30 4509 H 414.411 5.49044 2.42221 0
M  V30 4510 H 415.481 4.68165 1.26291 0
M  V30 4511 N 416.824 -0.551391 1.4764 0
M  V30 4512 C 418.072 -1.30572 1.54258 0
M  V30 4513 C 418.393 -1.93877 0.208963 0
M  V30 4514 O 417.663 -1.80234 -0.767619 0
M  V30 4515 H 416.243 -0.484894 0.568231 0
M  V30 4516 H 418.905 -0.643402 1.83974 0
M  V30 4517 H 418.001 -2.09621 2.31226 0
M  V30 4518 N 418.302 -1.35869 -0.798587 0
M  V30 4519 C 419.718 -1.16082 -1.09532 0
M  V30 4520 C 419.918 0.0213124 -2.01489 0
M  V30 4521 O 418.974 0.689488 -2.42904 0
M  V30 4522 C 420.287 -2.46748 -1.7186 0
M  V30 4523 C 421.835 -2.53028 -1.84244 0
M  V30 4524 C 422.31 -3.83758 -2.49988 0
M  V30 4525 N 423.801 -3.85053 -2.57465 0
M  V30 4526 C 424.536 -4.8294 -3.09122 0
M  V30 4527 N 424.032 -5.91217 -3.61157 0
M  V30 4528 N 425.825 -4.70369 -3.0775 0
M  V30 4529 H 417.976 -2.11571 -0.187461 0
M  V30 4530 H 420.239 -0.936726 -0.145765 0
M  V30 4531 H 419.945 -3.33471 -1.11759 0
M  V30 4532 H 419.819 -2.61883 -2.71472 0
M  V30 4533 H 422.206 -1.66729 -2.43486 0
M  V30 4534 H 422.287 -2.418 -0.834643 0
M  V30 4535 H 421.931 -4.70459 -1.91393 0
M  V30 4536 H 421.861 -3.92278 -3.5132 0
M  V30 4537 H 424.352 -3.06822 -2.20609 0
M  V30 4538 H 424.665 -6.61892 -3.98896 0
M  V30 4539 H 423.01 -5.94899 -3.59333 0
M  V30 4540 H 426.201 -3.84914 -2.66381 0
M  V30 4541 H 426.374 -5.46816 -3.47701 0
M  V30 4542 N 419.78 1.02168 -1.19998 0
M  V30 4543 C 421.026 1.75945 -1.00852 0
M  V30 4544 C 421.359 1.88702 0.458828 0
M  V30 4545 O 420.634 1.40911 1.34069 0
M  V30 4546 C 420.917 3.18154 -1.68671 0
M  V30 4547 C 420.77 3.13224 -3.22817 0
M  V30 4548 C 422.089 4.16711 -1.41561 0
M  V30 4549 H 419.208 0.638673 -0.367785 0
M  V30 4550 H 421.85 1.19222 -1.4794 0
M  V30 4551 H 420 3.66586 -1.28636 0
M  V30 4552 H 421.672 2.72635 -3.72112 0
M  V30 4553 H 419.915 2.50751 -3.53986 0
M  V30 4554 H 420.586 4.13728 -3.65422 0
M  V30 4555 H 423.062 3.76913 -1.76284 0
M  V30 4556 H 421.938 5.14391 -1.91553 0
M  V30 4557 H 422.199 4.40774 -0.342193 0
M  V30 4558 N 421.258 1.00505 1.21394 0
M  V30 4559 C 422.188 0.585684 2.26035 0
M  V30 4560 C 423.169 -0.393525 1.65485 0
M  V30 4561 O 424.354 -0.281497 1.92149 0
M  V30 4562 C 421.484 -0.0884283 3.47187 0
M  V30 4563 C 420.438 0.810567 4.20254 0
M  V30 4564 C 419.764 0.00286382 5.347 0
M  V30 4565 C 421.064 2.1132 4.77641 0
M  V30 4566 H 422.758 1.46039 2.61368 0
M  V30 4567 H 420.304 0.703648 1.25638 0
M  V30 4568 H 422.257 -0.393286 4.19561 0
M  V30 4569 H 420.981 -0.997766 3.10986 0
M  V30 4570 H 419.64 1.09925 3.49731 0
M  V30 4571 H 419.288 -0.907765 4.94741 0
M  V30 4572 H 418.988 0.601444 5.84514 0
M  V30 4573 H 420.512 -0.295808 6.09883 0
M  V30 4574 H 421.926 1.87148 5.41893 0
M  V30 4575 H 420.323 2.66164 5.37845 0
M  V30 4576 H 421.393 2.78393 3.9702 0
M  V30 4577 N 422.737 -1.36956 0.779787 0
M  V30 4578 C 423.669 -2.28833 0.129639 0
M  V30 4579 C 424.682 -1.4902 -0.655511 0
M  V30 4580 O 425.871 -1.71578 -0.492279 0
M  V30 4581 C 422.971 -3.2833 -0.839792 0
M  V30 4582 C 422.144 -4.3727 -0.10675 0
M  V30 4583 C 421.203 -5.16789 -0.990717 0
M  V30 4584 O 420.229 -5.67406 -0.451516 0
M  V30 4585 N 421.431 -5.32294 -2.3161 0
M  V30 4586 H 424.196 -2.85268 0.918803 0
M  V30 4587 H 421.757 -1.49019 0.632841 0
M  V30 4588 H 423.749 -3.78413 -1.43477 0
M  V30 4589 H 422.319 -2.72605 -1.52988 0
M  V30 4590 H 421.539 -3.88478 0.669216 0
M  V30 4591 H 422.827 -5.07229 0.399464 0
M  V30 4592 H 422.225 -4.92768 -2.77843 0
M  V30 4593 H 420.782 -5.85656 -2.86095 0
M  V30 4594 N 424.215 -0.530993 -1.48385 0
M  V30 4595 C 425.145 0.219985 -2.32461 0
M  V30 4596 C 426.126 0.934111 -1.42156 0
M  V30 4597 O 427.311 0.919694 -1.71042 0
M  V30 4598 C 424.441 1.26674 -3.23375 0
M  V30 4599 C 423.395 0.67069 -4.22712 0
M  V30 4600 C 422.721 1.82017 -5.02766 0
M  V30 4601 C 424.021 -0.358268 -5.2107 0
M  V30 4602 H 425.715 -0.48187 -2.95497 0
M  V30 4603 H 423.261 -0.233182 -1.42099 0
M  V30 4604 H 425.214 1.80006 -3.81019 0
M  V30 4605 H 423.938 1.99818 -2.58341 0
M  V30 4606 H 422.597 0.158878 -3.66256 0
M  V30 4607 H 422.245 2.54002 -4.34157 0
M  V30 4608 H 421.945 1.42727 -5.70003 0
M  V30 4609 H 423.469 2.35725 -5.63264 0
M  V30 4610 H 424.883 0.0880081 -5.73232 0
M  V30 4611 H 423.28 -0.66861 -5.96364 0
M  V30 4612 H 424.35 -1.26367 -4.68145 0
M  V30 4613 N 425.693 1.55336 -0.266172 0
M  V30 4614 C 426.623 2.25146 0.618981 0
M  V30 4615 C 427.604 1.23845 1.16604 0
M  V30 4616 O 428.789 1.52544 1.20183 0
M  V30 4617 C 425.919 2.96572 1.80728 0
M  V30 4618 C 424.873 4.04726 1.39215 0
M  V30 4619 C 424.199 4.63678 2.66283 0
M  V30 4620 C 425.499 5.19407 0.548942 0
M  V30 4621 H 427.193 2.99377 0.0368116 0
M  V30 4622 H 424.739 1.43991 0.0162651 0
M  V30 4623 H 426.692 3.44116 2.43232 0
M  V30 4624 H 425.416 2.19861 2.41514 0
M  V30 4625 H 424.075 3.57979 0.790351 0
M  V30 4626 H 423.723 3.83646 3.25308 0
M  V30 4627 H 423.423 5.367 2.39222 0
M  V30 4628 H 424.947 5.13967 3.29651 0
M  V30 4629 H 426.361 5.63059 1.07876 0
M  V30 4630 H 424.758 5.98936 0.373593 0
M  V30 4631 H 425.828 4.8295 -0.434394 0
M  V30 4632 N 427.171 -0.0066808 1.57599 0
M  V30 4633 C 428.582 -0.550379 1.78403 0
M  V30 4634 C 428.933 -1.74339 0.900014 0
M  V30 4635 O 428.058 -2.16166 0.100713 0
M  V30 4636 C 428.653 -1.00523 3.23544 0
M  V30 4637 C 427.212 -1.49428 3.45468 0
M  V30 4638 C 426.359 -0.442444 2.73748 0
M  V30 4639 H 429.31 0.219508 1.57175 0
M  V30 4640 H 429.331 -1.87157 3.31289 0
M  V30 4641 H 428.843 -0.136735 3.87859 0
M  V30 4642 H 426.944 -2.3839 2.86358 0
M  V30 4643 H 427.057 -1.52635 4.54136 0
M  V30 4644 H 425.421 -0.902578 2.38171 0
M  V30 4645 H 426.204 0.416973 3.40758 0
M  V30 4646 N 428.649 -1.55105 -0.279332 0
M  V30 4647 C 430.06 -1.66186 -0.850832 0
M  V30 4648 C 430.411 -0.584707 -1.87285 0
M  V30 4649 O 429.536 0.274919 -2.14647 0
M  V30 4650 C 430.131 -3.01264 -1.55001 0
M  V30 4651 C 428.69 -3.14394 -2.06963 0
M  V30 4652 C 427.837 -2.61959 -0.909536 0
M  V30 4653 H 430.788 -1.58602 -0.0558235 0
M  V30 4654 H 430.809 -2.93899 -2.41669 0
M  V30 4655 H 430.321 -3.7964 -0.805931 0
M  V30 4656 H 428.422 -2.4078 -2.84352 0
M  V30 4657 H 428.535 -4.20867 -2.28928 0
M  V30 4658 H 426.899 -2.18957 -1.30116 0
M  V30 4659 H 427.682 -3.42833 -0.179062 0
M  V30 4660 N 430.127 0.543554 -1.4793 0
M  V30 4661 C 431.375 1.29752 -1.54948 0
M  V30 4662 C 431.696 1.93764 -0.219242 0
M  V30 4663 O 430.966 1.80639 0.75805 0
M  V30 4664 H 429.546 0.481874 -0.570795 0
M  V30 4665 H 432.208 0.633636 -1.84312 0
M  V30 4666 H 431.304 2.08392 -2.32334 0
M  V30 4667 N 431.605 1.3629 0.791371 0
M  V30 4668 C 432.537 1.26321 1.91248 0
M  V30 4669 C 433.55 0.18313 1.61767 0
M  V30 4670 O 434.739 0.437682 1.73051 0
M  V30 4671 C 431.839 0.925901 3.26007 0
M  V30 4672 C 431.012 2.10746 3.83281 0
M  V30 4673 C 430.071 1.74352 4.96475 0
M  V30 4674 O 429.097 2.46416 5.13096 0
M  V30 4675 N 430.299 0.676058 5.7655 0
M  V30 4676 H 433.064 2.22915 2.00323 0
M  V30 4677 H 430.625 1.29659 0.969546 0
M  V30 4678 H 432.617 0.663636 3.99222 0
M  V30 4679 H 431.187 0.0491581 3.12561 0
M  V30 4680 H 430.407 2.53264 3.02077 0
M  V30 4681 H 431.695 2.8969 4.18279 0
M  V30 4682 H 431.093 0.0776467 5.65647 0
M  V30 4683 H 429.65 0.473612 6.50077 0
M  V30 4684 N 433.083 -1.0153 1.20538 0
M  V30 4685 C 434.329 -1.75408 1.01783 0
M  V30 4686 C 434.662 -1.88943 -0.448814 0
M  V30 4687 O 433.937 -1.4162 -1.33319 0
M  V30 4688 C 434.22 -3.17255 1.70356 0
M  V30 4689 C 434.073 -3.11508 3.24473 0
M  V30 4690 C 435.392 -4.15955 1.43769 0
M  V30 4691 H 432.511 -0.636713 0.371167 0
M  V30 4692 H 435.153 -1.18436 1.4857 0
M  V30 4693 H 433.303 -3.65898 1.30578 0
M  V30 4694 H 434.975 -2.70658 3.73553 0
M  V30 4695 H 433.218 -2.4887 3.55311 0
M  V30 4696 H 433.889 -4.11784 3.67611 0
M  V30 4697 H 436.365 -3.75973 1.7828 0
M  V30 4698 H 435.241 -5.13368 1.94279 0
M  V30 4699 H 435.502 -4.40586 0.365564 0
M  V30 4700 N 434.561 -1.01147 -1.20859 0
M  V30 4701 C 435.493 -0.535546 -2.22855 0
M  V30 4702 C 436.506 0.379323 -1.58319 0
M  V30 4703 O 437.695 0.178489 -1.77605 0
M  V30 4704 C 434.795 0.240962 -3.38042 0
M  V30 4705 C 433.968 -0.674562 -4.32167 0
M  V30 4706 C 433.027 0.053467 -5.26173 0
M  V30 4707 O 432.053 -0.567339 -5.66366 0
M  V30 4708 N 433.255 1.32997 -5.65059 0
M  V30 4709 H 436.02 -1.41268 -2.64317 0
M  V30 4710 H 433.581 -0.888386 -1.35349 0
M  V30 4711 H 435.573 0.737115 -3.97931 0
M  V30 4712 H 434.143 1.01935 -2.95513 0
M  V30 4713 H 433.363 -1.35111 -3.70322 0
M  V30 4714 H 434.651 -1.2974 -4.91981 0
M  V30 4715 H 434.049 1.85536 -5.34409 0
M  V30 4716 H 432.606 1.77095 -6.2728 0
M  V30 4717 N 436.039 1.36541 -0.78704 0
M  V30 4718 C 437.285 1.99599 -0.358872 0
M  V30 4719 C 437.618 1.62323 1.06606 0
M  V30 4720 O 436.893 0.876858 1.73613 0
M  V30 4721 C 437.176 3.56327 -0.519944 0
M  V30 4722 C 437.029 4.03464 -1.98839 0
M  V30 4723 C 438.348 4.4005 0.0664737 0
M  V30 4724 H 435.467 0.725107 -0.131869 0
M  V30 4725 H 438.109 1.6199 -0.992936 0
M  V30 4726 H 436.259 3.88495 0.0198321 0
M  V30 4727 H 437.931 3.81793 -2.58905 0
M  V30 4728 H 436.174 3.55092 -2.49183 0
M  V30 4729 H 436.845 5.12439 -2.05207 0
M  V30 4730 H 439.321 4.14228 -0.394267 0
M  V30 4731 H 438.197 5.48847 -0.0762682 0
M  V30 4732 H 438.458 4.26655 1.15835 0
M  V30 4733 N 437.518 0.538854 1.48102 0
M  V30 4734 C 438.468 -0.23907 2.26743 0
M  V30 4735 C 439.452 -0.901923 1.33245 0
M  V30 4736 O 440.644 -0.803263 1.57723 0
M  V30 4737 C 437.773 -1.2799 3.18549 0
M  V30 4738 C 436.859 -0.621388 4.19523 0
M  V30 4739 N 437.25 0.298004 5.04921 0
M  V30 4740 C 435.548 -0.877533 4.37282 0
M  V30 4741 C 436.249 0.678757 5.77726 0
M  V30 4742 N 435.225 0.0377881 5.43587 0
M  V30 4743 H 439.027 0.468096 2.90148 0
M  V30 4744 H 436.541 0.357497 1.58416 0
M  V30 4745 H 438.538 -1.851 3.73555 0
M  V30 4746 H 437.198 -1.98835 2.567 0
M  V30 4747 H 438.209 0.671126 5.13533 0
M  V30 4748 H 434.886 -1.57588 3.86616 0
M  V30 4749 H 436.276 1.43316 6.56437 0
M  V30 4750 N 438.996 -1.55193 0.274407 0
M  V30 4751 C 439.943 -2.225 -0.613374 0
M  V30 4752 C 440.913 -1.19823 -1.15029 0
M  V30 4753 O 442.098 -1.48362 -1.19973 0
M  V30 4754 C 439.238 -2.94927 -1.79199 0
M  V30 4755 C 438.351 -4.12322 -1.28899 0
M  V30 4756 C 437.486 -4.72394 -2.42934 0
M  V30 4757 C 436.525 -5.81984 -1.89634 0
M  V30 4758 N 435.662 -6.36123 -2.9714 0
M  V30 4759 H 440.502 -2.97982 -0.032756 0
M  V30 4760 H 438.039 -1.47099 -0.00440146 0
M  V30 4761 H 439.997 -3.35134 -2.48478 0
M  V30 4762 H 438.627 -2.2187 -2.34465 0
M  V30 4763 H 437.679 -3.7724 -0.489327 0
M  V30 4764 H 438.991 -4.91355 -0.858587 0
M  V30 4765 H 438.145 -5.15317 -3.20208 0
M  V30 4766 H 436.884 -3.92636 -2.8929 0
M  V30 4767 H 435.889 -5.38511 -1.1084 0
M  V30 4768 H 437.114 -6.6361 -1.44215 0
M  V30 4769 H 435.06 -5.59259 -3.42878 0
M  V30 4770 H 434.977 -7.10427 -2.58515 0
M  V30 4771 H 436.245 -6.83704 -3.74391 0
M  V30 4772 N 440.474 -0.00167713 -1.576 0
M  V30 4773 C 441.407 1.02317 -2.03977 0
M  V30 4774 C 442.385 1.33381 -0.929963 0
M  V30 4775 O 443.569 1.45517 -1.19822 0
M  V30 4776 C 440.696 2.35035 -2.43878 0
M  V30 4777 C 439.742 2.19621 -3.65607 0
M  V30 4778 S 440.575 1.52068 -5.13455 0
M  V30 4779 C 441.731 2.86212 -5.56627 0
M  V30 4780 H 441.964 0.628285 -2.90585 0
M  V30 4781 H 439.497 0.209239 -1.52976 0
M  V30 4782 H 441.455 3.11345 -2.67534 0
M  V30 4783 H 440.116 2.71663 -1.57665 0
M  V30 4784 H 439.309 3.1767 -3.91282 0
M  V30 4785 H 438.911 1.51455 -3.41961 0
M  V30 4786 H 441.203 3.82509 -5.59189 0
M  V30 4787 H 442.146 2.65235 -6.56549 0
M  V30 4788 H 442.554 2.90199 -4.84195 0
M  V30 4789 N 441.952 1.55251 0.271103 0
M  V30 4790 C 442.899 1.88261 1.33516 0
M  V30 4791 C 443.869 0.734296 1.48988 0
M  V30 4792 O 445.054 0.985741 1.63364 0
M  V30 4793 C 442.194 2.16168 2.69008 0
M  V30 4794 C 441.307 3.43678 2.61743 0
M  V30 4795 C 440.442 3.61276 3.89427 0
M  V30 4796 C 439.481 4.82472 3.7668 0
M  V30 4797 N 438.618 4.96717 4.96202 0
M  V30 4798 H 443.458 2.79015 1.04665 0
M  V30 4799 H 440.995 1.38137 0.505618 0
M  V30 4800 H 442.953 2.30349 3.47844 0
M  V30 4801 H 441.583 1.28646 2.96057 0
M  V30 4802 H 440.635 3.37959 1.74607 0
M  V30 4803 H 441.947 4.3265 2.48224 0
M  V30 4804 H 441.101 3.75284 4.76704 0
M  V30 4805 H 439.84 2.70492 4.05814 0
M  V30 4806 H 438.845 4.68465 2.87786 0
M  V30 4807 H 440.07 5.74692 3.61809 0
M  V30 4808 H 438.016 4.08865 5.12997 0
M  V30 4809 H 437.933 5.79738 4.85222 0
M  V30 4810 H 439.201 5.15113 5.85046 0
M  V30 4811 N 443.43 -0.535701 1.48216 0
M  V30 4812 C 444.393 -1.623 1.61838 0
M  V30 4813 C 445.393 -1.53087 0.492024 0
M  V30 4814 O 446.583 -1.5686 0.757668 0
M  V30 4815 C 443.715 -3.01907 1.58319 0
M  V30 4816 H 444.908 -1.51564 2.58783 0
M  V30 4817 H 442.461 -0.757317 1.36727 0
M  V30 4818 H 443.196 -3.18155 0.628299 0
M  V30 4819 H 442.981 -3.10003 2.40085 0
M  V30 4820 H 444.471 -3.80969 1.71033 0
M  V30 4821 N 444.908 -1.36708 -0.784132 0
M  V30 4822 C 446.154 -1.31426 -1.54451 0
M  V30 4823 C 446.487 0.10476 -1.93917 0
M  V30 4824 O 445.762 1.05934 -1.6312 0
M  V30 4825 C 446.045 -2.24189 -2.818 0
M  V30 4826 C 445.898 -3.74813 -2.48667 0
M  V30 4827 C 447.217 -2.15626 -3.83658 0
M  V30 4828 H 444.336 -0.478739 -0.560337 0
M  V30 4829 H 446.978 -1.67305 -0.900498 0
M  V30 4830 H 445.128 -1.93722 -3.36755 0
M  V30 4831 H 446.8 -4.15823 -1.99722 0
M  V30 4832 H 445.043 -3.93989 -1.81535 0
M  V30 4833 H 445.714 -4.35138 -3.39646 0
M  V30 4834 H 448.19 -2.42456 -3.38163 0
M  V30 4835 H 447.066 -2.82694 -4.70506 0
M  V30 4836 H 447.327 -1.14522 -4.27009 0
M  V30 4837 N 446.386 1.0089 -1.21074 0
M  V30 4838 C 447.616 1.77933 -1.04993 0
M  V30 4839 C 448.024 1.84847 0.403495 0
M  V30 4840 O 447.367 1.30606 1.29181 0
M  V30 4841 C 447.429 3.23541 -1.56722 0
M  V30 4842 C 447.093 3.40214 -3.05129 0
M  V30 4843 C 448.09 3.2881 -4.02716 0
M  V30 4844 C 445.775 3.65781 -3.44252 0
M  V30 4845 C 447.769 3.42732 -5.37414 0
M  V30 4846 C 445.456 3.79346 -4.79103 0
M  V30 4847 C 446.454 3.67827 -5.75493 0
M  V30 4848 O 446.142 3.80965 -7.07899 0
M  V30 4849 H 445.874 0.566157 -0.369381 0
M  V30 4850 H 448.428 1.27826 -1.60779 0
M  V30 4851 H 446.658 3.74766 -0.953285 0
M  V30 4852 H 448.347 3.82245 -1.36543 0
M  V30 4853 H 449.113 3.08986 -3.73835 0
M  V30 4854 H 444.992 3.73831 -2.69762 0
M  V30 4855 H 448.536 3.33658 -6.12632 0
M  V30 4856 H 444.433 3.98672 -5.07672 0
M  V30 4857 H 445.201 3.97937 -7.15254 0
M  V30 4858 N 447.864 1.01787 1.20321 0
M  V30 4859 C 448.794 0.609625 2.25401 0
M  V30 4860 C 449.775 -0.375951 1.65893 0
M  V30 4861 O 450.96 -0.261101 1.92437 0
M  V30 4862 C 448.09 -0.0515995 3.47262 0
M  V30 4863 C 447.044 0.855095 4.19371 0
M  V30 4864 C 446.37 0.0595757 5.34667 0
M  V30 4865 C 447.67 2.16374 4.75373 0
M  V30 4866 H 449.364 1.48803 2.59804 0
M  V30 4867 H 446.91 0.716934 1.24884 0
M  V30 4868 H 448.863 -0.348764 4.19954 0
M  V30 4869 H 447.587 -0.964726 3.12027 0
M  V30 4870 H 446.246 1.13628 3.48546 0
M  V30 4871 H 445.894 -0.85524 4.95676 0
M  V30 4872 H 445.594 0.663406 5.83843 0
M  V30 4873 H 447.118 -0.231105 6.10162 0
M  V30 4874 H 448.532 1.92885 5.39878 0
M  V30 4875 H 446.929 2.71853 5.34991 0
M  V30 4876 H 447.999 2.82589 3.94045 0
M  V30 4877 N 449.342 -1.36122 0.79427 0
M  V30 4878 C 450.305 -2.28309 0.201889 0
M  V30 4879 C 451.305 -1.49041 -0.603603 0
M  V30 4880 O 452.495 -1.68964 -0.423888 0
M  V30 4881 C 449.627 -3.3321 -0.719978 0
M  V30 4882 H 450.82 -2.82208 1.01481 0
M  V30 4883 H 448.373 -1.45768 0.564037 0
M  V30 4884 H 449.108 -2.84475 -1.55706 0
M  V30 4885 H 448.893 -3.91835 -0.144266 0
M  V30 4886 H 450.383 -4.02044 -1.12916 0
M  V30 4887 N 450.82 -0.546701 -1.47814 0
M  V30 4888 C 451.75 0.195317 -2.32682 0
M  V30 4889 C 452.731 0.918981 -1.43139 0
M  V30 4890 O 453.916 0.901501 -1.72008 0
M  V30 4891 C 451.046 1.23237 -3.247 0
M  V30 4892 C 450 0.625818 -4.234 0
M  V30 4893 C 449.326 1.76674 -5.04669 0
M  V30 4894 C 450.626 -0.413515 -5.2066 0
M  V30 4895 H 452.32 -0.513184 -2.94969 0
M  V30 4896 H 449.866 -0.248241 -1.41844 0
M  V30 4897 H 451.819 1.75955 -3.82907 0
M  V30 4898 H 450.543 1.97067 -2.60446 0
M  V30 4899 H 449.202 0.120023 -3.66403 0
M  V30 4900 H 448.85 2.49383 -4.36826 0
M  V30 4901 H 448.55 1.36673 -5.71484 0
M  V30 4902 H 450.074 2.29738 -5.65732 0
M  V30 4903 H 451.488 0.0272042 -5.73294 0
M  V30 4904 H 449.885 -0.731825 -5.95621 0
M  V30 4905 H 450.955 -1.31325 -4.66778 0
M  V30 4906 N 452.299 1.55045 -0.282633 0
M  V30 4907 C 453.247 2.24254 0.617478 0
M  V30 4908 C 454.241 1.24215 1.15183 0
M  V30 4909 O 455.447 1.42123 1.10459 0
M  V30 4910 H 451.822 0.719801 0.217693 0
M  V30 4911 H 453.793 2.98398 0.0110076 0
M  V30 4912 C 452.542 2.98281 1.78672 0
M  V30 4913 H 451.865 3.75053 1.38475 0
M  V30 4914 H 453.305 3.50017 2.393 0
M  V30 4915 C 451.764 2.04184 2.67975 0
M  V30 4916 O 452.294 1.59792 3.6855 0
M  V30 4917 N 450.5 1.70526 2.35307 0
M  V30 4918 H 450.047 2.06821 1.53567 0
M  V30 4919 H 450.005 1.07839 2.95327 0
M  V30 4920 N 453.777 0.010035 1.57597 0
M  V30 4921 C 454.709 -1.00649 2.05918 0
M  V30 4922 C 455.722 -1.30077 0.978964 0
M  V30 4923 O 456.911 -1.26878 1.25556 0
M  V30 4924 C 454.011 -2.33876 2.45265 0
M  V30 4925 C 453.184 -2.23242 3.7614 0
M  V30 4926 C 452.243 -3.39242 4.02245 0
M  V30 4927 O 451.269 -3.1698 4.72771 0
M  V30 4928 N 452.471 -4.6242 3.50924 0
M  V30 4929 H 455.236 -0.594333 2.93748 0
M  V30 4930 H 452.797 -0.17714 1.60928 0
M  V30 4931 H 454.789 -3.1027 2.59836 0
M  V30 4932 H 453.359 -2.66799 1.62902 0
M  V30 4933 H 452.579 -1.31696 3.71551 0
M  V30 4934 H 453.867 -2.13321 4.61922 0
M  V30 4935 H 453.265 -4.83404 2.93832 0
M  V30 4936 H 451.822 -5.36046 3.70807 0
M  V30 4937 N 455.255 -1.55392 -0.262866 0
M  V30 4938 C 456.495 -1.78231 -1.00064 0
M  V30 4939 C 456.859 -0.576966 -1.83126 0
M  V30 4940 O 458.06 -0.683809 -2.59957 0
M  V30 4941 C 456.331 -3.05701 -1.85153 0
M  V30 4942 S 457.89 -3.49699 -2.65058 0
M  V30 4943 H 454.708 -0.626138 -0.336856 0
M  V30 4944 H 457.31 -1.93626 -0.27005 0
M  V30 4945 H 456.014 -3.91511 -1.23074 0
M  V30 4946 H 455.545 -2.93 -2.62515 0
M  V30 4947 H 457.56 -3.09772 -3.87629 0
M  V30 4948 N 456.733 0.527833 -1.48498 0
M  V30 4949 C 457.958 1.313 -1.60546 0
M  V30 4950 C 458.383 1.86199 -0.26672 0
M  V30 4951 O 457.741 1.64513 0.761918 0
M  V30 4952 C 457.789 2.43818 -2.65678 0
M  V30 4953 O 456.893 3.46916 -2.22987 0
M  V30 4954 H 456.234 0.388784 -0.538277 0
M  V30 4955 H 458.764 0.634896 -1.945 0
M  V30 4956 H 458.774 2.89973 -2.87018 0
M  V30 4957 H 457.449 2.03222 -3.62869 0
M  V30 4958 H 456.026 3.06864 -2.11869 0
M  V30 4959 N 458.211 1.37122 0.776871 0
M  V30 4960 C 459.457 1.32243 1.53752 0
M  V30 4961 C 459.79 -0.0944745 1.9397 0
M  V30 4962 O 459.065 -1.05068 1.6368 0
M  V30 4963 C 459.348 2.25681 2.80607 0
M  V30 4964 C 459.201 3.76127 2.46676 0
M  V30 4965 C 460.52 2.17657 3.82509 0
M  V30 4966 H 457.639 0.481704 0.557791 0
M  V30 4967 H 460.281 1.6778 0.891612 0
M  V30 4968 H 458.431 1.95505 3.35723 0
M  V30 4969 H 460.103 4.16877 1.97513 0
M  V30 4970 H 458.346 3.94946 1.79443 0
M  V30 4971 H 459.017 4.36933 3.37333 0
M  V30 4972 H 461.493 2.44245 3.36873 0
M  V30 4973 H 460.369 2.85185 4.69 0
M  V30 4974 H 460.63 1.16785 4.26396 0
M  V30 4975 N 459.689 -1.00246 1.21608 0
M  V30 4976 C 460.914 -1.78167 1.06167 0
M  V30 4977 C 461.339 -1.84138 -0.384035 0
M  V30 4978 O 460.697 -1.28683 -1.27712 0
M  V30 4979 C 460.745 -3.19786 1.66642 0
M  V30 4980 O 459.849 -4.02153 0.913613 0
M  V30 4981 H 459.19 -0.549 0.37349 0
M  V30 4982 H 461.72 -1.25994 1.61204 0
M  V30 4983 H 461.73 -3.70451 1.70969 0
M  V30 4984 H 460.405 -3.14754 2.7185 0
M  V30 4985 H 458.982 -3.60711 0.945635 0
M  V30 4986 N 461.167 -1.02423 -1.1978 0
M  V30 4987 C 462.395 -0.737456 -1.93311 0
M  V30 4988 C 462.81 0.703023 -1.75223 0
M  V30 4989 O 462.167 1.47761 -1.07112 0
M  V30 4990 C 462.218 -1.0733 -3.45199 0
M  V30 4991 O 461.939 -2.4572 -3.62702 0
M  V30 4992 C 463.44 -0.80866 -4.35862 0
M  V30 4993 H 460.66 -0.2702 -0.614193 0
M  V30 4994 H 463.204 -1.36747 -1.52054 0
M  V30 4995 H 461.359 -0.488545 -3.84307 0
M  V30 4996 H 461.773 -2.58081 -4.56612 0
M  V30 4997 H 463.247 -1.09365 -5.41057 0
M  V30 4998 H 463.724 0.257025 -4.38447 0
M  V30 4999 H 464.33 -1.37592 -4.02428 0
M  V30 5000 N 462.645 1.35699 -0.801477 0
M  V30 5001 C 463.873 2.03157 -0.391768 0
M  V30 5002 C 464.288 1.60412 0.995668 0
M  V30 5003 O 463.645 0.799228 1.64069 0
M  V30 5004 C 463.696 3.58566 -0.459671 0
M  V30 5005 O 463.417 3.99756 -1.7924 0
M  V30 5006 C 464.918 4.4328 -0.0421205 0
M  V30 5007 H 462.138 0.651688 -0.159825 0
M  V30 5008 H 464.682 1.73426 -1.08368 0
M  V30 5009 H 462.837 3.86963 0.183939 0
M  V30 5010 H 463.251 4.94387 -1.75162 0
M  V30 5011 H 464.725 5.51821 -0.140754 0
M  V30 5012 H 465.202 4.27383 1.01196 0
M  V30 5013 H 465.808 4.20168 -0.658687 0
M  V30 5014 N 464.123 0.554532 1.47522 0
M  V30 5015 C 465.073 -0.215008 2.26984 0
M  V30 5016 C 466.057 -0.88774 1.34194 0
M  V30 5017 O 467.249 -0.786489 1.58567 0
M  V30 5018 C 464.378 -1.24604 3.19889 0
M  V30 5019 C 463.464 -0.576857 4.20159 0
M  V30 5020 N 463.855 0.351541 5.04577 0
M  V30 5021 C 462.153 -0.831104 4.38188 0
M  V30 5022 C 462.854 0.739995 5.76974 0
M  V30 5023 N 461.83 0.0954407 5.43516 0
M  V30 5024 H 465.632 0.498843 2.89636 0
M  V30 5025 H 463.146 0.374279 1.58028 0
M  V30 5026 H 465.143 -1.81128 3.75498 0
M  V30 5027 H 463.803 -1.96101 2.58794 0
M  V30 5028 H 464.814 0.725556 5.12792 0
M  V30 5029 H 461.491 -1.53479 3.88266 0
M  V30 5030 H 462.881 1.50271 6.5488 0
M  V30 5031 N 465.601 -1.54893 0.290851 0
M  V30 5032 C 466.548 -2.23138 -0.58974 0
M  V30 5033 C 467.518 -1.21036 -1.13752 0
M  V30 5034 O 468.703 -1.49626 -1.18392 0
M  V30 5035 C 465.843 -2.96811 -1.76061 0
M  V30 5036 C 464.956 -4.13665 -1.24519 0
M  V30 5037 C 464.091 -4.74944 -2.3791 0
M  V30 5038 C 463.13 -5.83963 -1.83451 0
M  V30 5039 N 462.267 -6.39239 -2.90376 0
M  V30 5040 H 467.107 -2.98 -0.00114915 0
M  V30 5041 H 464.644 -1.47096 0.0112006 0
M  V30 5042 H 466.602 -3.37751 -2.44909 0
M  V30 5043 H 465.232 -2.24344 -2.32098 0
M  V30 5044 H 464.284 -3.77737 -0.449288 0
M  V30 5045 H 465.596 -4.92238 -0.806424 0
M  V30 5046 H 464.75 -5.18684 -3.14724 0
M  V30 5047 H 463.489 -3.95682 -2.85109 0
M  V30 5048 H 462.494 -5.39657 -1.05122 0
M  V30 5049 H 463.719 -6.65103 -1.37169 0
M  V30 5050 H 461.665 -5.62864 -3.36927 0
M  V30 5051 H 461.582 -7.13129 -2.50965 0
M  V30 5052 H 462.85 -6.87637 -3.67118 0
M  V30 5053 N 467.08 -0.0183926 -1.57589 0
M  V30 5054 C 468.32 0.666846 -1.93216 0
M  V30 5055 C 468.684 1.69905 -0.894215 0
M  V30 5056 O 469.885 2.436 -1.13633 0
M  V30 5057 C 468.156 1.27684 -3.33814 0
M  V30 5058 S 469.715 1.98464 -3.91353 0
M  V30 5059 H 466.533 0.219826 -0.676164 0
M  V30 5060 H 469.135 -0.0794893 -1.95338 0
M  V30 5061 H 467.839 0.513006 -4.07181 0
M  V30 5062 H 467.37 2.06071 -3.3511 0
M  V30 5063 H 469.385 3.26189 -3.73918 0
M  V30 5064 N 468.558 1.5553 0.254621 0
M  V30 5065 C 469.488 1.9268 1.31897 0
M  V30 5066 C 470.469 0.790797 1.506 0
M  V30 5067 O 471.654 1.05045 1.63337 0
M  V30 5068 C 468.784 2.21477 2.67517 0
M  V30 5069 C 467.738 3.37256 2.63519 0
M  V30 5070 C 467.064 3.51576 4.02862 0
M  V30 5071 C 468.364 4.73157 2.21179 0
M  V30 5072 H 470.058 2.81832 1.01051 0
M  V30 5073 H 467.604 1.35599 0.484662 0
M  V30 5074 H 469.557 2.46055 3.42104 0
M  V30 5075 H 468.281 1.29144 2.99982 0
M  V30 5076 H 466.94 3.12675 1.9139 0
M  V30 5077 H 466.588 2.56676 4.32581 0
M  V30 5078 H 466.288 4.2943 4.01078 0
M  V30 5079 H 467.812 3.78467 4.79161 0
M  V30 5080 H 469.226 4.97158 2.85494 0
M  V30 5081 H 467.623 5.54058 2.30521 0
M  V30 5082 H 468.693 4.70739 1.16332 0
M  V30 5083 N 470.036 -0.519951 1.48776 0
M  V30 5084 C 471.285 -1.27175 1.56555 0
M  V30 5085 C 471.598 -1.9401 0.248869 0
M  V30 5086 O 472.804 -2.70725 0.205004 0
M  V30 5087 C 471.26 -2.30811 2.76142 0
M  V30 5088 C 470.868 -1.7 4.14493 0
M  V30 5089 C 472.612 -3.06937 2.9324 0
M  V30 5090 C 470.519 -2.71635 5.25327 0
M  V30 5091 H 469.449 -0.478329 0.582853 0
M  V30 5092 H 472.1 -0.547916 1.75129 0
M  V30 5093 H 470.482 -3.06274 2.51023 0
M  V30 5094 H 471.656 -1.00658 4.49672 0
M  V30 5095 H 469.971 -1.06331 4.02595 0
M  V30 5096 H 472.568 -3.82905 3.73213 0
M  V30 5097 H 472.911 -3.63409 2.03075 0
M  V30 5098 H 473.444 -2.38589 3.18308 0
M  V30 5099 H 470.183 -2.1997 6.1749 0
M  V30 5100 H 469.703 -3.39275 4.94624 0
M  V30 5101 H 471.382 -3.34429 5.53865 0
M  V30 5102 N 471.514 -1.37532 -0.769588 0
M  V30 5103 C 472.477 -1.33292 -1.86456 0
M  V30 5104 C 473.477 -0.236537 -1.59051 0
M  V30 5105 O 474.667 -0.492511 -1.67093 0
M  V30 5106 C 471.799 -1.07118 -3.23633 0
M  V30 5107 H 472.992 -2.30692 -1.91628 0
M  V30 5108 H 470.545 -1.22593 -0.969572 0
M  V30 5109 H 471.28 -0.102578 -3.24138 0
M  V30 5110 H 471.065 -1.86479 -3.44917 0
M  V30 5111 H 472.555 -1.06806 -4.03711 0
M  V30 5112 N 472.992 0.995999 -1.22138 0
M  V30 5113 C 473.902 2.11985 -1.00496 0
M  V30 5114 C 474.918 1.7394 0.0457701 0
M  V30 5115 O 476.094 2.00868 -0.146273 0
M  V30 5116 C 473.159 3.41779 -0.582086 0
M  V30 5117 C 472.22 3.93943 -1.70608 0
M  V30 5118 C 471.453 5.17542 -1.30328 0
M  V30 5119 O 471.676 5.70114 -0.180743 0
M  V30 5120 O 470.61 5.63382 -2.11861 0
M  V30 5121 H 474.436 2.33123 -1.94647 0
M  V30 5122 H 472.021 1.10358 -1.00705 0
M  V30 5123 H 473.903 4.1989 -0.356467 0
M  V30 5124 H 472.578 3.22007 0.330592 0
M  V30 5125 H 471.485 3.17019 -1.98619 0
M  V30 5126 H 472.818 4.18141 -2.59651 0
M  V30 5127 N 474.47 1.03057 1.19235 0
M  V30 5128 C 475.433 0.617418 2.20727 0
M  V30 5129 C 476.433 -0.319856 1.57587 0
M  V30 5130 O 477.623 -0.106633 1.73873 0
M  V30 5131 C 474.755 -0.096296 3.40764 0
M  V30 5132 H 475.948 1.51544 2.58794 0
M  V30 5133 H 473.501 0.821949 1.32942 0
M  V30 5134 H 474.236 -1.00859 3.08217 0
M  V30 5135 H 474.021 0.577217 3.87828 0
M  V30 5136 H 475.511 -0.372219 4.15938 0
M  V30 5137 N 475.948 -1.35272 0.808662 0
M  V30 5138 C 477.194 -1.99434 0.399717 0
M  V30 5139 C 477.549 -1.62992 -1.02232 0
M  V30 5140 O 476.842 -0.884091 -1.69983 0
M  V30 5141 C 477.036 -3.53556 0.522798 0
M  V30 5142 C 476.865 -4.04969 1.95525 0
M  V30 5143 C 475.635 -4.34228 2.58407 0
M  V30 5144 C 477.833 -4.23362 2.92009 0
M  V30 5145 N 475.815 -4.71585 3.93041 0
M  V30 5146 C 477.186 -4.63739 4.11517 0
M  V30 5147 C 479.241 -4.05576 2.88813 0
M  V30 5148 C 477.944 -4.88189 5.28265 0
M  V30 5149 C 479.97 -4.31184 4.04765 0
M  V30 5150 C 479.332 -4.71834 5.23022 0
M  V30 5151 H 475.431 -0.757534 0.19408 0
M  V30 5152 H 478.015 -1.63939 1.05034 0
M  V30 5153 H 476.186 -3.88277 -0.0978471 0
M  V30 5154 H 477.918 -4.04604 0.0882378 0
M  V30 5155 H 474.673 -4.24621 2.09747 0
M  V30 5156 H 475.097 -4.9452 4.62363 0
M  V30 5157 H 479.739 -3.73288 1.98535 0
M  V30 5158 H 477.457 -5.1935 6.19113 0
M  V30 5159 H 481.043 -4.18972 4.03675 0
M  V30 5160 H 479.923 -4.91263 6.11253 0
M  V30 5161 N 477.426 -0.562348 -1.47226 0
M  V30 5162 C 478.666 -0.0426374 -2.04356 0
M  V30 5163 C 479.03 1.28487 -1.42671 0
M  V30 5164 O 480.231 1.89259 -1.90878 0
M  V30 5165 C 478.502 0.0433826 -3.57374 0
M  V30 5166 S 480.061 0.508472 -4.35844 0
M  V30 5167 H 476.879 -0.0276234 -0.710463 0
M  V30 5168 H 479.481 -0.750245 -1.80531 0
M  V30 5169 H 478.185 -0.927072 -3.99792 0
M  V30 5170 H 477.716 0.774387 -3.85703 0
M  V30 5171 H 479.731 1.76719 -4.63665 0
M  V30 5172 N 478.904 1.54736 -0.299062 0
M  V30 5173 C 480.129 2.04975 0.316254 0
M  V30 5174 C 480.554 1.17501 1.46885 0
M  V30 5175 O 479.912 0.178678 1.80417 0
M  V30 5176 C 479.96 3.52672 0.751997 0
M  V30 5177 O 479.064 3.68226 1.85697 0
M  V30 5178 H 478.405 0.661126 0.0617175 0
M  V30 5179 H 480.935 1.99805 -0.440341 0
M  V30 5180 H 480.945 3.94488 1.04133 0
M  V30 5181 H 479.62 4.158 -0.0911482 0
M  V30 5182 H 478.197 3.38316 1.56834 0
M  V30 5183 N 480.382 0.0267497 1.57577 0
M  V30 5184 C 481.628 -0.653371 1.91987 0
M  V30 5185 C 481.961 -1.71915 0.903263 0
M  V30 5186 O 481.236 -1.94358 -0.0743387 0
M  V30 5187 C 481.519 -1.272 3.36886 0
M  V30 5188 C 481.372 -0.215938 4.49281 0
M  V30 5189 C 482.691 -2.19069 3.81703 0
M  V30 5190 H 479.81 -0.236047 0.698177 0
M  V30 5191 H 482.452 0.0835236 1.89816 0
M  V30 5192 H 480.602 -1.90005 3.38866 0
M  V30 5193 H 482.274 0.41449 4.59434 0
M  V30 5194 H 480.517 0.458855 4.31366 0
M  V30 5195 H 481.188 -0.688347 5.47691 0
M  V30 5196 H 483.664 -1.66253 3.81444 0
M  V30 5197 H 482.54 -2.59307 4.83788 0
M  V30 5198 H 482.801 -3.08087 3.17072 0
M  V30 5199 N 481.861 -1.55662 -0.24637 0
M  V30 5200 C 483.277 -1.48098 -0.594907 0
M  V30 5201 C 483.477 -0.717044 -1.8831 0
M  V30 5202 O 482.533 -0.246618 -2.51293 0
M  V30 5203 C 483.846 -2.92507 -0.697146 0
M  V30 5204 C 485.394 -3.02881 -0.789436 0
M  V30 5205 C 485.869 -4.48598 -0.923232 0
M  V30 5206 N 487.36 -4.52538 -0.988088 0
M  V30 5207 C 488.095 -5.62536 -1.11089 0
M  V30 5208 N 487.591 -6.82342 -1.19919 0
M  V30 5209 N 489.384 -5.50334 -1.14408 0
M  V30 5210 H 481.535 -2.0377 0.599278 0
M  V30 5211 H 483.798 -0.925145 0.20691 0
M  V30 5212 H 483.504 -3.51242 0.179396 0
M  V30 5213 H 483.378 -3.43024 -1.5689 0
M  V30 5214 H 485.765 -2.44226 -1.65643 0
M  V30 5215 H 485.846 -2.55574 0.107482 0
M  V30 5216 H 485.49 -5.07864 -0.0607927 0
M  V30 5217 H 485.42 -4.93587 -1.8352 0
M  V30 5218 H 487.911 -3.66248 -0.931167 0
M  V30 5219 H 488.224 -7.61924 -1.29197 0
M  V30 5220 H 486.569 -6.85102 -1.16876 0
M  V30 5221 H 489.76 -4.5567 -1.07158 0
M  V30 5222 H 489.933 -6.36096 -1.23634 0
M  V30 5223 N 483.339 0.512053 -1.4905 0
M  V30 5224 C 484.616 1.27337 -1.48474 0
M  V30 5225 C 484.996 2.1009 -0.206301 0
M  V30 5226 O 484.344 2.136 0.811609 0
M  V30 5227 C 484.554 2.13954 -2.75726 0
M  V30 5228 C 485.902 2.73507 -3.24776 0
M  V30 5229 O 486.926 2.24229 -2.76767 0
M  V30 5230 O 485.785 3.63186 -4.08361 0
M  V30 5231 H 482.879 0.575652 -0.593762 0
M  V30 5232 H 485.425 0.527232 -1.61302 0
M  V30 5233 H 484.197 1.52709 -3.60272 0
M  V30 5234 H 483.82 2.95782 -2.65705 0
M  V30 5235 N 484.817 1.37938 0.762283 0
M  V30 5236 C 485.747 1.37176 1.88958 0
M  V30 5237 C 486.728 0.238945 1.68413 0
M  V30 5238 O 487.913 0.440726 1.89133 0
M  V30 5239 C 485.043 1.18742 3.2637 0
M  V30 5240 C 483.997 2.29136 3.61498 0
M  V30 5241 C 483.323 1.95816 4.97554 0
M  V30 5242 C 484.623 3.71363 3.6727 0
M  V30 5243 H 486.317 2.31509 1.89853 0
M  V30 5244 H 483.863 1.11438 0.912005 0
M  V30 5245 H 485.816 1.16837 4.04879 0
M  V30 5246 H 484.54 0.208683 3.25933 0
M  V30 5247 H 483.199 2.30213 2.85303 0
M  V30 5248 H 482.847 0.964475 4.93667 0
M  V30 5249 H 482.547 2.69745 5.22026 0
M  V30 5250 H 484.071 1.95513 5.78452 0
M  V30 5251 H 485.485 3.72364 4.35911 0
M  V30 5252 H 483.882 4.44425 4.03245 0
M  V30 5253 H 484.952 4.04305 2.67704 0
M  V30 5254 N 486.295 -0.989507 1.22664 0
M  V30 5255 C 487.706 -1.54406 1.04955 0
M  V30 5256 C 488.057 -1.92366 -0.385951 0
M  V30 5257 O 487.182 -1.75111 -1.27142 0
M  V30 5258 C 487.777 -2.80578 1.89899 0
M  V30 5259 C 486.336 -3.32464 1.76478 0
M  V30 5260 C 485.483 -2.05524 1.86159 0
M  V30 5261 H 488.434 -0.810211 1.3646 0
M  V30 5262 H 488.455 -3.53075 1.4184 0
M  V30 5263 H 487.967 -2.52918 2.94371 0
M  V30 5264 H 486.068 -3.65024 0.747528 0
M  V30 5265 H 486.181 -4.02838 2.59342 0
M  V30 5266 H 484.545 -2.19241 1.29636 0
M  V30 5267 H 485.328 -1.80258 2.92168 0
M  V30 5268 N 487.773 -1.03688 -1.18687 0
M  V30 5269 C 488.736 -0.629115 -2.20397 0
M  V30 5270 C 489.736 0.311495 -1.57754 0
M  V30 5271 O 490.926 0.0974107 -1.73927 0
M  V30 5272 C 488.058 0.0782231 -3.4081 0
M  V30 5273 H 489.251 -1.52915 -2.57987 0
M  V30 5274 H 486.804 -0.828988 -1.32505 0
M  V30 5275 H 487.539 0.992233 -3.08748 0
M  V30 5276 H 487.324 -0.597776 -3.87517 0
M  V30 5277 H 488.814 0.350156 -4.16129 0
M  V30 5278 N 489.251 1.34841 -0.815825 0
M  V30 5279 C 490.181 2.32187 -0.247298 0
M  V30 5280 C 491.162 1.5791 0.632344 0
M  V30 5281 O 492.347 1.8593 0.560698 0
M  V30 5282 C 489.477 3.42122 0.597466 0
M  V30 5283 C 488.431 4.27602 -0.184446 0
M  V30 5284 C 487.757 5.28942 0.782609 0
M  V30 5285 C 489.057 5.03502 -1.38865 0
M  V30 5286 H 490.751 2.79985 -1.06061 0
M  V30 5287 H 488.297 1.34611 -0.511461 0
M  V30 5288 H 490.25 4.09232 1.00533 0
M  V30 5289 H 488.974 2.92956 1.44376 0
M  V30 5290 H 487.633 3.62085 -0.573592 0
M  V30 5291 H 487.281 4.7604 1.62466 0
M  V30 5292 H 486.981 5.87008 0.263695 0
M  V30 5293 H 488.505 5.98922 1.18848 0
M  V30 5294 H 489.919 5.63506 -1.05518 0
M  V30 5295 H 488.316 5.71108 -1.8427 0
M  V30 5296 H 489.386 4.33608 -2.17054 0
M  V30 5297 N 490.729 0.570148 1.46925 0
M  V30 5298 C 491.661 -0.207909 2.28255 0
M  V30 5299 C 492.674 -0.867301 1.37774 0
M  V30 5300 O 493.863 -0.738976 1.62485 0
M  V30 5301 C 490.963 -1.31298 3.12433 0
M  V30 5302 C 490.136 -0.747915 4.30958 0
M  V30 5303 C 489.195 -1.7391 4.9663 0
M  V30 5304 O 488.221 -1.2801 5.54619 0
M  V30 5305 N 489.423 -3.07288 4.92498 0
M  V30 5306 H 492.188 0.489794 2.95671 0
M  V30 5307 H 489.749 0.407076 1.56699 0
M  V30 5308 H 491.741 -1.97507 3.53232 0
M  V30 5309 H 490.311 -1.91373 2.47175 0
M  V30 5310 H 489.531 0.0913066 3.94094 0
M  V30 5311 H 490.819 -0.349958 5.07595 0
M  V30 5312 H 490.217 -3.47213 4.46609 0
M  V30 5313 H 488.774 -3.69021 5.37277 0
M  V30 5314 N 492.207 -1.54576 0.307264 0
M  V30 5315 C 493.117 -2.27435 -0.57536 0
M  V30 5316 C 494.133 -1.31183 -1.14311 0
M  V30 5317 O 495.309 -1.64175 -1.16656 0
M  V30 5318 C 492.374 -3.00566 -1.72803 0
M  V30 5319 C 491.435 -4.12369 -1.19373 0
M  V30 5320 C 490.668 -4.82003 -2.29147 0
M  V30 5321 O 490.891 -4.51038 -3.49171 0
M  V30 5322 O 489.825 -5.69271 -1.95485 0
M  V30 5323 H 493.651 -3.03696 0.0158558 0
M  V30 5324 H 491.236 -1.49219 0.0735064 0
M  V30 5325 H 493.118 -3.46416 -2.39946 0
M  V30 5326 H 491.793 -2.27195 -2.30574 0
M  V30 5327 H 490.7 -3.70905 -0.487851 0
M  V30 5328 H 492.033 -4.87736 -0.661376 0
M  V30 5329 N 493.685 -0.035106 -1.57561 0
M  V30 5330 C 494.648 0.929819 -2.09492 0
M  V30 5331 C 495.648 1.25026 -1.01119 0
M  V30 5332 O 496.838 1.18961 -1.27255 0
M  V30 5333 C 493.97 2.24457 -2.56577 0
M  V30 5334 H 495.163 0.479935 -2.96035 0
M  V30 5335 H 492.716 0.213033 -1.54841 0
M  V30 5336 H 493.451 2.74061 -1.73382 0
M  V30 5337 H 493.236 2.02508 -3.35757 0
M  V30 5338 H 494.726 2.93607 -2.96959 0
M  V30 5339 N 495.163 1.55791 0.238111 0
M  V30 5340 C 496.093 1.94068 1.29846 0
M  V30 5341 C 497.074 0.806726 1.49753 0
M  V30 5342 O 498.259 1.06772 1.62214 0
M  V30 5343 C 495.389 2.24302 2.65153 0
M  V30 5344 C 494.343 3.40032 2.59927 0
M  V30 5345 C 493.669 3.55829 3.99111 0
M  V30 5346 C 494.969 4.75476 2.16148 0
M  V30 5347 H 496.663 2.82887 0.980563 0
M  V30 5348 H 494.209 1.36105 0.470253 0
M  V30 5349 H 496.162 2.4967 3.39475 0
M  V30 5350 H 494.886 1.32318 2.98596 0
M  V30 5351 H 493.545 3.14687 1.88063 0
M  V30 5352 H 493.193 2.6125 4.29834 0
M  V30 5353 H 492.893 4.3366 3.96501 0
M  V30 5354 H 494.417 3.83528 4.7512 0
M  V30 5355 H 495.831 5.00158 2.80205 0
M  V30 5356 H 494.228 5.56472 2.24631 0
M  V30 5357 H 495.298 4.71946 1.11333 0
M  V30 5358 N 496.642 -0.504142 1.49319 0
M  V30 5359 C 498.058 -0.835039 1.36012 0
M  V30 5360 C 498.258 -1.97674 0.390808 0
M  V30 5361 O 497.314 -2.51867 -0.178655 0
M  V30 5362 C 498.627 -1.17821 2.76656 0
M  V30 5363 C 500.175 -1.2866 2.85334 0
M  V30 5364 C 500.65 -1.66307 4.26739 0
M  V30 5365 N 502.141 -1.73362 4.29534 0
M  V30 5366 C 502.876 -2.0393 5.35911 0
M  V30 5367 N 502.372 -2.32744 6.52535 0
M  V30 5368 N 504.165 -2.05155 5.23324 0
M  V30 5369 H 496.316 0.248764 2.10938 0
M  V30 5370 H 498.579 0.0486962 0.946748 0
M  V30 5371 H 498.285 -0.412682 3.4927 0
M  V30 5372 H 498.159 -2.12239 3.11825 0
M  V30 5373 H 500.546 -2.04285 2.1296 0
M  V30 5374 H 500.627 -0.323004 2.53752 0
M  V30 5375 H 500.271 -0.91234 4.99639 0
M  V30 5376 H 500.201 -2.63761 4.55782 0
M  V30 5377 H 502.692 -1.53268 3.45424 0
M  V30 5378 H 503.005 -2.55248 7.2943 0
M  V30 5379 H 501.35 -2.30207 6.55767 0
M  V30 5380 H 504.541 -1.82119 4.3122 0
M  V30 5381 H 504.714 -2.28644 6.06322 0
M  V30 5382 N 498.12 -1.38341 -0.754957 0
M  V30 5383 C 499.397 -1.24995 -1.50451 0
M  V30 5384 C 499.777 0.149244 -2.10572 0
M  V30 5385 O 499.125 1.15861 -1.96948 0
M  V30 5386 C 499.335 -2.35904 -2.57197 0
M  V30 5387 C 500.683 -2.74262 -3.24138 0
M  V30 5388 O 501.707 -2.35205 -2.67501 0
M  V30 5389 O 500.566 -3.4161 -4.26574 0
M  V30 5390 H 497.66 -0.48872 -0.667144 0
M  V30 5391 H 500.206 -1.50165 -0.790486 0
M  V30 5392 H 498.978 -3.2953 -2.11011 0
M  V30 5393 H 498.601 -2.12291 -3.36182 0
M  V30 5394 N 499.598 0.982988 -1.23187 0
M  V30 5395 C 500.823 1.76455 -1.08988 0
M  V30 5396 C 501.248 1.84726 0.354691 0
M  V30 5397 O 500.606 1.30699 1.25649 0
M  V30 5398 C 500.654 3.17094 -1.71708 0
M  V30 5399 O 499.758 4.00648 -0.977477 0
M  V30 5400 H 499.099 0.542988 -0.382177 0
M  V30 5401 H 501.629 1.23413 -1.63188 0
M  V30 5402 H 501.639 3.67684 -1.76841 0
M  V30 5403 H 500.314 3.10389 -2.76823 0
M  V30 5404 H 498.891 3.59161 -1.0029 0
M  V30 5405 N 501.076 1.04316 1.18135 0
M  V30 5406 C 502.301 0.768047 1.92655 0
M  V30 5407 C 502.726 -0.66904 1.758 0
M  V30 5408 O 502.084 -1.46372 1.06981 0
M  V30 5409 C 502.132 1.14239 3.42026 0
M  V30 5410 O 501.236 0.269333 4.1152 0
M  V30 5411 H 500.577 0.282436 0.600937 0
M  V30 5412 H 503.107 1.39367 1.49793 0
M  V30 5413 H 503.117 1.10538 3.92741 0
M  V30 5414 H 501.792 2.18928 3.53615 0
M  V30 5415 H 500.369 0.366175 3.71098 0
M  V30 5416 N 502.554 -1.34406 0.822964 0
M  V30 5417 C 503.487 -2.27407 0.190124 0
M  V30 5418 C 504.465 -1.4889 -0.653486 0
M  V30 5419 O 505.649 -1.78109 -0.617216 0
M  V30 5420 C 502.776 -3.3064 -0.734477 0
M  V30 5421 C 501.822 -4.26488 0.0316099 0
M  V30 5422 S 502.655 -5.17445 1.3788 0
M  V30 5423 C 503.811 -6.24214 0.45907 0
M  V30 5424 H 504.044 -2.80733 0.978586 0
M  V30 5425 H 501.577 -1.41455 0.618866 0
M  V30 5426 H 503.535 -3.90607 -1.26238 0
M  V30 5427 H 502.196 -2.76161 -1.49646 0
M  V30 5428 H 501.389 -4.9951 -0.671285 0
M  V30 5429 H 500.991 -3.70775 0.490066 0
M  V30 5430 H 503.283 -6.76599 -0.349357 0
M  V30 5431 H 504.226 -6.98551 1.15896 0
M  V30 5432 H 504.634 -5.6448 0.0474825 0
M  V30 5433 N 504.032 -0.577932 -1.46621 0
M  V30 5434 C 504.942 0.160651 -2.34049 0
M  V30 5435 C 505.958 0.890911 -1.49462 0
M  V30 5436 O 507.134 0.855166 -1.82343 0
M  V30 5437 C 504.199 1.16447 -3.26559 0
M  V30 5438 C 503.26 0.4394 -4.27045 0
M  V30 5439 C 502.493 1.3954 -5.15135 0
M  V30 5440 O 502.716 2.63162 -5.06065 0
M  V30 5441 O 501.65 0.908585 -5.95003 0
M  V30 5442 H 505.476 -0.557057 -2.98547 0
M  V30 5443 H 503.061 -0.338369 -1.45518 0
M  V30 5444 H 504.943 1.7434 -3.83645 0
M  V30 5445 H 503.618 1.86373 -2.64663 0
M  V30 5446 H 502.525 -0.181247 -3.73661 0
M  V30 5447 H 503.858 -0.218799 -4.91713 0
M  V30 5448 N 505.51 1.54411 -0.315457 0
M  V30 5449 C 506.42 2.27737 0.56329 0
M  V30 5450 C 507.436 1.31787 1.13614 0
M  V30 5451 O 508.612 1.64791 1.15784 0
M  V30 5452 C 505.677 3.01478 1.71207 0
M  V30 5453 C 504.738 4.12997 1.17185 0
M  V30 5454 C 503.971 4.83212 2.26588 0
M  V30 5455 O 504.194 4.52884 3.46775 0
M  V30 5456 O 503.128 5.70299 1.92463 0
M  V30 5457 H 506.954 3.03683 -0.0319614 0
M  V30 5458 H 504.539 1.49178 -0.0814188 0
M  V30 5459 H 506.421 3.47683 2.38106 0
M  V30 5460 H 505.096 2.28414 2.29366 0
M  V30 5461 H 504.003 3.71159 0.468174 0
M  V30 5462 H 505.336 4.8808 0.635501 0
M  V30 5463 N 506.988 0.0434614 1.5754 0
M  V30 5464 C 508.236 -0.630786 1.92004 0
M  V30 5465 C 508.557 -1.71836 0.921807 0
M  V30 5466 O 507.827 -1.9587 -0.034522 0
M  V30 5467 H 506.407 -0.235988 0.708745 0
M  V30 5468 H 509.069 0.0946462 1.9467 0
M  V30 5469 H 508.165 -1.07434 2.93026 0
M  V30 5470 N 508.466 -1.55915 -0.229846 0
M  V30 5471 C 509.712 -1.78807 -0.956868 0
M  V30 5472 C 510.045 -0.611687 -1.84315 0
M  V30 5473 O 509.32 0.389398 -1.90562 0
M  V30 5474 C 509.603 -3.11718 -1.80288 0
M  V30 5475 C 509.456 -4.3979 -0.943649 0
M  V30 5476 C 510.775 -3.40999 -2.78222 0
M  V30 5477 H 507.894 -0.6505 -0.346437 0
M  V30 5478 H 510.536 -1.88648 -0.226252 0
M  V30 5479 H 508.686 -3.03459 -2.42579 0
M  V30 5480 H 510.358 -4.60059 -0.338121 0
M  V30 5481 H 508.601 -4.33086 -0.248705 0
M  V30 5482 H 509.272 -5.29208 -1.5698 0
M  V30 5483 H 511.748 -3.49332 -2.26067 0
M  V30 5484 H 510.624 -4.35183 -3.34526 0
M  V30 5485 H 510.885 -2.62754 -3.55546 0
M  V30 5486 N 509.944 0.496216 -1.49584 0
M  V30 5487 C 511.169 1.27865 -1.63295 0
M  V30 5488 C 511.594 1.85592 -0.306156 0
M  V30 5489 O 510.952 1.66092 0.726851 0
M  V30 5490 C 511 2.38128 -2.7079 0
M  V30 5491 O 510.104 3.42108 -2.30296 0
M  V30 5492 H 509.445 0.377279 -0.546403 0
M  V30 5493 H 511.975 0.593497 -1.95803 0
M  V30 5494 H 511.985 2.8382 -2.93104 0
M  V30 5495 H 510.66 1.95479 -3.67098 0
M  V30 5496 H 509.237 3.02301 -2.18331 0
M  V30 5497 N 511.423 1.38739 0.74761 0
M  V30 5498 C 512.386 1.36241 1.84312 0
M  V30 5499 C 513.386 0.261811 1.58654 0
M  V30 5500 O 514.576 0.519031 1.66288 0
M  V30 5501 C 511.708 1.12253 3.21888 0
M  V30 5502 H 512.901 2.33712 1.87933 0
M  V30 5503 H 510.454 1.2412 0.949946 0
M  V30 5504 H 511.189 0.154133 3.23934 0
M  V30 5505 H 510.974 1.91943 3.41907 0
M  V30 5506 H 512.464 1.13215 4.0196 0
M  V30 5507 N 512.901 -0.976442 1.23707 0
M  V30 5508 C 514.147 -1.72081 1.07312 0
M  V30 5509 C 514.48 -1.90275 -0.388476 0
M  V30 5510 O 513.755 -1.4579 -1.28746 0
M  V30 5511 C 514.038 -3.11675 1.80363 0
M  V30 5512 C 513.891 -3.01027 3.3422 0
M  V30 5513 C 515.21 -4.1117 1.5693 0
M  V30 5514 H 512.329 -0.624583 0.391236 0
M  V30 5515 H 514.971 -1.13649 1.52263 0
M  V30 5516 H 513.121 -3.61559 1.42153 0
M  V30 5517 H 514.793 -2.58637 3.81975 0
M  V30 5518 H 513.036 -2.3744 3.63049 0
M  V30 5519 H 513.707 -3.9988 3.80525 0
M  V30 5520 H 516.183 -3.7011 1.90151 0
M  V30 5521 H 515.059 -5.06928 2.10513 0
M  V30 5522 H 515.32 -4.392 0.505548 0
M  V30 5523 N 514.379 -1.04941 -1.1758 0
M  V30 5524 C 515.342 -0.652456 -2.19717 0
M  V30 5525 C 516.342 0.294745 -1.58076 0
M  V30 5526 O 517.532 0.0789579 -1.74021 0
M  V30 5527 C 514.664 0.0420712 -3.40874 0
M  V30 5528 H 515.857 -1.55642 -2.5635 0
M  V30 5529 H 513.41 -0.842995 -1.31618 0
M  V30 5530 H 514.145 0.95943 -3.09783 0
M  V30 5531 H 513.93 -0.638844 -3.86861 0
M  V30 5532 H 515.42 0.306 -4.16477 0
M  V30 5533 N 515.857 1.33968 -0.830081 0
M  V30 5534 C 516.807 2.26845 -0.229242 0
M  V30 5535 C 517.791 1.48862 0.610659 0
M  V30 5536 O 518.983 1.70808 0.464067 0
M  V30 5537 C 516.112 3.3798 0.602057 0
M  V30 5538 C 515.198 4.23369 -0.248866 0
M  V30 5539 N 515.589 4.88182 -1.32334 0
M  V30 5540 C 513.887 4.45987 -0.0344077 0
M  V30 5541 C 514.588 5.51671 -1.84482 0
M  V30 5542 N 513.564 5.31348 -1.14762 0
M  V30 5543 H 517.366 2.74464 -1.05104 0
M  V30 5544 H 514.88 1.4777 -0.673623 0
M  V30 5545 H 516.877 4.03494 1.04873 0
M  V30 5546 H 515.537 2.9191 1.42193 0
M  V30 5547 H 516.548 4.88988 -1.70619 0
M  V30 5548 H 513.225 4.10658 0.752727 0
M  V30 5549 H 514.615 6.13308 -2.74413 0
M  V30 5550 N 517.335 0.585699 1.46312 0
M  V30 5551 C 518.751 0.247607 1.57668 0
M  V30 5552 C 518.951 -1.25007 1.58037 0
M  V30 5553 O 518.007 -2.03196 1.49893 0
M  V30 5554 C 519.32 0.899456 2.86933 0
M  V30 5555 C 520.868 0.873326 3.00569 0
M  V30 5556 C 521.343 1.50477 4.32574 0
M  V30 5557 N 522.834 1.46925 4.3928 0
M  V30 5558 C 523.569 1.92719 5.40044 0
M  V30 5559 N 523.065 2.46499 6.47464 0
M  V30 5560 N 524.858 1.83617 5.31264 0
M  V30 5561 H 517.009 1.55841 1.44317 0
M  V30 5562 H 519.272 0.651564 0.688599 0
M  V30 5563 H 518.978 1.95313 2.92482 0
M  V30 5564 H 518.852 0.409476 3.74971 0
M  V30 5565 H 521.239 -0.171736 2.946 0
M  V30 5566 H 521.32 1.40136 2.13999 0
M  V30 5567 H 520.964 2.54905 4.39302 0
M  V30 5568 H 520.894 0.951944 5.17924 0
M  V30 5569 H 523.385 1.07616 3.62253 0
M  V30 5570 H 523.698 2.79291 7.20567 0
M  V30 5571 H 522.043 2.50526 6.48276 0
M  V30 5572 H 525.234 1.41358 4.46246 0
M  V30 5573 H 525.407 2.19622 6.09648 0
M  V30 5574 N 518.813 -1.54241 0.323641 0
M  V30 5575 C 520.062 -1.9975 -0.279806 0
M  V30 5576 C 520.375 -1.2156 -1.5324 0
M  V30 5577 O 521.581 -1.57447 -2.21185 0
M  V30 5578 C 520.037 -3.55686 -0.549115 0
M  V30 5579 C 519.645 -4.4271 0.686432 0
M  V30 5580 C 521.389 -4.09663 -1.11251 0
M  V30 5581 C 519.296 -5.90119 0.389022 0
M  V30 5582 H 518.226 -0.746177 -0.10833 0
M  V30 5583 H 520.877 -1.78248 0.435877 0
M  V30 5584 H 519.259 -3.73176 -1.32499 0
M  V30 5585 H 520.433 -4.36996 1.46188 0
M  V30 5586 H 518.748 -3.99623 1.17005 0
M  V30 5587 H 521.345 -5.17386 -1.34965 0
M  V30 5588 H 521.688 -3.61651 -2.06191 0
M  V30 5589 H 522.221 -3.95806 -0.39782 0
M  V30 5590 H 518.96 -6.42326 1.30759 0
M  V30 5591 H 518.48 -5.98785 -0.348722 0
M  V30 5592 H 520.159 -6.47 -0.0011164 0
M  V30 5593 N 520.291 -0.0518155 -1.57515 0
M  V30 5594 C 521.702 0.483787 -1.80323 0
M  V30 5595 C 522.053 1.70879 -0.964099 0
M  V30 5596 O 521.178 2.15643 -0.180872 0
M  V30 5597 C 521.773 0.884459 -3.27052 0
M  V30 5598 C 520.332 1.36504 -3.50776 0
M  V30 5599 C 519.479 0.340539 -2.75201 0
M  V30 5600 H 522.43 -0.277691 -1.56252 0
M  V30 5601 H 522.451 1.74733 -3.38007 0
M  V30 5602 H 521.963 -0.00731093 -3.88099 0
M  V30 5603 H 520.064 2.27598 -2.95009 0
M  V30 5604 H 520.177 1.35675 -4.59488 0
M  V30 5605 H 518.541 0.81356 -2.41357 0
M  V30 5606 H 519.324 -0.543156 -3.38976 0
M  V30 5607 N 521.769 1.56035 0.221574 0
M  V30 5608 C 523.009 1.80822 0.953038 0
M  V30 5609 C 523.373 0.625316 1.81532 0
M  V30 5610 O 524.574 0.752491 2.58052 0
M  V30 5611 C 522.845 3.10503 1.76983 0
M  V30 5612 S 524.404 3.56604 2.55693 0
M  V30 5613 H 521.222 0.634849 0.320137 0
M  V30 5614 H 523.824 1.94274 0.218619 0
M  V30 5615 H 522.528 3.94636 1.12651 0
M  V30 5616 H 522.059 2.99858 2.54655 0
M  V30 5617 H 524.074 3.1994 3.79279 0
M  V30 5618 N 523.247 -0.488276 1.49845 0
M  V30 5619 C 524.663 -0.820566 1.3689 0
M  V30 5620 C 524.863 -1.97248 0.411752 0
M  V30 5621 O 523.919 -2.52042 -0.151931 0
M  V30 5622 C 525.232 -1.1488 2.77891 0
M  V30 5623 C 526.78 -1.25626 2.86683 0
M  V30 5624 C 527.255 -1.61772 4.28479 0
M  V30 5625 N 528.746 -1.68797 4.31349 0
M  V30 5626 C 529.481 -1.98235 5.38043 0
M  V30 5627 N 528.977 -2.2581 6.54967 0
M  V30 5628 N 530.77 -1.99593 5.2547 0
M  V30 5629 H 522.921 0.271123 2.10662 0
M  V30 5630 H 525.184 0.058735 0.946179 0
M  V30 5631 H 524.89 -0.375614 3.49688 0
M  V30 5632 H 524.764 -2.08919 3.14058 0
M  V30 5633 H 527.151 -2.02014 2.15114 0
M  V30 5634 H 527.232 -0.296072 2.54081 0
M  V30 5635 H 526.876 -0.859295 5.00578 0
M  V30 5636 H 526.806 -2.58912 4.58554 0
M  V30 5637 H 529.297 -1.49595 3.4703 0
M  V30 5638 H 529.61 -2.47497 7.32096 0
M  V30 5639 H 527.955 -2.23239 6.58171 0
M  V30 5640 H 531.146 -1.77535 4.33127 0
M  V30 5641 H 531.319 -2.222 6.08713 0
M  V30 5642 N 524.725 -1.39134 -0.740242 0
M  V30 5643 C 526.002 -1.26584 -1.49117 0
M  V30 5644 C 526.382 0.126902 -2.10718 0
M  V30 5645 O 525.73 1.13765 -1.98166 0
M  V30 5646 C 525.94 -2.38619 -2.54681 0
M  V30 5647 C 527.288 -2.77685 -3.21211 0
M  V30 5648 O 528.312 -2.38029 -2.64991 0
M  V30 5649 O 527.171 -3.46115 -4.22926 0
M  V30 5650 H 524.265 -0.495769 -0.661923 0
M  V30 5651 H 526.811 -1.50995 -0.774514 0
M  V30 5652 H 525.583 -3.3175 -2.07504 0
M  V30 5653 H 525.206 -2.15845 -3.33911 0
M  V30 5654 N 526.204 0.969867 -1.24223 0
M  V30 5655 C 527.137 2.06279 -0.975926 0
M  V30 5656 C 528.115 1.62353 0.0895385 0
M  V30 5657 O 529.299 1.88442 -0.0469418 0
M  V30 5658 C 526.426 3.35391 -0.472315 0
M  V30 5659 C 525.472 3.98266 -1.526 0
M  V30 5660 S 526.305 4.36172 -3.10667 0
M  V30 5661 C 527.461 5.68423 -2.62003 0
M  V30 5662 H 527.694 2.28551 -1.90137 0
M  V30 5663 H 525.227 1.10748 -1.07584 0
M  V30 5664 H 527.185 4.10068 -0.188376 0
M  V30 5665 H 525.846 3.1111 0.432378 0
M  V30 5666 H 525.039 4.91307 -1.12399 0
M  V30 5667 H 524.641 3.30009 -1.75983 0
M  V30 5668 H 526.933 6.45842 -2.0468 0
M  V30 5669 H 527.876 6.13478 -3.53625 0
M  V30 5670 H 528.284 5.26928 -2.02502 0
M  V30 5671 N 527.682 1.05563 1.17022 0
M  V30 5672 C 529.093 0.793475 1.69 0
M  V30 5673 C 529.444 -0.683882 1.83895 0
M  V30 5674 O 528.569 -1.53116 1.5292 0
M  V30 5675 C 529.164 1.43376 3.06967 0
M  V30 5676 C 527.723 1.21956 3.56095 0
M  V30 5677 C 526.87 1.51494 2.3226 0
M  V30 5678 H 529.821 1.22008 1.01487 0
M  V30 5679 H 529.842 0.845068 3.70997 0
M  V30 5680 H 529.354 2.50899 2.96093 0
M  V30 5681 H 527.455 0.163749 3.7224 0
M  V30 5682 H 527.568 1.92713 4.38633 0
M  V30 5683 H 525.932 0.935175 2.3691 0
M  V30 5684 H 526.715 2.60159 2.23992 0
M  V30 5685 N 529.16 -1.33526 0.837174 0
M  V30 5686 C 530.571 -1.80182 0.489017 0
M  V30 5687 C 530.922 -1.69285 -0.991826 0
M  V30 5688 O 530.047 -1.24113 -1.77271 0
M  V30 5689 C 530.642 -3.27149 0.880866 0
M  V30 5690 C 529.201 -3.71828 0.584872 0
M  V30 5691 C 528.348 -2.54974 1.09011 0
M  V30 5692 H 531.299 -1.21071 1.02603 0
M  V30 5693 H 531.32 -3.80024 0.190239 0
M  V30 5694 H 530.832 -3.35048 1.95869 0
M  V30 5695 H 528.933 -3.69457 -0.48295 0
M  V30 5696 H 529.046 -4.65366 1.13892 0
M  V30 5697 H 527.41 -2.4952 0.511047 0
M  V30 5698 H 528.193 -2.65637 2.17467 0
M  V30 5699 N 530.638 -0.59345 -1.46 0
M  V30 5700 C 531.866 -0.0890934 -2.06708 0
M  V30 5701 C 532.281 1.2205 -1.44046 0
M  V30 5702 O 531.638 1.74029 -0.549551 0
M  V30 5703 C 531.689 0.0720263 -3.61428 0
M  V30 5704 O 531.41 -1.18574 -4.21748 0
M  V30 5705 C 532.911 0.609487 -4.3909 0
M  V30 5706 H 530.131 -0.0623628 -0.668096 0
M  V30 5707 H 532.675 -0.817171 -1.87464 0
M  V30 5708 H 530.83 0.750369 -3.80063 0
M  V30 5709 H 531.244 -1.0064 -5.14754 0
M  V30 5710 H 532.718 0.671363 -5.47902 0
M  V30 5711 H 533.195 1.62878 -4.07882 0
M  V30 5712 H 533.801 -0.03434 -4.25286 0
M  V30 5713 N 532.116 1.54067 -0.331816 0
M  V30 5714 C 533.046 2.27569 0.522932 0
M  V30 5715 C 534.027 1.28679 1.11247 0
M  V30 5716 O 535.212 1.57504 1.13605 0
M  V30 5717 C 532.342 3.0397 1.67987 0
M  V30 5718 C 531.296 4.10267 1.21924 0
M  V30 5719 C 530.622 4.74555 2.46377 0
M  V30 5720 C 531.922 5.21268 0.32815 0
M  V30 5721 H 533.616 2.99264 -0.0901977 0
M  V30 5722 H 531.162 1.4393 -0.044821 0
M  V30 5723 H 533.115 3.54123 2.28418 0
M  V30 5724 H 531.839 2.29906 2.31971 0
M  V30 5725 H 530.498 3.61009 0.637809 0
M  V30 5726 H 530.146 3.97098 3.08743 0
M  V30 5727 H 529.846 5.46363 2.16243 0
M  V30 5728 H 531.37 5.27487 3.07555 0
M  V30 5729 H 532.784 5.67128 0.838978 0
M  V30 5730 H 531.181 5.99982 0.119228 0
M  V30 5731 H 532.251 4.80673 -0.638839 0
M  V30 5732 N 533.594 0.0601682 1.57485 0
M  V30 5733 C 534.843 -0.611101 1.9222 0
M  V30 5734 C 535.156 -1.71469 0.941159 0
M  V30 5735 O 536.362 -2.44473 1.18089 0
M  V30 5736 C 534.818 -1.13832 3.41424 0
M  V30 5737 C 534.426 -0.0663596 4.47951 0
M  V30 5738 C 536.17 -1.78432 3.85178 0
M  V30 5739 C 534.077 -0.606965 5.88277 0
M  V30 5740 H 533.007 -0.232033 0.71741 0
M  V30 5741 H 535.658 0.130518 1.83035 0
M  V30 5742 H 534.04 -1.93254 3.45643 0
M  V30 5743 H 535.214 0.707682 4.55333 0
M  V30 5744 H 533.529 0.482715 4.13593 0
M  V30 5745 H 536.126 -2.1989 4.87394 0
M  V30 5746 H 536.469 -2.63966 3.21913 0
M  V30 5747 H 537.002 -1.05651 3.83514 0
M  V30 5748 H 533.741 0.21095 6.5516 0
M  V30 5749 H 533.261 -1.34879 5.84438 0
M  V30 5750 H 534.94 -1.08704 6.37803 0
M  V30 5751 N 535.072 -1.5615 -0.213296 0
M  V30 5752 C 536.488 -1.49327 -0.56336 0
M  V30 5753 C 536.688 -0.756826 -1.86747 0
M  V30 5754 O 535.744 -0.299866 -2.50713 0
M  V30 5755 C 537.057 -2.9392 -0.634944 0
M  V30 5756 C 538.605 -3.04487 -0.725013 0
M  V30 5757 C 539.08 -4.50456 -0.82787 0
M  V30 5758 N 540.571 -4.54533 -0.891876 0
M  V30 5759 C 541.306 -5.64766 -0.991315 0
M  V30 5760 N 540.802 -6.84733 -1.05419 0
M  V30 5761 N 542.595 -5.52637 -1.02709 0
M  V30 5762 H 534.746 -2.02453 0.642366 0
M  V30 5763 H 537.009 -0.920548 0.226487 0
M  V30 5764 H 536.715 -3.50783 0.253859 0
M  V30 5765 H 536.589 -3.46274 -1.49579 0
M  V30 5766 H 538.976 -2.47685 -1.60425 0
M  V30 5767 H 539.057 -2.55289 0.161669 0
M  V30 5768 H 538.701 -5.07878 0.0469464 0
M  V30 5769 H 538.631 -4.97369 -1.73009 0
M  V30 5770 H 541.122 -3.68141 -0.85327 0
M  V30 5771 H 541.435 -7.64493 -1.13007 0
M  V30 5772 H 539.78 -6.87427 -1.02318 0
M  V30 5773 H 542.971 -4.5784 -0.974687 0
M  V30 5774 H 543.144 -6.38576 -1.10113 0
M  V30 5775 N 536.55 0.480323 -1.50102 0
M  V30 5776 C 537.778 1.25657 -1.64371 0
M  V30 5777 C 538.193 1.86011 -0.323316 0
M  V30 5778 O 537.55 1.68803 0.693682 0
M  V30 5779 C 537.601 2.37197 -2.728 0
M  V30 5780 O 537.322 1.7932 -3.9972 0
M  V30 5781 C 538.823 3.2823 -2.9796 0
M  V30 5782 H 536.043 0.380369 -0.552775 0
M  V30 5783 H 538.587 0.574379 -1.96268 0
M  V30 5784 H 536.742 3.01208 -2.43623 0
M  V30 5785 H 537.156 2.52701 -4.59611 0
M  V30 5786 H 538.63 4.02725 -3.77513 0
M  V30 5787 H 539.107 3.86462 -2.08671 0
M  V30 5788 H 539.713 2.69964 -3.28633 0
M  V30 5789 N 538.028 1.39524 0.732853 0
M  V30 5790 C 538.976 1.38563 1.86824 0
M  V30 5791 C 539.97 0.268467 1.67259 0
M  V30 5792 O 541.176 0.438613 1.74574 0
M  V30 5793 H 537.551 0.432737 0.615014 0
M  V30 5794 H 539.522 2.34328 1.84751 0
M  V30 5795 C 538.271 1.2481 3.24527 0
M  V30 5796 H 537.594 2.10044 3.40179 0
M  V30 5797 H 539.034 1.28194 4.04156 0
M  V30 5798 C 537.493 -0.0432825 3.36872 0
M  V30 5799 O 538.023 -1.01268 3.88726 0
M  V30 5800 N 536.229 -0.107055 2.90403 0
M  V30 5801 H 535.776 0.682512 2.48394 0
M  V30 5802 H 535.734 -0.970618 2.99042 0
M  V30 5803 N 539.506 -0.963266 1.24736 0
M  V30 5804 C 540.922 -1.23273 1.01371 0
M  V30 5805 C 541.122 -1.99618 -0.274776 0
M  V30 5806 O 540.178 -2.32293 -0.989769 0
M  V30 5807 C 541.491 -2.01554 2.23152 0
M  V30 5808 C 543.039 -2.14629 2.27823 0
M  V30 5809 C 543.514 -2.96307 3.49237 0
M  V30 5810 N 545.005 -3.03887 3.49581 0
M  V30 5811 C 545.74 -3.67456 4.40186 0
M  V30 5812 N 545.236 -4.32706 5.41052 0
M  V30 5813 N 547.029 -3.64511 4.27888 0
M  V30 5814 H 539.18 -0.452294 2.07528 0
M  V30 5815 H 541.443 -0.262521 0.910926 0
M  V30 5816 H 541.149 -1.52847 3.1675 0
M  V30 5817 H 541.023 -3.02278 2.25628 0
M  V30 5818 H 543.41 -2.62537 1.34753 0
M  V30 5819 H 543.491 -1.13238 2.2937 0
M  V30 5820 H 543.135 -2.49091 4.42624 0
M  V30 5821 H 543.065 -3.97905 3.44933 0
M  V30 5822 H 545.556 -2.57477 2.76611 0
M  V30 5823 H 545.869 -4.79042 6.06415 0
M  V30 5824 H 544.214 -4.31361 5.44934 0
M  V30 5825 H 547.405 -3.12715 3.4832 0
M  V30 5826 H 547.578 -4.13768 4.98698 0
M  V30 5827 N 540.985 -1.06182 -1.16461 0
M  V30 5828 C 542.232 -0.777863 -1.86964 0
M  V30 5829 C 542.56 0.695602 -1.81636 0
M  V30 5830 O 541.815 1.52532 -1.22607 0
M  V30 5831 C 542.114 -1.21633 -3.36066 0
M  V30 5832 C 541.78 -2.69371 -3.61594 0
M  V30 5833 C 540.442 -3.09727 -3.6827 0
M  V30 5834 C 542.794 -3.64791 -3.7226 0
M  V30 5835 C 540.122 -4.44345 -3.83112 0
M  V30 5836 C 542.474 -4.99155 -3.88623 0
M  V30 5837 C 541.138 -5.39149 -3.93541 0
M  V30 5838 H 540.408 -0.28464 -0.68415 0
M  V30 5839 H 543.055 -1.33071 -1.37711 0
M  V30 5840 H 541.36 -0.582651 -3.87443 0
M  V30 5841 H 543.057 -0.973682 -3.88999 0
M  V30 5842 H 539.647 -2.37124 -3.57029 0
M  V30 5843 H 543.831 -3.34746 -3.66413 0
M  V30 5844 H 539.087 -4.74819 -3.85172 0
M  V30 5845 H 543.261 -5.72976 -3.95817 0
M  V30 5846 H 540.888 -6.43464 -4.04794 0
M  V30 5847 N 542.463 1.3308 -0.844243 0
M  V30 5848 C 543.691 2.01808 -0.456203 0
M  V30 5849 C 544.106 1.63498 0.944131 0
M  V30 5850 O 543.463 0.85102 1.61443 0
M  V30 5851 C 543.514 3.56922 -0.573513 0
M  V30 5852 O 543.235 3.93851 -1.91868 0
M  V30 5853 C 544.736 4.42922 -0.183125 0
M  V30 5854 H 541.956 0.646273 -0.180477 0
M  V30 5855 H 544.5 1.69891 -1.1383 0
M  V30 5856 H 542.655 3.87352 0.0607367 0
M  V30 5857 H 543.069 4.88564 -1.90802 0
M  V30 5858 H 544.543 5.51093 -0.316241 0
M  V30 5859 H 545.02 4.30386 0.875477 0
M  V30 5860 H 545.626 4.1786 -0.792027 0
M  V30 5861 N 543.941 0.601185 1.45683 0
M  V30 5862 C 544.904 -0.111398 2.28929 0
M  V30 5863 C 545.904 -0.801246 1.39416 0
M  V30 5864 O 547.094 -0.650383 1.61603 0
M  V30 5865 C 544.226 -1.16773 3.20276 0
M  V30 5866 H 545.419 0.620412 2.93413 0
M  V30 5867 H 542.972 0.359946 1.52099 0
M  V30 5868 H 543.707 -1.93051 2.60579 0
M  V30 5869 H 543.492 -0.677358 3.86205 0
M  V30 5870 H 544.982 -1.66698 3.82886 0
M  V30 5871 N 545.419 -1.53889 0.339982 0
M  V30 5872 C 546.644 -2.05741 -0.261798 0
M  V30 5873 C 547.069 -1.21354 -1.43718 0
M  V30 5874 O 546.427 -0.22645 -1.7988 0
M  V30 5875 C 546.475 -3.54542 -0.658228 0
M  V30 5876 O 545.579 -3.7302 -1.75869 0
M  V30 5877 H 544.92 -0.662529 -0.0441672 0
M  V30 5878 H 547.45 -1.98568 0.493161 0
M  V30 5879 H 547.46 -3.9711 -0.936368 0
M  V30 5880 H 546.135 -4.15412 0.201358 0
M  V30 5881 H 544.712 -3.42355 -1.47809 0
M  V30 5882 N 546.897 -0.0685191 -1.57451 0
M  V30 5883 C 548.144 0.601348 -1.93365 0
M  V30 5884 C 548.472 1.69816 -0.948294 0
M  V30 5885 O 547.727 1.95666 0.0366199 0
M  V30 5886 C 548.026 1.22051 -3.35914 0
M  V30 5887 C 547.692 0.250165 -4.50205 0
M  V30 5888 C 546.354 -0.0167954 -4.81197 0
M  V30 5889 C 548.706 -0.413867 -5.19554 0
M  V30 5890 C 546.034 -0.95493 -5.78876 0
M  V30 5891 C 548.386 -1.3403 -6.18238 0
M  V30 5892 C 547.05 -1.61576 -6.47649 0
M  V30 5893 H 546.32 0.220049 -0.707573 0
M  V30 5894 H 548.967 -0.138697 -1.90997 0
M  V30 5895 H 547.272 2.03622 -3.34732 0
M  V30 5896 H 548.969 1.74605 -3.6099 0
M  V30 5897 H 545.559 0.468421 -4.26033 0
M  V30 5898 H 549.743 -0.220733 -4.95809 0
M  V30 5899 H 544.999 -1.17563 -5.99991 0
M  V30 5900 H 549.173 -1.86081 -6.71079 0
M  V30 5901 H 546.8 -2.34431 -7.2315 0
M  V30 5902 N 548.375 1.56261 0.205012 0
M  V30 5903 C 549.307 1.90266 1.27795 0
M  V30 5904 C 550.32 0.792397 1.42214 0
M  V30 5905 O 551.509 1.07077 1.42817 0
M  V30 5906 C 548.609 2.11074 2.65143 0
M  V30 5907 C 547.782 3.42176 2.7246 0
M  V30 5908 C 546.841 3.52216 3.90936 0
M  V30 5909 O 545.867 4.25119 3.78501 0
M  V30 5910 N 547.069 2.84573 5.05963 0
M  V30 5911 H 549.834 2.82896 0.989434 0
M  V30 5912 H 547.395 1.57008 0.394981 0
M  V30 5913 H 549.387 2.15089 3.4281 0
M  V30 5914 H 547.957 1.2499 2.86524 0
M  V30 5915 H 547.177 3.50116 1.81142 0
M  V30 5916 H 548.465 4.28509 2.74331 0
M  V30 5917 H 547.863 2.25152 5.18963 0
M  V30 5918 H 546.42 2.94228 5.81613 0
M  V30 5919 N 549.853 -0.472356 1.50355 0
M  V30 5920 C 551.101 -1.22211 1.60962 0
M  V30 5921 C 551.422 -1.92497 0.311439 0
M  V30 5922 O 550.692 -1.8405 -0.671002 0
M  V30 5923 H 549.272 -0.454092 0.593135 0
M  V30 5924 H 551.934 -0.544977 1.87126 0
M  V30 5925 H 551.03 -1.9707 2.42012 0
M  V30 5926 N 551.331 -1.39911 -0.725443 0
M  V30 5927 C 552.58 -1.36963 -1.48068 0
M  V30 5928 C 552.893 0.0284478 -1.95579 0
M  V30 5929 O 554.099 0.180535 -2.70899 0
M  V30 5930 C 552.555 -2.40664 -2.67598 0
M  V30 5931 C 552.163 -3.86234 -2.26997 0
M  V30 5932 C 553.907 -2.46807 -3.45379 0
M  V30 5933 C 551.814 -4.81554 -3.43307 0
M  V30 5934 H 550.744 -0.509223 -0.556065 0
M  V30 5935 H 553.395 -1.65602 -0.790454 0
M  V30 5936 H 551.777 -2.05109 -3.38742 0
M  V30 5937 H 552.951 -4.3088 -1.63337 0
M  V30 5938 H 551.266 -3.83475 -1.62284 0
M  V30 5939 H 553.863 -3.15213 -4.31909 0
M  V30 5940 H 554.206 -1.49552 -3.8851 0
M  V30 5941 H 554.739 -2.81303 -2.81271 0
M  V30 5942 H 551.478 -5.80106 -3.05217 0
M  V30 5943 H 550.998 -4.4158 -4.05915 0
M  V30 5944 H 552.677 -5.0091 -4.0951 0
M  V30 5945 N 552.809 0.956637 -1.25245 0
M  V30 5946 C 554.055 1.70352 -1.10036 0
M  V30 5947 C 554.388 1.90869 0.358156 0
M  V30 5948 O 553.663 1.47819 1.26411 0
M  V30 5949 C 553.946 3.08766 -1.85298 0
M  V30 5950 C 553.799 2.95672 -3.38966 0
M  V30 5951 C 555.118 4.08622 -1.63451 0
M  V30 5952 H 552.237 0.618279 -0.401123 0
M  V30 5953 H 554.879 1.11212 -1.54051 0
M  V30 5954 H 553.029 3.59252 -1.47887 0
M  V30 5955 H 554.701 2.52527 -3.86041 0
M  V30 5956 H 552.944 2.31634 -3.6678 0
M  V30 5957 H 553.615 3.93776 -3.86839 0
M  V30 5958 H 556.091 3.67038 -1.96015 0
M  V30 5959 H 554.967 5.03514 -2.18551 0
M  V30 5960 H 555.228 4.3834 -0.575357 0
M  V30 5961 N 554.287 1.06798 1.15896 0
M  V30 5962 C 555.564 0.701057 1.82605 0
M  V30 5963 C 555.944 -0.817066 1.94646 0
M  V30 5964 O 555.292 -1.72933 1.49353 0
M  V30 5965 C 555.502 1.40895 3.19296 0
M  V30 5966 C 556.85 1.55744 3.95005 0
M  V30 5967 O 557.874 1.36927 3.28831 0
M  V30 5968 O 556.733 1.86658 5.13635 0
M  V30 5969 H 553.827 0.248791 0.78869 0
M  V30 5970 H 556.373 1.16857 1.23055 0
M  V30 5971 H 555.145 2.4439 3.05596 0
M  V30 5972 H 554.768 0.931847 3.86526 0
M  V30 5973 N 555.766 -1.3263 0.851289 0
M  V30 5974 C 556.729 -2.27247 0.298541 0
M  V30 5975 C 557.729 -1.51467 -0.539847 0
M  V30 5976 O 558.919 -1.7061 -0.351843 0
M  V30 5977 C 556.051 -3.35964 -0.578004 0
M  V30 5978 H 557.244 -2.7765 1.13359 0
M  V30 5979 H 554.797 -1.43245 0.625354 0
M  V30 5980 H 555.532 -2.90823 -1.435 0
M  V30 5981 H 555.317 -3.92094 0.0220539 0
M  V30 5982 H 556.807 -4.06472 -0.957626 0
M  V30 5983 N 557.244 -0.608902 -1.45362 0
M  V30 5984 C 558.474 -0.110852 -2.06302 0
M  V30 5985 C 558.882 1.21062 -1.45398 0
M  V30 5986 O 558.225 1.74861 -0.562976 0
M  V30 5987 C 558.287 0.101793 -3.59356 0
M  V30 5988 C 557.951 -1.13808 -4.42602 0
M  V30 5989 C 558.948 -2.05653 -4.77496 0
M  V30 5990 C 556.633 -1.36727 -4.83333 0
M  V30 5991 C 558.627 -3.18745 -5.51978 0
M  V30 5992 C 556.314 -2.5012 -5.57569 0
M  V30 5993 C 557.312 -3.40957 -5.91809 0
M  V30 5994 O 557 -4.52376 -6.64538 0
M  V30 5995 H 556.732 -0.0666001 -0.672711 0
M  V30 5996 H 559.286 -0.836942 -1.87575 0
M  V30 5997 H 557.516 0.88279 -3.76489 0
M  V30 5998 H 559.205 0.551607 -4.02134 0
M  V30 5999 H 559.971 -1.89172 -4.46586 0
M  V30 6000 H 555.85 -0.669216 -4.56117 0
M  V30 6001 H 559.394 -3.8967 -5.78622 0
M  V30 6002 H 555.291 -2.66553 -5.87894 0
M  V30 6003 H 556.059 -4.51075 -6.82989 0
M  V30 6004 N 558.722 1.53707 -0.348139 0
M  V30 6005 C 559.97 2.00591 0.246478 0
M  V30 6006 C 560.291 1.23753 1.50699 0
M  V30 6007 O 559.561 0.345964 1.92821 0
M  V30 6008 H 558.141 0.741053 0.0940679 0
M  V30 6009 H 560.803 1.89139 -0.470354 0
M  V30 6010 H 559.899 3.08297 0.485714 0
M  V30 6011 N 560.2 0.0768682 1.57412 0
M  V30 6012 C 561.446 -0.591961 1.93968 0
M  V30 6013 C 561.779 -1.68954 0.9575 0
M  V30 6014 O 561.054 -1.94496 -0.0124675 0
M  V30 6015 C 561.337 -1.16418 3.40762 0
M  V30 6016 C 561.19 -0.0728933 4.49741 0
M  V30 6017 C 562.509 -2.06814 3.88479 0
M  V30 6018 H 559.628 -0.213716 0.705333 0
M  V30 6019 H 562.27 0.14387 1.89455 0
M  V30 6020 H 560.42 -1.79128 3.4474 0
M  V30 6021 H 562.092 0.560446 4.57883 0
M  V30 6022 H 560.335 0.595859 4.29688 0
M  V30 6023 H 561.006 -0.513755 5.49604 0
M  V30 6024 H 563.482 -1.54033 3.8654 0
M  V30 6025 H 562.358 -2.43785 4.91793 0
M  V30 6026 H 562.619 -2.97844 3.26713 0
M  V30 6027 N 561.678 -1.56367 -0.196722 0
M  V30 6028 C 562.926 -1.80172 -0.915554 0
M  V30 6029 C 563.247 -0.649649 -1.8386 0
M  V30 6030 O 562.517 0.332111 -1.93064 0
M  V30 6031 H 561.097 -0.664592 -0.341067 0
M  V30 6032 H 563.759 -1.93844 -0.202622 0
M  V30 6033 H 562.855 -2.7327 -1.50764 0
M  V30 6034 N 563.156 0.464375 -1.50603 0
M  V30 6035 C 564.572 0.798684 -1.38178 0
M  V30 6036 C 564.772 1.96568 -0.44308 0
M  V30 6037 O 563.828 2.52252 0.111814 0
M  V30 6038 C 565.141 1.10444 -2.79683 0
M  V30 6039 C 566.689 1.2105 -2.88645 0
M  V30 6040 C 567.164 1.54934 -4.30998 0
M  V30 6041 N 568.655 1.61913 -4.3398 0
M  V30 6042 C 569.39 1.8965 -5.41129 0
M  V30 6043 N 568.886 2.15361 -6.58477 0
M  V30 6044 N 570.679 1.91207 -5.28579 0
M  V30 6045 H 562.83 -0.304603 -2.10204 0
M  V30 6046 H 565.093 -0.0737804 -0.945125 0
M  V30 6047 H 564.799 0.319934 -3.50242 0
M  V30 6048 H 564.673 2.03896 -3.17342 0
M  V30 6049 H 567.06 1.98567 -2.18301 0
M  V30 6050 H 567.141 0.255613 -2.5452 0
M  V30 6051 H 566.785 0.779549 -5.01882 0
M  V30 6052 H 566.715 2.51584 -4.62615 0
M  V30 6053 H 569.206 1.44055 -3.49366 0
M  V30 6054 H 569.519 2.35818 -7.35941 0
M  V30 6055 H 567.864 2.1274 -6.6164 0
M  V30 6056 H 571.055 1.70622 -4.35897 0
M  V30 6057 H 571.228 2.12488 -6.12171 0
M  V30 6058 N 564.634 1.40294 0.718013 0
M  V30 6059 C 565.864 1.41544 1.50495 0
M  V30 6060 C 566.272 0.0127877 1.89196 0
M  V30 6061 O 565.615 -0.97305 1.55812 0
M  V30 6062 C 565.677 2.24021 2.81167 0
M  V30 6063 C 565.341 3.72463 2.64803 0
M  V30 6064 C 566.338 4.65154 2.32223 0
M  V30 6065 C 564.023 4.1625 2.81143 0
M  V30 6066 C 566.017 5.99618 2.16189 0
M  V30 6067 C 563.704 5.50784 2.64727 0
M  V30 6068 C 564.702 6.42283 2.32297 0
M  V30 6069 O 564.39 7.74337 2.16004 0
M  V30 6070 H 564.122 0.484819 0.471091 0
M  V30 6071 H 566.676 1.84948 0.893488 0
M  V30 6072 H 564.906 1.75393 3.44636 0
M  V30 6073 H 566.595 2.17243 3.42871 0
M  V30 6074 H 567.361 4.32622 2.19234 0
M  V30 6075 H 563.24 3.45352 3.05373 0
M  V30 6076 H 566.784 6.71 1.90799 0
M  V30 6077 H 562.681 5.82902 2.773 0
M  V30 6078 H 563.449 7.85244 2.30942 0
M  V30 6079 N 566.112 -0.949982 1.2575 0
M  V30 6080 C 567.044 -2.05088 1.02331 0
M  V30 6081 C 568.057 -1.62795 -0.0133247 0
M  V30 6082 O 569.246 -1.77067 0.225759 0
M  V30 6083 C 566.346 -3.34794 0.525924 0
M  V30 6084 C 565.519 -4.05903 1.62978 0
M  V30 6085 C 564.578 -5.1388 1.13196 0
M  V30 6086 O 563.604 -5.39072 1.82729 0
M  V30 6087 N 564.806 -5.80495 -0.0242926 0
M  V30 6088 H 567.571 -2.25747 1.97125 0
M  V30 6089 H 565.132 -1.11886 1.17018 0
M  V30 6090 H 567.124 -4.04312 0.177263 0
M  V30 6091 H 565.694 -3.10872 -0.328202 0
M  V30 6092 H 564.914 -3.3042 2.1498 0
M  V30 6093 H 566.202 -4.50166 2.37124 0
M  V30 6094 H 565.6 -5.62454 -0.605184 0
M  V30 6095 H 564.157 -6.51043 -0.313947 0
M  V30 6096 N 567.59 -1.07411 -1.15328 0
M  V30 6097 C 568.5 -0.706438 -2.23711 0
M  V30 6098 C 569.516 0.282586 -1.7169 0
M  V30 6099 O 570.692 0.129066 -2.00986 0
M  V30 6100 C 567.757 -0.11048 -3.46524 0
M  V30 6101 C 566.818 -1.15282 -4.13532 0
M  V30 6102 C 566.051 -0.585205 -5.30482 0
M  V30 6103 O 566.274 0.598549 -5.67251 0
M  V30 6104 O 565.208 -1.33039 -5.87013 0
M  V30 6105 H 569.034 -1.61031 -2.57493 0
M  V30 6106 H 566.619 -0.847113 -1.23062 0
M  V30 6107 H 568.501 0.21957 -4.20828 0
M  V30 6108 H 567.176 0.766703 -3.14489 0
M  V30 6109 H 566.083 -1.53523 -3.41147 0
M  V30 6110 H 567.416 -2.00192 -4.49649 0
M  V30 6111 N 569.068 1.32177 -0.85831 0
M  V30 6112 C 570.314 1.97417 -0.46417 0
M  V30 6113 C 570.647 1.67746 0.978514 0
M  V30 6114 O 569.922 0.967654 1.68721 0
M  V30 6115 C 570.205 3.53069 -0.708094 0
M  V30 6116 C 570.058 3.92357 -2.19946 0
M  V30 6117 C 571.377 4.39783 -0.166881 0
M  V30 6118 H 568.496 0.717097 -0.17012 0
M  V30 6119 H 571.138 1.56499 -1.07741 0
M  V30 6120 H 569.288 3.88054 -0.186128 0
M  V30 6121 H 570.96 3.67533 -2.78779 0
M  V30 6122 H 569.203 3.41384 -2.67656 0
M  V30 6123 H 569.874 5.00841 -2.32082 0
M  V30 6124 H 572.35 4.11556 -0.613285 0
M  V30 6125 H 571.226 5.47671 -0.367093 0
M  V30 6126 H 571.487 4.32196 0.930559 0
M  V30 6127 N 570.547 0.616602 1.45037 0
M  V30 6128 C 571.495 -0.109318 2.32343 0
M  V30 6129 C 572.489 -0.850543 1.465 0
M  V30 6130 O 573.695 -0.765088 1.62931 0
M  V30 6131 H 570.07 -0.0541091 0.750051 0
M  V30 6132 H 572.041 0.645326 2.91338 0
M  V30 6133 C 570.79 -1.0872 3.30266 0
M  V30 6134 H 570.113 -0.526267 3.96321 0
M  V30 6135 H 571.553 -1.56489 3.94065 0
M  V30 6136 C 570.012 -2.16525 2.58105 0
M  V30 6137 O 570.542 -3.244 2.36913 0
M  V30 6138 N 568.748 -1.92057 2.18088 0
M  V30 6139 H 568.295 -1.04337 2.35524 0
M  V30 6140 H 568.253 -2.64391 1.70131 0
M  V30 6141 N 572.025 -1.5352 0.356285 0
M  V30 6142 C 573.436 -1.86282 -0.12492 0
M  V30 6143 C 573.787 -1.27717 -1.48939 0
M  V30 6144 O 572.912 -0.595614 -2.08042 0
M  V30 6145 C 573.507 -3.37995 -0.23345 0
M  V30 6146 C 572.066 -3.70588 -0.658899 0
M  V30 6147 C 571.213 -2.76581 0.199596 0
M  V30 6148 H 574.164 -1.47901 0.575423 0
M  V30 6149 H 574.185 -3.65475 -1.0587 0
M  V30 6150 H 573.697 -3.8059 0.759776 0
M  V30 6151 H 571.798 -3.33544 -1.66069 0
M  V30 6152 H 571.911 -4.77076 -0.439957 0
M  V30 6153 H 570.275 -2.52552 -0.330076 0
M  V30 6154 H 571.058 -3.22008 1.19019 0
M  V30 6155 N 573.503 -0.0852151 -1.57369 0
M  V30 6156 C 574.466 0.8627 -2.12344 0
M  V30 6157 C 575.466 1.21746 -1.05046 0
M  V30 6158 O 576.656 1.14852 -1.30976 0
M  V30 6159 C 573.788 2.1618 -2.63589 0
M  V30 6160 H 574.981 0.385511 -2.97412 0
M  V30 6161 H 572.534 0.163663 -1.55441 0
M  V30 6162 H 573.269 2.68406 -1.82013 0
M  V30 6163 H 573.054 1.91723 -3.4203 0
M  V30 6164 H 574.544 2.84011 -3.06149 0
M  V30 6165 N 574.981 1.5647 0.188427 0
M  V30 6166 C 576.392 1.70864 0.752494 0
M  V30 6167 C 576.743 0.692905 1.83557 0
M  V30 6168 O 575.868 -0.149307 2.15884 0
M  V30 6169 C 576.463 3.09789 1.37173 0
M  V30 6170 C 575.022 3.25925 1.88281 0
M  V30 6171 C 574.169 2.66817 0.755259 0
M  V30 6172 H 577.12 1.58657 -0.0367408 0
M  V30 6173 H 577.141 3.07489 2.24122 0
M  V30 6174 H 576.653 3.83693 0.583219 0
M  V30 6175 H 574.754 2.56948 2.6983 0
M  V30 6176 H 574.867 4.33498 2.04001 0
M  V30 6177 H 573.231 2.2617 1.17128 0
M  V30 6178 H 574.014 3.43294 -0.0211237 0
M  V30 6179 N 576.459 -0.456382 1.50847 0
M  V30 6180 C 577.689 -1.22848 1.66108 0
M  V30 6181 C 578.097 -1.85936 0.349897 0
M  V30 6182 O 577.44 -1.70664 -0.679665 0
M  V30 6183 C 577.502 -2.36722 2.70561 0
M  V30 6184 C 577.166 -1.94154 4.13707 0
M  V30 6185 C 578.163 -1.4557 4.99105 0
M  V30 6186 C 575.848 -2.02426 4.59705 0
M  V30 6187 C 577.842 -1.0582 6.28555 0
M  V30 6188 C 575.529 -1.62287 5.89157 0
M  V30 6189 C 576.527 -1.14064 6.73408 0
M  V30 6190 O 576.215 -0.744873 8.00442 0
M  V30 6191 H 575.947 -0.377105 0.561042 0
M  V30 6192 H 578.501 -0.549431 1.97915 0
M  V30 6193 H 576.731 -3.07844 2.34027 0
M  V30 6194 H 578.42 -2.98646 2.74892 0
M  V30 6195 H 579.186 -1.38589 4.64777 0
M  V30 6196 H 575.065 -2.38908 3.94264 0
M  V30 6197 H 578.609 -0.6811 6.94267 0
M  V30 6198 H 574.506 -1.68932 6.23003 0
M  V30 6199 H 575.274 -0.87242 8.13837 0
M  V30 6200 N 577.937 -1.40673 -0.710563 0
M  V30 6201 C 579.165 -1.42547 -1.4996 0
M  V30 6202 C 579.58 -0.0265485 -1.88781 0
M  V30 6203 O 578.937 0.950694 -1.55782 0
M  V30 6204 C 578.988 -2.32071 -2.77173 0
M  V30 6205 O 578.709 -3.66518 -2.39992 0
M  V30 6206 C 580.21 -2.42591 -3.71032 0
M  V30 6207 H 577.43 -0.486025 -0.462623 0
M  V30 6208 H 579.974 -1.84783 -0.876102 0
M  V30 6209 H 578.129 -1.93184 -3.35795 0
M  V30 6210 H 578.543 -4.14115 -3.21884 0
M  V30 6211 H 580.017 -3.09429 -4.57119 0
M  V30 6212 H 580.494 -1.4525 -4.14486 0
M  V30 6213 H 581.1 -2.82051 -3.18319 0
M  V30 6214 N 579.415 0.9433 -1.26252 0
M  V30 6215 C 580.664 1.68369 -1.11062 0
M  V30 6216 C 580.977 1.92514 0.346104 0
M  V30 6217 O 582.183 2.64358 0.618646 0
M  V30 6218 C 580.639 3.03171 -1.93946 0
M  V30 6219 C 580.247 2.86782 -3.4418 0
M  V30 6220 C 581.991 3.80916 -1.87359 0
M  V30 6221 C 579.898 4.17044 -4.19319 0
M  V30 6222 H 578.828 0.631469 -0.412023 0
M  V30 6223 H 581.479 1.04922 -1.50544 0
M  V30 6224 H 579.861 3.67587 -1.47296 0
M  V30 6225 H 581.035 2.31229 -3.98585 0
M  V30 6226 H 579.35 2.22482 -3.51981 0
M  V30 6227 H 581.947 4.77417 -2.40784 0
M  V30 6228 H 582.29 4.07658 -0.843857 0
M  V30 6229 H 582.823 3.2327 -2.31821 0
M  V30 6230 H 579.562 3.95487 -5.22753 0
M  V30 6231 H 579.082 4.72319 -3.69696 0
M  V30 6232 H 580.761 4.85513 -4.27651 0
M  V30 6233 N 580.893 1.08022 1.14757 0
M  V30 6234 C 582.142 0.802468 1.8505 0
M  V30 6235 C 582.455 -0.674061 1.83619 0
M  V30 6236 O 583.661 -1.06683 2.49662 0
M  V30 6237 C 582.117 1.38551 3.32162 0
M  V30 6238 C 581.725 2.89354 3.42021 0
M  V30 6239 C 583.469 1.18608 4.07594 0
M  V30 6240 C 581.376 3.40815 4.83321 0
M  V30 6241 H 580.306 0.296518 0.693248 0
M  V30 6242 H 582.957 1.30114 1.29393 0
M  V30 6243 H 581.339 0.814556 3.87532 0
M  V30 6244 H 582.513 3.52552 2.96722 0
M  V30 6245 H 580.828 3.08165 2.80041 0
M  V30 6246 H 583.425 1.54525 5.11885 0
M  V30 6247 H 583.768 0.125599 4.1611 0
M  V30 6248 H 584.301 1.72375 3.58513 0
M  V30 6249 H 581.04 4.46418 4.79991 0
M  V30 6250 H 580.56 2.82374 5.29174 0
M  V30 6251 H 582.239 3.37171 5.522 0
M  V30 6252 N 582.371 -1.3172 0.865308 0
M  V30 6253 C 583.599 -2.01057 0.488251 0
M  V30 6254 C 584.014 -1.64979 -0.918 0
M  V30 6255 O 583.371 -0.876597 -1.60069 0
M  V30 6256 C 583.422 -3.55964 0.630224 0
M  V30 6257 O 583.143 -3.90749 1.98109 0
M  V30 6258 C 584.644 -4.42574 0.253567 0
M  V30 6259 H 581.864 -0.64332 0.190736 0
M  V30 6260 H 584.408 -1.68058 1.16519 0
M  V30 6261 H 582.563 -3.874 0.000895422 0
M  V30 6262 H 582.977 -4.85467 1.9855 0
M  V30 6263 H 584.451 -5.50521 0.403875 0
M  V30 6264 H 584.928 -4.31724 -0.806895 0
M  V30 6265 H 585.534 -4.16547 0.858404 0
M  V30 6266 N 583.85 -0.624285 -1.44708 0
M  V30 6267 C 585.096 -0.126051 -2.02107 0
M  V30 6268 C 585.425 1.2496 -1.49048 0
M  V30 6269 O 584.68 1.84163 -0.662005 0
M  V30 6270 C 584.979 -0.0546353 -3.57358 0
M  V30 6271 C 584.644 -1.36815 -4.29642 0
M  V30 6272 C 583.307 -1.72792 -4.49106 0
M  V30 6273 C 585.659 -2.23549 -4.70824 0
M  V30 6274 C 582.986 -2.95222 -5.07012 0
M  V30 6275 C 585.339 -3.45243 -5.30085 0
M  V30 6276 C 584.003 -3.81452 -5.47769 0
M  V30 6277 H 583.273 -0.0461252 -0.739563 0
M  V30 6278 H 585.92 -0.809236 -1.73562 0
M  V30 6279 H 584.225 0.711891 -3.85278 0
M  V30 6280 H 585.922 0.347282 -3.99493 0
M  V30 6281 H 582.512 -1.07817 -4.14817 0
M  V30 6282 H 586.696 -1.9705 -4.55505 0
M  V30 6283 H 581.952 -3.23361 -5.18891 0
M  V30 6284 H 586.125 -4.12689 -5.60946 0
M  V30 6285 H 583.753 -4.76403 -5.92405 0
M  V30 6286 N 585.328 1.53329 -0.364422 0
M  V30 6287 C 586.739 1.86345 0.115039 0
M  V30 6288 C 587.09 1.28505 1.4826 0
M  V30 6289 O 586.215 0.606639 2.07723 0
M  V30 6290 C 586.81 3.38114 0.215522 0
M  V30 6291 C 585.369 3.70932 0.639237 0
M  V30 6292 C 584.516 2.76471 -0.214261 0
M  V30 6293 H 587.467 1.47593 -0.583258 0
M  V30 6294 H 587.488 3.66031 1.0393 0
M  V30 6295 H 587 3.80182 -0.779948 0
M  V30 6296 H 585.101 3.3442 1.64298 0
M  V30 6297 H 585.214 4.77302 0.41465 0
M  V30 6298 H 583.578 2.52724 0.316678 0
M  V30 6299 H 584.361 3.21373 -1.20725 0
M  V30 6300 N 586.806 0.0935595 1.57322 0
M  V30 6301 C 588.053 -0.570509 1.94297 0
M  V30 6302 C 588.381 -1.68286 0.97519 0
M  V30 6303 O 587.636 -1.95699 -0.00548655 0
M  V30 6304 C 587.935 -1.16692 3.37813 0
M  V30 6305 C 587.601 -0.178509 4.50547 0
M  V30 6306 C 586.263 0.0933475 4.81109 0
M  V30 6307 C 588.615 0.496472 5.1883 0
M  V30 6308 C 585.943 1.0469 5.77284 0
M  V30 6309 C 588.295 1.43849 6.16028 0
M  V30 6310 C 586.959 1.71859 6.44997 0
M  V30 6311 H 586.229 -0.208764 0.710984 0
M  V30 6312 H 588.876 0.169066 1.90752 0
M  V30 6313 H 587.181 -1.98271 3.37929 0
M  V30 6314 H 588.878 -1.6884 3.63722 0
M  V30 6315 H 585.468 -0.400584 4.26724 0
M  V30 6316 H 589.652 0.299584 4.95395 0
M  V30 6317 H 584.908 1.27094 5.98044 0
M  V30 6318 H 589.082 1.96734 6.68034 0
M  V30 6319 H 586.709 2.45906 7.19329 0
M  V30 6320 N 588.284 -1.56567 -0.180126 0
M  V30 6321 C 589.214 -1.98753 -1.22553 0
M  V30 6322 C 590.195 -0.86175 -1.46656 0
M  V30 6323 O 591.38 -1.12719 -1.58139 0
M  V30 6324 C 588.51 -2.33988 -2.56645 0
M  V30 6325 C 587.464 -3.49445 -2.47128 0
M  V30 6326 C 586.79 -3.70397 -3.8563 0
M  V30 6327 C 588.09 -4.83171 -1.98352 0
M  V30 6328 H 589.784 -2.86332 -0.874896 0
M  V30 6329 H 587.33 -1.37757 -0.419414 0
M  V30 6330 H 589.283 -2.62097 -3.29974 0
M  V30 6331 H 588.007 -1.43309 -2.93479 0
M  V30 6332 H 586.666 -3.2145 -1.76254 0
M  V30 6333 H 586.314 -2.77023 -4.19842 0
M  V30 6334 H 586.014 -4.48077 -3.80132 0
M  V30 6335 H 587.538 -4.00897 -4.60558 0
M  V30 6336 H 588.952 -5.10213 -2.61449 0
M  V30 6337 H 587.349 -5.64425 -2.03823 0
M  V30 6338 H 588.419 -4.75753 -0.937402 0
M  V30 6339 N 589.762 0.448376 -1.51087 0
M  V30 6340 C 591.009 1.19872 -1.63209 0
M  V30 6341 C 591.337 1.91451 -0.343062 0
M  V30 6342 O 590.592 1.83789 0.672321 0
M  V30 6343 C 590.891 2.24866 -2.77795 0
M  V30 6344 C 590.557 1.70378 -4.17471 0
M  V30 6345 C 589.219 1.55241 -4.55471 0
M  V30 6346 C 591.571 1.30203 -5.04675 0
M  V30 6347 C 588.899 0.983844 -5.78392 0
M  V30 6348 C 591.251 0.747798 -6.28165 0
M  V30 6349 C 589.915 0.583233 -6.64947 0
M  V30 6350 H 589.185 0.438642 -0.597222 0
M  V30 6351 H 591.832 0.49136 -1.85089 0
M  V30 6352 H 590.137 3.01598 -2.50092 0
M  V30 6353 H 591.834 2.82723 -2.84374 0
M  V30 6354 H 588.424 1.83134 -3.87505 0
M  V30 6355 H 592.608 1.40723 -4.75932 0
M  V30 6356 H 587.864 0.844007 -6.05546 0
M  V30 6357 H 592.038 0.427927 -6.95084 0
M  V30 6358 H 589.665 0.140532 -7.6007 0
M  V30 6359 N 591.24 1.41047 0.703093 0
M  V30 6360 C 592.203 1.42036 1.79884 0
M  V30 6361 C 593.203 0.312153 1.57741 0
M  V30 6362 O 594.393 0.571672 1.64553 0
M  V30 6363 C 591.525 1.22437 3.18154 0
M  V30 6364 H 592.718 2.39572 1.80403 0
M  V30 6365 H 590.271 1.27079 0.909977 0
M  V30 6366 H 591.006 0.257112 3.23279 0
M  V30 6367 H 590.791 2.02723 3.35627 0
M  V30 6368 H 592.281 1.25946 3.98155 0
M  V30 6369 N 592.718 -0.936591 1.26751 0
M  V30 6370 C 593.964 -1.6858 1.12733 0
M  V30 6371 C 594.297 -1.91414 -0.327745 0
M  V30 6372 O 593.572 -1.49812 -1.24043 0
M  V30 6373 C 593.855 -3.05779 1.90187 0
M  V30 6374 C 593.708 -2.90242 3.43627 0
M  V30 6375 C 595.027 -4.0597 1.69931 0
M  V30 6376 H 592.146 -0.61182 0.410908 0
M  V30 6377 H 594.788 -1.08747 1.55801 0
M  V30 6378 H 592.938 -3.56853 1.53584 0
M  V30 6379 H 594.61 -2.46354 3.9001 0
M  V30 6380 H 592.853 -2.2577 3.70419 0
M  V30 6381 H 593.524 -3.87572 3.93055 0
M  V30 6382 H 596 -3.63874 2.0183 0
M  V30 6383 H 594.876 -4.99974 2.26534 0
M  V30 6384 H 595.137 -4.37369 0.64502 0
M  V30 6385 N 594.196 -1.08629 -1.14182 0
M  V30 6386 C 595.129 -0.662329 -2.18377 0
M  V30 6387 C 596.107 0.327054 -1.59277 0
M  V30 6388 O 597.291 0.230376 -1.87087 0
M  V30 6389 C 594.418 0.0254765 -3.3869 0
M  V30 6390 C 593.464 -0.924414 -4.16361 0
M  V30 6391 S 594.297 -2.43226 -4.77076 0
M  V30 6392 C 595.453 -1.75663 -6.00744 0
M  V30 6393 H 595.686 -1.54501 -2.54001 0
M  V30 6394 H 593.219 -0.901484 -1.2535 0
M  V30 6395 H 595.177 0.416032 -4.08386 0
M  V30 6396 H 593.838 0.884689 -3.01384 0
M  V30 6397 H 593.031 -0.390099 -5.02488 0
M  V30 6398 H 592.633 -1.25598 -3.5228 0
M  V30 6399 H 594.925 -1.07589 -6.68903 0
M  V30 6400 H 595.868 -2.59673 -6.58768 0
M  V30 6401 H 596.276 -1.22903 -5.50958 0
M  V30 6402 N 595.674 1.31259 -0.872281 0
M  V30 6403 C 596.921 1.96622 -0.484365 0
M  V30 6404 C 597.249 1.68939 0.963841 0
M  V30 6405 O 596.504 0.97974 1.6941 0
M  V30 6406 C 596.803 3.50659 -0.690889 0
M  V30 6407 C 596.469 3.98366 -2.11224 0
M  V30 6408 C 595.131 4.11104 -2.50094 0
M  V30 6409 C 597.483 4.23425 -3.0391 0
M  V30 6410 C 594.811 4.46254 -3.80887 0
M  V30 6411 C 597.163 4.60039 -4.3422 0
M  V30 6412 C 595.827 4.70984 -4.73001 0
M  V30 6413 H 595.097 0.71949 -0.177242 0
M  V30 6414 H 597.744 1.56353 -1.10571 0
M  V30 6415 H 596.049 3.91798 0.0135782 0
M  V30 6416 H 597.746 3.99284 -0.370534 0
M  V30 6417 H 594.336 3.88949 -1.80047 0
M  V30 6418 H 598.52 4.13075 -2.75104 0
M  V30 6419 H 593.776 4.52926 -4.10692 0
M  V30 6420 H 597.95 4.78381 -5.06088 0
M  V30 6421 H 595.577 4.97977 -5.7439 0
M  V30 6422 N 597.152 0.631951 1.44375 0
M  V30 6423 C 598.4 0.136497 2.01639 0
M  V30 6424 C 598.721 -1.24637 1.49969 0
M  V30 6425 O 597.991 -1.82827 0.70363 0
M  V30 6426 H 596.571 0.0474703 0.74549 0
M  V30 6427 H 599.233 0.818837 1.76865 0
M  V30 6428 H 598.329 0.104817 3.11924 0
M  V30 6429 N 598.631 -1.53133 0.372548 0
M  V30 6430 C 599.908 -1.93704 -0.271693 0
M  V30 6431 C 600.288 -1.30667 -1.65799 0
M  V30 6432 O 599.636 -0.46838 -2.23648 0
M  V30 6433 C 599.846 -3.47576 -0.314903 0
M  V30 6434 C 601.194 -4.20998 -0.551912 0
M  V30 6435 O 602.218 -3.53994 -0.39582 0
M  V30 6436 O 601.077 -5.39748 -0.85639 0
M  V30 6437 H 598.171 -0.810457 -0.164586 0
M  V30 6438 H 600.717 -1.6427 0.425838 0
M  V30 6439 H 599.489 -3.85749 0.656792 0
M  V30 6440 H 599.112 -3.83264 -1.05804 0
M  V30 6441 N 600.109 -0.101901 -1.5727 0
M  V30 6442 C 601.355 0.561027 -1.94885 0
M  V30 6443 C 601.688 1.6741 -0.984258 0
M  V30 6444 O 600.963 1.94491 -0.0184767 0
M  V30 6445 C 601.246 1.10982 -3.42571 0
M  V30 6446 C 601.099 0.00133418 -4.498 0
M  V30 6447 C 602.418 2.00608 -3.9172 0
M  V30 6448 H 599.537 0.202467 -0.708644 0
M  V30 6449 H 602.179 -0.173992 -1.89202 0
M  V30 6450 H 600.329 1.73621 -3.47546 0
M  V30 6451 H 602.001 -0.63322 -4.56933 0
M  V30 6452 H 600.244 -0.664143 -4.28686 0
M  V30 6453 H 600.915 0.426253 -5.50352 0
M  V30 6454 H 603.391 1.47864 -3.88941 0
M  V30 6455 H 602.267 2.3593 -4.95609 0
M  V30 6456 H 602.528 2.92608 -3.3141 0
M  V30 6457 N 601.587 1.56661 0.17182 0
M  V30 6458 C 602.835 1.81606 0.886774 0
M  V30 6459 C 603.156 0.678818 1.82803 0
M  V30 6460 O 602.426 -0.301354 1.93568 0
M  V30 6461 H 601.006 0.669934 0.330451 0
M  V30 6462 H 603.668 1.94142 0.171757 0
M  V30 6463 H 602.764 2.75634 1.46398 0
M  V30 6464 N 603.065 -0.440357 1.51323 0
M  V30 6465 C 604.015 -1.53263 1.68803 0
M  V30 6466 C 604.999 -1.51494 0.542057 0
M  V30 6467 O 606.191 -1.57999 0.797839 0
M  V30 6468 C 603.32 -2.91479 1.8137 0
M  V30 6469 C 602.406 -2.98015 3.01742 0
M  V30 6470 N 602.797 -2.743 4.24962 0
M  V30 6471 C 601.095 -3.29173 3.00934 0
M  V30 6472 C 601.796 -2.86601 5.06197 0
M  V30 6473 N 600.772 -3.1814 4.40781 0
M  V30 6474 H 604.574 -1.33675 2.61741 0
M  V30 6475 H 602.088 -0.647616 1.48929 0
M  V30 6476 H 604.085 -3.70055 1.92002 0
M  V30 6477 H 602.745 -3.12089 0.896117 0
M  V30 6478 H 603.756 -2.49287 4.53957 0
M  V30 6479 H 600.433 -3.55577 2.18796 0
M  V30 6480 H 601.823 -2.72246 6.14274 0
M  V30 6481 N 604.543 -1.41418 -0.695603 0
M  V30 6482 C 605.791 -1.40496 -1.45277 0
M  V30 6483 C 606.112 -0.0149538 -1.94994 0
M  V30 6484 O 605.382 0.9432 -1.71699 0
M  V30 6485 H 603.962 -0.517147 -0.539044 0
M  V30 6486 H 606.624 -1.76656 -0.823321 0
M  V30 6487 H 605.72 -2.09214 -2.31595 0
M  V30 6488 N 606.021 0.929856 -1.27246 0
M  V30 6489 C 606.951 2.04722 -1.12299 0
M  V30 6490 C 607.932 1.70082 -0.0250464 0
M  V30 6491 O 609.117 1.93176 -0.199141 0
M  V30 6492 C 606.247 3.38721 -0.767145 0
M  V30 6493 C 605.201 3.87466 -1.81808 0
M  V30 6494 C 604.527 5.18246 -1.31626 0
M  V30 6495 C 605.827 4.11095 -3.22177 0
M  V30 6496 H 607.521 2.17485 -2.05769 0
M  V30 6497 H 605.067 1.04503 -0.990715 0
M  V30 6498 H 607.02 4.16366 -0.649413 0
M  V30 6499 H 605.744 3.25967 0.203259 0
M  V30 6500 H 604.403 3.12012 -1.92468 0
M  V30 6501 H 604.051 5.01881 -0.335378 0
M  V30 6502 H 603.751 5.51829 -2.01887 0
M  V30 6503 H 605.275 5.98462 -1.21143 0
M  V30 6504 H 606.689 4.79316 -3.1453 0
M  V30 6505 H 605.086 4.55982 -3.90129 0
M  V30 6506 H 606.156 3.16468 -3.67391 0
M  V30 6507 N 607.499 1.09233 1.13605 0
M  V30 6508 C 608.429 0.751738 2.21068 0
M  V30 6509 C 609.41 -0.269688 1.67948 0
M  V30 6510 O 610.595 -0.13819 1.93708 0
M  V30 6511 C 607.725 0.16935 3.46887 0
M  V30 6512 C 606.679 1.12007 4.13084 0
M  V30 6513 C 606.005 0.399483 5.33206 0
M  V30 6514 C 607.305 2.46168 4.6065 0
M  V30 6515 H 608.999 1.65024 2.49815 0
M  V30 6516 H 606.545 0.794905 1.20072 0
M  V30 6517 H 608.498 -0.0809824 4.21322 0
M  V30 6518 H 607.222 -0.764335 3.1753 0
M  V30 6519 H 605.881 1.35564 3.40614 0
M  V30 6520 H 605.529 -0.538277 5.00112 0
M  V30 6521 H 605.229 1.03337 5.78442 0
M  V30 6522 H 606.753 0.157403 6.10397 0
M  V30 6523 H 608.167 2.26829 5.26518 0
M  V30 6524 H 606.564 3.05326 5.1662 0
M  V30 6525 H 607.634 3.07076 3.75276 0
M  V30 6526 N 608.977 -1.30795 0.87923 0
M  V30 6527 C 609.91 -2.26396 0.286404 0
M  V30 6528 C 610.888 -1.51528 -0.589748 0
M  V30 6529 O 612.072 -1.80566 -0.541119 0
M  V30 6530 C 609.199 -3.33458 -0.593581 0
M  V30 6531 C 608.245 -4.2597 0.21247 0
M  V30 6532 S 609.078 -5.11132 1.59702 0
M  V30 6533 C 610.234 -6.21705 0.723408 0
M  V30 6534 H 610.467 -2.7633 1.09677 0
M  V30 6535 H 608 -1.38703 0.678305 0
M  V30 6536 H 609.958 -3.9561 -1.09557 0
M  V30 6537 H 608.619 -2.82259 -1.37799 0
M  V30 6538 H 607.812 -5.01907 -0.458822 0
M  V30 6539 H 607.414 -3.68363 0.646883 0
M  V30 6540 H 609.706 -6.77472 -0.0620739 0
M  V30 6541 H 610.649 -6.93007 1.4542 0
M  V30 6542 H 611.057 -5.63771 0.286855 0
M  V30 6543 N 610.455 -0.639598 -1.44038 0
M  V30 6544 C 611.702 -0.14748 -2.01962 0
M  V30 6545 C 612.03 1.23372 -1.50365 0
M  V30 6546 O 611.285 1.8345 -0.681501 0
M  V30 6547 C 611.584 -0.0925348 -3.5728 0
M  V30 6548 C 611.25 -1.41365 -4.28167 0
M  V30 6549 C 609.912 -1.77545 -4.47248 0
M  V30 6550 C 612.264 -2.2853 -4.68427 0
M  V30 6551 C 609.592 -3.00583 -5.03852 0
M  V30 6552 C 611.944 -3.50846 -5.26393 0
M  V30 6553 C 610.608 -3.8724 -5.43692 0
M  V30 6554 H 609.878 -0.0539666 -0.739032 0
M  V30 6555 H 612.525 -0.827599 -1.72694 0
M  V30 6556 H 610.83 0.670987 -3.86012 0
M  V30 6557 H 612.527 0.304891 -3.99839 0
M  V30 6558 H 609.117 -1.1221 -4.13651 0
M  V30 6559 H 613.301 -2.0187 -4.5339 0
M  V30 6560 H 608.557 -3.28846 -5.15432 0
M  V30 6561 H 612.731 -4.18616 -5.56537 0
M  V30 6562 H 610.358 -4.8266 -5.87319 0
M  V30 6563 N 611.933 1.52934 -0.380664 0
M  V30 6564 C 612.863 2.29118 0.450268 0
M  V30 6565 C 613.844 1.32153 1.07096 0
M  V30 6566 O 615.029 1.61038 1.08537 0
M  V30 6567 C 612.159 3.09161 1.58231 0
M  V30 6568 C 611.113 4.13938 1.0881 0
M  V30 6569 C 610.439 4.82153 2.31155 0
M  V30 6570 C 611.739 5.22048 0.162146 0
M  V30 6571 H 613.433 2.98826 -0.185361 0
M  V30 6572 H 610.979 1.43715 -0.0905886 0
M  V30 6573 H 612.932 3.61211 2.17036 0
M  V30 6574 H 611.656 2.3717 2.2454 0
M  V30 6575 H 610.315 3.62855 0.522633 0
M  V30 6576 H 609.963 4.06719 2.95953 0
M  V30 6577 H 609.663 5.52966 1.98752 0
M  V30 6578 H 611.187 5.37004 2.90618 0
M  V30 6579 H 612.601 5.6951 0.658126 0
M  V30 6580 H 610.998 6.00057 -0.0717122 0
M  V30 6581 H 612.068 4.78398 -0.791438 0
M  V30 6582 N 613.412 0.11024 1.57214 0
M  V30 6583 C 614.659 -0.54987 1.94891 0
M  V30 6584 C 614.987 -1.67243 0.992984 0
M  V30 6585 O 614.242 -1.95694 0.0152703 0
M  V30 6586 C 614.541 -1.13102 3.39032 0
M  V30 6587 C 614.207 -0.130713 4.5071 0
M  V30 6588 C 612.869 0.14437 4.80983 0
M  V30 6589 C 615.221 0.551472 5.18274 0
M  V30 6590 C 612.549 1.10807 5.76141 0
M  V30 6591 C 614.901 1.50375 6.14467 0
M  V30 6592 C 613.565 1.78691 6.43138 0
M  V30 6593 H 612.835 -0.201212 0.713158 0
M  V30 6594 H 615.482 0.189288 1.90562 0
M  V30 6595 H 613.787 -1.94675 3.40013 0
M  V30 6596 H 615.484 -1.64973 3.65493 0
M  V30 6597 H 612.074 -0.355301 4.27125 0
M  V30 6598 H 616.258 0.35211 4.95049 0
M  V30 6599 H 611.514 1.3343 5.96663 0
M  V30 6600 H 615.688 2.03808 6.65909 0
M  V30 6601 H 613.315 2.53522 7.1668 0
M  V30 6602 N 614.89 -1.56749 -0.16351 0
M  V30 6603 C 615.853 -1.96121 -1.18613 0
M  V30 6604 C 616.853 -0.845765 -1.36761 0
M  V30 6605 O 618.043 -1.11268 -1.34033 0
M  V30 6606 C 615.175 -2.26282 -2.54969 0
M  V30 6607 H 616.368 -2.87639 -0.848764 0
M  V30 6608 H 613.921 -1.50928 -0.406251 0
M  V30 6609 H 614.656 -1.37504 -2.93706 0
M  V30 6610 H 614.441 -3.07595 -2.43162 0
M  V30 6611 H 615.931 -2.57638 -3.28653 0
M  V30 6612 N 616.368 0.432326 -1.51554 0
M  V30 6613 C 617.298 1.53242 -1.76179 0
M  V30 6614 C 618.279 1.58717 -0.611801 0
M  V30 6615 O 619.464 1.74364 -0.855033 0
M  V30 6616 C 616.594 2.91278 -1.89141 0
M  V30 6617 C 615.548 3.00663 -3.04608 0
M  V30 6618 C 614.874 4.40728 -3.02759 0
M  V30 6619 C 616.174 2.74281 -4.44485 0
M  V30 6620 H 617.868 1.32886 -2.68294 0
M  V30 6621 H 615.414 0.637841 -1.29103 0
M  V30 6622 H 617.367 3.68203 -2.04951 0
M  V30 6623 H 616.091 3.12877 -0.936785 0
M  V30 6624 H 614.75 2.26179 -2.88511 0
M  V30 6625 H 614.398 4.59301 -2.05065 0
M  V30 6626 H 614.098 4.47936 -3.80299 0
M  V30 6627 H 615.622 5.19619 -3.20669 0
M  V30 6628 H 617.036 3.40936 -4.60907 0
M  V30 6629 H 615.433 2.92893 -5.23769 0
M  V30 6630 H 616.503 1.69856 -4.54177 0
M  V30 6631 N 617.846 1.41785 0.688094 0
M  V30 6632 C 618.809 1.43936 1.78368 0
M  V30 6633 C 619.809 0.328866 1.57401 0
M  V30 6634 O 620.999 0.589093 1.63937 0
M  V30 6635 C 618.131 1.25804 3.16838 0
M  V30 6636 H 619.324 2.41472 1.77852 0
M  V30 6637 H 616.877 1.28037 0.896448 0
M  V30 6638 H 617.612 0.291386 3.22988 0
M  V30 6639 H 617.397 2.06272 3.33458 0
M  V30 6640 H 618.887 1.30162 3.96797 0
M  V30 6641 N 619.324 -0.923095 1.27737 0
M  V30 6642 C 620.257 -2.02515 1.05181 0
M  V30 6643 C 621.235 -1.62574 -0.0292204 0
M  V30 6644 O 622.419 -1.88137 0.116848 0
M  V30 6645 C 619.546 -3.33407 0.596468 0
M  V30 6646 C 618.592 -3.92328 1.67276 0
M  V30 6647 S 619.425 -4.24342 3.26641 0
M  V30 6648 C 620.581 -5.58308 2.82919 0
M  V30 6649 H 620.814 -2.21336 1.98488 0
M  V30 6650 H 618.347 -1.06679 1.1162 0
M  V30 6651 H 620.305 -4.09086 0.34044 0
M  V30 6652 H 618.966 -3.125 -0.316614 0
M  V30 6653 H 618.159 -4.86797 1.30556 0
M  V30 6654 H 617.761 -3.2325 1.8811 0
M  V30 6655 H 620.053 -6.37801 2.28509 0
M  V30 6656 H 620.996 -5.99931 3.7615 0
M  V30 6657 H 621.404 -5.19049 2.21919 0
M  V30 6658 N 620.802 -1.09834 -1.13024 0
M  V30 6659 C 622.048 -0.83819 -1.84668 0
M  V30 6660 C 622.381 0.634645 -1.83537 0
M  V30 6661 O 621.656 1.46753 -1.27647 0
M  V30 6662 C 621.939 -1.37933 -3.32636 0
M  V30 6663 C 621.792 -2.91857 -3.42257 0
M  V30 6664 C 623.111 -1.01654 -4.28199 0
M  V30 6665 H 620.23 -0.30595 -0.670495 0
M  V30 6666 H 622.872 -1.36044 -1.32635 0
M  V30 6667 H 621.022 -0.935111 -3.77078 0
M  V30 6668 H 622.694 -3.44759 -3.06495 0
M  V30 6669 H 620.937 -3.28776 -2.83 0
M  V30 6670 H 621.608 -3.24799 -4.46329 0
M  V30 6671 H 624.084 -1.39973 -3.9185 0
M  V30 6672 H 622.96 -1.42217 -5.30156 0
M  V30 6673 H 623.221 0.0747794 -4.42037 0
M  V30 6674 N 622.28 1.30327 -0.886154 0
M  V30 6675 C 623.21 2.30549 -0.370028 0
M  V30 6676 C 624.191 1.61039 0.547751 0
M  V30 6677 O 625.376 1.8864 0.461353 0
M  V30 6678 C 622.506 3.44808 0.415275 0
M  V30 6679 C 621.46 4.26024 -0.41085 0
M  V30 6680 C 620.786 5.32347 0.501128 0
M  V30 6681 C 622.086 4.95433 -1.65359 0
M  V30 6682 H 623.78 2.73969 -1.20754 0
M  V30 6683 H 621.326 1.3171 -0.582097 0
M  V30 6684 H 623.279 4.13986 0.78699 0
M  V30 6685 H 622.003 3.00197 1.28644 0
M  V30 6686 H 620.662 3.58535 -0.764719 0
M  V30 6687 H 620.31 4.83982 1.37004 0
M  V30 6688 H 620.01 5.87581 -0.0478356 0
M  V30 6689 H 621.534 6.0438 0.869333 0
M  V30 6690 H 622.948 5.5712 -1.35239 0
M  V30 6691 H 621.345 5.60537 -2.14284 0
M  V30 6692 H 622.415 4.21493 -2.39733 0
M  V30 6693 N 623.758 0.647228 1.43697 0
M  V30 6694 C 624.721 -0.0385101 2.29168 0
M  V30 6695 C 625.721 -0.756487 1.41894 0
M  V30 6696 O 626.911 -0.598641 1.63591 0
M  V30 6697 C 624.043 -1.06524 3.23829 0
M  V30 6698 H 625.236 0.713445 2.9129 0
M  V30 6699 H 622.789 0.408153 1.50877 0
M  V30 6700 H 623.524 -1.84664 2.66589 0
M  V30 6701 H 623.309 -0.554147 3.88164 0
M  V30 6702 H 624.799 -1.54432 3.87996 0
M  V30 6703 N 625.236 -1.5273 0.388769 0
M  V30 6704 C 626.146 -2.30165 -0.453993 0
M  V30 6705 C 627.162 -1.37058 -1.07197 0
M  V30 6706 O 628.338 -1.70127 -1.0779 0
M  V30 6707 C 625.403 -3.09303 -1.56628 0
M  V30 6708 C 624.464 -4.18117 -0.973467 0
M  V30 6709 C 623.697 -4.93472 -2.03275 0
M  V30 6710 O 623.92 -4.68913 -3.24772 0
M  V30 6711 O 622.854 -5.78833 -1.65034 0
M  V30 6712 H 626.68 -3.03185 0.176816 0
M  V30 6713 H 624.265 -1.4862 0.152501 0
M  V30 6714 H 626.147 -3.58648 -2.21246 0
M  V30 6715 H 624.822 -2.39098 -2.18206 0
M  V30 6716 H 623.729 -3.7297 -0.290556 0
M  V30 6717 H 625.062 -4.90556 -0.401908 0
M  V30 6718 N 626.714 -0.118576 -1.57153 0
M  V30 6719 C 627.662 0.849114 -2.16547 0
M  V30 6720 C 628.656 1.27567 -1.11458 0
M  V30 6721 O 629.862 1.24746 -1.29763 0
M  V30 6722 H 626.237 0.291935 -0.693021 0
M  V30 6723 H 628.208 0.323693 -2.96639 0
M  V30 6724 C 626.957 2.08951 -2.77912 0
M  V30 6725 H 626.28 1.77021 -3.58474 0
M  V30 6726 H 627.72 2.74666 -3.23008 0
M  V30 6727 C 626.179 2.87899 -1.74974 0
M  V30 6728 O 626.709 3.83268 -1.20285 0
M  V30 6729 N 624.915 2.51884 -1.44924 0
M  V30 6730 H 624.462 1.74397 -1.89587 0
M  V30 6731 H 624.42 3.05003 -0.762921 0
M  V30 6732 N 628.193 1.56834 0.155195 0
M  V30 6733 C 629.609 1.51315 0.50755 0
M  V30 6734 C 629.809 0.825614 1.83809 0
M  V30 6735 O 628.865 0.39271 2.49427 0
M  V30 6736 C 630.178 2.96074 0.52542 0
M  V30 6737 C 631.726 3.06968 0.611505 0
M  V30 6738 C 632.201 4.53218 0.660115 0
M  V30 6739 N 633.692 4.5753 0.722564 0
M  V30 6740 C 634.427 5.68056 0.781023 0
M  V30 6741 N 633.923 6.88173 0.799327 0
M  V30 6742 N 635.716 5.56068 0.821278 0
M  V30 6743 H 627.867 1.9993 -0.717063 0
M  V30 6744 H 630.13 0.911507 -0.260496 0
M  V30 6745 H 629.836 3.49599 -0.383875 0
M  V30 6746 H 629.71 3.51587 1.36624 0
M  V30 6747 H 632.097 2.53468 1.51122 0
M  V30 6748 H 632.178 2.54513 -0.256306 0
M  V30 6749 H 631.822 5.07354 -0.23541 0
M  V30 6750 H 631.752 5.03447 1.5443 0
M  V30 6751 H 634.243 3.71054 0.716049 0
M  V30 6752 H 634.556 7.6816 0.845553 0
M  V30 6753 H 632.901 6.90751 0.767337 0
M  V30 6754 H 636.092 4.61142 0.804091 0
M  V30 6755 H 636.265 6.42223 0.863372 0
M  V30 6756 N 629.671 -0.424282 1.51781 0
M  V30 6757 C 631.082 -1.00368 1.57427 0
M  V30 6758 C 631.433 -1.91962 0.40558 0
M  V30 6759 O 630.558 -2.111 -0.47601 0
M  V30 6760 C 631.153 -1.82707 2.85313 0
M  V30 6761 C 629.712 -2.35675 2.93487 0
M  V30 6762 C 628.859 -1.1524 2.5222 0
M  V30 6763 H 631.81 -0.205064 1.5737 0
M  V30 6764 H 631.831 -2.68294 2.69812 0
M  V30 6765 H 631.343 -1.16017 3.70353 0
M  V30 6766 H 629.444 -3.05781 2.12906 0
M  V30 6767 H 629.557 -2.67578 3.97415 0
M  V30 6768 H 627.921 -1.50174 2.05718 0
M  V30 6769 H 628.704 -0.5014 3.39619 0
M  V30 6770 N 631.149 -1.42148 -0.680565 0
M  V30 6771 C 632.112 -1.4488 -1.77602 0
M  V30 6772 C 633.112 -0.337209 -1.57224 0
M  V30 6773 O 634.302 -0.597778 -1.63622 0
M  V30 6774 C 631.434 -1.27483 -3.16166 0
M  V30 6775 H 632.627 -2.42412 -1.76568 0
M  V30 6776 H 630.18 -1.28511 -0.889645 0
M  V30 6777 H 630.915 -0.30851 -3.22829 0
M  V30 6778 H 630.7 -2.08037 -3.3236 0
M  V30 6779 H 632.19 -1.32265 -3.96101 0
M  V30 6780 N 632.627 0.916307 -1.28225 0
M  V30 6781 C 633.873 1.66765 -1.154 0
M  V30 6782 C 634.206 1.91912 0.297251 0
M  V30 6783 O 633.481 1.51766 1.21644 0
M  V30 6784 C 633.764 3.02715 -1.95028 0
M  V30 6785 C 633.617 2.84738 -3.48201 0
M  V30 6786 C 634.936 4.03215 -1.76369 0
M  V30 6787 H 632.055 0.605205 -0.42059 0
M  V30 6788 H 634.697 1.06255 -1.57512 0
M  V30 6789 H 632.847 3.54365 -1.59242 0
M  V30 6790 H 634.519 2.40118 -3.9388 0
M  V30 6791 H 632.762 2.19848 -3.73964 0
M  V30 6792 H 633.433 3.8127 -3.99171 0
M  V30 6793 H 635.909 3.60617 -2.07593 0
M  V30 6794 H 634.785 4.96306 -2.34459 0
M  V30 6795 H 635.046 4.36288 -0.71452 0
M  V30 6796 N 634.105 1.10431 1.1244 0
M  V30 6797 C 635.052 0.753103 2.18167 0
M  V30 6798 C 636.022 -0.270549 1.63882 0
M  V30 6799 O 637.207 -0.149837 1.90211 0
M  V30 6800 C 634.347 0.191046 3.44571 0
M  V30 6801 C 633.46 1.26999 4.12911 0
M  V30 6802 C 632.595 0.669586 5.26963 0
M  V30 6803 C 631.634 1.72912 5.87169 0
M  V30 6804 N 630.771 1.14898 6.92635 0
M  V30 6805 H 635.611 1.65892 2.47556 0
M  V30 6806 H 633.148 0.828631 1.21541 0
M  V30 6807 H 635.106 -0.152712 4.1692 0
M  V30 6808 H 633.736 -0.677997 3.15599 0
M  V30 6809 H 632.788 1.73087 3.3874 0
M  V30 6810 H 634.1 2.07204 4.53727 0
M  V30 6811 H 633.254 0.275274 6.06075 0
M  V30 6812 H 631.993 -0.163895 4.87425 0
M  V30 6813 H 630.998 2.13286 5.06744 0
M  V30 6814 H 632.223 2.56544 6.28778 0
M  V30 6815 H 630.169 0.336956 6.55134 0
M  V30 6816 H 630.086 1.88786 7.32049 0
M  V30 6817 H 631.354 0.78121 7.75576 0
M  V30 6818 N 635.583 -1.29855 0.893053 0
M  V30 6819 C 636.546 -2.26183 0.370687 0
M  V30 6820 C 637.546 -1.53108 -0.491385 0
M  V30 6821 O 638.736 -1.71643 -0.297386 0
M  V30 6822 C 635.868 -3.37633 -0.470827 0
M  V30 6823 H 637.061 -2.73903 1.22135 0
M  V30 6824 H 634.614 -1.41183 0.67061 0
M  V30 6825 H 635.349 -2.95241 -1.34175 0
M  V30 6826 H 635.134 -3.91825 0.146784 0
M  V30 6827 H 636.624 -4.09313 -0.827825 0
M  V30 6828 N 637.061 -0.65484 -1.43351 0
M  V30 6829 C 638.024 0.0263562 -2.29185 0
M  V30 6830 C 639.024 0.748951 -1.42293 0
M  V30 6831 O 640.214 0.589957 -1.63906 0
M  V30 6832 C 637.346 1.04806 -3.2439 0
M  V30 6833 H 638.539 -0.728883 -2.90908 0
M  V30 6834 H 636.092 -0.416149 -1.50658 0
M  V30 6835 H 636.827 1.83247 -2.67565 0
M  V30 6836 H 636.612 0.533554 -3.88453 0
M  V30 6837 H 638.102 1.52372 -3.88809 0
M  V30 6838 N 638.539 1.52521 -0.396863 0
M  V30 6839 C 639.471 2.24333 0.469814 0
M  V30 6840 C 640.484 1.2685 1.02043 0
M  V30 6841 O 641.673 1.52876 0.92147 0
M  V30 6842 C 638.773 2.95202 1.66461 0
M  V30 6843 C 637.946 4.19454 1.24003 0
M  V30 6844 C 637.005 4.73255 2.30036 0
M  V30 6845 O 636.031 5.36151 1.91131 0
M  V30 6846 N 637.233 4.53765 3.62047 0
M  V30 6847 H 639.998 2.99347 -0.145468 0
M  V30 6848 H 637.559 1.60348 -0.223606 0
M  V30 6849 H 639.551 3.28092 2.36934 0
M  V30 6850 H 638.121 2.2345 2.18607 0
M  V30 6851 H 637.341 3.92517 0.363892 0
M  V30 6852 H 638.629 5.0017 0.933135 0
M  V30 6853 H 638.027 4.03576 3.96412 0
M  V30 6854 H 636.584 4.91124 4.28533 0
M  V30 6855 N 640.017 0.126909 1.57088 0
M  V30 6856 C 640.965 -0.837618 2.16995 0
M  V30 6857 C 641.959 -1.26974 1.12133 0
M  V30 6858 O 643.165 -1.24056 1.30423 0
M  V30 6859 H 639.54 -0.288256 0.694559 0
M  V30 6860 H 641.511 -0.307957 2.96807 0
M  V30 6861 C 640.26 -2.07474 2.79016 0
M  V30 6862 H 639.583 -1.75117 3.59408 0
M  V30 6863 H 641.023 -2.72949 3.24461 0
M  V30 6864 C 639.482 -2.86967 1.76498 0
M  V30 6865 O 640.012 -3.82625 1.22316 0
M  V30 6866 N 638.218 -2.51111 1.46258 0
M  V30 6867 H 637.765 -1.73389 1.90509 0
M  V30 6868 H 637.723 -3.04594 0.779085 0
M  V30 6869 N 641.495 -1.56914 -0.146875 0
M  V30 6870 C 642.405 -2.0154 -1.20079 0
M  V30 6871 C 643.421 -0.930838 -1.47008 0
M  V30 6872 O 644.597 -1.24032 -1.58676 0
M  V30 6873 C 641.662 -2.38715 -2.51428 0
M  V30 6874 C 640.723 -3.6112 -2.32145 0
M  V30 6875 C 639.956 -3.96512 -3.57231 0
M  V30 6876 O 640.179 -3.32566 -4.63418 0
M  V30 6877 O 639.113 -4.89758 -3.49887 0
M  V30 6878 H 642.939 -2.91506 -0.851924 0
M  V30 6879 H 640.524 -1.45106 -0.355607 0
M  V30 6880 H 642.406 -2.63485 -3.28867 0
M  V30 6881 H 641.081 -1.51903 -2.85845 0
M  V30 6882 H 639.988 -3.41536 -1.52656 0
M  V30 6883 H 641.321 -4.48549 -2.02644 0
M  V30 6884 N 642.974 0.416227 -1.52004 0
M  V30 6885 C 644.223 1.16088 -1.64944 0
M  V30 6886 C 644.536 1.91835 -0.381928 0
M  V30 6887 O 645.742 2.6867 -0.391013 0
M  V30 6888 C 644.198 2.1124 -2.91386 0
M  V30 6889 C 643.806 1.41042 -4.25219 0
M  V30 6890 C 645.55 2.86008 -3.13688 0
M  V30 6891 C 643.457 2.34801 -5.42791 0
M  V30 6892 H 642.387 0.437041 -0.61442 0
M  V30 6893 H 645.038 0.425971 -1.78487 0
M  V30 6894 H 643.42 2.88254 -2.71525 0
M  V30 6895 H 644.594 0.694416 -4.55538 0
M  V30 6896 H 642.909 0.78344 -4.08964 0
M  V30 6897 H 645.506 3.56286 -3.98703 0
M  V30 6898 H 645.849 3.48556 -2.27628 0
M  V30 6899 H 646.382 2.16095 -3.33988 0
M  V30 6900 H 643.121 1.7691 -6.31176 0
M  V30 6901 H 642.641 3.04395 -5.16821 0
M  V30 6902 H 644.32 2.9548 -5.75587 0
M  V30 6903 N 644.452 1.42507 0.673017 0
M  V30 6904 C 645.698 1.44282 1.43367 0
M  V30 6905 C 646.053 0.0588239 1.9231 0
M  V30 6906 O 645.346 -0.919288 1.68106 0
M  V30 6907 C 645.54 2.40351 2.64511 0
M  V30 6908 C 645.369 3.87955 2.27423 0
M  V30 6909 C 644.139 4.56476 2.16697 0
M  V30 6910 C 646.337 4.7833 1.88957 0
M  V30 6911 N 644.319 5.89099 1.72731 0
M  V30 6912 C 645.69 6.00073 1.55923 0
M  V30 6913 C 647.745 4.65769 1.75965 0
M  V30 6914 C 646.448 7.10652 1.112 0
M  V30 6915 C 648.474 5.76332 1.32647 0
M  V30 6916 C 647.836 6.97188 1.00538 0
M  V30 6917 H 643.935 0.583134 0.521036 0
M  V30 6918 H 646.519 1.78547 0.776481 0
M  V30 6919 H 644.69 2.08145 3.27918 0
M  V30 6920 H 646.422 2.32694 3.31113 0
M  V30 6921 H 643.177 4.10712 2.35823 0
M  V30 6922 H 643.601 6.59446 1.53166 0
M  V30 6923 H 648.243 3.72808 1.99435 0
M  V30 6924 H 645.961 8.0346 0.864768 0
M  V30 6925 H 649.547 5.68625 1.23112 0
M  V30 6926 H 648.427 7.81287 0.675283 0
M  V30 6927 N 645.93 -0.909495 1.28709 0
M  V30 6928 C 646.862 -2.01729 1.08804 0
M  V30 6929 C 647.875 -1.62755 0.0384739 0
M  V30 6930 O 649.064 -1.76259 0.281977 0
M  V30 6931 C 646.164 -3.32952 0.63217 0
M  V30 6932 C 645.337 -4.00512 1.75809 0
M  V30 6933 C 644.396 -5.10019 1.29488 0
M  V30 6934 O 643.422 -5.32986 1.99787 0
M  V30 6935 N 644.624 -5.80278 0.1604 0
M  V30 6936 H 647.389 -2.19362 2.04207 0
M  V30 6937 H 644.95 -1.08106 1.20518 0
M  V30 6938 H 646.942 -4.03543 0.305802 0
M  V30 6939 H 645.512 -3.11759 -0.229134 0
M  V30 6940 H 644.732 -3.23413 2.25383 0
M  V30 6941 H 646.02 -4.42395 2.51325 0
M  V30 6942 H 645.418 -5.64094 -0.425937 0
M  V30 6943 H 643.975 -6.51713 -0.106663 0
M  V30 6944 N 647.408 -1.11026 -1.11852 0
M  V30 6945 C 648.636 -0.878818 -1.87308 0
M  V30 6946 C 649.051 0.57111 -1.79955 0
M  V30 6947 O 648.408 1.39409 -1.17777 0
M  V30 6948 C 648.459 -1.3264 -3.36287 0
M  V30 6949 O 648.18 -2.71948 -3.43476 0
M  V30 6950 C 649.681 -1.12974 -4.28663 0
M  V30 6951 H 646.901 -0.315015 -0.592458 0
M  V30 6952 H 649.445 -1.47649 -1.41492 0
M  V30 6953 H 647.6 -0.772269 -3.79625 0
M  V30 6954 H 648.014 -2.91241 -4.3621 0
M  V30 6955 H 649.488 -1.49198 -5.31454 0
M  V30 6956 H 649.965 -0.0689127 -4.39146 0
M  V30 6957 H 650.571 -1.67064 -3.91113 0
M  V30 6958 N 648.886 1.2938 -0.899927 0
M  V30 6959 C 650.133 1.9555 -0.525963 0
M  V30 6960 C 650.461 1.70945 0.927789 0
M  V30 6961 O 649.716 1.01545 1.67293 0
M  V30 6962 C 650.015 3.49114 -0.765113 0
M  V30 6963 C 649.681 3.93796 -2.19626 0
M  V30 6964 C 648.343 4.05707 -2.58758 0
M  V30 6965 C 650.695 4.16883 -3.12823 0
M  V30 6966 C 648.023 4.38074 -3.90267 0
M  V30 6967 C 650.375 4.50725 -4.4388 0
M  V30 6968 C 649.039 4.60845 -4.82885 0
M  V30 6969 H 648.309 0.715569 -0.192463 0
M  V30 6970 H 650.956 1.53972 -1.13863 0
M  V30 6971 H 649.261 3.91738 -0.069531 0
M  V30 6972 H 650.958 3.98409 -0.455144 0
M  V30 6973 H 647.548 3.85042 -1.88256 0
M  V30 6974 H 651.732 4.07147 -2.83804 0
M  V30 6975 H 646.988 4.44112 -4.20207 0
M  V30 6976 H 651.162 4.67538 -5.16121 0
M  V30 6977 H 648.789 4.85681 -5.84823 0
M  V30 6978 N 650.364 0.662433 1.43002 0
M  V30 6979 C 651.611 0.179591 2.01702 0
M  V30 6980 C 651.939 -1.20964 1.52309 0
M  V30 6981 O 651.194 -1.82343 0.7106 0
M  V30 6982 C 651.493 0.149363 3.57088 0
M  V30 6983 C 651.159 1.48158 4.25864 0
M  V30 6984 C 649.821 1.84638 4.44367 0
M  V30 6985 C 652.173 2.35953 4.64732 0
M  V30 6986 C 649.501 3.08561 4.99006 0
M  V30 6987 C 651.853 3.59176 5.20745 0
M  V30 6988 C 650.517 3.95841 5.37463 0
M  V30 6989 H 649.787 0.0657172 0.73808 0
M  V30 6990 H 652.434 0.854968 1.71355 0
M  V30 6991 H 650.739 -0.609491 3.8703 0
M  V30 6992 H 652.436 -0.241241 4.00274 0
M  V30 6993 H 649.026 1.18777 4.11813 0
M  V30 6994 H 653.21 2.09058 4.50121 0
M  V30 6995 H 648.466 3.37005 5.10135 0
M  V30 6996 H 652.64 4.27417 5.49807 0
M  V30 6997 H 650.267 4.91942 5.79566 0
M  V30 6998 N 651.842 -1.52309 0.404946 0
M  V30 6999 C 653.258 -1.59503 0.0556255 0
M  V30 7000 C 653.458 -1.41805 -1.43156 0
M  V30 7001 O 652.514 -1.2429 -2.19792 0
M  V30 7002 C 653.827 -2.95687 0.546801 0
M  V30 7003 C 655.375 -3.08909 0.504413 0
M  V30 7004 C 655.85 -4.47566 0.97203 0
M  V30 7005 N 657.341 -4.53795 0.928679 0
M  V30 7006 C 658.076 -5.59346 1.26174 0
M  V30 7007 N 657.572 -6.72469 1.66604 0
M  V30 7008 N 659.365 -5.49532 1.18198 0
M  V30 7009 H 651.516 -1.6206 1.37296 0
M  V30 7010 H 653.779 -0.762161 0.563751 0
M  V30 7011 H 653.485 -3.13905 1.58609 0
M  V30 7012 H 653.359 -3.77172 -0.0457905 0
M  V30 7013 H 655.746 -2.90378 -0.525819 0
M  V30 7014 H 655.827 -2.2934 1.13301 0
M  V30 7015 H 655.471 -4.6684 2.00057 0
M  V30 7016 H 655.401 -5.25625 0.320292 0
M  V30 7017 H 657.892 -3.72588 0.631369 0
M  V30 7018 H 658.205 -7.48993 1.9034 0
M  V30 7019 H 656.55 -6.73761 1.70504 0
M  V30 7020 H 659.741 -4.60038 0.865011 0
M  V30 7021 H 659.914 -6.31687 1.44485 0
M  V30 7022 N 653.32 -0.135238 -1.57019 0
M  V30 7023 C 654.568 0.51777 -1.95355 0
M  V30 7024 C 654.889 1.6617 -1.02042 0
M  V30 7025 O 654.159 1.95738 -0.0797343 0
M  V30 7026 H 652.739 0.194264 -0.721298 0
M  V30 7027 H 655.401 -0.207983 -1.93787 0
M  V30 7028 H 654.497 0.901675 -2.98791 0
M  V30 7029 N 654.798 1.5699 0.138552 0
M  V30 7030 C 656.214 1.51844 0.491472 0
M  V30 7031 C 656.414 0.845063 1.82923 0
M  V30 7032 O 655.47 0.419143 2.48997 0
M  V30 7033 C 656.783 2.96615 0.493987 0
M  V30 7034 C 658.331 3.076 0.578913 0
M  V30 7035 C 658.806 4.53893 0.612009 0
M  V30 7036 N 660.297 4.5827 0.673997 0
M  V30 7037 C 661.032 5.68852 0.720729 0
M  V30 7038 N 660.528 6.88982 0.726292 0
M  V30 7039 N 662.321 5.56908 0.762253 0
M  V30 7040 H 654.472 1.99158 -0.738228 0
M  V30 7041 H 656.735 0.908693 -0.270149 0
M  V30 7042 H 656.441 3.49172 -0.420933 0
M  V30 7043 H 656.315 3.53017 1.32887 0
M  V30 7044 H 658.702 2.55057 1.48425 0
M  V30 7045 H 658.783 2.54227 -0.283286 0
M  V30 7046 H 658.427 5.07076 -0.289208 0
M  V30 7047 H 658.357 5.05057 1.49082 0
M  V30 7048 H 660.848 3.71793 0.676654 0
M  V30 7049 H 661.161 7.69014 0.764032 0
M  V30 7050 H 659.506 6.91526 0.69403 0
M  V30 7051 H 662.697 4.61969 0.755135 0
M  V30 7052 H 662.87 6.43102 0.795207 0
M  V30 7053 N 656.276 -0.40816 1.52223 0
M  V30 7054 C 657.506 -1.17501 1.69932 0
M  V30 7055 C 657.914 -1.84729 0.408874 0
M  V30 7056 O 657.257 -1.7274 -0.625025 0
M  V30 7057 C 657.319 -2.27994 2.77955 0
M  V30 7058 C 656.983 -1.80894 4.19674 0
M  V30 7059 C 657.98 -1.29618 5.03483 0
M  V30 7060 C 655.665 -1.87698 4.65913 0
M  V30 7061 C 657.659 -0.857695 6.31603 0
M  V30 7062 C 655.346 -1.43461 5.94022 0
M  V30 7063 C 656.344 -0.925822 6.76696 0
M  V30 7064 O 656.032 -0.489841 8.02406 0
M  V30 7065 H 655.764 -0.359065 0.572755 0
M  V30 7066 H 658.318 -0.486188 1.99563 0
M  V30 7067 H 656.548 -3.00243 2.43703 0
M  V30 7068 H 658.237 -2.89749 2.84254 0
M  V30 7069 H 659.003 -1.23733 4.68951 0
M  V30 7070 H 654.882 -2.26244 4.01665 0
M  V30 7071 H 658.426 -0.459879 6.96083 0
M  V30 7072 H 654.323 -1.49026 6.28062 0
M  V30 7073 H 655.091 -0.613062 8.16201 0
M  V30 7074 N 657.755 -1.42862 -0.66545 0
M  V30 7075 C 658.685 -1.49867 -1.79059 0
M  V30 7076 C 659.666 -0.354394 -1.66367 0
M  V30 7077 O 660.851 -0.569969 -1.85647 0
M  V30 7078 C 657.981 -1.40943 -3.17415 0
M  V30 7079 C 656.935 -2.53495 -3.44854 0
M  V30 7080 C 656.261 -2.29626 -4.82883 0
M  V30 7081 C 657.561 -3.95781 -3.40815 0
M  V30 7082 H 659.255 -2.44037 -1.73453 0
M  V30 7083 H 656.801 -1.17456 -0.833071 0
M  V30 7084 H 658.754 -1.4445 -3.95869 0
M  V30 7085 H 657.478 -0.432716 -3.23721 0
M  V30 7086 H 656.137 -2.4932 -2.68766 0
M  V30 7087 H 655.785 -1.30226 -4.8585 0
M  V30 7088 H 655.485 -3.05065 -5.02204 0
M  V30 7089 H 657.009 -2.34897 -5.63609 0
M  V30 7090 H 658.423 -4.01508 -4.09224 0
M  V30 7091 H 656.82 -4.71148 -3.71672 0
M  V30 7092 H 657.89 -4.21786 -2.39216 0
M  V30 7093 N 659.233 0.902656 -1.29189 0
M  V30 7094 C 660.163 2.02294 -1.16616 0
M  V30 7095 C 661.144 1.6999 -0.0611175 0
M  V30 7096 O 662.329 1.9271 -0.240072 0
M  V30 7097 C 659.459 3.37018 -0.83882 0
M  V30 7098 C 658.413 3.83522 -1.89986 0
M  V30 7099 C 657.739 5.15337 -1.42589 0
M  V30 7100 C 659.039 4.04169 -3.30824 0
M  V30 7101 H 660.733 2.13071 -2.10336 0
M  V30 7102 H 658.279 1.02378 -1.01266 0
M  V30 7103 H 660.232 4.14895 -0.737584 0
M  V30 7104 H 658.956 3.26325 0.134071 0
M  V30 7105 H 657.615 3.07859 -1.99043 0
M  V30 7106 H 657.263 5.01056 -0.441759 0
M  V30 7107 H 656.963 5.47423 -2.13547 0
M  V30 7108 H 658.487 5.95758 -1.3381 0
M  V30 7109 H 659.901 4.72537 -3.24626 0
M  V30 7110 H 658.298 4.47604 -3.99713 0
M  V30 7111 H 659.368 3.08604 -3.74021 0
M  V30 7112 N 660.711 1.11618 1.11262 0
M  V30 7113 C 661.641 0.79846 2.19424 0
M  V30 7114 C 662.622 -0.234003 1.68483 0
M  V30 7115 O 663.807 -0.0970704 1.93957 0
M  V30 7116 C 660.937 0.242892 3.4645 0
M  V30 7117 C 659.891 1.20744 4.10615 0
M  V30 7118 C 659.217 0.512494 5.32238 0
M  V30 7119 C 660.517 2.55884 4.55325 0
M  V30 7120 H 662.211 1.70286 2.46258 0
M  V30 7121 H 659.757 0.820195 1.18359 0
M  V30 7122 H 661.71 0.00840447 4.21399 0
M  V30 7123 H 660.434 -0.696811 3.1908 0
M  V30 7124 H 659.093 1.42759 3.37662 0
M  V30 7125 H 658.741 -0.432075 5.01141 0
M  V30 7126 H 658.441 1.15583 5.7612 0
M  V30 7127 H 659.965 0.286842 6.09926 0
M  V30 7128 H 661.379 2.37946 5.21588 0
M  V30 7129 H 659.776 3.16216 5.10027 0
M  V30 7130 H 660.846 3.14968 3.68678 0
M  V30 7131 N 662.189 -1.289 0.906776 0
M  V30 7132 C 663.119 -2.29932 0.406659 0
M  V30 7133 C 664.1 -1.6189 -0.522061 0
M  V30 7134 O 665.285 -1.8935 -0.431283 0
M  V30 7135 C 662.415 -3.45425 -0.360366 0
M  V30 7136 C 661.369 -4.25316 0.478574 0
M  V30 7137 C 660.695 -5.33076 -0.416373 0
M  V30 7138 C 661.995 -4.92739 1.7322 0
M  V30 7139 H 663.689 -2.72013 1.25097 0
M  V30 7140 H 661.235 -1.30768 0.602977 0
M  V30 7141 H 663.188 -4.15186 -0.721029 0
M  V30 7142 H 661.912 -3.02206 -1.23852 0
M  V30 7143 H 660.571 -3.57273 0.821662 0
M  V30 7144 H 660.219 -4.86101 -1.29287 0
M  V30 7145 H 659.919 -5.8743 0.141309 0
M  V30 7146 H 661.443 -6.05686 -0.773072 0
M  V30 7147 H 662.857 -5.54898 1.44086 0
M  V30 7148 H 661.254 -5.57057 2.23175 0
M  V30 7149 H 662.324 -4.17625 2.46408 0
M  V30 7150 N 663.667 -0.670007 -1.42649 0
M  V30 7151 C 664.6 0.0613623 -2.28117 0
M  V30 7152 C 665.578 0.813414 -1.40792 0
M  V30 7153 O 666.762 0.809529 -1.70232 0
M  V30 7154 C 663.889 1.09399 -3.20546 0
M  V30 7155 C 662.935 0.438064 -4.24244 0
M  V30 7156 S 663.768 -0.800808 -5.29478 0
M  V30 7157 C 664.924 0.23086 -6.25474 0
M  V30 7158 H 665.157 -0.663606 -2.89799 0
M  V30 7159 H 662.69 -0.45939 -1.47407 0
M  V30 7160 H 664.648 1.68469 -3.74337 0
M  V30 7161 H 663.309 1.79137 -2.58009 0
M  V30 7162 H 662.502 1.21707 -4.89084 0
M  V30 7163 H 662.104 -0.0789346 -3.73917 0
M  V30 7164 H 664.396 1.09204 -6.68641 0
M  V30 7165 H 665.339 -0.382945 -7.07064 0
M  V30 7166 H 665.747 0.574191 -5.61572 0
M  V30 7167 N 665.145 1.52092 -0.413018 0
M  V30 7168 C 666.393 2.01456 0.161178 0
M  V30 7169 C 666.714 1.30034 1.45314 0
M  V30 7170 O 665.984 0.427435 1.9118 0
M  V30 7171 H 664.564 0.744376 0.0625526 0
M  V30 7172 H 667.226 1.86974 -0.550151 0
M  V30 7173 H 666.322 3.1008 0.354517 0
M  V30 7174 N 666.623 0.143563 1.56945 0
M  V30 7175 C 667.553 -0.7936 2.196 0
M  V30 7176 C 668.534 -1.25955 1.14321 0
M  V30 7177 O 669.719 -1.31773 1.42651 0
M  V30 7178 C 666.849 -2.03424 2.81489 0
M  V30 7179 C 665.803 -1.70519 3.92565 0
M  V30 7180 C 665.129 -3.01817 4.41373 0
M  V30 7181 C 666.429 -0.95449 5.13504 0
M  V30 7182 H 668.123 -0.271423 2.98167 0
M  V30 7183 H 665.669 -0.12911 1.4342 0
M  V30 7184 H 667.622 -2.69463 3.23987 0
M  V30 7185 H 666.346 -2.58008 2.00248 0
M  V30 7186 H 665.005 -1.06859 3.5068 0
M  V30 7187 H 664.653 -3.54386 3.56959 0
M  V30 7188 H 664.353 -2.80565 5.16292 0
M  V30 7189 H 665.877 -3.68934 4.86539 0
M  V30 7190 H 667.291 -1.5169 5.52868 0
M  V30 7191 H 665.688 -0.842035 5.94163 0
M  V30 7192 H 666.758 0.0544033 4.84869 0
M  V30 7193 N 668.101 -1.57061 -0.130224 0
M  V30 7194 C 669.348 -1.84257 -0.839972 0
M  V30 7195 C 669.676 -0.726986 -1.80403 0
M  V30 7196 O 668.931 0.282632 -1.93648 0
M  V30 7197 C 669.23 -3.17878 -1.63365 0
M  V30 7198 C 668.896 -4.43475 -0.814891 0
M  V30 7199 C 667.558 -4.77581 -0.589066 0
M  V30 7200 C 669.91 -5.20631 -0.243437 0
M  V30 7201 C 667.238 -5.86292 0.218648 0
M  V30 7202 C 669.59 -6.30192 0.551408 0
M  V30 7203 C 668.254 -6.62837 0.787653 0
M  V30 7204 H 667.524 -0.674245 -0.307367 0
M  V30 7205 H 670.171 -1.91224 -0.102832 0
M  V30 7206 H 668.476 -3.06437 -2.44138 0
M  V30 7207 H 670.173 -3.3614 -2.18658 0
M  V30 7208 H 666.763 -4.16747 -1.00098 0
M  V30 7209 H 670.947 -4.94644 -0.405145 0
M  V30 7210 H 666.203 -6.10017 0.411016 0
M  V30 7211 H 670.377 -6.89165 1.00126 0
M  V30 7212 H 668.004 -7.46908 1.41537 0
M  V30 7213 N 669.579 0.400081 -1.52437 0
M  V30 7214 C 670.804 1.17221 -1.71096 0
M  V30 7215 C 671.229 1.83269 -0.423565 0
M  V30 7216 O 670.587 1.70378 0.619751 0
M  V30 7217 C 670.635 2.20425 -2.85386 0
M  V30 7218 O 669.739 3.26769 -2.51586 0
M  V30 7219 H 669.08 0.341766 -0.569291 0
M  V30 7220 H 671.61 0.467772 -1.99181 0
M  V30 7221 H 671.62 2.64605 -3.10561 0
M  V30 7222 H 670.295 1.71737 -3.78786 0
M  V30 7223 H 668.872 2.87804 -2.37114 0
M  V30 7224 N 671.057 1.43213 0.657864 0
M  V30 7225 C 672.306 1.43871 1.41365 0
M  V30 7226 C 672.619 0.064898 1.95492 0
M  V30 7227 O 673.825 -0.0510796 2.71452 0
M  V30 7228 C 672.281 2.53158 2.55811 0
M  V30 7229 C 671.889 3.96624 2.08311 0
M  V30 7230 C 673.633 2.63004 3.3321 0
M  V30 7231 C 671.54 4.97385 3.1994 0
M  V30 7232 H 670.47 0.535174 0.531136 0
M  V30 7233 H 673.121 1.69185 0.710543 0
M  V30 7234 H 671.503 2.21037 3.2857 0
M  V30 7235 H 672.677 4.38182 1.42593 0
M  V30 7236 H 670.992 3.90781 1.43804 0
M  V30 7237 H 673.589 3.3546 4.16378 0
M  V30 7238 H 673.932 1.67918 3.80932 0
M  V30 7239 H 674.465 2.94403 2.67529 0
M  V30 7240 H 671.204 5.94007 2.77192 0
M  V30 7241 H 670.724 4.60444 3.84385 0
M  V30 7242 H 672.403 5.19877 3.85145 0
M  V30 7243 N 672.536 -0.895792 1.29666 0
M  V30 7244 C 673.766 -1.67757 1.20586 0
M  V30 7245 C 674.174 -1.87729 -0.235432 0
M  V30 7246 O 673.517 -1.41706 -1.16898 0
M  V30 7247 C 673.579 -3.08117 1.85215 0
M  V30 7248 C 673.243 -3.1136 3.3452 0
M  V30 7249 C 674.24 -2.91217 4.30684 0
M  V30 7250 C 671.925 -3.33302 3.75786 0
M  V30 7251 C 673.919 -2.92955 5.66089 0
M  V30 7252 C 671.606 -3.3467 5.11311 0
M  V30 7253 C 672.604 -3.14519 6.06273 0
M  V30 7254 O 672.292 -3.15684 7.39323 0
M  V30 7255 H 672.024 -0.530601 0.418854 0
M  V30 7256 H 674.578 -1.12831 1.71634 0
M  V30 7257 H 672.808 -3.64661 1.28683 0
M  V30 7258 H 674.497 -3.68399 1.70403 0
M  V30 7259 H 675.263 -2.74074 4.00136 0
M  V30 7260 H 671.142 -3.48025 3.02324 0
M  V30 7261 H 674.686 -2.77145 6.40185 0
M  V30 7262 H 670.583 -3.51346 5.41504 0
M  V30 7263 H 671.351 -3.31924 7.48177 0
M  V30 7264 N 674.014 -1.12206 -1.10668 0
M  V30 7265 C 675.242 -0.898635 -1.86366 0
M  V30 7266 C 675.657 0.551991 -1.80551 0
M  V30 7267 O 675.014 1.38152 -1.19249 0
M  V30 7268 C 675.065 -1.36199 -3.34861 0
M  V30 7269 O 674.786 -2.75576 -3.40573 0
M  V30 7270 C 676.287 -1.17515 -4.2744 0
M  V30 7271 H 673.507 -0.321281 -0.589084 0
M  V30 7272 H 676.051 -1.49142 -1.39918 0
M  V30 7273 H 674.206 -0.81249 -3.78784 0
M  V30 7274 H 674.62 -2.95851 -4.33096 0
M  V30 7275 H 676.094 -1.54827 -5.29842 0
M  V30 7276 H 676.571 -0.115486 -4.39048 0
M  V30 7277 H 677.177 -1.71203 -3.89319 0
M  V30 7278 N 675.492 1.28418 -0.913599 0
M  V30 7279 C 676.74 1.94596 -0.545594 0
M  V30 7280 C 677.061 1.7227 0.913668 0
M  V30 7281 O 676.331 1.06233 1.64595 0
M  V30 7282 H 674.911 0.720065 -0.198783 0
M  V30 7283 H 677.573 1.56404 -1.16292 0
M  V30 7284 H 676.669 3.03202 -0.739911 0
M  V30 7285 N 676.97 0.677563 1.42291 0
M  V30 7286 C 678.217 0.200975 2.015 0
M  V30 7287 C 678.545 -1.19342 1.53583 0
M  V30 7288 O 677.8 -1.81579 0.7299 0
M  V30 7289 C 678.099 0.187229 3.56909 0
M  V30 7290 C 677.765 1.52667 4.24268 0
M  V30 7291 C 676.427 1.89341 4.42384 0
M  V30 7292 C 678.779 2.40869 4.62203 0
M  V30 7293 C 676.107 3.13836 4.95705 0
M  V30 7294 C 678.459 3.64679 5.16906 0
M  V30 7295 C 677.123 4.01519 5.33234 0
M  V30 7296 H 676.393 0.0735418 0.737342 0
M  V30 7297 H 679.04 0.873095 1.70439 0
M  V30 7298 H 677.345 -0.568407 3.87655 0
M  V30 7299 H 679.042 -0.198773 4.00507 0
M  V30 7300 H 675.632 1.23138 4.1053 0
M  V30 7301 H 679.816 2.1382 4.47878 0
M  V30 7302 H 675.072 3.42396 5.06532 0
M  V30 7303 H 679.246 4.33224 5.45243 0
M  V30 7304 H 676.873 4.98062 5.74316 0
M  V30 7305 N 678.448 -1.51871 0.421078 0
M  V30 7306 C 679.697 -2.01125 -0.152206 0
M  V30 7307 C 680.01 -1.3106 -1.45199 0
M  V30 7308 O 681.216 -1.71195 -2.10724 0
M  V30 7309 C 679.672 -3.58458 -0.3218 0
M  V30 7310 C 679.28 -4.37448 0.96659 0
M  V30 7311 C 681.024 -4.15908 -0.84973 0
M  V30 7312 C 678.931 -5.86451 0.763529 0
M  V30 7313 H 677.861 -0.751556 -0.0606565 0
M  V30 7314 H 680.512 -1.75115 0.548354 0
M  V30 7315 H 678.894 -3.80847 -1.08498 0
M  V30 7316 H 680.068 -4.26814 1.73684 0
M  V30 7317 H 678.383 -3.91373 1.42183 0
M  V30 7318 H 680.98 -5.24922 -1.01788 0
M  V30 7319 H 681.323 -3.74031 -1.82774 0
M  V30 7320 H 681.856 -3.97535 -0.145297 0
M  V30 7321 H 678.595 -6.3271 1.71344 0
M  V30 7322 H 678.115 -5.99791 0.0327889 0
M  V30 7323 H 679.794 -6.45697 0.410354 0
M  V30 7324 N 679.926 -0.151884 -1.56866 0
M  V30 7325 C 681.156 0.504081 -2.00356 0
M  V30 7326 C 681.564 1.58639 -1.03103 0
M  V30 7327 O 680.907 1.83688 -0.0207931 0
M  V30 7328 C 680.969 1.15975 -3.40279 0
M  V30 7329 C 680.633 0.221453 -4.56463 0
M  V30 7330 C 681.63 -0.552766 -5.16953 0
M  V30 7331 C 679.315 0.122936 -5.0215 0
M  V30 7332 C 681.309 -1.4129 -6.21543 0
M  V30 7333 C 678.996 -0.740801 -6.06593 0
M  V30 7334 C 679.994 -1.50732 -6.6616 0
M  V30 7335 O 679.682 -2.35666 -7.68581 0
M  V30 7336 H 679.414 0.135279 -0.662326 0
M  V30 7337 H 681.968 -0.244916 -2.03935 0
M  V30 7338 H 680.198 1.95649 -3.33554 0
M  V30 7339 H 681.887 1.71594 -3.67846 0
M  V30 7340 H 682.653 -0.486716 -4.82552 0
M  V30 7341 H 678.532 0.70931 -4.5551 0
M  V30 7342 H 682.076 -2.01166 -6.67966 0
M  V30 7343 H 677.973 -0.808125 -6.40421 0
M  V30 7344 H 678.741 -2.28967 -7.85822 0
M  V30 7345 N 681.404 1.57128 0.121893 0
M  V30 7346 C 682.352 2.01109 1.16868 0
M  V30 7347 C 683.346 0.907532 1.43039 0
M  V30 7348 O 684.552 1.09274 1.43036 0
M  V30 7349 H 680.927 0.640539 0.393971 0
M  V30 7350 H 682.898 2.88261 0.771224 0
M  V30 7351 C 681.647 2.42887 2.48799 0
M  V30 7352 H 680.97 3.2737 2.29498 0
M  V30 7353 H 682.41 2.77461 3.20611 0
M  V30 7354 C 680.869 1.29137 3.11168 0
M  V30 7355 O 681.399 0.605756 3.97106 0
M  V30 7356 N 679.605 1.04916 2.71 0
M  V30 7357 H 679.152 1.60848 2.01211 0
M  V30 7358 H 679.11 0.290016 3.1306 0
M  V30 7359 N 682.882 -0.391992 1.52647 0
M  V30 7360 C 683.792 -1.503 1.80131 0
M  V30 7361 C 684.808 -1.59825 0.687882 0
M  V30 7362 O 685.984 -1.76218 0.975149 0
M  V30 7363 C 683.049 -2.85863 1.96171 0
M  V30 7364 C 682.11 -2.86084 3.20085 0
M  V30 7365 C 681.343 -4.15181 3.35351 0
M  V30 7366 O 681.566 -5.09981 2.55491 0
M  V30 7367 O 680.5 -4.22603 4.28591 0
M  V30 7368 H 684.326 -1.30007 2.74466 0
M  V30 7369 H 681.911 -0.579539 1.37701 0
M  V30 7370 H 683.793 -3.66236 2.08445 0
M  V30 7371 H 682.468 -3.06189 1.05025 0
M  V30 7372 H 681.375 -2.04504 3.13256 0
M  V30 7373 H 682.708 -2.7071 4.11068 0
M  V30 7374 N 684.36 -1.4356 -0.65026 0
M  V30 7375 C 685.6 -1.46839 -1.42188 0
M  V30 7376 C 685.964 -0.0911433 -1.91784 0
M  V30 7377 O 687.165 0.00137545 -2.688 0
M  V30 7378 C 685.436 -2.48411 -2.56957 0
M  V30 7379 S 686.995 -2.70589 -3.45438 0
M  V30 7380 H 683.813 -0.519596 -0.485325 0
M  V30 7381 H 686.415 -1.80347 -0.75466 0
M  V30 7382 H 685.119 -3.47209 -2.18801 0
M  V30 7383 H 684.65 -2.16411 -3.28527 0
M  V30 7384 H 686.665 -2.00738 -4.53782 0
M  V30 7385 N 685.838 0.888903 -1.30139 0
M  V30 7386 C 687.085 1.64037 -1.18736 0
M  V30 7387 C 687.413 1.92771 0.258801 0
M  V30 7388 O 686.668 1.54427 1.20212 0
M  V30 7389 C 686.967 2.99041 -1.95728 0
M  V30 7390 C 686.633 2.89874 -3.45375 0
M  V30 7391 C 685.295 2.87082 -3.86183 0
M  V30 7392 C 687.647 2.78289 -4.40687 0
M  V30 7393 C 684.975 2.70536 -5.20603 0
M  V30 7394 C 687.327 2.63282 -5.75209 0
M  V30 7395 C 685.991 2.58861 -6.15262 0
M  V30 7396 H 685.261 0.600253 -0.434485 0
M  V30 7397 H 687.908 1.0338 -1.61198 0
M  V30 7398 H 686.213 3.63626 -1.45888 0
M  V30 7399 H 687.91 3.56139 -1.843 0
M  V30 7400 H 684.5 2.92856 -3.12943 0
M  V30 7401 H 688.684 2.79516 -4.10103 0
M  V30 7402 H 683.94 2.65526 -5.50732 0
M  V30 7403 H 688.114 2.5329 -6.48704 0
M  V30 7404 H 685.741 2.45799 -7.19366 0
M  V30 7405 N 687.317 1.12792 1.10072 0
M  V30 7406 C 688.542 0.908838 1.86427 0
M  V30 7407 C 688.967 -0.536793 1.80278 0
M  V30 7408 O 688.325 -1.38033 1.17543 0
M  V30 7409 C 688.373 1.39295 3.3261 0
M  V30 7410 O 687.477 0.573846 4.08388 0
M  V30 7411 H 686.818 0.326234 0.578331 0
M  V30 7412 H 689.348 1.50094 1.39043 0
M  V30 7413 H 689.358 1.39366 3.83459 0
M  V30 7414 H 688.033 2.44555 3.36401 0
M  V30 7415 H 686.61 0.640438 3.67359 0
M  V30 7416 N 688.795 -1.27931 0.920396 0
M  V30 7417 C 690.211 -1.47085 0.619537 0
M  V30 7418 C 690.411 -1.83463 -0.833291 0
M  V30 7419 O 689.467 -1.94363 -1.61181 0
M  V30 7420 C 690.78 -2.56878 1.56314 0
M  V30 7421 C 692.328 -2.70743 1.57058 0
M  V30 7422 C 692.803 -3.83687 2.50097 0
M  V30 7423 N 694.294 -3.9105 2.48262 0
M  V30 7424 C 695.029 -4.77842 3.16945 0
M  V30 7425 N 694.525 -5.69176 3.94982 0
M  V30 7426 N 696.318 -4.71509 3.06 0
M  V30 7427 H 688.469 -1.02601 1.85975 0
M  V30 7428 H 690.732 -0.511682 0.798051 0
M  V30 7429 H 690.438 -2.36923 2.59923 0
M  V30 7430 H 690.312 -3.54117 1.29928 0
M  V30 7431 H 692.699 -2.90083 0.541832 0
M  V30 7432 H 692.78 -1.74015 1.8749 0
M  V30 7433 H 692.424 -3.65101 3.53077 0
M  V30 7434 H 692.354 -4.79827 2.16964 0
M  V30 7435 H 694.845 -3.25738 1.91581 0
M  V30 7436 H 695.158 -6.32245 4.44394 0
M  V30 7437 H 693.503 -5.68995 3.99086 0
M  V30 7438 H 696.694 -3.99151 2.44533 0
M  V30 7439 H 696.867 -5.38933 3.59799 0
M  V30 7440 N 690.273 -0.685099 -1.4193 0
M  V30 7441 C 691.236 -0.0222632 -2.29189 0
M  V30 7442 C 692.236 0.7186 -1.4385 0
M  V30 7443 O 693.426 0.555058 -1.6512 0
M  V30 7444 C 690.558 0.979013 -3.2654 0
M  V30 7445 H 691.751 -0.790424 -2.89296 0
M  V30 7446 H 689.304 -0.448012 -1.49742 0
M  V30 7447 H 690.039 1.77531 -2.71392 0
M  V30 7448 H 689.824 0.451037 -3.89497 0
M  V30 7449 H 691.314 1.44091 -3.91954 0
M  V30 7450 N 691.751 1.51645 -0.429126 0
M  V30 7451 C 692.979 2.06433 0.138994 0
M  V30 7452 C 693.394 1.29735 1.37165 0
M  V30 7453 O 692.751 0.354638 1.79021 0
M  V30 7454 C 692.802 3.58439 0.469452 0
M  V30 7455 O 692.523 4.32238 -0.714273 0
M  V30 7456 C 694.024 4.29712 1.08914 0
M  V30 7457 H 691.244 0.6709 0.0115608 0
M  V30 7458 H 693.788 1.9532 -0.605843 0
M  V30 7459 H 691.943 3.69494 1.16419 0
M  V30 7460 H 692.357 5.22704 -0.433633 0
M  V30 7461 H 693.831 5.37182 1.27042 0
M  V30 7462 H 694.308 3.87473 2.06788 0
M  V30 7463 H 694.914 4.2308 0.434028 0
M  V30 7464 N 693.229 0.160201 1.56784 0
M  V30 7465 C 694.454 -0.497373 2.01348 0
M  V30 7466 C 694.879 -1.56757 1.03966 0
M  V30 7467 O 694.237 -1.81292 0.0174455 0
M  V30 7468 C 694.285 -1.0628 3.44582 0
M  V30 7469 O 693.389 -2.17723 3.50244 0
M  V30 7470 H 692.73 -0.120295 0.653012 0
M  V30 7471 H 695.26 0.260821 2.02931 0
M  V30 7472 H 695.27 -1.38819 3.83658 0
M  V30 7473 H 693.945 -0.279166 4.14962 0
M  V30 7474 H 692.522 -1.86313 3.2302 0
M  V30 7475 N 694.707 -1.5719 -0.113559 0
M  V30 7476 C 695.956 -1.84325 -0.818984 0
M  V30 7477 C 696.269 -0.746685 -1.80787 0
M  V30 7478 O 697.475 -0.904596 -2.55987 0
M  V30 7479 C 695.931 -3.26818 -1.50724 0
M  V30 7480 C 695.539 -4.44498 -0.559065 0
M  V30 7481 C 697.283 -3.63196 -2.19748 0
M  V30 7482 C 695.19 -5.7802 -1.25086 0
M  V30 7483 H 694.12 -0.687507 -0.309596 0
M  V30 7484 H 696.771 -1.8336 -0.0717621 0
M  V30 7485 H 695.153 -3.22269 -2.30128 0
M  V30 7486 H 696.327 -4.60356 0.202146 0
M  V30 7487 H 694.642 -4.16393 0.024495 0
M  V30 7488 H 697.239 -4.60226 -2.72206 0
M  V30 7489 H 697.582 -2.90899 -2.97798 0
M  V30 7490 H 698.115 -3.69553 -1.47226 0
M  V30 7491 H 694.854 -6.53501 -0.511539 0
M  V30 7492 H 694.374 -5.66038 -1.98395 0
M  V30 7493 H 696.053 -6.2196 -1.78253 0
M  V30 7494 N 696.185 0.383891 -1.52853 0
M  V30 7495 C 697.432 1.12842 -1.68146 0
M  V30 7496 C 697.76 1.89823 -0.423954 0
M  V30 7497 O 697.015 1.86475 0.593765 0
M  V30 7498 C 697.314 2.12881 -2.87082 0
M  V30 7499 C 696.98 1.52519 -4.24322 0
M  V30 7500 C 695.642 1.35783 -4.61645 0
M  V30 7501 C 697.994 1.0868 -5.09743 0
M  V30 7502 C 695.322 0.737643 -5.82044 0
M  V30 7503 C 697.674 0.480699 -6.30771 0
M  V30 7504 C 696.338 0.300681 -6.66822 0
M  V30 7505 H 695.608 0.412917 -0.615289 0
M  V30 7506 H 698.255 0.412416 -1.87006 0
M  V30 7507 H 696.56 2.90719 -2.62659 0
M  V30 7508 H 698.257 2.70408 -2.96109 0
M  V30 7509 H 694.847 1.66534 -3.94923 0
M  V30 7510 H 699.031 1.2041 -4.81472 0
M  V30 7511 H 694.287 0.586415 -6.08581 0
M  V30 7512 H 698.461 0.132733 -6.96273 0
M  V30 7513 H 696.088 -0.181966 -7.59982 0
M  V30 7514 N 697.663 1.43903 0.642637 0
M  V30 7515 C 699.074 1.40975 1.22404 0
M  V30 7516 C 699.425 0.1192 1.95838 0
M  V30 7517 O 698.55 -0.780939 2.01818 0
M  V30 7518 C 699.145 2.5538 2.22636 0
M  V30 7519 C 697.704 2.55684 2.76229 0
M  V30 7520 C 696.851 2.32556 1.51039 0
M  V30 7521 H 699.802 1.5265 0.434006 0
M  V30 7522 H 699.823 2.27474 3.05017 0
M  V30 7523 H 699.335 3.49294 1.69161 0
M  V30 7524 H 697.436 1.65679 3.33738 0
M  V30 7525 H 697.549 3.53799 3.23053 0
M  V30 7526 H 695.913 1.81427 1.78764 0
M  V30 7527 H 696.696 3.28569 0.99484 0
M  V30 7528 N 699.141 -0.881989 1.30609 0
M  V30 7529 C 700.366 -1.67236 1.22665 0
M  V30 7530 C 700.791 -1.8696 -0.206777 0
M  V30 7531 O 700.149 -1.4027 -1.14865 0
M  V30 7532 C 700.197 -3.02446 1.96363 0
M  V30 7533 O 699.301 -3.91614 1.29276 0
M  V30 7534 H 698.642 -0.510902 0.424117 0
M  V30 7535 H 701.172 -1.10055 1.72479 0
M  V30 7536 H 701.182 -3.52468 2.055 0
M  V30 7537 H 699.857 -2.8741 3.00613 0
M  V30 7538 H 698.434 -3.50055 1.28514 0
M  V30 7539 N 700.619 -1.13374 -1.09472 0
M  V30 7540 C 701.867 -0.893422 -1.8128 0
M  V30 7541 C 702.188 0.582029 -1.86111 0
M  V30 7542 O 701.458 1.42305 -1.34633 0
M  V30 7543 H 700.038 -0.327543 -0.67136 0
M  V30 7544 H 702.7 -1.43018 -1.32408 0
M  V30 7545 H 701.796 -1.28374 -2.84476 0
M  V30 7546 N 702.098 1.27442 -0.927168 0
M  V30 7547 C 703.344 1.95025 -0.577651 0
M  V30 7548 C 703.699 1.71534 0.871421 0
M  V30 7549 O 702.992 1.03354 1.61333 0
M  V30 7550 C 703.186 3.47413 -0.838994 0
M  V30 7551 C 703.015 3.85721 -2.31192 0
M  V30 7552 C 701.785 4.09199 -2.96452 0
M  V30 7553 C 703.983 3.95352 -3.28939 0
M  V30 7554 N 701.965 4.34283 -4.33903 0
M  V30 7555 C 703.336 4.24805 -4.51598 0
M  V30 7556 C 705.391 3.77926 -3.24155 0
M  V30 7557 C 704.094 4.38645 -5.70073 0
M  V30 7558 C 706.12 3.9299 -4.41942 0
M  V30 7559 C 705.482 4.22829 -5.63379 0
M  V30 7560 H 701.581 0.736983 -0.261495 0
M  V30 7561 H 704.165 1.53816 -1.19368 0
M  V30 7562 H 702.336 3.87581 -0.252129 0
M  V30 7563 H 704.068 4.02166 -0.452158 0
M  V30 7564 H 700.823 4.04013 -2.47125 0
M  V30 7565 H 701.247 4.50883 -5.05008 0
M  V30 7566 H 705.889 3.53897 -2.31337 0
M  V30 7567 H 703.607 4.615 -6.63358 0
M  V30 7568 H 707.193 3.80926 -4.39757 0
M  V30 7569 H 706.073 4.34234 -6.53001 0
M  V30 7570 N 703.576 0.692616 1.41565 0
M  V30 7571 C 704.801 0.229776 2.06123 0
M  V30 7572 C 705.226 -1.11119 1.5177 0
M  V30 7573 O 704.584 -1.69498 0.643444 0
M  V30 7574 C 704.632 0.19469 3.60074 0
M  V30 7575 O 703.736 -0.831366 4.03933 0
M  V30 7576 H 703.077 0.113002 0.654314 0
M  V30 7577 H 705.607 0.946645 1.81383 0
M  V30 7578 H 705.617 0.0245487 4.07993 0
M  V30 7579 H 704.292 1.17339 3.99004 0
M  V30 7580 H 702.869 -0.630819 3.67526 0
M  V30 7581 N 705.054 -1.51416 0.437162 0
M  V30 7582 C 706.3 -2.02386 -0.129555 0
M  V30 7583 C 706.633 -1.32071 -1.42376 0
M  V30 7584 O 705.908 -0.43559 -1.8956 0
M  V30 7585 C 706.191 -3.5841 -0.348487 0
M  V30 7586 C 706.044 -4.39341 0.964352 0
M  V30 7587 C 707.363 -4.25654 -1.11834 0
M  V30 7588 H 704.482 -0.735587 -0.0456109 0
M  V30 7589 H 707.124 -1.81055 0.576124 0
M  V30 7590 H 705.274 -3.76716 -0.949592 0
M  V30 7591 H 706.946 -4.32685 1.59942 0
M  V30 7592 H 705.189 -4.04432 1.56898 0
M  V30 7593 H 705.86 -5.4667 0.765212 0
M  V30 7594 H 708.336 -4.11617 -0.609165 0
M  V30 7595 H 707.212 -5.34704 -1.24029 0
M  V30 7596 H 707.473 -3.86502 -2.14636 0
M  V30 7597 N 706.532 -0.168513 -1.56696 0
M  V30 7598 C 707.495 0.748928 -2.16619 0
M  V30 7599 C 708.495 1.16007 -1.11351 0
M  V30 7600 O 709.685 1.07748 -1.3688 0
M  V30 7601 C 706.817 2.01904 -2.74677 0
M  V30 7602 H 708.01 0.227317 -2.99037 0
M  V30 7603 H 705.563 0.0810372 -1.5609 0
M  V30 7604 H 706.298 2.58381 -1.95985 0
M  V30 7605 H 706.083 1.73323 -3.51712 0
M  V30 7606 H 707.573 2.67383 -3.20774 0
M  V30 7607 N 708.01 1.57248 0.105221 0
M  V30 7608 C 708.973 2.00388 1.11252 0
M  V30 7609 C 709.973 0.89594 1.33527 0
M  V30 7610 O 711.163 1.16166 1.29811 0
M  V30 7611 C 708.295 2.35589 2.46395 0
M  V30 7612 H 709.488 2.90591 0.741424 0
M  V30 7613 H 707.041 1.52332 0.349956 0
M  V30 7614 H 707.776 1.4831 2.884 0
M  V30 7615 H 707.561 3.16408 2.31578 0
M  V30 7616 H 709.051 2.69658 3.18864 0
M  V30 7617 N 709.488 -0.375779 1.53054 0
M  V30 7618 C 710.421 -1.48187 1.7354 0
M  V30 7619 C 711.399 -1.5177 0.583495 0
M  V30 7620 O 712.583 -1.69976 0.81488 0
M  V30 7621 C 709.71 -2.86598 1.80497 0
M  V30 7622 C 708.756 -3.00784 3.02376 0
M  V30 7623 S 709.589 -2.70601 4.62099 0
M  V30 7624 C 710.745 -4.11181 4.71891 0
M  V30 7625 H 710.978 -1.30587 2.67085 0
M  V30 7626 H 708.511 -0.569485 1.43514 0
M  V30 7627 H 710.469 -3.66353 1.85192 0
M  V30 7628 H 709.13 -3.01514 0.880217 0
M  V30 7629 H 708.323 -4.02128 3.03824 0
M  V30 7630 H 707.925 -2.28939 2.95742 0
M  V30 7631 H 710.217 -5.0529 4.51319 0
M  V30 7632 H 711.16 -4.14742 5.73929 0
M  V30 7633 H 711.568 -3.97706 4.00612 0
M  V30 7634 N 710.966 -1.44241 -0.634997 0
M  V30 7635 C 711.929 -1.50457 -1.72903 0
M  V30 7636 C 712.929 -0.387058 -1.56072 0
M  V30 7637 O 714.119 -0.649531 -1.61638 0
M  V30 7638 C 711.251 -1.37477 -3.1195 0
M  V30 7639 H 712.444 -2.47907 -1.68767 0
M  V30 7640 H 709.997 -1.31276 -0.84831 0
M  V30 7641 H 710.732 -0.41106 -3.21684 0
M  V30 7642 H 710.517 -2.18506 -3.25573 0
M  V30 7643 H 712.007 -1.44799 -3.91692 0
M  V30 7644 N 712.444 0.87505 -1.31075 0
M  V30 7645 C 713.392 2.00317 -1.18219 0
M  V30 7646 C 714.386 1.69152 -0.0916872 0
M  V30 7647 O 715.592 1.7821 -0.253229 0
M  V30 7648 H 711.967 0.656981 -0.365895 0
M  V30 7649 H 713.938 2.08293 -2.13674 0
M  V30 7650 C 712.687 3.35821 -0.901095 0
M  V30 7651 H 712.01 3.6032 -1.73233 0
M  V30 7652 H 713.45 4.15366 -0.851295 0
M  V30 7653 C 711.909 3.34563 0.396114 0
M  V30 7654 O 712.439 3.75971 1.41452 0
M  V30 7655 N 710.645 2.87681 0.410832 0
M  V30 7656 H 710.192 2.54179 -0.418415 0
M  V30 7657 H 710.15 2.87223 1.27869 0
M  V30 7658 N 713.922 1.13953 1.08869 0
M  V30 7659 C 714.854 0.779906 2.15523 0
M  V30 7660 C 715.867 -0.20102 1.61554 0
M  V30 7661 O 717.056 0.0200049 1.78489 0
M  V30 7662 C 714.156 0.136226 3.38626 0
M  V30 7663 C 713.329 1.15069 4.21993 0
M  V30 7664 C 712.388 0.531645 5.23507 0
M  V30 7665 O 711.414 1.19327 5.56552 0
M  V30 7666 N 712.616 -0.693734 5.7634 0
M  V30 7667 H 715.381 1.69769 2.46979 0
M  V30 7668 H 712.942 1.03331 1.24637 0
M  V30 7669 H 714.934 -0.290295 4.03658 0
M  V30 7670 H 713.504 -0.684603 3.05011 0
M  V30 7671 H 712.724 1.75431 3.53012 0
M  V30 7672 H 714.012 1.83614 4.74514 0
M  V30 7673 H 713.41 -1.24994 5.51718 0
M  V30 7674 H 711.967 -1.06283 6.43076 0
M  V30 7675 N 715.4 -1.26948 0.933913 0
M  V30 7676 C 716.625 -1.98724 0.593589 0
M  V30 7677 C 717.05 -1.6915 -0.822801 0
M  V30 7678 O 716.408 -0.93533 -1.5531 0
M  V30 7679 C 716.456 -3.50834 0.833542 0
M  V30 7680 O 715.56 -4.12284 -0.0978788 0
M  V30 7681 H 714.901 -0.623683 0.227849 0
M  V30 7682 H 717.431 -1.61599 1.25486 0
M  V30 7683 H 717.441 -4.01018 0.75156 0
M  V30 7684 H 716.116 -3.71691 1.86597 0
M  V30 7685 H 714.693 -3.72884 0.0345443 0
M  V30 7686 N 716.879 -0.700114 -1.41195 0
M  V30 7687 C 718.127 -0.232546 -2.00758 0
M  V30 7688 C 718.448 1.1734 -1.55745 0
M  V30 7689 O 717.718 1.79262 -0.790058 0
M  V30 7690 H 716.298 -0.0829845 -0.742376 0
M  V30 7691 H 718.96 -0.902289 -1.72756 0
M  V30 7692 H 718.056 -0.253521 -3.11069 0
M  V30 7693 N 718.357 1.51182 -0.445186 0
M  V30 7694 C 719.603 2.03097 0.111049 0
M  V30 7695 C 719.958 1.32293 1.397 0
M  V30 7696 O 719.251 0.431529 1.86677 0
M  V30 7697 C 719.445 3.55408 0.376797 0
M  V30 7698 C 719.274 4.40969 -0.88185 0
M  V30 7699 C 718.044 4.85006 -1.41766 0
M  V30 7700 C 720.242 4.82876 -1.77017 0
M  V30 7701 N 718.224 5.54804 -2.62803 0
M  V30 7702 C 719.595 5.51821 -2.82654 0
M  V30 7703 C 721.65 4.64855 -1.78365 0
M  V30 7704 C 720.353 6.04655 -3.89595 0
M  V30 7705 C 722.379 5.18612 -2.84246 0
M  V30 7706 C 721.741 5.87509 -3.88603 0
M  V30 7707 H 717.84 0.781999 0.0012696 0
M  V30 7708 H 720.424 1.84976 -0.60761 0
M  V30 7709 H 718.595 3.73528 1.06449 0
M  V30 7710 H 720.327 3.93985 0.925082 0
M  V30 7711 H 717.082 4.6355 -0.970476 0
M  V30 7712 H 717.506 5.94326 -3.24201 0
M  V30 7713 H 722.148 4.11043 -0.990119 0
M  V30 7714 H 719.866 6.57518 -4.69782 0
M  V30 7715 H 723.452 5.06515 -2.86241 0
M  V30 7716 H 722.332 6.28358 -4.69186 0
M  V30 7717 N 719.835 0.176821 1.56605 0
M  V30 7718 C 721.06 -0.47599 2.01864 0
M  V30 7719 C 721.485 -1.55645 1.05623 0
M  V30 7720 O 720.843 -1.81263 0.0366729 0
M  V30 7721 C 720.891 -1.02619 3.4569 0
M  V30 7722 O 719.995 -2.13996 3.52533 0
M  V30 7723 H 719.336 -0.113363 0.654251 0
M  V30 7724 H 721.866 0.28233 2.02643 0
M  V30 7725 H 721.876 -1.34742 3.85109 0
M  V30 7726 H 720.551 -0.235138 4.15235 0
M  V30 7727 H 719.128 -1.82876 3.24978 0
M  V30 7728 N 721.313 -1.57302 -0.09688 0
M  V30 7729 C 722.59 -1.7701 -0.832272 0
M  V30 7730 C 722.97 -0.758025 -1.97021 0
M  V30 7731 O 722.318 0.213824 -2.27497 0
M  V30 7732 C 722.528 -3.22725 -1.32851 0
M  V30 7733 C 723.876 -3.85856 -1.772 0
M  V30 7734 O 724.9 -3.26464 -1.42478 0
M  V30 7735 O 723.759 -4.90295 -2.41398 0
M  V30 7736 H 720.853 -0.725558 -0.396856 0
M  V30 7737 H 723.399 -1.69516 -0.0789005 0
M  V30 7738 H 722.171 -3.87921 -0.51312 0
M  V30 7739 H 721.794 -3.34845 -2.14394 0
M  V30 7740 N 722.791 0.367657 -1.53252 0
M  V30 7741 C 723.754 1.43308 -1.78873 0
M  V30 7742 C 724.754 1.46671 -0.659115 0
M  V30 7743 O 725.944 1.47468 -0.927306 0
M  V30 7744 C 723.076 2.82442 -1.90892 0
M  V30 7745 H 724.269 1.21864 -2.74024 0
M  V30 7746 H 721.822 0.600668 -1.44297 0
M  V30 7747 H 722.557 3.09202 -0.978 0
M  V30 7748 H 722.342 2.81399 -2.73051 0
M  V30 7749 H 723.832 3.59601 -2.12314 0
M  V30 7750 N 724.269 1.44576 0.627338 0
M  V30 7751 C 725.516 1.47558 1.38682 0
M  V30 7752 C 725.844 0.109636 1.94191 0
M  V30 7753 O 725.099 -0.889092 1.74338 0
M  V30 7754 C 725.398 2.48644 2.56731 0
M  V30 7755 C 725.064 3.93873 2.19489 0
M  V30 7756 C 723.726 4.33421 2.09045 0
M  V30 7757 C 726.078 4.85286 1.90124 0
M  V30 7758 C 723.406 5.62303 1.6743 0
M  V30 7759 C 725.758 6.14559 1.50001 0
M  V30 7760 C 724.422 6.53058 1.38101 0
M  V30 7761 H 723.692 0.539955 0.507474 0
M  V30 7762 H 726.339 1.77811 0.711021 0
M  V30 7763 H 724.644 2.11889 3.29561 0
M  V30 7764 H 726.341 2.48197 3.14959 0
M  V30 7765 H 722.931 3.62587 2.28537 0
M  V30 7766 H 727.115 4.55483 1.971 0
M  V30 7767 H 722.371 5.90945 1.56823 0
M  V30 7768 H 726.545 6.84848 1.26319 0
M  V30 7769 H 724.172 7.52826 1.05628 0
M  V30 7770 N 725.747 -0.868086 1.31537 0
M  V30 7771 C 726.677 -1.99131 1.21939 0
M  V30 7772 C 727.658 -1.69768 0.106166 0
M  V30 7773 O 728.843 -1.92006 0.291081 0
M  V30 7774 C 725.973 -3.34676 0.927879 0
M  V30 7775 C 724.927 -3.7835 2.00088 0
M  V30 7776 C 724.253 -5.11375 1.56203 0
M  V30 7777 C 725.553 -3.95256 3.41424 0
M  V30 7778 H 727.247 -2.07419 2.15911 0
M  V30 7779 H 724.793 -0.996569 1.03945 0
M  V30 7780 H 726.746 -4.12793 0.847327 0
M  V30 7781 H 725.47 -3.26565 -0.0475042 0
M  V30 7782 H 724.129 -3.02474 2.07135 0
M  V30 7783 H 723.777 -4.99709 0.57445 0
M  V30 7784 H 723.477 -5.41568 2.27985 0
M  V30 7785 H 725.001 -5.92001 1.49558 0
M  V30 7786 H 726.415 -4.63764 3.3704 0
M  V30 7787 H 724.812 -4.36849 4.1144 0
M  V30 7788 H 725.882 -2.98579 3.82072 0
M  V30 7789 N 727.225 -1.14528 -1.08264 0
M  V30 7790 C 728.188 -0.83632 -2.13397 0
M  V30 7791 C 729.188 0.159715 -1.60005 0
M  V30 7792 O 730.378 -0.0688098 -1.74064 0
M  V30 7793 C 727.51 -0.246973 -3.40004 0
M  V30 7794 H 728.703 -1.76808 -2.42237 0
M  V30 7795 H 726.256 -0.951509 -1.24 0
M  V30 7796 H 726.991 0.693436 -3.168 0
M  V30 7797 H 726.776 -0.964412 -3.80055 0
M  V30 7798 H 728.266 -0.0480679 -4.17572 0
M  V30 7799 N 728.703 1.26451 -0.940633 0
M  V30 7800 C 729.635 2.25556 -0.407104 0
M  V30 7801 C 730.648 1.55888 0.469324 0
M  V30 7802 O 731.837 1.76292 0.279858 0
M  V30 7803 C 728.937 3.36109 0.434064 0
M  V30 7804 C 728.11 4.3532 -0.426082 0
M  V30 7805 C 727.169 5.25004 0.354563 0
M  V30 7806 O 726.195 5.68684 -0.242219 0
M  V30 7807 N 727.397 5.5652 1.65123 0
M  V30 7808 H 730.162 2.7197 -1.25907 0
M  V30 7809 H 727.723 1.40212 -0.809456 0
M  V30 7810 H 729.715 3.93059 0.963684 0
M  V30 7811 H 728.285 2.89194 1.18683 0
M  V30 7812 H 727.505 3.77449 -1.13692 0
M  V30 7813 H 728.793 4.986 -1.01366 0
M  V30 7814 H 728.191 5.22912 2.15822 0
M  V30 7815 H 726.748 6.16115 2.12711 0
M  V30 7816 N 730.181 0.707592 1.40822 0
M  V30 7817 C 731.131 0.0265008 2.27985 0
M  V30 7818 C 732.115 -0.740685 1.42838 0
M  V30 7819 O 733.307 -0.6142 1.66002 0
M  V30 7820 C 730.436 -0.900382 3.31282 0
M  V30 7821 C 729.522 -0.128807 4.23904 0
M  V30 7822 N 729.913 0.883744 4.9802 0
M  V30 7823 C 728.211 -0.362539 4.44524 0
M  V30 7824 C 728.912 1.34666 5.65898 0
M  V30 7825 N 727.888 0.670306 5.39451 0
M  V30 7826 H 731.69 0.802667 2.82727 0
M  V30 7827 H 729.204 0.539475 1.53178 0
M  V30 7828 H 731.201 -1.40357 3.92563 0
M  V30 7829 H 729.861 -1.67601 2.781 0
M  V30 7830 H 730.872 1.26435 5.0223 0
M  V30 7831 H 727.549 -1.11512 4.02332 0
M  V30 7832 H 728.939 2.18756 6.35292 0
M  V30 7833 N 731.66 -1.50943 0.453197 0
M  V30 7834 C 732.888 -2.06628 -0.106135 0
M  V30 7835 C 733.303 -1.31901 -1.35084 0
M  V30 7836 O 732.66 -0.383074 -1.78434 0
M  V30 7837 C 732.711 -3.5914 -0.412368 0
M  V30 7838 O 732.432 -4.31047 0.782948 0
M  V30 7839 C 733.933 -4.31391 -1.02064 0
M  V30 7840 H 731.153 -0.670999 -0.000885896 0
M  V30 7841 H 733.697 -1.94331 0.63684 0
M  V30 7842 H 731.852 -3.71299 -1.10526 0
M  V30 7843 H 732.266 -5.21948 0.516736 0
M  V30 7844 H 733.74 -5.39135 -1.1848 0
M  V30 7845 H 734.217 -3.90714 -2.00598 0
M  V30 7846 H 734.823 -4.23716 -0.366664 0
M  V30 7847 N 733.138 -0.185124 -1.56509 0
M  V30 7848 C 734.071 0.77877 -2.145 0
M  V30 7849 C 735.049 1.21649 -1.07891 0
M  V30 7850 O 736.233 1.30579 -1.35946 0
M  V30 7851 C 733.36 2.05048 -2.69579 0
M  V30 7852 C 732.406 1.75569 -3.88687 0
M  V30 7853 S 733.239 0.912642 -5.27666 0
M  V30 7854 C 734.395 2.19471 -5.8616 0
M  V30 7855 H 734.628 0.285751 -2.95924 0
M  V30 7856 H 732.161 0.0297417 -1.54371 0
M  V30 7857 H 734.119 2.78085 -3.01958 0
M  V30 7858 H 732.78 2.51462 -1.88216 0
M  V30 7859 H 731.973 2.69962 -4.25601 0
M  V30 7860 H 731.575 1.10619 -3.57267 0
M  V30 7861 H 733.867 3.14815 -5.99915 0
M  V30 7862 H 734.81 1.87005 -6.8296 0
M  V30 7863 H 735.218 2.31862 -5.14685 0
M  V30 7864 N 734.616 1.57351 0.0885366 0
M  V30 7865 C 735.546 2.05561 1.10757 0
M  V30 7866 C 736.527 0.945789 1.41382 0
M  V30 7867 O 737.712 1.21747 1.51299 0
M  V30 7868 C 734.842 2.48554 2.42566 0
M  V30 7869 C 733.796 3.63259 2.26334 0
M  V30 7870 C 733.122 3.9225 3.63378 0
M  V30 7871 C 734.422 4.93913 1.69844 0
M  V30 7872 H 736.116 2.90946 0.706468 0
M  V30 7873 H 733.662 1.39968 0.338385 0
M  V30 7874 H 735.615 2.8089 3.14132 0
M  V30 7875 H 734.339 1.60176 2.84625 0
M  V30 7876 H 732.998 3.31179 1.57213 0
M  V30 7877 H 732.646 3.0103 4.02976 0
M  V30 7878 H 732.346 4.69478 3.53362 0
M  V30 7879 H 733.87 4.27067 4.36401 0
M  V30 7880 H 735.284 5.24588 2.31258 0
M  V30 7881 H 733.681 5.75349 1.70569 0
M  V30 7882 H 734.751 4.80409 0.65843 0
M  V30 7883 N 736.094 -0.359525 1.53444 0
M  V30 7884 C 737.322 -1.12198 1.73837 0
M  V30 7885 C 737.737 -1.82854 0.470107 0
M  V30 7886 O 737.094 -1.73781 -0.557349 0
M  V30 7887 C 737.145 -2.14769 2.90786 0
M  V30 7888 O 736.866 -1.46989 4.12706 0
M  V30 7889 C 738.367 -3.03514 3.231 0
M  V30 7890 H 735.587 -0.33524 0.581253 0
M  V30 7891 H 738.131 -0.416598 2.00212 0
M  V30 7892 H 736.286 -2.80896 2.66788 0
M  V30 7893 H 736.7 -2.15378 4.78239 0
M  V30 7894 H 738.174 -3.71453 4.08322 0
M  V30 7895 H 738.651 -3.68658 2.38721 0
M  V30 7896 H 739.257 -2.42996 3.49046 0
M  V30 7897 N 737.572 -1.44907 -0.619662 0
M  V30 7898 C 738.502 -1.55488 -1.742 0
M  V30 7899 C 739.483 -0.407143 -1.65156 0
M  V30 7900 O 740.668 -0.628743 -1.8374 0
M  V30 7901 C 737.798 -1.5097 -3.1277 0
M  V30 7902 C 736.752 -2.64337 -3.36615 0
M  V30 7903 C 736.078 -2.44872 -4.75333 0
M  V30 7904 C 737.378 -4.06423 -3.28051 0
M  V30 7905 H 739.072 -2.49432 -1.65602 0
M  V30 7906 H 736.618 -1.20047 -0.795281 0
M  V30 7907 H 738.571 -1.56971 -3.91073 0
M  V30 7908 H 737.295 -0.535486 -3.2218 0
M  V30 7909 H 735.954 -2.57744 -2.60698 0
M  V30 7910 H 735.602 -1.45617 -4.81461 0
M  V30 7911 H 735.302 -3.20888 -4.92244 0
M  V30 7912 H 736.826 -2.52709 -5.55851 0
M  V30 7913 H 738.24 -4.14324 -3.96243 0
M  V30 7914 H 736.637 -4.82733 -3.56495 0
M  V30 7915 H 737.707 -4.29183 -2.25676 0
M  V30 7916 N 739.05 0.861098 -1.31996 0
M  V30 7917 C 740.327 1.59788 -1.12814 0
M  V30 7918 C 740.707 2.08753 0.313882 0
M  V30 7919 O 740.055 1.87258 1.30946 0
M  V30 7920 C 740.265 2.74901 -2.15012 0
M  V30 7921 C 741.613 3.44643 -2.48004 0
M  V30 7922 O 742.637 2.85119 -2.13508 0
M  V30 7923 O 741.496 4.52044 -3.07113 0
M  V30 7924 H 738.59 0.703408 -0.434909 0
M  V30 7925 H 741.136 0.905788 -1.43505 0
M  V30 7926 H 739.908 2.36198 -3.11971 0
M  V30 7927 H 739.531 3.51792 -1.85279 0
M  V30 7928 N 740.528 1.15101 1.07655 0
M  V30 7929 C 741.939 0.933848 1.61667 0
M  V30 7930 C 742.29 -0.525569 1.8903 0
M  V30 7931 O 741.415 -1.39605 1.65346 0
M  V30 7932 C 742.01 1.68876 2.93711 0
M  V30 7933 C 740.569 1.51697 3.44478 0
M  V30 7934 C 739.716 1.70633 2.18586 0
M  V30 7935 H 742.667 1.30171 0.907816 0
M  V30 7936 H 742.688 1.15645 3.625 0
M  V30 7937 H 742.2 2.7509 2.73764 0
M  V30 7938 H 740.301 0.478635 3.69513 0
M  V30 7939 H 740.414 2.29194 4.20722 0
M  V30 7940 H 738.778 1.13259 2.28132 0
M  V30 7941 H 739.561 2.78206 2.01137 0
M  V30 7942 N 742.006 -1.2595 0.947325 0
M  V30 7943 C 742.954 -2.28152 0.452687 0
M  V30 7944 C 743.948 -1.62655 -0.473239 0
M  V30 7945 O 745.154 -1.76549 -0.350774 0
M  V30 7946 H 741.529 -0.741049 0.12787 0
M  V30 7947 H 743.5 -2.67267 1.32707 0
M  V30 7948 C 742.249 -3.46719 -0.26098 0
M  V30 7949 H 741.572 -3.97345 0.442352 0
M  V30 7950 H 743.012 -4.20135 -0.571208 0
M  V30 7951 C 741.471 -3.02605 -1.48094 0
M  V30 7952 O 742.001 -3.07979 -2.57899 0
M  V30 7953 N 740.207 -2.57877 -1.33969 0
M  V30 7954 H 739.754 -2.53704 -0.446295 0
M  V30 7955 H 739.712 -2.28725 -2.15713 0
M  V30 7956 N 743.484 -0.715051 -1.40445 0
M  V30 7957 C 744.73 -0.254705 -2.01194 0
M  V30 7958 C 745.063 1.14894 -1.56567 0
M  V30 7959 O 744.338 1.77933 -0.785491 0
M  V30 7960 C 744.621 -0.334148 -3.58546 0
M  V30 7961 C 744.474 -1.77613 -4.13248 0
M  V30 7962 C 745.793 0.294968 -4.3911 0
M  V30 7963 H 742.912 -0.094025 -0.730978 0
M  V30 7964 H 745.554 -0.907449 -1.66929 0
M  V30 7965 H 743.704 0.221609 -3.87867 0
M  V30 7966 H 745.376 -2.38723 -3.94727 0
M  V30 7967 H 743.619 -2.30402 -3.67556 0
M  V30 7968 H 744.29 -1.78311 -5.22407 0
M  V30 7969 H 746.766 -0.178563 -4.15717 0
M  V30 7970 H 745.642 0.208934 -5.48502 0
M  V30 7971 H 745.903 1.37841 -4.20062 0
M  V30 7972 N 744.962 1.50701 -0.461195 0
M  V30 7973 C 746.19 2.06681 0.0951756 0
M  V30 7974 C 746.605 1.32615 1.34382 0
M  V30 7975 O 745.962 0.392531 1.78229 0
M  V30 7976 C 746.013 3.59354 0.393316 0
M  V30 7977 O 745.734 4.30626 -0.805797 0
M  V30 7978 C 747.235 4.31926 0.997744 0
M  V30 7979 H 744.455 0.670995 -0.00267259 0
M  V30 7980 H 746.999 1.93991 -0.647137 0
M  V30 7981 H 745.154 3.7188 1.08555 0
M  V30 7982 H 745.568 5.21667 -0.544409 0
M  V30 7983 H 747.042 5.39756 1.15619 0
M  V30 7984 H 747.519 3.91772 1.98523 0
M  V30 7985 H 748.125 4.23905 0.344188 0
M  V30 7986 N 746.441 0.193421 1.56409 0
M  V30 7987 C 747.689 -0.444908 1.97142 0
M  V30 7988 C 748.01 -1.62268 1.08139 0
M  V30 7989 O 747.28 -1.95307 0.152326 0
M  V30 7990 H 745.86 -0.16736 0.728011 0
M  V30 7991 H 748.522 0.279763 1.92882 0
M  V30 7992 H 747.618 -0.790159 3.01932 0
M  V30 7993 N 747.919 -1.57396 -0.0801906 0
M  V30 7994 C 749.165 -1.87113 -0.782083 0
M  V30 7995 C 749.498 -0.78458 -1.77646 0
M  V30 7996 O 748.773 0.205993 -1.93406 0
M  V30 7997 C 749.056 -3.27483 -1.49756 0
M  V30 7998 C 748.909 -4.46782 -0.520171 0
M  V30 7999 C 750.228 -3.65965 -2.44454 0
M  V30 8000 H 747.347 -0.680559 -0.282858 0
M  V30 8001 H 749.989 -1.89946 -0.0454139 0
M  V30 8002 H 748.139 -3.25199 -2.12551 0
M  V30 8003 H 749.811 -4.61187 0.101919 0
M  V30 8004 H 748.054 -4.33485 0.165219 0
M  V30 8005 H 748.725 -5.41761 -1.05824 0
M  V30 8006 H 751.201 -3.69289 -1.91742 0
M  V30 8007 H 750.077 -4.65086 -2.91524 0
M  V30 8008 H 750.338 -2.95446 -3.28883 0
M  V30 8009 N 749.397 0.351382 -1.53633 0
M  V30 8010 C 750.644 1.0925 -1.70502 0
M  V30 8011 C 750.972 1.88881 -0.464123 0
M  V30 8012 O 750.227 1.87693 0.554077 0
M  V30 8013 C 750.526 2.06744 -2.91533 0
M  V30 8014 C 750.192 1.43484 -4.27461 0
M  V30 8015 C 748.854 1.2596 -4.64422 0
M  V30 8016 C 751.206 0.978436 -5.11934 0
M  V30 8017 C 748.534 0.614017 -5.83478 0
M  V30 8018 C 750.886 0.346795 -6.31649 0
M  V30 8019 C 749.55 0.15917 -6.6731 0
M  V30 8020 H 748.82 0.399773 -0.623909 0
M  V30 8021 H 751.467 0.372656 -1.87839 0
M  V30 8022 H 749.772 2.85082 -2.68767 0
M  V30 8023 H 751.469 2.64066 -3.01778 0
M  V30 8024 H 748.059 1.5812 -3.98367 0
M  V30 8025 H 752.243 1.1017 -4.83918 0
M  V30 8026 H 747.499 0.457194 -6.09688 0
M  V30 8027 H 751.673 -0.0149864 -6.96398 0
M  V30 8028 H 749.3 -0.343129 -7.59425 0
M  V30 8029 N 750.875 1.45233 0.611969 0
M  V30 8030 C 751.805 1.5641 1.73373 0
M  V30 8031 C 752.786 0.415896 1.64937 0
M  V30 8032 O 753.971 0.638478 1.83404 0
M  V30 8033 C 751.101 1.52627 3.11965 0
M  V30 8034 C 750.055 2.66119 3.35208 0
M  V30 8035 C 749.381 2.4739 4.74028 0
M  V30 8036 C 750.681 4.08157 3.25891 0
M  V30 8037 H 752.375 2.50307 1.64277 0
M  V30 8038 H 749.921 1.20467 0.788904 0
M  V30 8039 H 751.874 1.59043 3.90235 0
M  V30 8040 H 750.598 0.552564 3.21892 0
M  V30 8041 H 749.257 2.59123 2.59327 0
M  V30 8042 H 748.905 1.48168 4.80682 0
M  V30 8043 H 748.605 3.23494 4.90536 0
M  V30 8044 H 750.129 2.55653 5.54503 0
M  V30 8045 H 751.543 4.1642 3.9404 0
M  V30 8046 H 749.94 4.84617 3.5393 0
M  V30 8047 H 751.01 4.30374 2.23397 0
M  V30 8048 N 752.353 -0.854086 1.3245 0
M  V30 8049 C 753.601 -1.60513 1.228 0
M  V30 8050 C 753.922 -1.93865 -0.210073 0
M  V30 8051 O 753.192 -1.59673 -1.13496 0
M  V30 8052 H 751.772 -0.595099 0.451516 0
M  V30 8053 H 754.434 -1.0216 1.6598 0
M  V30 8054 H 753.53 -2.54182 1.81102 0
M  V30 8055 N 753.831 -1.1567 -1.07043 0
M  V30 8056 C 755.242 -0.942408 -1.61169 0
M  V30 8057 C 755.593 0.515537 -1.89306 0
M  V30 8058 O 754.718 1.38726 -1.66084 0
M  V30 8059 C 755.313 -1.70431 -2.92812 0
M  V30 8060 C 753.872 -1.53521 -3.43669 0
M  V30 8061 C 753.019 -1.7179 -2.17678 0
M  V30 8062 H 755.97 -1.3065 -0.9009 0
M  V30 8063 H 755.991 -1.17566 -3.61882 0
M  V30 8064 H 755.503 -2.76538 -2.72302 0
M  V30 8065 H 753.604 -0.498224 -3.69254 0
M  V30 8066 H 753.717 -2.31422 -4.19501 0
M  V30 8067 H 752.081 -1.14468 -2.27529 0
M  V30 8068 H 752.864 -2.79269 -1.99659 0
M  V30 8069 N 755.309 1.25446 -0.953992 0
M  V30 8070 C 756.539 1.96929 -0.624688 0
M  V30 8071 C 756.947 1.71112 0.807292 0
M  V30 8072 O 756.29 0.983512 1.55154 0
M  V30 8073 C 756.352 3.50425 -0.802676 0
M  V30 8074 C 756.016 3.99916 -2.21169 0
M  V30 8075 C 757.013 4.10662 -3.18831 0
M  V30 8076 C 754.698 4.33598 -2.53571 0
M  V30 8077 C 756.692 4.54401 -4.46988 0
M  V30 8078 C 754.379 4.77024 -3.81958 0
M  V30 8079 C 755.377 4.87388 -4.78478 0
M  V30 8080 O 755.065 5.29851 -6.04577 0
M  V30 8081 H 754.797 0.634511 -0.233179 0
M  V30 8082 H 757.351 1.60591 -1.28061 0
M  V30 8083 H 755.581 3.86596 -0.0896044 0
M  V30 8084 H 757.27 4.03117 -0.47452 0
M  V30 8085 H 758.036 3.84872 -2.95124 0
M  V30 8086 H 753.915 4.24757 -1.79171 0
M  V30 8087 H 757.459 4.62406 -5.22328 0
M  V30 8088 H 753.356 5.02258 -4.05471 0
M  V30 8089 H 754.124 5.48039 -6.07944 0
M  V30 8090 N 756.787 0.722489 1.40064 0
M  V30 8091 C 758.198 0.336507 1.83642 0
M  V30 8092 C 758.549 -1.13002 1.6039 0
M  V30 8093 O 757.674 -1.87036 1.08842 0
M  V30 8094 C 758.269 0.603985 3.33373 0
M  V30 8095 C 756.828 0.271637 3.75419 0
M  V30 8096 C 755.975 0.872898 2.63203 0
M  V30 8097 H 758.926 0.921108 1.29233 0
M  V30 8098 H 758.947 -0.128471 3.80283 0
M  V30 8099 H 758.459 1.67141 3.50265 0
M  V30 8100 H 756.56 -0.790455 3.64119 0
M  V30 8101 H 756.673 0.745457 4.73265 0
M  V30 8102 H 755.037 0.300431 2.52922 0
M  V30 8103 H 755.82 1.94473 2.82905 0
M  V30 8104 N 758.265 -1.50454 0.469181 0
M  V30 8105 C 759.512 -2.02315 -0.086469 0
M  V30 8106 C 759.84 -1.3513 -1.39893 0
M  V30 8107 O 759.095 -0.465341 -1.90087 0
M  V30 8108 C 759.394 -3.55963 -0.320207 0
M  V30 8109 C 759.06 -4.41615 0.910318 0
M  V30 8110 C 757.722 -4.64743 1.2477 0
M  V30 8111 C 760.074 -4.91661 1.72971 0
M  V30 8112 C 757.402 -5.35161 2.40457 0
M  V30 8113 C 759.754 -5.6335 2.87785 0
M  V30 8114 C 758.418 -5.84732 3.2194 0
M  V30 8115 H 757.688 -0.740324 -0.0316412 0
M  V30 8116 H 760.335 -1.81087 0.622872 0
M  V30 8117 H 758.64 -3.75695 -1.11177 0
M  V30 8118 H 760.337 -3.93653 -0.764071 0
M  V30 8119 H 756.927 -4.23833 0.637467 0
M  V30 8120 H 761.111 -4.73649 1.48224 0
M  V30 8121 H 756.367 -5.49924 2.67196 0
M  V30 8122 H 760.541 -6.0111 3.51624 0
M  V30 8123 H 758.168 -6.39074 4.1169 0
M  V30 8124 N 759.743 -0.201713 -1.56304 0
M  V30 8125 C 760.991 0.434447 -1.97375 0
M  V30 8126 C 761.312 1.61692 -1.08998 0
M  V30 8127 O 760.582 1.95223 -0.162682 0
M  V30 8128 H 759.162 0.163497 -0.728888 0
M  V30 8129 H 761.824 -0.289988 -1.92731 0
M  V30 8130 H 760.92 0.774136 -3.02347 0
M  V30 8131 N 761.222 1.57436 0.0718424 0
M  V30 8132 C 762.471 1.86431 0.769826 0
M  V30 8133 C 762.784 0.794355 1.78744 0
M  V30 8134 O 763.99 0.972148 2.53499 0
M  V30 8135 C 762.446 3.307 1.42006 0
M  V30 8136 C 762.054 4.45824 0.441017 0
M  V30 8137 C 763.798 3.68894 2.10041 0
M  V30 8138 C 761.705 5.81134 1.09717 0
M  V30 8139 H 760.635 0.695474 0.291259 0
M  V30 8140 H 763.286 1.83485 0.0231224 0
M  V30 8141 H 761.668 3.28257 2.21502 0
M  V30 8142 H 762.842 4.59659 -0.32413 0
M  V30 8143 H 761.157 4.16181 -0.134886 0
M  V30 8144 H 763.754 4.67281 2.59908 0
M  V30 8145 H 764.097 2.98692 2.89981 0
M  V30 8146 H 764.63 3.73326 1.37376 0
M  V30 8147 H 761.369 6.54628 0.338095 0
M  V30 8148 H 760.889 5.711 1.83317 0
M  V30 8149 H 762.568 6.26468 1.617 0
M  V30 8150 N 762.7 -0.34323 1.53817 0
M  V30 8151 C 763.977 -1.10047 1.61706 0
M  V30 8152 C 764.357 -2.06495 0.438514 0
M  V30 8153 O 763.705 -2.21297 -0.569188 0
M  V30 8154 C 763.915 -1.81985 2.97796 0
M  V30 8155 C 765.263 -2.35717 3.53161 0
M  V30 8156 O 766.287 -1.9208 2.99973 0
M  V30 8157 O 765.146 -3.15551 4.46195 0
M  V30 8158 H 762.24 -0.506096 0.654061 0
M  V30 8159 H 764.786 -0.344697 1.66162 0
M  V30 8160 H 763.558 -1.11722 3.75012 0
M  V30 8161 H 763.181 -2.64419 2.96931 0
M  V30 8162 N 764.178 -1.45556 -0.604258 0
M  V30 8163 C 765.589 -1.44171 -1.18624 0
M  V30 8164 C 765.94 -0.171081 -1.95453 0
M  V30 8165 O 765.065 0.727156 -2.03817 0
M  V30 8166 C 765.66 -2.61193 -2.15786 0
M  V30 8167 C 764.219 -2.62918 -2.69353 0
M  V30 8168 C 763.366 -2.36479 -1.4482 0
M  V30 8169 H 766.317 -1.53747 -0.393381 0
M  V30 8170 H 766.338 -2.35481 -2.98879 0
M  V30 8171 H 765.85 -3.53656 -1.59841 0
M  V30 8172 H 763.951 -1.7447 -3.29228 0
M  V30 8173 H 764.064 -3.6224 -3.13559 0
M  V30 8174 H 762.428 -1.86103 -1.73891 0
M  V30 8175 H 763.211 -3.31091 -0.907376 0
M  V30 8176 N 765.656 0.84705 -1.32902 0
M  V30 8177 C 766.905 1.59667 -1.23245 0
M  V30 8178 C 767.218 1.94551 0.202349 0
M  V30 8179 O 768.424 2.68218 0.420847 0
M  V30 8180 C 766.88 2.8795 -2.15901 0
M  V30 8181 C 766.488 2.60461 -3.64505 0
M  V30 8182 C 768.232 3.65968 -2.15098 0
M  V30 8183 C 766.139 3.84791 -4.49099 0
M  V30 8184 H 765.069 0.599167 -0.457728 0
M  V30 8185 H 767.72 0.934662 -1.57912 0
M  V30 8186 H 766.102 3.55648 -1.74157 0
M  V30 8187 H 767.276 2.01026 -4.14639 0
M  V30 8188 H 765.591 1.9576 -3.67515 0
M  V30 8189 H 768.188 4.58241 -2.75534 0
M  V30 8190 H 768.531 4.00275 -1.14392 0
M  V30 8191 H 769.064 3.05184 -2.55162 0
M  V30 8192 H 765.803 3.55621 -5.50649 0
M  V30 8193 H 765.323 4.43594 -4.03713 0
M  V30 8194 H 767.002 4.52454 -4.62487 0
M  V30 8195 N 767.134 1.16236 1.06428 0
M  V30 8196 C 768.38 0.954417 1.79617 0
M  V30 8197 C 768.735 -0.512411 1.85451 0
M  V30 8198 O 768.028 -1.37523 1.33409 0
M  V30 8199 C 768.222 1.51396 3.2375 0
M  V30 8200 C 768.051 3.03367 3.31962 0
M  V30 8201 C 766.821 3.71996 3.41975 0
M  V30 8202 C 769.019 4.01075 3.21937 0
M  V30 8203 N 767.001 5.11688 3.39187 0
M  V30 8204 C 768.372 5.27142 3.26376 0
M  V30 8205 C 770.427 3.92917 3.05812 0
M  V30 8206 C 769.13 6.46 3.16348 0
M  V30 8207 C 771.156 5.11344 2.97121 0
M  V30 8208 C 770.518 6.36291 3.02181 0
M  V30 8209 H 766.617 0.403007 0.670156 0
M  V30 8210 H 769.201 1.47605 1.26968 0
M  V30 8211 H 767.372 1.01883 3.74799 0
M  V30 8212 H 769.104 1.2439 3.85109 0
M  V30 8213 H 765.859 3.22623 3.46715 0
M  V30 8214 H 766.283 5.84676 3.41297 0
M  V30 8215 H 770.925 2.97172 3.00746 0
M  V30 8216 H 768.643 7.41968 3.2017 0
M  V30 8217 H 772.229 5.06801 2.85734 0
M  V30 8218 H 771.109 7.26389 2.95513 0
M  V30 8219 N 768.612 -1.24939 0.960631 0
M  V30 8220 C 769.837 -1.9742 0.635608 0
M  V30 8221 C 770.262 -1.70857 -0.786737 0
M  V30 8222 O 769.62 -0.968063 -1.53291 0
M  V30 8223 C 769.668 -3.48987 0.907771 0
M  V30 8224 O 768.772 -4.12399 -0.0104053 0
M  V30 8225 H 768.113 -0.61871 0.241027 0
M  V30 8226 H 770.643 -1.58901 1.28886 0
M  V30 8227 H 770.653 -3.99334 0.836453 0
M  V30 8228 H 769.328 -3.6765 1.94439 0
M  V30 8229 H 767.905 -3.72727 0.113631 0
M  V30 8230 N 770.09 -0.729906 -1.39679 0
M  V30 8231 C 771.02 -0.101618 -2.33279 0
M  V30 8232 C 772.001 0.729854 -1.53646 0
M  V30 8233 O 773.186 0.67587 -1.82059 0
M  V30 8234 C 770.316 0.81024 -3.37716 0
M  V30 8235 C 769.27 0.0833126 -4.27919 0
M  V30 8236 C 768.596 1.11185 -5.23012 0
M  V30 8237 C 769.896 -1.07107 -5.112 0
M  V30 8238 H 771.59 -0.883452 -2.86069 0
M  V30 8239 H 769.136 -0.426283 -1.37546 0
M  V30 8240 H 771.089 1.25927 -4.02145 0
M  V30 8241 H 769.813 1.62413 -2.83354 0
M  V30 8242 H 768.472 -0.346043 -3.64963 0
M  V30 8243 H 768.12 1.91917 -4.64948 0
M  V30 8244 H 767.82 0.63026 -5.8421 0
M  V30 8245 H 769.344 1.56068 -5.90318 0
M  V30 8246 H 770.758 -0.700726 -5.69002 0
M  V30 8247 H 769.155 -1.48196 -5.81514 0
M  V30 8248 H 770.225 -1.89513 -4.46332 0
M  V30 8249 N 771.568 1.50203 -0.477153 0
M  V30 8250 C 772.531 2.27194 0.302599 0
M  V30 8251 C 773.531 1.32221 0.915112 0
M  V30 8252 O 774.721 1.55593 0.783348 0
M  V30 8253 C 771.853 3.0938 1.43167 0
M  V30 8254 H 773.046 2.97575 -0.372678 0
M  V30 8255 H 770.599 1.54578 -0.231392 0
M  V30 8256 H 771.334 2.43509 2.14182 0
M  V30 8257 H 771.119 3.79181 0.998197 0
M  V30 8258 H 772.609 3.67592 1.98157 0
M  V30 8259 N 773.046 0.209999 1.56195 0
M  V30 8260 C 774.009 -0.691232 2.18528 0
M  V30 8261 C 775.009 -1.13013 1.14388 0
M  V30 8262 O 776.199 -1.04081 1.39688 0
M  V30 8263 C 773.331 -1.94551 2.79934 0
M  V30 8264 H 774.524 -0.147953 2.99535 0
M  V30 8265 H 772.077 -0.0396243 1.5625 0
M  V30 8266 H 772.812 -2.53094 2.02766 0
M  V30 8267 H 772.597 -1.63938 3.56184 0
M  V30 8268 H 774.087 -2.58785 3.2775 0
M  V30 8269 N 774.524 -1.57472 -0.0634922 0
M  V30 8270 C 775.472 -2.05307 -1.09323 0
M  V30 8271 C 776.466 -0.959995 -1.39572 0
M  V30 8272 O 777.672 -1.14507 -1.38882 0
M  V30 8273 H 774.047 -0.65472 -0.369927 0
M  V30 8274 H 776.018 -2.90925 -0.663707 0
M  V30 8275 C 774.767 -2.51954 -2.39613 0
M  V30 8276 H 774.09 -3.35662 -2.1719 0
M  V30 8277 H 775.53 -2.89169 -3.10092 0
M  V30 8278 C 773.989 -1.40596 -3.06161 0
M  V30 8279 O 774.519 -0.752722 -3.94585 0
M  V30 8280 N 772.725 -1.14902 -2.66919 0
M  V30 8281 H 772.272 -1.68205 -1.95102 0
M  V30 8282 H 772.23 -0.406006 -3.11767 0
M  V30 8283 N 776.003 0.335068 -1.53997 0
M  V30 8284 C 776.953 1.4127 -1.7896 0
M  V30 8285 C 777.937 1.474 -0.64513 0
M  V30 8286 O 779.129 1.52127 -0.904785 0
M  V30 8287 C 776.258 2.78292 -2.01018 0
M  V30 8288 C 775.344 2.7652 -3.21555 0
M  V30 8289 N 775.735 2.44374 -4.42849 0
M  V30 8290 C 774.033 3.0766 -3.22895 0
M  V30 8291 C 774.734 2.51049 -5.24737 0
M  V30 8292 N 773.71 2.8702 -4.6165 0
M  V30 8293 H 777.512 1.15327 -2.70327 0
M  V30 8294 H 775.026 0.543483 -1.53036 0
M  V30 8295 H 777.023 3.55949 -2.17039 0
M  V30 8296 H 775.683 3.05175 -1.10898 0
M  V30 8297 H 776.694 2.17422 -4.70051 0
M  V30 8298 H 773.371 3.3966 -2.42771 0
M  V30 8299 H 774.761 2.29283 -6.31569 0
M  V30 8300 N 777.481 1.45874 0.596531 0
M  V30 8301 C 778.411 1.5824 1.71705 0
M  V30 8302 C 779.392 0.433366 1.64487 0
M  V30 8303 O 780.577 0.657895 1.82717 0
M  V30 8304 C 777.707 1.55927 3.10329 0
M  V30 8305 C 776.661 2.69659 3.32367 0
M  V30 8306 C 775.987 2.52403 4.71377 0
M  V30 8307 C 777.287 4.11591 3.21544 0
M  V30 8308 H 778.981 2.52035 1.61613 0
M  V30 8309 H 776.527 1.21297 0.776082 0
M  V30 8310 H 778.48 1.63173 3.88526 0
M  V30 8311 H 777.204 0.586674 3.21288 0
M  V30 8312 H 775.863 2.61859 2.56564 0
M  V30 8313 H 775.511 1.53258 4.79083 0
M  V30 8314 H 775.211 3.28679 4.87077 0
M  V30 8315 H 776.735 2.6152 5.5176 0
M  V30 8316 H 778.149 4.20576 3.89601 0
M  V30 8317 H 776.546 4.88344 3.4877 0
M  V30 8318 H 777.616 4.32719 2.1882 0
M  V30 8319 N 778.959 -0.83999 1.33349 0
M  V30 8320 C 780.184 -1.63249 1.27924 0
M  V30 8321 C 780.609 -1.87523 -0.147193 0
M  V30 8322 O 779.967 -1.43853 -1.10345 0
M  V30 8323 C 780.015 -2.96046 2.05886 0
M  V30 8324 O 779.119 -3.87303 1.4167 0
M  V30 8325 H 778.46 -0.49715 0.440157 0
M  V30 8326 H 780.99 -1.04512 1.75893 0
M  V30 8327 H 781 -3.45752 2.16609 0
M  V30 8328 H 779.675 -2.77701 3.09605 0
M  V30 8329 H 778.252 -3.45789 1.39585 0
M  V30 8330 N 780.437 -1.16799 -1.0581 0
M  V30 8331 C 781.684 -0.952524 -1.78699 0
M  V30 8332 C 782.012 0.51931 -1.87439 0
M  V30 8333 O 781.267 1.40151 -1.36587 0
M  V30 8334 C 781.566 -1.53111 -3.22942 0
M  V30 8335 C 781.232 -3.0261 -3.34273 0
M  V30 8336 C 779.894 -3.43418 -3.37072 0
M  V30 8337 C 782.246 -3.98611 -3.35795 0
M  V30 8338 C 779.574 -4.78838 -3.39015 0
M  V30 8339 C 781.926 -5.33923 -3.39277 0
M  V30 8340 C 780.59 -5.74205 -3.40361 0
M  V30 8341 H 779.86 -0.348553 -0.653905 0
M  V30 8342 H 782.507 -1.45591 -1.244 0
M  V30 8343 H 780.812 -0.949286 -3.80126 0
M  V30 8344 H 782.509 -1.34002 -3.77948 0
M  V30 8345 H 779.099 -2.70075 -3.32803 0
M  V30 8346 H 783.283 -3.68146 -3.32839 0
M  V30 8347 H 778.539 -5.09369 -3.38161 0
M  V30 8348 H 782.713 -6.08094 -3.39403 0
M  V30 8349 H 780.34 -6.79117 -3.4162 0
M  V30 8350 N 781.915 1.24427 -0.967243 0
M  V30 8351 C 782.845 2.2773 -0.515899 0
M  V30 8352 C 783.826 1.64197 0.444227 0
M  V30 8353 O 785.011 1.91193 0.340451 0
M  V30 8354 C 782.141 3.46751 0.195149 0
M  V30 8355 C 781.095 4.22548 -0.680953 0
M  V30 8356 C 780.421 5.34456 0.161561 0
M  V30 8357 C 781.721 4.83914 -1.96532 0
M  V30 8358 H 783.415 2.65735 -1.37933 0
M  V30 8359 H 780.961 1.27742 -0.664681 0
M  V30 8360 H 782.914 4.18153 0.522117 0
M  V30 8361 H 781.638 3.07771 1.09292 0
M  V30 8362 H 780.297 3.52946 -0.991186 0
M  V30 8363 H 779.945 4.91716 1.05947 0
M  V30 8364 H 779.645 5.86087 -0.421418 0
M  V30 8365 H 781.169 6.08685 0.483211 0
M  V30 8366 H 782.583 5.47392 -1.70396 0
M  V30 8367 H 780.98 5.45775 -2.49499 0
M  V30 8368 H 782.05 4.05393 -2.66053 0
M  V30 8369 N 783.393 0.737304 1.3929 0
M  V30 8370 C 784.341 0.0879867 2.32434 0
M  V30 8371 C 785.335 -0.723324 1.53181 0
M  V30 8372 O 786.541 -0.624251 1.68829 0
M  V30 8373 H 782.916 0.00965277 0.751938 0
M  V30 8374 H 784.887 0.889915 2.84821 0
M  V30 8375 C 783.636 -0.803384 3.38291 0
M  V30 8376 H 782.959 -0.18849 3.99355 0
M  V30 8377 H 784.399 -1.22528 4.0591 0
M  V30 8378 C 782.858 -1.93872 2.75527 0
M  V30 8379 O 783.388 -3.03154 2.63553 0
M  V30 8380 N 781.594 -1.72883 2.3358 0
M  V30 8381 H 781.141 -0.840005 2.43519 0
M  V30 8382 H 781.099 -2.49021 1.91927 0
M  V30 8383 N 784.871 -1.49948 0.485112 0
M  V30 8384 C 786.096 -2.073 -0.0645059 0
M  V30 8385 C 786.521 -1.345 -1.31497 0
M  V30 8386 O 785.879 -0.39687 -1.76903 0
M  V30 8387 C 785.927 -3.59201 -0.317304 0
M  V30 8388 O 785.031 -3.88085 -1.39514 0
M  V30 8389 H 784.372 -0.663723 0.0191822 0
M  V30 8390 H 786.902 -1.92963 0.680179 0
M  V30 8391 H 786.912 -4.04227 -0.553604 0
M  V30 8392 H 785.587 -4.11602 0.596387 0
M  V30 8393 H 784.164 -3.54885 -1.14504 0
M  V30 8394 N 786.349 -0.21828 -1.56081 0
M  V30 8395 C 787.596 0.414307 -1.98216 0
M  V30 8396 C 787.924 1.60005 -1.10584 0
M  V30 8397 O 787.179 1.95124 -0.150043 0
M  V30 8398 C 787.478 0.894782 -3.46018 0
M  V30 8399 C 787.144 -0.180083 -4.5054 0
M  V30 8400 C 785.806 -0.475367 -4.78846 0
M  V30 8401 C 788.158 -0.907191 -5.13244 0
M  V30 8402 C 785.486 -1.50233 -5.67139 0
M  V30 8403 C 787.838 -1.92347 -6.02649 0
M  V30 8404 C 786.502 -2.22571 -6.293 0
M  V30 8405 H 785.772 0.151606 -0.725325 0
M  V30 8406 H 788.419 -0.320113 -1.88806 0
M  V30 8407 H 786.724 1.7079 -3.52616 0
M  V30 8408 H 788.421 1.39403 -3.75989 0
M  V30 8409 H 785.011 0.06022 -4.28558 0
M  V30 8410 H 789.195 -0.692303 -4.91448 0
M  V30 8411 H 784.451 -1.74215 -5.86054 0
M  V30 8412 H 788.625 -2.49197 -6.50288 0
M  V30 8413 H 786.252 -3.0229 -6.97513 0
M  V30 8414 N 787.827 1.57504 0.0551401 0
M  V30 8415 C 788.774 2.04825 1.06373 0
M  V30 8416 C 789.744 0.932108 1.37481 0
M  V30 8417 O 790.929 1.20093 1.48265 0
M  V30 8418 C 788.069 2.51091 2.36743 0
M  V30 8419 C 787.182 3.76392 2.12021 0
M  V30 8420 C 786.317 4.11373 3.36074 0
M  V30 8421 C 785.356 5.29666 3.0679 0
M  V30 8422 N 784.493 5.60205 4.2322 0
M  V30 8423 H 789.333 2.90753 0.653216 0
M  V30 8424 H 786.87 1.43776 0.310951 0
M  V30 8425 H 788.828 2.75973 3.12881 0
M  V30 8426 H 787.458 1.68118 2.75565 0
M  V30 8427 H 786.51 3.58751 1.26498 0
M  V30 8428 H 787.822 4.62662 1.86401 0
M  V30 8429 H 786.976 4.37245 4.20597 0
M  V30 8430 H 785.715 3.23704 3.64784 0
M  V30 8431 H 784.72 5.03574 2.20664 0
M  V30 8432 H 785.945 6.18968 2.79385 0
M  V30 8433 H 783.891 4.75495 4.5193 0
M  V30 8434 H 783.808 6.40928 4.00933 0
M  V30 8435 H 785.076 5.90637 5.08692 0
M  V30 8436 N 789.305 -0.326896 1.54172 0
M  V30 8437 C 790.238 -1.42591 1.78166 0
M  V30 8438 C 791.216 -1.49837 0.631484 0
M  V30 8439 O 792.4 -1.67298 0.868544 0
M  V30 8440 C 789.527 -2.8071 1.89524 0
M  V30 8441 C 788.573 -2.91012 3.11792 0
M  V30 8442 S 789.406 -2.55763 4.70474 0
M  V30 8443 C 790.562 -3.9596 4.84733 0
M  V30 8444 H 790.795 -1.22024 2.71104 0
M  V30 8445 H 788.328 -0.523539 1.45253 0
M  V30 8446 H 790.286 -3.60276 1.96753 0
M  V30 8447 H 788.947 -2.98562 0.975696 0
M  V30 8448 H 788.14 -3.92258 3.16464 0
M  V30 8449 H 787.742 -2.19414 3.02876 0
M  V30 8450 H 790.034 -4.90676 4.67166 0
M  V30 8451 H 790.977 -3.96273 5.86833 0
M  V30 8452 H 791.385 -3.8476 4.13062 0
M  V30 8453 N 790.784 -1.46188 -0.588786 0
M  V30 8454 C 791.731 -1.56292 -1.69828 0
M  V30 8455 C 792.701 -0.407581 -1.61022 0
M  V30 8456 O 793.886 -0.623532 -1.80324 0
M  V30 8457 C 791.026 -1.55341 -3.08161 0
M  V30 8458 C 790.139 -2.81564 -3.27636 0
M  V30 8459 C 789.274 -2.72158 -4.56183 0
M  V30 8460 C 788.313 -3.93348 -4.68981 0
M  V30 8461 N 787.45 -3.82365 -5.88848 0
M  V30 8462 H 792.29 -2.51066 -1.6053 0
M  V30 8463 H 789.827 -1.24562 -0.782474 0
M  V30 8464 H 791.785 -1.52776 -3.88221 0
M  V30 8465 H 790.415 -0.641034 -3.16371 0
M  V30 8466 H 789.467 -2.94136 -2.41223 0
M  V30 8467 H 790.779 -3.714 -3.32962 0
M  V30 8468 H 789.933 -2.67665 -5.44464 0
M  V30 8469 H 788.672 -1.79953 -4.53286 0
M  V30 8470 H 787.677 -3.98181 -3.7912 0
M  V30 8471 H 788.902 -4.86643 -4.73662 0
M  V30 8472 H 786.848 -2.92942 -5.86959 0
M  V30 8473 H 786.765 -4.65851 -5.95415 0
M  V30 8474 H 788.033 -3.81836 -6.79575 0
M  V30 8475 N 792.262 0.832906 -1.33792 0
M  V30 8476 C 793.195 1.94788 -1.18882 0
M  V30 8477 C 794.173 1.62389 -0.0828426 0
M  V30 8478 O 795.357 1.86886 -0.246175 0
M  V30 8479 C 792.484 3.28506 -0.824728 0
M  V30 8480 C 791.53 3.79872 -1.93905 0
M  V30 8481 S 792.363 4.00832 -3.55097 0
M  V30 8482 C 793.519 5.37492 -3.20708 0
M  V30 8483 H 793.752 2.07137 -2.13264 0
M  V30 8484 H 791.285 0.987362 -1.18704 0
M  V30 8485 H 793.243 4.05769 -0.621442 0
M  V30 8486 H 791.904 3.13939 0.100587 0
M  V30 8487 H 791.097 4.76647 -1.6378 0
M  V30 8488 H 790.699 3.09524 -2.09931 0
M  V30 8489 H 792.991 6.20544 -2.71903 0
M  V30 8490 H 793.934 5.72593 -4.16584 0
M  V30 8491 H 794.342 5.02529 -2.57148 0
M  V30 8492 N 793.74 1.17359 1.05189 0
M  V30 8493 C 794.965 0.98709 1.82404 0
M  V30 8494 C 795.39 -0.459848 1.82392 0
M  V30 8495 O 794.748 -1.32924 1.23292 0
M  V30 8496 C 794.796 1.53276 3.26403 0
M  V30 8497 O 793.9 0.746541 4.05587 0
M  V30 8498 H 793.241 0.35047 0.563974 0
M  V30 8499 H 795.771 1.55856 1.32552 0
M  V30 8500 H 795.781 1.55504 3.77203 0
M  V30 8501 H 794.456 2.58603 3.25726 0
M  V30 8502 H 793.033 0.795671 3.64312 0
M  V30 8503 N 795.218 -1.23913 0.973828 0
M  V30 8504 C 796.464 -1.92436 0.640026 0
M  V30 8505 C 796.797 -1.75875 -0.823512 0
M  V30 8506 O 796.072 -1.11563 -1.59323 0
M  V30 8507 C 796.355 -3.4526 1.0231 0
M  V30 8508 C 796.208 -3.70961 2.54378 0
M  V30 8509 C 797.527 -4.36495 0.562155 0
M  V30 8510 H 794.646 -0.698868 0.233992 0
M  V30 8511 H 797.288 -1.46163 1.21393 0
M  V30 8512 H 795.438 -3.84802 0.534751 0
M  V30 8513 H 797.11 -3.40941 3.10737 0
M  V30 8514 H 795.353 -3.15899 2.97305 0
M  V30 8515 H 796.024 -4.77912 2.76232 0
M  V30 8516 H 798.5 -4.04363 0.981333 0
M  V30 8517 H 797.376 -5.42142 0.858689 0
M  V30 8518 H 797.637 -4.38818 -0.537659 0
M  V30 8519 N 796.696 -0.74468 -1.38897 0
M  V30 8520 C 797.945 -0.293716 -1.9955 0
M  V30 8521 C 798.258 1.12831 -1.59777 0
M  V30 8522 O 799.464 1.67929 -2.13336 0
M  V30 8523 C 797.92 -0.474188 -3.56762 0
M  V30 8524 C 797.528 -1.90472 -4.05493 0
M  V30 8525 C 799.272 -0.0854875 -4.24414 0
M  V30 8526 C 797.179 -2.03423 -5.55314 0
M  V30 8527 H 796.109 -0.106066 -0.746502 0
M  V30 8528 H 798.76 -0.919948 -1.58774 0
M  V30 8529 H 797.142 0.221092 -3.95382 0
M  V30 8530 H 798.316 -2.63274 -3.78184 0
M  V30 8531 H 796.631 -2.24752 -3.50536 0
M  V30 8532 H 799.228 -0.161133 -5.34457 0
M  V30 8533 H 799.571 0.96066 -4.05064 0
M  V30 8534 H 800.104 -0.732286 -3.91002 0
M  V30 8535 H 796.843 -3.0626 -5.79556 0
M  V30 8536 H 796.363 -1.3507 -5.84394 0
M  V30 8537 H 798.042 -1.81996 -6.20876 0
M  V30 8538 N 798.174 1.49689 -0.493057 0
M  V30 8539 C 799.104 2.31826 0.279073 0
M  V30 8540 C 800.085 1.39733 0.969987 0
M  V30 8541 O 801.27 1.68646 0.962925 0
M  V30 8542 C 798.4 3.20046 1.34862 0
M  V30 8543 C 797.354 4.20869 0.77805 0
M  V30 8544 C 796.68 4.97971 1.94753 0
M  V30 8545 C 797.98 5.21813 -0.225543 0
M  V30 8546 H 799.674 2.96627 -0.406512 0
M  V30 8547 H 797.22 1.42647 -0.196943 0
M  V30 8548 H 799.173 3.76315 1.89645 0
M  V30 8549 H 797.897 2.53172 2.06328 0
M  V30 8550 H 796.556 3.65733 0.252036 0
M  V30 8551 H 796.204 4.27552 2.64969 0
M  V30 8552 H 795.904 5.66186 1.57187 0
M  V30 8553 H 797.428 5.57082 2.49984 0
M  V30 8554 H 798.842 5.72823 0.233864 0
M  V30 8555 H 797.239 5.97872 -0.516622 0
M  V30 8556 H 798.309 4.71209 -1.14412 0
M  V30 8557 N 799.652 0.226554 1.55963 0
M  V30 8558 C 800.9 -0.402991 1.98041 0
M  V30 8559 C 801.221 -1.59938 1.11557 0
M  V30 8560 O 800.491 -1.9494 0.193719 0
M  V30 8561 H 799.071 -0.15188 0.731397 0
M  V30 8562 H 801.733 0.320613 1.92245 0
M  V30 8563 H 800.829 -0.725937 3.0354 0
M  V30 8564 N 801.13 -1.57531 -0.0467866 0
M  V30 8565 C 802.376 -1.8873 -0.742218 0
M  V30 8566 C 802.709 -0.822084 -1.75941 0
M  V30 8567 O 801.984 0.164922 -1.938 0
M  V30 8568 C 802.267 -3.30586 -1.42776 0
M  V30 8569 C 802.12 -4.47785 -0.425285 0
M  V30 8570 C 803.439 -3.71068 -2.36636 0
M  V30 8571 H 800.558 -0.686406 -0.268359 0
M  V30 8572 H 803.2 -1.89999 -0.00511341 0
M  V30 8573 H 801.35 -3.29634 -2.05605 0
M  V30 8574 H 803.022 -4.60867 0.199721 0
M  V30 8575 H 801.265 -4.33037 0.25713 0
M  V30 8576 H 801.936 -5.43884 -0.943086 0
M  V30 8577 H 804.412 -3.73273 -1.83866 0
M  V30 8578 H 803.288 -4.71165 -2.81593 0
M  V30 8579 H 803.549 -3.02355 -3.22542 0
M  V30 8580 N 802.608 0.318715 -1.54344 0
M  V30 8581 C 803.854 1.05765 -1.73037 0
M  V30 8582 C 804.187 1.87514 -0.505181 0
M  V30 8583 O 803.462 1.88021 0.497838 0
M  V30 8584 C 803.745 1.97836 -3.00887 0
M  V30 8585 C 803.598 1.19384 -4.33668 0
M  V30 8586 C 804.917 2.97285 -3.24514 0
M  V30 8587 H 802.036 0.383104 -0.629603 0
M  V30 8588 H 804.678 0.333864 -1.87044 0
M  V30 8589 H 802.828 2.59552 -2.89076 0
M  V30 8590 H 804.5 0.600906 -4.57369 0
M  V30 8591 H 802.743 0.496198 -4.30953 0
M  V30 8592 H 803.414 1.87014 -5.19355 0
M  V30 8593 H 805.89 2.45693 -3.35819 0
M  V30 8594 H 804.766 3.58887 -4.15321 0
M  V30 8595 H 805.027 3.70003 -2.41971 0
M  V30 8596 N 804.086 1.46499 0.581025 0
M  V30 8597 C 805.036 1.53606 1.68491 0
M  V30 8598 C 806.02 0.396853 1.55929 0
M  V30 8599 O 807.212 0.645366 1.64815 0
M  V30 8600 C 804.341 1.53089 3.07276 0
M  V30 8601 C 803.427 2.72309 3.25128 0
M  V30 8602 N 803.818 3.97216 3.13134 0
M  V30 8603 C 802.116 2.68568 3.56072 0
M  V30 8604 C 802.817 4.7693 3.33036 0
M  V30 8605 N 801.793 4.08833 3.58269 0
M  V30 8606 H 805.595 2.47976 1.5775 0
M  V30 8607 H 803.109 1.42161 0.785104 0
M  V30 8608 H 805.106 1.56268 3.86505 0
M  V30 8609 H 803.766 0.597969 3.19146 0
M  V30 8610 H 804.777 4.28439 2.90964 0
M  V30 8611 H 801.454 1.84307 3.74616 0
M  V30 8612 H 802.844 5.85879 3.28932 0
M  V30 8613 N 805.565 -0.825799 1.34232 0
M  V30 8614 C 806.498 -1.94155 1.19914 0
M  V30 8615 C 807.476 -1.62343 0.0914533 0
M  V30 8616 O 808.66 -1.86752 0.256082 0
M  V30 8617 C 805.787 -3.28064 0.842138 0
M  V30 8618 C 804.833 -3.78839 1.95917 0
M  V30 8619 S 805.666 -3.98943 3.57218 0
M  V30 8620 C 806.822 -5.35783 3.23554 0
M  V30 8621 H 807.055 -2.06003 2.14359 0
M  V30 8622 H 804.588 -0.981053 1.19225 0
M  V30 8623 H 806.546 -4.05434 0.642952 0
M  V30 8624 H 805.207 -3.13988 -0.0839363 0
M  V30 8625 H 804.4 -4.75771 1.66306 0
M  V30 8626 H 804.002 -3.08406 2.11569 0
M  V30 8627 H 806.294 -6.19094 2.7519 0
M  V30 8628 H 807.237 -5.70376 4.19615 0
M  V30 8629 H 807.645 -5.01158 2.5981 0
M  V30 8630 N 807.043 -1.17915 -1.04565 0
M  V30 8631 C 808.006 -0.903787 -2.10628 0
M  V30 8632 C 809.006 0.10873 -1.60432 0
M  V30 8633 O 810.196 -0.124152 -1.73757 0
M  V30 8634 C 807.328 -0.355017 -3.39046 0
M  V30 8635 H 808.521 -1.84425 -2.3649 0
M  V30 8636 H 806.074 -0.990477 -1.2091 0
M  V30 8637 H 806.809 0.592297 -3.18845 0
M  V30 8638 H 806.594 -1.08484 -3.76794 0
M  V30 8639 H 808.084 -0.180891 -4.17208 0
M  V30 8640 N 808.521 1.23394 -0.980386 0
M  V30 8641 C 809.768 1.91809 -0.649261 0
M  V30 8642 C 810.096 1.765 0.817197 0
M  V30 8643 O 809.351 1.11979 1.60497 0
M  V30 8644 C 809.65 3.43542 -0.985588 0
M  V30 8645 C 809.316 3.79031 -2.44225 0
M  V30 8646 C 807.978 3.88429 -2.84035 0
M  V30 8647 C 810.33 3.96145 -3.38702 0
M  V30 8648 C 807.658 4.12368 -4.17336 0
M  V30 8649 C 810.01 4.21583 -4.71646 0
M  V30 8650 C 808.674 4.29203 -5.11215 0
M  V30 8651 H 807.944 0.70188 -0.237581 0
M  V30 8652 H 810.591 1.4642 -1.23424 0
M  V30 8653 H 808.896 3.90503 -0.318521 0
M  V30 8654 H 810.593 3.94708 -0.707596 0
M  V30 8655 H 807.183 3.7229 -2.12362 0
M  V30 8656 H 811.367 3.88274 -3.09123 0
M  V30 8657 H 806.623 4.1649 -4.47601 0
M  V30 8658 H 810.797 4.33769 -5.4481 0
M  V30 8659 H 808.424 4.47505 -6.14527 0
M  V30 8660 N 809.999 0.752036 1.385 0
M  V30 8661 C 811.247 0.306895 1.99756 0
M  V30 8662 C 811.568 -1.11478 1.59992 0
M  V30 8663 O 810.838 -1.76206 0.856045 0
M  V30 8664 H 809.418 0.11048 0.738785 0
M  V30 8665 H 812.08 0.965785 1.69289 0
M  V30 8666 H 811.176 0.368797 3.09913 0
M  V30 8667 N 811.477 -1.49425 0.500989 0
M  V30 8668 C 812.723 -2.02753 -0.0436 0
M  V30 8669 C 813.056 -1.37991 -1.36646 0
M  V30 8670 O 812.331 -0.515597 -1.87542 0
M  V30 8671 C 812.614 -3.59565 -0.19616 0
M  V30 8672 C 812.467 -4.34855 1.14982 0
M  V30 8673 C 813.786 -4.30014 -0.936795 0
M  V30 8674 H 810.905 -0.73686 -0.0143711 0
M  V30 8675 H 813.547 -1.78448 0.652397 0
M  V30 8676 H 811.697 -3.80405 -0.788959 0
M  V30 8677 H 813.369 -4.25512 1.7815 0
M  V30 8678 H 811.612 -3.97414 1.73911 0
M  V30 8679 H 812.283 -5.42933 0.996385 0
M  V30 8680 H 814.759 -4.1383 -0.434036 0
M  V30 8681 H 813.635 -5.39483 -1.01238 0
M  V30 8682 H 813.896 -3.95257 -1.9805 0
M  V30 8683 N 812.955 -0.234822 -1.55841 0
M  V30 8684 C 814.201 0.393843 -1.98939 0
M  V30 8685 C 814.534 1.58466 -1.1226 0
M  V30 8686 O 813.809 1.93635 -0.183242 0
M  V30 8687 C 814.092 0.815492 -3.50745 0
M  V30 8688 C 813.945 -0.379878 -4.48193 0
M  V30 8689 C 815.264 1.66687 -4.07312 0
M  V30 8690 H 812.383 0.141681 -0.723253 0
M  V30 8691 H 815.025 -0.333716 -1.87046 0
M  V30 8692 H 813.175 1.43541 -3.6101 0
M  V30 8693 H 814.847 -1.0182 -4.49923 0
M  V30 8694 H 813.09 -1.02507 -4.21515 0
M  V30 8695 H 813.761 -0.0417069 -5.51984 0
M  V30 8696 H 816.237 1.14369 -4.00074 0
M  V30 8697 H 815.113 1.93078 -5.13821 0
M  V30 8698 H 815.374 2.63468 -3.55017 0
M  V30 8699 N 814.433 1.57553 0.0384317 0
M  V30 8700 C 815.363 2.0898 1.04161 0
M  V30 8701 C 816.344 0.99029 1.38301 0
M  V30 8702 O 817.529 1.26499 1.47349 0
M  V30 8703 C 814.659 2.56145 2.34536 0
M  V30 8704 C 813.613 3.70275 2.14663 0
M  V30 8705 C 812.939 4.03612 3.50715 0
M  V30 8706 C 814.239 4.99067 1.54045 0
M  V30 8707 H 815.933 2.93046 0.613548 0
M  V30 8708 H 813.479 1.40973 0.293684 0
M  V30 8709 H 815.432 2.90741 3.05037 0
M  V30 8710 H 814.156 1.6915 2.79385 0
M  V30 8711 H 812.815 3.36013 1.46597 0
M  V30 8712 H 812.463 3.13698 3.93195 0
M  V30 8713 H 812.163 4.80482 3.38247 0
M  V30 8714 H 813.687 4.40735 4.22593 0
M  V30 8715 H 815.101 5.3168 2.14451 0
M  V30 8716 H 813.498 5.80484 1.52178 0
M  V30 8717 H 814.568 4.8226 0.505259 0
M  V30 8718 N 815.911 -0.310526 1.54511 0
M  V30 8719 C 817.159 -1.04484 1.72996 0
M  V30 8720 C 817.48 -1.88118 0.513479 0
M  V30 8721 O 816.75 -1.90119 -0.472384 0
M  V30 8722 H 815.33 -0.388747 0.637875 0
M  V30 8723 H 817.992 -0.343811 1.91844 0
M  V30 8724 H 817.088 -1.70341 2.61515 0
M  V30 8725 N 817.389 -1.46805 -0.573248 0
M  V30 8726 C 818.635 -1.5283 -1.33307 0
M  V30 8727 C 818.968 -0.183287 -1.93333 0
M  V30 8728 O 818.243 0.806354 -1.76998 0
M  V30 8729 C 818.526 -2.63414 -2.45531 0
M  V30 8730 C 818.379 -4.07478 -1.90478 0
M  V30 8731 C 819.698 -2.70014 -3.47535 0
M  V30 8732 H 816.817 -0.556371 -0.483343 0
M  V30 8733 H 819.459 -1.78787 -0.643066 0
M  V30 8734 H 817.609 -2.41412 -3.04389 0
M  V30 8735 H 819.281 -4.40795 -1.36004 0
M  V30 8736 H 817.524 -4.16511 -1.21248 0
M  V30 8737 H 818.195 -4.80598 -2.71531 0
M  V30 8738 H 820.671 -2.89817 -2.98572 0
M  V30 8739 H 819.547 -3.49192 -4.23504 0
M  V30 8740 H 819.808 -1.76436 -4.05367 0
M  V30 8741 N 818.867 0.818669 -1.34668 0
M  V30 8742 C 820.114 1.57512 -1.27264 0
M  V30 8743 C 820.442 1.93871 0.156254 0
M  V30 8744 O 819.697 1.60582 1.11857 0
M  V30 8745 C 819.996 2.88245 -2.11304 0
M  V30 8746 C 819.662 2.71159 -3.60255 0
M  V30 8747 C 818.324 2.66207 -4.00858 0
M  V30 8748 C 820.676 2.54538 -4.54819 0
M  V30 8749 C 818.004 2.4256 -5.34211 0
M  V30 8750 C 820.356 2.32421 -5.88356 0
M  V30 8751 C 819.02 2.25884 -6.28118 0
M  V30 8752 H 818.29 0.576378 -0.465692 0
M  V30 8753 H 820.937 0.9469 -1.66451 0
M  V30 8754 H 819.242 3.55381 -1.64958 0
M  V30 8755 H 820.939 3.45869 -2.02919 0
M  V30 8756 H 817.529 2.75856 -3.28027 0
M  V30 8757 H 821.713 2.57384 -4.24343 0
M  V30 8758 H 816.969 2.35959 -5.64033 0
M  V30 8759 H 821.143 2.18548 -6.61218 0
M  V30 8760 H 818.77 2.07322 -7.31383 0
M  V30 8761 N 820.346 1.18468 1.03938 0
M  V30 8762 C 821.294 0.909286 2.14091 0
M  V30 8763 C 822.288 -0.130928 1.68893 0
M  V30 8764 O 823.494 0.0173403 1.79992 0
M  V30 8765 H 819.869 0.27658 0.699291 0
M  V30 8766 H 821.84 1.84514 2.34515 0
M  V30 8767 C 820.589 0.452922 3.44737 0
M  V30 8768 H 819.912 1.24485 3.79926 0
M  V30 8769 H 821.352 0.299238 4.22943 0
M  V30 8770 C 819.811 -0.831435 3.26479 0
M  V30 8771 O 820.341 -1.89535 3.54174 0
M  V30 8772 N 818.547 -0.784545 2.79809 0
M  V30 8773 H 818.094 0.0814746 2.57471 0
M  V30 8774 H 818.052 -1.64431 2.67973 0
M  V30 8775 N 821.824 -1.22873 0.986916 0
M  V30 8776 C 822.774 -2.2237 0.503547 0
M  V30 8777 C 823.758 -1.55186 -0.424998 0
M  V30 8778 O 824.95 -1.75186 -0.252791 0
M  V30 8779 C 822.079 -3.42794 -0.186355 0
M  V30 8780 C 821.165 -4.17196 0.762143 0
M  V30 8781 N 821.556 -4.68453 1.9075 0
M  V30 8782 C 819.854 -4.42255 0.576797 0
M  V30 8783 C 820.555 -5.25126 2.50235 0
M  V30 8784 N 819.531 -5.13437 1.7856 0
M  V30 8785 H 823.333 -2.59636 1.37718 0
M  V30 8786 H 820.847 -1.38476 0.848415 0
M  V30 8787 H 822.844 -4.13256 -0.549993 0
M  V30 8788 H 821.504 -3.07042 -1.05619 0
M  V30 8789 H 822.515 -4.64595 2.28848 0
M  V30 8790 H 819.192 -4.16766 -0.247474 0
M  V30 8791 H 820.582 -5.75363 3.46997 0
M  V30 8792 N 823.302 -0.75937 -1.38099 0
M  V30 8793 C 824.548 -0.318584 -2.00282 0
M  V30 8794 C 824.881 1.09854 -1.60143 0
M  V30 8795 O 824.156 1.75344 -0.841702 0
M  V30 8796 C 824.439 -0.448047 -3.57302 0
M  V30 8797 C 824.292 -1.9067 -4.07388 0
M  V30 8798 C 825.611 0.155119 -4.39827 0
M  V30 8799 H 822.73 -0.117233 -0.727616 0
M  V30 8800 H 825.372 -0.960097 -1.63958 0
M  V30 8801 H 823.522 0.0981003 -3.88376 0
M  V30 8802 H 825.194 -2.5116 -3.86932 0
M  V30 8803 H 823.437 -2.41979 -3.6004 0
M  V30 8804 H 824.108 -1.94841 -5.1647 0
M  V30 8805 H 826.584 -0.31073 -4.14938 0
M  V30 8806 H 825.46 0.0343264 -5.48889 0
M  V30 8807 H 825.721 1.24407 -4.24235 0
M  V30 8808 N 824.78 1.49157 -0.508906 0
M  V30 8809 C 825.73 2.26215 0.284705 0
M  V30 8810 C 826.714 1.31401 0.928586 0
M  V30 8811 O 827.906 1.56073 0.834877 0
M  V30 8812 C 825.035 3.15906 1.34382 0
M  V30 8813 C 824.121 4.18186 0.705785 0
M  V30 8814 N 824.512 5.05419 -0.196214 0
M  V30 8815 C 822.81 4.35425 0.965457 0
M  V30 8816 C 823.511 5.78977 -0.562222 0
M  V30 8817 N 822.487 5.43553 0.0717389 0
M  V30 8818 H 826.289 2.91033 -0.409543 0
M  V30 8819 H 823.803 1.59104 -0.325508 0
M  V30 8820 H 825.8 3.6975 1.92589 0
M  V30 8821 H 824.46 2.52642 2.03966 0
M  V30 8822 H 825.471 5.14781 -0.567526 0
M  V30 8823 H 822.148 3.83363 1.65346 0
M  V30 8824 H 823.538 6.59192 -1.30062 0
M  V30 8825 N 826.258 0.243083 1.55714 0
M  V30 8826 C 827.505 -0.38272 1.9885 0
M  V30 8827 C 827.833 -1.58225 1.13115 0
M  V30 8828 O 827.088 -1.94861 0.181067 0
M  V30 8829 C 827.387 -0.839621 3.47398 0
M  V30 8830 C 827.053 0.251737 4.50197 0
M  V30 8831 C 825.715 0.551487 4.78029 0
M  V30 8832 C 828.067 0.988728 5.11736 0
M  V30 8833 C 825.395 1.59237 5.64677 0
M  V30 8834 C 827.747 2.0191 5.99512 0
M  V30 8835 C 826.411 2.32554 6.2568 0
M  V30 8836 H 825.681 -0.140047 0.727645 0
M  V30 8837 H 828.328 0.35011 1.88272 0
M  V30 8838 H 826.633 -1.65159 3.55288 0
M  V30 8839 H 828.33 -1.33404 3.78159 0
M  V30 8840 H 824.92 0.00796741 4.28599 0
M  V30 8841 H 829.104 0.7704 4.90284 0
M  V30 8842 H 824.36 1.83517 5.83208 0
M  V30 8843 H 828.534 2.59511 6.46241 0
M  V30 8844 H 826.161 3.13349 6.92616 0
M  V30 8845 N 827.736 -1.57571 -0.0300757 0
M  V30 8846 C 828.984 -1.88852 -0.719666 0
M  V30 8847 C 829.305 -0.840645 -1.75949 0
M  V30 8848 O 828.575 0.125854 -1.95495 0
M  V30 8849 H 827.155 -0.696965 -0.268792 0
M  V30 8850 H 829.817 -1.949 0.00373285 0
M  V30 8851 H 828.913 -2.87695 -1.20987 0
M  V30 8852 N 829.214 0.302327 -1.54673 0
M  V30 8853 C 830.146 1.39443 -1.81902 0
M  V30 8854 C 831.159 1.46891 -0.701914 0
M  V30 8855 O 832.348 1.49233 -0.979369 0
M  V30 8856 C 829.448 2.77824 -1.9408 0
M  V30 8857 C 828.621 2.93324 -3.24468 0
M  V30 8858 C 827.68 4.12196 -3.27079 0
M  V30 8859 O 826.706 4.04344 -4.00617 0
M  V30 8860 N 827.908 5.22768 -2.52376 0
M  V30 8861 H 830.673 1.1644 -2.76155 0
M  V30 8862 H 828.234 0.492392 -1.54231 0
M  V30 8863 H 830.226 3.5559 -1.9323 0
M  V30 8864 H 828.796 2.9378 -1.06828 0
M  V30 8865 H 828.016 2.02682 -3.38103 0
M  V30 8866 H 829.304 3.0059 -4.10516 0
M  V30 8867 H 828.702 5.32027 -1.92259 0
M  V30 8868 H 827.259 5.98874 -2.57281 0
M  V30 8869 N 830.692 1.47107 0.565454 0
M  V30 8870 C 832.108 1.32443 0.890566 0
M  V30 8871 C 832.308 0.308735 1.99121 0
M  V30 8872 O 831.364 -0.28265 2.50913 0
M  V30 8873 C 832.677 2.71548 1.2916 0
M  V30 8874 C 834.225 2.7977 1.40349 0
M  V30 8875 C 834.7 4.19497 1.83811 0
M  V30 8876 N 836.191 4.21998 1.90975 0
M  V30 8877 C 836.926 5.2702 2.25916 0
M  V30 8878 N 836.422 6.42353 2.59527 0
M  V30 8879 N 838.215 5.14393 2.26619 0
M  V30 8880 H 830.366 2.11786 -0.161328 0
M  V30 8881 H 832.629 0.947952 -0.00950631 0
M  V30 8882 H 832.335 3.47265 0.556753 0
M  V30 8883 H 832.209 3.02782 2.24951 0
M  V30 8884 H 834.596 2.0433 2.12916 0
M  V30 8885 H 834.677 2.522 0.427655 0
M  V30 8886 H 834.321 4.95439 1.11816 0
M  V30 8887 H 834.251 4.44486 2.82382 0
M  V30 8888 H 836.742 3.38791 1.6742 0
M  V30 8889 H 837.055 7.18252 2.85191 0
M  V30 8890 H 835.4 6.45687 2.57126 0
M  V30 8891 H 838.591 4.2332 1.99794 0
M  V30 8892 H 838.764 5.96349 2.5352 0
M  V30 8893 N 832.17 -0.811516 1.35101 0
M  V30 8894 C 833.12 -1.91227 1.24163 0
M  V30 8895 C 834.104 -1.60307 0.138012 0
M  V30 8896 O 835.296 -1.73116 0.368767 0
M  V30 8897 C 832.425 -3.2808 1.01085 0
M  V30 8898 C 831.511 -3.65082 2.15815 0
M  V30 8899 N 831.902 -3.73558 3.4101 0
M  V30 8900 C 830.2 -3.95005 2.07092 0
M  V30 8901 C 830.901 -4.06158 4.16426 0
M  V30 8902 N 829.877 -4.19982 3.45132 0
M  V30 8903 H 833.679 -1.95975 2.19023 0
M  V30 8904 H 831.193 -1.00583 1.27503 0
M  V30 8905 H 833.19 -4.06771 0.913382 0
M  V30 8906 H 831.85 -3.24622 0.0710406 0
M  V30 8907 H 832.861 -3.56761 3.75423 0
M  V30 8908 H 829.538 -3.99601 1.20937 0
M  V30 8909 H 830.928 -4.19824 5.24592 0
M  V30 8910 N 833.648 -1.19017 -1.03309 0
M  V30 8911 C 835.064 -0.941483 -1.28873 0
M  V30 8912 C 835.264 0.388587 -1.97718 0
M  V30 8913 O 834.32 1.12111 -2.26246 0
M  V30 8914 C 835.633 -2.11249 -2.13996 0
M  V30 8915 C 837.181 -2.15164 -2.27318 0
M  V30 8916 C 837.656 -3.31704 -3.15811 0
M  V30 8917 N 839.147 -3.31613 -3.23399 0
M  V30 8918 C 839.882 -4.18431 -3.9205 0
M  V30 8919 N 839.378 -5.15397 -4.62966 0
M  V30 8920 N 841.171 -4.06321 -3.88406 0
M  V30 8921 H 833.322 -2.04599 -0.570343 0
M  V30 8922 H 835.585 -0.894406 -0.314232 0
M  V30 8923 H 835.291 -3.07482 -1.70727 0
M  V30 8924 H 835.165 -2.07955 -3.14697 0
M  V30 8925 H 837.552 -1.19504 -2.6982 0
M  V30 8926 H 837.633 -2.22513 -1.26182 0
M  V30 8927 H 837.277 -4.2764 -2.74019 0
M  V30 8928 H 837.207 -3.21592 -4.16997 0
M  V30 8929 H 839.698 -2.6142 -2.72888 0
M  V30 8930 H 840.011 -5.78 -5.12968 0
M  V30 8931 H 838.356 -5.19349 -4.61846 0
M  V30 8932 H 841.547 -3.29849 -3.3214 0
M  V30 8933 H 841.72 -4.74196 -4.41635 0
M  V30 8934 N 835.127 1.22348 -0.993418 0
M  V30 8935 C 836.057 2.26584 -0.564088 0
M  V30 8936 C 837.038 1.65102 0.409298 0
M  V30 8937 O 838.223 1.91872 0.299819 0
M  V30 8938 C 835.353 3.47087 0.121554 0
M  V30 8939 C 834.307 4.21009 -0.770429 0
M  V30 8940 C 833.633 5.34678 0.0481586 0
M  V30 8941 C 834.933 4.79636 -2.06752 0
M  V30 8942 H 836.627 2.62749 -1.43538 0
M  V30 8943 H 834.173 1.26303 -0.691628 0
M  V30 8944 H 836.126 4.19166 0.433303 0
M  V30 8945 H 834.85 3.1002 1.0274 0
M  V30 8946 H 833.509 3.50764 -1.06583 0
M  V30 8947 H 833.157 4.93852 0.954933 0
M  V30 8948 H 832.857 5.85061 -0.545641 0
M  V30 8949 H 834.381 6.09573 0.353991 0
M  V30 8950 H 835.795 5.43654 -1.81969 0
M  V30 8951 H 834.192 5.4036 -2.61019 0
M  V30 8952 H 835.262 3.99659 -2.74592 0
M  V30 8953 N 836.605 0.766683 1.37694 0
M  V30 8954 C 837.535 0.163432 2.32927 0
M  V30 8955 C 838.516 -0.688861 1.55527 0
M  V30 8956 O 839.701 -0.627363 1.83787 0
M  V30 8957 C 836.831 -0.720416 3.39746 0
M  V30 8958 C 835.785 0.0301718 4.27989 0
M  V30 8959 C 835.111 -0.972788 5.25776 0
M  V30 8960 C 836.411 1.20623 5.0818 0
M  V30 8961 H 838.105 0.958988 2.83626 0
M  V30 8962 H 835.651 0.462601 1.36367 0
M  V30 8963 H 837.604 -1.15221 4.05342 0
M  V30 8964 H 836.328 -1.54844 2.8756 0
M  V30 8965 H 834.987 0.442685 3.63917 0
M  V30 8966 H 834.635 -1.79522 4.69873 0
M  V30 8967 H 834.335 -0.475145 5.85676 0
M  V30 8968 H 835.859 -1.40362 5.94248 0
M  V30 8969 H 837.273 0.851341 5.66944 0
M  V30 8970 H 835.67 1.63561 5.7738 0
M  V30 8971 H 836.74 2.01281 4.41151 0
M  V30 8972 N 838.083 -1.48885 0.516809 0
M  V30 8973 C 839.013 -2.32241 -0.242157 0
M  V30 8974 C 839.994 -1.41258 -0.947633 0
M  V30 8975 O 841.179 -1.70156 -0.935973 0
M  V30 8976 C 838.309 -3.22151 -1.29754 0
M  V30 8977 C 837.263 -4.22053 -0.710995 0
M  V30 8978 C 836.589 -5.01007 -1.86806 0
M  V30 8979 C 837.889 -5.21388 0.30853 0
M  V30 8980 H 839.583 -2.95943 0.453651 0
M  V30 8981 H 837.129 -1.42316 0.219612 0
M  V30 8982 H 839.082 -3.79284 -1.83634 0
M  V30 8983 H 837.806 -2.56423 -2.02274 0
M  V30 8984 H 836.465 -3.66087 -0.193819 0
M  V30 8985 H 836.113 -4.31713 -2.58133 0
M  V30 8986 H 835.813 -5.68615 -1.48159 0
M  V30 8987 H 837.337 -5.60989 -2.4109 0
M  V30 8988 H 838.751 -5.73122 -0.142703 0
M  V30 8989 H 837.148 -5.96975 0.611673 0
M  V30 8990 H 838.218 -4.69329 1.21894 0
M  V30 8991 N 839.561 -0.251338 -1.55583 0
M  V30 8992 C 840.471 0.656978 -2.25213 0
M  V30 8993 C 841.487 1.18966 -1.26977 0
M  V30 8994 O 842.663 1.22499 -1.59862 0
M  V30 8995 C 839.728 1.83527 -2.94141 0
M  V30 8996 C 838.789 1.34162 -4.07798 0
M  V30 8997 C 838.022 2.46375 -4.73429 0
M  V30 8998 O 838.245 3.65205 -4.38157 0
M  V30 8999 O 837.179 2.15881 -5.61853 0
M  V30 9000 H 841.005 0.0936395 -3.03556 0
M  V30 9001 H 838.59 -0.0196638 -1.49387 0
M  V30 9002 H 840.472 2.52279 -3.3754 0
M  V30 9003 H 839.147 2.38614 -2.18735 0
M  V30 9004 H 838.054 0.621249 -3.68906 0
M  V30 9005 H 839.387 0.836779 -4.85035 0
M  V30 9006 N 841.039 1.57585 0.0217189 0
M  V30 9007 C 842.267 1.93871 0.722619 0
M  V30 9008 C 842.682 0.851706 1.68498 0
M  V30 9009 O 842.039 -0.17127 1.81695 0
M  V30 9010 C 842.09 3.30114 1.47333 0
M  V30 9011 O 841.811 4.34639 0.549597 0
M  V30 9012 C 843.312 3.80727 2.27072 0
M  V30 9013 H 840.532 0.639671 0.202637 0
M  V30 9014 H 843.076 2.04487 -0.0229414 0
M  V30 9015 H 841.231 3.20872 2.17071 0
M  V30 9016 H 841.645 5.13326 1.07686 0
M  V30 9017 H 843.119 4.78547 2.75131 0
M  V30 9018 H 843.596 3.12301 3.08812 0
M  V30 9019 H 844.202 3.93075 1.62395 0
M  V30 9020 N 842.517 -0.29412 1.54831 0
M  V30 9021 C 843.447 -1.36757 1.89261 0
M  V30 9022 C 844.428 -1.52564 0.752214 0
M  V30 9023 O 845.613 -1.65958 1.00855 0
M  V30 9024 C 842.743 -2.73066 2.14597 0
M  V30 9025 C 841.697 -2.72017 3.3044 0
M  V30 9026 C 841.023 -4.11679 3.4121 0
M  V30 9027 C 842.323 -2.33149 4.67375 0
M  V30 9028 H 844.017 -1.08191 2.79169 0
M  V30 9029 H 841.563 -0.519014 1.34321 0
M  V30 9030 H 843.516 -3.48255 2.37269 0
M  V30 9031 H 842.24 -3.03172 1.21467 0
M  V30 9032 H 840.899 -1.99285 3.07703 0
M  V30 9033 H 840.547 -4.38973 2.45584 0
M  V30 9034 H 840.247 -4.11877 4.19084 0
M  V30 9035 H 841.771 -4.88637 3.6615 0
M  V30 9036 H 843.185 -2.98054 4.89731 0
M  V30 9037 H 841.582 -2.44546 5.48012 0
M  V30 9038 H 842.652 -1.28275 4.67626 0
M  V30 9039 N 843.995 -1.47404 -0.557645 0
M  V30 9040 C 845.406 -1.47872 -1.13977 0
M  V30 9041 C 845.757 -0.233176 -1.94809 0
M  V30 9042 O 844.882 0.661945 -2.06027 0
M  V30 9043 C 845.477 -2.67926 -2.07368 0
M  V30 9044 C 844.036 -2.71354 -2.60852 0
M  V30 9045 C 843.183 -2.40967 -1.37223 0
M  V30 9046 H 846.134 -1.54921 -0.344268 0
M  V30 9047 H 846.155 -2.44871 -2.91236 0
M  V30 9048 H 845.667 -3.58562 -1.48509 0
M  V30 9049 H 843.768 -1.84855 -3.23511 0
M  V30 9050 H 843.881 -3.72032 -3.01876 0
M  V30 9051 H 842.245 -1.91541 -1.67882 0
M  V30 9052 H 843.028 -3.33811 -0.801583 0
M  V30 9053 N 845.473 0.80434 -1.35529 0
M  V30 9054 C 846.383 1.94784 -1.30753 0
M  V30 9055 C 847.399 1.72703 -0.212071 0
M  V30 9056 O 848.575 1.96494 -0.441841 0
M  V30 9057 C 845.64 3.29406 -1.08133 0
M  V30 9058 C 844.701 3.64367 -2.27013 0
M  V30 9059 C 843.934 4.92566 -2.05463 0
M  V30 9060 O 844.157 5.61166 -1.02222 0
M  V30 9061 O 843.091 5.25838 -2.92879 0
M  V30 9062 H 846.917 2.01761 -2.26994 0
M  V30 9063 H 844.502 0.942448 -1.15924 0
M  V30 9064 H 846.384 4.09995 -0.973756 0
M  V30 9065 H 845.059 3.23355 -0.149444 0
M  V30 9066 H 843.966 2.84146 -2.43335 0
M  V30 9067 H 845.299 3.75125 -3.18656 0
M  V30 9068 N 846.951 1.19563 1.02676 0
M  V30 9069 C 847.881 0.959024 2.12897 0
M  V30 9070 C 848.862 -0.108382 1.69754 0
M  V30 9071 O 850.047 0.0470698 1.94143 0
M  V30 9072 C 847.177 0.499211 3.43693 0
M  V30 9073 C 846.131 1.5087 4.00528 0
M  V30 9074 C 845.457 0.905884 5.2697 0
M  V30 9075 C 846.757 2.88954 4.3509 0
M  V30 9076 H 848.451 1.88084 2.32948 0
M  V30 9077 H 845.997 0.905731 1.11949 0
M  V30 9078 H 847.95 0.320965 4.20176 0
M  V30 9079 H 846.674 -0.458205 3.2337 0
M  V30 9080 H 845.333 1.67413 3.26142 0
M  V30 9081 H 844.981 -0.0591506 5.02965 0
M  V30 9082 H 844.681 1.58 5.65959 0
M  V30 9083 H 846.205 0.73848 6.06118 0
M  V30 9084 H 847.619 2.75981 5.02501 0
M  V30 9085 H 846.016 3.53177 4.85166 0
M  V30 9086 H 847.086 3.41447 3.44299 0
M  V30 9087 N 848.429 -1.21819 0.999893 0
M  V30 9088 C 849.657 -1.94758 0.698359 0
M  V30 9089 C 850.072 -1.73771 -0.738183 0
M  V30 9090 O 849.429 -1.04113 -1.49889 0
M  V30 9091 C 849.48 -3.47292 1.00353 0
M  V30 9092 O 849.201 -3.67579 2.38363 0
M  V30 9093 C 850.702 -4.37403 0.72068 0
M  V30 9094 H 847.922 -0.619512 0.257771 0
M  V30 9095 H 850.466 -1.54778 1.33656 0
M  V30 9096 H 848.621 -3.85213 0.411018 0
M  V30 9097 H 849.035 -4.61719 2.48829 0
M  V30 9098 H 850.509 -5.43151 0.984422 0
M  V30 9099 H 850.986 -4.3784 -0.345309 0
M  V30 9100 H 851.592 -4.05119 1.29456 0
M  V30 9101 N 849.908 -0.773975 -1.37286 0
M  V30 9102 C 851.155 -0.339306 -1.99637 0
M  V30 9103 C 851.483 1.08478 -1.61439 0
M  V30 9104 O 850.738 1.7612 -0.853252 0
M  V30 9105 C 851.037 -0.432651 -3.54772 0
M  V30 9106 C 850.703 -1.81531 -4.12744 0
M  V30 9107 C 849.365 -2.19366 -4.2829 0
M  V30 9108 C 851.717 -2.72137 -4.44512 0
M  V30 9109 C 849.045 -3.47239 -4.72908 0
M  V30 9110 C 851.397 -3.99421 -4.90556 0
M  V30 9111 C 850.061 -4.37298 -5.04308 0
M  V30 9112 H 849.331 -0.124161 -0.730524 0
M  V30 9113 H 851.978 -0.988432 -1.64019 0
M  V30 9114 H 850.283 0.30001 -3.9065 0
M  V30 9115 H 851.98 -0.0776 -4.00925 0
M  V30 9116 H 848.57 -1.51126 -4.01072 0
M  V30 9117 H 852.754 -2.44165 -4.32084 0
M  V30 9118 H 848.01 -3.76477 -4.81742 0
M  V30 9119 H 852.184 -4.69756 -5.14104 0
M  V30 9120 H 849.811 -5.36442 -5.38641 0
M  V30 9121 N 851.386 1.48609 -0.524698 0
M  V30 9122 C 852.316 2.32366 0.229837 0
M  V30 9123 C 853.297 1.41759 0.940129 0
M  V30 9124 O 854.482 1.7065 0.926936 0
M  V30 9125 C 851.612 3.22835 1.28043 0
M  V30 9126 C 850.566 4.22424 0.688603 0
M  V30 9127 C 849.892 5.0199 1.84146 0
M  V30 9128 C 851.192 5.21217 -0.336176 0
M  V30 9129 H 852.886 2.95698 -0.469339 0
M  V30 9130 H 850.432 1.42197 -0.227156 0
M  V30 9131 H 852.385 3.80253 1.8162 0
M  V30 9132 H 851.109 2.57492 2.00912 0
M  V30 9133 H 849.768 3.66185 0.174402 0
M  V30 9134 H 849.416 4.33076 2.5584 0
M  V30 9135 H 849.116 5.69392 1.45142 0
M  V30 9136 H 850.64 5.62259 2.38111 0
M  V30 9137 H 852.054 5.7319 0.112307 0
M  V30 9138 H 850.451 5.96642 -0.643324 0
M  V30 9139 H 851.521 4.68676 -1.24381 0
M  V30 9140 N 852.864 0.259585 1.55447 0
M  V30 9141 C 853.794 -0.62852 2.24882 0
M  V30 9142 C 854.775 -1.17128 1.23349 0
M  V30 9143 O 855.96 -1.20829 1.52033 0
M  V30 9144 C 853.09 -1.81983 2.95803 0
M  V30 9145 C 852.044 -1.40929 4.04132 0
M  V30 9146 C 851.37 -2.68246 4.62545 0
M  V30 9147 C 852.67 -0.570956 5.1917 0
M  V30 9148 H 854.364 -0.0495021 2.99359 0
M  V30 9149 H 851.91 -0.0223688 1.43983 0
M  V30 9150 H 853.863 -2.44689 3.43082 0
M  V30 9151 H 852.587 -2.42444 2.18835 0
M  V30 9152 H 851.246 -0.805519 3.57641 0
M  V30 9153 H 850.894 -3.26931 3.82263 0
M  V30 9154 H 850.594 -2.41495 5.35681 0
M  V30 9155 H 852.118 -3.31827 5.12565 0
M  V30 9156 H 853.532 -1.10262 5.62597 0
M  V30 9157 H 851.929 -0.398979 5.98772 0
M  V30 9158 H 852.999 0.413918 4.8313 0
M  V30 9159 N 854.342 -1.57594 -0.0133615 0
M  V30 9160 C 855.59 -1.89605 -0.699596 0
M  V30 9161 C 855.911 -0.85926 -1.75048 0
M  V30 9162 O 855.181 0.105112 -1.95618 0
M  V30 9163 H 853.761 -0.699776 -0.261385 0
M  V30 9164 H 856.423 -1.94885 0.0244044 0
M  V30 9165 H 855.519 -2.88962 -1.17928 0
M  V30 9166 N 855.82 0.285905 -1.54985 0
M  V30 9167 C 856.75 1.35752 -1.89983 0
M  V30 9168 C 857.731 1.52163 -0.760295 0
M  V30 9169 O 858.916 1.65421 -1.01733 0
M  V30 9170 C 856.046 2.71925 -2.16042 0
M  V30 9171 C 855 2.70261 -3.31878 0
M  V30 9172 C 854.326 4.09864 -3.43388 0
M  V30 9173 C 855.626 2.30667 -4.68604 0
M  V30 9174 H 857.32 1.06709 -2.79738 0
M  V30 9175 H 854.866 0.511884 -1.34595 0
M  V30 9176 H 856.819 3.46992 -2.39113 0
M  V30 9177 H 855.543 3.02523 -1.23074 0
M  V30 9178 H 854.202 1.97651 -3.08755 0
M  V30 9179 H 853.85 4.37664 -2.47909 0
M  V30 9180 H 853.55 4.09648 -4.21262 0
M  V30 9181 H 855.074 4.86689 -3.68736 0
M  V30 9182 H 856.488 2.95453 -4.91305 0
M  V30 9183 H 854.885 2.41637 -5.49301 0
M  V30 9184 H 855.955 1.25793 -4.68299 0
M  V30 9185 N 857.298 1.47698 0.54982 0
M  V30 9186 C 858.545 1.54702 1.30665 0
M  V30 9187 C 858.873 0.212418 1.93337 0
M  V30 9188 O 858.128 -0.79543 1.78805 0
M  V30 9189 C 858.427 2.61903 2.4319 0
M  V30 9190 C 858.093 4.04953 1.98302 0
M  V30 9191 C 856.755 4.43893 1.85776 0
M  V30 9192 C 859.107 4.94682 1.64133 0
M  V30 9193 C 856.435 5.70387 1.37388 0
M  V30 9194 C 858.787 6.21646 1.17214 0
M  V30 9195 C 857.451 6.5946 1.0329 0
M  V30 9196 H 856.721 0.566096 0.478139 0
M  V30 9197 H 859.368 1.8133 0.615767 0
M  V30 9198 H 857.673 2.2906 3.17866 0
M  V30 9199 H 859.37 2.64543 3.0136 0
M  V30 9200 H 855.96 3.74191 2.08995 0
M  V30 9201 H 860.144 4.65291 1.72679 0
M  V30 9202 H 855.4 5.98427 1.25278 0
M  V30 9203 H 859.574 6.90581 0.898391 0
M  V30 9204 H 857.201 7.57367 0.655735 0
M  V30 9205 N 858.776 -0.797141 1.35954 0
M  V30 9206 C 860.024 -1.55161 1.29497 0
M  V30 9207 C 860.345 -1.94582 -0.127659 0
M  V30 9208 O 859.615 -1.64343 -1.06622 0
M  V30 9209 H 858.195 -0.575413 0.47635 0
M  V30 9210 H 860.857 -0.950282 1.70164 0
M  V30 9211 H 859.953 -2.46272 1.9172 0
M  V30 9212 N 860.254 -1.20106 -1.0204 0
M  V30 9213 C 861.484 -1.0329 -1.78927 0
M  V30 9214 C 861.892 0.421115 -1.84454 0
M  V30 9215 O 861.235 1.30422 -1.29367 0
M  V30 9216 C 861.297 -1.53627 -3.25021 0
M  V30 9217 C 860.961 -3.01869 -3.4311 0
M  V30 9218 C 861.958 -3.9956 -3.32638 0
M  V30 9219 C 859.643 -3.40746 -3.6905 0
M  V30 9220 C 861.637 -5.34119 -3.47844 0
M  V30 9221 C 859.324 -4.75462 -3.839 0
M  V30 9222 C 860.322 -5.71957 -3.73302 0
M  V30 9223 O 860.01 -7.04231 -3.87703 0
M  V30 9224 H 859.742 -0.363962 -0.569656 0
M  V30 9225 H 862.296 -1.59551 -1.29354 0
M  V30 9226 H 860.526 -0.917481 -3.75658 0
M  V30 9227 H 862.215 -1.32889 -3.8353 0
M  V30 9228 H 862.981 -3.70869 -3.12539 0
M  V30 9229 H 858.86 -2.66182 -3.76388 0
M  V30 9230 H 862.404 -6.09421 -3.39488 0
M  V30 9231 H 858.301 -5.03844 -4.03499 0
M  V30 9232 H 859.069 -7.11425 -4.04744 0
M  V30 9233 N 861.732 1.21287 -1.00634 0
M  V30 9234 C 862.662 2.25973 -0.588089 0
M  V30 9235 C 863.643 1.65527 0.391764 0
M  V30 9236 O 864.828 1.92179 0.279452 0
M  V30 9237 C 861.958 3.47197 0.0847336 0
M  V30 9238 C 860.912 4.20168 -0.815039 0
M  V30 9239 C 860.238 5.34699 -0.00855393 0
M  V30 9240 C 861.538 4.77416 -2.11828 0
M  V30 9241 H 863.232 2.61212 -1.46317 0
M  V30 9242 H 860.778 1.25563 -0.704985 0
M  V30 9243 H 862.731 4.19602 0.388821 0
M  V30 9244 H 861.455 3.11092 0.994456 0
M  V30 9245 H 860.114 3.49614 -1.10297 0
M  V30 9246 H 859.762 4.94837 0.902499 0
M  V30 9247 H 859.462 5.84449 -0.607664 0
M  V30 9248 H 860.986 6.09914 0.289317 0
M  V30 9249 H 862.4 5.41694 -1.87725 0
M  V30 9250 H 860.797 5.37561 -2.66736 0
M  V30 9251 H 861.867 3.96724 -2.78816 0
M  V30 9252 N 863.21 0.781244 1.36873 0
M  V30 9253 C 864.456 0.350407 1.9975 0
M  V30 9254 C 864.789 -1.07293 1.6187 0
M  V30 9255 O 864.064 -1.73983 0.869491 0
M  V30 9256 C 864.347 0.504834 3.56544 0
M  V30 9257 C 864.2 1.97127 4.04303 0
M  V30 9258 C 865.519 -0.0851272 4.40018 0
M  V30 9259 H 862.638 0.128794 0.725659 0
M  V30 9260 H 865.28 0.98606 1.6241 0
M  V30 9261 H 863.43 -0.0363006 3.88483 0
M  V30 9262 H 865.102 2.57284 3.82887 0
M  V30 9263 H 863.345 2.47676 3.56145 0
M  V30 9264 H 864.016 2.03033 5.13305 0
M  V30 9265 H 866.492 0.376704 4.14391 0
M  V30 9266 H 865.368 0.0530015 5.48874 0
M  V30 9267 H 865.629 -1.17642 4.2616 0
M  V30 9268 N 864.689 -1.48329 0.532571 0
M  V30 9269 C 865.936 -2.025 -0.000582356 0
M  V30 9270 C 866.264 -1.40942 -1.34036 0
M  V30 9271 O 865.519 -0.545545 -1.87942 0
M  V30 9272 C 865.818 -3.57 -0.168943 0
M  V30 9273 C 865.484 -4.37357 1.0968 0
M  V30 9274 C 864.146 -4.59033 1.44369 0
M  V30 9275 C 866.498 -4.83882 1.93669 0
M  V30 9276 C 863.826 -5.24481 2.62939 0
M  V30 9277 C 866.178 -5.50637 3.11419 0
M  V30 9278 C 864.842 -5.70551 3.46451 0
M  V30 9279 H 864.112 -0.741 -0.000213099 0
M  V30 9280 H 866.759 -1.78282 0.699117 0
M  V30 9281 H 865.064 -3.80072 -0.951429 0
M  V30 9282 H 866.761 -3.9654 -0.596422 0
M  V30 9283 H 863.351 -4.20748 0.816655 0
M  V30 9284 H 867.535 -4.66936 1.6818 0
M  V30 9285 H 862.791 -5.38096 2.9028 0
M  V30 9286 H 866.965 -5.85655 3.76803 0
M  V30 9287 H 864.592 -6.21037 4.38425 0
M  V30 9288 N 866.167 -0.267825 -1.55308 0
M  V30 9289 C 867.097 0.616585 -2.25212 0
M  V30 9290 C 868.078 1.16472 -1.23969 0
M  V30 9291 O 869.263 1.20021 -1.52672 0
M  V30 9292 C 866.393 1.80412 -2.96764 0
M  V30 9293 C 865.347 1.38784 -4.04874 0
M  V30 9294 C 864.673 2.65789 -4.63961 0
M  V30 9295 C 865.973 0.543415 -5.19465 0
M  V30 9296 H 867.667 0.0336257 -2.99381 0
M  V30 9297 H 865.213 0.0147328 -1.43992 0
M  V30 9298 H 867.166 2.42866 -3.44375 0
M  V30 9299 H 865.89 2.4128 -2.20118 0
M  V30 9300 H 864.549 0.786541 -3.58063 0
M  V30 9301 H 864.197 3.24899 -3.83992 0
M  V30 9302 H 863.897 2.38651 -5.36954 0
M  V30 9303 H 865.421 3.29104 -5.14318 0
M  V30 9304 H 866.835 1.07277 -5.63174 0
M  V30 9305 H 865.232 0.367219 -5.98975 0
M  V30 9306 H 866.302 -0.439534 -4.82904 0
M  V30 9307 N 867.645 1.57599 0.00500368 0
M  V30 9308 C 868.891 1.90631 0.691919 0
M  V30 9309 C 869.224 0.868443 1.737 0
M  V30 9310 O 868.499 -0.113482 1.94169 0
M  V30 9311 C 868.782 3.34255 1.33961 0
M  V30 9312 C 868.635 4.48755 0.306413 0
M  V30 9313 C 869.954 3.77211 2.26715 0
M  V30 9314 H 867.073 0.693279 0.250066 0
M  V30 9315 H 869.715 1.89946 -0.0452634 0
M  V30 9316 H 867.865 3.3497 1.96793 0
M  V30 9317 H 869.537 4.60176 -0.321841 0
M  V30 9318 H 867.78 4.32203 -0.371852 0
M  V30 9319 H 868.451 5.46193 0.798554 0
M  V30 9320 H 870.927 3.78017 1.73904 0
M  V30 9321 H 869.803 4.78466 2.69002 0
M  V30 9322 H 870.064 3.10801 3.14413 0
M  V30 9323 N 869.123 -0.277682 1.55134 0
M  V30 9324 C 870.372 -1.00766 1.74726 0
M  V30 9325 C 870.685 -1.87617 0.553092 0
M  V30 9326 O 871.891 -2.64058 0.631318 0
M  V30 9327 C 870.347 -1.84147 3.09221 0
M  V30 9328 C 869.955 -1.02186 4.3619 0
M  V30 9329 C 871.699 -2.56604 3.38164 0
M  V30 9330 C 869.606 -1.84978 5.61727 0
M  V30 9331 H 868.536 -0.379948 0.651273 0
M  V30 9332 H 871.187 -0.263543 1.81598 0
M  V30 9333 H 869.569 -2.62637 2.96375 0
M  V30 9334 H 870.743 -0.281459 4.5994 0
M  V30 9335 H 869.058 -0.412054 4.14356 0
M  V30 9336 H 871.655 -3.18942 4.29162 0
M  V30 9337 H 871.998 -3.26647 2.58085 0
M  V30 9338 H 872.531 -1.85147 3.52087 0
M  V30 9339 H 869.27 -1.19365 6.4454 0
M  V30 9340 H 868.79 -2.56628 5.42128 0
M  V30 9341 H 870.469 -2.42458 5.99853 0
M  V30 9342 N 870.601 -1.47988 -0.541979 0
M  V30 9343 C 871.831 -1.58804 -1.32155 0
M  V30 9344 C 872.239 -0.242893 -1.87634 0
M  V30 9345 O 871.582 0.776239 -1.66494 0
M  V30 9346 C 871.644 -2.56567 -2.51821 0
M  V30 9347 C 871.308 -4.01915 -2.17517 0
M  V30 9348 C 872.305 -4.89954 -1.73901 0
M  V30 9349 C 869.99 -4.47365 -2.28408 0
M  V30 9350 C 871.984 -6.21467 -1.41625 0
M  V30 9351 C 869.671 -5.78902 -1.95745 0
M  V30 9352 C 870.669 -6.65775 -1.52423 0
M  V30 9353 O 870.357 -7.94866 -1.20183 0
M  V30 9354 H 870.089 -0.538536 -0.408601 0
M  V30 9355 H 872.643 -1.94446 -0.661818 0
M  V30 9356 H 870.873 -2.16023 -3.20735 0
M  V30 9357 H 872.562 -2.57347 -3.13891 0
M  V30 9358 H 873.328 -4.56082 -1.64966 0
M  V30 9359 H 869.207 -3.79942 -2.61084 0
M  V30 9360 H 872.751 -6.8923 -1.07738 0
M  V30 9361 H 868.648 -6.12311 -2.04316 0
M  V30 9362 H 869.416 -8.07509 -1.33683 0
M  V30 9363 N 872.079 0.78992 -1.36375 0
M  V30 9364 C 873.026 1.90254 -1.3066 0
M  V30 9365 C 873.996 1.65171 -0.17539 0
M  V30 9366 O 875.181 1.87338 -0.361824 0
M  V30 9367 C 872.321 3.27057 -1.10125 0
M  V30 9368 C 871.434 3.64215 -2.32317 0
M  V30 9369 C 870.569 4.90134 -2.04798 0
M  V30 9370 C 869.608 5.19969 -3.22953 0
M  V30 9371 N 868.745 6.37071 -2.95102 0
M  V30 9372 H 873.585 1.94474 -2.25796 0
M  V30 9373 H 871.122 0.951022 -1.12223 0
M  V30 9374 H 873.08 4.05947 -0.962453 0
M  V30 9375 H 871.71 3.22261 -0.186444 0
M  V30 9376 H 870.762 2.80454 -2.57002 0
M  V30 9377 H 872.074 3.82212 -3.20492 0
M  V30 9378 H 871.228 5.76888 -1.87845 0
M  V30 9379 H 869.967 4.74205 -1.13932 0
M  V30 9380 H 868.972 4.31699 -3.40465 0
M  V30 9381 H 870.197 5.37817 -4.14644 0
M  V30 9382 H 868.143 6.22535 -2.06848 0
M  V30 9383 H 868.06 6.55398 -3.76815 0
M  V30 9384 H 869.328 7.26808 -2.81727 0
M  V30 9385 N 873.557 1.20646 1.01402 0
M  V30 9386 C 874.803 1.02974 1.75408 0
M  V30 9387 C 875.158 -0.433294 1.87458 0
M  V30 9388 O 874.451 -1.31741 1.39122 0
M  V30 9389 C 874.645 1.64991 3.17037 0
M  V30 9390 C 874.474 3.17174 3.18796 0
M  V30 9391 C 873.244 3.86165 3.2589 0
M  V30 9392 C 875.442 4.14369 3.04636 0
M  V30 9393 N 873.424 5.25614 3.1718 0
M  V30 9394 C 874.795 5.4051 3.03724 0
M  V30 9395 C 876.85 4.05534 2.88872 0
M  V30 9396 C 875.553 6.58836 2.88664 0
M  V30 9397 C 877.579 5.23486 2.75166 0
M  V30 9398 C 876.941 6.48535 2.74922 0
M  V30 9399 H 873.04 0.431068 0.65246 0
M  V30 9400 H 875.624 1.52858 1.20593 0
M  V30 9401 H 873.795 1.17688 3.70141 0
M  V30 9402 H 875.527 1.40612 3.79487 0
M  V30 9403 H 872.282 3.37038 3.32719 0
M  V30 9404 H 872.706 5.98625 3.16192 0
M  V30 9405 H 877.348 3.09661 2.87872 0
M  V30 9406 H 875.066 7.5488 2.88413 0
M  V30 9407 H 878.652 5.18464 2.63982 0
M  V30 9408 H 877.532 7.3827 2.64439 0
M  V30 9409 N 875.035 -1.20752 1.01276 0
M  V30 9410 C 875.965 -2.25658 0.600064 0
M  V30 9411 C 876.946 -1.65733 -0.38298 0
M  V30 9412 O 878.131 -1.92324 -0.269256 0
M  V30 9413 C 875.261 -3.47237 -0.0663197 0
M  V30 9414 C 874.215 -4.1973 0.83731 0
M  V30 9415 C 873.541 -5.34687 0.0369102 0
M  V30 9416 C 874.841 -4.76286 2.14357 0
M  V30 9417 H 876.535 -2.60432 1.477 0
M  V30 9418 H 874.081 -1.25187 0.711634 0
M  V30 9419 H 876.034 -4.19803 -0.366563 0
M  V30 9420 H 874.758 -3.11615 -0.977944 0
M  V30 9421 H 873.417 -3.49024 1.1215 0
M  V30 9422 H 873.065 -4.95309 -0.876244 0
M  V30 9423 H 872.765 -5.84119 0.63865 0
M  V30 9424 H 874.289 -6.10059 -0.256968 0
M  V30 9425 H 875.703 -5.40691 1.90595 0
M  V30 9426 H 874.1 -5.36139 2.69583 0
M  V30 9427 H 875.17 -3.9524 2.80916 0
M  V30 9428 N 876.513 -0.788492 -1.36457 0
M  V30 9429 C 877.753 -0.365855 -2.01099 0
M  V30 9430 C 878.117 1.04262 -1.61225 0
M  V30 9431 O 879.318 1.56628 -2.18451 0
M  V30 9432 C 877.589 -0.523344 -3.53548 0
M  V30 9433 S 879.148 -0.188448 -4.38395 0
M  V30 9434 H 875.966 -0.139832 -0.697114 0
M  V30 9435 H 878.568 -1.02678 -1.66365 0
M  V30 9436 H 877.272 -1.54874 -3.80055 0
M  V30 9437 H 876.803 0.153547 -3.931 0
M  V30 9438 H 878.818 1.0103 -4.85806 0
M  V30 9439 N 877.991 1.48044 -0.54043 0
M  V30 9440 C 879.237 2.02797 -0.0101718 0
M  V30 9441 C 879.57 1.41565 1.32939 0
M  V30 9442 O 878.845 0.565139 1.86109 0
M  V30 9443 C 879.128 3.59959 0.100758 0
M  V30 9444 C 878.981 4.31654 -1.26471 0
M  V30 9445 C 880.3 4.32347 0.822455 0
M  V30 9446 H 877.419 0.736982 -0.00517052 0
M  V30 9447 H 880.061 1.76656 -0.69948 0
M  V30 9448 H 878.211 3.82363 0.687824 0
M  V30 9449 H 879.883 4.20639 -1.89369 0
M  V30 9450 H 878.126 3.92663 -1.84386 0
M  V30 9451 H 878.797 5.401 -1.13998 0
M  V30 9452 H 881.273 4.14835 0.324164 0
M  V30 9453 H 880.149 5.41978 0.868993 0
M  V30 9454 H 880.41 4.00369 1.87501 0
M  V30 9455 N 879.47 0.276058 1.55163 0
M  V30 9456 C 880.716 -0.333945 2.0064 0
M  V30 9457 C 881.071 -1.53414 1.16111 0
M  V30 9458 O 880.364 -1.90293 0.22341 0
M  V30 9459 C 880.558 -0.765744 3.491 0
M  V30 9460 C 880.387 0.391068 4.47996 0
M  V30 9461 C 879.157 0.875151 4.97664 0
M  V30 9462 C 881.355 1.22786 4.99428 0
M  V30 9463 N 879.337 2.00133 5.80362 0
M  V30 9464 C 880.708 2.20192 5.79582 0
M  V30 9465 C 882.763 1.26109 4.81665 0
M  V30 9466 C 881.466 3.20667 6.43868 0
M  V30 9467 C 883.492 2.2543 5.4675 0
M  V30 9468 C 882.854 3.21568 6.26716 0
M  V30 9469 H 878.953 -0.087345 0.777107 0
M  V30 9470 H 881.537 0.400294 1.90541 0
M  V30 9471 H 879.708 -1.46921 3.5954 0
M  V30 9472 H 881.44 -1.35316 3.81407 0
M  V30 9473 H 878.195 0.454297 4.71416 0
M  V30 9474 H 878.619 2.56806 6.26402 0
M  V30 9475 H 883.261 0.531622 4.19444 0
M  V30 9476 H 880.979 3.94547 7.05236 0
M  V30 9477 H 884.565 2.28744 5.34946 0
M  V30 9478 H 883.445 3.97164 6.76188 0
M  V30 9479 N 880.948 -1.576 0.00335426 0
M  V30 9480 C 881.911 -2.07576 -0.971838 0
M  V30 9481 C 882.911 -0.985796 -1.27038 0
M  V30 9482 O 884.101 -1.24833 -1.21501 0
M  V30 9483 C 881.233 -2.52003 -2.29581 0
M  V30 9484 H 882.426 -2.95008 -0.539481 0
M  V30 9485 H 879.979 -1.54381 -0.244186 0
M  V30 9486 H 880.714 -1.67825 -2.77498 0
M  V30 9487 H 880.499 -3.31609 -2.09231 0
M  V30 9488 H 881.989 -2.90983 -2.99531 0
M  V30 9489 N 882.426 0.269451 -1.5528 0
M  V30 9490 C 883.389 1.31642 -1.87625 0
M  V30 9491 C 884.389 1.42182 -0.751058 0
M  V30 9492 O 885.579 1.41272 -1.01921 0
M  V30 9493 C 882.711 2.6973 -2.08467 0
M  V30 9494 H 883.904 1.0419 -2.81219 0
M  V30 9495 H 881.457 0.507685 -1.47825 0
M  V30 9496 H 882.192 3.02356 -1.17266 0
M  V30 9497 H 881.977 2.63465 -2.90394 0
M  V30 9498 H 883.467 3.4537 -2.34753 0
M  V30 9499 N 883.904 1.48273 0.534124 0
M  V30 9500 C 885.32 1.34302 0.862272 0
M  V30 9501 C 885.52 0.350902 1.98421 0
M  V30 9502 O 884.576 -0.229364 2.51456 0
M  V30 9503 C 885.889 2.74227 1.23371 0
M  V30 9504 C 887.437 2.82684 1.34383 0
M  V30 9505 C 887.912 4.23301 1.74871 0
M  V30 9506 N 889.403 4.25954 1.81981 0
M  V30 9507 C 890.138 5.31693 2.14686 0
M  V30 9508 N 889.634 6.47714 2.45844 0
M  V30 9509 N 891.427 5.19084 2.15657 0
M  V30 9510 H 883.578 2.11397 -0.206215 0
M  V30 9511 H 885.841 0.947537 -0.0296116 0
M  V30 9512 H 885.547 3.48368 0.482967 0
M  V30 9513 H 885.421 3.07485 2.18478 0
M  V30 9514 H 887.808 2.08801 2.08534 0
M  V30 9515 H 887.889 2.5305 0.374063 0
M  V30 9516 H 887.533 4.97699 1.01282 0
M  V30 9517 H 887.463 4.50376 2.7289 0
M  V30 9518 H 889.954 3.42266 1.60196 0
M  V30 9519 H 890.267 7.2414 2.69892 0
M  V30 9520 H 888.612 6.50995 2.43372 0
M  V30 9521 H 891.803 4.27463 1.9077 0
M  V30 9522 H 891.976 6.01592 2.40813 0
M  V30 9523 N 885.382 -0.782676 1.36792 0
M  V30 9524 C 886.345 -1.8772 1.31507 0
M  V30 9525 C 887.345 -1.59269 0.221349 0
M  V30 9526 O 888.535 -1.67555 0.476544 0
M  V30 9527 C 885.667 -3.24641 1.04025 0
M  V30 9528 H 886.86 -1.9382 2.28853 0
M  V30 9529 H 884.413 -0.981226 1.21662 0
M  V30 9530 H 885.148 -3.24221 0.0716439 0
M  V30 9531 H 884.933 -3.46681 1.8318 0
M  V30 9532 H 886.423 -4.04711 1.02949 0
M  V30 9533 N 886.86 -1.21182 -1.00761 0
M  V30 9534 C 887.823 -0.970339 -2.07646 0
M  V30 9535 C 888.823 0.0576345 -1.60697 0
M  V30 9536 O 890.013 -0.179369 -1.73274 0
M  V30 9537 C 887.145 -0.462703 -3.37745 0
M  V30 9538 H 888.338 -1.91856 -2.30502 0
M  V30 9539 H 885.891 -1.02844 -1.17698 0
M  V30 9540 H 886.626 0.490559 -3.20568 0
M  V30 9541 H 886.411 -1.20416 -3.73152 0
M  V30 9542 H 887.901 -0.313531 -4.16421 0
M  V30 9543 N 888.338 1.20213 -1.01915 0
M  V30 9544 C 889.563 1.94163 -0.729076 0
M  V30 9545 C 889.988 1.74416 0.704323 0
M  V30 9546 O 889.346 1.0401 1.48498 0
M  V30 9547 C 889.394 3.44258 -1.07324 0
M  V30 9548 O 888.498 4.11979 -0.186367 0
M  V30 9549 H 887.839 0.606506 -0.270272 0
M  V30 9550 H 890.369 1.52571 -1.3632 0
M  V30 9551 H 890.379 3.94888 -1.02603 0
M  V30 9552 H 889.054 3.57954 -2.11759 0
M  V30 9553 H 887.631 3.7176 -0.291334 0
M  V30 9554 N 889.816 0.795718 1.36037 0
M  V30 9555 C 890.779 0.204318 2.28287 0
M  V30 9556 C 891.779 -0.602017 1.49105 0
M  V30 9557 O 892.969 -0.422089 1.69009 0
M  V30 9558 C 890.101 -0.716431 3.33287 0
M  V30 9559 H 891.294 1.01781 2.821 0
M  V30 9560 H 888.847 0.565588 1.45708 0
M  V30 9561 H 889.582 -1.55403 2.84641 0
M  V30 9562 H 889.367 -0.140096 3.9185 0
M  V30 9563 H 890.857 -1.12488 4.02164 0
M  V30 9564 N 891.294 -1.47756 0.548274 0
M  V30 9565 C 892.705 -1.8636 0.112547 0
M  V30 9566 C 893.056 -1.45589 -1.31523 0
M  V30 9567 O 892.181 -0.854874 -1.98799 0
M  V30 9568 C 892.776 -3.38224 0.197473 0
M  V30 9569 C 891.335 -3.75954 -0.183163 0
M  V30 9570 C 890.482 -2.7181 0.549059 0
M  V30 9571 H 893.433 -1.394 0.758506 0
M  V30 9572 H 893.454 -3.75957 -0.586217 0
M  V30 9573 H 892.966 -3.67868 1.23673 0
M  V30 9574 H 891.067 -3.51926 -1.22387 0
M  V30 9575 H 891.18 -4.78801 0.169178 0
M  V30 9576 H 889.544 -2.54699 -0.00682862 0
M  V30 9577 H 890.327 -3.04296 1.5893 0
M  V30 9578 N 892.772 -0.284283 -1.55015 0
M  V30 9579 C 893.997 0.335799 -2.04664 0
M  V30 9580 C 894.422 1.47999 -1.16094 0
M  V30 9581 O 893.78 1.8058 -0.161454 0
M  V30 9582 C 893.828 0.785615 -3.51938 0
M  V30 9583 O 892.932 1.89202 -3.66437 0
M  V30 9584 H 892.273 0.0680233 -0.660506 0
M  V30 9585 H 894.803 -0.421255 -2.00216 0
M  V30 9586 H 894.813 1.07892 -3.93476 0
M  V30 9587 H 893.488 -0.0514675 -4.15868 0
M  V30 9588 H 892.065 1.60055 -3.36804 0
M  V30 9589 N 894.251 1.57596 -0.0117121 0
M  V30 9590 C 895.5 1.9025 0.669921 0
M  V30 9591 C 895.813 0.887986 1.74282 0
M  V30 9592 O 897.019 1.10516 2.47989 0
M  V30 9593 C 895.475 3.37762 1.24277 0
M  V30 9594 C 895.083 4.47535 0.204076 0
M  V30 9595 C 896.827 3.79509 1.90192 0
M  V30 9596 C 894.734 5.86132 0.787577 0
M  V30 9597 H 893.664 0.709935 0.253984 0
M  V30 9598 H 896.315 1.8335 -0.0741718 0
M  V30 9599 H 894.697 3.39537 2.03791 0
M  V30 9600 H 895.871 4.57294 -0.56733 0
M  V30 9601 H 894.186 4.14881 -0.355305 0
M  V30 9602 H 896.783 4.80402 2.34773 0
M  V30 9603 H 897.126 3.13643 2.7374 0
M  V30 9604 H 897.659 3.80084 1.17394 0
M  V30 9605 H 894.398 6.55499 -0.00938418 0
M  V30 9606 H 893.918 5.80014 1.52787 0
M  V30 9607 H 895.597 6.34158 1.28265 0
M  V30 9608 N 895.729 -0.261212 1.5542 0
M  V30 9609 C 896.659 -1.32712 1.92119 0
M  V30 9610 C 897.64 -1.50934 0.784406 0
M  V30 9611 O 898.825 -1.63781 1.04352 0
M  V30 9612 C 895.955 -2.68453 2.20341 0
M  V30 9613 C 894.909 -2.64947 3.36136 0
M  V30 9614 C 894.235 -4.04349 3.49865 0
M  V30 9615 C 895.535 -2.23182 4.72215 0
M  V30 9616 H 897.229 -1.02245 2.81401 0
M  V30 9617 H 894.775 -0.490406 1.35392 0
M  V30 9618 H 896.728 -3.43144 2.44603 0
M  V30 9619 H 895.452 -3.00527 1.27871 0
M  V30 9620 H 894.111 -1.92714 3.11861 0
M  V30 9621 H 893.759 -4.33665 2.5484 0
M  V30 9622 H 893.459 -4.02895 4.27726 0
M  V30 9623 H 894.983 -4.80761 3.76432 0
M  V30 9624 H 896.397 -2.87599 4.95943 0
M  V30 9625 H 894.794 -2.32867 5.53076 0
M  V30 9626 H 895.864 -1.18327 4.70241 0
M  V30 9627 N 897.207 -1.48554 -0.526253 0
M  V30 9628 C 898.456 -1.56014 -1.27837 0
M  V30 9629 C 898.769 -0.240643 -1.94114 0
M  V30 9630 O 899.975 -0.193525 -2.70809 0
M  V30 9631 C 898.431 -2.75161 -2.31979 0
M  V30 9632 C 898.039 -4.13768 -1.71755 0
M  V30 9633 C 899.783 -2.91936 -3.08178 0
M  V30 9634 C 897.69 -5.24171 -2.7386 0
M  V30 9635 H 896.62 -0.58082 -0.480795 0
M  V30 9636 H 899.271 -1.74895 -0.555335 0
M  V30 9637 H 897.653 -2.49722 -3.07335 0
M  V30 9638 H 898.827 -4.49241 -1.02563 0
M  V30 9639 H 897.142 -4.02141 -1.08036 0
M  V30 9640 H 899.739 -3.71586 -3.84484 0
M  V30 9641 H 900.082 -2.01533 -3.64267 0
M  V30 9642 H 900.615 -3.17294 -2.39937 0
M  V30 9643 H 897.354 -6.16552 -2.22586 0
M  V30 9644 H 896.874 -4.93181 -3.41368 0
M  V30 9645 H 898.553 -5.52442 -3.36774 0
M  V30 9646 N 898.685 0.775411 -1.37205 0
M  V30 9647 C 899.635 1.87867 -1.29189 0
M  V30 9648 C 900.619 1.59885 -0.180466 0
M  V30 9649 O 901.811 1.72077 -0.414536 0
M  V30 9650 C 898.94 3.25285 -1.09748 0
M  V30 9651 C 898.026 3.59231 -2.25419 0
M  V30 9652 N 898.417 3.64386 -3.50795 0
M  V30 9653 C 896.715 3.89375 -2.17492 0
M  V30 9654 C 897.416 3.94974 -4.27048 0
M  V30 9655 N 896.392 4.10684 -3.56146 0
M  V30 9656 H 900.194 1.90099 -2.24142 0
M  V30 9657 H 897.708 0.971667 -1.30125 0
M  V30 9658 H 899.705 4.04207 -1.02091 0
M  V30 9659 H 898.365 3.2432 -0.157083 0
M  V30 9660 H 899.376 3.46682 -3.8475 0
M  V30 9661 H 896.053 3.96254 -1.31489 0
M  V30 9662 H 897.443 4.05768 -5.35539 0
M  V30 9663 N 900.163 1.21714 1.00117 0
M  V30 9664 C 901.41 1.0367 1.73951 0
M  V30 9665 C 901.738 -0.429289 1.89703 0
M  V30 9666 O 900.993 -1.33475 1.43119 0
M  V30 9667 C 901.292 1.68345 3.15269 0
M  V30 9668 C 900.958 3.18214 3.19454 0
M  V30 9669 C 899.62 3.59109 3.20303 0
M  V30 9670 C 901.972 4.14179 3.16394 0
M  V30 9671 C 899.3 4.94467 3.15783 0
M  V30 9672 C 901.652 5.49502 3.13416 0
M  V30 9673 C 900.316 5.8979 3.12577 0
M  V30 9674 H 899.586 0.379355 0.63653 0
M  V30 9675 H 902.233 1.51361 1.17312 0
M  V30 9676 H 900.538 1.12957 3.75164 0
M  V30 9677 H 902.235 1.51882 3.71124 0
M  V30 9678 H 898.825 2.85646 3.19538 0
M  V30 9679 H 903.009 3.83607 3.14895 0
M  V30 9680 H 898.265 5.24923 3.13473 0
M  V30 9681 H 902.439 6.23595 3.10003 0
M  V30 9682 H 900.066 6.94643 3.08829 0
M  V30 9683 N 901.641 -1.19671 1.02551 0
M  V30 9684 C 902.89 -1.88591 0.715272 0
M  V30 9685 C 903.203 -1.80274 -0.758982 0
M  V30 9686 O 904.409 -2.44413 -1.18213 0
M  V30 9687 C 902.865 -3.38264 1.22905 0
M  V30 9688 C 902.473 -3.55146 2.73084 0
M  V30 9689 C 904.217 -4.12683 0.994649 0
M  V30 9690 C 902.124 -4.98693 3.17897 0
M  V30 9691 H 901.054 -0.706326 0.263857 0
M  V30 9692 H 903.705 -1.35322 1.23936 0
M  V30 9693 H 902.087 -3.9091 0.632892 0
M  V30 9694 H 903.261 -3.12845 3.38326 0
M  V30 9695 H 901.576 -2.94112 2.94766 0
M  V30 9696 H 904.173 -5.18536 1.30478 0
M  V30 9697 H 904.516 -4.16243 -0.0686466 0
M  V30 9698 H 905.049 -3.66164 1.55464 0
M  V30 9699 H 901.788 -5.00293 4.23542 0
M  V30 9700 H 901.308 -5.4177 2.57381 0
M  V30 9701 H 902.987 -5.67327 3.11045 0
M  V30 9702 N 903.119 -0.802921 -1.35613 0
M  V30 9703 C 904.067 -0.198783 -2.31749 0
M  V30 9704 C 905.061 0.649416 -1.56458 0
M  V30 9705 O 906.267 0.542989 -1.71615 0
M  V30 9706 H 902.642 -0.0455177 -0.750621 0
M  V30 9707 H 904.613 -1.02479 -2.80251 0
M  V30 9708 C 903.362 0.641066 -3.41739 0
M  V30 9709 H 902.685 -0.00226244 -3.998 0
M  V30 9710 H 904.125 1.03022 -4.11294 0
M  V30 9711 C 902.584 1.80505 -2.84464 0
M  V30 9712 O 903.114 2.90235 -2.77717 0
M  V30 9713 N 901.32 1.61542 -2.41563 0
M  V30 9714 H 900.867 0.722863 -2.4725 0
M  V30 9715 H 900.825 2.39581 -2.03589 0
M  V30 9716 N 904.597 1.47463 -0.556102 0
M  V30 9717 C 905.53 2.26934 0.240027 0
M  V30 9718 C 906.508 1.33981 0.921297 0
M  V30 9719 O 907.692 1.63361 0.940506 0
M  V30 9720 C 904.819 3.10982 1.34194 0
M  V30 9721 C 903.865 4.19504 0.769342 0
M  V30 9722 S 904.698 5.34127 -0.383209 0
M  V30 9723 C 905.854 6.21739 0.720548 0
M  V30 9724 H 906.087 2.9411 -0.434348 0
M  V30 9725 H 903.62 1.50556 -0.342402 0
M  V30 9726 H 905.578 3.59976 1.973 0
M  V30 9727 H 904.239 2.4317 1.98814 0
M  V30 9728 H 903.432 4.78036 1.59679 0
M  V30 9729 H 903.034 3.73385 0.214475 0
M  V30 9730 H 905.326 6.58021 1.61292 0
M  V30 9731 H 906.269 7.0789 0.172602 0
M  V30 9732 H 906.677 5.55342 1.01272 0
M  V30 9733 N 906.075 0.2925 1.54862 0
M  V30 9734 C 907.322 -0.319263 1.99967 0
M  V30 9735 C 907.65 -1.54547 1.18092 0
M  V30 9736 O 906.905 -1.94186 0.242969 0
M  V30 9737 C 907.204 -0.728674 3.49893 0
M  V30 9738 C 906.87 0.394836 4.49168 0
M  V30 9739 C 905.532 0.703289 4.76033 0
M  V30 9740 C 907.884 1.15103 5.08331 0
M  V30 9741 C 905.212 1.77121 5.59325 0
M  V30 9742 C 907.564 2.20881 5.92785 0
M  V30 9743 C 906.228 2.52342 6.17964 0
M  V30 9744 H 905.498 -0.116827 0.731733 0
M  V30 9745 H 908.145 0.40983 1.87063 0
M  V30 9746 H 906.45 -1.53772 3.60363 0
M  V30 9747 H 908.147 -1.21305 3.82212 0
M  V30 9748 H 904.737 0.144319 4.28357 0
M  V30 9749 H 908.921 0.92599 4.87585 0
M  V30 9750 H 904.177 2.01978 5.77074 0
M  V30 9751 H 908.351 2.79939 6.37657 0
M  V30 9752 H 905.978 3.35225 6.82296 0
M  V30 9753 N 907.553 -1.57587 0.0200696 0
M  V30 9754 C 908.483 -2.12702 -0.963333 0
M  V30 9755 C 909.464 -1.04094 -1.34531 0
M  V30 9756 O 910.649 -1.31881 -1.42552 0
M  V30 9757 C 907.779 -2.64673 -2.24868 0
M  V30 9758 C 906.733 -3.77987 -2.00772 0
M  V30 9759 C 906.059 -4.16351 -3.35494 0
M  V30 9760 C 907.359 -5.0444 -1.35416 0
M  V30 9761 H 909.053 -2.95121 -0.504363 0
M  V30 9762 H 906.599 -1.41966 -0.24116 0
M  V30 9763 H 908.552 -3.01862 -2.94036 0
M  V30 9764 H 907.276 -1.79403 -2.72914 0
M  V30 9765 H 905.935 -3.41223 -1.34025 0
M  V30 9766 H 905.583 -3.28075 -3.81282 0
M  V30 9767 H 905.283 -4.92705 -3.20181 0
M  V30 9768 H 906.807 -4.56115 -4.05945 0
M  V30 9769 H 908.221 -5.39273 -1.94571 0
M  V30 9770 H 906.618 -5.85732 -1.30529 0
M  V30 9771 H 907.688 -4.83803 -0.325923 0
M  V30 9772 N 909.032 0.252966 -1.55557 0
M  V30 9773 C 910.279 0.981852 -1.77104 0
M  V30 9774 C 910.607 1.85547 -0.583305 0
M  V30 9775 O 909.862 1.90836 0.43359 0
M  V30 9776 C 910.161 1.87785 -3.04091 0
M  V30 9777 C 909.827 1.16009 -4.35721 0
M  V30 9778 C 908.489 0.961697 -4.71492 0
M  V30 9779 C 910.841 0.650884 -5.1712 0
M  V30 9780 C 908.169 0.241704 -5.86202 0
M  V30 9781 C 910.521 -0.0556124 -6.32576 0
M  V30 9782 C 909.185 -0.265536 -6.66972 0
M  V30 9783 H 908.455 0.359285 -0.64807 0
M  V30 9784 H 911.102 0.252443 -1.89829 0
M  V30 9785 H 909.407 2.67412 -2.86353 0
M  V30 9786 H 911.104 2.44339 -3.17961 0
M  V30 9787 H 907.694 1.32465 -4.07616 0
M  V30 9788 H 911.878 0.791719 -4.89944 0
M  V30 9789 H 907.134 0.0685292 -6.11362 0
M  V30 9790 H 911.308 -0.457839 -6.94893 0
M  V30 9791 H 908.935 -0.8254 -7.55706 0
M  V30 9792 N 910.51 1.48831 0.518367 0
M  V30 9793 C 911.735 1.61379 1.30275 0
M  V30 9794 C 912.16 0.278571 1.86026 0
M  V30 9795 O 911.518 -0.751427 1.64995 0
M  V30 9796 C 911.566 2.67225 2.42122 0
M  V30 9797 O 910.67 2.25192 3.45489 0
M  V30 9798 H 910.011 0.540742 0.385349 0
M  V30 9799 H 912.541 1.949 0.622498 0
M  V30 9800 H 912.551 2.88859 2.8814 0
M  V30 9801 H 911.226 3.64155 2.00907 0
M  V30 9802 H 909.803 2.13819 3.05509 0
M  V30 9803 N 911.988 -0.768124 1.37614 0
M  V30 9804 C 912.938 -1.8718 1.30184 0
M  V30 9805 C 913.922 -1.59787 0.188943 0
M  V30 9806 O 915.114 -1.71855 0.423656 0
M  V30 9807 C 912.243 -3.24698 1.11471 0
M  V30 9808 C 911.329 -3.58031 2.27321 0
M  V30 9809 N 911.72 -3.6252 3.52722 0
M  V30 9810 C 910.018 -3.88216 2.19554 0
M  V30 9811 C 910.719 -3.92704 4.29137 0
M  V30 9812 N 909.695 -4.08789 3.58319 0
M  V30 9813 H 913.497 -1.88907 2.25147 0
M  V30 9814 H 911.011 -0.964753 1.30638 0
M  V30 9815 H 913.008 -4.0366 1.04233 0
M  V30 9816 H 911.668 -3.24232 0.174281 0
M  V30 9817 H 912.679 -3.44636 3.86583 0
M  V30 9818 H 909.356 -3.95551 1.33588 0
M  V30 9819 H 910.746 -4.02922 5.37683 0
M  V30 9820 N 913.466 -1.22244 -0.994698 0
M  V30 9821 C 914.691 -1.07299 -1.77487 0
M  V30 9822 C 915.116 0.372302 -1.84379 0
M  V30 9823 O 914.474 1.2689 -1.29494 0
M  V30 9824 C 914.522 -1.68675 -3.18718 0
M  V30 9825 O 913.626 -0.939202 -4.01563 0
M  V30 9826 H 912.967 -0.376979 -0.546611 0
M  V30 9827 H 915.497 -1.62003 -1.24965 0
M  V30 9828 H 915.507 -1.73324 -3.69354 0
M  V30 9829 H 914.182 -2.73849 -3.13017 0
M  V30 9830 H 912.759 -0.968583 -3.60101 0
M  V30 9831 N 914.944 1.19125 -1.03184 0
M  V30 9832 C 916.355 1.70564 -0.759264 0
M  V30 9833 C 916.706 1.8248 0.720794 0
M  V30 9834 O 915.831 1.49804 1.56166 0
M  V30 9835 C 916.426 3.09793 -1.37163 0
M  V30 9836 C 914.985 3.5848 -1.14757 0
M  V30 9837 C 914.132 2.35265 -1.46784 0
M  V30 9838 H 917.083 1.03925 -1.19939 0
M  V30 9839 H 917.104 3.72624 -0.77015 0
M  V30 9840 H 916.616 3.01088 -2.44882 0
M  V30 9841 H 914.717 3.72494 -0.0887182 0
M  V30 9842 H 914.83 4.42426 -1.83836 0
M  V30 9843 H 913.194 2.38747 -0.887254 0
M  V30 9844 H 913.977 2.29188 -2.55593 0
M  V30 9845 N 916.422 0.810101 1.35185 0
M  V30 9846 C 917.647 0.40364 2.03434 0
M  V30 9847 C 918.072 -0.97857 1.60641 0
M  V30 9848 O 917.43 -1.63435 0.784779 0
M  V30 9849 C 917.478 0.499154 3.57129 0
M  V30 9850 O 916.582 -0.486039 4.09526 0
M  V30 9851 H 915.923 0.168049 0.642383 0
M  V30 9852 H 918.453 1.09696 1.72708 0
M  V30 9853 H 918.463 0.370236 4.06317 0
M  V30 9854 H 917.138 1.50733 3.87624 0
M  V30 9855 H 915.715 -0.31707 3.7155 0
M  V30 9856 N 917.9 -1.47166 0.563914 0
M  V30 9857 C 918.848 -2.31798 -0.193009 0
M  V30 9858 C 919.842 -1.43338 -0.902805 0
M  V30 9859 O 921.048 -1.60067 -0.823328 0
M  V30 9860 H 917.423 -0.747613 -0.0811139 0
M  V30 9861 H 919.394 -2.93476 0.539876 0
M  V30 9862 C 918.143 -3.26131 -1.20555 0
M  V30 9863 H 917.466 -3.94166 -0.668803 0
M  V30 9864 H 918.906 -3.88167 -1.70593 0
M  V30 9865 C 917.365 -2.50132 -2.25689 0
M  V30 9866 O 917.895 -2.25064 -3.3273 0
M  V30 9867 N 916.101 -2.11022 -1.99795 0
M  V30 9868 H 915.648 -2.3161 -1.1276 0
M  V30 9869 H 915.606 -1.60489 -2.70353 0
M  V30 9870 N 919.378 -0.300708 -1.54705 0
M  V30 9871 C 920.794 0.0526874 -1.59513 0
M  V30 9872 C 920.994 1.52444 -1.31769 0
M  V30 9873 O 920.05 2.27716 -1.09096 0
M  V30 9874 C 921.363 -0.344989 -2.98714 0
M  V30 9875 C 922.911 -0.29373 -3.11619 0
M  V30 9876 C 923.386 -0.666225 -4.53129 0
M  V30 9877 N 924.877 -0.618749 -4.59049 0
M  V30 9878 C 925.612 -0.879447 -5.66616 0
M  V30 9879 N 925.108 -1.2061 -6.82221 0
M  V30 9880 N 926.901 -0.806528 -5.56284 0
M  V30 9881 H 919.052 -1.25988 -1.71 0
M  V30 9882 H 921.315 -0.510758 -0.798643 0
M  V30 9883 H 921.021 -1.36953 -3.2394 0
M  V30 9884 H 920.895 0.301507 -3.75993 0
M  V30 9885 H 923.282 0.72156 -2.86142 0
M  V30 9886 H 923.363 -0.974844 -2.36496 0
M  V30 9887 H 923.007 -1.67932 -4.79334 0
M  V30 9888 H 922.937 0.0369575 -5.26587 0
M  V30 9889 H 925.428 -0.377202 -3.76013 0
M  V30 9890 H 925.741 -1.391 -7.60178 0
M  V30 9891 H 924.086 -1.24413 -6.83774 0
M  V30 9892 H 927.277 -0.550993 -4.64846 0
M  V30 9893 H 927.45 -1.01307 -6.40032 0
M  V30 9894 N 920.856 1.57574 -0.0284266 0
M  V30 9895 C 921.786 2.1321 0.952039 0
M  V30 9896 C 922.767 1.04806 1.33977 0
M  V30 9897 O 923.952 1.32635 1.41851 0
M  V30 9898 C 921.082 2.65862 2.23461 0
M  V30 9899 C 920.036 3.79047 1.98765 0
M  V30 9900 C 919.362 4.18124 3.33281 0
M  V30 9901 C 920.662 5.05151 1.32739 0
M  V30 9902 H 922.356 2.95385 0.488705 0
M  V30 9903 H 919.902 1.42092 0.233628 0
M  V30 9904 H 921.855 3.03417 2.92431 0
M  V30 9905 H 920.579 1.80848 2.71959 0
M  V30 9906 H 919.238 3.41929 1.32213 0
M  V30 9907 H 918.886 3.30092 3.79537 0
M  V30 9908 H 918.586 4.94396 3.17563 0
M  V30 9909 H 920.11 4.58262 4.0352 0
M  V30 9910 H 921.524 5.40297 1.91708 0
M  V30 9911 H 919.921 5.86416 1.27421 0
M  V30 9912 H 920.991 4.83969 0.300261 0
M  V30 9913 N 922.334 -0.244713 1.55689 0
M  V30 9914 C 923.264 -1.30667 1.93516 0
M  V30 9915 C 924.245 -1.50094 0.800371 0
M  V30 9916 O 925.43 -1.62665 1.06083 0
M  V30 9917 C 922.56 -2.66101 2.23176 0
M  V30 9918 C 921.514 -2.61366 3.38927 0
M  V30 9919 C 920.84 -4.00616 3.54134 0
M  V30 9920 C 922.14 -2.18161 4.74555 0
M  V30 9921 H 923.834 -0.992546 2.82469 0
M  V30 9922 H 921.38 -0.476018 1.35905 0
M  V30 9923 H 923.333 -3.4053 2.48228 0
M  V30 9924 H 922.057 -2.99154 1.31051 0
M  V30 9925 H 920.716 -1.89395 3.13887 0
M  V30 9926 H 920.364 -4.30938 2.59426 0
M  V30 9927 H 920.064 -3.98335 4.31975 0
M  V30 9928 H 921.588 -4.76741 3.8151 0
M  V30 9929 H 923.002 -2.82323 4.98965 0
M  V30 9930 H 921.399 -2.26988 5.55515 0
M  V30 9931 H 922.469 -1.13333 4.7147 0
M  V30 9932 N 923.813 -1.49104 -0.510467 0
M  V30 9933 C 925.043 -1.61571 -1.28757 0
M  V30 9934 C 925.451 -0.282638 -1.87077 0
M  V30 9935 O 924.794 0.740749 -1.68103 0
M  V30 9936 C 924.856 -2.61851 -2.46322 0
M  V30 9937 C 924.52 -4.06438 -2.08942 0
M  V30 9938 C 925.517 -4.93532 -1.63469 0
M  V30 9939 C 923.202 -4.52109 -2.18867 0
M  V30 9940 C 925.196 -6.24331 -1.28411 0
M  V30 9941 C 922.883 -5.82924 -1.83421 0
M  V30 9942 C 923.881 -6.68858 -1.38267 0
M  V30 9943 O 923.569 -7.97236 -1.03296 0
M  V30 9944 H 923.301 -0.547082 -0.397086 0
M  V30 9945 H 925.855 -1.95806 -0.620424 0
M  V30 9946 H 924.085 -2.22777 -3.16081 0
M  V30 9947 H 925.774 -2.63947 -3.08362 0
M  V30 9948 H 926.54 -4.59479 -1.55255 0
M  V30 9949 H 922.419 -3.85395 -2.52966 0
M  V30 9950 H 925.963 -6.9136 -0.930946 0
M  V30 9951 H 921.86 -6.16507 -1.91282 0
M  V30 9952 H 922.628 -8.10163 -1.16525 0
M  V30 9953 N 925.291 0.760815 -1.38019 0
M  V30 9954 C 926.702 1.33773 -1.30237 0
M  V30 9955 C 927.053 1.96148 0.0451153 0
M  V30 9956 O 926.178 1.94574 0.9471 0
M  V30 9957 C 926.773 2.43227 -2.35851 0
M  V30 9958 C 925.332 2.96659 -2.31669 0
M  V30 9959 C 924.479 1.69972 -2.191 0
M  V30 9960 H 927.43 0.560237 -1.48482 0
M  V30 9961 H 927.451 3.22985 -2.01149 0
M  V30 9962 H 926.963 1.978 -3.33911 0
M  V30 9963 H 925.064 3.46433 -1.37167 0
M  V30 9964 H 925.177 3.51529 -3.25521 0
M  V30 9965 H 923.541 1.9332 -1.65829 0
M  V30 9966 H 924.324 1.26633 -3.19091 0
M  V30 9967 N 926.769 1.22769 0.988202 0
M  V30 9968 C 928.185 0.988665 1.2529 0
M  V30 9969 C 928.385 -0.314938 1.99024 0
M  V30 9970 O 927.441 -1.03637 2.30251 0
M  V30 9971 C 928.754 2.19046 2.06009 0
M  V30 9972 C 930.302 2.23452 2.19176 0
M  V30 9973 C 930.777 3.43196 3.03283 0
M  V30 9974 N 932.268 3.43387 3.10869 0
M  V30 9975 C 933.003 4.32693 3.7625 0
M  V30 9976 N 932.499 5.32224 4.43519 0
M  V30 9977 N 934.292 4.20457 3.73058 0
M  V30 9978 H 926.443 2.06575 0.494014 0
M  V30 9979 H 928.706 0.905452 0.28082 0
M  V30 9980 H 928.412 3.13607 1.59197 0
M  V30 9981 H 928.286 2.19492 3.06763 0
M  V30 9982 H 930.673 1.29436 2.65199 0
M  V30 9983 H 930.754 2.27042 1.17836 0
M  V30 9984 H 930.398 4.37515 2.57959 0
M  V30 9985 H 930.328 3.36847 4.04774 0
M  V30 9986 H 932.819 2.71368 2.62998 0
M  V30 9987 H 933.132 5.9664 4.91163 0
M  V30 9988 H 931.477 5.36133 4.42252 0
M  V30 9989 H 934.668 3.41949 3.19669 0
M  V30 9990 H 934.841 4.90261 4.23731 0
M  V30 9991 N 928.247 -1.18576 1.03814 0
M  V30 9992 C 929.179 -2.21607 0.585055 0
M  V30 9993 C 930.192 -1.59125 -0.343963 0
M  V30 9994 O 931.381 -1.77959 -0.138882 0
M  V30 9995 C 928.481 -3.38495 -0.165602 0
M  V30 9996 C 927.654 -4.30557 0.770662 0
M  V30 9997 C 926.713 -5.26161 0.0637534 0
M  V30 9998 O 925.739 -5.64961 0.693359 0
M  V30 9999 N 926.941 -5.67882 -1.20377 0
M  V30 10000 H 929.706 -2.61104 1.47121 0
M  V30 10001 H 927.267 -1.33336 0.918316 0
M  V30 10002 H 929.259 -3.99474 -0.648292 0
M  V30 10003 H 927.829 -2.97711 -0.953268 0
M  V30 10004 H 927.049 -3.67221 1.43326 0
M  V30 10005 H 928.337 -4.88969 1.40667 0
M  V30 10006 H 927.735 -5.38409 -1.73586 0
M  V30 10007 H 926.292 -6.31069 -1.63079 0
M  V30 10008 N 929.725 -0.817259 -1.34754 0
M  V30 10009 C 930.635 -0.236946 -2.334 0
M  V30 10010 C 931.651 0.625685 -1.62361 0
M  V30 10011 O 932.827 0.534921 -1.94166 0
M  V30 10012 C 929.892 0.596215 -3.41535 0
M  V30 10013 C 928.953 -0.288154 -4.28332 0
M  V30 10014 C 928.186 0.505337 -5.31302 0
M  V30 10015 O 928.409 1.73912 -5.43241 0
M  V30 10016 O 927.343 -0.109374 -6.01801 0
M  V30 10017 H 931.169 -1.05327 -2.84851 0
M  V30 10018 H 928.754 -0.579275 -1.37713 0
M  V30 10019 H 930.636 1.07041 -4.07578 0
M  V30 10020 H 929.311 1.38997 -2.92338 0
M  V30 10021 H 928.218 -0.809724 -3.65232 0
M  V30 10022 H 929.551 -1.04612 -4.80955 0
M  V30 10023 N 931.203 1.46865 -0.571711 0
M  V30 10024 C 932.449 2.0273 -0.0531858 0
M  V30 10025 C 932.782 1.44353 1.29907 0
M  V30 10026 O 932.057 0.604488 1.84868 0
M  V30 10027 C 932.34 3.60092 0.0243831 0
M  V30 10028 C 932.193 4.28874 -1.35599 0
M  V30 10029 C 933.512 4.33994 0.730563 0
M  V30 10030 H 930.631 0.736706 -0.0208018 0
M  V30 10031 H 933.273 1.75132 -0.736794 0
M  V30 10032 H 931.423 3.83736 0.606565 0
M  V30 10033 H 933.095 4.16527 -1.98249 0
M  V30 10034 H 931.338 3.88664 -1.92674 0
M  V30 10035 H 932.009 5.37561 -1.25429 0
M  V30 10036 H 934.485 4.1543 0.236098 0
M  V30 10037 H 933.361 5.43699 0.753836 0
M  V30 10038 H 933.622 4.04257 1.78967 0
M  V30 10039 N 932.681 0.308908 1.54543 0
M  V30 10040 C 933.927 -0.298478 2.00592 0
M  V30 10041 C 934.26 -1.52929 1.19692 0
M  V30 10042 O 933.535 -1.9254 0.27542 0
M  V30 10043 C 933.818 -0.647218 3.54236 0
M  V30 10044 C 933.671 0.593284 4.4587 0
M  V30 10045 C 934.99 -1.47064 4.14801 0
M  V30 10046 H 932.109 -0.107012 0.72919 0
M  V30 10047 H 934.751 0.422578 1.85241 0
M  V30 10048 H 932.901 -1.26153 3.67447 0
M  V30 10049 H 934.573 1.2317 4.44552 0
M  V30 10050 H 932.816 1.22501 4.16144 0
M  V30 10051 H 933.487 0.305018 5.51157 0
M  V30 10052 H 935.963 -0.951511 4.05075 0
M  V30 10053 H 934.839 -1.68343 5.22448 0
M  V30 10054 H 935.1 -2.4623 3.67183 0
M  V30 10055 N 934.159 -1.57557 0.0367827 0
M  V30 10056 C 935.091 -2.07597 -0.971395 0
M  V30 10057 C 936.104 -1.0009 -1.28397 0
M  V30 10058 O 937.293 -1.27692 -1.24728 0
M  V30 10059 C 934.393 -2.492 -2.2968 0
M  V30 10060 C 933.566 -3.79875 -2.16826 0
M  V30 10061 C 932.625 -4.07946 -3.32366 0
M  V30 10062 O 931.651 -4.78083 -3.0891 0
M  V30 10063 N 932.853 -3.58722 -4.56397 0
M  V30 10064 H 935.618 -2.94714 -0.544389 0
M  V30 10065 H 933.179 -1.61205 -0.1498 0
M  V30 10066 H 935.171 -2.65065 -3.05815 0
M  V30 10067 H 933.741 -1.67407 -2.63995 0
M  V30 10068 H 932.961 -3.73732 -1.2537 0
M  V30 10069 H 934.249 -4.65476 -2.0545 0
M  V30 10070 H 933.647 -3.01994 -4.78347 0
M  V30 10071 H 932.204 -3.79852 -5.29675 0
M  V30 10072 N 935.637 0.236453 -1.55816 0
M  V30 10073 C 936.6 1.27633 -1.90375 0
M  V30 10074 C 937.6 1.40557 -0.781048 0
M  V30 10075 O 938.79 1.39078 -1.04895 0
M  V30 10076 C 935.922 2.65247 -2.14142 0
M  V30 10077 H 937.115 0.982019 -2.83366 0
M  V30 10078 H 934.668 0.476215 -1.48869 0
M  V30 10079 H 935.403 2.99801 -1.23653 0
M  V30 10080 H 935.188 2.57246 -2.95917 0
M  V30 10081 H 936.678 3.40313 -2.42026 0
M  V30 10082 N 937.115 1.49373 0.502552 0
M  V30 10083 C 938.343 1.62488 1.28084 0
M  V30 10084 C 938.758 0.295667 1.86471 0
M  V30 10085 O 938.115 -0.718664 1.67754 0
M  V30 10086 C 938.166 2.69249 2.4122 0
M  V30 10087 O 937.887 3.97014 1.85234 0
M  V30 10088 C 939.388 2.93054 3.32617 0
M  V30 10089 H 936.608 0.547068 0.388533 0
M  V30 10090 H 939.152 1.95394 0.603452 0
M  V30 10091 H 937.307 2.39125 3.04792 0
M  V30 10092 H 937.721 4.55809 2.59496 0
M  V30 10093 H 939.195 3.71493 4.08285 0
M  V30 10094 H 939.672 2.02911 3.89517 0
M  V30 10095 H 940.278 3.24589 2.74813 0
M  V30 10096 N 938.594 -0.753485 1.38421 0
M  V30 10097 C 939.524 -1.8808 1.38377 0
M  V30 10098 C 940.505 -1.68258 0.249664 0
M  V30 10099 O 941.69 -1.88848 0.45276 0
M  V30 10100 C 938.82 -3.25608 1.20818 0
M  V30 10101 C 937.774 -3.60032 2.31433 0
M  V30 10102 C 937.1 -4.96297 1.9898 0
M  V30 10103 C 938.4 -3.64898 3.73694 0
M  V30 10104 H 940.094 -1.88375 2.32713 0
M  V30 10105 H 937.64 -0.90489 1.12017 0
M  V30 10106 H 939.593 -4.04127 1.19412 0
M  V30 10107 H 938.317 -3.25793 0.229433 0
M  V30 10108 H 936.976 -2.83831 2.32025 0
M  V30 10109 H 936.624 -4.93043 0.995889 0
M  V30 10110 H 936.324 -5.20298 2.73063 0
M  V30 10111 H 937.848 -5.77196 1.99193 0
M  V30 10112 H 939.262 -4.33531 3.75132 0
M  V30 10113 H 937.659 -4.00407 4.46983 0
M  V30 10114 H 938.729 -2.65124 4.06002 0
M  V30 10115 N 940.072 -1.23292 -0.981677 0
M  V30 10116 C 941.318 -1.06582 -1.72535 0
M  V30 10117 C 941.651 0.396538 -1.90108 0
M  V30 10118 O 940.926 1.29363 -1.45243 0
M  V30 10119 C 941.209 -1.7904 -3.12437 0
M  V30 10120 C 941.062 -3.32941 -3.02441 0
M  V30 10121 C 942.381 -1.55185 -4.11832 0
M  V30 10122 H 939.5 -0.388585 -0.626236 0
M  V30 10123 H 942.142 -1.51779 -1.14293 0
M  V30 10124 H 940.292 -1.40619 -3.62158 0
M  V30 10125 H 941.964 -3.80875 -2.60254 0
M  V30 10126 H 940.207 -3.62039 -2.38977 0
M  V30 10127 H 940.878 -3.78827 -4.0149 0
M  V30 10128 H 943.354 -1.88581 -3.70913 0
M  V30 10129 H 942.23 -2.08362 -5.07815 0
M  V30 10130 H 942.491 -0.486925 -4.3941 0
M  V30 10131 N 941.55 1.18024 -1.04442 0
M  V30 10132 C 942.796 1.88377 -0.751133 0
M  V30 10133 C 943.129 1.80377 0.719571 0
M  V30 10134 O 942.404 1.20662 1.52548 0
M  V30 10135 C 942.687 3.38708 -1.22265 0
M  V30 10136 C 942.54 3.55499 -2.75574 0
M  V30 10137 C 943.859 4.32475 -0.815688 0
M  V30 10138 H 940.978 0.684037 -0.27434 0
M  V30 10139 H 943.62 1.38837 -1.29709 0
M  V30 10140 H 941.77 3.8103 -0.758192 0
M  V30 10141 H 943.442 3.22244 -3.30086 0
M  V30 10142 H 941.685 2.98028 -3.15217 0
M  V30 10143 H 942.356 4.60994 -3.03625 0
M  V30 10144 H 944.832 3.97953 -1.21542 0
M  V30 10145 H 943.708 5.36213 -1.17331 0
M  V30 10146 H 943.969 4.41207 0.280901 0
M  V30 10147 N 943.028 0.824394 1.34319 0
M  V30 10148 C 943.958 0.262077 2.32025 0
M  V30 10149 C 944.939 -0.622277 1.58309 0
M  V30 10150 O 946.124 -0.548848 1.86283 0
M  V30 10151 C 943.254 -0.57567 3.42496 0
M  V30 10152 C 942.208 0.21167 4.27476 0
M  V30 10153 C 941.534 -0.748913 5.29429 0
M  V30 10154 C 942.834 1.42068 5.02607 0
M  V30 10155 H 944.528 1.07842 2.79304 0
M  V30 10156 H 942.074 0.520022 1.34282 0
M  V30 10157 H 944.027 -0.979251 4.09864 0
M  V30 10158 H 942.751 -1.42508 2.93869 0
M  V30 10159 H 941.41 0.596636 3.61712 0
M  V30 10160 H 941.058 -1.59432 4.77064 0
M  V30 10161 H 940.758 -0.226313 5.87164 0
M  V30 10162 H 942.282 -1.15032 5.99667 0
M  V30 10163 H 943.696 1.09103 5.62823 0
M  V30 10164 H 942.093 1.87903 5.69923 0
M  V30 10165 H 943.163 2.1981 4.32217 0
M  V30 10166 N 944.506 -1.46559 0.579492 0
M  V30 10167 C 945.469 -2.28739 -0.145371 0
M  V30 10168 C 946.469 -1.38211 -0.821854 0
M  V30 10169 O 947.659 -1.6062 -0.674302 0
M  V30 10170 C 944.791 -3.18507 -1.21515 0
M  V30 10171 H 945.984 -2.94301 0.576786 0
M  V30 10172 H 943.537 -1.52616 0.337327 0
M  V30 10173 H 944.272 -2.57685 -1.96899 0
M  V30 10174 H 944.057 -3.85157 -0.734616 0
M  V30 10175 H 945.547 -3.80369 -1.72363 0
M  V30 10176 N 945.984 -0.3171 -1.54377 0
M  V30 10177 C 946.914 0.544623 -2.2706 0
M  V30 10178 C 947.895 1.12469 -1.27611 0
M  V30 10179 O 949.08 1.15103 -1.56413 0
M  V30 10180 C 946.21 1.70879 -3.02353 0
M  V30 10181 C 945.164 1.25833 -4.09084 0
M  V30 10182 C 944.49 2.50894 -4.72182 0
M  V30 10183 C 945.79 0.377876 -5.20931 0
M  V30 10184 H 947.484 -0.0616372 -2.99337 0
M  V30 10185 H 945.03 -0.0310848 -1.43966 0
M  V30 10186 H 946.983 2.31787 -3.51927 0
M  V30 10187 H 945.707 2.34155 -2.27682 0
M  V30 10188 H 944.366 0.672228 -3.60384 0
M  V30 10189 H 944.014 3.12518 -3.94134 0
M  V30 10190 H 943.714 2.21447 -5.44275 0
M  V30 10191 H 945.238 3.12575 -5.24528 0
M  V30 10192 H 946.652 0.893056 -5.66302 0
M  V30 10193 H 945.049 0.176474 -5.9984 0
M  V30 10194 H 946.119 -0.592943 -4.81261 0
M  V30 10195 N 947.462 1.57535 -0.0451378 0
M  V30 10196 C 948.425 2.1008 0.916461 0
M  V30 10197 C 949.425 1.01913 1.2438 0
M  V30 10198 O 950.615 1.2801 1.18148 0
M  V30 10199 C 947.747 2.58001 2.22818 0
M  V30 10200 H 948.94 2.96334 0.461076 0
M  V30 10201 H 946.493 1.54974 0.203169 0
M  V30 10202 H 947.228 1.75123 2.72951 0
M  V30 10203 H 947.013 3.3704 2.00366 0
M  V30 10204 H 948.503 2.98822 2.9171 0
M  V30 10205 N 948.94 -0.228186 1.55939 0
M  V30 10206 C 949.873 -1.30971 1.86874 0
M  V30 10207 C 950.851 -1.45517 0.725496 0
M  V30 10208 O 952.035 -1.61436 0.973181 0
M  V30 10209 C 949.162 -2.68089 2.06992 0
M  V30 10210 C 948.208 -2.70594 3.29669 0
M  V30 10211 S 949.041 -2.25325 4.85787 0
M  V30 10212 C 950.197 -3.64331 5.08934 0
M  V30 10213 H 950.43 -1.04536 2.78315 0
M  V30 10214 H 947.963 -0.430103 1.48288 0
M  V30 10215 H 949.921 -3.47033 2.19267 0
M  V30 10216 H 948.582 -2.91752 1.16359 0
M  V30 10217 H 947.775 -3.71338 3.4077 0
M  V30 10218 H 947.377 -1.99708 3.16216 0
M  V30 10219 H 949.669 -4.59972 4.97425 0
M  V30 10220 H 950.612 -3.58151 6.10847 0
M  V30 10221 H 951.02 -3.57711 4.36695 0
M  V30 10222 N 950.418 -1.49637 -0.494624 0
M  V30 10223 C 951.664 -1.59681 -1.25019 0
M  V30 10224 C 951.997 -0.285511 -1.9209 0
M  V30 10225 O 951.272 0.711398 -1.81023 0
M  V30 10226 C 951.555 -2.76058 -2.31222 0
M  V30 10227 C 951.408 -4.17002 -1.68611 0
M  V30 10228 C 952.727 -2.88056 -3.32734 0
M  V30 10229 H 949.846 -0.581209 -0.453172 0
M  V30 10230 H 952.488 -1.81944 -0.547391 0
M  V30 10231 H 950.638 -2.57207 -2.91164 0
M  V30 10232 H 952.31 -4.47385 -1.12447 0
M  V30 10233 H 950.553 -4.22352 -0.989991 0
M  V30 10234 H 951.224 -4.94316 -2.45674 0
M  V30 10235 H 953.7 -3.05237 -2.82789 0
M  V30 10236 H 952.576 -3.71151 -4.04399 0
M  V30 10237 H 952.837 -1.97676 -3.95445 0
M  V30 10238 N 951.896 0.746133 -1.38819 0
M  V30 10239 C 953.307 1.32384 -1.31648 0
M  V30 10240 C 953.658 1.96185 0.0243086 0
M  V30 10241 O 952.783 1.95567 0.92641 0
M  V30 10242 C 953.378 2.40712 -2.38418 0
M  V30 10243 C 951.937 2.94185 -2.34803 0
M  V30 10244 C 951.084 1.67639 -2.20891 0
M  V30 10245 H 954.035 0.544457 -1.49068 0
M  V30 10246 H 954.056 3.20833 -2.04564 0
M  V30 10247 H 953.568 1.94247 -3.3599 0
M  V30 10248 H 951.669 3.44959 -1.40834 0
M  V30 10249 H 951.782 3.48057 -3.29231 0
M  V30 10250 H 950.146 1.9155 -1.67871 0
M  V30 10251 H 950.929 1.23242 -3.20416 0
M  V30 10252 N 953.375 1.23811 0.975125 0
M  V30 10253 C 954.624 1.06741 1.71141 0
M  V30 10254 C 954.937 -0.394986 1.9157 0
M  V30 10255 O 956.143 -0.685723 2.62698 0
M  V30 10256 C 954.599 1.86168 3.08009 0
M  V30 10257 C 954.207 3.36771 2.95448 0
M  V30 10258 C 955.951 1.77604 3.85561 0
M  V30 10259 C 953.858 4.0857 4.2758 0
M  V30 10260 H 952.788 0.395819 0.64175 0
M  V30 10261 H 955.439 1.47825 1.0872 0
M  V30 10262 H 953.821 1.37893 3.71216 0
M  V30 10263 H 954.995 3.92571 2.41298 0
M  V30 10264 H 953.31 3.46205 2.31368 0
M  V30 10265 H 955.907 2.28556 4.83391 0
M  V30 10266 H 956.25 0.739837 4.09673 0
M  V30 10267 H 956.783 2.23519 3.29065 0
M  V30 10268 H 953.522 5.12518 4.08663 0
M  V30 10269 H 953.042 3.57556 4.81574 0
M  V30 10270 H 954.721 4.15157 4.9624 0
M  V30 10271 N 954.853 -1.17469 1.05066 0
M  V30 10272 C 955.783 -2.23635 0.671552 0
M  V30 10273 C 956.764 -1.66867 -0.33006 0
M  V30 10274 O 957.949 -1.93084 -0.207933 0
M  V30 10275 C 955.079 -3.47272 0.0441845 0
M  V30 10276 C 954.033 -4.16854 0.97042 0
M  V30 10277 C 953.359 -5.34299 0.206998 0
M  V30 10278 C 954.659 -4.69225 2.29401 0
M  V30 10279 H 956.353 -2.55602 1.55911 0
M  V30 10280 H 953.899 -1.2286 0.751101 0
M  V30 10281 H 955.852 -4.20756 -0.23282 0
M  V30 10282 H 954.576 -3.14568 -0.878311 0
M  V30 10283 H 953.235 -3.4528 1.23197 0
M  V30 10284 H 952.883 -4.97846 -0.718222 0
M  V30 10285 H 952.583 -5.81792 0.82416 0
M  V30 10286 H 954.107 -6.10568 -0.0627525 0
M  V30 10287 H 955.521 -5.34353 2.077 0
M  V30 10288 H 953.918 -5.27291 2.86503 0
M  V30 10289 H 954.988 -3.86102 2.93348 0
M  V30 10290 N 956.331 -0.831506 -1.3388 0
M  V30 10291 C 957.261 -0.274378 -2.31882 0
M  V30 10292 C 958.242 0.613872 -1.58637 0
M  V30 10293 O 959.427 0.538961 -1.86571 0
M  V30 10294 C 956.557 0.557498 -3.42796 0
M  V30 10295 C 955.511 -0.234337 -4.27358 0
M  V30 10296 C 954.837 0.720825 -5.29819 0
M  V30 10297 C 956.137 -1.44732 -5.01847 0
M  V30 10298 H 957.831 -1.09322 -2.78728 0
M  V30 10299 H 955.377 -0.527136 -1.34005 0
M  V30 10300 H 957.33 0.957501 -4.10378 0
M  V30 10301 H 956.054 1.40947 -2.94621 0
M  V30 10302 H 954.713 -0.61581 -3.61391 0
M  V30 10303 H 954.361 1.569 -4.77903 0
M  V30 10304 H 954.061 0.195171 -5.87276 0
M  V30 10305 H 955.585 1.1185 -6.00268 0
M  V30 10306 H 956.999 -1.12087 -5.62236 0
M  V30 10307 H 955.396 -1.90923 -5.68919 0
M  V30 10308 H 956.466 -2.22099 -4.31045 0
M  V30 10309 N 957.809 1.4625 -0.587256 0
M  V30 10310 C 958.739 2.33132 0.131076 0
M  V30 10311 C 959.72 1.45619 0.879158 0
M  V30 10312 O 960.905 1.74428 0.853723 0
M  V30 10313 C 958.035 3.27975 1.14236 0
M  V30 10314 C 956.989 4.24965 0.508819 0
M  V30 10315 C 956.315 5.09349 1.62689 0
M  V30 10316 C 957.615 5.19322 -0.55694 0
M  V30 10317 H 959.309 2.93442 -0.594333 0
M  V30 10318 H 956.855 1.41106 -0.287263 0
M  V30 10319 H 958.808 3.87614 1.65328 0
M  V30 10320 H 957.532 2.65781 1.8981 0
M  V30 10321 H 956.191 3.66595 0.0189337 0
M  V30 10322 H 955.839 4.43537 2.37242 0
M  V30 10323 H 955.539 5.75036 1.20861 0
M  V30 10324 H 957.063 5.71852 2.14049 0
M  V30 10325 H 958.477 5.73151 -0.130903 0
M  V30 10326 H 956.874 5.93376 -0.895801 0
M  V30 10327 H 957.944 4.62979 -1.44148 0
M  V30 10328 N 959.287 0.325282 1.54207 0
M  V30 10329 C 960.535 -0.276229 2.00203 0
M  V30 10330 C 960.856 -1.52519 1.21503 0
M  V30 10331 O 960.126 -1.93313 0.317302 0
M  V30 10332 H 958.706 -0.105059 0.739575 0
M  V30 10333 H 961.368 0.442225 1.89817 0
M  V30 10334 H 960.464 -0.531427 3.07542 0
M  V30 10335 N 960.765 -1.57509 0.0534917 0
M  V30 10336 C 961.993 -1.97098 -0.629298 0
M  V30 10337 C 962.408 -0.931128 -1.64242 0
M  V30 10338 O 961.765 0.0843866 -1.82305 0
M  V30 10339 C 961.816 -3.36767 -1.31415 0
M  V30 10340 O 961.537 -4.36766 -0.341599 0
M  V30 10341 C 963.038 -3.91127 -2.08649 0
M  V30 10342 H 960.258 -0.648611 -0.171886 0
M  V30 10343 H 962.802 -2.04145 0.120479 0
M  V30 10344 H 960.957 -3.30863 -2.01515 0
M  V30 10345 H 961.371 -5.1788 -0.830715 0
M  V30 10346 H 962.845 -4.91129 -2.51985 0
M  V30 10347 H 963.322 -3.26679 -2.9356 0
M  V30 10348 H 963.928 -4.00376 -1.43456 0
M  V30 10349 N 962.243 0.219913 -1.56058 0
M  V30 10350 C 963.654 0.786766 -1.69313 0
M  V30 10351 C 964.005 1.84916 -0.655782 0
M  V30 10352 O 963.13 2.1554 0.192772 0
M  V30 10353 C 963.725 1.43387 -3.06962 0
M  V30 10354 C 962.284 1.94809 -3.22066 0
M  V30 10355 C 961.431 0.808863 -2.65241 0
M  V30 10356 H 964.382 -0.00476777 -1.58699 0
M  V30 10357 H 964.403 2.30272 -3.02911 0
M  V30 10358 H 963.915 0.660405 -3.8244 0
M  V30 10359 H 962.016 2.74952 -2.5146 0
M  V30 10360 H 962.129 2.12694 -4.293 0
M  V30 10361 H 960.493 1.21661 -2.23765 0
M  V30 10362 H 961.276 0.0480458 -3.43266 0
M  V30 10363 N 963.721 1.49897 0.486681 0
M  V30 10364 C 964.651 1.7054 1.59494 0
M  V30 10365 C 965.632 0.554184 1.60819 0
M  V30 10366 O 966.817 0.791617 1.77333 0
M  V30 10367 C 963.947 1.78517 2.97908 0
M  V30 10368 C 962.901 2.93571 3.11449 0
M  V30 10369 C 962.227 2.86674 4.51356 0
M  V30 10370 C 963.527 4.34308 2.90127 0
M  V30 10371 H 965.221 2.63329 1.42472 0
M  V30 10372 H 962.767 1.2672 0.683969 0
M  V30 10373 H 964.72 1.91544 3.75352 0
M  V30 10374 H 963.444 0.823381 3.16051 0
M  V30 10375 H 962.103 2.80169 2.36433 0
M  V30 10376 H 961.751 1.88373 4.66395 0
M  V30 10377 H 961.451 3.63903 4.61355 0
M  V30 10378 H 962.975 3.01728 5.30841 0
M  V30 10379 H 964.389 4.48317 3.57331 0
M  V30 10380 H 962.786 5.12869 3.11585 0
M  V30 10381 H 963.856 4.47759 1.86119 0
M  V30 10382 N 965.199 -0.738761 1.39212 0
M  V30 10383 C 966.149 -1.84376 1.34125 0
M  V30 10384 C 967.133 -1.5935 0.222793 0
M  V30 10385 O 968.325 -1.70918 0.460014 0
M  V30 10386 C 965.454 -3.22261 1.18334 0
M  V30 10387 C 964.54 -3.53129 2.34864 0
M  V30 10388 N 964.931 -3.54957 3.60332 0
M  V30 10389 C 963.229 -3.83472 2.27739 0
M  V30 10390 C 963.93 -3.83513 4.3737 0
M  V30 10391 N 962.906 -4.01097 3.66909 0
M  V30 10392 H 966.708 -1.84089 2.29104 0
M  V30 10393 H 964.222 -0.936826 1.32655 0
M  V30 10394 H 966.219 -4.01358 1.12772 0
M  V30 10395 H 964.879 -3.23789 0.243016 0
M  V30 10396 H 965.89 -3.36359 3.93806 0
M  V30 10397 H 962.567 -3.92628 1.41949 0
M  V30 10398 H 963.957 -3.91427 5.46109 0
M  V30 10399 N 966.677 -1.24326 -0.968545 0
M  V30 10400 C 967.607 -1.05951 -2.08079 0
M  V30 10401 C 968.588 0.0272666 -1.70078 0
M  V30 10402 O 969.773 -0.139644 -1.93697 0
M  V30 10403 C 966.903 -0.662623 -3.4092 0
M  V30 10404 C 965.857 -1.69807 -3.92873 0
M  V30 10405 C 965.183 -1.15628 -5.22048 0
M  V30 10406 C 966.483 -3.09383 -4.20808 0
M  V30 10407 H 968.177 -1.98984 -2.23709 0
M  V30 10408 H 965.723 -0.958112 -1.075 0
M  V30 10409 H 967.676 -0.521071 -4.18166 0
M  V30 10410 H 966.4 0.303399 -3.25188 0
M  V30 10411 H 965.059 -1.82783 -3.17783 0
M  V30 10412 H 964.707 -0.180888 -5.02675 0
M  V30 10413 H 964.407 -1.84822 -5.57776 0
M  V30 10414 H 965.931 -1.02683 -6.01904 0
M  V30 10415 H 967.345 -2.99642 -4.88761 0
M  V30 10416 H 965.742 -3.75923 -4.67763 0
M  V30 10417 H 966.812 -3.57486 -3.27616 0
M  V30 10418 N 968.156 1.1691 -1.05688 0
M  V30 10419 C 969.086 2.23275 -0.683402 0
M  V30 10420 C 970.067 1.6704 0.321206 0
M  V30 10421 O 971.252 1.93191 0.197691 0
M  V30 10422 C 968.382 3.47244 -0.0626006 0
M  V30 10423 C 967.336 4.16333 -0.992513 0
M  V30 10424 C 966.662 5.34182 -0.23533 0
M  V30 10425 C 967.962 4.68002 -2.31886 0
M  V30 10426 H 969.656 2.54771 -1.57264 0
M  V30 10427 H 967.202 1.2246 -0.757606 0
M  V30 10428 H 969.155 4.20874 0.210503 0
M  V30 10429 H 967.879 3.1503 0.861616 0
M  V30 10430 H 966.538 3.44622 -1.25026 0
M  V30 10431 H 966.186 4.9822 0.69181 0
M  V30 10432 H 965.886 5.81346 -0.855002 0
M  V30 10433 H 967.41 6.10592 0.0303717 0
M  V30 10434 H 968.824 5.33244 -2.10531 0
M  V30 10435 H 967.221 5.25764 -2.89296 0
M  V30 10436 H 968.291 3.84541 -2.95391 0
M  V30 10437 N 969.634 0.838594 1.33437 0
M  V30 10438 C 970.584 0.243681 2.26694 0
M  V30 10439 C 971.568 -0.601168 1.49247 0
M  V30 10440 O 972.76 -0.453181 1.711 0
M  V30 10441 C 969.889 -0.580525 3.38356 0
M  V30 10442 C 968.975 0.275819 4.23202 0
M  V30 10443 N 969.366 1.3544 4.87329 0
M  V30 10444 C 967.664 0.0628047 4.45956 0
M  V30 10445 C 968.365 1.87991 5.50486 0
M  V30 10446 N 967.341 1.18143 5.30607 0
M  V30 10447 H 971.143 1.06849 2.73789 0
M  V30 10448 H 968.657 0.683019 1.47338 0
M  V30 10449 H 970.654 -1.02301 4.04153 0
M  V30 10450 H 969.314 -1.40331 2.92809 0
M  V30 10451 H 970.325 1.73729 4.87892 0
M  V30 10452 H 967.002 -0.726563 4.11129 0
M  V30 10453 H 968.392 2.78312 6.11549 0
M  V30 10454 N 971.112 -1.45937 0.595003 0
M  V30 10455 C 972.528 -1.57507 0.257641 0
M  V30 10456 C 972.728 -1.58829 -1.23998 0
M  V30 10457 O 971.784 -1.51183 -2.02237 0
M  V30 10458 C 973.097 -2.86354 0.917708 0
M  V30 10459 C 974.645 -3.00007 0.892446 0
M  V30 10460 C 975.12 -4.31607 1.53229 0
M  V30 10461 N 976.611 -4.38336 1.49719 0
M  V30 10462 C 977.346 -5.38805 1.96154 0
M  V30 10463 N 976.842 -6.45882 2.50617 0
M  V30 10464 N 978.635 -5.30084 1.86997 0
M  V30 10465 H 970.786 -1.43322 1.56756 0
M  V30 10466 H 973.049 -0.684436 0.655936 0
M  V30 10467 H 972.755 -2.91233 1.97171 0
M  V30 10468 H 972.629 -3.74703 0.433344 0
M  V30 10469 H 975.016 -2.94703 -0.152975 0
M  V30 10470 H 975.097 -2.13103 1.41495 0
M  V30 10471 H 974.741 -4.3767 2.57697 0
M  V30 10472 H 974.671 -5.17308 0.984903 0
M  V30 10473 H 977.162 -3.6156 1.09921 0
M  V30 10474 H 977.475 -7.18774 2.83874 0
M  V30 10475 H 975.82 -6.46668 2.54649 0
M  V30 10476 H 979.011 -4.45337 1.44196 0
M  V30 10477 H 979.184 -6.08237 2.23499 0
M  V30 10478 N 972.59 -0.333456 -1.54032 0
M  V30 10479 C 973.54 0.543745 -2.21421 0
M  V30 10480 C 974.524 1.07396 -1.19812 0
M  V30 10481 O 975.716 1.00934 -1.45401 0
M  V30 10482 C 972.845 1.69925 -2.98296 0
M  V30 10483 C 971.931 1.18345 -4.07253 0
M  V30 10484 N 972.322 0.388098 -5.04309 0
M  V30 10485 C 970.62 1.46128 -4.21382 0
M  V30 10486 C 971.321 0.109383 -5.81597 0
M  V30 10487 N 970.297 0.69825 -5.39097 0
M  V30 10488 H 974.099 -0.0711018 -2.93814 0
M  V30 10489 H 971.613 -0.139807 -1.61797 0
M  V30 10490 H 973.61 2.33954 -3.45067 0
M  V30 10491 H 972.27 2.31747 -2.27428 0
M  V30 10492 H 973.281 0.0300645 -5.17891 0
M  V30 10493 H 969.958 2.08463 -3.61731 0
M  V30 10494 H 971.348 -0.531554 -6.69794 0
M  V30 10495 N 974.068 1.57479 -0.061844 0
M  V30 10496 C 975.484 1.56855 0.294753 0
M  V30 10497 C 975.684 1.07042 1.70717 0
M  V30 10498 O 974.74 0.731817 2.41662 0
M  V30 10499 C 976.053 3.00486 0.113484 0
M  V30 10500 C 977.601 3.1246 0.183778 0
M  V30 10501 C 978.076 4.5799 0.0309092 0
M  V30 10502 N 979.567 4.63119 0.0868393 0
M  V30 10503 C 980.302 5.734 -0.00717446 0
M  V30 10504 N 979.798 6.92628 -0.154144 0
M  V30 10505 N 981.591 5.62078 0.0491763 0
M  V30 10506 H 973.742 1.88176 -0.985058 0
M  V30 10507 H 976.005 0.867051 -0.383309 0
M  V30 10508 H 975.711 3.41004 -0.86075 0
M  V30 10509 H 975.585 3.67029 0.870023 0
M  V30 10510 H 977.972 2.71834 1.14849 0
M  V30 10511 H 978.053 2.48574 -0.603697 0
M  V30 10512 H 977.697 4.99303 -0.930526 0
M  V30 10513 H 977.627 5.19895 0.837664 0
M  V30 10514 H 980.118 3.77374 0.199245 0
M  V30 10515 H 980.431 7.72492 -0.218296 0
M  V30 10516 H 978.776 6.94742 -0.189372 0
M  V30 10517 H 981.967 4.67817 0.162626 0
M  V30 10518 H 982.14 6.47994 -0.0275478 0
M  V30 10519 N 975.546 -0.211634 1.56173 0
M  V30 10520 C 976.962 -0.56177 1.49386 0
M  V30 10521 C 977.162 -1.86666 0.758813 0
M  V30 10522 O 976.218 -2.50681 0.302534 0
M  V30 10523 C 977.531 -0.631815 2.93987 0
M  V30 10524 C 979.079 -0.721773 3.04564 0
M  V30 10525 C 979.554 -0.823075 4.50544 0
M  V30 10526 N 981.045 -0.887038 4.54627 0
M  V30 10527 C 981.78 -0.985304 5.64871 0
M  V30 10528 N 981.276 -1.0469 6.84844 0
M  V30 10529 N 983.069 -1.02121 5.52746 0
M  V30 10530 H 975.22 0.64452 2.02385 0
M  V30 10531 H 977.483 0.227466 0.920306 0
M  V30 10532 H 977.189 0.257592 3.50755 0
M  V30 10533 H 977.063 -1.4921 3.46433 0
M  V30 10534 H 979.45 -1.60162 2.47855 0
M  V30 10535 H 979.531 0.164385 2.55271 0
M  V30 10536 H 979.175 0.0523511 5.07873 0
M  V30 10537 H 979.105 -1.72479 4.97552 0
M  V30 10538 H 981.596 -0.849352 3.68231 0
M  V30 10539 H 981.909 -1.12193 7.64613 0
M  V30 10540 H 980.254 -1.01586 6.87536 0
M  V30 10541 H 983.445 -0.969814 4.57943 0
M  V30 10542 H 983.618 -1.09434 6.38693 0
M  V30 10543 N 977.024 -1.50153 -0.478725 0
M  V30 10544 C 978.44 -1.3741 -0.811833 0
M  V30 10545 C 978.64 -0.424303 -1.96982 0
M  V30 10546 O 977.696 0.13588 -2.52134 0
M  V30 10547 C 979.009 -2.78616 -1.13108 0
M  V30 10548 C 980.557 -2.87477 -1.23798 0
M  V30 10549 C 981.032 -4.295 -1.5904 0
M  V30 10550 N 982.523 -4.32415 -1.66047 0
M  V30 10551 C 983.258 -5.39295 -1.94805 0
M  V30 10552 N 982.754 -6.56392 -2.21635 0
M  V30 10553 N 984.547 -5.26731 -1.96243 0
M  V30 10554 H 976.698 -2.10486 0.284531 0
M  V30 10555 H 978.961 -0.945786 0.0647585 0
M  V30 10556 H 978.667 -3.49921 -0.35334 0
M  V30 10557 H 978.541 -3.15382 -2.06915 0
M  V30 10558 H 980.928 -2.16396 -2.00641 0
M  V30 10559 H 981.009 -2.54264 -0.279888 0
M  V30 10560 H 980.653 -5.01115 -0.827404 0
M  V30 10561 H 980.583 -4.60194 -2.55987 0
M  V30 10562 H 983.074 -3.47975 -1.47383 0
M  V30 10563 H 983.387 -7.33658 -2.4283 0
M  V30 10564 H 981.732 -6.59579 -2.19043 0
M  V30 10565 H 984.923 -4.34249 -1.74773 0
M  V30 10566 H 985.096 -6.10115 -2.1832 0
M  V30 10567 N 978.502 0.731368 -1.39602 0
M  V30 10568 C 979.432 1.85855 -1.41351 0
M  V30 10569 C 980.413 1.67839 -0.2764 0
M  V30 10570 O 981.598 1.88104 -0.482747 0
M  V30 10571 C 978.728 3.23644 -1.25983 0
M  V30 10572 C 977.682 3.56304 -2.37132 0
M  V30 10573 C 977.008 4.93069 -2.0685 0
M  V30 10574 C 978.308 3.58906 -3.79452 0
M  V30 10575 H 980.002 1.84648 -2.3568 0
M  V30 10576 H 977.548 0.886955 -1.13442 0
M  V30 10577 H 979.501 4.02176 -1.25826 0
M  V30 10578 H 978.225 3.25387 -0.281234 0
M  V30 10579 H 976.884 2.80104 -2.36511 0
M  V30 10580 H 976.532 4.91396 -1.0742 0
M  V30 10581 H 976.232 5.15888 -2.81306 0
M  V30 10582 H 977.756 5.73953 -2.0835 0
M  V30 10583 H 979.17 4.27508 -3.81982 0
M  V30 10584 H 977.567 3.93246 -4.53297 0
M  V30 10585 H 978.637 2.58631 -4.10168 0
M  V30 10586 N 979.98 1.24838 0.961938 0
M  V30 10587 C 981.396 1.01502 1.23165 0
M  V30 10588 C 981.596 -0.272651 1.99647 0
M  V30 10589 O 980.652 -0.987297 2.32398 0
M  V30 10590 C 981.965 2.23366 2.01316 0
M  V30 10591 C 983.513 2.28051 2.14387 0
M  V30 10592 C 983.988 3.49552 2.95935 0
M  V30 10593 N 985.479 3.49904 3.03515 0
M  V30 10594 C 986.214 4.40577 3.66987 0
M  V30 10595 N 985.71 5.41512 4.3213 0
M  V30 10596 N 987.503 4.28275 3.64056 0
M  V30 10597 H 979.654 2.07576 0.450086 0
M  V30 10598 H 981.917 0.911205 0.261551 0
M  V30 10599 H 981.623 3.16913 1.5251 0
M  V30 10600 H 981.497 2.25949 3.02038 0
M  V30 10601 H 983.884 1.35032 2.62393 0
M  V30 10602 H 983.965 2.29491 1.12994 0
M  V30 10603 H 983.609 4.42889 2.4862 0
M  V30 10604 H 983.539 3.45357 3.97538 0
M  V30 10605 H 986.03 2.76885 2.57183 0
M  V30 10606 H 986.343 6.06924 4.78396 0
M  V30 10607 H 984.688 5.45393 4.3078 0
M  V30 10608 H 987.879 3.48653 3.12344 0
M  V30 10609 H 988.052 4.99138 4.13237 0
M  V30 10610 N 981.458 -1.16348 1.06306 0
M  V30 10611 C 982.874 -1.38873 0.786543 0
M  V30 10612 C 983.074 -1.91915 -0.614061 0
M  V30 10613 O 982.13 -2.11804 -1.3746 0
M  V30 10614 C 983.443 -2.36936 1.85154 0
M  V30 10615 C 984.991 -2.5062 1.87506 0
M  V30 10616 C 985.466 -3.51965 2.9306 0
M  V30 10617 N 986.957 -3.59492 2.92095 0
M  V30 10618 C 987.692 -4.37699 3.70415 0
M  V30 10619 N 987.188 -5.19327 4.58553 0
M  V30 10620 N 988.981 -4.32683 3.58806 0
M  V30 10621 H 981.132 -0.802542 1.96655 0
M  V30 10622 H 983.395 -0.415304 0.852189 0
M  V30 10623 H 983.101 -2.05056 2.85736 0
M  V30 10624 H 982.975 -3.36585 1.70267 0
M  V30 10625 H 985.362 -2.81804 0.875827 0
M  V30 10626 H 985.443 -1.51006 2.06472 0
M  V30 10627 H 985.087 -3.21518 3.93177 0
M  V30 10628 H 985.017 -4.51309 2.71344 0
M  V30 10629 H 987.508 -3.01222 2.28197 0
M  V30 10630 H 987.821 -5.76216 5.1497 0
M  V30 10631 H 986.166 -5.1867 4.62608 0
M  V30 10632 H 989.357 -3.67971 2.89335 0
M  V30 10633 H 989.53 -4.93386 4.20088 0
M  V30 10634 N 982.937 -0.845659 -1.3299 0
M  V30 10635 C 984.353 -0.53433 -1.5039 0
M  V30 10636 C 984.553 0.936939 -1.78392 0
M  V30 10637 O 983.609 1.72043 -1.84818 0
M  V30 10638 C 984.922 -1.41354 -2.65404 0
M  V30 10639 C 986.47 -1.41303 -2.79289 0
M  V30 10640 C 986.945 -2.27724 -3.97373 0
M  V30 10641 N 988.436 -2.25471 -4.0462 0
M  V30 10642 C 989.171 -2.89074 -4.95201 0
M  V30 10643 N 988.667 -3.61755 -5.90851 0
M  V30 10644 N 990.46 -2.78508 -4.88251 0
M  V30 10645 H 982.611 -1.79798 -1.13078 0
M  V30 10646 H 984.874 -0.767454 -0.556524 0
M  V30 10647 H 984.58 -2.45936 -2.51413 0
M  V30 10648 H 984.454 -1.09445 -3.60973 0
M  V30 10649 H 986.841 -0.374899 -2.92709 0
M  V30 10650 H 986.922 -1.77222 -1.84461 0
M  V30 10651 H 986.566 -3.316 -3.84713 0
M  V30 10652 H 986.496 -1.89142 -4.9146 0
M  V30 10653 H 988.987 -1.72622 -3.3617 0
M  V30 10654 H 989.3 -4.07475 -6.56646 0
M  V30 10655 H 987.645 -3.65863 -5.90906 0
M  V30 10656 H 990.836 -2.21285 -4.12493 0
M  V30 10657 H 991.009 -3.2836 -5.58645 0
M  V30 10658 N 984.415 1.45619 -0.602734 0
M  V30 10659 C 985.826 1.85814 -0.181636 0
M  V30 10660 C 986.177 1.5037 1.26029 0
M  V30 10661 O 985.302 0.928068 1.95489 0
M  V30 10662 C 985.897 3.37258 -0.322866 0
M  V30 10663 C 984.456 3.76375 0.043504 0
M  V30 10664 C 983.603 2.69585 -0.649561 0
M  V30 10665 H 986.554 1.36489 -0.809721 0
M  V30 10666 H 986.575 3.77874 0.446279 0
M  V30 10667 H 986.087 3.63024 -1.37241 0
M  V30 10668 H 984.188 3.56226 1.09241 0
M  V30 10669 H 984.301 4.77843 -0.346765 0
M  V30 10670 H 982.665 2.54549 -0.087706 0
M  V30 10671 H 983.448 2.98188 -1.70115 0
M  V30 10672 N 985.893 0.34162 1.53853 0
M  V30 10673 C 986.856 -0.503541 2.236 0
M  V30 10674 C 987.856 -1.02912 1.23554 0
M  V30 10675 O 989.046 -0.918678 1.48007 0
M  V30 10676 C 986.178 -1.70126 2.95415 0
M  V30 10677 H 987.371 0.106437 2.99711 0
M  V30 10678 H 984.924 0.0929408 1.56023 0
M  V30 10679 H 985.659 -2.34999 2.23486 0
M  V30 10680 H 985.444 -1.33161 3.68796 0
M  V30 10681 H 986.934 -2.30077 3.48503 0
M  V30 10682 N 987.371 -1.57444 0.0701946 0
M  V30 10683 C 988.648 -1.84826 -0.6402 0
M  V30 10684 C 989.028 -0.962344 -1.87889 0
M  V30 10685 O 988.376 -0.0282209 -2.28483 0
M  V30 10686 C 988.586 -3.34976 -0.979382 0
M  V30 10687 C 989.934 -4.02448 -1.35355 0
M  V30 10688 O 990.958 -3.39713 -1.07116 0
M  V30 10689 O 989.817 -5.13096 -1.88136 0
M  V30 10690 H 986.911 -0.763494 -0.317813 0
M  V30 10691 H 989.457 -1.69399 0.101004 0
M  V30 10692 H 988.229 -3.91173 -0.0995576 0
M  V30 10693 H 987.852 -3.5566 -1.7774 0
M  V30 10694 N 988.849 0.203349 -1.56283 0
M  V30 10695 C 990.265 0.55384 -1.49682 0
M  V30 10696 C 990.465 1.86261 -0.768701 0
M  V30 10697 O 989.521 2.50517 -0.315824 0
M  V30 10698 C 990.834 0.616216 -2.94318 0
M  V30 10699 C 992.382 0.705611 -3.04943 0
M  V30 10700 C 992.857 0.79917 -4.50974 0
M  V30 10701 N 994.348 0.862916 -4.55091 0
M  V30 10702 C 995.083 0.955334 -5.65386 0
M  V30 10703 N 994.579 1.01057 -6.8539 0
M  V30 10704 N 996.372 0.991884 -5.53279 0
M  V30 10705 H 988.523 -0.655244 -2.0204 0
M  V30 10706 H 990.786 -0.232344 -0.919087 0
M  V30 10707 H 990.492 -0.27619 -3.50614 0
M  V30 10708 H 990.366 1.47371 -3.4722 0
M  V30 10709 H 992.753 1.58845 -2.48701 0
M  V30 10710 H 992.834 -0.177921 -2.5518 0
M  V30 10711 H 992.478 -0.0792841 -5.07838 0
M  V30 10712 H 992.408 1.69838 -4.9846 0
M  V30 10713 H 994.899 0.829812 -3.68677 0
M  V30 10714 H 995.212 1.08137 -7.65197 0
M  V30 10715 H 993.557 0.979384 -6.88065 0
M  V30 10716 H 996.748 0.945514 -4.58451 0
M  V30 10717 H 996.921 1.06045 -6.39264 0
M  V30 10718 N 990.327 1.50405 0.470755 0
M  V30 10719 C 991.259 1.65447 1.58619 0
M  V30 10720 C 992.272 0.535949 1.53725 0
M  V30 10721 O 993.461 0.80914 1.59107 0
M  V30 10722 C 990.561 1.62318 2.975 0
M  V30 10723 C 989.734 2.90207 3.27259 0
M  V30 10724 C 988.793 2.79717 4.45696 0
M  V30 10725 O 987.819 3.53672 4.45987 0
M  V30 10726 N 989.021 1.93296 5.47373 0
M  V30 10727 H 991.786 2.61659 1.46132 0
M  V30 10728 H 989.347 1.47873 0.659178 0
M  V30 10729 H 991.339 1.52912 3.747 0
M  V30 10730 H 989.909 0.738392 3.03754 0
M  V30 10731 H 989.129 3.13737 2.38669 0
M  V30 10732 H 990.417 3.74931 3.43953 0
M  V30 10733 H 989.815 1.32524 5.49958 0
M  V30 10734 H 988.372 1.89793 6.23556 0
M  V30 10735 N 991.805 -0.723954 1.39988 0
M  V30 10736 C 992.715 -1.86829 1.41887 0
M  V30 10737 C 993.731 -1.71173 0.312401 0
M  V30 10738 O 994.907 -1.93583 0.555651 0
M  V30 10739 C 991.972 -3.22541 1.27154 0
M  V30 10740 C 991.033 -3.50512 2.47871 0
M  V30 10741 C 990.266 -4.79749 2.33831 0
M  V30 10742 O 990.489 -5.54251 1.34765 0
M  V30 10743 O 989.423 -5.07868 3.23039 0
M  V30 10744 H 993.249 -1.88183 2.38371 0
M  V30 10745 H 990.834 -0.873259 1.21221 0
M  V30 10746 H 992.716 -4.0362 1.21114 0
M  V30 10747 H 991.391 -3.21933 0.337715 0
M  V30 10748 H 990.298 -2.69475 2.59488 0
M  V30 10749 H 991.631 -3.55909 3.39985 0
M  V30 10750 N 993.283 -1.25346 -0.955304 0
M  V30 10751 C 994.193 -1.07412 -2.08566 0
M  V30 10752 C 995.209 -0.0114424 -1.73996 0
M  V30 10753 O 996.385 -0.212236 -2.00279 0
M  V30 10754 C 993.45 -0.694141 -3.3968 0
M  V30 10755 C 992.511 -1.83468 -3.88121 0
M  V30 10756 C 991.744 -1.47274 -5.12978 0
M  V30 10757 O 991.967 -0.368086 -5.69211 0
M  V30 10758 O 990.901 -2.30269 -5.56111 0
M  V30 10759 H 994.727 -2.02206 -2.26598 0
M  V30 10760 H 992.312 -1.04279 -1.06988 0
M  V30 10761 H 994.194 -0.494325 -4.18491 0
M  V30 10762 H 992.869 0.224545 -3.2292 0
M  V30 10763 H 991.776 -2.08935 -3.10318 0
M  V30 10764 H 993.109 -2.73258 -4.09379 0
M  V30 10765 N 994.761 1.15782 -1.06922 0
M  V30 10766 C 995.709 2.22441 -0.679893 0
M  V30 10767 C 996.703 1.66591 0.307221 0
M  V30 10768 O 997.909 1.79182 0.171402 0
M  V30 10769 H 994.284 0.724427 -0.201765 0
M  V30 10770 H 996.255 2.52562 -1.58918 0
M  V30 10771 C 995.004 3.47586 -0.0891142 0
M  V30 10772 H 994.327 3.9088 -0.839805 0
M  V30 10773 H 995.767 4.2375 0.14569 0
M  V30 10774 C 994.226 3.15967 1.16903 0
M  V30 10775 O 994.756 3.32359 2.25611 0
M  V30 10776 N 992.962 2.70046 1.07349 0
M  V30 10777 H 992.509 2.56907 0.188825 0
M  V30 10778 H 992.467 2.49264 1.91611 0
M  V30 10779 N 996.239 0.8527 1.3254 0
M  V30 10780 C 997.186 0.293905 2.28921 0
M  V30 10781 C 998.156 -0.598027 1.54961 0
M  V30 10782 O 999.341 -0.533355 1.83194 0
M  V30 10783 C 996.481 -0.513361 3.4126 0
M  V30 10784 C 995.594 0.404144 4.30105 0
M  V30 10785 C 994.729 -0.415564 5.29572 0
M  V30 10786 C 993.768 0.499461 6.10059 0
M  V30 10787 N 992.905 -0.282949 7.0153 0
M  V30 10788 H 997.745 1.12107 2.76109 0
M  V30 10789 H 995.282 0.564272 1.35847 0
M  V30 10790 H 997.24 -0.997008 4.05112 0
M  V30 10791 H 995.87 -1.30537 2.95229 0
M  V30 10792 H 994.922 1.00617 3.66852 0
M  V30 10793 H 996.234 1.10648 4.86373 0
M  V30 10794 H 995.388 -0.962458 5.99017 0
M  V30 10795 H 994.127 -1.15127 4.73917 0
M  V30 10796 H 993.132 1.05825 5.39519 0
M  V30 10797 H 994.357 1.23375 6.67799 0
M  V30 10798 H 992.303 -1.00179 6.48306 0
M  V30 10799 H 992.22 0.36039 7.55141 0
M  V30 10800 H 993.488 -0.811632 7.75263 0
M  V30 10801 N 997.718 -1.45297 0.610449 0
M  V30 10802 C 998.681 -2.28995 -0.0968194 0
M  V30 10803 C 999.681 -1.39923 -0.792353 0
M  V30 10804 O 1000.87 -1.62014 -0.64008 0
M  V30 10805 C 998.003 -3.21013 -1.14731 0
M  V30 10806 H 999.196 -2.93012 0.639082 0
M  V30 10807 H 996.749 -1.51867 0.369624 0
M  V30 10808 H 997.484 -2.61803 -1.91388 0
M  V30 10809 H 997.269 -3.86628 -0.652753 0
M  V30 10810 H 998.759 -3.8394 -1.64256 0
M  V30 10811 N 999.196 -0.349774 -1.5367 0
M  V30 10812 C 1000.44 0.244343 -2.00617 0
M  V30 10813 C 1000.76 1.50567 -1.23914 0
M  V30 10814 O 1000.03 1.92784 -0.348016 0
M  V30 10815 H 998.615 0.0932792 -0.741153 0
M  V30 10816 H 1001.28 -0.472367 -1.89089 0
M  V30 10817 H 1000.37 0.482433 -3.08349 0
M  V30 10818 N 1000.67 1.57404 -0.0785433 0
M  V30 10819 C 1001.6 2.16131 0.883726 0
M  V30 10820 C 1002.58 1.09015 1.30575 0
M  V30 10821 O 1003.77 1.3708 1.37559 0
M  V30 10822 C 1000.9 2.72836 2.1489 0
M  V30 10823 C 999.854 3.85178 1.86605 0
M  V30 10824 C 999.18 4.28516 3.1981 0
M  V30 10825 C 1000.48 5.09118 1.16601 0
M  V30 10826 H 1002.17 2.9679 0.394484 0
M  V30 10827 H 999.72 1.42763 0.188304 0
M  V30 10828 H 1001.67 3.12567 2.8263 0
M  V30 10829 H 1000.4 1.89408 2.66068 0
M  V30 10830 H 999.056 3.45962 1.21268 0
M  V30 10831 H 998.704 3.42 3.68843 0
M  V30 10832 H 998.404 5.04249 3.01674 0
M  V30 10833 H 999.928 4.70868 3.88737 0
M  V30 10834 H 1001.34 5.46123 1.74422 0
M  V30 10835 H 999.739 5.90173 1.087 0
M  V30 10836 H 1000.81 4.8468 0.146138 0
M  V30 10837 N 1002.15 -0.195058 1.56388 0
M  V30 10838 C 1003.08 -1.24444 1.97575 0
M  V30 10839 C 1004.06 -1.47471 0.847717 0
M  V30 10840 O 1005.25 -1.59208 1.11205 0
M  V30 10841 C 1002.38 -2.58866 2.31529 0
M  V30 10842 C 1001.33 -2.50451 3.47071 0
M  V30 10843 C 1000.66 -3.89146 3.667 0
M  V30 10844 C 1001.96 -2.02953 4.81256 0
M  V30 10845 H 1003.65 -0.902178 2.85484 0
M  V30 10846 H 1001.2 -0.43254 1.3735 0
M  V30 10847 H 1003.15 -3.3246 2.58936 0
M  V30 10848 H 1001.87 -2.94833 1.40502 0
M  V30 10849 H 1000.53 -1.79313 3.19754 0
M  V30 10850 H 1000.18 -4.22466 2.73004 0
M  V30 10851 H 999.882 -3.84391 4.44429 0
M  V30 10852 H 1001.41 -4.64363 3.96484 0
M  V30 10853 H 1002.82 -2.66306 5.07695 0
M  V30 10854 H 1001.22 -2.092 5.62455 0
M  V30 10855 H 1002.29 -0.982757 4.74837 0
M  V30 10856 N 1003.63 -1.50653 -0.462772 0
M  V30 10857 C 1004.91 -1.5258 -1.22387 0
M  V30 10858 C 1005.29 -0.275263 -2.09298 0
M  V30 10859 O 1004.63 0.740943 -2.16153 0
M  V30 10860 C 1004.84 -2.82611 -2.04773 0
M  V30 10861 C 1006.19 -3.33592 -2.62681 0
M  V30 10862 O 1007.22 -2.83989 -2.15008 0
M  V30 10863 O 1006.08 -4.20081 -3.49563 0
M  V30 10864 H 1003.17 -0.612367 -0.55582 0
M  V30 10865 H 1005.72 -1.62948 -0.473914 0
M  V30 10866 H 1004.49 -3.65098 -1.40781 0
M  V30 10867 H 1004.11 -2.75286 -2.86886 0
M  V30 10868 N 1005.11 0.71652 -1.4037 0
M  V30 10869 C 1006.04 1.84345 -1.43315 0
M  V30 10870 C 1007.02 1.67537 -0.294186 0
M  V30 10871 O 1008.2 1.87582 -0.502671 0
M  V30 10872 C 1005.33 3.2229 -1.29408 0
M  V30 10873 C 1004.29 3.53769 -2.40897 0
M  V30 10874 C 1003.61 4.90847 -2.12068 0
M  V30 10875 C 1004.91 3.54862 -3.83237 0
M  V30 10876 H 1006.61 1.82138 -2.37626 0
M  V30 10877 H 1004.15 0.874873 -1.14376 0
M  V30 10878 H 1006.11 4.00819 -1.30085 0
M  V30 10879 H 1004.83 3.2507 -0.31573 0
M  V30 10880 H 1003.49 2.77579 -2.39469 0
M  V30 10881 H 1003.14 4.90229 -1.12626 0
M  V30 10882 H 1002.84 5.12875 -2.86762 0
M  V30 10883 H 1004.36 5.71711 -2.14426 0
M  V30 10884 H 1005.78 4.23432 -3.86494 0
M  V30 10885 H 1004.17 3.88416 -4.57442 0
M  V30 10886 H 1005.24 2.54266 -4.12888 0
M  V30 10887 N 1006.59 1.25851 0.948643 0
M  V30 10888 C 1008 1.09975 1.50872 0
M  V30 10889 C 1008.35 -0.322497 1.93531 0
M  V30 10890 O 1007.47 -1.21316 1.79197 0
M  V30 10891 C 1008.07 1.99021 2.74182 0
M  V30 10892 C 1006.63 1.87313 3.26483 0
M  V30 10893 C 1005.77 1.92815 1.99293 0
M  V30 10894 H 1008.73 1.3905 0.764908 0
M  V30 10895 H 1008.75 1.53372 3.4822 0
M  V30 10896 H 1008.26 3.02527 2.43103 0
M  V30 10897 H 1006.36 0.867136 3.62369 0
M  V30 10898 H 1006.47 2.72446 3.94094 0
M  V30 10899 H 1004.84 1.36774 2.1486 0
M  V30 10900 H 1005.62 2.97936 1.70554 0
M  V30 10901 N 1008.06 -1.15214 1.07534 0
M  V30 10902 C 1009.34 -1.82155 0.71267 0
M  V30 10903 C 1009.72 -1.95163 -0.804655 0
M  V30 10904 O 1009.07 -1.50451 -1.71979 0
M  V30 10905 C 1009.28 -3.18392 1.42925 0
M  V30 10906 C 1010.63 -3.94005 1.58256 0
M  V30 10907 O 1011.65 -3.27952 1.39018 0
M  V30 10908 O 1010.51 -5.12436 1.89925 0
M  V30 10909 H 1007.6 -0.78709 0.253808 0
M  V30 10910 H 1010.15 -1.22309 1.17638 0
M  V30 10911 H 1008.92 -3.04034 2.46331 0
M  V30 10912 H 1008.55 -3.85925 0.956439 0
M  V30 10913 N 1009.54 -0.859717 -1.32086 0
M  V30 10914 C 1010.51 -0.313005 -2.27053 0
M  V30 10915 C 1011.51 0.530191 -1.51808 0
M  V30 10916 O 1012.7 0.340972 -1.7083 0
M  V30 10917 C 1009.83 0.5566 -3.36325 0
M  V30 10918 H 1011.02 -1.15125 -2.76923 0
M  V30 10919 H 1008.57 -0.634463 -1.42843 0
M  V30 10920 H 1009.31 1.41645 -2.91731 0
M  V30 10921 H 1009.09 -0.0470197 -3.92072 0
M  V30 10922 H 1010.58 0.931725 -4.07073 0
M  V30 10923 N 1011.02 1.44971 -0.618145 0
M  V30 10924 C 1012.25 2.07039 -0.122395 0
M  V30 10925 C 1012.67 1.45793 1.18853 0
M  V30 10926 O 1012.03 0.55453 1.72611 0
M  V30 10927 C 1012.08 3.60599 -0.0073864 0
M  V30 10928 O 1011.18 3.99069 1.04007 0
M  V30 10929 H 1010.52 0.6593 -0.0788615 0
M  V30 10930 H 1013.05 1.86055 -0.851147 0
M  V30 10931 H 1013.06 4.07569 0.187417 0
M  V30 10932 H 1011.74 4.04561 -0.964544 0
M  V30 10933 H 1010.31 3.63753 0.820879 0
M  V30 10934 N 1012.5 0.357919 1.53482 0
M  V30 10935 C 1013.74 -0.23451 2.0144 0
M  V30 10936 C 1014.08 -1.49044 1.24497 0
M  V30 10937 O 1013.35 -1.91566 0.336535 0
M  V30 10938 C 1013.64 -0.534193 3.56116 0
M  V30 10939 C 1013.49 0.734834 4.43757 0
M  V30 10940 C 1014.81 -1.33793 4.1927 0
M  V30 10941 H 1011.93 -0.0837595 0.732225 0
M  V30 10942 H 1014.57 0.481297 1.83803 0
M  V30 10943 H 1012.72 -1.144 3.71275 0
M  V30 10944 H 1014.39 1.37251 4.40409 0
M  V30 10945 H 1012.63 1.35678 4.12036 0
M  V30 10946 H 1013.3 0.48021 5.49907 0
M  V30 10947 H 1015.78 -0.822158 4.07897 0
M  V30 10948 H 1014.66 -1.51636 5.27539 0
M  V30 10949 H 1014.92 -2.34423 3.74831 0
M  V30 10950 N 1013.98 -1.5736 0.0868897 0
M  V30 10951 C 1014.92 -2.14793 -0.892571 0
M  V30 10952 C 1015.92 -1.08866 -1.29787 0
M  V30 10953 O 1017.12 -1.27223 -1.27335 0
M  V30 10954 H 1013.5 -0.686998 -0.305838 0
M  V30 10955 H 1015.47 -2.95927 -0.383393 0
M  V30 10956 C 1014.22 -2.73646 -2.14507 0
M  V30 10957 H 1013.54 -3.54835 -1.84207 0
M  V30 10958 H 1014.98 -3.17409 -2.81118 0
M  V30 10959 C 1013.44 -1.69138 -2.91366 0
M  V30 10960 O 1013.97 -1.12539 -3.85614 0
M  V30 10961 N 1012.18 -1.3982 -2.54752 0
M  V30 10962 H 1011.72 -1.86035 -1.78182 0
M  V30 10963 H 1011.68 -0.701316 -3.06478 0
M  V30 10964 N 1015.45 0.186762 -1.56489 0
M  V30 10965 C 1016.7 0.904063 -1.80752 0
M  V30 10966 C 1017.02 1.83443 -0.661343 0
M  V30 10967 O 1016.29 1.93272 0.319811 0
M  V30 10968 H 1014.87 0.336828 -0.66675 0
M  V30 10969 H 1017.54 0.190275 -1.93969 0
M  V30 10970 H 1016.63 1.49021 -2.74225 0
M  V30 10971 N 1016.93 1.50896 0.454776 0
M  V30 10972 C 1018.18 1.63905 1.20444 0
M  V30 10973 C 1018.53 0.342692 1.89323 0
M  V30 10974 O 1017.83 -0.660465 1.79857 0
M  V30 10975 C 1018.02 2.76839 2.26042 0
M  V30 10976 C 1017.85 4.17332 1.67524 0
M  V30 10977 C 1016.62 4.83512 1.46779 0
M  V30 10978 C 1018.82 5.01022 1.1611 0
M  V30 10979 N 1016.8 6.08171 0.83675 0
M  V30 10980 C 1018.17 6.16538 0.654283 0
M  V30 10981 C 1020.23 4.86677 1.05119 0
M  V30 10982 C 1018.93 7.19284 0.0483821 0
M  V30 10983 C 1020.95 5.89614 0.459211 0
M  V30 10984 C 1020.32 7.0439 -0.0371476 0
M  V30 10985 H 1016.42 0.653802 0.42903 0
M  V30 10986 H 1019 1.88069 0.503783 0
M  V30 10987 H 1017.17 2.54369 2.93515 0
M  V30 10988 H 1018.9 2.7912 2.93043 0
M  V30 10989 H 1015.66 4.41082 1.72464 0
M  V30 10990 H 1016.08 6.7485 0.539176 0
M  V30 10991 H 1020.72 3.98211 1.42085 0
M  V30 10992 H 1018.44 8.07412 -0.333438 0
M  V30 10993 H 1022.03 5.80582 0.376315 0
M  V30 10994 H 1020.91 7.8268 -0.488035 0
M  V30 10995 N 1018.41 -0.709066 1.40748 0
M  V30 10996 C 1019.64 -1.50313 1.42901 0
M  V30 10997 C 1020.06 -1.88072 0.032213 0
M  V30 10998 O 1019.42 -1.53716 -0.96131 0
M  V30 10999 C 1019.47 -2.75074 2.33166 0
M  V30 11000 O 1018.57 -3.72036 1.7794 0
M  V30 11001 H 1017.91 -0.452934 0.485538 0
M  V30 11002 H 1020.44 -0.872712 1.85054 0
M  V30 11003 H 1020.45 -3.23532 2.48578 0
M  V30 11004 H 1019.13 -2.46927 3.34664 0
M  V30 11005 H 1017.7 -3.30911 1.71908 0
M  V30 11006 N 1019.89 -1.26353 -0.941956 0
M  V30 11007 C 1021.11 -1.14731 -1.72776 0
M  V30 11008 C 1021.54 0.293766 -1.85792 0
M  V30 11009 O 1020.9 1.21284 -1.34759 0
M  V30 11010 C 1020.95 -1.82041 -3.11277 0
M  V30 11011 O 1020.05 -1.10867 -3.97218 0
M  V30 11012 H 1019.39 -0.399823 -0.53013 0
M  V30 11013 H 1021.92 -1.67157 -1.17981 0
M  V30 11014 H 1021.93 -1.88834 -3.61671 0
M  V30 11015 H 1020.61 -2.86879 -3.0112 0
M  V30 11016 H 1019.18 -1.12044 -3.55669 0
M  V30 11017 N 1021.37 1.14642 -1.08144 0
M  V30 11018 C 1022.64 1.81774 -0.72232 0
M  V30 11019 C 1023.02 1.95587 0.794294 0
M  V30 11020 O 1022.37 1.51361 1.71178 0
M  V30 11021 C 1022.58 3.1763 -1.44611 0
M  V30 11022 C 1023.93 3.93161 -1.60343 0
M  V30 11023 O 1024.95 3.2721 -1.40755 0
M  V30 11024 O 1023.81 5.11422 -1.9264 0
M  V30 11025 H 1020.91 0.785733 -0.257978 0
M  V30 11026 H 1023.45 1.21683 -1.18285 0
M  V30 11027 H 1022.23 3.02723 -2.4794 0
M  V30 11028 H 1021.85 3.85412 -0.976892 0
M  V30 11029 N 1022.85 0.866709 1.31628 0
M  V30 11030 C 1023.76 0.323408 2.3236 0
M  V30 11031 C 1024.77 -0.564995 1.64572 0
M  V30 11032 O 1025.95 -0.462489 1.96018 0
M  V30 11033 C 1023.01 -0.469045 3.43513 0
M  V30 11034 C 1022.07 0.446928 4.26967 0
M  V30 11035 C 1021.31 -0.307799 5.32812 0
M  V30 11036 O 1021.53 -1.5363 5.49321 0
M  V30 11037 O 1020.46 0.332653 6.0098 0
M  V30 11038 H 1024.29 1.15827 2.80745 0
M  V30 11039 H 1021.87 0.629987 1.35468 0
M  V30 11040 H 1023.76 -0.918405 4.1127 0
M  V30 11041 H 1022.43 -1.28051 2.97296 0
M  V30 11042 H 1021.34 0.944719 3.61975 0
M  V30 11043 H 1022.67 1.2239 4.76741 0
M  V30 11044 N 1024.32 -1.44642 0.625825 0
M  V30 11045 C 1025.23 -2.34451 -0.0836134 0
M  V30 11046 C 1026.25 -1.5231 -0.841289 0
M  V30 11047 O 1027.43 -1.85056 -0.794754 0
M  V30 11048 C 1024.49 -3.30211 -1.05648 0
M  V30 11049 C 1023.55 -4.28259 -0.298759 0
M  V30 11050 C 1022.78 -5.19444 -1.22528 0
M  V30 11051 O 1023.01 -5.14444 -2.46382 0
M  V30 11052 O 1021.94 -5.97668 -0.71247 0
M  V30 11053 H 1025.77 -2.96555 0.654912 0
M  V30 11054 H 1023.35 -1.44327 0.386029 0
M  V30 11055 H 1025.23 -3.8917 -1.61632 0
M  V30 11056 H 1023.91 -2.70648 -1.77571 0
M  V30 11057 H 1022.82 -3.72863 0.304001 0
M  V30 11058 H 1024.15 -4.90728 0.380345 0
M  V30 11059 N 1025.8 -0.366053 -1.5329 0
M  V30 11060 C 1026.75 0.480205 -2.25749 0
M  V30 11061 C 1027.72 1.07713 -1.2644 0
M  V30 11062 O 1028.9 1.10953 -1.55222 0
M  V30 11063 C 1026.04 1.61374 -3.05045 0
M  V30 11064 C 1025.16 1.04194 -4.19246 0
M  V30 11065 C 1024.29 2.14462 -4.85983 0
M  V30 11066 C 1023.33 1.5475 -5.92215 0
M  V30 11067 N 1022.47 2.58852 -6.52641 0
M  V30 11068 H 1027.31 -0.144199 -2.97651 0
M  V30 11069 H 1024.84 -0.0829321 -1.46866 0
M  V30 11070 H 1026.8 2.28144 -3.49294 0
M  V30 11071 H 1025.43 2.2088 -2.35397 0
M  V30 11072 H 1024.48 0.264514 -3.79479 0
M  V30 11073 H 1025.8 0.565379 -4.95585 0
M  V30 11074 H 1024.95 2.89051 -5.33418 0
M  V30 11075 H 1023.69 2.6547 -4.09117 0
M  V30 11076 H 1022.69 0.786759 -5.44142 0
M  V30 11077 H 1023.92 1.04566 -6.71001 0
M  V30 11078 H 1021.87 3.09073 -5.78627 0
M  V30 11079 H 1021.78 2.15884 -7.24521 0
M  V30 11080 H 1023.05 3.33142 -7.04724 0
M  V30 11081 N 1027.28 1.57312 -0.0952337 0
M  V30 11082 C 1028.24 2.12889 0.849161 0
M  V30 11083 C 1029.24 1.05819 1.21075 0
M  V30 11084 O 1030.43 1.31704 1.14016 0
M  V30 11085 C 1027.56 2.6496 2.14498 0
M  V30 11086 H 1028.76 2.97651 0.366566 0
M  V30 11087 H 1026.31 1.55542 0.153762 0
M  V30 11088 H 1027.05 1.83718 2.67242 0
M  V30 11089 H 1026.83 3.43244 1.89542 0
M  V30 11090 H 1028.32 3.07952 2.82056 0
M  V30 11091 N 1028.76 -0.17846 1.56586 0
M  V30 11092 C 1030.01 -0.894464 1.81228 0
M  V30 11093 C 1030.33 -1.83089 0.671062 0
M  V30 11094 O 1029.6 -1.93439 -0.309557 0
M  V30 11095 H 1028.18 -0.333288 0.668527 0
M  V30 11096 H 1030.84 -0.179986 1.94067 0
M  V30 11097 H 1029.93 -1.47565 2.75011 0
M  V30 11098 N 1030.24 -1.51135 -0.446768 0
M  V30 11099 C 1031.48 -1.63013 -1.19461 0
M  V30 11100 C 1031.8 -0.344067 -1.91941 0
M  V30 11101 O 1031.07 0.639666 -1.85162 0
M  V30 11102 H 1029.65 -0.600757 -0.443959 0
M  V30 11103 H 1032.32 -1.88024 -0.513137 0
M  V30 11104 H 1031.41 -2.45322 -1.92933 0
M  V30 11105 N 1031.71 0.701592 -1.41122 0
M  V30 11106 C 1032.64 1.82815 -1.45262 0
M  V30 11107 C 1033.62 1.67215 -0.311939 0
M  V30 11108 O 1034.81 1.87038 -0.522538 0
M  V30 11109 C 1031.94 3.20899 -1.32819 0
M  V30 11110 C 1030.89 3.51194 -2.44636 0
M  V30 11111 C 1030.22 4.8857 -2.17263 0
M  V30 11112 C 1031.52 3.50777 -3.86979 0
M  V30 11113 H 1033.21 1.79608 -2.39544 0
M  V30 11114 H 1030.76 0.862693 -1.15298 0
M  V30 11115 H 1032.71 3.99417 -1.34329 0
M  V30 11116 H 1031.44 3.24717 -0.350191 0
M  V30 11117 H 1030.1 2.75024 -2.42399 0
M  V30 11118 H 1029.74 4.89007 -1.17819 0
M  V30 11119 H 1029.44 5.09805 -2.92186 0
M  V30 11120 H 1030.97 5.69405 -2.20478 0
M  V30 11121 H 1032.38 4.19309 -3.90964 0
M  V30 11122 H 1030.78 3.83542 -4.61536 0
M  V30 11123 H 1031.85 2.49873 -4.15562 0
M  V30 11124 N 1033.19 1.2685 0.935242 0
M  V30 11125 C 1034.47 1.03483 1.65984 0
M  V30 11126 C 1034.85 -0.432859 2.06614 0
M  V30 11127 O 1034.2 -1.4145 1.79455 0
M  V30 11128 C 1034.41 1.98924 2.86758 0
M  V30 11129 C 1035.75 2.2787 3.58274 0
M  V30 11130 O 1036.78 1.96838 2.96873 0
M  V30 11131 O 1035.64 2.80734 4.68882 0
M  V30 11132 H 1032.73 0.393932 0.72715 0
M  V30 11133 H 1035.28 1.38085 0.986445 0
M  V30 11134 H 1034.05 2.9794 2.53668 0
M  V30 11135 H 1033.67 1.64839 3.6182 0
M  V30 11136 N 1034.67 -1.14067 1.0875 0
M  V30 11137 C 1035.95 -1.81389 0.73195 0
M  V30 11138 C 1036.33 -1.96005 -0.78391 0
M  V30 11139 O 1035.68 -1.52267 -1.70373 0
M  V30 11140 C 1035.89 -3.16858 1.46294 0
M  V30 11141 C 1037.23 -3.92305 1.62426 0
M  V30 11142 O 1038.26 -3.26459 1.42488 0
M  V30 11143 O 1037.12 -5.10393 1.9535 0
M  V30 11144 H 1034.21 -0.784354 0.262141 0
M  V30 11145 H 1036.76 -1.21054 1.18929 0
M  V30 11146 H 1035.53 -3.01404 2.49542 0
M  V30 11147 H 1035.15 -3.84889 0.997318 0
M  V30 11148 N 1036.15 -0.873678 -1.31166 0
M  V30 11149 C 1037.06 -0.335726 -2.32185 0
M  V30 11150 C 1038.07 0.556259 -1.64869 0
M  V30 11151 O 1039.25 0.452087 -1.9626 0
M  V30 11152 C 1036.32 0.450822 -3.43756 0
M  V30 11153 C 1035.38 -0.469565 -4.26724 0
M  V30 11154 C 1034.61 0.279538 -5.32967 0
M  V30 11155 O 1034.83 1.50715 -5.50128 0
M  V30 11156 O 1033.77 -0.36452 -6.00795 0
M  V30 11157 H 1037.59 -1.17314 -2.80127 0
M  V30 11158 H 1035.18 -0.637163 -1.35132 0
M  V30 11159 H 1037.06 0.896582 -4.11752 0
M  V30 11160 H 1035.73 1.26472 -2.9797 0
M  V30 11161 H 1034.64 -0.963902 -3.61469 0
M  V30 11162 H 1035.97 -1.24916 -4.76085 0
M  V30 11163 N 1037.63 1.44308 -0.633487 0
M  V30 11164 C 1038.54 2.34492 0.0711787 0
M  V30 11165 C 1039.55 1.52754 0.8332 0
M  V30 11166 O 1040.73 1.85475 0.784929 0
M  V30 11167 C 1037.79 3.30767 1.03895 0
M  V30 11168 C 1036.85 4.28412 0.276043 0
M  V30 11169 C 1036.09 5.20087 1.19772 0
M  V30 11170 O 1036.31 5.15743 2.4365 0
M  V30 11171 O 1035.24 5.98038 0.680764 0
M  V30 11172 H 1039.07 2.96203 -0.67063 0
M  V30 11173 H 1036.66 1.4412 -0.393678 0
M  V30 11174 H 1038.54 3.90021 1.59566 0
M  V30 11175 H 1037.21 2.71586 1.76133 0
M  V30 11176 H 1036.12 3.72696 -0.32377 0
M  V30 11177 H 1037.45 4.9052 -0.406364 0
M  V30 11178 N 1039.1 0.374177 1.53094 0
M  V30 11179 C 1040.01 -0.475935 2.29722 0
M  V30 11180 C 1041.03 -1.085 1.36029 0
M  V30 11181 O 1042.21 -1.09408 1.69091 0
M  V30 11182 C 1039.27 -1.59572 3.07795 0
M  V30 11183 C 1038.33 -1.01332 4.17169 0
M  V30 11184 C 1037.57 -2.07975 4.9151 0
M  V30 11185 O 1037.79 -3.29232 4.65793 0
M  V30 11186 O 1036.72 -1.7055 5.77232 0
M  V30 11187 H 1040.55 0.147877 3.0334 0
M  V30 11188 H 1038.13 0.138312 1.48758 0
M  V30 11189 H 1040.02 -2.24658 3.5652 0
M  V30 11190 H 1038.69 -2.20478 2.37005 0
M  V30 11191 H 1037.6 -0.326133 3.72676 0
M  V30 11192 H 1038.93 -0.4487 4.90151 0
M  V30 11193 N 1040.58 -1.57259 0.103575 0
M  V30 11194 C 1041.55 -2.13337 -0.837859 0
M  V30 11195 C 1042.55 -1.06459 -1.20512 0
M  V30 11196 O 1043.74 -1.32307 -1.13316 0
M  V30 11197 C 1040.87 -2.66093 -2.13089 0
M  V30 11198 H 1042.06 -2.97842 -0.350775 0
M  V30 11199 H 1039.61 -1.55621 -0.145511 0
M  V30 11200 H 1040.35 -1.85133 -2.66264 0
M  V30 11201 H 1040.13 -3.44244 -1.87719 0
M  V30 11202 H 1041.62 -3.09443 -2.80419 0
M  V30 11203 N 1042.06 0.170153 -1.56679 0
M  V30 11204 C 1042.97 1.23057 -1.99735 0
M  V30 11205 C 1043.99 1.48374 -0.908912 0
M  V30 11206 O 1045.16 1.60499 -1.21663 0
M  V30 11207 C 1042.23 2.54944 -2.34956 0
M  V30 11208 C 1041.29 2.3748 -3.57634 0
M  V30 11209 C 1040.52 3.63078 -3.91165 0
M  V30 11210 O 1040.74 4.68304 -3.2565 0
M  V30 11211 O 1039.68 3.57119 -4.8451 0
M  V30 11212 H 1043.5 0.895104 -2.9021 0
M  V30 11213 H 1041.09 0.377109 -1.44562 0
M  V30 11214 H 1042.97 3.32742 -2.58574 0
M  V30 11215 H 1041.65 2.88068 -1.47643 0
M  V30 11216 H 1040.55 1.57709 -3.39232 0
M  V30 11217 H 1041.89 2.0928 -4.45491 0
M  V30 11218 N 1043.54 1.5137 0.438746 0
M  V30 11219 C 1044.47 1.75528 1.53987 0
M  V30 11220 C 1045.45 0.605067 1.58975 0
M  V30 11221 O 1046.63 0.847634 1.74725 0
M  V30 11222 C 1043.76 1.87904 2.92078 0
M  V30 11223 C 1042.72 3.0333 3.01951 0
M  V30 11224 C 1042.04 3.00888 4.42007 0
M  V30 11225 C 1043.34 4.43319 2.76163 0
M  V30 11226 H 1045.04 2.67728 1.34022 0
M  V30 11227 H 1042.58 1.28831 0.643308 0
M  V30 11228 H 1044.54 2.03388 3.69068 0
M  V30 11229 H 1043.26 0.923514 3.13271 0
M  V30 11230 H 1041.92 2.87549 2.274 0
M  V30 11231 H 1041.57 2.03116 4.60166 0
M  V30 11232 H 1041.27 3.78397 4.49544 0
M  V30 11233 H 1042.79 3.18464 5.20973 0
M  V30 11234 H 1044.21 4.59458 3.42887 0
M  V30 11235 H 1042.6 5.22523 2.9511 0
M  V30 11236 H 1043.67 4.53453 1.71779 0
M  V30 11237 N 1045.02 -0.694098 1.41492 0
M  V30 11238 C 1046.26 -1.4563 1.41137 0
M  V30 11239 C 1046.6 -1.94189 0.0208428 0
M  V30 11240 O 1045.87 -1.69628 -0.951655 0
M  V30 11241 C 1046.15 -2.66714 2.41941 0
M  V30 11242 C 1046.01 -2.23912 3.90107 0
M  V30 11243 C 1047.33 -3.68913 2.39981 0
M  V30 11244 H 1044.44 -0.52821 0.513968 0
M  V30 11245 H 1047.09 -0.790437 1.72778 0
M  V30 11246 H 1045.24 -3.23525 2.1509 0
M  V30 11247 H 1046.91 -1.72417 4.27867 0
M  V30 11248 H 1045.15 -1.5568 4.04903 0
M  V30 11249 H 1045.82 -3.108 4.56188 0
M  V30 11250 H 1048.3 -3.21779 2.63813 0
M  V30 11251 H 1047.17 -4.51242 3.12524 0
M  V30 11252 H 1047.44 -4.18711 1.41892 0
M  V30 11253 N 1046.49 -1.27344 -0.928501 0
M  V30 11254 C 1047.91 -1.12361 -1.49103 0
M  V30 11255 C 1048.26 0.291667 -1.9402 0
M  V30 11256 O 1047.38 1.18449 -1.81104 0
M  V30 11257 C 1047.98 -2.03358 -2.70981 0
M  V30 11258 C 1046.54 -1.92483 -3.23461 0
M  V30 11259 C 1045.68 -1.95961 -1.962 0
M  V30 11260 H 1048.63 -1.40249 -0.742689 0
M  V30 11261 H 1048.65 -1.58892 -3.45736 0
M  V30 11262 H 1048.17 -3.06356 -2.38259 0
M  V30 11263 H 1046.27 -0.924676 -3.60944 0
M  V30 11264 H 1046.38 -2.78682 -3.89709 0
M  V30 11265 H 1044.74 -1.40175 -2.12657 0
M  V30 11266 H 1045.53 -3.00612 -1.65793 0
M  V30 11267 N 1047.97 1.13488 -1.09353 0
M  V30 11268 C 1049.2 1.89133 -0.85108 0
M  V30 11269 C 1049.62 1.78542 0.591976 0
M  V30 11270 O 1048.98 1.13243 1.41583 0
M  V30 11271 C 1049.03 3.36736 -1.29001 0
M  V30 11272 O 1048.13 4.09959 -0.447993 0
M  V30 11273 H 1047.47 0.58809 -0.308296 0
M  V30 11274 H 1050 1.43593 -1.45747 0
M  V30 11275 H 1050.01 3.87564 -1.27508 0
M  V30 11276 H 1048.69 3.43762 -2.34095 0
M  V30 11277 H 1047.27 3.69155 -0.52717 0
M  V30 11278 N 1049.45 0.880621 1.30701 0
M  V30 11279 C 1050.36 0.348034 2.32004 0
M  V30 11280 C 1051.38 -0.547508 1.65162 0
M  V30 11281 O 1052.55 -0.441673 1.96497 0
M  V30 11282 C 1049.62 -0.432585 3.43991 0
M  V30 11283 C 1048.68 0.492189 4.26469 0
M  V30 11284 C 1047.91 -0.25127 5.33108 0
M  V30 11285 O 1048.14 -1.47795 5.5092 0
M  V30 11286 O 1047.07 0.396376 6.00593 0
M  V30 11287 H 1050.9 1.18798 2.79501 0
M  V30 11288 H 1048.48 0.64432 1.34792 0
M  V30 11289 H 1050.36 -0.874733 4.12221 0
M  V30 11290 H 1049.04 -1.2489 2.98637 0
M  V30 11291 H 1047.94 0.983058 3.60953 0
M  V30 11292 H 1049.28 1.27439 4.75416 0
M  V30 11293 N 1050.93 -1.4397 0.641131 0
M  V30 11294 C 1052.18 -2.02246 0.14985 0
M  V30 11295 C 1052.51 -1.50387 -1.22871 0
M  V30 11296 O 1051.78 -0.692003 -1.81773 0
M  V30 11297 C 1052.07 -3.59798 0.147449 0
M  V30 11298 C 1051.92 -4.21916 1.55907 0
M  V30 11299 C 1053.24 -4.36985 -0.522667 0
M  V30 11300 H 1050.36 -0.734875 0.0559274 0
M  V30 11301 H 1053 -1.71418 0.819513 0
M  V30 11302 H 1051.15 -3.86193 -0.422789 0
M  V30 11303 H 1052.82 -4.06594 2.17896 0
M  V30 11304 H 1051.06 -3.79028 2.10998 0
M  V30 11305 H 1051.74 -5.30964 1.50934 0
M  V30 11306 H 1054.21 -4.16083 -0.0376226 0
M  V30 11307 H 1053.09 -5.46676 -0.493572 0
M  V30 11308 H 1053.35 -4.12335 -1.59475 0
M  V30 11309 N 1052.41 -0.382291 -1.52893 0
M  V30 11310 C 1053.34 0.447829 -2.29165 0
M  V30 11311 C 1054.32 1.06956 -1.32267 0
M  V30 11312 O 1055.5 1.08365 -1.61154 0
M  V30 11313 C 1052.63 1.57902 -3.09329 0
M  V30 11314 C 1051.59 1.08369 -4.14053 0
M  V30 11315 C 1050.91 2.30641 -4.82399 0
M  V30 11316 C 1052.21 0.156591 -5.22065 0
M  V30 11317 H 1053.91 -0.188541 -2.98806 0
M  V30 11318 H 1051.45 -0.0921179 -1.43705 0
M  V30 11319 H 1053.41 2.16652 -3.61442 0
M  V30 11320 H 1052.13 2.24287 -2.37409 0
M  V30 11321 H 1050.79 0.518772 -3.62911 0
M  V30 11322 H 1050.44 2.9552 -4.07034 0
M  V30 11323 H 1050.14 1.98163 -5.53177 0
M  V30 11324 H 1051.66 2.90047 -5.37313 0
M  V30 11325 H 1053.08 0.652065 -5.6958 0
M  V30 11326 H 1051.47 -0.0780978 -6.00049 0
M  V30 11327 H 1052.54 -0.796529 -4.78313 0
M  V30 11328 N 1053.89 1.57202 -0.111913 0
M  V30 11329 C 1054.82 2.10634 0.877983 0
M  V30 11330 C 1055.8 1.02098 1.26549 0
M  V30 11331 O 1056.98 1.29707 1.36779 0
M  V30 11332 C 1054.11 2.59721 2.174 0
M  V30 11333 C 1053.15 3.80074 1.93509 0
M  V30 11334 S 1053.99 5.22834 1.1578 0
M  V30 11335 C 1055.14 5.75284 2.46576 0
M  V30 11336 H 1055.38 2.94268 0.423483 0
M  V30 11337 H 1052.91 1.54065 0.101721 0
M  V30 11338 H 1054.87 2.88657 2.91868 0
M  V30 11339 H 1053.53 1.76281 2.59969 0
M  V30 11340 H 1052.72 4.12545 2.89522 0
M  V30 11341 H 1052.32 3.51718 1.27164 0
M  V30 11342 H 1054.61 5.84576 3.42457 0
M  V30 11343 H 1055.56 6.73493 2.1866 0
M  V30 11344 H 1055.97 5.03308 2.55619 0
M  V30 11345 N 1055.36 -0.161842 1.56767 0
M  V30 11346 C 1056.31 -1.20506 1.93552 0
M  V30 11347 C 1057.3 -1.39317 0.804952 0
M  V30 11348 O 1058.49 -1.41129 1.06825 0
M  V30 11349 C 1055.62 -2.54227 2.30702 0
M  V30 11350 C 1054.7 -2.3907 3.50295 0
M  V30 11351 N 1055.1 -1.93642 4.67265 0
M  V30 11352 C 1053.39 -2.69868 3.55088 0
M  V30 11353 C 1054.09 -1.91175 5.49388 0
M  V30 11354 N 1053.07 -2.33935 4.90689 0
M  V30 11355 H 1056.87 -0.845687 2.8147 0
M  V30 11356 H 1054.39 -0.370034 1.58128 0
M  V30 11357 H 1056.38 -3.29623 2.55254 0
M  V30 11358 H 1055.04 -2.90959 1.44128 0
M  V30 11359 H 1056.05 -1.63834 4.91303 0
M  V30 11360 H 1052.73 -3.10574 2.79016 0
M  V30 11361 H 1054.12 -1.57671 6.53138 0
M  V30 11362 N 1056.84 -1.516 -0.430713 0
M  V30 11363 C 1057.77 -1.69594 -1.54177 0
M  V30 11364 C 1058.79 -0.576518 -1.5225 0
M  V30 11365 O 1059.98 -0.85104 -1.56906 0
M  V30 11366 C 1057.08 -1.70148 -2.93092 0
M  V30 11367 C 1056.25 -2.98782 -3.1945 0
M  V30 11368 C 1055.31 -2.91435 -4.38123 0
M  V30 11369 O 1054.33 -3.65372 -4.36454 0
M  V30 11370 N 1055.54 -2.0774 -5.42056 0
M  V30 11371 H 1058.3 -2.65442 -1.39143 0
M  V30 11372 H 1055.86 -1.49569 -0.61974 0
M  V30 11373 H 1057.85 -1.62793 -3.70514 0
M  V30 11374 H 1056.42 -0.818667 -3.0169 0
M  V30 11375 H 1055.64 -3.19954 -2.30267 0
M  V30 11376 H 1056.93 -3.83919 -3.33892 0
M  V30 11377 H 1056.33 -1.47059 -5.46251 0
M  V30 11378 H 1054.89 -2.06259 -6.18305 0
M  V30 11379 N 1058.32 0.686584 -1.41858 0
M  V30 11380 C 1059.28 1.78214 -1.44126 0
M  V30 11381 C 1060.28 1.57366 -0.330541 0
M  V30 11382 O 1061.47 1.63874 -0.590837 0
M  V30 11383 C 1058.6 3.16704 -1.26142 0
M  V30 11384 H 1059.8 1.77594 -2.41661 0
M  V30 11385 H 1057.35 0.895085 -1.28132 0
M  V30 11386 H 1058.09 3.22957 -0.294823 0
M  V30 11387 H 1057.87 3.33238 -2.06627 0
M  V30 11388 H 1059.36 3.96658 -1.30584 0
M  V30 11389 N 1059.8 1.27835 0.921735 0
M  V30 11390 C 1061.05 1.13904 1.6646 0
M  V30 11391 C 1061.36 -0.313379 1.93073 0
M  V30 11392 O 1062.57 -0.573687 2.6537 0
M  V30 11393 C 1061.02 1.99064 2.99836 0
M  V30 11394 C 1060.63 3.48998 2.80899 0
M  V30 11395 C 1062.37 1.93797 3.77681 0
M  V30 11396 C 1060.28 4.26337 4.09867 0
M  V30 11397 H 1059.21 0.422681 0.624385 0
M  V30 11398 H 1061.86 1.52303 1.02352 0
M  V30 11399 H 1060.24 1.53514 3.65034 0
M  V30 11400 H 1061.42 4.02452 2.24431 0
M  V30 11401 H 1059.73 3.55707 2.16476 0
M  V30 11402 H 1062.33 2.48852 4.73262 0
M  V30 11403 H 1062.67 0.912928 4.06167 0
M  V30 11404 H 1063.21 2.37275 3.19289 0
M  V30 11405 H 1059.94 5.2939 3.86557 0
M  V30 11406 H 1059.46 3.77659 4.65976 0
M  V30 11407 H 1061.14 4.3583 4.78185 0
M  V30 11408 N 1061.28 -1.12907 1.09954 0
M  V30 11409 C 1062.23 -2.16558 0.713204 0
M  V30 11410 C 1063.21 -1.5853 -0.27515 0
M  V30 11411 O 1064.4 -1.76797 -0.0846643 0
M  V30 11412 C 1061.53 -3.43009 0.141224 0
M  V30 11413 C 1060.62 -4.08032 1.15632 0
M  V30 11414 N 1061.01 -4.48139 2.34531 0
M  V30 11415 C 1059.31 -4.34743 0.995701 0
M  V30 11416 C 1060.01 -4.98885 2.99147 0
M  V30 11417 N 1058.98 -4.9408 2.26684 0
M  V30 11418 H 1062.78 -2.45328 1.61838 0
M  V30 11419 H 1060.3 -1.29759 0.976539 0
M  V30 11420 H 1062.3 -4.16617 -0.153598 0
M  V30 11421 H 1060.96 -3.15711 -0.758729 0
M  V30 11422 H 1061.97 -4.40668 2.72089 0
M  V30 11423 H 1058.64 -4.17227 0.150888 0
M  V30 11424 H 1060.03 -5.3967 4.00257 0
M  V30 11425 N 1062.75 -0.88754 -1.30232 0
M  V30 11426 C 1063.98 -0.522306 -2.00199 0
M  V30 11427 C 1064.4 0.889866 -1.66514 0
M  V30 11428 O 1063.75 1.58558 -0.903639 0
M  V30 11429 C 1063.8 -0.690551 -3.54843 0
M  V30 11430 O 1063.53 -2.04713 -3.8733 0
M  V30 11431 C 1065.03 -0.328649 -4.4208 0
M  V30 11432 H 1062.25 -0.201628 -0.63999 0
M  V30 11433 H 1064.79 -1.19355 -1.66056 0
M  V30 11434 H 1062.95 -0.0666493 -3.87343 0
M  V30 11435 H 1063.36 -2.06762 -4.82027 0
M  V30 11436 H 1064.83 -0.497257 -5.49756 0
M  V30 11437 H 1065.31 0.733502 -4.33032 0
M  V30 11438 H 1065.92 -0.928982 -4.1503 0
M  V30 11439 N 1064.23 1.43628 -0.648757 0
M  V30 11440 C 1065.48 2.01083 -0.157692 0
M  V30 11441 C 1065.79 1.51756 1.23408 0
M  V30 11442 O 1067 2.01455 1.82012 0
M  V30 11443 C 1065.46 3.59157 -0.231118 0
M  V30 11444 C 1065.06 4.17478 -1.6253 0
M  V30 11445 C 1066.81 4.24016 0.202573 0
M  V30 11446 C 1064.72 5.67832 -1.6529 0
M  V30 11447 H 1063.65 0.751977 -0.0551897 0
M  V30 11448 H 1066.3 1.64648 -0.810139 0
M  V30 11449 H 1064.68 3.92972 0.488755 0
M  V30 11450 H 1065.85 3.9517 -2.37017 0
M  V30 11451 H 1064.17 3.64973 -2.00459 0
M  V30 11452 H 1066.76 5.34319 0.20174 0
M  V30 11453 H 1067.11 3.97616 1.23319 0
M  V30 11454 H 1067.64 3.95068 -0.465398 0
M  V30 11455 H 1064.38 5.98994 -2.66246 0
M  V30 11456 H 1063.9 5.92209 -0.951217 0
M  V30 11457 H 1065.58 6.3179 -1.39465 0
M  V30 11458 N 1065.71 0.390394 1.52688 0
M  V30 11459 C 1066.62 -0.451543 2.30213 0
M  V30 11460 C 1067.64 -1.07051 1.37172 0
M  V30 11461 O 1068.81 -1.07609 1.70242 0
M  V30 11462 C 1065.88 -1.56299 3.0947 0
M  V30 11463 C 1064.94 -0.969017 4.18221 0
M  V30 11464 C 1064.17 -2.0275 4.93688 0
M  V30 11465 O 1064.39 -3.24273 4.69258 0
M  V30 11466 O 1063.33 -1.64418 5.79008 0
M  V30 11467 H 1067.15 0.180042 3.03166 0
M  V30 11468 H 1064.74 0.154082 1.48603 0
M  V30 11469 H 1066.62 -2.20864 3.58883 0
M  V30 11470 H 1065.3 -2.17952 2.3933 0
M  V30 11471 H 1064.2 -0.286587 3.73001 0
M  V30 11472 H 1065.54 -0.396687 4.90599 0
M  V30 11473 N 1067.19 -1.57141 0.120249 0
M  V30 11474 C 1068.44 -1.95238 -0.537449 0
M  V30 11475 C 1068.76 -1.00361 -1.66607 0
M  V30 11476 O 1068.02 -0.0277306 -1.9568 0
M  V30 11477 C 1068.32 -3.39745 -1.10941 0
M  V30 11478 C 1067.98 -4.50785 -0.102012 0
M  V30 11479 C 1066.65 -4.80882 0.174994 0
M  V30 11480 C 1069 -5.17913 0.584462 0
M  V30 11481 C 1066.33 -5.75424 1.14474 0
M  V30 11482 C 1068.68 -6.13497 1.54284 0
M  V30 11483 C 1067.34 -6.41987 1.82782 0
M  V30 11484 H 1066.61 -0.714425 -0.196666 0
M  V30 11485 H 1069.26 -1.90438 0.201418 0
M  V30 11486 H 1067.56 -3.41246 -1.92506 0
M  V30 11487 H 1069.26 -3.66536 -1.62642 0
M  V30 11488 H 1065.85 -4.27342 -0.328097 0
M  V30 11489 H 1070.03 -4.94815 0.383625 0
M  V30 11490 H 1065.29 -5.95801 1.37226 0
M  V30 11491 H 1069.46 -6.64598 2.08044 0
M  V30 11492 H 1067.09 -7.15052 2.5808 0
M  V30 11493 N 1068.67 0.153526 -1.5685 0
M  V30 11494 C 1069.91 0.873522 -1.84794 0
M  V30 11495 C 1070.27 1.78642 -0.703648 0
M  V30 11496 O 1071.47 2.54537 -0.863972 0
M  V30 11497 C 1069.74 1.63316 -3.17904 0
M  V30 11498 S 1071.3 2.39948 -3.67383 0
M  V30 11499 H 1068.12 0.292233 -0.648167 0
M  V30 11500 H 1070.72 0.133949 -1.95041 0
M  V30 11501 H 1069.43 0.95387 -3.99161 0
M  V30 11502 H 1068.96 2.41377 -3.10646 0
M  V30 11503 H 1070.97 3.65011 -3.36127 0
M  V30 11504 N 1070.14 1.51827 0.422667 0
M  V30 11505 C 1071.07 1.77152 1.52117 0
M  V30 11506 C 1072.06 0.621895 1.58324 0
M  V30 11507 O 1073.24 0.866118 1.73816 0
M  V30 11508 C 1070.37 1.90991 2.90068 0
M  V30 11509 C 1069.32 3.06516 2.98717 0
M  V30 11510 C 1068.65 3.05559 4.38791 0
M  V30 11511 C 1069.95 4.46223 2.71445 0
M  V30 11512 H 1071.64 2.69135 1.31175 0
M  V30 11513 H 1069.19 1.29507 0.629607 0
M  V30 11514 H 1071.14 2.07291 3.6689 0
M  V30 11515 H 1069.87 0.956688 3.12274 0
M  V30 11516 H 1068.53 2.89945 2.24338 0
M  V30 11517 H 1068.17 2.07985 4.57986 0
M  V30 11518 H 1067.87 3.83144 4.45505 0
M  V30 11519 H 1069.4 3.23971 5.17566 0
M  V30 11520 H 1070.81 4.63069 3.37994 0
M  V30 11521 H 1069.21 5.25623 2.89552 0
M  V30 11522 H 1070.28 4.5525 1.6696 0
M  V30 11523 N 1071.62 -0.679052 1.4222 0
M  V30 11524 C 1072.87 -1.43627 1.42182 0
M  V30 11525 C 1073.19 -1.94964 0.0377095 0
M  V30 11526 O 1072.46 -1.72788 -0.923098 0
M  V30 11527 H 1071.04 -0.532972 0.523402 0
M  V30 11528 H 1073.7 -0.802649 1.77605 0
M  V30 11529 H 1072.8 -2.29137 2.11902 0
M  V30 11530 N 1073.1 -1.28322 -0.914942 0
M  V30 11531 C 1074.34 -1.16657 -1.6784 0
M  V30 11532 C 1074.7 0.280473 -1.8994 0
M  V30 11533 O 1075.91 0.519801 -2.63726 0
M  V30 11534 C 1074.18 -1.94185 -3.00045 0
M  V30 11535 S 1075.74 -1.98881 -3.91141 0
M  V30 11536 H 1072.55 -0.416232 -0.57643 0
M  V30 11537 H 1075.16 -1.62405 -1.08834 0
M  V30 11538 H 1073.86 -2.98488 -2.81661 0
M  V30 11539 H 1073.39 -1.48982 -3.64099 0
M  V30 11540 H 1075.41 -1.09445 -4.8398 0
M  V30 11541 N 1074.58 1.12322 -1.10551 0
M  V30 11542 C 1075.82 1.8413 -0.849932 0
M  V30 11543 C 1076.16 1.83938 0.622946 0
M  V30 11544 O 1075.43 1.28579 1.45937 0
M  V30 11545 C 1075.72 3.31751 -1.40048 0
M  V30 11546 C 1075.57 3.40391 -2.9403 0
M  V30 11547 C 1076.89 4.27543 -1.04379 0
M  V30 11548 H 1074.01 0.668533 -0.310213 0
M  V30 11549 H 1076.65 1.31766 -1.36886 0
M  V30 11550 H 1074.8 3.76475 -0.959102 0
M  V30 11551 H 1076.47 3.04294 -3.46703 0
M  V30 11552 H 1074.71 2.809 -3.30571 0
M  V30 11553 H 1075.38 4.44252 -3.27635 0
M  V30 11554 H 1077.86 3.90951 -1.42466 0
M  V30 11555 H 1076.74 5.2924 -1.4559 0
M  V30 11556 H 1077 4.42075 0.0466316 0
M  V30 11557 N 1076.06 0.894434 1.2976 0
M  V30 11558 C 1077.28 0.5322 2.00455 0
M  V30 11559 C 1077.71 -0.874427 1.66539 0
M  V30 11560 O 1077.06 -1.58113 0.887129 0
M  V30 11561 C 1077.11 0.725264 3.53231 0
M  V30 11562 O 1076.22 -0.224612 4.11788 0
M  V30 11563 H 1075.56 0.208562 0.630395 0
M  V30 11564 H 1078.09 1.20458 1.65382 0
M  V30 11565 H 1078.1 0.627889 4.0314 0
M  V30 11566 H 1076.77 1.75079 3.77253 0
M  V30 11567 H 1075.35 -0.0801361 3.72814 0
M  V30 11568 N 1077.53 -1.43282 0.656365 0
M  V30 11569 C 1078.48 -2.32556 -0.0452037 0
M  V30 11570 C 1079.48 -1.48789 -0.80982 0
M  V30 11571 O 1080.68 -1.64979 -0.719865 0
M  V30 11572 H 1077.06 -0.751258 -0.0334043 0
M  V30 11573 H 1079.03 -2.89448 0.725423 0
M  V30 11574 C 1077.78 -3.33138 -0.995706 0
M  V30 11575 H 1077.1 -3.97622 -0.416774 0
M  V30 11576 H 1078.54 -3.98231 -1.45562 0
M  V30 11577 C 1077 -2.63978 -2.09325 0
M  V30 11578 O 1077.53 -2.45769 -3.17743 0
M  V30 11579 N 1075.74 -2.23301 -1.8597 0
M  V30 11580 H 1075.28 -2.38312 -0.97802 0
M  V30 11581 H 1075.24 -1.77358 -2.59599 0
M  V30 11582 N 1079.01 -0.398486 -1.52479 0
M  V30 11583 C 1080.24 0.180557 -2.06111 0
M  V30 11584 C 1080.66 1.39751 -1.26945 0
M  V30 11585 O 1080.01 1.79699 -0.318497 0
M  V30 11586 C 1080.06 0.541573 -3.5742 0
M  V30 11587 O 1079.79 -0.627043 -4.33589 0
M  V30 11588 C 1081.29 1.17549 -4.27431 0
M  V30 11589 H 1078.51 0.0250754 -0.670531 0
M  V30 11590 H 1081.05 -0.566368 -1.96501 0
M  V30 11591 H 1079.21 1.23839 -3.67073 0
M  V30 11592 H 1079.62 -0.328233 -5.23472 0
M  V30 11593 H 1081.09 1.37839 -5.34513 0
M  V30 11594 H 1081.57 2.14553 -3.83228 0
M  V30 11595 H 1082.18 0.51918 -4.22119 0
M  V30 11596 N 1080.49 1.57075 -0.12858 0
M  V30 11597 C 1081.45 2.14643 0.803813 0
M  V30 11598 C 1082.45 1.08363 1.18803 0
M  V30 11599 O 1083.64 1.34093 1.11197 0
M  V30 11600 C 1080.78 2.6945 2.08829 0
M  V30 11601 H 1081.97 2.98362 0.303347 0
M  V30 11602 H 1079.52 1.55833 0.120735 0
M  V30 11603 H 1080.26 1.89345 2.63285 0
M  V30 11604 H 1080.04 3.47187 1.82218 0
M  V30 11605 H 1081.53 3.13865 2.7546 0
M  V30 11606 N 1081.97 -0.145205 1.5693 0
M  V30 11607 C 1083.19 -0.876386 1.87974 0
M  V30 11608 C 1083.62 -1.73866 0.717795 0
M  V30 11609 O 1082.98 -1.78224 -0.332551 0
M  V30 11610 C 1083.03 -1.70746 3.17613 0
M  V30 11611 O 1082.13 -2.81188 3.01674 0
M  V30 11612 H 1081.47 -0.243987 0.617549 0
M  V30 11613 H 1084 -0.135482 2.04151 0
M  V30 11614 H 1084.01 -2.1021 3.49679 0
M  V30 11615 H 1082.69 -1.07429 4.01786 0
M  V30 11616 H 1081.26 -2.45117 2.81019 0
M  V30 11617 N 1083.45 -1.52049 -0.414609 0
M  V30 11618 C 1084.68 -1.69433 -1.18221 0
M  V30 11619 C 1085.09 -0.40104 -1.84901 0
M  V30 11620 O 1084.43 0.632342 -1.72474 0
M  V30 11621 C 1084.49 -2.76986 -2.2917 0
M  V30 11622 C 1084.15 -4.18903 -1.82671 0
M  V30 11623 C 1085.15 -5.02929 -1.31751 0
M  V30 11624 C 1082.84 -4.65113 -1.89672 0
M  V30 11625 C 1084.83 -6.31234 -0.884461 0
M  V30 11626 C 1082.52 -5.93408 -1.45978 0
M  V30 11627 C 1083.52 -6.76297 -0.9545 0
M  V30 11628 O 1083.2 -8.02191 -0.523852 0
M  V30 11629 H 1082.94 -0.571228 -0.36149 0
M  V30 11630 H 1085.49 -1.99355 -0.494643 0
M  V30 11631 H 1083.72 -2.42428 -3.01273 0
M  V30 11632 H 1085.41 -2.83023 -2.90951 0
M  V30 11633 H 1086.17 -4.68422 -1.2572 0
M  V30 11634 H 1082.05 -4.00702 -2.27945 0
M  V30 11635 H 1085.6 -6.95881 -0.489383 0
M  V30 11636 H 1081.49 -6.27424 -1.51687 0
M  V30 11637 H 1082.26 -8.15934 -0.647656 0
M  V30 11638 N 1084.93 0.6715 -1.42579 0
M  V30 11639 C 1085.86 1.79693 -1.49107 0
M  V30 11640 C 1086.84 1.66516 -0.347338 0
M  V30 11641 O 1088.02 1.85887 -0.562094 0
M  V30 11642 C 1085.15 3.1801 -1.39596 0
M  V30 11643 C 1084.11 3.45926 -2.5203 0
M  V30 11644 C 1083.43 4.83852 -2.27577 0
M  V30 11645 C 1084.73 3.4249 -3.94333 0
M  V30 11646 H 1086.43 1.74486 -2.433 0
M  V30 11647 H 1083.97 0.838042 -1.17102 0
M  V30 11648 H 1085.92 3.96478 -1.42771 0
M  V30 11649 H 1084.65 3.23901 -0.418989 0
M  V30 11650 H 1083.31 2.6982 -2.48178 0
M  V30 11651 H 1082.96 4.86398 -1.28165 0
M  V30 11652 H 1082.66 5.03493 -3.02934 0
M  V30 11653 H 1084.18 5.646 -2.32506 0
M  V30 11654 H 1085.59 4.10922 -3.9977 0
M  V30 11655 H 1083.99 3.73666 -4.69568 0
M  V30 11656 H 1085.06 2.41002 -4.20768 0
M  V30 11657 N 1086.4 1.28806 0.908124 0
M  V30 11658 C 1087.82 1.06634 1.18749 0
M  V30 11659 C 1088.02 -0.187729 2.00624 0
M  V30 11660 O 1087.08 -0.88784 2.36376 0
M  V30 11661 C 1088.39 2.31703 1.91661 0
M  V30 11662 C 1089.94 2.36939 2.04521 0
M  V30 11663 C 1090.41 3.61789 2.80843 0
M  V30 11664 N 1091.9 3.62462 2.88402 0
M  V30 11665 C 1092.64 4.55746 3.47971 0
M  V30 11666 N 1092.13 5.59353 4.08774 0
M  V30 11667 N 1093.93 4.43331 3.45564 0
M  V30 11668 H 1086.08 2.09299 0.36164 0
M  V30 11669 H 1088.34 0.921479 0.222668 0
M  V30 11670 H 1088.05 3.23096 1.38931 0
M  V30 11671 H 1087.92 2.38556 2.92183 0
M  V30 11672 H 1090.31 1.4604 2.5643 0
M  V30 11673 H 1090.39 2.34077 1.03159 0
M  V30 11674 H 1090.03 4.53035 2.29612 0
M  V30 11675 H 1089.96 3.61907 3.82532 0
M  V30 11676 H 1092.45 2.87544 2.45208 0
M  V30 11677 H 1092.77 6.26668 4.52224 0
M  V30 11678 H 1091.11 5.63173 4.07261 0
M  V30 11679 H 1094.3 3.61587 2.97276 0
M  V30 11680 H 1094.48 5.16216 3.91695 0
M  V30 11681 N 1087.88 -1.11734 1.11145 0
M  V30 11682 C 1088.81 -2.1976 0.789152 0
M  V30 11683 C 1089.79 -1.68382 -0.241143 0
M  V30 11684 O 1090.98 -1.93914 -0.105292 0
M  V30 11685 C 1088.11 -3.46549 0.228204 0
M  V30 11686 C 1087.06 -4.11123 1.19002 0
M  V30 11687 C 1086.39 -5.32451 0.489928 0
M  V30 11688 C 1087.69 -4.56406 2.53951 0
M  V30 11689 H 1089.38 -2.46978 1.69241 0
M  V30 11690 H 1086.93 -1.18705 0.81517 0
M  V30 11691 H 1088.88 -4.21399 -0.00945908 0
M  V30 11692 H 1087.6 -3.18782 -0.71033 0
M  V30 11693 H 1086.26 -3.38264 1.41326 0
M  V30 11694 H 1085.91 -5.00953 -0.453315 0
M  V30 11695 H 1085.61 -5.76605 1.1314 0
M  V30 11696 H 1087.14 -6.10042 0.260984 0
M  V30 11697 H 1088.55 -5.22592 2.35733 0
M  V30 11698 H 1086.95 -5.11363 3.14051 0
M  V30 11699 H 1088.02 -3.7001 3.13402 0
M  V30 11700 N 1089.36 -0.901303 -1.29284 0
M  V30 11701 C 1090.61 -0.538241 -1.96149 0
M  V30 11702 C 1090.96 0.905804 -1.69744 0
M  V30 11703 O 1090.25 1.63383 -1.00083 0
M  V30 11704 C 1090.45 -0.768828 -3.49033 0
M  V30 11705 C 1090.28 -2.23373 -3.903 0
M  V30 11706 C 1089.05 -2.88148 -4.15089 0
M  V30 11707 C 1091.24 -3.20907 -4.01899 0
M  V30 11708 N 1089.23 -4.25065 -4.42937 0
M  V30 11709 C 1090.6 -4.42948 -4.33817 0
M  V30 11710 C 1092.65 -3.16475 -3.8438 0
M  V30 11711 C 1091.36 -5.6112 -4.50041 0
M  V30 11712 C 1093.38 -4.33934 -4.01815 0
M  V30 11713 C 1092.74 -5.54745 -4.34093 0
M  V30 11714 H 1088.84 -0.246593 -0.742102 0
M  V30 11715 H 1091.43 -1.16245 -1.5619 0
M  V30 11716 H 1089.6 -0.17399 -3.8801 0
M  V30 11717 H 1091.33 -0.37104 -4.02996 0
M  V30 11718 H 1088.08 -2.38935 -4.0891 0
M  V30 11719 H 1088.51 -4.95822 -4.60966 0
M  V30 11720 H 1093.15 -2.2416 -3.58486 0
M  V30 11721 H 1090.87 -6.53925 -4.74771 0
M  V30 11722 H 1094.45 -4.31993 -3.89709 0
M  V30 11723 H 1093.33 -6.4412 -4.47302 0
M  V30 11724 N 1090.84 1.42931 -0.663954 0
M  V30 11725 C 1091.8 2.29197 0.0117626 0
M  V30 11726 C 1092.8 1.42767 0.739875 0
M  V30 11727 O 1093.99 1.64278 0.579509 0
M  V30 11728 C 1091.12 3.2505 1.02738 0
M  V30 11729 H 1092.32 2.90438 -0.747391 0
M  V30 11730 H 1089.87 1.5039 -0.425733 0
M  V30 11731 H 1090.6 2.68726 1.8154 0
M  V30 11732 H 1090.39 3.88785 0.508809 0
M  V30 11733 H 1091.88 3.89771 1.49893 0
M  V30 11734 N 1092.32 0.406567 1.52266 0
M  V30 11735 C 1093.25 -0.411314 2.29849 0
M  V30 11736 C 1094.23 -1.04838 1.33952 0
M  V30 11737 O 1095.41 -1.05788 1.62857 0
M  V30 11738 C 1092.54 -1.52961 3.11802 0
M  V30 11739 C 1091.5 -1.01768 4.15725 0
M  V30 11740 C 1090.82 -2.22938 4.86007 0
M  V30 11741 C 1092.12 -0.073515 5.22248 0
M  V30 11742 H 1093.82 0.236054 2.98468 0
M  V30 11743 H 1091.36 0.114968 1.4354 0
M  V30 11744 H 1093.31 -2.10874 3.64843 0
M  V30 11745 H 1092.04 -2.20482 2.40947 0
M  V30 11746 H 1090.7 -0.46097 3.6369 0
M  V30 11747 H 1090.35 -2.89007 4.11684 0
M  V30 11748 H 1090.05 -1.89338 5.5626 0
M  V30 11749 H 1091.57 -2.81462 5.41859 0
M  V30 11750 H 1092.98 -0.561367 5.70545 0
M  V30 11751 H 1091.38 0.173551 5.99849 0
M  V30 11752 H 1092.45 0.872524 4.76985 0
M  V30 11753 N 1093.79 -1.57004 0.136909 0
M  V30 11754 C 1095.02 -2.00587 -0.527209 0
M  V30 11755 C 1095.44 -1.01628 -1.58283 0
M  V30 11756 O 1094.8 0.00946934 -1.81298 0
M  V30 11757 C 1094.85 -3.42967 -1.11384 0
M  V30 11758 O 1093.95 -3.46973 -2.22898 0
M  V30 11759 H 1093.3 -0.651155 -0.129976 0
M  V30 11760 H 1095.83 -2.03296 0.230667 0
M  V30 11761 H 1095.84 -3.81555 -1.44499 0
M  V30 11762 H 1094.51 -4.14502 -0.340736 0
M  V30 11763 H 1093.09 -3.20219 -1.91087 0
M  V30 11764 N 1095.27 0.136881 -1.57004 0
M  V30 11765 C 1096.2 1.17026 -2.02057 0
M  V30 11766 C 1097.18 1.44223 -0.901866 0
M  V30 11767 O 1098.37 1.54971 -1.17037 0
M  V30 11768 C 1095.5 2.50095 -2.40977 0
M  V30 11769 C 1094.45 2.37398 -3.56127 0
M  V30 11770 C 1093.78 3.75268 -3.80891 0
M  V30 11771 C 1095.08 1.84952 -4.88457 0
M  V30 11772 H 1096.77 0.795601 -2.88636 0
M  V30 11773 H 1094.32 0.381266 -1.38861 0
M  V30 11774 H 1096.27 3.22621 -2.71097 0
M  V30 11775 H 1095 2.89416 -1.51348 0
M  V30 11776 H 1093.65 1.67322 -3.26188 0
M  V30 11777 H 1093.3 4.12043 -2.88496 0
M  V30 11778 H 1093 3.67631 -4.5839 0
M  V30 11779 H 1094.53 4.49327 -4.13446 0
M  V30 11780 H 1095.94 2.4728 -5.17229 0
M  V30 11781 H 1094.34 1.88181 -5.69832 0
M  V30 11782 H 1095.41 0.805848 -4.78157 0
M  V30 11783 N 1096.75 1.52266 0.40654 0
M  V30 11784 C 1097.71 1.75168 1.47814 0
M  V30 11785 C 1098.71 0.621575 1.48301 0
M  V30 11786 O 1099.9 0.889476 1.4978 0
M  V30 11787 C 1097.04 1.83642 2.87208 0
M  V30 11788 H 1098.23 2.70834 1.28798 0
M  V30 11789 H 1095.78 1.42722 0.637196 0
M  V30 11790 H 1096.52 0.898994 3.1159 0
M  V30 11791 H 1096.3 2.65801 2.88257 0
M  V30 11792 H 1097.79 2.03093 3.64888 0
M  V30 11793 N 1098.23 -0.663929 1.42933 0
M  V30 11794 C 1099.18 -1.77007 1.4371 0
M  V30 11795 C 1100.16 -1.57945 0.306948 0
M  V30 11796 O 1101.35 -1.68239 0.549967 0
M  V30 11797 C 1098.48 -3.15535 1.3525 0
M  V30 11798 C 1097.57 -3.40183 2.53252 0
M  V30 11799 N 1097.96 -3.35357 3.78641 0
M  V30 11800 C 1096.26 -3.70861 2.47746 0
M  V30 11801 C 1096.96 -3.5979 4.57085 0
M  V30 11802 N 1095.94 -3.81084 3.87655 0
M  V30 11803 H 1099.74 -1.71686 2.3854 0
M  V30 11804 H 1097.25 -0.865191 1.37434 0
M  V30 11805 H 1099.25 -3.94816 1.33888 0
M  V30 11806 H 1097.91 -3.22046 0.414308 0
M  V30 11807 H 1098.92 -3.15011 4.11082 0
M  V30 11808 H 1095.6 -3.84552 1.62561 0
M  V30 11809 H 1096.99 -3.61928 5.6609 0
M  V30 11810 N 1099.71 -1.29285 -0.901281 0
M  V30 11811 C 1100.67 -1.14283 -1.98676 0
M  V30 11812 C 1101.67 -0.0787641 -1.60607 0
M  V30 11813 O 1102.86 -0.325574 -1.71131 0
M  V30 11814 C 1099.99 -0.747279 -3.32609 0
M  V30 11815 H 1101.18 -2.10701 -2.13413 0
M  V30 11816 H 1098.74 -1.12449 -1.08558 0
M  V30 11817 H 1099.47 0.217111 -3.23572 0
M  V30 11818 H 1099.26 -1.51608 -3.61604 0
M  V30 11819 H 1100.75 -0.665322 -4.12266 0
M  V30 11820 N 1101.18 1.11143 -1.11736 0
M  V30 11821 C 1102.12 2.1705 -0.736325 0
M  V30 11822 C 1103.13 1.61116 0.233528 0
M  V30 11823 O 1104.32 1.78493 0.0159602 0
M  V30 11824 C 1101.42 3.38832 -0.067974 0
M  V30 11825 C 1100.59 4.24226 -1.06543 0
M  V30 11826 C 1099.65 5.24472 -0.426063 0
M  V30 11827 O 1098.68 5.58843 -1.0809 0
M  V30 11828 N 1099.88 5.74825 0.809711 0
M  V30 11829 H 1102.64 2.50349 -1.64758 0
M  V30 11830 H 1100.2 1.26693 -1.00799 0
M  V30 11831 H 1102.2 4.02991 0.371563 0
M  V30 11832 H 1100.77 3.0357 0.745917 0
M  V30 11833 H 1099.99 3.56475 -1.68283 0
M  V30 11834 H 1101.27 4.78117 -1.74016 0
M  V30 11835 H 1100.67 5.49088 1.36084 0
M  V30 11836 H 1099.23 6.40804 1.19218 0
M  V30 11837 N 1102.66 0.908147 1.28804 0
M  V30 11838 C 1103.59 0.409106 2.29888 0
M  V30 11839 C 1104.57 -0.520338 1.61946 0
M  V30 11840 O 1105.76 -0.429268 1.89396 0
M  V30 11841 C 1102.89 -0.35669 3.45463 0
M  V30 11842 C 1101.84 0.4831 4.25265 0
M  V30 11843 C 1101.17 -0.4107 5.3312 0
M  V30 11844 C 1102.47 1.73744 4.92555 0
M  V30 11845 H 1104.16 1.25386 2.7188 0
M  V30 11846 H 1101.71 0.604368 1.30703 0
M  V30 11847 H 1103.66 -0.71661 4.15262 0
M  V30 11848 H 1102.39 -1.2353 3.02337 0
M  V30 11849 H 1101.04 0.825464 3.57186 0
M  V30 11850 H 1100.69 -1.28769 4.86238 0
M  V30 11851 H 1100.39 0.14756 5.87415 0
M  V30 11852 H 1101.92 -0.766626 6.05768 0
M  V30 11853 H 1103.33 1.44676 5.54745 0
M  V30 11854 H 1101.73 2.23767 5.5682 0
M  V30 11855 H 1102.8 2.46853 4.17363 0
M  V30 11856 N 1104.14 -1.42577 0.671525 0
M  V30 11857 C 1105.37 -2.06442 0.199152 0
M  V30 11858 C 1105.79 -1.50104 -1.1336 0
M  V30 11859 O 1105.15 -0.618211 -1.70434 0
M  V30 11860 C 1105.2 -3.60323 0.141215 0
M  V30 11861 O 1104.3 -4.02655 -0.891238 0
M  V30 11862 H 1103.64 -0.655919 0.103277 0
M  V30 11863 H 1106.17 -1.82768 0.919614 0
M  V30 11864 H 1106.18 -4.07984 -0.0360209 0
M  V30 11865 H 1104.86 -4.00702 1.11403 0
M  V30 11866 H 1103.43 -3.66549 -0.685309 0
M  V30 11867 N 1105.62 -0.414636 -1.52048 0
M  V30 11868 C 1106.53 0.414861 -2.30903 0
M  V30 11869 C 1107.54 1.04855 -1.38858 0
M  V30 11870 O 1108.72 1.04886 -1.71933 0
M  V30 11871 C 1105.79 1.51356 -3.11917 0
M  V30 11872 C 1104.85 0.902359 -4.19709 0
M  V30 11873 C 1104.08 1.9487 -4.96852 0
M  V30 11874 O 1104.3 3.16766 -4.74358 0
M  V30 11875 O 1103.24 1.55186 -5.8155 0
M  V30 11876 H 1107.06 -0.228251 -3.02841 0
M  V30 11877 H 1104.65 -0.177704 -1.48339 0
M  V30 11878 H 1106.53 2.15127 -3.62351 0
M  V30 11879 H 1105.2 2.14117 -2.42767 0
M  V30 11880 H 1104.11 0.22721 -3.73409 0
M  V30 11881 H 1105.44 0.318587 -4.91168 0
M  V30 11882 N 1107.1 1.56929 -0.145233 0
M  V30 11883 C 1108.34 1.96358 0.50707 0
M  V30 11884 C 1108.68 1.03005 1.64632 0
M  V30 11885 O 1107.95 0.0721045 1.94366 0
M  V30 11886 C 1108.23 3.45502 1.01492 0
M  V30 11887 C 1108.09 4.49633 -0.122708 0
M  V30 11888 C 1109.41 3.97103 1.89729 0
M  V30 11889 H 1106.52 0.713958 0.182848 0
M  V30 11890 H 1109.17 1.8865 -0.226102 0
M  V30 11891 H 1107.32 3.52202 1.6397 0
M  V30 11892 H 1108.99 4.55013 -0.758988 0
M  V30 11893 H 1107.23 4.26691 -0.782109 0
M  V30 11894 H 1107.9 5.51318 0.27432 0
M  V30 11895 H 1110.38 3.92871 1.37082 0
M  V30 11896 H 1109.25 5.01927 2.22173 0
M  V30 11897 H 1109.52 3.39354 2.83357 0
M  V30 11898 N 1108.58 -0.128553 1.57075 0
M  V30 11899 C 1109.51 -1.15953 2.02675 0
M  V30 11900 C 1110.49 -1.43743 0.909501 0
M  V30 11901 O 1111.67 -1.54348 1.17857 0
M  V30 11902 C 1108.8 -2.48813 2.423 0
M  V30 11903 C 1107.76 -2.35506 3.57381 0
M  V30 11904 C 1107.08 -3.73243 3.82875 0
M  V30 11905 C 1108.38 -1.82359 4.89431 0
M  V30 11906 H 1110.08 -0.780283 2.89054 0
M  V30 11907 H 1107.62 -0.373896 1.39061 0
M  V30 11908 H 1109.57 -3.21179 2.72804 0
M  V30 11909 H 1108.3 -2.88609 1.52881 0
M  V30 11910 H 1106.96 -1.6559 3.27071 0
M  V30 11911 H 1106.61 -4.10507 2.90677 0
M  V30 11912 H 1106.31 -3.65195 4.60333 0
M  V30 11913 H 1107.83 -4.47128 4.15823 0
M  V30 11914 H 1109.24 -2.44533 5.18533 0
M  V30 11915 H 1107.64 -1.85156 5.70822 0
M  V30 11916 H 1108.71 -0.780478 4.78578 0
M  V30 11917 N 1110.05 -1.5248 -0.398459 0
M  V30 11918 C 1111.3 -1.68262 -1.14277 0
M  V30 11919 C 1111.65 -0.412722 -1.87921 0
M  V30 11920 O 1110.95 0.593257 -1.82184 0
M  V30 11921 C 1111.14 -2.85038 -2.15611 0
M  V30 11922 C 1110.97 -4.23262 -1.51919 0
M  V30 11923 C 1109.74 -4.88627 -1.28732 0
M  V30 11924 C 1111.94 -5.04986 -0.974349 0
M  V30 11925 N 1109.92 -6.10857 -0.610455 0
M  V30 11926 C 1111.29 -6.18542 -0.425008 0
M  V30 11927 C 1113.35 -4.90243 -0.869843 0
M  V30 11928 C 1112.05 -7.18968 0.218609 0
M  V30 11929 C 1114.08 -5.90913 -0.240063 0
M  V30 11930 C 1113.44 -7.03767 0.298552 0
M  V30 11931 H 1109.54 -0.669275 -0.404469 0
M  V30 11932 H 1112.12 -1.8981 -0.433635 0
M  V30 11933 H 1110.29 -2.65087 -2.83872 0
M  V30 11934 H 1112.02 -2.89804 -2.82481 0
M  V30 11935 H 1108.78 -4.47179 -1.55975 0
M  V30 11936 H 1109.2 -6.76386 -0.288338 0
M  V30 11937 H 1113.84 -4.0321 -1.27207 0
M  V30 11938 H 1111.56 -8.05618 0.632874 0
M  V30 11939 H 1115.15 -5.81578 -0.160576 0
M  V30 11940 H 1114.03 -7.80329 0.778185 0
M  V30 11941 N 1111.53 0.65634 -1.43283 0
M  V30 11942 C 1112.49 1.75117 -1.47874 0
M  V30 11943 C 1113.49 1.56629 -0.363846 0
M  V30 11944 O 1114.68 1.62584 -0.625464 0
M  V30 11945 C 1111.82 3.13957 -1.32831 0
M  V30 11946 H 1113.01 1.72429 -2.45374 0
M  V30 11947 H 1110.56 0.867704 -1.30002 0
M  V30 11948 H 1111.3 3.22259 -0.36326 0
M  V30 11949 H 1111.08 3.28781 -2.13649 0
M  V30 11950 H 1112.57 3.93799 -1.38969 0
M  V30 11951 N 1113.01 1.29761 0.894412 0
M  V30 11952 C 1113.94 1.09666 2.00121 0
M  V30 11953 C 1114.92 0.00700077 1.62598 0
M  V30 11954 O 1116.1 0.158728 1.87831 0
M  V30 11955 C 1113.23 0.670588 3.31995 0
M  V30 11956 C 1112.28 1.75974 3.88504 0
M  V30 11957 S 1113.11 3.36013 4.1696 0
M  V30 11958 C 1114.27 2.95285 5.51867 0
M  V30 11959 H 1114.5 2.03369 2.1686 0
M  V30 11960 H 1112.03 1.13968 1.04166 0
M  V30 11961 H 1113.99 0.431481 4.08226 0
M  V30 11962 H 1112.65 -0.246924 3.13128 0
M  V30 11963 H 1111.84 1.41367 4.83768 0
M  V30 11964 H 1111.45 1.95264 3.1898 0
M  V30 11965 H 1113.74 2.42659 6.32553 0
M  V30 11966 H 1114.68 3.8942 5.91403 0
M  V30 11967 H 1115.09 2.33426 5.13977 0
M  V30 11968 N 1114.49 -1.10549 1.12324 0
M  V30 11969 C 1115.73 -1.82755 0.879117 0
M  V30 11970 C 1116.07 -1.84905 -0.593604 0
M  V30 11971 O 1115.34 -1.30884 -1.43873 0
M  V30 11972 C 1115.62 -3.29481 1.45308 0
M  V30 11973 C 1115.48 -3.3567 2.99408 0
M  V30 11974 C 1116.8 -4.25828 1.11167 0
M  V30 11975 H 1113.92 -0.663513 0.32081 0
M  V30 11976 H 1116.56 -1.29572 1.38965 0
M  V30 11977 H 1114.71 -3.74902 1.01887 0
M  V30 11978 H 1116.38 -2.98739 3.515 0
M  V30 11979 H 1114.62 -2.75606 3.34998 0
M  V30 11980 H 1115.29 -4.38983 3.34661 0
M  V30 11981 H 1117.77 -3.88635 1.48667 0
M  V30 11982 H 1116.65 -5.26857 1.53991 0
M  V30 11983 H 1116.91 -4.42094 0.0237046 0
M  V30 11984 N 1115.97 -0.914965 -1.28321 0
M  V30 11985 C 1116.9 -0.348729 -2.2552 0
M  V30 11986 C 1117.88 0.547737 -1.53097 0
M  V30 11987 O 1119.06 0.491119 -1.8199 0
M  V30 11988 C 1116.19 0.501397 -3.34968 0
M  V30 11989 C 1115.23 -0.329859 -4.25223 0
M  V30 11990 S 1116.07 -1.73737 -5.06533 0
M  V30 11991 C 1117.22 -0.89458 -6.19474 0
M  V30 11992 H 1117.46 -1.17256 -2.732 0
M  V30 11993 H 1114.99 -0.716297 -1.36779 0
M  V30 11994 H 1116.95 0.986061 -3.98481 0
M  V30 11995 H 1115.61 1.29962 -2.85952 0
M  V30 11996 H 1114.8 0.320236 -5.02982 0
M  V30 11997 H 1114.4 -0.748221 -3.66439 0
M  V30 11998 H 1116.69 -0.124776 -6.77385 0
M  V30 11999 H 1117.64 -1.64475 -6.88733 0
M  V30 12000 H 1118.05 -0.442217 -5.62765 0
M  V30 12001 N 1117.44 1.42219 -0.679077 0
M  V30 12002 C 1118.86 1.55737 -0.349034 0
M  V30 12003 C 1119.06 1.65789 1.14527 0
M  V30 12004 O 1118.12 1.62717 1.93079 0
M  V30 12005 C 1119.43 2.80516 -1.0831 0
M  V30 12006 C 1120.98 2.94294 -1.06584 0
M  V30 12007 C 1121.45 4.2194 -1.78132 0
M  V30 12008 N 1122.94 4.28861 -1.75021 0
M  V30 12009 C 1123.68 5.26453 -2.27234 0
M  V30 12010 N 1123.17 6.30171 -2.87847 0
M  V30 12011 N 1124.97 5.1828 -2.17584 0
M  V30 12012 H 1117.12 1.33939 -1.64846 0
M  V30 12013 H 1119.38 0.645029 -0.694725 0
M  V30 12014 H 1119.09 2.79241 -2.13816 0
M  V30 12015 H 1118.96 3.71539 -0.651069 0
M  V30 12016 H 1121.35 2.95094 -0.0191061 0
M  V30 12017 H 1121.43 2.04491 -1.53679 0
M  V30 12018 H 1121.07 4.21901 -2.82776 0
M  V30 12019 H 1121 5.10685 -1.28483 0
M  V30 12020 H 1123.49 3.54537 -1.30814 0
M  V30 12021 H 1123.81 7.01 -3.25298 0
M  V30 12022 H 1122.15 6.30721 -2.91918 0
M  V30 12023 H 1125.34 4.36172 -1.69916 0
M  V30 12024 H 1125.52 5.94172 -2.58581 0
M  V30 12025 N 1118.92 0.422693 1.51826 0
M  V30 12026 C 1120.17 -0.150066 2.01141 0
M  V30 12027 C 1120.48 -1.45059 1.31214 0
M  V30 12028 O 1121.69 -2.10542 1.71419 0
M  V30 12029 C 1120.15 -0.317985 3.58492 0
M  V30 12030 C 1119.75 0.971244 4.37345 0
M  V30 12031 C 1121.5 -0.845303 4.15999 0
M  V30 12032 C 1119.4 0.769769 5.86369 0
M  V30 12033 H 1118.33 -0.0598567 0.75162 0
M  V30 12034 H 1120.99 0.550217 1.75057 0
M  V30 12035 H 1119.37 -1.08092 3.80962 0
M  V30 12036 H 1120.54 1.74138 4.26629 0
M  V30 12037 H 1118.86 1.42599 3.91222 0
M  V30 12038 H 1121.45 -1.01229 5.2503 0
M  V30 12039 H 1121.8 -1.82375 3.74226 0
M  V30 12040 H 1122.33 -0.141067 3.9755 0
M  V30 12041 H 1119.07 1.72017 6.32527 0
M  V30 12042 H 1118.59 0.0391717 5.99787 0
M  V30 12043 H 1120.27 0.417225 6.45653 0
M  V30 12044 N 1120.4 -1.5685 0.153553 0
M  V30 12045 C 1121.65 -1.95946 -0.494936 0
M  V30 12046 C 1121.97 -1.03975 -1.64967 0
M  V30 12047 O 1121.24 -0.102572 -1.95631 0
M  V30 12048 H 1119.82 -0.723516 -0.185833 0
M  V30 12049 H 1122.48 -1.93531 0.230585 0
M  V30 12050 H 1121.58 -2.99823 -0.866743 0
M  V30 12051 N 1121.88 0.120221 -1.57141 0
M  V30 12052 C 1122.81 1.14876 -2.03287 0
M  V30 12053 C 1123.79 1.43259 -0.917112 0
M  V30 12054 O 1124.97 1.53721 -1.18674 0
M  V30 12055 C 1122.1 2.47525 -2.43616 0
M  V30 12056 C 1121.06 2.33607 -3.58625 0
M  V30 12057 C 1120.38 3.71207 -3.84849 0
M  V30 12058 C 1121.68 1.79761 -4.90391 0
M  V30 12059 H 1123.38 0.764943 -2.89463 0
M  V30 12060 H 1120.92 0.366516 -1.39258 0
M  V30 12061 H 1122.88 3.19728 -2.74504 0
M  V30 12062 H 1121.6 2.87794 -1.54409 0
M  V30 12063 H 1120.26 1.63853 -3.27945 0
M  V30 12064 H 1119.91 4.0896 -2.9285 0
M  V30 12065 H 1119.61 3.62749 -4.62263 0
M  V30 12066 H 1121.13 4.44917 -4.18188 0
M  V30 12067 H 1122.55 2.4178 -5.19822 0
M  V30 12068 H 1120.94 1.82126 -5.71795 0
M  V30 12069 H 1122.01 0.755087 -4.78985 0
M  V30 12070 N 1123.36 1.52689 0.390367 0
M  V30 12071 C 1124.6 1.67335 1.13329 0
M  V30 12072 C 1124.93 0.415068 1.90531 0
M  V30 12073 O 1124.2 -0.570504 1.87409 0
M  V30 12074 H 1122.78 0.616821 0.421356 0
M  V30 12075 H 1125.44 1.89799 0.443 0
M  V30 12076 H 1124.53 2.52314 1.83696 0
M  V30 12077 N 1124.83 -0.648732 1.43629 0
M  V30 12078 C 1125.76 -1.77298 1.51947 0
M  V30 12079 C 1126.75 -1.65942 0.373785 0
M  V30 12080 O 1127.93 -1.8497 0.591596 0
M  V30 12081 C 1125.06 -3.15749 1.44638 0
M  V30 12082 C 1124.01 -3.41872 2.57502 0
M  V30 12083 C 1123.34 -4.8017 2.35246 0
M  V30 12084 C 1124.64 -3.36173 3.99731 0
M  V30 12085 H 1126.33 -1.70594 2.46045 0
M  V30 12086 H 1123.88 -0.819306 1.1842 0
M  V30 12087 H 1125.83 -3.94156 1.4906 0
M  V30 12088 H 1124.56 -3.23194 0.470466 0
M  V30 12089 H 1123.22 -2.65838 2.5244 0
M  V30 12090 H 1122.86 -4.84297 1.35887 0
M  V30 12091 H 1122.56 -4.9861 3.10906 0
M  V30 12092 H 1124.09 -5.6083 2.41459 0
M  V30 12093 H 1125.5 -4.0451 4.06257 0
M  V30 12094 H 1123.9 -3.66148 4.75453 0
M  V30 12095 H 1124.97 -2.34277 4.24549 0
M  V30 12096 N 1126.31 -1.30234 -0.887518 0
M  V30 12097 C 1127.56 -1.18675 -1.63587 0
M  V30 12098 C 1127.88 0.259342 -1.93268 0
M  V30 12099 O 1127.15 1.17523 -1.56733 0
M  V30 12100 H 1125.73 -0.436224 -0.606397 0
M  V30 12101 H 1128.39 -1.63326 -1.06351 0
M  V30 12102 H 1127.49 -1.74575 -2.58708 0
M  V30 12103 N 1127.79 1.09952 -1.12909 0
M  V30 12104 C 1129.21 1.34051 -0.866172 0
M  V30 12105 C 1129.41 1.95169 0.501125 0
M  V30 12106 O 1128.46 2.19458 1.24878 0
M  V30 12107 C 1129.78 2.25738 -1.98653 0
M  V30 12108 C 1131.32 2.39261 -2.01799 0
M  V30 12109 C 1131.8 3.3428 -3.13083 0
M  V30 12110 N 1133.29 3.41851 -3.12558 0
M  V30 12111 C 1134.02 4.15358 -3.95304 0
M  V30 12112 N 1133.52 4.91709 -4.88051 0
M  V30 12113 N 1135.31 4.11027 -3.83423 0
M  V30 12114 H 1127.46 0.686521 -2.00999 0
M  V30 12115 H 1129.73 0.364913 -0.874953 0
M  V30 12116 H 1129.43 1.88048 -2.97205 0
M  V30 12117 H 1129.31 3.26085 -1.89601 0
M  V30 12118 H 1131.69 2.76218 -1.03864 0
M  V30 12119 H 1131.78 1.38712 -2.14925 0
M  V30 12120 H 1131.42 2.98048 -4.11254 0
M  V30 12121 H 1131.35 4.34721 -2.97195 0
M  V30 12122 H 1133.84 2.87405 -2.45371 0
M  V30 12123 H 1134.15 5.45212 -5.47689 0
M  V30 12124 H 1132.5 4.90816 -4.92061 0
M  V30 12125 H 1135.69 3.50477 -3.10296 0
M  V30 12126 H 1135.86 4.68054 -4.4814 0
M  V30 12127 N 1129.27 0.921757 1.27833 0
M  V30 12128 C 1130.18 0.421668 2.30779 0
M  V30 12129 C 1131.19 -0.494686 1.6682 0
M  V30 12130 O 1132.37 -0.378935 1.97803 0
M  V30 12131 C 1129.44 -0.322928 3.45193 0
M  V30 12132 C 1128.5 0.627618 4.24687 0
M  V30 12133 C 1127.73 -0.0815385 5.33638 0
M  V30 12134 O 1127.95 -1.30193 5.55343 0
M  V30 12135 O 1126.89 0.58725 5.99028 0
M  V30 12136 H 1130.71 1.2763 2.7558 0
M  V30 12137 H 1128.3 0.686877 1.32674 0
M  V30 12138 H 1130.18 -0.743145 4.14796 0
M  V30 12139 H 1128.85 -1.15326 3.02459 0
M  V30 12140 H 1127.76 1.09739 3.57642 0
M  V30 12141 H 1129.09 1.425 4.71121 0
M  V30 12142 N 1130.75 -1.41857 0.686609 0
M  V30 12143 C 1131.99 -2.01666 0.214118 0
M  V30 12144 C 1132.33 -1.5422 -1.18025 0
M  V30 12145 O 1131.6 -0.749482 -1.7948 0
M  V30 12146 C 1131.88 -3.59147 0.261841 0
M  V30 12147 C 1131.74 -4.16742 1.69251 0
M  V30 12148 C 1133.06 -4.38427 -0.383378 0
M  V30 12149 H 1130.17 -0.732724 0.0792785 0
M  V30 12150 H 1132.82 -1.68724 0.873633 0
M  V30 12151 H 1130.97 -3.87342 -0.29971 0
M  V30 12152 H 1132.64 -3.99456 2.30722 0
M  V30 12153 H 1130.88 -3.72124 2.2295 0
M  V30 12154 H 1131.55 -5.25894 1.6775 0
M  V30 12155 H 1134.03 -4.15992 0.0947701 0
M  V30 12156 H 1132.9 -5.4797 -0.319401 0
M  V30 12157 H 1133.17 -4.172 -1.46276 0
M  V30 12158 N 1132.22 -0.430739 -1.51599 0
M  V30 12159 C 1133.47 0.137657 -2.01631 0
M  V30 12160 C 1133.79 1.43787 -1.31721 0
M  V30 12161 O 1133.06 1.90668 -0.449717 0
M  V30 12162 H 1131.64 0.0538611 -0.745056 0
M  V30 12163 H 1134.31 -0.571935 -1.86319 0
M  V30 12164 H 1133.4 0.318305 -3.10473 0
M  V30 12165 N 1133.7 1.56767 -0.161869 0
M  V30 12166 C 1134.95 1.96885 0.486215 0
M  V30 12167 C 1135.28 1.04745 1.6353 0
M  V30 12168 O 1134.56 0.0927156 1.94279 0
M  V30 12169 C 1134.84 3.46559 0.97822 0
M  V30 12170 C 1134.69 4.49477 -0.17039 0
M  V30 12171 C 1136.01 3.99093 1.85506 0
M  V30 12172 H 1133.13 0.715857 0.175265 0
M  V30 12173 H 1135.77 1.88399 -0.246098 0
M  V30 12174 H 1133.92 3.53921 1.60225 0
M  V30 12175 H 1135.59 4.54183 -0.807205 0
M  V30 12176 H 1133.84 4.25838 -0.827322 0
M  V30 12177 H 1134.51 5.51578 0.21583 0
M  V30 12178 H 1136.98 3.94303 1.32908 0
M  V30 12179 H 1135.86 5.04255 2.16837 0
M  V30 12180 H 1136.12 3.4234 2.79742 0
M  V30 12181 N 1135.18 -0.111886 1.57202 0
M  V30 12182 C 1136.14 -1.12101 1.99915 0
M  V30 12183 C 1137.14 -1.33906 0.890272 0
M  V30 12184 O 1138.33 -1.30303 1.15615 0
M  V30 12185 C 1135.47 -2.47392 2.34543 0
M  V30 12186 H 1136.66 -0.753736 2.90274 0
M  V30 12187 H 1134.21 -0.35641 1.52182 0
M  V30 12188 H 1134.95 -2.89026 1.47086 0
M  V30 12189 H 1134.73 -2.32917 3.15423 0
M  V30 12190 H 1136.22 -3.20004 2.68304 0
M  V30 12191 N 1136.66 -1.52894 -0.382264 0
M  V30 12192 C 1137.62 -1.77497 -1.45008 0
M  V30 12193 C 1138.62 -0.64509 -1.47293 0
M  V30 12194 O 1139.81 -0.913192 -1.48346 0
M  V30 12195 C 1136.94 -1.88188 -2.8425 0
M  V30 12196 H 1138.14 -2.72849 -1.24473 0
M  V30 12197 H 1135.69 -1.43717 -0.61441 0
M  V30 12198 H 1136.42 -0.948451 -3.10121 0
M  V30 12199 H 1136.21 -2.70353 -2.83992 0
M  V30 12200 H 1137.7 -2.08873 -3.6161 0
M  V30 12201 N 1138.14 0.641106 -1.43971 0
M  V30 12202 C 1139.38 1.40291 -1.46445 0
M  V30 12203 C 1139.72 1.93978 -0.0929004 0
M  V30 12204 O 1138.99 1.73043 0.888043 0
M  V30 12205 C 1139.27 2.57551 -2.51673 0
M  V30 12206 C 1139.13 2.09279 -3.98149 0
M  V30 12207 C 1140.45 3.59752 -2.53508 0
M  V30 12208 H 1137.57 0.508771 -0.533218 0
M  V30 12209 H 1140.21 0.725767 -1.75592 0
M  V30 12210 H 1138.36 3.15319 -2.2695 0
M  V30 12211 H 1140.03 1.56418 -4.33971 0
M  V30 12212 H 1138.27 1.40545 -4.10402 0
M  V30 12213 H 1138.94 2.93655 -4.67409 0
M  V30 12214 H 1141.42 3.11766 -2.75574 0
M  V30 12215 H 1140.3 4.39332 -3.29057 0
M  V30 12216 H 1140.56 4.13156 -1.57335 0
M  V30 12217 N 1139.62 1.30703 0.880598 0
M  V30 12218 C 1140.86 1.19955 1.63519 0
M  V30 12219 C 1141.19 -0.244214 1.92658 0
M  V30 12220 O 1140.47 -1.17412 1.55063 0
M  V30 12221 C 1140.75 2.03302 2.97221 0
M  V30 12222 C 1140.61 3.55921 2.75028 0
M  V30 12223 C 1141.92 1.87421 3.98198 0
M  V30 12224 H 1139.04 0.43712 0.593376 0
M  V30 12225 H 1141.69 1.60382 1.01871 0
M  V30 12226 H 1139.84 1.68953 3.49839 0
M  V30 12227 H 1141.51 4.00352 2.29164 0
M  V30 12228 H 1139.75 3.79885 2.09452 0
M  V30 12229 H 1140.42 4.09533 3.70117 0
M  V30 12230 H 1142.9 2.17459 3.54755 0
M  V30 12231 H 1141.77 2.48057 4.89652 0
M  V30 12232 H 1142.03 0.834563 4.34151 0
M  V30 12233 N 1141.09 -1.09351 1.1349 0
M  V30 12234 C 1142.02 -2.18037 0.835588 0
M  V30 12235 C 1143 -1.68856 -0.205373 0
M  V30 12236 O 1144.19 -1.94094 -0.0641357 0
M  V30 12237 C 1141.32 -3.45987 0.301661 0
M  V30 12238 C 1140.27 -4.08507 1.27696 0
M  V30 12239 C 1139.6 -5.31292 0.602758 0
M  V30 12240 C 1140.9 -4.50916 2.63575 0
M  V30 12241 H 1142.59 -2.43332 1.74441 0
M  V30 12242 H 1140.14 -1.1695 0.840166 0
M  V30 12243 H 1142.09 -4.21324 0.079928 0
M  V30 12244 H 1140.82 -3.20217 -0.642552 0
M  V30 12245 H 1139.48 -3.3519 1.4847 0
M  V30 12246 H 1139.12 -5.01802 -0.346953 0
M  V30 12247 H 1138.82 -5.74075 1.25345 0
M  V30 12248 H 1140.35 -6.09351 0.390325 0
M  V30 12249 H 1141.76 -5.17474 2.46765 0
M  V30 12250 H 1140.16 -5.04586 3.24827 0
M  V30 12251 H 1141.23 -3.63279 3.2118 0
M  V30 12252 N 1142.57 -0.928524 -1.27343 0
M  V30 12253 C 1143.82 -0.570235 -1.94618 0
M  V30 12254 C 1144.15 0.886381 -1.72792 0
M  V30 12255 O 1143.43 1.63242 -1.05747 0
M  V30 12256 C 1143.71 -0.897964 -3.48724 0
M  V30 12257 C 1143.56 -2.40839 -3.7989 0
M  V30 12258 C 1144.88 -0.404429 -4.38238 0
M  V30 12259 H 1142 -0.208645 -0.70685 0
M  V30 12260 H 1144.64 -1.16045 -1.50444 0
M  V30 12261 H 1142.79 -0.395679 -3.8648 0
M  V30 12262 H 1144.46 -2.98243 -3.51921 0
M  V30 12263 H 1142.71 -2.85723 -3.26412 0
M  V30 12264 H 1143.38 -2.58823 -4.8756 0
M  V30 12265 H 1145.85 -0.834918 -4.07637 0
M  V30 12266 H 1144.73 -0.662684 -5.44885 0
M  V30 12267 H 1144.99 0.695507 -4.36595 0
M  V30 12268 N 1144.05 1.41491 -0.694123 0
M  V30 12269 C 1145.46 1.84283 -0.299439 0
M  V30 12270 C 1145.81 1.58081 1.16211 0
M  V30 12271 O 1144.94 1.05051 1.89191 0
M  V30 12272 C 1145.53 3.34522 -0.536696 0
M  V30 12273 C 1144.09 3.7589 -0.195944 0
M  V30 12274 C 1143.24 2.64908 -0.819692 0
M  V30 12275 H 1146.19 1.31063 -0.894884 0
M  V30 12276 H 1146.21 3.79947 0.205062 0
M  V30 12277 H 1145.72 3.53561 -1.6005 0
M  V30 12278 H 1143.82 3.62452 0.863655 0
M  V30 12279 H 1143.94 4.74671 -0.649954 0
M  V30 12280 H 1142.3 2.53476 -0.249412 0
M  V30 12281 H 1143.08 2.86765 -1.88734 0
M  V30 12282 N 1145.53 0.438773 1.51369 0
M  V30 12283 C 1146.78 -0.128723 2.01289 0
M  V30 12284 C 1147.09 -1.43659 1.32745 0
M  V30 12285 O 1148.3 -2.08712 1.73642 0
M  V30 12286 C 1146.75 -0.279945 3.5881 0
M  V30 12287 C 1146.36 1.01758 4.3629 0
M  V30 12288 C 1148.1 -0.801133 4.16872 0
M  V30 12289 C 1146.01 0.831918 5.85519 0
M  V30 12290 H 1144.94 -0.0518814 0.752213 0
M  V30 12291 H 1147.59 0.568753 1.74463 0
M  V30 12292 H 1145.97 -1.04046 3.82087 0
M  V30 12293 H 1147.15 1.78653 4.24758 0
M  V30 12294 H 1145.46 1.46741 3.89687 0
M  V30 12295 H 1148.06 -0.956548 5.26074 0
M  V30 12296 H 1148.4 -1.78396 3.76139 0
M  V30 12297 H 1148.94 -0.0988934 3.97677 0
M  V30 12298 H 1145.67 1.78716 6.30667 0
M  V30 12299 H 1145.19 0.102785 5.99712 0
M  V30 12300 H 1146.87 0.485681 6.45174 0
M  V30 12301 N 1147.01 -1.56678 0.170181 0
M  V30 12302 C 1148.25 -1.96849 -0.475064 0
M  V30 12303 C 1148.58 -1.05611 -1.6333 0
M  V30 12304 O 1147.84 -0.0899708 -1.95493 0
M  V30 12305 C 1148.13 -3.43103 -1.00076 0
M  V30 12306 C 1147.8 -4.50881 0.0414538 0
M  V30 12307 C 1146.46 -4.80082 0.327894 0
M  V30 12308 C 1148.81 -5.15791 0.748936 0
M  V30 12309 C 1146.14 -5.71491 1.32722 0
M  V30 12310 C 1148.49 -6.08278 1.73724 0
M  V30 12311 C 1147.16 -6.35847 2.03114 0
M  V30 12312 H 1146.43 -0.72032 -0.173838 0
M  V30 12313 H 1149.08 -1.89701 0.261903 0
M  V30 12314 H 1147.38 -3.47197 -1.81553 0
M  V30 12315 H 1149.08 -3.71525 -1.50899 0
M  V30 12316 H 1145.67 -4.2817 -0.191976 0
M  V30 12317 H 1149.85 -4.93344 0.540852 0
M  V30 12318 H 1145.11 -5.91134 1.56112 0
M  V30 12319 H 1149.28 -6.57643 2.29082 0
M  V30 12320 H 1146.91 -7.06479 2.80698 0
M  V30 12321 N 1148.48 0.103547 -1.57259 0
M  V30 12322 C 1149.45 1.11039 -2.00507 0
M  V30 12323 C 1150.45 1.33432 -0.897361 0
M  V30 12324 O 1151.64 1.29688 -1.16304 0
M  V30 12325 C 1148.77 2.46144 -2.35851 0
M  V30 12326 H 1149.96 0.738332 -2.90669 0
M  V30 12327 H 1147.51 0.348334 -1.52369 0
M  V30 12328 H 1148.25 2.88242 -1.48617 0
M  V30 12329 H 1148.03 2.31241 -3.16654 0
M  V30 12330 H 1149.52 3.18577 -2.69997 0
M  V30 12331 N 1149.96 1.53094 0.37415 0
M  V30 12332 C 1150.92 1.78264 1.44065 0
M  V30 12333 C 1151.92 0.652892 1.46949 0
M  V30 12334 O 1153.11 0.921046 1.47859 0
M  V30 12335 C 1150.25 1.89693 2.83248 0
M  V30 12336 H 1151.44 2.73505 1.23025 0
M  V30 12337 H 1148.99 1.44041 0.60678 0
M  V30 12338 H 1149.73 0.964884 3.09613 0
M  V30 12339 H 1149.51 2.71855 2.82554 0
M  V30 12340 H 1151 2.10787 3.60498 0
M  V30 12341 N 1151.44 -0.633461 1.44309 0
M  V30 12342 C 1152.69 -1.39306 1.46969 0
M  V30 12343 C 1153.01 -1.94235 0.101403 0
M  V30 12344 O 1152.27 -1.73959 -0.896475 0
M  V30 12345 C 1152.57 -2.57783 2.47554 0
M  V30 12346 C 1152.23 -2.21156 3.92939 0
M  V30 12347 C 1150.9 -2.1088 4.32531 0
M  V30 12348 C 1153.25 -1.9218 4.84475 0
M  V30 12349 C 1150.58 -1.69812 5.61588 0
M  V30 12350 C 1152.93 -1.52605 6.13917 0
M  V30 12351 C 1151.59 -1.40868 6.52466 0
M  V30 12352 H 1150.86 -0.509758 0.537799 0
M  V30 12353 H 1153.51 -0.718552 1.77508 0
M  V30 12354 H 1151.81 -3.30456 2.1049 0
M  V30 12355 H 1153.51 -3.16009 2.46859 0
M  V30 12356 H 1150.1 -2.30072 3.61614 0
M  V30 12357 H 1154.29 -1.9903 4.54644 0
M  V30 12358 H 1149.54 -1.59327 5.90275 0
M  V30 12359 H 1153.72 -1.29221 6.84306 0
M  V30 12360 H 1151.34 -1.08818 7.52371 0
M  V30 12361 N 1152.92 -1.31168 -0.873655 0
M  V30 12362 C 1153.88 -1.18471 -1.96207 0
M  V30 12363 C 1154.88 -0.112814 -1.60404 0
M  V30 12364 O 1156.07 -0.3618 -1.70401 0
M  V30 12365 C 1153.2 -0.817662 -3.30949 0
M  V30 12366 H 1154.4 -2.1518 -2.08896 0
M  V30 12367 H 1151.95 -1.14727 -1.06149 0
M  V30 12368 H 1152.68 0.148428 -3.2396 0
M  V30 12369 H 1152.47 -1.59244 -3.58307 0
M  V30 12370 H 1153.96 -0.75262 -4.10762 0
M  V30 12371 N 1154.4 1.08748 -1.14068 0
M  V30 12372 C 1155.64 1.81333 -0.908081 0
M  V30 12373 C 1155.98 1.85826 0.564112 0
M  V30 12374 O 1155.25 1.33157 1.41773 0
M  V30 12375 C 1155.53 3.27127 -1.50531 0
M  V30 12376 C 1155.39 3.30865 -3.04711 0
M  V30 12377 C 1156.71 4.24006 -1.17928 0
M  V30 12378 H 1153.82 0.658326 -0.331325 0
M  V30 12379 H 1156.47 1.27345 -1.41008 0
M  V30 12380 H 1154.62 3.73233 -1.07839 0
M  V30 12381 H 1156.29 2.93109 -3.56209 0
M  V30 12382 H 1154.53 2.70241 -3.39341 0
M  V30 12383 H 1155.2 4.33603 -3.41603 0
M  V30 12384 H 1157.68 3.86221 -1.54831 0
M  V30 12385 H 1156.55 5.2434 -1.62353 0
M  V30 12386 H 1156.82 4.42 -0.0940349 0
M  V30 12387 N 1155.87 0.935264 1.26849 0
M  V30 12388 C 1156.81 0.384563 2.24936 0
M  V30 12389 C 1157.79 -0.523311 1.53949 0
M  V30 12390 O 1158.97 -0.462103 1.82748 0
M  V30 12391 C 1156.1 -0.448043 3.35723 0
M  V30 12392 C 1155.14 0.397466 4.24644 0
M  V30 12393 S 1155.98 1.81773 5.03705 0
M  V30 12394 C 1157.13 0.99302 6.17972 0
M  V30 12395 H 1157.36 1.21588 2.713 0
M  V30 12396 H 1154.9 0.737966 1.35622 0
M  V30 12397 H 1156.86 -0.922541 3.99999 0
M  V30 12398 H 1155.52 -1.25397 2.87983 0
M  V30 12399 H 1154.71 -0.240176 5.03427 0
M  V30 12400 H 1154.31 0.806423 3.65202 0
M  V30 12401 H 1156.6 0.232526 6.77101 0
M  V30 12402 H 1157.55 1.75412 6.86029 0
M  V30 12403 H 1157.95 0.531692 5.6199 0
M  V30 12404 N 1157.35 -1.41121 0.701616 0
M  V30 12405 C 1158.58 -2.05452 0.244365 0
M  V30 12406 C 1159 -1.5282 -1.10866 0
M  V30 12407 O 1158.35 -0.67893 -1.69401 0
M  V30 12408 C 1158.4 -3.60946 0.200112 0
M  V30 12409 O 1158.12 -4.11632 1.4997 0
M  V30 12410 C 1159.63 -4.42431 -0.277394 0
M  V30 12411 H 1156.85 -0.66151 0.112453 0
M  V30 12412 H 1159.39 -1.80784 0.9559 0
M  V30 12413 H 1157.54 -3.84632 -0.462287 0
M  V30 12414 H 1157.96 -5.05723 1.39084 0
M  V30 12415 H 1159.43 -5.514 -0.257225 0
M  V30 12416 H 1159.91 -4.1898 -1.31728 0
M  V30 12417 H 1160.52 -4.23822 0.354223 0
M  V30 12418 N 1158.83 -0.446794 -1.51134 0
M  V30 12419 C 1160.08 0.116666 -2.02464 0
M  V30 12420 C 1160.41 1.41532 -1.32975 0
M  V30 12421 O 1159.68 1.89278 -0.447651 0
M  V30 12422 C 1159.97 0.325659 -3.58624 0
M  V30 12423 C 1159.82 -0.992307 -4.38718 0
M  V30 12424 C 1161.14 1.09121 -4.26357 0
M  V30 12425 H 1158.26 0.0409262 -0.735863 0
M  V30 12426 H 1160.9 -0.587641 -1.80684 0
M  V30 12427 H 1159.05 0.925585 -3.77313 0
M  V30 12428 H 1160.72 -1.62694 -4.31658 0
M  V30 12429 H 1158.97 -1.5947 -4.03425 0
M  V30 12430 H 1159.64 -0.800005 -5.46172 0
M  V30 12431 H 1162.11 0.582944 -4.11996 0
M  V30 12432 H 1160.99 1.20621 -5.35483 0
M  V30 12433 H 1161.25 2.12171 -3.87861 0
M  V30 12434 N 1160.31 1.56586 -0.178487 0
M  V30 12435 C 1161.27 2.17091 0.73512 0
M  V30 12436 C 1162.27 1.12088 1.15295 0
M  V30 12437 O 1163.46 1.37563 1.06874 0
M  V30 12438 C 1160.59 2.75957 2.00151 0
M  V30 12439 H 1161.79 2.99176 0.208272 0
M  V30 12440 H 1159.34 1.56138 0.0710967 0
M  V30 12441 H 1160.07 1.97626 2.57127 0
M  V30 12442 H 1159.86 3.52809 1.7108 0
M  V30 12443 H 1161.35 3.2247 2.65335 0
M  V30 12444 N 1161.79 -0.095206 1.57312 0
M  V30 12445 C 1163.04 -0.797417 1.85268 0
M  V30 12446 C 1163.35 -1.79903 0.767733 0
M  V30 12447 O 1164.55 -2.54914 0.934409 0
M  V30 12448 C 1163.01 -1.469 3.28555 0
M  V30 12449 C 1162.62 -0.507152 4.4512 0
M  V30 12450 C 1164.36 -2.15494 3.65735 0
M  V30 12451 C 1162.27 -1.18331 5.79441 0
M  V30 12452 H 1161.2 -0.301552 0.691074 0
M  V30 12453 H 1163.85 -0.0503584 1.83431 0
M  V30 12454 H 1162.23 -2.26351 3.24933 0
M  V30 12455 H 1163.41 0.255858 4.60089 0
M  V30 12456 H 1161.72 0.0730882 4.16336 0
M  V30 12457 H 1164.32 -2.66816 4.63371 0
M  V30 12458 H 1164.66 -2.94383 2.94354 0
M  V30 12459 H 1165.19 -1.42903 3.71246 0
M  V30 12460 H 1161.93 -0.435238 6.54053 0
M  V30 12461 H 1161.45 -1.91775 5.68315 0
M  V30 12462 H 1163.13 -1.70983 6.23998 0
M  V30 12463 N 1163.26 -1.53291 -0.366026 0
M  V30 12464 C 1164.19 -1.82675 -1.45437 0
M  V30 12465 C 1165.18 -0.680227 -1.55907 0
M  V30 12466 O 1166.36 -0.930032 -1.70482 0
M  V30 12467 C 1163.49 -2.01626 -2.8278 0
M  V30 12468 C 1162.44 -3.17391 -2.87135 0
M  V30 12469 C 1161.77 -3.21634 -4.27148 0
M  V30 12470 C 1163.07 -4.5599 -2.54697 0
M  V30 12471 H 1164.76 -2.73818 -1.21096 0
M  V30 12472 H 1162.31 -1.31754 -0.581108 0
M  V30 12473 H 1164.26 -2.20765 -3.58944 0
M  V30 12474 H 1162.99 -1.07193 -3.08508 0
M  V30 12475 H 1161.65 -2.98071 -2.13422 0
M  V30 12476 H 1161.29 -2.2484 -4.49951 0
M  V30 12477 H 1160.99 -3.99414 -4.30978 0
M  V30 12478 H 1162.52 -3.42957 -5.05186 0
M  V30 12479 H 1163.93 -4.75294 -3.20575 0
M  V30 12480 H 1162.33 -5.36008 -2.69844 0
M  V30 12481 H 1163.4 -4.61133 -1.49949 0
M  V30 12482 N 1164.74 0.6258 -1.44643 0
M  V30 12483 C 1165.67 1.74858 -1.54748 0
M  V30 12484 C 1166.65 1.65327 -0.400138 0
M  V30 12485 O 1167.84 1.84005 -0.620948 0
M  V30 12486 C 1164.97 3.13408 -1.49643 0
M  V30 12487 C 1163.92 3.37733 -2.62908 0
M  V30 12488 C 1163.25 4.76367 -2.42855 0
M  V30 12489 C 1164.55 3.29771 -4.05029 0
M  V30 12490 H 1166.24 1.66658 -2.48728 0
M  V30 12491 H 1163.79 0.800363 -1.19709 0
M  V30 12492 H 1165.74 3.91735 -1.55312 0
M  V30 12493 H 1164.47 3.22404 -0.521824 0
M  V30 12494 H 1163.12 2.61788 -2.56637 0
M  V30 12495 H 1162.77 4.82074 -1.43575 0
M  V30 12496 H 1162.47 4.936 -3.18799 0
M  V30 12497 H 1164 5.56917 -2.50351 0
M  V30 12498 H 1165.41 3.97996 -4.12641 0
M  V30 12499 H 1163.81 3.58538 -4.81218 0
M  V30 12500 H 1164.88 2.27493 -4.28223 0
M  V30 12501 N 1166.22 1.31629 0.866686 0
M  V30 12502 C 1167.47 1.21683 1.62238 0
M  V30 12503 C 1167.8 -0.223767 1.92907 0
M  V30 12504 O 1167.07 -1.15761 1.563 0
M  V30 12505 C 1167.36 2.06443 2.95048 0
M  V30 12506 C 1167.21 3.58818 2.71237 0
M  V30 12507 C 1168.53 1.91634 3.96187 0
M  V30 12508 H 1165.65 0.443389 0.588707 0
M  V30 12509 H 1168.29 1.61453 1.00164 0
M  V30 12510 H 1166.44 1.72654 3.48027 0
M  V30 12511 H 1168.11 4.0276 2.24905 0
M  V30 12512 H 1166.36 3.82085 2.05411 0
M  V30 12513 H 1167.03 4.13436 3.65752 0
M  V30 12514 H 1169.5 2.21209 3.52428 0
M  V30 12515 H 1168.38 2.53236 4.86993 0
M  V30 12516 H 1168.64 0.880564 4.33242 0
M  V30 12517 N 1167.7 -1.08142 1.14644 0
M  V30 12518 C 1168.63 -2.14476 0.779437 0
M  V30 12519 C 1169.61 -1.60812 -0.240454 0
M  V30 12520 O 1170.79 -1.88059 -0.128881 0
M  V30 12521 C 1167.92 -3.38333 0.157692 0
M  V30 12522 C 1166.97 -4.10754 1.14819 0
M  V30 12523 S 1167.8 -4.63227 2.68666 0
M  V30 12524 C 1168.96 -5.90367 2.07888 0
M  V30 12525 H 1169.19 -2.45276 1.68009 0
M  V30 12526 H 1166.72 -1.20292 0.967942 0
M  V30 12527 H 1168.68 -4.10038 -0.194607 0
M  V30 12528 H 1167.34 -3.05726 -0.720435 0
M  V30 12529 H 1166.53 -4.99644 0.661226 0
M  V30 12530 H 1166.14 -3.44974 1.44462 0
M  V30 12531 H 1168.43 -6.62107 1.43599 0
M  V30 12532 H 1169.37 -6.43764 2.94913 0
M  V30 12533 H 1169.78 -5.43507 1.52514 0
M  V30 12534 N 1169.18 -0.941978 -1.26351 0
M  V30 12535 C 1170.09 -0.45833 -2.30079 0
M  V30 12536 C 1171.1 0.468084 -1.67586 0
M  V30 12537 O 1172.28 0.347418 -1.98381 0
M  V30 12538 C 1169.34 0.26797 -3.45663 0
M  V30 12539 C 1168.41 -0.695102 -4.23635 0
M  V30 12540 C 1167.64 -0.003369 -5.337 0
M  V30 12541 O 1167.86 1.21342 -5.57344 0
M  V30 12542 O 1166.8 -0.682476 -5.98018 0
M  V30 12543 H 1170.62 -1.31998 -2.73514 0
M  V30 12544 H 1168.21 -0.707897 -1.31564 0
M  V30 12545 H 1170.09 0.677061 -4.15925 0
M  V30 12546 H 1168.76 1.105 -3.04256 0
M  V30 12547 H 1167.67 -1.15415 -3.55851 0
M  V30 12548 H 1169 -1.49977 -4.68794 0
M  V30 12549 N 1170.66 1.40747 -0.709091 0
M  V30 12550 C 1171.9 2.00606 -0.245324 0
M  V30 12551 C 1172.22 1.56489 1.16346 0
M  V30 12552 O 1171.49 0.801456 1.78755 0
M  V30 12553 H 1170.07 0.741833 -0.0877098 0
M  V30 12554 H 1172.74 1.72178 -0.913271 0
M  V30 12555 H 1171.83 3.10901 -0.273322 0
M  V30 12556 N 1172.13 0.454803 1.50895 0
M  V30 12557 C 1173.06 -0.337982 2.31041 0
M  V30 12558 C 1174.04 -1.00523 1.37219 0
M  V30 12559 O 1175.23 -1.00553 1.66141 0
M  V30 12560 C 1172.36 -1.42964 3.1651 0
M  V30 12561 C 1171.31 -0.884907 4.18752 0
M  V30 12562 C 1170.64 -2.07363 4.92854 0
M  V30 12563 C 1171.94 0.0926716 5.22218 0
M  V30 12564 H 1173.63 0.33089 2.97566 0
M  V30 12565 H 1171.18 0.160577 1.43102 0
M  V30 12566 H 1173.13 -1.9916 3.71367 0
M  V30 12567 H 1171.86 -2.12705 2.47839 0
M  V30 12568 H 1170.52 -0.345031 3.64973 0
M  V30 12569 H 1170.16 -2.75764 4.2067 0
M  V30 12570 H 1169.86 -1.71545 5.62002 0
M  V30 12571 H 1171.39 -2.6408 5.5054 0
M  V30 12572 H 1172.8 -0.379568 5.72042 0
M  V30 12573 H 1171.2 0.3643 5.98993 0
M  V30 12574 H 1172.27 1.02383 4.73968 0
M  V30 12575 N 1173.61 -1.56489 0.186789 0
M  V30 12576 C 1174.84 -2.02163 -0.463126 0
M  V30 12577 C 1175.26 -1.06612 -1.54969 0
M  V30 12578 O 1174.62 -0.0482139 -1.81236 0
M  V30 12579 C 1174.67 -3.46337 -1.00416 0
M  V30 12580 O 1173.77 -3.53889 -2.11747 0
M  V30 12581 H 1173.11 -0.65496 -0.109194 0
M  V30 12582 H 1175.64 -2.02459 0.295227 0
M  V30 12583 H 1175.65 -3.85959 -1.32287 0
M  V30 12584 H 1174.33 -4.15376 -0.208693 0
M  V30 12585 H 1172.9 -3.26136 -1.80803 0
M  V30 12586 N 1175.09 0.086862 -1.5736 0
M  V30 12587 C 1176.05 1.08906 -2.01673 0
M  V30 12588 C 1177.05 1.32473 -0.911463 0
M  V30 12589 O 1178.24 1.28447 -1.17673 0
M  V30 12590 C 1175.37 2.43629 -2.38449 0
M  V30 12591 H 1176.57 0.707461 -2.91436 0
M  V30 12592 H 1174.12 0.332154 -1.5273 0
M  V30 12593 H 1174.86 2.8665 -1.51665 0
M  V30 12594 H 1174.64 2.2787 -3.19089 0
M  V30 12595 H 1176.13 3.15695 -2.73361 0
M  V30 12596 N 1176.57 1.53483 0.357892 0
M  V30 12597 C 1177.81 1.70037 1.09971 0
M  V30 12598 C 1178.14 0.456112 1.89076 0
M  V30 12599 O 1177.4 -0.562029 1.87456 0
M  V30 12600 C 1177.7 2.90654 2.07978 0
M  V30 12601 C 1177.36 4.26849 1.45295 0
M  V30 12602 C 1176.02 4.63884 1.27928 0
M  V30 12603 C 1178.38 5.11514 1.00013 0
M  V30 12604 C 1175.7 5.83213 0.638745 0
M  V30 12605 C 1178.06 6.31496 0.373568 0
M  V30 12606 C 1176.72 6.67237 0.187457 0
M  V30 12607 H 1175.99 0.622209 0.402414 0
M  V30 12608 H 1178.64 1.87679 0.380615 0
M  V30 12609 H 1176.94 2.67556 2.86219 0
M  V30 12610 H 1178.64 3.00656 2.65343 0
M  V30 12611 H 1175.23 3.97693 1.59807 0
M  V30 12612 H 1179.41 4.83446 1.12221 0
M  V30 12613 H 1174.67 6.09489 0.483035 0
M  V30 12614 H 1178.84 6.96398 0.0145346 0
M  V30 12615 H 1176.47 7.59564 -0.310933 0
M  V30 12616 N 1178.05 -0.61812 1.44973 0
M  V30 12617 C 1178.98 -1.74035 1.55673 0
M  V30 12618 C 1179.96 -1.65112 0.4089 0
M  V30 12619 O 1181.14 -1.83673 0.630698 0
M  V30 12620 C 1178.27 -3.1261 1.51303 0
M  V30 12621 C 1177.23 -3.36334 2.64696 0
M  V30 12622 C 1176.55 -4.75072 2.45378 0
M  V30 12623 C 1177.85 -3.27618 4.06772 0
M  V30 12624 H 1179.55 -1.65336 2.49608 0
M  V30 12625 H 1177.09 -0.794003 1.20132 0
M  V30 12626 H 1179.04 -3.90906 1.57388 0
M  V30 12627 H 1177.77 -3.22123 0.538914 0
M  V30 12628 H 1176.43 -2.60423 2.58022 0
M  V30 12629 H 1176.08 -4.81306 1.46129 0
M  V30 12630 H 1175.78 -4.91903 3.21412 0
M  V30 12631 H 1177.3 -5.55582 2.53301 0
M  V30 12632 H 1178.71 -3.95802 4.14746 0
M  V30 12633 H 1177.11 -3.55981 4.83113 0
M  V30 12634 H 1178.18 -2.25219 4.29423 0
M  V30 12635 N 1179.52 -1.32087 -0.859693 0
M  V30 12636 C 1180.47 -1.17188 -1.95578 0
M  V30 12637 C 1181.46 -0.0801302 -1.607 0
M  V30 12638 O 1182.65 -0.306118 -1.74333 0
M  V30 12639 C 1179.78 -0.891916 -3.31511 0
M  V30 12640 C 1178.86 -2.02513 -3.72625 0
M  V30 12641 N 1179.26 -3.27321 -3.85609 0
M  V30 12642 C 1177.55 -1.92717 -4.02214 0
M  V30 12643 C 1178.25 -4.01513 -4.20906 0
M  V30 12644 N 1177.23 -3.29767 -4.32151 0
M  V30 12645 H 1181.03 -2.11816 -2.03743 0
M  V30 12646 H 1178.55 -1.23794 -1.05114 0
M  V30 12647 H 1180.54 -0.766143 -4.098 0
M  V30 12648 H 1179.2 0.0460349 -3.24667 0
M  V30 12649 H 1180.21 -3.62317 -3.70063 0
M  V30 12650 H 1176.89 -1.06452 -4.03701 0
M  V30 12651 H 1178.28 -5.09116 -4.38463 0
M  V30 12652 N 1181 1.07532 -1.15215 0
M  V30 12653 C 1181.96 2.1286 -0.84989 0
M  V30 12654 C 1182.96 1.60103 0.149524 0
M  V30 12655 O 1184.15 1.74017 -0.0798918 0
M  V30 12656 C 1181.29 3.3984 -0.268617 0
M  V30 12657 H 1182.48 2.41106 -1.78347 0
M  V30 12658 H 1180.03 1.23392 -0.959386 0
M  V30 12659 H 1180.77 3.17235 0.67325 0
M  V30 12660 H 1180.55 3.79433 -0.988592 0
M  V30 12661 H 1182.04 4.17533 -0.0746554 0
M  V30 12662 N 1182.48 0.948665 1.2585 0
M  V30 12663 C 1183.41 0.482036 2.2847 0
M  V30 12664 C 1184.39 -0.468553 1.63519 0
M  V30 12665 O 1185.58 -0.368796 1.90666 0
M  V30 12666 C 1182.71 -0.246603 3.46423 0
M  V30 12667 C 1181.66 0.61815 4.23513 0
M  V30 12668 C 1180.99 -0.240884 5.34157 0
M  V30 12669 C 1182.29 1.89327 4.86778 0
M  V30 12670 H 1183.98 1.33973 2.67753 0
M  V30 12671 H 1181.53 0.645645 1.28715 0
M  V30 12672 H 1183.48 -0.584135 4.17332 0
M  V30 12673 H 1182.2 -1.13849 3.06114 0
M  V30 12674 H 1180.86 0.938682 3.54379 0
M  V30 12675 H 1180.51 -1.13235 4.90089 0
M  V30 12676 H 1180.21 0.334367 5.86648 0
M  V30 12677 H 1181.73 -0.573517 6.07901 0
M  V30 12678 H 1183.15 1.62252 5.49861 0
M  V30 12679 H 1181.55 2.41369 5.49419 0
M  V30 12680 H 1182.62 2.60006 4.09298 0
M  V30 12681 N 1183.96 -1.40369 0.716545 0
M  V30 12682 C 1185.37 -1.54757 0.390202 0
M  V30 12683 C 1185.57 -1.68767 -1.10091 0
M  V30 12684 O 1184.63 -1.67779 -1.88697 0
M  V30 12685 C 1185.94 -2.77546 1.15709 0
M  V30 12686 C 1187.49 -2.91364 1.14349 0
M  V30 12687 C 1187.97 -4.17068 1.89256 0
M  V30 12688 N 1189.46 -4.2407 1.8633 0
M  V30 12689 C 1190.19 -5.20243 2.41112 0
M  V30 12690 N 1189.69 -6.22318 3.04454 0
M  V30 12691 N 1191.48 -5.12328 2.31249 0
M  V30 12692 H 1183.63 -1.29521 1.68339 0
M  V30 12693 H 1185.9 -0.626382 0.711582 0
M  V30 12694 H 1185.6 -2.73474 2.21144 0
M  V30 12695 H 1185.48 -3.69682 0.749347 0
M  V30 12696 H 1187.86 -2.94939 0.0973383 0
M  V30 12697 H 1187.94 -2.00344 1.59047 0
M  V30 12698 H 1187.59 -4.14255 2.93863 0
M  V30 12699 H 1187.52 -5.07099 1.41978 0
M  V30 12700 H 1190.01 -3.50944 1.40168 0
M  V30 12701 H 1190.32 -6.92129 3.43769 0
M  V30 12702 H 1188.67 -6.22759 3.08538 0
M  V30 12703 H 1191.86 -4.31514 1.8142 0
M  V30 12704 H 1192.03 -5.87107 2.74243 0
M  V30 12705 N 1185.44 -0.462799 -1.50652 0
M  V30 12706 C 1186.37 0.325724 -2.31217 0
M  V30 12707 C 1187.35 0.997942 -1.3775 0
M  V30 12708 O 1188.53 0.996707 -1.66671 0
M  V30 12709 C 1185.66 1.41283 -3.17264 0
M  V30 12710 C 1184.62 0.862687 -4.19216 0
M  V30 12711 C 1183.94 2.04746 -4.93946 0
M  V30 12712 C 1185.24 -0.120365 -5.22161 0
M  V30 12713 H 1186.94 -0.346666 -2.97386 0
M  V30 12714 H 1184.48 -0.168163 -1.43015 0
M  V30 12715 H 1186.44 1.97188 -3.72418 0
M  V30 12716 H 1185.16 2.11387 -2.48964 0
M  V30 12717 H 1183.82 0.325671 -3.65151 0
M  V30 12718 H 1183.47 2.73529 -4.22127 0
M  V30 12719 H 1183.17 1.68562 -5.62904 0
M  V30 12720 H 1184.69 2.61157 -5.51932 0
M  V30 12721 H 1186.1 0.349226 -5.72235 0
M  V30 12722 H 1184.5 -0.396061 -5.98792 0
M  V30 12723 H 1185.57 -1.04895 -4.73418 0
M  V30 12724 N 1186.91 1.56388 -0.195085 0
M  V30 12725 C 1187.86 2.15705 0.738595 0
M  V30 12726 C 1188.85 1.09782 1.1763 0
M  V30 12727 O 1190.04 1.35844 1.1347 0
M  V30 12728 C 1187.17 2.81994 1.95791 0
M  V30 12729 C 1186.26 3.95108 1.54111 0
M  V30 12730 N 1186.65 4.98856 0.835261 0
M  V30 12731 C 1184.94 4.06709 1.8304 0
M  V30 12732 C 1185.65 5.78317 0.626417 0
M  V30 12733 N 1184.62 5.30746 1.17513 0
M  V30 12734 H 1188.42 2.93281 0.190597 0
M  V30 12735 H 1185.94 1.62399 0.00470391 0
M  V30 12736 H 1187.93 3.22883 2.63728 0
M  V30 12737 H 1186.59 2.05906 2.51063 0
M  V30 12738 H 1187.61 5.1557 0.490732 0
M  V30 12739 H 1184.28 3.41749 2.39821 0
M  V30 12740 H 1185.67 6.71867 0.0664935 0
M  V30 12741 N 1188.39 -0.0785156 1.57404 0
M  V30 12742 C 1189.64 -0.774884 1.88061 0
M  V30 12743 C 1189.99 -1.75525 0.787966 0
M  V30 12744 O 1189.29 -1.90462 -0.208514 0
M  V30 12745 C 1189.48 -1.52826 3.23078 0
M  V30 12746 C 1189.31 -0.62236 4.45373 0
M  V30 12747 C 1188.08 -0.261831 5.04621 0
M  V30 12748 C 1190.28 0.077964 5.14241 0
M  V30 12749 N 1188.26 0.650492 6.10444 0
M  V30 12750 C 1189.63 0.847727 6.14177 0
M  V30 12751 C 1191.69 0.150143 4.97674 0
M  V30 12752 C 1190.39 1.68295 6.99335 0
M  V30 12753 C 1192.41 0.972321 5.83352 0
M  V30 12754 C 1191.78 1.73015 6.82821 0
M  V30 12755 H 1187.88 -0.259194 0.737796 0
M  V30 12756 H 1190.46 -0.0366796 1.94665 0
M  V30 12757 H 1188.63 -2.23723 3.17494 0
M  V30 12758 H 1190.36 -2.17311 3.41406 0
M  V30 12759 H 1187.12 -0.613197 4.69614 0
M  V30 12760 H 1187.54 1.0997 6.68009 0
M  V30 12761 H 1192.18 -0.421423 4.20695 0
M  V30 12762 H 1189.9 2.26552 7.75693 0
M  V30 12763 H 1193.49 1.03106 5.72591 0
M  V30 12764 H 1192.37 2.35609 7.47969 0
M  V30 12765 N 1189.87 -1.5367 -0.349747 0
M  V30 12766 C 1191.12 -1.7087 -1.0923 0
M  V30 12767 C 1191.45 -0.467299 -1.88494 0
M  V30 12768 O 1190.72 0.535619 -1.8698 0
M  V30 12769 C 1191.01 -2.9684 -2.03858 0
M  V30 12770 C 1190.86 -4.31174 -1.28097 0
M  V30 12771 C 1192.18 -3.18459 -3.03763 0
M  V30 12772 H 1189.3 -0.621757 -0.395711 0
M  V30 12773 H 1191.94 -1.86333 -0.371481 0
M  V30 12774 H 1190.09 -2.83788 -2.65323 0
M  V30 12775 H 1191.76 -4.56066 -0.692933 0
M  V30 12776 H 1190.01 -4.29866 -0.582924 0
M  V30 12777 H 1190.68 -5.15482 -1.9744 0
M  V30 12778 H 1193.15 -3.30801 -2.52409 0
M  V30 12779 H 1192.03 -4.08006 -3.67182 0
M  V30 12780 H 1192.29 -2.34467 -3.74803 0
M  V30 12781 N 1191.35 0.610423 -1.45298 0
M  V30 12782 C 1192.26 1.74964 -1.56285 0
M  V30 12783 C 1193.27 1.68149 -0.447436 0
M  V30 12784 O 1194.45 1.88556 -0.707725 0
M  V30 12785 C 1191.52 3.11417 -1.52383 0
M  V30 12786 C 1190.58 3.29707 -2.7494 0
M  V30 12787 C 1189.81 4.5965 -2.71215 0
M  V30 12788 O 1190.03 5.41789 -1.78383 0
M  V30 12789 O 1188.97 4.80591 -3.62375 0
M  V30 12790 H 1192.79 1.68646 -2.52571 0
M  V30 12791 H 1190.38 0.774168 -1.27777 0
M  V30 12792 H 1192.26 3.9272 -1.52805 0
M  V30 12793 H 1190.93 3.18232 -0.592472 0
M  V30 12794 H 1189.84 2.48003 -2.80081 0
M  V30 12795 H 1191.17 3.27766 -3.67192 0
M  V30 12796 N 1192.83 1.32541 0.852676 0
M  V30 12797 C 1194.07 1.23214 1.607 0
M  V30 12798 C 1194.4 -0.205542 1.93411 0
M  V30 12799 O 1193.66 -1.15907 1.57683 0
M  V30 12800 C 1193.96 2.039 2.9353 0
M  V30 12801 C 1193.62 3.53237 2.8024 0
M  V30 12802 C 1192.28 3.93953 2.76323 0
M  V30 12803 C 1194.64 4.48194 2.6603 0
M  V30 12804 C 1191.96 5.27865 2.56077 0
M  V30 12805 C 1194.32 5.82251 2.47319 0
M  V30 12806 C 1192.98 6.22166 2.41796 0
M  V30 12807 H 1192.25 0.450873 0.588043 0
M  V30 12808 H 1194.9 1.63988 0.988954 0
M  V30 12809 H 1193.2 1.55861 3.59464 0
M  V30 12810 H 1194.9 1.94051 3.50921 0
M  V30 12811 H 1191.49 3.209 2.84114 0
M  V30 12812 H 1195.67 4.17656 2.681 0
M  V30 12813 H 1190.93 5.57845 2.50237 0
M  V30 12814 H 1195.1 6.55442 2.35305 0
M  V30 12815 H 1192.73 7.2587 2.25868 0
M  V30 12816 N 1194.3 -1.0692 1.15784 0
M  V30 12817 C 1195.24 -2.14168 0.816375 0
M  V30 12818 C 1196.25 -1.61872 -0.17357 0
M  V30 12819 O 1197.44 -1.78429 0.0502973 0
M  V30 12820 C 1194.54 -3.38346 0.193682 0
M  V30 12821 C 1193.71 -4.19979 1.22215 0
M  V30 12822 C 1192.77 -5.2253 0.620424 0
M  V30 12823 O 1191.8 -5.54446 1.28757 0
M  V30 12824 N 1193 -5.77434 -0.595811 0
M  V30 12825 H 1195.76 -2.44062 1.73937 0
M  V30 12826 H 1193.32 -1.22865 1.05431 0
M  V30 12827 H 1195.32 -4.04092 -0.22174 0
M  V30 12828 H 1193.89 -3.06129 -0.632735 0
M  V30 12829 H 1193.11 -3.49984 1.81397 0
M  V30 12830 H 1194.39 -4.71329 1.91641 0
M  V30 12831 H 1193.79 -5.5376 -1.15611 0
M  V30 12832 H 1192.35 -6.44788 -0.953529 0
M  V30 12833 N 1195.78 -0.955326 -1.25345 0
M  V30 12834 C 1196.73 -0.467205 -2.2786 0
M  V30 12835 C 1197.72 0.462873 -1.62954 0
M  V30 12836 O 1198.93 0.339526 -1.76769 0
M  V30 12837 H 1195.31 -0.132586 -0.74022 0
M  V30 12838 H 1197.28 -1.34406 -2.66416 0
M  V30 12839 C 1196.03 0.238898 -3.46878 0
M  V30 12840 H 1195.35 -0.467644 -3.97056 0
M  V30 12841 H 1196.79 0.544444 -4.2049 0
M  V30 12842 C 1195.25 1.46164 -3.03542 0
M  V30 12843 O 1195.78 2.55933 -3.09615 0
M  V30 12844 N 1193.98 1.32324 -2.58725 0
M  V30 12845 H 1193.53 0.430131 -2.53984 0
M  V30 12846 H 1193.49 2.14253 -2.30094 0
M  V30 12847 N 1197.26 1.39987 -0.723979 0
M  V30 12848 C 1198.21 2.30672 -0.0768286 0
M  V30 12849 C 1199.18 1.48634 0.741422 0
M  V30 12850 O 1200.36 1.77351 0.703649 0
M  V30 12851 C 1197.5 3.34902 0.832729 0
M  V30 12852 C 1196.62 4.32 0.00304942 0
M  V30 12853 C 1195.75 5.23298 0.91286 0
M  V30 12854 C 1194.79 6.12051 0.0777706 0
M  V30 12855 N 1193.93 6.9574 0.942912 0
M  V30 12856 H 1198.77 2.85446 -0.855832 0
M  V30 12857 H 1196.3 1.40561 -0.433718 0
M  V30 12858 H 1198.26 3.93911 1.37441 0
M  V30 12859 H 1196.89 2.81611 1.57782 0
M  V30 12860 H 1195.94 3.74702 -0.655916 0
M  V30 12861 H 1197.26 4.94637 -0.643124 0
M  V30 12862 H 1196.41 5.87279 1.52277 0
M  V30 12863 H 1195.15 4.60956 1.59284 0
M  V30 12864 H 1194.15 5.47092 -0.545022 0
M  V30 12865 H 1195.38 6.76455 -0.598827 0
M  V30 12866 H 1193.33 6.35977 1.60838 0
M  V30 12867 H 1193.24 7.55176 0.352968 0
M  V30 12868 H 1194.51 7.64162 1.53874 0
M  V30 12869 N 1198.74 0.470782 1.50404 0
M  V30 12870 C 1199.99 -0.084316 2.02324 0
M  V30 12871 C 1200.31 -1.39749 1.35279 0
M  V30 12872 O 1199.57 -1.90037 0.467364 0
M  V30 12873 C 1199.87 -0.316419 3.55997 0
M  V30 12874 C 1199.53 0.915017 4.41518 0
M  V30 12875 C 1198.2 1.25265 4.6461 0
M  V30 12876 C 1200.55 1.73494 4.91477 0
M  V30 12877 C 1197.88 2.41027 5.34905 0
M  V30 12878 C 1200.23 2.88384 5.63043 0
M  V30 12879 C 1198.89 3.22562 5.84389 0
M  V30 12880 H 1198.16 -0.0308534 0.740357 0
M  V30 12881 H 1200.81 0.624799 1.81021 0
M  V30 12882 H 1199.11 -1.10778 3.75813 0
M  V30 12883 H 1200.81 -0.759882 3.93734 0
M  V30 12884 H 1197.4 0.641977 4.23765 0
M  V30 12885 H 1201.59 1.48728 4.73491 0
M  V30 12886 H 1196.84 2.67781 5.49639 0
M  V30 12887 H 1201.02 3.52264 6.00735 0
M  V30 12888 H 1198.64 4.1237 6.38635 0
M  V30 12889 N 1200.22 -1.56282 0.203376 0
M  V30 12890 C 1201.45 -2.01905 -0.437936 0
M  V30 12891 C 1201.86 -1.08263 -1.55164 0
M  V30 12892 O 1201.2 -0.0811746 -1.83521 0
M  V30 12893 C 1201.26 -3.43908 -1.04725 0
M  V30 12894 C 1200.92 -4.56944 -0.0712582 0
M  V30 12895 C 1201.92 -5.14856 0.72243 0
M  V30 12896 C 1199.61 -5.02282 0.0422267 0
M  V30 12897 C 1201.6 -6.16562 1.61649 0
M  V30 12898 C 1199.29 -6.0383 0.939835 0
M  V30 12899 C 1200.29 -6.60844 1.72552 0
M  V30 12900 O 1199.97 -7.60417 2.60808 0
M  V30 12901 H 1199.71 -0.666416 -0.11343 0
M  V30 12902 H 1202.26 -2.03019 0.311833 0
M  V30 12903 H 1200.49 -3.39806 -1.84577 0
M  V30 12904 H 1202.18 -3.73288 -1.59407 0
M  V30 12905 H 1202.94 -4.80691 0.645105 0
M  V30 12906 H 1198.82 -4.57596 -0.559165 0
M  V30 12907 H 1202.37 -6.6099 2.23019 0
M  V30 12908 H 1198.26 -6.37418 1.01824 0
M  V30 12909 H 1199.03 -7.77869 2.54679 0
M  V30 12910 N 1201.7 0.070167 -1.57444 0
M  V30 12911 C 1202.92 0.785703 -1.91941 0
M  V30 12912 C 1203.35 1.70243 -0.799932 0
M  V30 12913 O 1202.7 1.79608 0.247139 0
M  V30 12914 C 1202.75 1.55398 -3.25398 0
M  V30 12915 O 1201.86 2.66475 -3.14746 0
M  V30 12916 H 1201.2 0.214245 -0.628486 0
M  V30 12917 H 1203.73 0.0379243 -2.04565 0
M  V30 12918 H 1203.74 1.93287 -3.5931 0
M  V30 12919 H 1202.41 0.881366 -4.06454 0
M  V30 12920 H 1200.99 2.3143 -2.92394 0
M  V30 12921 N 1203.17 1.53854 0.341593 0
M  V30 12922 C 1204.42 1.70856 1.07948 0
M  V30 12923 C 1204.74 0.475474 1.89114 0
M  V30 12924 O 1204.01 -0.510592 1.89129 0
M  V30 12925 H 1202.59 0.629914 0.401519 0
M  V30 12926 H 1205.25 1.91112 0.382393 0
M  V30 12927 H 1204.35 2.5803 1.75575 0
M  V30 12928 N 1204.65 -0.602709 1.4562 0
M  V30 12929 C 1205.88 -1.3881 1.53426 0
M  V30 12930 C 1206.29 -1.88046 0.16851 0
M  V30 12931 O 1205.65 -1.62493 -0.830791 0
M  V30 12932 C 1205.7 -2.58927 2.52268 0
M  V30 12933 O 1205.42 -2.11735 3.83536 0
M  V30 12934 C 1206.92 -3.51728 2.69819 0
M  V30 12935 H 1204.14 -0.424744 0.519455 0
M  V30 12936 H 1206.69 -0.73459 1.90851 0
M  V30 12937 H 1204.84 -3.20309 2.17902 0
M  V30 12938 H 1205.26 -2.89814 4.37159 0
M  V30 12939 H 1206.73 -4.32542 3.42945 0
M  V30 12940 H 1207.21 -4.02383 1.76024 0
M  V30 12941 H 1207.81 -2.96196 3.05202 0
M  V30 12942 N 1206.13 -1.32992 -0.845635 0
M  V30 12943 C 1207.38 -1.2382 -1.59728 0
M  V30 12944 C 1207.7 0.197724 -1.93995 0
M  V30 12945 O 1206.97 1.12477 -1.60392 0
M  V30 12946 H 1205.55 -0.455296 -0.592212 0
M  V30 12947 H 1208.21 -1.66627 -1.01101 0
M  V30 12948 H 1207.31 -1.82717 -2.53023 0
M  V30 12949 N 1207.61 1.06304 -1.1635 0
M  V30 12950 C 1208.84 1.82534 -0.967725 0
M  V30 12951 C 1209.25 1.82816 0.487338 0
M  V30 12952 O 1208.59 1.24581 1.35001 0
M  V30 12953 C 1208.65 3.30349 -1.4181 0
M  V30 12954 C 1208.31 3.53769 -2.89303 0
M  V30 12955 C 1209.31 3.46826 -3.87308 0
M  V30 12956 C 1207 3.81094 -3.2722 0
M  V30 12957 C 1208.99 3.66874 -5.21232 0
M  V30 12958 C 1206.68 4.00792 -4.61313 0
M  V30 12959 C 1207.68 3.93679 -5.58127 0
M  V30 12960 O 1207.36 4.12839 -6.89796 0
M  V30 12961 H 1207.1 0.582407 -0.343189 0
M  V30 12962 H 1209.65 1.35022 -1.54784 0
M  V30 12963 H 1207.88 3.78722 -0.781456 0
M  V30 12964 H 1209.57 3.88072 -1.18976 0
M  V30 12965 H 1210.33 3.25706 -3.59361 0
M  V30 12966 H 1206.21 3.85739 -2.5244 0
M  V30 12967 H 1209.76 3.61238 -5.96786 0
M  V30 12968 H 1205.65 4.214 -4.8897 0
M  V30 12969 H 1206.42 4.30128 -6.96371 0
M  V30 12970 N 1209.09 0.96196 1.24836 0
M  V30 12971 C 1210.03 0.48686 2.25607 0
M  V30 12972 C 1211 -0.464546 1.59472 0
M  V30 12973 O 1212.19 -0.376179 1.87055 0
M  V30 12974 C 1209.33 -0.222294 3.44383 0
M  V30 12975 C 1208.44 0.767206 4.25133 0
M  V30 12976 C 1207.58 0.0347458 5.31189 0
M  V30 12977 C 1206.61 1.01469 6.03631 0
M  V30 12978 N 1205.75 0.312619 7.01404 0
M  V30 12979 H 1210.59 1.35104 2.65614 0
M  V30 12980 H 1208.13 0.677373 1.30576 0
M  V30 12981 H 1210.09 -0.650087 4.12104 0
M  V30 12982 H 1208.72 -1.05047 3.0523 0
M  V30 12983 H 1207.77 1.31346 3.57005 0
M  V30 12984 H 1209.08 1.5147 4.75245 0
M  V30 12985 H 1208.23 -0.451325 6.05019 0
M  V30 12986 H 1206.97 -0.745485 4.81969 0
M  V30 12987 H 1205.98 1.51169 5.28609 0
M  V30 12988 H 1207.2 1.79527 6.5494 0
M  V30 12989 H 1205.15 -0.44874 6.54463 0
M  V30 12990 H 1205.07 0.999079 7.49369 0
M  V30 12991 H 1206.33 -0.151673 7.79352 0
M  V30 12992 N 1210.56 -1.39601 0.731392 0
M  V30 12993 C 1211.49 -2.33268 0.1041 0
M  V30 12994 C 1212.47 -1.53724 -0.728219 0
M  V30 12995 O 1213.66 -1.82131 -0.673933 0
M  V30 12996 C 1210.79 -3.37802 -0.806646 0
M  V30 12997 C 1209.74 -4.27928 -0.0787588 0
M  V30 12998 C 1209.07 -5.23131 -1.10628 0
M  V30 12999 C 1210.37 -5.11086 1.07651 0
M  V30 13000 H 1212.06 -2.85975 0.886496 0
M  V30 13001 H 1209.61 -1.375 0.427746 0
M  V30 13002 H 1211.56 -4.02278 -1.25499 0
M  V30 13003 H 1210.29 -2.83527 -1.62112 0
M  V30 13004 H 1208.95 -3.64926 0.349926 0
M  V30 13005 H 1208.59 -4.65152 -1.91422 0
M  V30 13006 H 1208.29 -5.84277 -0.624043 0
M  V30 13007 H 1209.82 -5.90483 -1.5544 0
M  V30 13008 H 1211.23 -5.68927 0.706781 0
M  V30 13009 H 1209.63 -5.81356 1.48814 0
M  V30 13010 H 1210.7 -4.46131 1.89988 0
M  V30 13011 N 1212.04 -0.478751 -1.50152 0
M  V30 13012 C 1213.27 0.0732929 -2.0727 0
M  V30 13013 C 1213.69 1.32066 -1.33941 0
M  V30 13014 O 1213.05 1.7707 -0.389367 0
M  V30 13015 C 1213.1 0.332528 -3.59064 0
M  V30 13016 O 1212.2 1.41158 -3.8749 0
M  V30 13017 H 1211.54 -0.0163684 -0.663798 0
M  V30 13018 H 1214.07 -0.671993 -1.9325 0
M  V30 13019 H 1214.08 0.570735 -4.03988 0
M  V30 13020 H 1212.76 -0.578934 -4.11851 0
M  V30 13021 H 1211.34 1.16008 -3.54396 0
M  V30 13022 N 1213.52 1.56172 -0.211661 0
M  V30 13023 C 1214.93 1.84307 0.297982 0
M  V30 13024 C 1215.28 1.1328 1.60194 0
M  V30 13025 O 1214.41 0.399137 2.12687 0
M  V30 13026 C 1215 3.34348 0.547428 0
M  V30 13027 C 1213.56 3.62835 1.0014 0
M  V30 13028 C 1212.71 2.77237 0.0590326 0
M  V30 13029 H 1215.66 1.5262 -0.435083 0
M  V30 13030 H 1215.68 3.54018 1.39469 0
M  V30 13031 H 1215.19 3.86015 -0.401778 0
M  V30 13032 H 1213.29 3.16616 1.96431 0
M  V30 13033 H 1213.41 4.70899 0.882653 0
M  V30 13034 H 1211.77 2.48377 0.564005 0
M  V30 13035 H 1212.55 3.31699 -0.884913 0
M  V30 13036 N 1215 -0.0618163 1.57479 0
M  V30 13037 C 1216.25 -0.759069 1.87735 0
M  V30 13038 C 1216.57 -1.77071 0.804732 0
M  V30 13039 O 1215.83 -1.94694 -0.198173 0
M  V30 13040 C 1216.13 -1.4939 3.2468 0
M  V30 13041 C 1215.79 -0.621312 4.46599 0
M  V30 13042 C 1214.46 -0.380873 4.7969 0
M  V30 13043 C 1216.81 -0.0168537 5.21197 0
M  V30 13044 C 1214.14 0.473341 5.84787 0
M  V30 13045 C 1216.49 0.824872 6.27199 0
M  V30 13046 C 1215.15 1.07509 6.58785 0
M  V30 13047 H 1214.42 -0.277763 0.686971 0
M  V30 13048 H 1217.07 -0.0195971 1.9149 0
M  V30 13049 H 1215.37 -2.30584 3.16762 0
M  V30 13050 H 1217.07 -2.03837 3.45328 0
M  V30 13051 H 1213.66 -0.818848 4.20705 0
M  V30 13052 H 1217.84 -0.189707 4.95937 0
M  V30 13053 H 1213.1 0.675842 6.07653 0
M  V30 13054 H 1217.27 1.29993 6.8416 0
M  V30 13055 H 1214.9 1.73876 7.40048 0
M  V30 13056 N 1216.48 -1.54033 -0.333429 0
M  V30 13057 C 1217.7 -1.75716 -1.09232 0
M  V30 13058 C 1218.12 -0.501076 -1.82029 0
M  V30 13059 O 1217.48 0.527772 -1.74702 0
M  V30 13060 C 1217.53 -2.9439 -2.09802 0
M  V30 13061 O 1217.25 -4.15141 -1.39963 0
M  V30 13062 C 1218.75 -3.28206 -2.97987 0
M  V30 13063 H 1215.97 -0.586859 -0.325326 0
M  V30 13064 H 1218.51 -2.0089 -0.382555 0
M  V30 13065 H 1216.67 -2.71518 -2.76327 0
M  V30 13066 H 1217.08 -4.81826 -2.0723 0
M  V30 13067 H 1218.56 -4.14568 -3.64469 0
M  V30 13068 H 1219.03 -2.44944 -3.64553 0
M  V30 13069 H 1219.64 -3.5312 -2.37036 0
M  V30 13070 N 1217.95 0.594978 -1.45938 0
M  V30 13071 C 1219.2 1.35361 -1.50611 0
M  V30 13072 C 1219.53 1.93898 -0.152866 0
M  V30 13073 O 1218.78 1.76275 0.850037 0
M  V30 13074 C 1219.08 2.51129 -2.54301 0
M  V30 13075 C 1218.75 2.1066 -3.98664 0
M  V30 13076 C 1217.41 1.99338 -4.3797 0
M  V30 13077 C 1219.76 1.79267 -4.894 0
M  V30 13078 C 1217.09 1.54863 -5.65893 0
M  V30 13079 C 1219.44 1.36274 -6.17748 0
M  V30 13080 C 1218.11 1.2352 -6.55972 0
M  V30 13081 H 1217.38 0.49532 -0.551125 0
M  V30 13082 H 1220.02 0.671236 -1.79351 0
M  V30 13083 H 1218.33 3.24759 -2.19177 0
M  V30 13084 H 1220.03 3.09353 -2.55151 0
M  V30 13085 H 1216.62 2.20403 -3.67587 0
M  V30 13086 H 1220.8 1.86906 -4.59761 0
M  V30 13087 H 1216.06 1.43621 -5.94292 0
M  V30 13088 H 1220.23 1.11032 -6.87492 0
M  V30 13089 H 1217.86 0.88832 -7.54992 0
M  V30 13090 N 1219.43 1.33438 0.838571 0
M  V30 13091 C 1220.4 1.23632 1.92997 0
M  V30 13092 C 1221.4 0.155302 1.60048 0
M  V30 13093 O 1222.59 0.406852 1.69382 0
M  V30 13094 C 1219.72 0.90512 3.28665 0
M  V30 13095 H 1220.91 2.20643 2.03117 0
M  V30 13096 H 1218.46 1.17501 1.03069 0
M  V30 13097 H 1219.2 -0.0624833 3.2424 0
M  V30 13098 H 1218.98 1.68688 3.53959 0
M  V30 13099 H 1220.47 0.861262 4.08622 0
M  V30 13100 N 1220.91 -1.05686 1.16912 0
M  V30 13101 C 1221.87 -2.11481 0.883647 0
M  V30 13102 C 1222.87 -1.60321 -0.124034 0
M  V30 13103 O 1224.06 -1.73868 0.107566 0
M  V30 13104 C 1221.2 -3.3937 0.322649 0
M  V30 13105 H 1222.39 -2.38239 1.8216 0
M  V30 13106 H 1219.94 -1.2185 0.978895 0
M  V30 13107 H 1220.68 -3.18266 -0.622695 0
M  V30 13108 H 1220.46 -3.77812 1.04883 0
M  V30 13109 H 1221.95 -4.17362 0.141072 0
M  V30 13110 N 1222.39 -0.968567 -1.24324 0
M  V30 13111 C 1223.62 -0.648568 -1.96472 0
M  V30 13112 C 1224.03 0.782168 -1.71836 0
M  V30 13113 O 1223.39 1.5249 -1.00265 0
M  V30 13114 C 1223.44 -0.91482 -3.49733 0
M  V30 13115 O 1223.16 -2.28931 -3.73527 0
M  V30 13116 C 1224.66 -0.609131 -4.39095 0
M  V30 13117 H 1221.88 -0.241921 -0.625872 0
M  V30 13118 H 1224.43 -1.29673 -1.5813 0
M  V30 13119 H 1222.58 -0.31285 -3.86135 0
M  V30 13120 H 1222.99 -2.36998 -4.67902 0
M  V30 13121 H 1224.47 -0.845875 -5.4548 0
M  V30 13122 H 1224.95 0.456625 -4.3682 0
M  V30 13123 H 1225.55 -1.19105 -4.08282 0
M  V30 13124 N 1223.87 1.39211 -0.738786 0
M  V30 13125 C 1225.14 1.9442 -0.214533 0
M  V30 13126 C 1225.52 1.67528 1.28443 0
M  V30 13127 O 1224.87 1.0056 2.05183 0
M  V30 13128 C 1225.08 3.44603 -0.552232 0
M  V30 13129 C 1226.43 4.21602 -0.503663 0
M  V30 13130 O 1227.45 3.52819 -0.489647 0
M  V30 13131 O 1226.31 5.44194 -0.50153 0
M  V30 13132 H 1223.41 0.826011 -0.0404247 0
M  V30 13133 H 1225.95 1.48689 -0.817902 0
M  V30 13134 H 1224.72 3.57626 -1.58806 0
M  V30 13135 H 1224.35 3.9752 0.0799096 0
M  V30 13136 N 1225.34 0.486708 1.49896 0
M  V30 13137 C 1226.62 -0.125183 1.95199 0
M  V30 13138 C 1227 -1.55498 1.42771 0
M  V30 13139 O 1226.35 -2.1949 0.635322 0
M  V30 13140 C 1226.56 -0.0524982 3.48961 0
M  V30 13141 C 1227.91 -0.233595 4.23957 0
M  V30 13142 O 1228.93 -0.128357 3.55969 0
M  V30 13143 O 1227.79 -0.447862 5.44662 0
M  V30 13144 H 1224.88 -0.103141 0.820543 0
M  V30 13145 H 1227.43 0.548226 1.60601 0
M  V30 13146 H 1226.2 0.945163 3.79714 0
M  V30 13147 H 1225.83 -0.766683 3.90138 0
M  V30 13148 O 1226.86 -1.57402 0.361503 0
M  V30 13149 H 1227.55 -1.92766 -0.189998 0
M  V30 END ATOM
M  V30 BEGIN BOND
M  V30 END BOND
M  V30 END CTAB
M  END
$$$$
