drugbank_target|Q6IX08 14-3-3 epsilon2 isoform (DB12245)
 OpenBabel12092121193D

  0  0  0     0  0            999 V3000
M  V30 BEGIN CTAB
M  V30 COUNTS 3951 3975 0 0 0
M  V30 BEGIN ATOM
M  V30 1 H -0.908 1.98254 -0.117106 0
M  V30 2 N 0 1.576 0 0
M  V30 3 C 0.933 2.03868 1.02534 0
M  V30 4 C 1.911 0.928543 1.3348 0
M  V30 5 O 3.095 1.19667 1.45644 0
M  V30 6 C 0.222 2.43627 2.35294 0
M  V30 7 C -0.732 3.65373 2.2001 0
M  V30 8 S 0.101 5.13292 1.52614 0
M  V30 9 C 1.257 5.56322 2.86805 0
M  V30 10 H 1.49 2.90518 0.631377 0
M  V30 11 H -0.977 1.52953 0.210867 0
M  V30 12 H 0.981 2.67203 3.11629 0
M  V30 13 H -0.358 1.57376 2.7183 0
M  V30 14 H -1.165 3.90944 3.18086 0
M  V30 15 H -1.563 3.418 1.51819 0
M  V30 16 H 0.729 5.58782 3.83104 0
M  V30 17 H 1.672 6.56266 2.65933 0
M  V30 18 H 2.08 4.83886 2.90714 0
M  V30 19 N 1.4781 -0.272755 1.55222 0
M  V30 20 C 2.7551 -1.02562 1.66555 0
M  V30 21 C 3.1351 -2.04282 0.532189 0
M  V30 22 O 2.4831 -2.23662 -0.467717 0
M  V30 23 C 2.6931 -1.6822 3.05782 0
M  V30 24 C 4.0411 -2.19373 3.63539 0
M  V30 25 O 5.0651 -1.78206 3.08417 0
M  V30 26 O 3.9241 -2.94883 4.60115 0
M  V30 27 H 1.0181 -0.475755 0.676451 0
M  V30 28 H 3.5641 -0.268593 1.67561 0
M  V30 29 H 2.3361 -0.945112 3.79715 0
M  V30 30 H 1.9591 -2.50609 3.08676 0
M  V30 31 N 2.9562 -1.48159 -0.537278 0
M  V30 32 C 3.8662 -1.64807 -1.6696 0
M  V30 33 C 4.8822 -0.530651 -1.65711 0
M  V30 34 O 6.0582 -0.800784 -1.84796 0
M  V30 35 C 3.1232 -1.67708 -3.03438 0
M  V30 36 C 2.1842 -2.91025 -3.156 0
M  V30 37 C 1.4172 -2.93778 -4.45567 0
M  V30 38 O 1.6402 -2.05153 -5.3223 0
M  V30 39 O 0.5742 -3.85868 -4.61941 0
M  V30 40 H 4.4002 -2.6066 -1.55853 0
M  V30 41 H 1.9852 -1.31475 -0.709549 0
M  V30 42 H 3.8672 -1.7218 -3.84619 0
M  V30 43 H 2.5422 -0.750278 -3.14885 0
M  V30 44 H 1.4492 -2.92089 -2.33741 0
M  V30 45 H 2.7822 -3.83065 -3.09066 0
M  V30 46 N 4.4343 0.785586 -1.36625 0
M  V30 47 C 5.3643 1.91259 -1.33949 0
M  V30 48 C 6.3453 1.68795 -0.210325 0
M  V30 49 O 7.5303 1.89854 -0.408561 0
M  V30 50 C 4.6603 3.28339 -1.13186 0
M  V30 51 C 3.6143 3.65335 -2.22967 0
M  V30 52 C 2.9403 5.00806 -1.87342 0
M  V30 53 C 4.2403 3.7352 -3.65075 0
M  V30 54 H 5.9343 1.93755 -2.28253 0
M  V30 55 H 3.4803 0.930788 -1.09874 0
M  V30 56 H 5.4333 4.06804 -1.09948 0
M  V30 57 H 4.1573 3.2624 -0.153332 0
M  V30 58 H 2.8163 2.89169 -2.25337 0
M  V30 59 H 2.4643 4.95233 -0.880545 0
M  V30 60 H 2.1643 5.26529 -2.60846 0
M  V30 61 H 3.6883 5.81687 -1.85667 0
M  V30 62 H 5.1023 4.42168 -3.64911 0
M  V30 63 H 3.4993 4.10731 -4.37516 0
M  V30 64 H 4.5693 2.74527 -3.99703 0
M  V30 65 N 5.9124 1.20967 1.01018 0
M  V30 66 C 7.3284 0.965905 1.27053 0
M  V30 67 C 7.5284 -0.350785 1.98423 0
M  V30 68 O 6.5844 -1.07773 2.28344 0
M  V30 69 C 7.8974 2.15294 2.09926 0
M  V30 70 C 9.4454 2.19463 2.23171 0
M  V30 71 C 9.9204 3.3767 3.09424 0
M  V30 72 N 11.4114 3.37724 3.17012 0
M  V30 73 C 12.1464 4.25837 3.83993 0
M  V30 74 N 11.6424 5.24138 4.53047 0
M  V30 75 N 13.4354 4.1366 3.80581 0
M  V30 76 H 5.5864 2.0565 0.531194 0
M  V30 77 H 7.8494 0.90024 0.297106 0
M  V30 78 H 7.5554 3.10684 1.64828 0
M  V30 79 H 7.4294 2.13923 3.10672 0
M  V30 80 H 9.8164 1.24632 2.6749 0
M  V30 81 H 9.8974 2.2488 1.21912 0
M  V30 82 H 9.5414 4.32791 2.65808 0
M  V30 83 H 9.4714 3.29491 4.10784 0
M  V30 84 H 11.9624 2.6658 2.6785 0
M  V30 85 H 12.2754 5.87684 5.01844 0
M  V30 86 H 10.6204 5.28068 4.5185 0
M  V30 87 H 13.8114 3.36127 3.25785 0
M  V30 88 H 13.9844 4.82538 4.32505 0
M  V30 89 N 7.3905 -1.2043 1.01659 0
M  V30 90 C 8.3005 -2.2689 0.596484 0
M  V30 91 C 9.3165 -1.70107 -0.36599 0
M  V30 92 O 10.4925 -2.00117 -0.226942 0
M  V30 93 C 7.5575 -3.4665 -0.0586659 0
M  V30 94 C 6.6185 -4.18662 0.949751 0
M  V30 95 C 5.8515 -5.32705 0.32577 0
M  V30 96 O 6.0745 -5.63656 -0.874509 0
M  V30 97 O 5.0085 -5.92803 1.04249 0
M  V30 98 H 8.8345 -2.65041 1.4828 0
M  V30 99 H 6.4195 -1.27048 0.786082 0
M  V30 100 H 8.3015 -4.19256 -0.424564 0
M  V30 101 H 6.9765 -3.10375 -0.91918 0
M  V30 102 H 5.8835 -3.48229 1.36702 0
M  V30 103 H 7.2165 -4.58878 1.78023 0
M  V30 104 N 8.8686 -0.792821 -1.36206 0
M  V30 105 C 10.2846 -0.474903 -1.52371 0
M  V30 106 C 10.4846 1.00622 -1.74578 0
M  V30 107 O 9.5406 1.79162 -1.77924 0
M  V30 108 C 10.8536 -1.3083 -2.70747 0
M  V30 109 C 12.4016 -1.30234 -2.84619 0
M  V30 110 C 12.8766 -2.11956 -4.06004 0
M  V30 111 N 14.3676 -2.09419 -4.13156 0
M  V30 112 C 15.1026 -2.69419 -5.06163 0
M  V30 113 N 14.5986 -3.3829 -6.04592 0
M  V30 114 N 16.3916 -2.59134 -4.98804 0
M  V30 115 H 8.5426 -1.75222 -1.20046 0
M  V30 116 H 10.8056 -0.745024 -0.586211 0
M  V30 117 H 10.5116 -2.35881 -2.6087 0
M  V30 118 H 10.3856 -0.95196 -3.6499 0
M  V30 119 H 12.7726 -0.259748 -2.93955 0
M  V30 120 H 12.8536 -1.69847 -1.91274 0
M  V30 121 H 12.4976 -3.16248 -3.97429 0
M  V30 122 H 12.4276 -1.69711 -4.98503 0
M  V30 123 H 14.9186 -1.59297 -3.42685 0
M  V30 124 H 15.2316 -3.81394 -6.7213 0
M  V30 125 H 13.5766 -3.42393 -6.04807 0
M  V30 126 H 16.7676 -2.04927 -4.20859 0
M  V30 127 H 16.9406 -3.06185 -5.711 0
M  V30 128 N 10.3467 1.47872 -0.545128 0
M  V30 129 C 11.2937 2.29849 0.2093 0
M  V30 130 C 12.2637 1.38313 0.919707 0
M  V30 131 O 13.4487 1.67277 0.917772 0
M  V30 132 C 10.5887 3.22019 1.24088 0
M  V30 133 C 9.7017 4.2864 0.537778 0
M  V30 134 C 8.8367 5.07973 1.5536 0
M  V30 135 C 7.8757 6.06381 0.8348 0
M  V30 136 N 7.0127 6.78717 1.79688 0
M  V30 137 H 11.8527 2.93845 -0.49591 0
M  V30 138 H 9.3897 1.44848 -0.256389 0
M  V30 139 H 11.3477 3.73868 1.85144 0
M  V30 140 H 9.9777 2.59914 1.91428 0
M  V30 141 H 9.0297 3.7994 -0.187046 0
M  V30 142 H 10.3417 4.98793 -0.0258907 0
M  V30 143 H 9.4957 5.63912 2.23803 0
M  V30 144 H 8.2347 4.37693 2.15118 0
M  V30 145 H 7.2397 5.49631 0.136388 0
M  V30 146 H 8.4647 6.78665 0.24313 0
M  V30 147 H 6.4107 6.11177 2.38326 0
M  V30 148 H 6.3277 7.44998 1.28505 0
M  V30 149 H 7.5957 7.39237 2.47282 0
M  V30 150 N 11.8248 0.280983 1.55075 0
M  V30 151 C 13.0738 -0.334784 1.98902 0
M  V30 152 C 13.3868 -1.56534 1.17288 0
M  V30 153 O 14.5928 -2.25443 1.51287 0
M  V30 154 C 13.0488 -0.646994 3.54037 0
M  V30 155 C 12.6568 0.564085 4.44435 0
M  V30 156 C 14.4008 -1.22506 4.06439 0
M  V30 157 C 12.3078 0.226137 5.90967 0
M  V30 158 H 11.2378 -0.128866 0.742906 0
M  V30 159 H 13.8888 0.386556 1.79382 0
M  V30 160 H 12.2708 -1.42739 3.6938 0
M  V30 161 H 13.4448 1.34082 4.40861 0
M  V30 162 H 11.7598 1.0594 4.02698 0
M  V30 163 H 14.3568 -1.49182 5.13468 0
M  V30 164 H 14.6998 -2.16085 3.55827 0
M  V30 165 H 15.2328 -0.50682 3.94558 0
M  V30 166 H 11.9718 1.12996 6.45687 0
M  V30 167 H 11.4918 -0.513717 5.97596 0
M  V30 168 H 13.1708 -0.179539 6.46751 0
M  V30 169 N 13.3029 -1.57598 0.00835791 0
M  V30 170 C 14.5489 -1.91211 -0.675732 0
M  V30 171 C 14.8819 -0.883139 -1.72958 0
M  V30 172 O 14.1569 0.097016 -1.94258 0
M  V30 173 C 14.4399 -3.35379 -1.31123 0
M  V30 174 C 14.2929 -4.48999 -0.268356 0
M  V30 175 C 15.6119 -3.7912 -2.23508 0
M  V30 176 H 12.7309 -0.695374 -0.244179 0
M  V30 177 H 15.3729 -1.89901 0.0613655 0
M  V30 178 H 13.5229 -3.36626 -1.93946 0
M  V30 179 H 15.1949 -4.59887 0.360844 0
M  V30 180 H 13.4379 -4.31873 0.408482 0
M  V30 181 H 14.1089 -5.46851 -0.752218 0
M  V30 182 H 16.5849 -3.79477 -1.70693 0
M  V30 183 H 15.4609 -4.80729 -2.64936 0
M  V30 184 H 15.7219 -3.13455 -3.11766 0
M  V30 185 N 14.781 0.264519 -1.55364 0
M  V30 186 C 15.711 1.33121 -1.91836 0
M  V30 187 C 16.692 1.51101 -0.781192 0
M  V30 188 O 17.877 1.64003 -1.04003 0
M  V30 189 C 15.007 2.68921 -2.19769 0
M  V30 190 C 13.961 2.65661 -3.35571 0
M  V30 191 C 13.287 4.05093 -3.49004 0
M  V30 192 C 14.587 2.24187 -4.71739 0
M  V30 193 H 16.281 1.02844 -2.81182 0
M  V30 194 H 13.827 0.493286 -1.35287 0
M  V30 195 H 15.78 3.43663 -2.43872 0
M  V30 196 H 14.504 3.00799 -1.27231 0
M  V30 197 H 13.163 1.93377 -3.1145 0
M  V30 198 H 12.811 4.34206 -2.53917 0
M  V30 199 H 12.511 4.03804 -4.26868 0
M  V30 200 H 14.035 4.81561 -3.75408 0
M  V30 201 H 15.449 2.88654 -4.9533 0
M  V30 202 H 13.846 2.34044 -5.52579 0
M  V30 203 H 14.916 1.19327 -4.69988 0
M  V30 204 N 16.2591 1.48442 0.529413 0
M  V30 205 C 17.2221 1.62524 1.61612 0
M  V30 206 C 18.2221 0.498509 1.52877 0
M  V30 207 O 19.4121 0.76431 1.56537 0
M  V30 208 C 16.5441 1.59597 3.01233 0
M  V30 209 H 17.7371 2.59423 1.50465 0
M  V30 210 H 15.2901 1.37047 0.751514 0
M  V30 211 H 16.0251 0.641781 3.17886 0
M  V30 212 H 15.8101 2.41397 3.08982 0
M  V30 213 H 17.3001 1.72646 3.80241 0
M  V30 214 N 17.7372 -0.778329 1.37039 0
M  V30 215 C 18.6842 -1.89139 1.32269 0
M  V30 216 C 19.6542 -1.65017 0.189387 0
M  V30 217 O 20.8392 -1.87024 0.377693 0
M  V30 218 C 17.9792 -3.26112 1.12894 0
M  V30 219 C 17.0922 -3.62233 2.35396 0
M  V30 220 C 16.2272 -4.8838 2.08946 0
M  V30 221 C 15.2662 -5.17212 3.2735 0
M  V30 222 N 14.4032 -6.34546 3.00492 0
M  V30 223 H 19.2432 -1.92552 2.27437 0
M  V30 224 H 16.7802 -0.941473 1.13025 0
M  V30 225 H 18.7382 -4.05116 0.996835 0
M  V30 226 H 17.3682 -3.22091 0.213758 0
M  V30 227 H 16.4202 -2.78265 2.5937 0
M  V30 228 H 17.7322 -3.79481 3.23721 0
M  V30 229 H 16.8862 -5.75274 1.92729 0
M  V30 230 H 15.6252 -4.73222 1.17949 0
M  V30 231 H 14.6302 -4.28796 3.44113 0
M  V30 232 H 15.8552 -5.34283 4.19188 0
M  V30 233 H 13.8012 -6.20759 2.12118 0
M  V30 234 H 13.7182 -6.52179 3.82358 0
M  V30 235 H 14.9862 -7.24394 2.87879 0
M  V30 236 N 19.2153 -1.21501 -1.00376 0
M  V30 237 C 20.1453 -0.999478 -2.11028 0
M  V30 238 C 21.1263 0.0759671 -1.6993 0
M  V30 239 O 22.3113 -0.0841106 -1.94018 0
M  V30 240 C 19.4413 -0.564709 -3.42678 0
M  V30 241 C 18.3953 -1.58486 -3.97576 0
M  V30 242 C 17.7213 -1.00628 -5.25146 0
M  V30 243 C 19.0213 -2.97204 -4.29496 0
M  V30 244 H 20.7153 -1.92495 -2.29317 0
M  V30 245 H 18.2613 -0.92693 -1.102 0
M  V30 246 H 20.2143 -0.401091 -4.19487 0
M  V30 247 H 18.9383 0.396411 -3.24185 0
M  V30 248 H 17.5973 -1.73606 -3.22888 0
M  V30 249 H 17.2453 -0.0368439 -5.02987 0
M  V30 250 H 16.9453 -1.68771 -5.62841 0
M  V30 251 H 18.4693 -0.854015 -6.04598 0
M  V30 252 H 19.8833 -2.8552 -4.97143 0
M  V30 253 H 18.2803 -3.62372 -4.78338 0
M  V30 254 H 19.3503 -3.47956 -3.3772 0
M  V30 255 N 20.6934 1.19889 -1.02296 0
M  V30 256 C 21.9184 1.9393 -0.735237 0
M  V30 257 C 22.3434 1.74639 0.698782 0
M  V30 258 O 21.7014 1.04481 1.48167 0
M  V30 259 C 21.7494 3.43916 -1.08417 0
M  V30 260 O 20.8534 4.11917 -0.199446 0
M  V30 261 H 20.1944 0.605645 -0.272196 0
M  V30 262 H 22.7244 1.52137 -1.36804 0
M  V30 263 H 22.7344 3.9456 -1.03856 0
M  V30 264 H 21.4094 3.5728 -2.12894 0
M  V30 265 H 19.9864 3.71666 -0.303136 0
M  V30 266 N 22.1715 0.800033 1.35784 0
M  V30 267 C 23.0815 0.207204 2.33683 0
M  V30 268 C 24.0975 -0.64631 1.61551 0
M  V30 269 O 25.2735 -0.559604 1.93469 0
M  V30 270 C 22.3385 -0.639659 3.40748 0
M  V30 271 C 21.3995 0.233585 4.28664 0
M  V30 272 C 20.6325 -0.572954 5.30616 0
M  V30 273 O 20.8555 -1.80816 5.40982 0
M  V30 274 O 19.7895 0.0327285 6.01891 0
M  V30 275 H 23.6155 1.01692 2.86169 0
M  V30 276 H 21.2005 0.561691 1.38439 0
M  V30 277 H 23.0825 -1.12223 4.06182 0
M  V30 278 H 21.7575 -1.42708 2.90544 0
M  V30 279 H 20.6645 0.763147 3.66233 0
M  V30 280 H 21.9975 0.984784 4.82248 0
M  V30 281 N 23.6496 -1.47581 0.552962 0
M  V30 282 C 24.5816 -2.27997 -0.234533 0
M  V30 283 C 25.5946 -1.36753 -0.883321 0
M  V30 284 O 26.7836 -1.61612 -0.757889 0
M  V30 285 C 23.8836 -3.10879 -1.34935 0
M  V30 286 C 23.0566 -4.30056 -0.798158 0
M  V30 287 C 22.1156 -4.94567 -1.79694 0
M  V30 288 O 21.1416 -5.53087 -1.34474 0
M  V30 289 N 22.3436 -4.88878 -3.13015 0
M  V30 290 H 25.1086 -2.96222 0.455255 0
M  V30 291 H 22.6696 -1.57163 0.388761 0
M  V30 292 H 24.6616 -3.50903 -2.01616 0
M  V30 293 H 23.2316 -2.44924 -1.94244 0
M  V30 294 H 22.4516 -3.94174 0.0453079 0
M  V30 295 H 23.7396 -5.07152 -0.409173 0
M  V30 296 H 23.1376 -4.42526 -3.52402 0
M  V30 297 H 21.6946 -5.32934 -3.75266 0
M  V30 298 N 25.1277 -0.289203 -1.54924 0
M  V30 299 C 26.0907 0.579144 -2.21762 0
M  V30 300 C 27.0907 1.07047 -1.1999 0
M  V30 301 O 28.2807 0.968384 -1.44803 0
M  V30 302 C 25.4127 1.80055 -2.8947 0
M  V30 303 H 26.6057 -0.00464908 -2.999 0
M  V30 304 H 24.1587 -0.0399306 -1.56249 0
M  V30 305 H 24.8937 2.42449 -2.15381 0
M  V30 306 H 24.6787 1.45602 -3.64064 0
M  V30 307 H 26.1687 2.41773 -3.40493 0
M  V30 308 N 26.6058 1.57591 -0.0167156 0
M  V30 309 C 27.5158 2.1291 0.98521 0
M  V30 310 C 28.5318 1.07834 1.36557 0
M  V30 311 O 29.7078 1.39826 1.44951 0
M  V30 312 C 26.7728 2.63512 2.25305 0
M  V30 313 C 25.8338 3.83256 1.93426 0
M  V30 314 C 25.0668 4.31435 3.14165 0
M  V30 315 O 25.2898 3.78851 4.26413 0
M  V30 316 O 24.2238 5.23416 2.97186 0
M  V30 317 H 28.0498 2.98772 0.544888 0
M  V30 318 H 25.6348 1.48012 0.203141 0
M  V30 319 H 27.5168 2.96183 2.99756 0
M  V30 320 H 26.1918 1.8074 2.68542 0
M  V30 321 H 25.0988 3.55531 1.16398 0
M  V30 322 H 26.4318 4.67153 1.55013 0
M  V30 323 N 28.0839 -0.256276 1.55502 0
M  V30 324 C 29.4999 -0.604325 1.47716 0
M  V30 325 C 29.6999 -1.88763 0.705039 0
M  V30 326 O 28.7559 -2.51445 0.230613 0
M  V30 327 C 30.0689 -0.715756 2.92057 0
M  V30 328 C 31.6169 -0.808706 3.02372 0
M  V30 329 C 32.0919 -0.951777 4.48001 0
M  V30 330 N 33.5829 -1.01688 4.519 0
M  V30 331 C 34.3179 -1.14668 5.61817 0
M  V30 332 N 33.8139 -1.24261 6.81565 0
M  V30 333 N 35.6069 -1.1791 5.49594 0
M  V30 334 H 27.7579 0.586291 2.04148 0
M  V30 335 H 30.0209 0.201015 0.926443 0
M  V30 336 H 29.7269 0.157027 3.51349 0
M  V30 337 H 29.6009 -1.59071 3.42018 0
M  V30 338 H 31.9879 -1.67195 2.43166 0
M  V30 339 H 32.0689 0.0912063 2.55637 0
M  V30 340 H 31.7129 -0.0931291 5.07815 0
M  V30 341 H 31.6429 -1.86659 4.92408 0
M  V30 342 H 34.1339 -0.954468 3.65648 0
M  V30 343 H 34.4469 -1.34046 7.61086 0
M  V30 344 H 32.7919 -1.21236 6.84344 0
M  V30 345 H 35.9829 -1.10057 4.54978 0
M  V30 346 H 36.1559 -1.27681 6.35296 0
M  V30 347 N 29.562 -1.4872 -0.521534 0
M  V30 348 C 30.792 -1.6061 -1.29954 0
M  V30 349 C 31.2 -0.268728 -1.87282 0
M  V30 350 O 30.543 0.753221 -1.67548 0
M  V30 351 C 30.605 -2.60013 -2.48261 0
M  V30 352 C 30.269 -4.04874 -2.11957 0
M  V30 353 C 31.266 -4.92304 -1.67132 0
M  V30 354 C 28.951 -4.5047 -2.22221 0
M  V30 355 C 30.945 -6.2336 -1.33047 0
M  V30 356 C 28.632 -5.81544 -1.87748 0
M  V30 357 C 29.63 -6.67812 -1.43234 0
M  V30 358 O 29.318 -7.96446 -1.09217 0
M  V30 359 H 29.05 -0.544116 -0.401141 0
M  V30 360 H 31.604 -1.95339 -0.634958 0
M  V30 361 H 29.834 -2.20422 -3.17728 0
M  V30 362 H 31.523 -2.61648 -3.10315 0
M  V30 363 H 32.289 -4.58312 -1.58665 0
M  V30 364 H 28.168 -3.83504 -2.55823 0
M  V30 365 H 31.712 -6.90649 -0.982299 0
M  V30 366 H 27.609 -6.15069 -1.95858 0
M  V30 367 H 28.377 -8.09275 -1.22542 0
M  V30 368 N 31.0401 0.771051 -1.3745 0
M  V30 369 C 32.3171 1.519 -1.23231 0
M  V30 370 C 32.6971 2.10383 0.173809 0
M  V30 371 O 32.0451 1.95583 1.18151 0
M  V30 372 C 32.2551 2.59933 -2.32886 0
M  V30 373 C 33.6031 3.27316 -2.70461 0
M  V30 374 O 34.6271 2.70228 -2.32068 0
M  V30 375 O 33.4861 4.30531 -3.36608 0
M  V30 376 H 30.5801 0.672803 -0.480901 0
M  V30 377 H 33.1261 0.807957 -1.49232 0
M  V30 378 H 31.8981 2.14842 -3.27045 0
M  V30 379 H 31.5211 3.38637 -2.08353 0
M  V30 380 N 32.5182 1.22032 0.997298 0
M  V30 381 C 33.4282 1.00271 2.12092 0
M  V30 382 C 34.4442 -0.047621 1.73935 0
M  V30 383 O 35.6202 0.144136 2.00884 0
M  V30 384 C 32.6852 0.578449 3.4184 0
M  V30 385 C 31.7462 1.70189 3.94125 0
M  V30 386 C 30.9792 1.29778 5.17681 0
M  V30 387 O 31.2022 0.174676 5.70132 0
M  V30 388 O 30.1362 2.11261 5.63607 0
M  V30 389 H 33.9622 1.94398 2.3333 0
M  V30 390 H 31.5472 1.00587 1.10465 0
M  V30 391 H 33.4292 0.351998 4.19927 0
M  V30 392 H 32.1042 -0.334019 3.21972 0
M  V30 393 H 31.0112 1.98282 3.1723 0
M  V30 394 H 32.3442 2.59206 4.18417 0
M  V30 395 N 33.9963 -1.19345 1.0293 0
M  V30 396 C 34.9443 -2.24621 0.604001 0
M  V30 397 C 35.9383 -1.65452 -0.363587 0
M  V30 398 O 37.1443 -1.78497 -0.23212 0
M  V30 399 H 33.5193 -0.730858 0.177061 0
M  V30 400 H 35.4903 -2.5781 1.50255 0
M  V30 401 C 34.2393 -3.47688 -0.0289127 0
M  V30 402 H 33.5623 -3.93505 0.706651 0
M  V30 403 H 35.0023 -4.23011 -0.289432 0
M  V30 404 C 33.4613 -3.11817 -1.2756 0
M  V30 405 O 33.9913 -3.2451 -2.36762 0
M  V30 406 N 32.1973 -2.66246 -1.16453 0
M  V30 407 H 31.7443 -2.56118 -0.275914 0
M  V30 408 H 31.7023 -2.42617 -1.99961 0
M  V30 409 N 35.4744 -0.807222 -1.35358 0
M  V30 410 C 36.7204 -0.388463 -1.99045 0
M  V30 411 C 37.0534 1.04184 -1.63888 0
M  V30 412 O 36.3284 1.72292 -0.902535 0
M  V30 413 C 36.6114 -0.572783 -3.55515 0
M  V30 414 C 36.4644 -2.04807 -4.00468 0
M  V30 415 C 37.7834 0.00114064 -4.401 0
M  V30 416 H 34.9024 -0.142619 -0.723069 0
M  V30 417 H 37.5444 -1.01687 -1.60498 0
M  V30 418 H 35.6944 -0.0378425 -3.88482 0
M  V30 419 H 37.3664 -2.64544 -3.77908 0
M  V30 420 H 35.6094 -2.54427 -3.51353 0
M  V30 421 H 36.2804 -2.12792 -5.09337 0
M  V30 422 H 38.7564 -0.455716 -4.13597 0
M  V30 423 H 37.6324 -0.157737 -5.48673 0
M  V30 424 H 37.8934 1.09488 -4.28328 0
M  V30 425 N 36.9525 1.47285 -0.560781 0
M  V30 426 C 37.8995 2.30058 0.18491 0
M  V30 427 C 38.8695 1.39281 0.904986 0
M  V30 428 O 40.0545 1.68241 0.899979 0
M  V30 429 C 37.1945 3.23317 1.20666 0
M  V30 430 C 36.3075 4.29186 0.492285 0
M  V30 431 C 35.4425 5.09592 1.49964 0
M  V30 432 C 34.4815 6.07232 0.770439 0
M  V30 433 N 33.6185 6.80584 1.72479 0
M  V30 434 H 38.4585 2.93302 -0.527048 0
M  V30 435 H 35.9955 1.44568 -0.271738 0
M  V30 436 H 37.9535 3.75811 1.81168 0
M  V30 437 H 36.5835 2.61929 1.88661 0
M  V30 438 H 35.6355 3.7972 -0.227333 0
M  V30 439 H 36.9475 4.98738 -0.0787929 0
M  V30 440 H 36.1015 5.66254 2.17809 0
M  V30 441 H 34.8405 4.3995 2.10464 0
M  V30 442 H 33.8455 5.49745 0.0780846 0
M  V30 443 H 35.0705 6.78884 0.171134 0
M  V30 444 H 33.0165 6.1367 2.3183 0
M  V30 445 H 32.9335 7.46319 1.20596 0
M  V30 446 H 34.2015 7.41818 2.39428 0
M  V30 447 N 38.4306 0.297415 1.54768 0
M  V30 448 C 39.3936 -0.567375 2.22066 0
M  V30 449 C 40.3936 -1.06409 1.20556 0
M  V30 450 O 41.5836 -0.960691 1.45315 0
M  V30 451 C 38.7156 -1.78517 2.90421 0
M  V30 452 H 39.9086 0.0205534 2.99893 0
M  V30 453 H 37.4616 0.0482163 1.56226 0
M  V30 454 H 38.1966 -2.41303 2.16664 0
M  V30 455 H 37.9816 -1.43669 3.64831 0
M  V30 456 H 39.4716 -2.39964 3.41771 0
M  V30 457 N 39.9087 -1.5758 0.0250728 0
M  V30 458 C 40.8387 -2.13007 -0.956575 0
M  V30 459 C 41.8197 -1.0452 -1.342 0
M  V30 460 O 43.0047 -1.32332 -1.42133 0
M  V30 461 C 40.1347 -2.65386 -2.24026 0
M  V30 462 C 39.0887 -3.78623 -1.99571 0
M  V30 463 C 38.4147 -4.17414 -3.3417 0
M  V30 464 C 39.7147 -5.04867 -1.33814 0
M  V30 465 H 41.4087 -2.9528 -0.494991 0
M  V30 466 H 38.9547 -1.42042 -0.236651 0
M  V30 467 H 40.9077 -3.02794 -2.93076 0
M  V30 468 H 39.6317 -1.80268 -2.72343 0
M  V30 469 H 38.2907 -3.41646 -1.32941 0
M  V30 470 H 37.9387 -3.29284 -3.80238 0
M  V30 471 H 37.6387 -4.93719 -3.18615 0
M  V30 472 H 39.1627 -4.57402 -4.04495 0
M  V30 473 H 40.5767 -5.39888 -1.92857 0
M  V30 474 H 38.9737 -5.86144 -1.28669 0
M  V30 475 H 40.0437 -4.83904 -0.310561 0
M  V30 476 N 41.3868 0.248026 -1.55636 0
M  V30 477 C 42.6358 0.974134 -1.76617 0
M  V30 478 C 42.9488 1.86528 -0.588796 0
M  V30 479 O 44.1548 2.62805 -0.681594 0
M  V30 480 C 42.6108 1.78213 -3.12679 0
M  V30 481 C 42.2188 0.93843 -4.38061 0
M  V30 482 C 43.9628 2.50104 -3.42999 0
M  V30 483 C 41.8698 1.74225 -5.65155 0
M  V30 484 H 40.7998 0.36745 -0.658405 0
M  V30 485 H 43.4508 0.22884 -1.82067 0
M  V30 486 H 41.8328 2.56933 -3.01333 0
M  V30 487 H 43.0068 0.193635 -4.60393 0
M  V30 488 H 41.3218 0.332905 -4.15067 0
M  V30 489 H 43.9188 3.10694 -4.3517 0
M  V30 490 H 44.2618 3.21662 -2.64271 0
M  V30 491 H 44.7948 1.78395 -3.55556 0
M  V30 492 H 41.5338 1.07043 -6.46701 0
M  V30 493 H 41.0538 2.46235 -5.46926 0
M  V30 494 H 42.7328 2.30967 -6.0437 0
M  V30 495 N 42.8649 1.48995 0.513639 0
M  V30 496 C 43.7749 1.67443 1.64317 0
M  V30 497 C 44.7909 0.556947 1.64846 0
M  V30 498 O 45.9669 0.830082 1.83498 0
M  V30 499 C 43.0319 1.72515 3.00732 0
M  V30 500 C 42.0929 2.96009 3.1093 0
M  V30 501 C 41.3259 3.00829 4.40837 0
M  V30 502 O 41.5489 2.13594 5.28898 0
M  V30 503 O 40.4829 3.93168 4.55744 0
M  V30 504 H 44.3089 2.63106 1.51687 0
M  V30 505 H 41.8939 1.32588 0.688543 0
M  V30 506 H 43.7759 1.78277 3.81831 0
M  V30 507 H 42.4509 0.800278 3.13651 0
M  V30 508 H 41.3579 2.9577 2.29065 0
M  V30 509 H 42.6909 3.87934 3.02933 0
M  V30 510 N 44.343 -0.763751 1.37857 0
M  V30 511 C 45.592 -1.51789 1.32827 0
M  V30 512 C 45.905 -1.95426 -0.0823719 0
M  V30 513 O 47.111 -2.70298 -0.255172 0
M  V30 514 C 45.567 -2.74133 2.33193 0
M  V30 515 C 45.175 -2.37562 3.79827 0
M  V30 516 C 46.919 -3.52054 2.37188 0
M  V30 517 C 44.826 -3.56456 4.71904 0
M  V30 518 H 43.756 -0.569896 0.493695 0
M  V30 519 H 46.407 -0.835822 1.63359 0
M  V30 520 H 44.789 -3.4427 1.9569 0
M  V30 521 H 45.963 -1.75157 4.26212 0
M  V30 522 H 44.278 -1.72798 3.78853 0
M  V30 523 H 46.875 -4.40437 3.03182 0
M  V30 524 H 47.218 -3.92486 1.38782 0
M  V30 525 H 47.751 -2.88921 2.7344 0
M  V30 526 H 44.49 -3.21099 5.71468 0
M  V30 527 H 44.01 -4.17938 4.30218 0
M  V30 528 H 45.689 -4.23168 4.89426 0
M  V30 529 N 45.8211 -1.22559 -0.990812 0
M  V30 530 C 46.7841 -0.998863 -2.0629 0
M  V30 531 C 47.7841 0.0354834 -1.60761 0
M  V30 532 O 48.9741 -0.203231 -1.7301 0
M  V30 533 C 46.1061 -0.509203 -3.37076 0
M  V30 534 H 47.2991 -1.95014 -2.27837 0
M  V30 535 H 44.8521 -1.04456 -1.16269 0
M  V30 536 H 45.5871 0.446335 -3.21214 0
M  V30 537 H 45.3721 -1.25547 -3.71457 0
M  V30 538 H 46.8621 -0.370888 -4.1595 0
M  V30 539 N 47.2992 1.18797 -1.03562 0
M  V30 540 C 48.5242 1.9314 -0.755764 0
M  V30 541 C 48.9492 1.7537 0.68022 0
M  V30 542 O 48.3072 1.06046 1.47051 0
M  V30 543 C 48.3552 3.42747 -1.12058 0
M  V30 544 O 47.4592 4.11683 -0.243124 0
M  V30 545 H 46.8002 0.602724 -0.278604 0
M  V30 546 H 49.3302 1.50678 -1.3841 0
M  V30 547 H 49.3402 3.93437 -1.08035 0
M  V30 548 H 48.0152 3.55002 -2.16672 0
M  V30 549 H 46.5922 3.71323 -0.342539 0
M  V30 550 N 48.7773 0.814389 1.34928 0
M  V30 551 C 49.7253 0.218424 2.31572 0
M  V30 552 C 50.7193 -0.636128 1.57002 0
M  V30 553 O 51.9253 -0.52842 1.72069 0
M  V30 554 H 48.3003 0.0518799 0.750208 0
M  V30 555 H 50.2713 1.04852 2.79372 0
M  V30 556 C 49.0203 -0.61207 3.4227 0
M  V30 557 H 48.3433 0.0361578 3.99784 0
M  V30 558 H 49.7833 -0.995317 4.12152 0
M  V30 559 C 48.2423 -1.78087 2.85984 0
M  V30 560 O 48.7723 -2.8787 2.80168 0
M  V30 561 N 46.9783 -1.59488 2.42924 0
M  V30 562 H 46.5253 -0.701874 2.47854 0
M  V30 563 H 46.4833 -2.37846 2.05613 0
M  V30 564 N 50.2554 -1.46986 0.568584 0
M  V30 565 C 51.6664 -1.86188 0.138219 0
M  V30 566 C 52.0174 -1.47388 -1.29504 0
M  V30 567 O 51.1424 -0.88219 -1.97602 0
M  V30 568 C 51.7374 -3.3792 0.244065 0
M  V30 569 C 50.2964 -3.76171 -0.131335 0
M  V30 570 C 49.4434 -2.71027 0.586465 0
M  V30 571 H 52.3944 -1.38342 0.777645 0
M  V30 572 H 52.4154 -3.76729 -0.534351 0
M  V30 573 H 51.9274 -3.66128 1.28731 0
M  V30 574 H 50.0284 -3.5358 -1.17526 0
M  V30 575 H 50.1414 -4.78523 0.235146 0
M  V30 576 H 48.5054 -2.54684 0.0282722 0
M  V30 577 H 49.2884 -3.02077 1.63109 0
M  V30 578 N 51.7335 -0.305618 -1.54608 0
M  V30 579 C 52.6435 0.57778 -2.27374 0
M  V30 580 C 53.6595 1.14451 -1.31061 0
M  V30 581 O 54.8355 1.16831 -1.6405 0
M  V30 582 C 51.9005 1.73123 -3.00382 0
M  V30 583 C 50.9615 1.19812 -4.12242 0
M  V30 584 C 50.1945 2.2966 -4.81759 0
M  V30 585 O 50.4175 3.49651 -4.50666 0
M  V30 586 O 49.3515 1.96091 -5.69062 0
M  V30 587 H 53.1775 -0.012624 -3.03697 0
M  V30 588 H 50.7625 -0.0719184 -1.49227 0
M  V30 589 H 52.6445 2.40315 -3.4616 0
M  V30 590 H 51.3195 2.30815 -2.26949 0
M  V30 591 H 50.2265 0.491798 -3.70853 0
M  V30 592 H 51.5595 0.666566 -4.87666 0
M  V30 593 N 53.2116 1.57565 -0.0334293 0
M  V30 594 C 54.4396 1.9628 0.654347 0
M  V30 595 C 54.8546 0.910138 1.65414 0
M  V30 596 O 54.2116 -0.107595 1.82183 0
M  V30 597 C 54.2626 3.35067 1.35693 0
M  V30 598 O 53.9836 4.36296 0.397191 0
M  V30 599 C 55.4846 3.88439 2.13613 0
M  V30 600 H 52.7046 0.646369 0.180132 0
M  V30 601 H 55.2486 2.04282 -0.0944721 0
M  V30 602 H 53.4036 3.2827 2.05712 0
M  V30 603 H 53.8176 5.1678 0.896597 0
M  V30 604 H 55.2916 4.8788 2.58219 0
M  V30 605 H 55.7686 3.22914 2.97696 0
M  V30 606 H 56.3746 3.98516 1.48543 0
M  V30 607 N 54.6897 -0.239769 1.55765 0
M  V30 608 C 55.9667 -0.990056 1.68693 0
M  V30 609 C 56.3467 -2.03107 0.5754 0
M  V30 610 O 55.6947 -2.24604 -0.42017 0
M  V30 611 C 55.9047 -1.61696 3.09282 0
M  V30 612 C 57.2527 -2.11613 3.6811 0
M  V30 613 O 58.2767 -1.71624 3.12127 0
M  V30 614 O 57.1357 -2.85057 4.66267 0
M  V30 615 H 54.2297 -0.461299 0.686391 0
M  V30 616 H 56.7757 -0.232991 1.68093 0
M  V30 617 H 55.5477 -0.864357 3.81634 0
M  V30 618 H 55.1707 -2.44005 3.13923 0
M  V30 619 N 56.1678 -1.49265 -0.50573 0
M  V30 620 C 57.0978 -1.68495 -1.61653 0
M  V30 621 C 58.0788 -0.53366 -1.61512 0
M  V30 622 O 59.2638 -0.76897 -1.78327 0
M  V30 623 C 56.3938 -1.74709 -3.00157 0
M  V30 624 C 55.3478 -2.89581 -3.15162 0
M  V30 625 C 54.6738 -2.80903 -4.5497 0
M  V30 626 C 55.9738 -4.30578 -2.95634 0
M  V30 627 H 57.6678 -2.61493 -1.45814 0
M  V30 628 H 55.2138 -1.25838 -0.70005 0
M  V30 629 H 57.1668 -1.86748 -3.77761 0
M  V30 630 H 55.8908 -0.783067 -3.17074 0
M  V30 631 H 54.5498 -2.77136 -2.39982 0
M  V30 632 H 54.1978 -1.82419 -4.68756 0
M  V30 633 H 53.8978 -3.57999 -4.65951 0
M  V30 634 H 55.4218 -2.94944 -5.34641 0
M  V30 635 H 56.8358 -4.4373 -3.63011 0
M  V30 636 H 55.2328 -5.0886 -3.18091 0
M  V30 637 H 56.3028 -4.45352 -1.91806 0
M  V30 638 N 57.6459 0.756429 -1.3826 0
M  V30 639 C 58.8739 1.54565 -1.3754 0
M  V30 640 C 59.2889 1.88767 0.0355331 0
M  V30 641 O 58.6459 1.52572 1.0014 0
M  V30 642 C 58.6969 2.84654 -2.22833 0
M  V30 643 O 58.4179 2.51912 -3.5843 0
M  V30 644 C 59.9189 3.78807 -2.30261 0
M  V30 645 H 57.1389 0.478353 -0.470553 0
M  V30 646 H 59.6829 0.936381 -1.81803 0
M  V30 647 H 57.8379 3.41965 -1.8204 0
M  V30 648 H 58.2519 3.35325 -4.03308 0
M  V30 649 H 59.7259 4.67045 -2.94233 0
M  V30 650 H 60.2029 4.19038 -1.31545 0
M  V30 651 H 60.8089 3.2742 -2.71433 0
M  V30 652 N 59.124 1.23083 0.984299 0
M  V30 653 C 60.37 1.06214 1.72761 0
M  V30 654 C 60.703 -0.400584 1.90024 0
M  V30 655 O 59.978 -1.29672 1.44967 0
M  V30 656 C 60.261 1.78375 3.12817 0
M  V30 657 C 60.114 3.32296 3.03149 0
M  V30 658 C 61.433 1.54309 4.12161 0
M  V30 659 H 58.552 0.387251 0.627061 0
M  V30 660 H 61.194 1.51536 1.14616 0
M  V30 661 H 59.344 1.39848 3.62457 0
M  V30 662 H 61.016 3.8032 2.61064 0
M  V30 663 H 59.259 3.6153 2.39747 0
M  V30 664 H 59.93 3.77972 4.02295 0
M  V30 665 H 62.406 1.87791 3.71314 0
M  V30 666 H 61.282 2.07281 5.08258 0
M  V30 667 H 61.543 0.477572 4.39513 0
M  V30 668 N 60.6021 -1.18246 1.0419 0
M  V30 669 C 61.5121 -2.25574 0.644476 0
M  V30 670 C 62.5281 -1.70845 -0.329826 0
M  V30 671 O 63.7041 -2.00554 -0.184443 0
M  V30 672 C 60.7691 -3.46697 0.014877 0
M  V30 673 C 59.8301 -4.16554 1.03834 0
M  V30 674 C 59.0631 -5.31894 0.438692 0
M  V30 675 O 59.2861 -5.65385 -0.754752 0
M  V30 676 O 58.2201 -5.90459 1.168 0
M  V30 677 H 62.0461 -2.61836 1.53869 0
M  V30 678 H 59.6311 -1.25352 0.812854 0
M  V30 679 H 61.5131 -4.20062 -0.335538 0
M  V30 680 H 60.1881 -3.12255 -0.853138 0
M  V30 681 H 59.0951 -3.45251 1.44057 0
M  V30 682 H 60.4281 -4.54998 1.87716 0
M  V30 683 N 62.0802 -0.821533 -1.34494 0
M  V30 684 C 62.9902 -0.244355 -2.33324 0
M  V30 685 C 64.0062 0.620527 -1.62559 0
M  V30 686 O 65.1822 0.528754 -1.94335 0
M  V30 687 C 62.2472 0.585368 -3.41723 0
M  V30 688 C 61.3082 -0.301752 -4.28238 0
M  V30 689 C 60.5412 0.488466 -5.3146 0
M  V30 690 O 60.7642 1.72186 -5.4379 0
M  V30 691 O 59.6982 -0.12848 -6.01763 0
M  V30 692 H 63.5242 -1.06231 -2.84515 0
M  V30 693 H 61.1092 -0.583645 -1.37528 0
M  V30 694 H 62.9912 1.05747 -4.07916 0
M  V30 695 H 61.6662 1.38068 -2.92778 0
M  V30 696 H 60.5732 -0.821315 -3.64973 0
M  V30 697 H 61.9062 -1.06138 -4.8062 0
M  V30 698 N 63.5583 1.46682 -0.576371 0
M  V30 699 C 64.9743 1.57822 -0.237562 0
M  V30 700 C 65.1743 1.57237 1.26011 0
M  V30 701 O 64.2303 1.48596 2.04146 0
M  V30 702 C 65.5433 2.87499 -0.881168 0
M  V30 703 C 67.0913 3.01119 -0.85417 0
M  V30 704 C 67.5663 4.33524 -1.4772 0
M  V30 705 N 69.0573 4.40207 -1.44125 0
M  V30 706 C 69.7923 5.4126 -1.89276 0
M  V30 707 N 69.2883 6.49021 -2.42371 0
M  V30 708 N 71.0813 5.32422 -1.80231 0
M  V30 709 H 63.2323 1.45306 -1.54919 0
M  V30 710 H 65.4953 0.692733 -0.647167 0
M  V30 711 H 65.2013 2.9372 -1.93447 0
M  V30 712 H 65.0753 3.75224 -0.385592 0
M  V30 713 H 67.4623 2.94485 0.190491 0
M  V30 714 H 67.5433 2.14887 -1.3877 0
M  V30 715 H 67.1873 4.40916 -2.52103 0
M  V30 716 H 67.1173 5.1852 -0.918947 0
M  V30 717 H 69.6083 3.62931 -1.05307 0
M  V30 718 H 69.9213 7.2233 -2.74698 0
M  V30 719 H 68.2663 6.49858 -2.46393 0
M  V30 720 H 71.4573 4.47137 -1.38514 0
M  V30 721 H 71.6303 6.11034 -2.15735 0
M  V30 722 N 65.0364 0.313813 1.54444 0
M  V30 723 C 65.9844 -0.572171 2.25453 0
M  V30 724 C 66.9784 -1.12657 1.2651 0
M  V30 725 O 68.1844 -1.07573 1.44319 0
M  V30 726 H 64.5594 -0.203146 0.724041 0
M  V30 727 H 66.5304 0.0491145 2.9836 0
M  V30 728 C 65.2794 -1.72626 3.0182 0
M  V30 729 H 64.6024 -1.30891 3.77767 0
M  V30 730 H 66.0424 -2.32199 3.54767 0
M  V30 731 C 64.5014 -2.63806 2.09542 0
M  V30 732 O 65.0314 -3.65256 1.67185 0
M  V30 733 N 63.2374 -2.31824 1.75232 0
M  V30 734 H 62.7844 -1.49368 2.09873 0
M  V30 735 H 62.7424 -2.93095 1.13767 0
M  V30 736 N 66.5145 -1.57545 0.0417849 0
M  V30 737 C 67.4445 -2.14009 -0.933929 0
M  V30 738 C 68.4255 -1.05938 -1.33083 0
M  V30 739 O 69.6105 -1.33833 -1.40721 0
M  V30 740 C 66.7405 -2.67747 -2.21199 0
M  V30 741 C 65.6945 -3.80718 -1.95544 0
M  V30 742 C 65.0205 -4.20935 -3.29724 0
M  V30 743 C 66.3205 -5.06258 -1.28452 0
M  V30 744 H 68.0145 -2.95788 -0.463645 0
M  V30 745 H 65.5605 -1.42285 -0.221573 0
M  V30 746 H 67.5135 -3.05886 -2.89848 0
M  V30 747 H 66.2375 -1.83147 -2.70416 0
M  V30 748 H 64.8965 -3.43037 -1.2931 0
M  V30 749 H 64.5445 -3.33298 -3.76724 0
M  V30 750 H 64.2445 -4.9707 -3.13361 0
M  V30 751 H 65.7685 -4.61666 -3.9962 0
M  V30 752 H 67.1825 -5.41903 -1.8712 0
M  V30 753 H 65.5795 -5.87475 -1.22445 0
M  V30 754 H 66.6495 -4.84207 -0.259219 0
M  V30 755 N 67.9926 0.231505 -1.5589 0
M  V30 756 C 68.9226 1.29022 -1.94617 0
M  V30 757 C 69.9036 1.4941 -0.813067 0
M  V30 758 O 71.0886 1.6176 -1.07459 0
M  V30 759 C 68.2186 2.64199 -2.25424 0
M  V30 760 C 67.1726 2.58484 -3.41131 0
M  V30 761 C 66.4986 3.97599 -3.57518 0
M  V30 762 C 67.7986 2.1413 -4.76388 0
M  V30 763 H 69.4926 0.968563 -2.83301 0
M  V30 764 H 67.0386 0.464479 -1.36303 0
M  V30 765 H 68.9916 3.38413 -2.51107 0
M  V30 766 H 67.7156 2.98032 -1.33583 0
M  V30 767 H 66.3746 1.86727 -3.15481 0
M  V30 768 H 66.0226 4.28723 -2.6307 0
M  V30 769 H 65.7226 3.94659 -4.35337 0
M  V30 770 H 67.2466 4.7349 -3.85538 0
M  V30 771 H 68.6606 2.78083 -5.01341 0
M  V30 772 H 67.0576 2.2227 -5.57419 0
M  V30 773 H 68.1276 1.09331 -4.72414 0
M  V30 774 N 69.4707 1.49531 0.497807 0
M  V30 775 C 70.6957 1.63159 1.28039 0
M  V30 776 C 71.1207 0.30418 1.85624 0
M  V30 777 O 70.4787 -0.728618 1.66015 0
M  V30 778 C 70.5267 2.70537 2.38416 0
M  V30 779 O 69.6307 2.29931 3.42353 0
M  V30 780 H 68.9717 0.546001 0.377861 0
M  V30 781 H 71.5017 1.9574 0.59558 0
M  V30 782 H 71.5117 2.92802 2.84132 0
M  V30 783 H 70.1867 3.6689 1.95869 0
M  V30 784 H 68.7637 2.18009 3.02533 0
M  V30 785 N 70.9488 -0.749086 1.3866 0
M  V30 786 C 72.1948 -1.51056 1.35314 0
M  V30 787 C 72.5278 -1.94121 -0.0553751 0
M  V30 788 O 71.8028 -1.65763 -1.01749 0
M  V30 789 C 72.0858 -2.76003 2.31288 0
M  V30 790 C 71.9388 -2.39047 3.8102 0
M  V30 791 C 73.2578 -3.78046 2.2532 0
M  V30 792 H 70.3768 -0.547972 0.492844 0
M  V30 793 H 73.0188 -0.857628 1.69543 0
M  V30 794 H 71.1688 -3.31716 2.02229 0
M  V30 795 H 72.8408 -1.89074 4.20771 0
M  V30 796 H 71.0838 -1.71449 3.98482 0
M  V30 797 H 71.7548 -3.28462 4.4364 0
M  V30 798 H 74.2308 -3.31884 2.50983 0
M  V30 799 H 73.1068 -4.63159 2.94576 0
M  V30 800 H 73.3678 -4.23957 1.25352 0
M  V30 801 N 72.4269 -1.23603 -0.977757 0
M  V30 802 C 73.3899 -1.02069 -2.05218 0
M  V30 803 C 74.3899 0.0184305 -1.60789 0
M  V30 804 O 75.5799 -0.221569 -1.72785 0
M  V30 805 C 72.7119 -0.544926 -3.36517 0
M  V30 806 H 73.9049 -1.9742 -2.25755 0
M  V30 807 H 71.4579 -1.05684 -1.15155 0
M  V30 808 H 72.1929 0.412241 -3.21669 0
M  V30 809 H 71.9779 -1.2948 -3.70105 0
M  V30 810 H 73.4679 -0.414985 -4.15533 0
M  V30 811 N 73.905 1.17692 -1.04816 0
M  V30 812 C 75.135 1.91508 -0.775128 0
M  V30 813 C 75.543 1.76844 0.67253 0
M  V30 814 O 74.886 1.10057 1.47082 0
M  V30 815 C 74.948 3.43167 -1.0713 0
M  V30 816 C 74.612 3.81612 -2.51438 0
M  V30 817 C 75.609 3.84772 -3.49638 0
M  V30 818 C 73.294 4.12687 -2.86348 0
M  V30 819 C 75.288 4.18469 -4.80794 0
M  V30 820 C 72.975 4.46053 -4.17708 0
M  V30 821 C 73.973 4.48921 -5.14741 0
M  V30 822 O 73.661 4.81504 -6.43746 0
M  V30 823 H 73.393 0.614575 -0.281555 0
M  V30 824 H 75.947 1.50206 -1.40098 0
M  V30 825 H 74.177 3.84745 -0.388342 0
M  V30 826 H 75.866 3.98239 -0.784883 0
M  V30 827 H 76.632 3.60893 -3.24008 0
M  V30 828 H 72.511 4.09627 -2.11486 0
M  V30 829 H 76.055 4.20623 -5.56527 0
M  V30 830 H 71.952 4.69393 -4.43103 0
M  V30 831 H 72.72 4.99377 -6.4851 0
M  V30 832 N 75.3831 0.828654 1.34056 0
M  V30 833 C 76.3301 0.252567 2.29414 0
M  V30 834 C 77.3001 -0.62588 1.53857 0
M  V30 835 O 78.4851 -0.566312 1.82202 0
M  V30 836 C 75.6251 -0.574831 3.40279 0
M  V30 837 C 74.7381 0.326499 4.30764 0
M  V30 838 C 73.8731 -0.511016 5.28736 0
M  V30 839 C 72.9121 0.389342 6.1086 0
M  V30 840 N 72.0491 -0.409439 7.00905 0
M  V30 841 H 76.8891 1.07108 2.78086 0
M  V30 842 H 74.4261 0.539677 1.36843 0
M  V30 843 H 76.3841 -1.06992 4.03248 0
M  V30 844 H 75.0141 -1.35841 2.92826 0
M  V30 845 H 74.0661 0.939837 3.68607 0
M  V30 846 H 75.3781 1.01857 4.88289 0
M  V30 847 H 74.5321 -1.07035 5.97184 0
M  V30 848 H 73.2711 -1.23657 4.71763 0
M  V30 849 H 72.2761 0.960769 5.4134 0
M  V30 850 H 73.5011 1.1131 6.69916 0
M  V30 851 H 71.4471 -1.11856 6.46393 0
M  V30 852 H 71.3641 0.224126 7.55668 0
M  V30 853 H 72.6321 -0.951336 7.73673 0
M  V30 854 N 76.8612 -1.46375 0.584142 0
M  V30 855 C 77.8092 -2.32042 -0.161047 0
M  V30 856 C 78.8032 -1.44569 -0.882966 0
M  V30 857 O 80.0092 -1.61186 -0.801191 0
M  V30 858 H 76.3842 -0.748659 -0.0708033 0
M  V30 859 H 78.3552 -2.92704 0.580269 0
M  V30 860 C 77.1042 -3.27762 -1.1605 0
M  V30 861 H 76.4272 -3.95051 -0.614419 0
M  V30 862 H 77.8672 -3.90481 -1.65228 0
M  V30 863 C 76.3262 -2.53218 -2.22221 0
M  V30 864 O 76.8562 -2.29628 -3.29597 0
M  V30 865 N 75.0622 -2.13756 -1.96868 0
M  V30 866 H 74.6092 -2.33142 -1.09557 0
M  V30 867 H 74.5672 -1.642 -2.68115 0
M  V30 868 N 78.3393 -0.321999 -1.54275 0
M  V30 869 C 79.2693 0.537411 -2.27231 0
M  V30 870 C 80.2503 1.12064 -1.27968 0
M  V30 871 O 81.4353 1.14606 -1.56777 0
M  V30 872 C 78.5653 1.69919 -3.02894 0
M  V30 873 C 77.5193 1.24534 -4.09482 0
M  V30 874 C 76.8453 2.49394 -4.72977 0
M  V30 875 C 78.1453 0.361335 -5.21049 0
M  V30 876 H 79.8393 -0.0711406 -2.99315 0
M  V30 877 H 77.3853 -0.0356555 -1.43956 0
M  V30 878 H 79.3383 2.30668 -3.52662 0
M  V30 879 H 78.0623 2.33431 -2.28424 0
M  V30 880 H 76.7213 0.660782 -3.60596 0
M  V30 881 H 76.3693 3.11265 -3.95124 0
M  V30 882 H 76.0693 2.19718 -5.44975 0
M  V30 883 H 77.5933 3.10908 -5.25517 0
M  V30 884 H 79.0073 0.875072 -5.66582 0
M  V30 885 H 77.4043 0.157428 -5.99893 0
M  V30 886 H 78.4743 -0.60822 -4.8107 0
M  V30 887 N 79.8174 1.5752 -0.0501392 0
M  V30 888 C 81.0664 1.91827 0.623328 0
M  V30 889 C 81.3794 0.930222 1.72065 0
M  V30 890 O 82.5854 1.1653 2.4522 0
M  V30 891 C 81.0414 3.40692 1.16003 0
M  V30 892 C 80.6494 4.479 0.0948811 0
M  V30 893 C 82.3934 3.84034 1.80881 0
M  V30 894 C 80.3004 5.87879 0.644411 0
M  V30 895 H 79.2304 0.715918 0.236596 0
M  V30 896 H 81.8814 1.83115 -0.118861 0
M  V30 897 H 80.2634 3.44405 1.9545 0
M  V30 898 H 81.4374 4.55775 -0.678675 0
M  V30 899 H 79.7524 4.13892 -0.45637 0
M  V30 900 H 82.3494 4.85984 2.22988 0
M  V30 901 H 82.6924 3.20225 2.6601 0
M  V30 902 H 83.2254 3.82833 1.0809 0
M  V30 903 H 79.9644 6.55282 -0.169229 0
M  V30 904 H 79.4844 5.83567 1.38598 0
M  V30 905 H 81.1634 6.37098 1.12763 0
M  V30 906 N 81.2955 -0.223234 1.56011 0
M  V30 907 C 82.5435 -0.946003 1.78592 0
M  V30 908 C 82.8645 -1.84936 0.618349 0
M  V30 909 O 82.1345 -1.92473 -0.364833 0
M  V30 910 H 80.7145 -0.352298 0.658707 0
M  V30 911 H 83.3765 -0.235494 1.93472 0
M  V30 912 H 82.4725 -1.55381 2.70672 0
M  V30 913 N 82.7736 -1.49793 -0.48987 0
M  V30 914 C 83.7366 -1.66752 -1.57246 0
M  V30 915 C 84.7366 -0.538867 -1.51502 0
M  V30 916 O 85.9266 -0.805545 -1.54456 0
M  V30 917 C 83.0586 -1.67528 -2.96896 0
M  V30 918 H 84.2516 -2.63321 -1.43534 0
M  V30 919 H 81.8046 -1.38992 -0.714914 0
M  V30 920 H 82.5396 -0.725837 -3.16073 0
M  V30 921 H 82.3246 -2.49504 -3.02473 0
M  V30 922 H 83.8146 -1.82667 -3.7553 0
M  V30 923 N 84.2517 0.741722 -1.39055 0
M  V30 924 C 85.6677 1.04638 -1.20512 0
M  V30 925 C 85.8677 2.01405 -0.0620218 0
M  V30 926 O 84.9237 2.45547 0.588457 0
M  V30 927 C 86.2367 1.6151 -2.53643 0
M  V30 928 C 87.7847 1.73623 -2.6043 0
M  V30 929 C 88.2597 2.33906 -3.93767 0
M  V30 930 N 89.7507 2.41323 -3.9537 0
M  V30 931 C 90.4857 2.88888 -4.95309 0
M  V30 932 N 89.9817 3.36401 -6.05645 0
M  V30 933 N 91.7747 2.88037 -4.82692 0
M  V30 934 H 83.9257 0.0998155 -2.12165 0
M  V30 935 H 86.1887 0.106907 -0.941953 0
M  V30 936 H 85.8947 0.978739 -3.37807 0
M  V30 937 H 85.7687 2.60411 -2.72885 0
M  V30 938 H 88.1557 2.36384 -1.76655 0
M  V30 939 H 88.2367 0.733945 -2.45045 0
M  V30 940 H 87.8807 1.71776 -4.7797 0
M  V30 941 H 87.8107 3.34799 -4.06469 0
M  V30 942 H 90.3017 2.07734 -3.15682 0
M  V30 943 H 90.6147 3.71186 -6.77821 0
M  V30 944 H 88.9597 3.34427 -6.09248 0
M  V30 945 H 92.1507 2.50237 -3.95599 0
M  V30 946 H 92.3237 3.24792 -5.60726 0
M  V30 947 N 85.7298 1.2412 0.971189 0
M  V30 948 C 87.1458 1.00584 1.23916 0
M  V30 949 C 87.3458 -0.287481 1.99439 0
M  V30 950 O 86.4018 -1.00454 2.31658 0
M  V30 951 C 87.7148 2.21864 2.0297 0
M  V30 952 C 89.2628 2.26452 2.16076 0
M  V30 953 C 89.7378 3.47343 2.98524 0
M  V30 954 N 91.2288 3.47639 3.06107 0
M  V30 955 C 91.9638 4.37837 3.70251 0
M  V30 956 N 91.4598 5.38286 4.36142 0
M  V30 957 N 93.2528 4.25558 3.67228 0
M  V30 958 H 85.4038 2.07236 0.465499 0
M  V30 959 H 87.6668 0.909236 0.268315 0
M  V30 960 H 87.3728 3.15771 1.54861 0
M  V30 961 H 87.2468 2.23698 3.03709 0
M  V30 962 H 89.6338 1.33078 2.6339 0
M  V30 963 H 89.7148 2.28645 1.14696 0
M  V30 964 H 89.3588 4.41029 2.51905 0
M  V30 965 H 89.2888 3.42393 4.00093 0
M  V30 966 H 91.7798 2.74966 2.59233 0
M  V30 967 H 92.0928 6.03352 4.82894 0
M  V30 968 H 90.4378 5.42176 4.34822 0
M  V30 969 H 93.6288 3.46322 3.14927 0
M  V30 970 H 93.8018 4.96054 4.16935 0
M  V30 971 N 87.2079 -1.17134 1.05439 0
M  V30 972 C 88.4329 -1.91913 0.786396 0
M  V30 973 C 88.8579 -1.7643 -0.652234 0
M  V30 974 O 88.2159 -1.08372 -1.45345 0
M  V30 975 C 88.2639 -3.40921 1.17497 0
M  V30 976 O 87.3679 -4.11244 0.308589 0
M  V30 977 H 86.7089 -0.598215 0.288158 0
M  V30 978 H 89.2389 -1.48457 1.4079 0
M  V30 979 H 89.2489 -3.91668 1.14281 0
M  V30 980 H 87.9239 -3.5151 2.22292 0
M  V30 981 H 86.5009 -3.70731 0.40157 0
M  V30 982 N 88.686 -0.835752 -1.33615 0
M  V30 983 C 89.911 -0.442389 -2.02627 0
M  V30 984 C 90.336 0.947735 -1.62479 0
M  V30 985 O 89.694 1.61907 -0.815826 0
M  V30 986 C 89.742 -0.567216 -3.56111 0
M  V30 987 O 88.846 0.407799 -4.10379 0
M  V30 988 H 88.187 -0.180278 -0.639059 0
M  V30 989 H 90.717 -1.12972 -1.70583 0
M  V30 990 H 90.727 -0.447708 -4.05536 0
M  V30 991 H 89.402 -1.58103 -3.84677 0
M  V30 992 H 87.979 0.246107 -3.72087 0
M  V30 993 N 90.1641 1.46063 -0.591896 0
M  V30 994 C 91.4101 2.03203 -0.0894879 0
M  V30 995 C 91.7651 1.45407 1.25994 0
M  V30 996 O 91.0581 0.61326 1.8152 0
M  V30 997 C 91.2521 3.57391 0.0249813 0
M  V30 998 C 91.0811 4.30142 -1.3118 0
M  V30 999 C 89.8511 4.68688 -1.88838 0
M  V30 1000 C 92.0491 4.63098 -2.23708 0
M  V30 1001 N 90.0311 5.26228 -3.1616 0
M  V30 1002 C 91.4021 5.21305 -3.3562 0
M  V30 1003 C 93.4571 4.45031 -2.23274 0
M  V30 1004 C 92.1601 5.63351 -4.47245 0
M  V30 1005 C 94.1861 4.881 -3.33935 0
M  V30 1006 C 93.5481 5.46386 -4.44569 0
M  V30 1007 H 89.6471 0.778323 -0.0757431 0
M  V30 1008 H 92.2311 1.78094 -0.78681 0
M  V30 1009 H 90.4021 3.82195 0.69149 0
M  V30 1010 H 92.1341 4.0118 0.532613 0
M  V30 1011 H 88.8891 4.5174 -1.42223 0
M  V30 1012 H 89.3131 5.59512 -3.8115 0
M  V30 1013 H 93.9551 3.99295 -1.39008 0
M  V30 1014 H 91.6731 6.08061 -5.32247 0
M  V30 1015 H 95.2591 4.75866 -3.34728 0
M  V30 1016 H 94.1391 5.79102 -5.28782 0
M  V30 1017 N 91.6422 0.330177 1.54103 0
M  V30 1018 C 93.0582 -0.0222371 1.59585 0
M  V30 1019 C 93.2582 -1.49902 1.34654 0
M  V30 1020 O 92.3142 -2.25592 1.13421 0
M  V30 1021 C 93.6272 0.401932 2.98002 0
M  V30 1022 C 95.1752 0.353145 3.11001 0
M  V30 1023 C 95.6502 0.752576 4.51775 0
M  V30 1024 N 97.1412 0.706239 4.57784 0
M  V30 1025 C 97.8762 0.987417 5.64834 0
M  V30 1026 N 97.3722 1.33607 6.79795 0
M  V30 1027 N 99.1652 0.91254 5.54643 0
M  V30 1028 H 91.3162 1.29228 1.68564 0
M  V30 1029 H 93.5792 0.525906 0.78875 0
M  V30 1030 H 93.2852 1.4311 3.21267 0
M  V30 1031 H 93.1592 -0.229699 3.765 0
M  V30 1032 H 95.5462 -0.666822 2.87467 0
M  V30 1033 H 95.6272 1.0198 2.34593 0
M  V30 1034 H 95.2712 1.77049 4.76042 0
M  V30 1035 H 95.2012 0.0635409 5.26562 0
M  V30 1036 H 97.6922 0.44889 3.75224 0
M  V30 1037 H 98.0052 1.53582 7.57385 0
M  V30 1038 H 96.3502 1.37439 6.81275 0
M  V30 1039 H 99.5412 0.639601 4.6371 0
M  V30 1040 H 99.7142 1.13503 6.37982 0
M  V30 1041 N 93.1203 -1.57491 0.0584922 0
M  V30 1042 C 94.3693 -1.92155 -0.613146 0
M  V30 1043 C 94.6823 -0.939334 -1.71569 0
M  V30 1044 O 95.8883 -1.17829 -2.44599 0
M  V30 1045 C 94.3443 -3.41303 -1.14195 0
M  V30 1046 C 93.9523 -4.47944 -0.0711265 0
M  V30 1047 C 95.6963 -3.84988 -1.78841 0
M  V30 1048 C 93.6033 -5.88212 -0.613225 0
M  V30 1049 H 92.5333 -0.717162 -0.232796 0
M  V30 1050 H 95.1843 -1.83049 0.12857 0
M  V30 1051 H 93.5663 -3.45437 -1.93621 0
M  V30 1052 H 94.7403 -4.55408 0.702836 0
M  V30 1053 H 93.0553 -4.13644 0.478313 0
M  V30 1054 H 95.6523 -4.87159 -2.20408 0
M  V30 1055 H 95.9953 -3.21632 -2.64308 0
M  V30 1056 H 96.5283 -3.83401 -1.06059 0
M  V30 1057 H 93.2673 -6.55183 0.203978 0
M  V30 1058 H 92.7873 -5.84294 -1.35501 0
M  V30 1059 H 94.4663 -6.37687 -1.09383 0
M  V30 1060 N 94.5984 0.214957 -1.56127 0
M  V30 1061 C 95.8474 0.936451 -1.78643 0
M  V30 1062 C 96.1604 1.85237 -0.628229 0
M  V30 1063 O 97.3664 2.613 -0.737186 0
M  V30 1064 C 95.8224 1.7154 -3.16389 0
M  V30 1065 C 95.4304 0.845299 -4.39953 0
M  V30 1066 C 97.1744 2.42772 -3.48227 0
M  V30 1067 C 95.0814 1.62198 -5.68723 0
M  V30 1068 H 94.0114 0.353401 -0.666051 0
M  V30 1069 H 96.6624 0.190169 -1.82512 0
M  V30 1070 H 95.0444 2.50484 -3.06715 0
M  V30 1071 H 96.2184 0.0959353 -4.607 0
M  V30 1072 H 94.5334 0.244789 -4.1568 0
M  V30 1073 H 97.1304 3.01394 -4.41663 0
M  V30 1074 H 97.4734 3.15984 -2.71035 0
M  V30 1075 H 98.0064 1.70813 -3.5926 0
M  V30 1076 H 94.7454 0.933011 -6.48826 0
M  V30 1077 H 94.2654 2.34579 -5.52026 0
M  V30 1078 H 95.9444 2.18095 -6.09133 0
M  V30 1079 N 96.0765 1.50051 0.48192 0
M  V30 1080 C 97.0245 1.68635 1.60203 0
M  V30 1081 C 98.0185 0.552184 1.60148 0
M  V30 1082 O 99.2245 0.732377 1.64427 0
M  V30 1083 H 95.5995 0.532081 0.531407 0
M  V30 1084 H 97.5705 2.62616 1.41688 0
M  V30 1085 C 96.3195 1.78775 2.9822 0
M  V30 1086 H 95.6425 2.6543 2.98976 0
M  V30 1087 H 97.0825 1.95806 3.7608 0
M  V30 1088 C 95.5415 0.536849 3.32595 0
M  V30 1089 O 96.0715 -0.328897 4.00351 0
M  V30 1090 N 94.2775 0.394091 2.87915 0
M  V30 1091 H 93.8245 1.09962 2.32951 0
M  V30 1092 H 93.7825 -0.441737 3.11281 0
M  V30 1093 N 97.5546 -0.734337 1.39446 0
M  V30 1094 C 98.7796 -1.52866 1.40167 0
M  V30 1095 C 99.2046 -1.881 -0.00171513 0
M  V30 1096 O 98.5626 -1.51957 -0.988879 0
M  V30 1097 C 98.6106 -2.79235 2.28167 0
M  V30 1098 O 97.7146 -3.75185 1.71201 0
M  V30 1099 H 97.0556 -0.461618 0.477289 0
M  V30 1100 H 99.5856 -0.905949 1.8345 0
M  V30 1101 H 99.5956 -3.27963 2.42702 0
M  V30 1102 H 98.2706 -2.52923 3.30156 0
M  V30 1103 H 96.8476 -3.33958 1.65912 0
M  V30 1104 N 99.0327 -1.24633 -0.964593 0
M  V30 1105 C 99.9797 -1.04144 -2.05968 0
M  V30 1106 C 100.95 0.046262 -1.66036 0
M  V30 1107 O 102.135 -0.108972 -1.90489 0
M  V30 1108 C 99.2747 -0.65563 -3.38815 0
M  V30 1109 C 98.3877 -1.81714 -3.91923 0
M  V30 1110 C 97.5227 -1.37662 -5.13052 0
M  V30 1111 C 96.5617 -2.50788 -5.58365 0
M  V30 1112 N 95.6987 -2.07582 -6.70712 0
M  V30 1113 H 100.539 -1.9787 -2.22827 0
M  V30 1114 H 98.0757 -0.9855 -1.09208 0
M  V30 1115 H 100.034 -0.412954 -4.15151 0
M  V30 1116 H 98.6637 0.244627 -3.21872 0
M  V30 1117 H 97.7157 -2.1734 -3.12198 0
M  V30 1118 H 99.0277 -2.66705 -4.21509 0
M  V30 1119 H 98.1817 -1.093 -5.96773 0
M  V30 1120 H 96.9207 -0.497293 -4.85158 0
M  V30 1121 H 95.9257 -2.79906 -4.73215 0
M  V30 1122 H 97.1507 -3.39283 -5.88272 0
M  V30 1123 H 95.0967 -1.22051 -6.44546 0
M  V30 1124 H 95.0137 -2.86125 -6.99763 0
M  V30 1125 H 96.2817 -1.82369 -7.57867 0
M  V30 1126 N 100.511 1.16574 -1.06058 0
M  V30 1127 C 101.759 1.86677 -0.77434 0
M  V30 1128 C 102.08 1.81959 0.701147 0
M  V30 1129 O 101.35 1.2515 1.50713 0
M  V30 1130 H 99.9298 0.691134 -0.283449 0
M  V30 1131 H 102.592 1.41378 -1.34158 0
M  V30 1132 H 101.688 2.92181 -1.09711 0
M  V30 1133 N 101.989 0.842826 1.3317 0
M  V30 1134 C 103.214 0.453129 2.02389 0
M  V30 1135 C 103.639 -0.939105 1.6298 0
M  V30 1136 O 102.997 -1.61472 0.8244 0
M  V30 1137 C 103.045 0.586094 3.55805 0
M  V30 1138 O 102.149 -0.386029 4.10589 0
M  V30 1139 H 101.49 0.183664 0.638094 0
M  V30 1140 H 104.02 1.13875 1.69981 0
M  V30 1141 H 104.03 0.469209 4.05293 0
M  V30 1142 H 102.705 1.6014 3.83833 0
M  V30 1143 H 101.282 -0.226371 3.72212 0
M  V30 1144 N 103.467 -1.45747 0.599634 0
M  V30 1145 C 104.399 -2.28628 -0.161879 0
M  V30 1146 C 105.412 -1.39494 -0.839367 0
M  V30 1147 O 106.601 -1.63941 -0.706089 0
M  V30 1148 C 103.701 -3.15014 -1.24976 0
M  V30 1149 C 102.874 -4.32378 -0.660935 0
M  V30 1150 C 101.933 -5.00033 -1.63869 0
M  V30 1151 O 100.959 -5.57085 -1.1681 0
M  V30 1152 N 102.161 -4.98589 -2.97303 0
M  V30 1153 H 104.926 -2.94624 0.549265 0
M  V30 1154 H 102.487 -1.55847 0.438565 0
M  V30 1155 H 104.479 -3.5714 -1.9035 0
M  V30 1156 H 103.049 -2.5098 -1.86354 0
M  V30 1157 H 102.269 -3.9383 0.170688 0
M  V30 1158 H 103.557 -5.08197 -0.247619 0
M  V30 1159 H 102.955 -4.53514 -3.38145 0
M  V30 1160 H 101.512 -5.44603 -3.58121 0
M  V30 1161 N 104.945 -0.338344 -1.53925 0
M  V30 1162 C 106.222 0.314774 -1.93051 0
M  V30 1163 C 106.602 1.68669 -1.26941 0
M  V30 1164 O 105.95 2.24636 -0.418445 0
M  V30 1165 C 106.16 0.392249 -3.46789 0
M  V30 1166 C 107.508 0.645554 -4.19664 0
M  V30 1167 O 108.532 0.474575 -3.53024 0
M  V30 1168 O 107.391 0.976408 -5.37707 0
M  V30 1169 H 104.485 0.182598 -0.80659 0
M  V30 1170 H 107.031 -0.389141 -1.65178 0
M  V30 1171 H 105.803 -0.570702 -3.87116 0
M  V30 1172 H 105.426 1.14316 -3.80812 0
M  V30 1173 N 106.423 1.57458 -0.0668435 0
M  V30 1174 C 107.333 2.15937 0.916975 0
M  V30 1175 C 108.349 1.12123 1.33058 0
M  V30 1176 O 109.525 1.44366 1.40429 0
M  V30 1177 C 106.59 2.70547 2.16807 0
M  V30 1178 C 105.651 3.89215 1.81135 0
M  V30 1179 C 104.884 4.41211 3.0028 0
M  V30 1180 O 105.107 3.92225 4.14144 0
M  V30 1181 O 104.041 5.32605 2.80384 0
M  V30 1182 H 107.867 3.00354 0.449561 0
M  V30 1183 H 105.452 1.48584 0.155949 0
M  V30 1184 H 107.334 3.0557 2.90181 0
M  V30 1185 H 106.009 1.89192 2.62656 0
M  V30 1186 H 104.916 3.59054 1.05028 0
M  V30 1187 H 106.249 4.71848 1.40073 0
M  V30 1188 N 107.901 -0.206675 1.56239 0
M  V30 1189 C 108.864 -1.23976 1.92776 0
M  V30 1190 C 109.864 -1.39041 0.807729 0
M  V30 1191 O 111.054 -1.37051 1.0753 0
M  V30 1192 C 108.186 -2.61112 2.19165 0
M  V30 1193 H 109.379 -0.927764 2.85189 0
M  V30 1194 H 106.932 -0.447718 1.4975 0
M  V30 1195 H 107.667 -2.97386 1.29352 0
M  V30 1196 H 107.452 -2.51552 3.00772 0
M  V30 1197 H 108.942 -3.35633 2.48476 0
M  V30 1198 N 109.379 -1.50304 -0.473955 0
M  V30 1199 C 110.327 -1.69482 -1.59307 0
M  V30 1200 C 111.321 -0.560669 -1.59853 0
M  V30 1201 O 112.527 -0.741087 -1.64036 0
M  V30 1202 H 108.902 -0.534892 -0.528578 0
M  V30 1203 H 110.873 -2.63364 -1.40293 0
M  V30 1204 C 109.622 -1.80354 -2.97267 0
M  V30 1205 H 108.945 -2.67012 -2.97564 0
M  V30 1206 H 110.385 -1.97798 -3.75036 0
M  V30 1207 C 108.844 -0.55448 -3.32306 0
M  V30 1208 O 109.374 0.307661 -4.0052 0
M  V30 1209 N 107.58 -0.409354 -2.87702 0
M  V30 1210 H 107.127 -1.11196 -2.32364 0
M  V30 1211 H 107.085 0.425223 -3.11511 0
M  V30 1212 N 110.857 0.726932 -1.39834 0
M  V30 1213 C 112.105 1.4837 -1.37225 0
M  V30 1214 C 112.426 1.94979 0.0284857 0
M  V30 1215 O 111.696 1.69555 0.981213 0
M  V30 1216 H 110.276 0.55043 -0.505011 0
M  V30 1217 H 112.938 0.862468 -1.74778 0
M  V30 1218 H 112.034 2.36198 -2.04003 0
M  V30 1219 N 112.336 1.25143 0.95797 0
M  V30 1220 C 113.561 1.12521 1.74223 0
M  V30 1221 C 113.986 -0.317402 1.85403 0
M  V30 1222 O 113.344 -1.2299 1.33204 0
M  V30 1223 C 113.392 1.78062 3.1357 0
M  V30 1224 O 112.496 1.058 3.98598 0
M  V30 1225 H 111.837 0.39304 0.535178 0
M  V30 1226 H 114.367 1.65641 1.201 0
M  V30 1227 H 114.377 1.84213 3.64046 0
M  V30 1228 H 113.052 2.83021 3.04749 0
M  V30 1229 H 111.629 1.07506 3.57067 0
M  V30 1230 N 113.814 -1.1601 1.06675 0
M  V30 1231 C 115.091 -1.82679 0.699114 0
M  V30 1232 C 115.471 -1.94559 -0.819137 0
M  V30 1233 O 114.819 -1.49169 -1.73092 0
M  V30 1234 C 115.029 -3.19445 1.40555 0
M  V30 1235 C 116.377 -3.95171 1.55323 0
M  V30 1236 O 117.401 -3.28976 1.36577 0
M  V30 1237 O 116.26 -5.13833 1.86112 0
M  V30 1238 H 113.354 -0.788954 0.247951 0
M  V30 1239 H 115.9 -1.23179 1.16726 0
M  V30 1240 H 114.672 -3.05856 2.44065 0
M  V30 1241 H 114.295 -3.86625 0.927733 0
M  V30 1242 N 115.292 -0.849877 -1.32721 0
M  V30 1243 C 116.202 -0.293791 -2.32753 0
M  V30 1244 C 117.218 0.585906 -1.63839 0
M  V30 1245 O 118.394 0.487413 -1.95413 0
M  V30 1246 C 115.459 0.512752 -3.42887 0
M  V30 1247 C 114.52 -0.39252 -4.27502 0
M  V30 1248 C 113.753 0.375625 -5.32377 0
M  V30 1249 O 113.976 1.60613 -5.4732 0
M  V30 1250 O 112.91 -0.256094 -6.01355 0
M  V30 1251 H 116.736 -1.12242 -2.82197 0
M  V30 1252 H 114.321 -0.612685 -1.36259 0
M  V30 1253 H 116.203 0.970704 -4.10067 0
M  V30 1254 H 114.878 1.31826 -2.95641 0
M  V30 1255 H 113.785 -0.898547 -3.63149 0
M  V30 1256 H 115.118 -1.16309 -4.7826 0
M  V30 1257 N 116.77 1.45427 -0.607355 0
M  V30 1258 C 118.019 2.01452 -0.100036 0
M  V30 1259 C 118.332 1.48159 1.27704 0
M  V30 1260 O 119.538 1.96159 1.87707 0
M  V30 1261 C 117.994 3.59672 -0.128158 0
M  V30 1262 C 117.602 4.21962 -1.50507 0
M  V30 1263 C 119.346 4.23262 0.323932 0
M  V30 1264 C 117.253 5.72333 -1.48959 0
M  V30 1265 H 116.183 0.75325 -0.0336299 0
M  V30 1266 H 118.834 1.66901 -0.76265 0
M  V30 1267 H 117.216 3.91411 0.601105 0
M  V30 1268 H 118.39 4.01796 -2.25602 0
M  V30 1269 H 116.705 3.70565 -1.89923 0
M  V30 1270 H 119.302 5.33522 0.354691 0
M  V30 1271 H 119.645 3.93921 1.34656 0
M  V30 1272 H 120.178 3.96239 -0.352056 0
M  V30 1273 H 116.917 6.06373 -2.48981 0
M  V30 1274 H 116.437 5.94691 -0.781214 0
M  V30 1275 H 118.116 6.35525 -1.21313 0
M  V30 1276 N 118.248 0.346503 1.53744 0
M  V30 1277 C 119.198 -0.524953 2.21874 0
M  V30 1278 C 120.182 -1.06376 1.20718 0
M  V30 1279 O 121.374 -0.996972 1.46251 0
M  V30 1280 C 118.503 -1.6739 2.99726 0
M  V30 1281 C 117.589 -1.14888 4.08242 0
M  V30 1282 N 117.98 -0.345329 5.0462 0
M  V30 1283 C 116.278 -1.4255 4.22606 0
M  V30 1284 C 116.979 -0.0600706 5.81669 0
M  V30 1285 N 115.955 -0.65252 5.39669 0
M  V30 1286 H 119.757 0.0960091 2.93743 0
M  V30 1287 H 117.271 0.15352 1.61673 0
M  V30 1288 H 119.268 -2.3102 3.47038 0
M  V30 1289 H 117.928 -2.29811 2.29384 0
M  V30 1290 H 118.939 0.0138439 5.17898 0
M  V30 1291 H 115.616 -2.05389 3.63486 0
M  V30 1292 H 117.006 0.588321 6.69319 0
M  V30 1293 N 119.726 -1.57421 0.075193 0
M  V30 1294 C 120.975 -1.92794 -0.592731 0
M  V30 1295 C 121.288 -0.957478 -1.70563 0
M  V30 1296 O 122.494 -1.20417 -2.43335 0
M  V30 1297 C 120.95 -3.42495 -1.10569 0
M  V30 1298 C 120.558 -4.47994 -0.0236121 0
M  V30 1299 C 122.302 -3.86864 -1.74748 0
M  V30 1300 C 120.209 -5.88829 -0.550803 0
M  V30 1301 H 119.139 -0.719591 -0.225177 0
M  V30 1302 H 121.79 -1.82902 0.147978 0
M  V30 1303 H 120.172 -3.47471 -1.89947 0
M  V30 1304 H 121.346 -4.54637 0.751099 0
M  V30 1305 H 119.661 -4.13113 0.522159 0
M  V30 1306 H 122.258 -4.8947 -2.15229 0
M  V30 1307 H 122.601 -3.24417 -2.60882 0
M  V30 1308 H 123.134 -3.84504 -1.01986 0
M  V30 1309 H 119.873 -6.54929 0.273457 0
M  V30 1310 H 119.393 -5.85698 -1.29296 0
M  V30 1311 H 121.072 -6.38811 -1.02613 0
M  V30 1312 N 121.204 0.198386 -1.56346 0
M  V30 1313 C 122.432 0.935572 -1.84539 0
M  V30 1314 C 122.847 1.76989 -0.657281 0
M  V30 1315 O 122.204 1.78626 0.374043 0
M  V30 1316 C 122.255 1.8344 -3.11499 0
M  V30 1317 O 121.976 1.03377 -4.25728 0
M  V30 1318 C 123.477 2.68355 -3.52846 0
M  V30 1319 H 120.697 0.273126 -0.612897 0
M  V30 1320 H 123.241 0.20663 -2.03453 0
M  V30 1321 H 121.396 2.51701 -2.94492 0
M  V30 1322 H 121.81 1.64599 -4.98003 0
M  V30 1323 H 123.284 3.27085 -4.44657 0
M  V30 1324 H 123.761 3.41901 -2.75681 0
M  V30 1325 H 124.367 2.05471 -3.72373 0
M  V30 1326 N 122.682 1.50554 0.465978 0
M  V30 1327 C 123.629 1.6979 1.56333 0
M  V30 1328 C 124.599 0.539239 1.57103 0
M  V30 1329 O 125.784 0.770401 1.74555 0
M  V30 1330 C 122.924 1.80273 2.94271 0
M  V30 1331 C 122.037 3.07674 3.0325 0
M  V30 1332 C 121.172 3.08922 4.32135 0
M  V30 1333 C 120.211 4.30755 4.34875 0
M  V30 1334 N 119.348 4.29714 5.55239 0
M  V30 1335 H 124.188 2.63472 1.39235 0
M  V30 1336 H 121.725 1.30602 0.676873 0
M  V30 1337 H 123.683 1.84332 3.74269 0
M  V30 1338 H 122.313 0.900258 3.09992 0
M  V30 1339 H 121.365 3.13062 2.16094 0
M  V30 1340 H 122.677 3.97642 3.01135 0
M  V30 1341 H 121.831 3.11738 5.20485 0
M  V30 1342 H 120.57 2.16792 4.36866 0
M  V30 1343 H 119.575 4.28146 3.44922 0
M  V30 1344 H 120.8 5.24117 4.31831 0
M  V30 1345 H 118.746 3.4044 5.60746 0
M  V30 1346 H 118.663 5.13456 5.54886 0
M  V30 1347 H 119.931 4.36683 6.457 0
M  V30 1348 N 124.16 -0.719506 1.40217 0
M  V30 1349 C 125.408 -1.47641 1.3801 0
M  V30 1350 C 125.729 -1.94992 -0.018145 0
M  V30 1351 O 124.999 -1.70073 -0.972207 0
M  V30 1352 H 123.579 -0.547744 0.507923 0
M  V30 1353 H 126.241 -0.853187 1.75233 0
M  V30 1354 H 125.337 -2.35112 2.05253 0
M  V30 1355 N 125.638 -1.25649 -0.95132 0
M  V30 1356 C 126.885 -1.10594 -1.69633 0
M  V30 1357 C 127.213 0.352515 -1.91279 0
M  V30 1358 O 126.468 1.27601 -1.4838 0
M  V30 1359 C 126.767 -1.80909 -3.08231 0
M  V30 1360 C 126.433 -3.30825 -3.06375 0
M  V30 1361 C 125.095 -3.71722 -3.05576 0
M  V30 1362 C 127.447 -4.26589 -2.99452 0
M  V30 1363 C 124.775 -5.06788 -2.95606 0
M  V30 1364 C 127.127 -5.61683 -2.91024 0
M  V30 1365 C 125.791 -6.01904 -2.88562 0
M  V30 1366 H 125.061 -0.404691 -0.620731 0
M  V30 1367 H 127.708 -1.55964 -1.11119 0
M  V30 1368 H 126.013 -1.27979 -3.70309 0
M  V30 1369 H 127.71 -1.6671 -3.64704 0
M  V30 1370 H 124.3 -2.98287 -3.07771 0
M  V30 1371 H 128.484 -3.95982 -2.99185 0
M  V30 1372 H 123.74 -5.37126 -2.92071 0
M  V30 1373 H 127.914 -6.35578 -2.84629 0
M  V30 1374 H 125.541 -7.06521 -2.80593 0
M  V30 1375 N 127.117 1.15442 -1.07289 0
M  V30 1376 C 128.533 1.38201 -0.798288 0
M  V30 1377 C 128.733 1.92429 0.597769 0
M  V30 1378 O 127.789 2.12962 1.3566 0
M  V30 1379 C 129.102 2.35357 -1.87156 0
M  V30 1380 C 130.65 2.49021 -1.89624 0
M  V30 1381 C 131.125 3.49468 -2.96034 0
M  V30 1382 N 132.616 3.57003 -2.95132 0
M  V30 1383 C 133.351 4.34543 -3.74112 0
M  V30 1384 N 132.847 5.15421 -4.6294 0
M  V30 1385 N 134.64 4.29625 -3.62462 0
M  V30 1386 H 126.791 0.78584 -1.97328 0
M  V30 1387 H 129.054 0.408065 -0.855679 0
M  V30 1388 H 128.76 2.02626 -2.87464 0
M  V30 1389 H 128.634 3.35129 -1.73114 0
M  V30 1390 H 131.021 2.81051 -0.899687 0
M  V30 1391 H 131.102 1.4925 -2.07745 0
M  V30 1392 H 130.746 3.18173 -3.95889 0
M  V30 1393 H 130.676 4.48992 -2.75161 0
M  V30 1394 H 133.167 2.99276 -2.30743 0
M  V30 1395 H 133.48 5.7183 -5.19837 0
M  V30 1396 H 131.825 5.14729 -4.66989 0
M  V30 1397 H 135.016 3.65505 -2.92444 0
M  V30 1398 H 135.189 4.89807 -4.24256 0
M  V30 1399 N 128.595 0.856903 1.32268 0
M  V30 1400 C 129.542 0.301172 2.28827 0
M  V30 1401 C 130.512 -0.593104 1.5515 0
M  V30 1402 O 131.697 -0.527537 1.83362 0
M  V30 1403 C 128.837 -0.502523 3.41422 0
M  V30 1404 C 127.95 0.417797 4.29975 0
M  V30 1405 C 127.085 -0.398749 5.29701 0
M  V30 1406 C 126.124 0.518827 6.09897 0
M  V30 1407 N 125.261 -0.260674 7.01616 0
M  V30 1408 H 130.101 1.12983 2.75751 0
M  V30 1409 H 127.638 0.568582 1.35667 0
M  V30 1410 H 129.596 -0.984141 4.05426 0
M  V30 1411 H 128.226 -1.29599 2.95642 0
M  V30 1412 H 127.278 1.01781 3.66531 0
M  V30 1413 H 128.59 1.12191 4.86019 0
M  V30 1414 H 127.744 -0.943435 5.9932 0
M  V30 1415 H 126.483 -1.13622 4.7428 0
M  V30 1416 H 125.488 1.07538 5.39181 0
M  V30 1417 H 126.713 1.25495 6.67404 0
M  V30 1418 H 124.659 -0.981198 6.4862 0
M  V30 1419 H 124.576 0.384364 7.55022 0
M  V30 1420 H 125.844 -0.787014 7.75517 0
M  V30 1421 N 130.073 -1.45103 0.615059 0
M  V30 1422 C 130.983 -2.34382 -0.101034 0
M  V30 1423 C 131.999 -1.51681 -0.852585 0
M  V30 1424 O 133.175 -1.8446 -0.808484 0
M  V30 1425 C 130.24 -3.29417 -1.08099 0
M  V30 1426 C 129.301 -4.28025 -0.330577 0
M  V30 1427 C 128.534 -5.1852 -1.26385 0
M  V30 1428 O 128.757 -5.12598 -2.50198 0
M  V30 1429 O 127.691 -5.97122 -0.756866 0
M  V30 1430 H 131.517 -2.97033 0.632855 0
M  V30 1431 H 129.102 -1.4461 0.375293 0
M  V30 1432 H 130.984 -3.87958 -1.6452 0
M  V30 1433 H 129.659 -2.69321 -1.79577 0
M  V30 1434 H 128.566 -3.73078 0.276283 0
M  V30 1435 H 129.899 -4.90997 0.343866 0
M  V30 1436 N 131.551 -0.354651 -1.53558 0
M  V30 1437 C 132.797 0.238797 -2.01389 0
M  V30 1438 C 133.13 1.49309 -1.2418 0
M  V30 1439 O 132.405 1.91638 -0.332457 0
M  V30 1440 C 132.688 0.541771 -3.56001 0
M  V30 1441 C 132.541 -0.725388 -4.43912 0
M  V30 1442 C 133.86 1.34685 -4.18984 0
M  V30 1443 H 130.979 0.0853177 -0.732045 0
M  V30 1444 H 133.621 -0.477384 -1.83905 0
M  V30 1445 H 131.771 1.15189 -3.71031 0
M  V30 1446 H 133.443 -1.36313 -4.407 0
M  V30 1447 H 131.686 -1.34801 -4.12324 0
M  V30 1448 H 132.357 -0.468505 -5.50008 0
M  V30 1449 H 134.833 0.830837 -4.07721 0
M  V30 1450 H 133.709 1.52759 -5.27215 0
M  V30 1451 H 133.97 2.35221 -3.74331 0
M  V30 1452 N 133.029 1.57378 -0.0835403 0
M  V30 1453 C 133.939 2.16897 0.894021 0
M  V30 1454 C 134.955 1.13528 1.31861 0
M  V30 1455 O 136.131 1.45848 1.3889 0
M  V30 1456 C 133.196 2.72831 2.13925 0
M  V30 1457 C 132.257 3.91115 1.76997 0
M  V30 1458 C 131.49 4.44371 2.95584 0
M  V30 1459 O 131.713 3.96596 4.09961 0
M  V30 1460 O 130.647 5.35549 2.74719 0
M  V30 1461 H 134.473 3.00814 0.417679 0
M  V30 1462 H 132.058 1.48741 0.140181 0
M  V30 1463 H 133.94 3.0863 2.86924 0
M  V30 1464 H 132.615 1.91967 2.60635 0
M  V30 1465 H 131.522 3.60148 1.01214 0
M  V30 1466 H 132.855 4.73307 1.3506 0
M  V30 1467 N 134.507 -0.190092 1.56449 0
M  V30 1468 C 135.454 -1.23557 1.94942 0
M  V30 1469 C 136.424 -1.44972 0.810696 0
M  V30 1470 O 137.609 -1.58023 1.06927 0
M  V30 1471 C 134.749 -2.57416 2.2985 0
M  V30 1472 C 133.862 -2.43537 3.5681 0
M  V30 1473 C 132.997 -3.70134 3.81017 0
M  V30 1474 C 132.036 -3.51109 5.01387 0
M  V30 1475 N 131.173 -4.6973 5.21822 0
M  V30 1476 H 136.013 -0.900304 2.84075 0
M  V30 1477 H 133.55 -0.43318 1.40577 0
M  V30 1478 H 135.508 -3.35409 2.48106 0
M  V30 1479 H 134.138 -2.88975 1.43852 0
M  V30 1480 H 133.19 -1.56816 3.46573 0
M  V30 1481 H 134.502 -2.25415 4.4496 0
M  V30 1482 H 133.656 -4.56566 3.9954 0
M  V30 1483 H 132.395 -3.91215 2.91207 0
M  V30 1484 H 131.4 -2.63063 4.82782 0
M  V30 1485 H 132.625 -3.31468 5.9271 0
M  V30 1486 H 130.571 -4.91065 4.34961 0
M  V30 1487 H 130.488 -4.54452 6.0416 0
M  V30 1488 H 131.756 -5.57499 5.44808 0
M  V30 1489 N 135.985 -1.50799 -0.457987 0
M  V30 1490 C 136.895 -1.73426 -1.57989 0
M  V30 1491 C 137.911 -0.617745 -1.62665 0
M  V30 1492 O 139.087 -0.897614 -1.80291 0
M  V30 1493 C 136.152 -1.83557 -2.94122 0
M  V30 1494 C 135.213 -3.07345 -2.99729 0
M  V30 1495 C 134.446 -3.16983 -4.29368 0
M  V30 1496 O 134.669 -2.33077 -5.20607 0
M  V30 1497 O 133.603 -4.09812 -4.40837 0
M  V30 1498 H 137.429 -2.68555 -1.41817 0
M  V30 1499 H 135.014 -1.35052 -0.638859 0
M  V30 1500 H 136.896 -1.92326 -3.74952 0
M  V30 1501 H 135.571 -0.916137 -3.10465 0
M  V30 1502 H 134.478 -3.04068 -2.1793 0
M  V30 1503 H 135.811 -3.9891 -2.88326 0
M  V30 1504 N 137.463 0.71206 -1.40597 0
M  V30 1505 C 138.712 1.46754 -1.38369 0
M  V30 1506 C 139.025 1.95598 0.0097839 0
M  V30 1507 O 140.231 2.71059 0.154677 0
M  V30 1508 C 138.687 2.65289 -2.43207 0
M  V30 1509 C 138.295 2.23301 -3.88382 0
M  V30 1510 C 140.039 3.43008 -2.50091 0
M  V30 1511 C 137.946 3.38696 -4.84808 0
M  V30 1512 H 136.876 0.55118 -0.514506 0
M  V30 1513 H 139.527 0.774616 -1.66349 0
M  V30 1514 H 137.909 3.36769 -2.08332 0
M  V30 1515 H 139.083 1.59218 -4.32419 0
M  V30 1516 H 137.398 1.58618 -3.85006 0
M  V30 1517 H 139.995 4.28881 -3.1932 0
M  V30 1518 H 140.338 3.87065 -1.53253 0
M  V30 1519 H 140.871 2.78574 -2.83974 0
M  V30 1520 H 137.61 2.99668 -5.82992 0
M  V30 1521 H 137.13 4.01683 -4.45433 0
M  V30 1522 H 138.809 4.04712 -5.04794 0
M  V30 1523 N 138.941 1.26152 0.944643 0
M  V30 1524 C 140.218 1.02247 1.66748 0
M  V30 1525 C 140.598 -0.448202 2.06287 0
M  V30 1526 O 139.946 -1.42779 1.78399 0
M  V30 1527 C 140.156 1.96788 2.88228 0
M  V30 1528 C 141.504 2.25201 3.59958 0
M  V30 1529 O 142.528 1.94626 2.98327 0
M  V30 1530 O 141.387 2.77242 4.70956 0
M  V30 1531 H 138.481 0.388517 0.730057 0
M  V30 1532 H 141.027 1.37348 0.99668 0
M  V30 1533 H 139.799 2.96047 2.55875 0
M  V30 1534 H 139.422 1.62145 3.63035 0
M  V30 1535 N 140.419 -1.14872 1.07899 0
M  V30 1536 C 141.329 -2.2341 0.715915 0
M  V30 1537 C 142.345 -1.71808 -0.275306 0
M  V30 1538 O 143.521 -2.01039 -0.120545 0
M  V30 1539 C 140.586 -3.46474 0.125168 0
M  V30 1540 C 139.647 -4.13039 1.17034 0
M  V30 1541 C 138.88 -5.30229 0.607688 0
M  V30 1542 O 139.103 -5.675 -0.574497 0
M  V30 1543 O 138.037 -5.86444 1.35526 0
M  V30 1544 H 141.863 -2.56808 1.62121 0
M  V30 1545 H 139.448 -1.22702 0.852322 0
M  V30 1546 H 141.33 -4.20917 -0.201729 0
M  V30 1547 H 140.005 -3.14811 -0.753364 0
M  V30 1548 H 138.912 -3.40493 1.54968 0
M  V30 1549 H 140.245 -4.48796 2.02097 0
M  V30 1550 N 141.898 -0.863906 -1.31812 0
M  V30 1551 C 143.147 -0.46801 -1.96195 0
M  V30 1552 C 143.46 0.983474 -1.69077 0
M  V30 1553 O 144.666 1.48523 -2.27273 0
M  V30 1554 C 143.122 -0.785995 -3.51212 0
M  V30 1555 C 142.73 -2.25383 -3.87178 0
M  V30 1556 C 144.474 -0.458274 -4.22019 0
M  V30 1557 C 142.381 -2.51455 -5.3528 0
M  V30 1558 H 141.311 -0.171283 -0.734287 0
M  V30 1559 H 143.962 -1.05597 -1.50072 0
M  V30 1560 H 142.344 -0.127359 -3.95795 0
M  V30 1561 H 143.518 -2.95502 -3.53575 0
M  V30 1562 H 141.833 -2.54698 -3.2942 0
M  V30 1563 H 144.43 -0.630369 -5.30971 0
M  V30 1564 H 144.773 0.600834 -4.11941 0
M  V30 1565 H 145.306 -1.07319 -3.8305 0
M  V30 1566 H 142.045 -3.56025 -5.50387 0
M  V30 1567 H 141.565 -1.85923 -5.70257 0
M  V30 1568 H 143.244 -2.35874 -6.02472 0
M  V30 1569 N 143.376 1.44774 -0.622745 0
M  V30 1570 C 144.616 2.04004 -0.127102 0
M  V30 1571 C 144.98 1.47862 1.22478 0
M  V30 1572 O 146.181 1.98541 1.81204 0
M  V30 1573 C 144.452 3.57247 -0.104429 0
M  V30 1574 S 146.011 4.37574 0.327814 0
M  V30 1575 H 142.829 0.708713 -0.0569776 0
M  V30 1576 H 145.431 1.77275 -0.824253 0
M  V30 1577 H 144.135 3.95616 -1.09159 0
M  V30 1578 H 143.666 3.88575 0.614236 0
M  V30 1579 H 145.681 4.70575 1.57395 0
M  V30 1580 N 144.854 0.36279 1.53368 0
M  V30 1581 C 146.079 -0.231226 2.06107 0
M  V30 1582 C 146.504 -1.419 1.23474 0
M  V30 1583 O 145.862 -1.79524 0.253128 0
M  V30 1584 C 145.91 -0.605523 3.5548 0
M  V30 1585 O 145.014 -1.70312 3.7559 0
M  V30 1586 H 144.355 -0.034327 0.663112 0
M  V30 1587 H 146.885 0.522584 1.97814 0
M  V30 1588 H 146.895 -0.877314 3.98456 0
M  V30 1589 H 145.57 0.263004 4.15068 0
M  V30 1590 H 144.147 -1.4271 3.44512 0
M  V30 1591 N 146.332 -1.57332 0.0918853 0
M  V30 1592 C 147.557 -1.98995 -0.584442 0
M  V30 1593 C 147.982 -0.970528 -1.61128 0
M  V30 1594 O 147.34 0.0613904 -1.81196 0
M  V30 1595 C 147.388 -3.39636 -1.21161 0
M  V30 1596 O 146.492 -3.40447 -2.32744 0
M  V30 1597 H 145.833 -0.647165 -0.148572 0
M  V30 1598 H 148.363 -2.03873 0.172347 0
M  V30 1599 H 148.373 -3.7726 -1.55367 0
M  V30 1600 H 147.048 -4.13356 -0.459313 0
M  V30 1601 H 145.625 -3.14614 -2.0018 0
M  V30 1602 N 147.81 0.181792 -1.56548 0
M  V30 1603 C 149.059 0.898348 -1.8059 0
M  V30 1604 C 149.372 1.83862 -0.667379 0
M  V30 1605 O 150.578 2.59678 -0.792446 0
M  V30 1606 C 149.034 1.64791 -3.19956 0
M  V30 1607 C 148.642 0.751789 -4.41647 0
M  V30 1608 C 150.386 2.35331 -3.53298 0
M  V30 1609 C 148.293 1.50098 -5.72035 0
M  V30 1610 H 147.223 0.339194 -0.673397 0
M  V30 1611 H 149.874 0.151413 -1.82874 0
M  V30 1612 H 148.256 2.43921 -3.11959 0
M  V30 1613 H 149.43 -0.0018076 -4.608 0
M  V30 1614 H 147.745 0.156562 -4.16106 0
M  V30 1615 H 150.342 2.91958 -4.47956 0
M  V30 1616 H 150.685 3.10164 -2.77676 0
M  V30 1617 H 151.218 1.63154 -3.62803 0
M  V30 1618 H 147.957 0.795175 -6.50659 0
M  V30 1619 H 147.477 2.22817 -5.56878 0
M  V30 1620 H 149.156 2.05125 -6.13622 0
M  V30 1621 N 149.288 1.51039 0.449983 0
M  V30 1622 C 150.218 1.74379 1.55288 0
M  V30 1623 C 151.199 0.593236 1.5942 0
M  V30 1624 O 152.384 0.834625 1.7535 0
M  V30 1625 C 149.514 1.85728 2.93466 0
M  V30 1626 C 148.468 3.01078 3.04197 0
M  V30 1627 C 147.794 2.97595 4.44231 0
M  V30 1628 C 149.094 4.41254 2.7945 0
M  V30 1629 H 150.788 2.66725 1.36008 0
M  V30 1630 H 148.334 1.2835 0.652864 0
M  V30 1631 H 150.287 2.0064 3.70569 0
M  V30 1632 H 149.011 0.900207 3.13949 0
M  V30 1633 H 147.67 2.85851 2.29531 0
M  V30 1634 H 147.318 1.99691 4.61663 0
M  V30 1635 H 147.018 3.75046 4.52343 0
M  V30 1636 H 148.542 3.14583 5.23326 0
M  V30 1637 H 149.956 4.56897 3.46292 0
M  V30 1638 H 148.353 5.20315 2.98985 0
M  V30 1639 H 149.423 4.52164 1.75144 0
M  V30 1640 N 150.766 -0.704594 1.40972 0
M  V30 1641 C 151.714 -1.83994 1.42299 0
M  V30 1642 C 152.708 -1.66684 0.302111 0
M  V30 1643 O 153.914 -1.73655 0.473697 0
M  V30 1644 H 150.289 -0.606171 0.44504 0
M  V30 1645 H 152.26 -1.79992 2.38003 0
M  V30 1646 C 151.009 -3.21946 1.31323 0
M  V30 1647 H 150.332 -3.35878 2.16855 0
M  V30 1648 H 151.772 -4.01491 1.36311 0
M  V30 1649 C 150.231 -3.36891 0.0245977 0
M  V30 1650 O 150.761 -3.90687 -0.934153 0
M  V30 1651 N 148.967 -2.90559 -0.0485243 0
M  V30 1652 H 148.514 -2.46968 0.732419 0
M  V30 1653 H 148.472 -3.00937 -0.910171 0
M  V30 1654 N 152.244 -1.26651 -0.937939 0
M  V30 1655 C 153.49 -1.12553 -1.687 0
M  V30 1656 C 153.823 0.329782 -1.91379 0
M  V30 1657 O 153.098 1.24202 -1.4968 0
M  V30 1658 C 153.381 -1.89862 -3.05981 0
M  V30 1659 C 153.234 -3.43318 -2.90607 0
M  V30 1660 C 154.553 -1.69499 -4.0615 0
M  V30 1661 H 151.672 -0.410257 -0.612257 0
M  V30 1662 H 154.314 -1.55685 -1.08913 0
M  V30 1663 H 152.464 -1.53204 -3.57017 0
M  V30 1664 H 154.136 -3.89747 -2.46769 0
M  V30 1665 H 152.379 -3.70179 -2.26164 0
M  V30 1666 H 153.05 -3.92642 -3.8799 0
M  V30 1667 H 155.526 -2.01442 -3.64088 0
M  V30 1668 H 154.402 -2.26002 -5.00214 0
M  V30 1669 H 154.663 -0.640365 -4.37438 0
M  V30 1670 N 153.722 1.14298 -1.08507 0
M  V30 1671 C 154.652 2.21542 -0.737646 0
M  V30 1672 C 155.633 1.67773 0.280377 0
M  V30 1673 O 156.818 1.93616 0.150521 0
M  V30 1674 C 153.948 3.46988 -0.147259 0
M  V30 1675 C 152.902 4.13789 -1.09374 0
M  V30 1676 C 152.228 5.33449 -0.365524 0
M  V30 1677 C 153.528 4.62208 -2.4323 0
M  V30 1678 H 155.222 2.5086 -1.6343 0
M  V30 1679 H 152.768 1.20576 -0.787243 0
M  V30 1680 H 154.721 4.21262 0.107808 0
M  V30 1681 H 153.445 3.17037 0.784538 0
M  V30 1682 H 152.104 3.4147 -1.33393 0
M  V30 1683 H 151.752 4.99759 0.57011 0
M  V30 1684 H 151.452 5.79088 -0.996512 0
M  V30 1685 H 152.976 6.10485 -0.118534 0
M  V30 1686 H 154.39 5.27952 -2.23472 0
M  V30 1687 H 152.787 5.18553 -3.02031 0
M  V30 1688 H 153.857 3.77224 -3.04681 0
M  V30 1689 N 155.201 0.870884 1.31352 0
M  V30 1690 C 156.478 0.402907 1.91405 0
M  V30 1691 C 156.858 -1.11512 1.79244 0
M  V30 1692 O 156.206 -1.94411 1.2007 0
M  V30 1693 C 156.416 0.885301 3.37585 0
M  V30 1694 C 157.764 0.911971 4.14691 0
M  V30 1695 O 158.788 0.831016 3.46371 0
M  V30 1696 O 157.647 1.02927 5.3672 0
M  V30 1697 H 154.741 0.120698 0.818145 0
M  V30 1698 H 157.287 0.958857 1.40014 0
M  V30 1699 H 156.059 1.92889 3.40455 0
M  V30 1700 H 155.682 0.307714 3.96407 0
M  V30 1701 N 156.679 -1.44442 0.630414 0
M  V30 1702 C 157.627 -2.32437 -0.0871428 0
M  V30 1703 C 158.621 -1.47304 -0.836525 0
M  V30 1704 O 159.827 -1.63653 -0.749506 0
M  V30 1705 H 156.202 -0.750533 -0.0469495 0
M  V30 1706 H 158.173 -2.90709 0.673096 0
M  V30 1707 C 156.922 -3.31288 -1.05563 0
M  V30 1708 H 156.245 -3.96805 -0.488426 0
M  V30 1709 H 157.685 -3.9554 -1.52721 0
M  V30 1710 C 156.144 -2.6016 -2.14052 0
M  V30 1711 O 156.674 -2.39997 -3.22124 0
M  V30 1712 N 154.88 -2.19911 -1.89967 0
M  V30 1713 H 154.427 -2.36509 -1.02085 0
M  V30 1714 H 154.385 -1.72646 -2.62756 0
M  V30 1715 N 158.157 -0.370918 -1.53173 0
M  V30 1716 C 159.397 0.217106 -2.03244 0
M  V30 1717 C 159.761 1.45558 -1.25207 0
M  V30 1718 O 160.962 2.11957 -1.65311 0
M  V30 1719 C 159.233 0.496664 -3.53932 0
M  V30 1720 S 160.792 1.0576 -4.25864 0
M  V30 1721 H 157.61 0.0627827 -0.708223 0
M  V30 1722 H 160.212 -0.515019 -1.88594 0
M  V30 1723 H 158.916 -0.412096 -4.08326 0
M  V30 1724 H 158.447 1.25772 -3.72753 0
M  V30 1725 H 160.462 2.34145 -4.37482 0
M  V30 1726 N 159.635 1.57281 -0.100228 0
M  V30 1727 C 160.565 2.17328 0.853857 0
M  V30 1728 C 161.546 1.10804 1.2906 0
M  V30 1729 O 162.731 1.38963 1.35657 0
M  V30 1730 C 159.861 2.75772 2.11109 0
M  V30 1731 C 158.815 3.87713 1.81279 0
M  V30 1732 C 158.141 4.32882 3.13874 0
M  V30 1733 C 159.441 5.10677 1.09574 0
M  V30 1734 H 161.135 2.97305 0.353545 0
M  V30 1735 H 158.681 1.43009 0.168612 0
M  V30 1736 H 160.634 3.16433 2.78296 0
M  V30 1737 H 159.358 1.93057 2.63432 0
M  V30 1738 H 158.017 3.476 1.16489 0
M  V30 1739 H 157.665 3.47051 3.64095 0
M  V30 1740 H 157.365 5.08358 2.94696 0
M  V30 1741 H 158.889 4.7618 3.82211 0
M  V30 1742 H 160.303 5.48474 1.66879 0
M  V30 1743 H 158.7 5.91615 1.00557 0
M  V30 1744 H 159.77 4.84835 0.0793299 0
M  V30 1745 N 161.113 -0.173488 1.56642 0
M  V30 1746 C 162.043 -1.2171 1.99271 0
M  V30 1747 C 163.024 -1.46289 0.867959 0
M  V30 1748 O 164.209 -1.5766 1.13388 0
M  V30 1749 C 161.339 -2.55651 2.35074 0
M  V30 1750 C 160.293 -2.45645 3.50489 0
M  V30 1751 C 159.619 -3.84056 3.72028 0
M  V30 1752 C 160.919 -1.96302 4.84007 0
M  V30 1753 H 162.613 -0.86275 2.867 0
M  V30 1754 H 160.159 -0.413571 1.37933 0
M  V30 1755 H 162.112 -3.2886 2.63494 0
M  V30 1756 H 160.836 -2.92869 1.44552 0
M  V30 1757 H 159.495 -1.7489 3.22194 0
M  V30 1758 H 159.143 -4.18664 2.788 0
M  V30 1759 H 158.843 -3.7823 4.49684 0
M  V30 1760 H 160.367 -4.58854 4.02846 0
M  V30 1761 H 161.781 -2.59284 5.11317 0
M  V30 1762 H 160.178 -2.01429 5.65284 0
M  V30 1763 H 161.248 -0.917226 4.76146 0
M  V30 1764 N 162.591 -1.51276 -0.441967 0
M  V30 1765 C 163.819 -1.67516 -1.21434 0
M  V30 1766 C 164.234 -0.37055 -1.85128 0
M  V30 1767 O 163.591 0.650498 -1.70513 0
M  V30 1768 C 163.642 -2.78748 -2.30177 0
M  V30 1769 O 163.363 -4.04154 -1.69089 0
M  V30 1770 C 164.864 -3.06217 -3.20541 0
M  V30 1771 H 162.084 -0.562276 -0.366178 0
M  V30 1772 H 164.628 -1.97666 -0.524244 0
M  V30 1773 H 162.783 -2.5121 -2.94911 0
M  V30 1774 H 163.197 -4.65894 -2.40922 0
M  V30 1775 H 164.671 -3.8764 -3.92987 0
M  V30 1776 H 165.148 -2.18439 -3.81026 0
M  V30 1777 H 165.754 -3.35397 -2.61513 0
M  V30 1778 N 164.069 0.697108 -1.41344 0
M  V30 1779 C 165.016 1.81106 -1.43071 0
M  V30 1780 C 165.986 1.63632 -0.285275 0
M  V30 1781 O 167.171 1.84504 -0.486091 0
M  V30 1782 C 164.311 3.18975 -1.31715 0
M  V30 1783 C 163.424 3.47892 -2.56115 0
M  V30 1784 C 162.559 4.75367 -2.37064 0
M  V30 1785 C 161.598 4.97247 -3.56948 0
M  V30 1786 N 160.735 6.15947 -3.36977 0
M  V30 1787 H 165.575 1.78965 -2.38276 0
M  V30 1788 H 163.112 0.873975 -1.18322 0
M  V30 1789 H 165.07 3.98615 -1.23133 0
M  V30 1790 H 163.7 3.20297 -0.401183 0
M  V30 1791 H 162.752 2.62669 -2.75153 0
M  V30 1792 H 164.064 3.59962 -3.45295 0
M  V30 1793 H 163.218 5.63059 -2.25941 0
M  V30 1794 H 161.957 4.65541 -1.45338 0
M  V30 1795 H 160.962 4.08004 -3.68527 0
M  V30 1796 H 162.187 5.08934 -4.49626 0
M  V30 1797 H 160.133 6.07336 -2.47949 0
M  V30 1798 H 160.05 6.28777 -4.19732 0
M  V30 1799 H 161.318 7.06377 -3.29623 0
M  V30 1800 N 165.547 1.27147 0.931209 0
M  V30 1801 C 166.51 1.09615 2.01289 0
M  V30 1802 C 167.51 0.0412581 1.60747 0
M  V30 1803 O 168.7 0.285545 1.71844 0
M  V30 1804 C 165.832 0.669447 3.34262 0
M  V30 1805 H 167.025 2.05662 2.18273 0
M  V30 1806 H 164.578 1.09885 1.11153 0
M  V30 1807 H 165.313 -0.292572 3.22978 0
M  V30 1808 H 165.098 1.43127 3.65044 0
M  V30 1809 H 166.588 0.568921 4.13706 0
M  V30 1810 N 167.025 -1.13721 1.09112 0
M  V30 1811 C 168.271 -1.85198 0.826414 0
M  V30 1812 C 168.604 -1.83129 -0.646319 0
M  V30 1813 O 167.879 -1.2671 -1.47563 0
M  V30 1814 C 168.162 -3.33507 1.35812 0
M  V30 1815 C 168.015 -3.44108 2.89672 0
M  V30 1816 C 169.334 -4.28838 0.989256 0
M  V30 1817 H 166.453 -0.67243 0.301675 0
M  V30 1818 H 169.095 -1.33499 1.35197 0
M  V30 1819 H 167.245 -3.77666 0.911082 0
M  V30 1820 H 168.917 -3.08684 3.428 0
M  V30 1821 H 167.16 -2.85087 3.26967 0
M  V30 1822 H 167.831 -4.48388 3.21951 0
M  V30 1823 H 170.307 -3.92734 1.37475 0
M  V30 1824 H 169.183 -5.31051 1.38838 0
M  V30 1825 H 169.444 -4.4198 -0.102924 0
M  V30 1826 N 168.503 -0.877838 -1.30888 0
M  V30 1827 C 169.728 -0.506629 -2.01117 0
M  V30 1828 C 170.153 0.895564 -1.65412 0
M  V30 1829 O 169.511 1.5923 -0.866922 0
M  V30 1830 C 169.559 -0.680223 -3.54126 0
M  V30 1831 O 168.663 0.277033 -4.11468 0
M  V30 1832 H 168.004 -0.200518 -0.633 0
M  V30 1833 H 170.534 -1.18342 -1.66902 0
M  V30 1834 H 170.544 -0.5765 -4.03907 0
M  V30 1835 H 169.219 -1.70261 -3.79452 0
M  V30 1836 H 167.796 0.127606 -3.72682 0
M  V30 1837 N 169.982 1.44106 -0.638065 0
M  V30 1838 C 171.259 1.95453 -0.0759321 0
M  V30 1839 C 171.639 1.57984 1.40015 0
M  V30 1840 O 170.987 0.857361 2.11806 0
M  V30 1841 C 171.197 3.47655 -0.306132 0
M  V30 1842 C 172.545 4.24114 -0.203008 0
M  V30 1843 O 173.569 3.55405 -0.237871 0
M  V30 1844 O 172.428 5.46381 -0.113827 0
M  V30 1845 H 169.522 0.826797 0.0183332 0
M  V30 1846 H 172.068 1.54122 -0.710251 0
M  V30 1847 H 170.84 3.68 -1.3301 0
M  V30 1848 H 170.463 3.95949 0.361991 0
M  V30 1849 N 171.46 0.379036 1.52974 0
M  V30 1850 C 172.37 -0.468639 2.29872 0
M  V30 1851 C 173.386 -1.08067 1.36373 0
M  V30 1852 O 174.562 -1.08871 1.69438 0
M  V30 1853 C 171.627 -1.58594 3.083 0
M  V30 1854 C 170.688 -1.00007 4.17489 0
M  V30 1855 C 169.921 -2.06413 4.92168 0
M  V30 1856 O 170.144 -3.27751 4.66835 0
M  V30 1857 O 169.078 -1.68717 5.7777 0
M  V30 1858 H 172.904 0.157508 3.03291 0
M  V30 1859 H 170.489 0.143035 1.48714 0
M  V30 1860 H 172.371 -2.23525 3.57232 0
M  V30 1861 H 171.046 -2.19724 2.37703 0
M  V30 1862 H 169.953 -0.314299 3.72777 0
M  V30 1863 H 171.286 -0.433135 4.90291 0
M  V30 1864 N 172.938 -1.57226 0.108567 0
M  V30 1865 C 174.163 -1.99604 -0.563303 0
M  V30 1866 C 174.588 -0.987563 -1.6009 0
M  V30 1867 O 173.946 0.0421687 -1.81251 0
M  V30 1868 C 173.994 -3.40902 -1.17552 0
M  V30 1869 O 173.098 -3.42896 -2.2912 0
M  V30 1870 H 172.439 -0.648704 -0.1417 0
M  V30 1871 H 174.969 -2.03679 0.193961 0
M  V30 1872 H 174.979 -3.78886 -1.51357 0
M  V30 1873 H 173.654 -4.1382 -0.415445 0
M  V30 1874 H 172.231 -3.1672 -1.96832 0
M  V30 1875 N 174.416 0.165178 -1.56732 0
M  V30 1876 C 175.363 1.2044 -1.96883 0
M  V30 1877 C 176.333 1.43664 -0.833657 0
M  V30 1878 O 177.518 1.56302 -1.09427 0
M  V30 1879 C 174.658 2.53727 -2.33916 0
M  V30 1880 C 173.771 2.3783 -3.6064 0
M  V30 1881 C 172.906 3.64026 -3.86857 0
M  V30 1882 C 171.945 3.43088 -5.06909 0
M  V30 1883 N 171.082 4.61369 -5.29229 0
M  V30 1884 H 175.922 0.854996 -2.85471 0
M  V30 1885 H 173.459 0.41076 -1.41249 0
M  V30 1886 H 175.417 3.31419 -2.53411 0
M  V30 1887 H 174.047 2.8665 -1.48431 0
M  V30 1888 H 173.099 1.51282 -3.49024 0
M  V30 1889 H 174.411 2.18308 -4.4849 0
M  V30 1890 H 173.565 4.50152 -4.06753 0
M  V30 1891 H 172.304 3.86533 -2.97394 0
M  V30 1892 H 171.309 2.55349 -4.86906 0
M  V30 1893 H 172.534 3.21997 -5.97909 0
M  V30 1894 H 170.48 4.84084 -4.42718 0
M  V30 1895 H 170.397 4.44783 -6.11313 0
M  V30 1896 H 171.665 5.48761 -5.53608 0
M  V30 1897 N 175.894 1.51508 0.433938 0
M  V30 1898 C 177.14 1.64588 1.18484 0
M  V30 1899 C 177.473 0.362666 1.90784 0
M  V30 1900 O 176.748 -0.637892 1.83742 0
M  V30 1901 C 177.031 2.85149 2.19913 0
M  V30 1902 C 176.884 4.23456 1.51674 0
M  V30 1903 C 178.203 3.01227 3.20858 0
M  V30 1904 H 175.322 0.598994 0.429389 0
M  V30 1905 H 177.964 1.84002 0.473647 0
M  V30 1906 H 176.114 2.68729 2.80566 0
M  V30 1907 H 177.786 4.51552 0.943322 0
M  V30 1908 H 176.029 4.25998 0.819035 0
M  V30 1909 H 176.7 5.03812 2.2556 0
M  V30 1910 H 179.176 3.16382 2.70263 0
M  V30 1911 H 178.052 3.87141 3.89118 0
M  V30 1912 H 178.313 2.13447 3.8716 0
M  V30 1913 N 177.372 -0.689602 1.41712 0
M  V30 1914 C 178.619 -1.44966 1.4139 0
M  V30 1915 C 178.947 -1.94484 0.025105 0
M  V30 1916 O 178.202 -1.70307 -0.964048 0
M  V30 1917 C 178.501 -2.67298 2.37247 0
M  V30 1918 C 178.167 -2.36405 3.83958 0
M  V30 1919 C 176.829 -2.27691 4.23923 0
M  V30 1920 C 179.181 -2.11043 4.76561 0
M  V30 1921 C 176.509 -1.91719 5.54492 0
M  V30 1922 C 178.861 -1.76578 6.07456 0
M  V30 1923 C 177.525 -1.66363 6.46436 0
M  V30 1924 H 176.795 -0.53047 0.517381 0
M  V30 1925 H 179.442 -0.787655 1.74552 0
M  V30 1926 H 177.747 -3.38461 1.9736 0
M  V30 1927 H 179.444 -3.25452 2.34269 0
M  V30 1928 H 176.034 -2.44085 3.52308 0
M  V30 1929 H 180.218 -2.16717 4.46483 0
M  V30 1930 H 175.474 -1.82367 5.83568 0
M  V30 1931 H 179.648 -1.55974 6.78708 0
M  V30 1932 H 177.275 -1.38258 7.47522 0
M  V30 1933 N 178.85 -1.27639 -0.924453 0
M  V30 1934 C 179.78 -1.13166 -2.04244 0
M  V30 1935 C 180.761 -0.032256 -1.70069 0
M  V30 1936 O 181.946 -0.207328 -1.9309 0
M  V30 1937 C 179.076 -0.781496 -3.38393 0
M  V30 1938 C 178.03 -1.83449 -3.86692 0
M  V30 1939 C 177.356 -1.33822 -5.17683 0
M  V30 1940 C 178.656 -3.23917 -4.09726 0
M  V30 1941 H 180.35 -2.06689 -2.1661 0
M  V30 1942 H 177.896 -0.995136 -1.04082 0
M  V30 1943 H 179.849 -0.667057 -4.16087 0
M  V30 1944 H 178.573 0.189439 -3.2605 0
M  V30 1945 H 177.232 -1.93789 -3.11193 0
M  V30 1946 H 176.88 -0.35665 -5.01734 0
M  V30 1947 H 176.58 -2.04224 -5.50968 0
M  V30 1948 H 178.104 -1.23679 -5.97943 0
M  V30 1949 H 179.518 -3.16559 -4.77978 0
M  V30 1950 H 177.915 -3.92059 -4.54324 0
M  V30 1951 H 178.985 -3.68729 -3.14908 0
M  V30 1952 N 180.328 1.1314 -1.09713 0
M  V30 1953 C 181.276 2.20717 -0.733934 0
M  V30 1954 C 182.27 1.6729 0.266506 0
M  V30 1955 O 183.476 1.79547 0.127656 0
M  V30 1956 H 179.851 0.719292 -0.21937 0
M  V30 1957 H 181.822 2.48611 -1.6503 0
M  V30 1958 C 180.571 3.47265 -0.173849 0
M  V30 1959 H 179.894 3.88716 -0.934873 0
M  V30 1960 H 181.334 4.23979 0.0423126 0
M  V30 1961 C 179.793 3.18724 1.09164 0
M  V30 1962 O 180.323 3.37762 2.17439 0
M  V30 1963 N 178.529 2.72583 1.00732 0
M  V30 1964 H 178.076 2.57291 0.126121 0
M  V30 1965 H 178.034 2.53862 1.85476 0
M  V30 1966 N 181.806 0.884767 1.30421 0
M  V30 1967 C 182.753 0.349642 2.28136 0
M  V30 1968 C 183.723 -0.560061 1.56373 0
M  V30 1969 O 184.908 -0.488524 1.8444 0
M  V30 1970 C 182.048 -0.42999 3.42411 0
M  V30 1971 C 181.161 0.508907 4.28992 0
M  V30 1972 C 180.296 -0.286301 5.30428 0
M  V30 1973 C 179.335 0.648079 6.08659 0
M  V30 1974 N 178.472 -0.111792 7.02011 0
M  V30 1975 H 183.312 1.18807 2.73293 0
M  V30 1976 H 180.849 0.597231 1.3443 0
M  V30 1977 H 182.807 -0.897923 4.07423 0
M  V30 1978 H 181.437 -1.23299 2.98324 0
M  V30 1979 H 180.489 1.09533 3.64289 0
M  V30 1980 H 181.801 1.22475 4.8353 0
M  V30 1981 H 180.955 -0.816098 6.01186 0
M  V30 1982 H 179.694 -1.03536 4.76583 0
M  V30 1983 H 178.699 1.18951 5.36778 0
M  V30 1984 H 179.924 1.39623 6.64592 0
M  V30 1985 H 177.87 -0.843395 6.50556 0
M  V30 1986 H 177.787 0.544429 7.54037 0
M  V30 1987 H 179.055 -0.622339 7.77012 0
M  V30 1988 N 183.284 -1.43765 0.645699 0
M  V30 1989 C 184.217 -2.2798 -0.100072 0
M  V30 1990 C 185.195 -1.39391 -0.837194 0
M  V30 1991 O 186.379 -1.68833 -0.838306 0
M  V30 1992 C 183.506 -3.18643 -1.14823 0
M  V30 1993 C 182.552 -4.2344 -0.510009 0
M  V30 1994 S 183.385 -5.30761 0.710824 0
M  V30 1995 C 184.541 -6.24992 -0.33699 0
M  V30 1996 H 184.774 -2.90884 0.614322 0
M  V30 1997 H 182.307 -1.48166 0.434304 0
M  V30 1998 H 184.265 -3.71424 -1.74799 0
M  V30 1999 H 182.926 -2.54932 -1.8349 0
M  V30 2000 H 182.119 -4.86948 -1.29991 0
M  V30 2001 H 181.721 -3.73997 0.0154577 0
M  V30 2002 H 184.013 -6.66691 -1.20537 0
M  V30 2003 H 184.956 -7.07612 0.262879 0
M  V30 2004 H 185.364 -5.60517 -0.669425 0
M  V30 2005 N 184.763 -0.387143 -1.52771 0
M  V30 2006 C 186.179 -0.037007 -1.59557 0
M  V30 2007 C 186.379 1.44801 -1.40124 0
M  V30 2008 O 185.435 2.21227 -1.21716 0
M  V30 2009 C 186.748 -0.512256 -2.96305 0
M  V30 2010 C 188.296 -0.468328 -3.09476 0
M  V30 2011 C 188.771 -0.919731 -4.4867 0
M  V30 2012 N 190.262 -0.875656 -4.54848 0
M  V30 2013 C 190.997 -1.19637 -5.6078 0
M  V30 2014 N 190.493 -1.58745 -6.74368 0
M  V30 2015 N 192.286 -1.11776 -5.50874 0
M  V30 2016 H 184.437 -1.35395 -1.63652 0
M  V30 2017 H 186.7 -0.554818 -0.768688 0
M  V30 2018 H 186.406 -1.54935 -3.15734 0
M  V30 2019 H 186.28 0.089805 -3.77093 0
M  V30 2020 H 188.667 0.559671 -2.89744 0
M  V30 2021 H 188.748 -1.10616 -2.30646 0
M  V30 2022 H 188.392 -1.94595 -4.69143 0
M  V30 2023 H 188.322 -0.258927 -5.25963 0
M  V30 2024 H 190.813 -0.587843 -3.733 0
M  V30 2025 H 191.126 -1.81586 -7.51163 0
M  V30 2026 H 189.471 -1.6263 -6.75705 0
M  V30 2027 H 192.662 -0.811264 -4.61016 0
M  V30 2028 H 192.835 -1.37103 -6.3333 0
M  V30 2029 N 186.241 1.57166 -0.116904 0
M  V30 2030 C 187.489 1.94737 0.540533 0
M  V30 2031 C 187.81 1.00096 1.67349 0
M  V30 2032 O 187.08 0.0568854 1.95817 0
M  V30 2033 H 185.66 0.718981 0.202669 0
M  V30 2034 H 188.322 1.94017 -0.185353 0
M  V30 2035 H 187.418 2.97719 0.936483 0
M  V30 2036 N 187.719 -0.156864 1.56817 0
M  V30 2037 C 188.996 -0.899244 1.73704 0
M  V30 2038 C 189.376 -1.99771 0.682254 0
M  V30 2039 O 188.724 -2.26515 -0.300522 0
M  V30 2040 C 188.934 -1.45075 3.17418 0
M  V30 2041 C 190.282 -1.91802 3.7881 0
M  V30 2042 O 191.306 -1.54838 3.20786 0
M  V30 2043 O 190.165 -2.5994 4.80722 0
M  V30 2044 H 187.259 -0.424267 0.709878 0
M  V30 2045 H 189.805 -0.143561 1.69092 0
M  V30 2046 H 188.577 -0.660846 3.85679 0
M  V30 2047 H 188.2 -2.27021 3.26416 0
M  V30 2048 N 189.197 -1.51736 -0.425897 0
M  V30 2049 C 190.427 -1.68549 -1.19476 0
M  V30 2050 C 190.835 -0.387288 -1.85194 0
M  V30 2051 O 190.178 0.645142 -1.71999 0
M  V30 2052 C 190.24 -2.75275 -2.31223 0
M  V30 2053 C 189.904 -4.17534 -1.8578 0
M  V30 2054 C 190.901 -5.01936 -1.35485 0
M  V30 2055 C 188.586 -4.6369 -1.93123 0
M  V30 2056 C 190.58 -6.30559 -0.931347 0
M  V30 2057 C 188.267 -5.92307 -1.50384 0
M  V30 2058 C 189.265 -6.75569 -1.00473 0
M  V30 2059 O 188.953 -8.0178 -0.583452 0
M  V30 2060 H 188.685 -0.568525 -0.365725 0
M  V30 2061 H 191.239 -1.98982 -0.509444 0
M  V30 2062 H 189.469 -2.40182 -3.03067 0
M  V30 2063 H 191.158 -2.80853 -2.93047 0
M  V30 2064 H 191.924 -4.67475 -1.29197 0
M  V30 2065 H 187.803 -3.98997 -2.30916 0
M  V30 2066 H 191.347 -6.95498 -0.541084 0
M  V30 2067 H 187.244 -6.2628 -1.56346 0
M  V30 2068 H 188.012 -8.1543 -0.708275 0
M  V30 2069 N 190.675 0.682077 -1.42076 0
M  V30 2070 C 191.625 1.78823 -1.41444 0
M  V30 2071 C 192.609 1.58323 -0.28681 0
M  V30 2072 O 193.801 1.68926 -0.528498 0
M  V30 2073 C 190.93 3.17232 -1.3122 0
M  V30 2074 C 190.016 3.4338 -2.489 0
M  V30 2075 N 190.407 3.40152 -3.7434 0
M  V30 2076 C 188.705 3.73986 -2.43003 0
M  V30 2077 C 189.406 3.65581 -4.52466 0
M  V30 2078 N 188.382 3.85989 -3.8277 0
M  V30 2079 H 192.184 1.7471 -2.36334 0
M  V30 2080 H 189.698 0.882622 -1.36321 0
M  V30 2081 H 191.695 3.96489 -1.2885 0
M  V30 2082 H 190.355 3.22547 -0.373263 0
M  V30 2083 H 191.366 3.20221 -4.07037 0
M  V30 2084 H 188.043 3.86591 -1.57651 0
M  V30 2085 H 189.433 3.69108 -5.61435 0
M  V30 2086 N 192.153 1.28127 0.917671 0
M  V30 2087 C 193.569 1.05749 1.19538 0
M  V30 2088 C 193.769 -0.202633 2.00479 0
M  V30 2089 O 192.825 -0.905382 2.3571 0
M  V30 2090 C 194.138 2.30273 1.93378 0
M  V30 2091 C 195.686 2.35412 2.06277 0
M  V30 2092 C 196.161 3.59692 2.83524 0
M  V30 2093 N 197.652 3.60309 2.91087 0
M  V30 2094 C 198.387 4.53147 3.51348 0
M  V30 2095 N 197.883 5.563 4.12919 0
M  V30 2096 N 199.676 4.40751 3.48849 0
M  V30 2097 H 191.827 2.09024 0.377184 0
M  V30 2098 H 194.09 0.919798 0.22951 0
M  V30 2099 H 193.796 3.22055 1.41328 0
M  V30 2100 H 193.67 2.36378 2.93947 0
M  V30 2101 H 196.057 1.4413 2.57508 0
M  V30 2102 H 196.138 2.33304 1.04895 0
M  V30 2103 H 195.782 4.51316 2.32973 0
M  V30 2104 H 195.712 3.59054 3.85211 0
M  V30 2105 H 198.203 2.85714 2.47338 0
M  V30 2106 H 198.516 6.2329 4.56869 0
M  V30 2107 H 196.861 5.60131 4.11435 0
M  V30 2108 H 200.052 3.59367 2.99955 0
M  V30 2109 H 200.225 5.13291 3.9552 0
M  V30 2110 N 193.631 -1.12557 1.10312 0
M  V30 2111 C 194.861 -1.87592 0.865617 0
M  V30 2112 C 195.269 -1.79851 -0.587389 0
M  V30 2113 O 194.612 -1.16949 -1.41664 0
M  V30 2114 C 194.674 -3.37665 1.23381 0
M  V30 2115 C 194.338 -3.69181 2.69359 0
M  V30 2116 C 195.335 -3.67652 3.67597 0
M  V30 2117 C 193.02 -3.98555 3.05711 0
M  V30 2118 C 195.014 -3.95053 5.00212 0
M  V30 2119 C 192.701 -4.25616 4.38514 0
M  V30 2120 C 193.699 -4.23851 5.35574 0
M  V30 2121 O 193.387 -4.50242 6.65986 0
M  V30 2122 H 193.119 -0.600442 0.310557 0
M  V30 2123 H 195.673 -1.4335 1.47105 0
M  V30 2124 H 193.903 -3.82454 0.571467 0
M  V30 2125 H 195.592 -3.94041 0.973994 0
M  V30 2126 H 196.358 -3.45024 3.40857 0
M  V30 2127 H 192.237 -3.99071 2.30789 0
M  V30 2128 H 195.781 -3.93591 5.75962 0
M  V30 2129 H 191.678 -4.47718 4.64994 0
M  V30 2130 H 192.446 -4.67867 6.71597 0
M  V30 2131 N 195.109 -0.891671 -1.2995 0
M  V30 2132 C 196.525 -0.58662 -1.48428 0
M  V30 2133 C 196.725 0.873951 -1.81561 0
M  V30 2134 O 195.781 1.65471 -1.90724 0
M  V30 2135 C 197.094 -1.50553 -2.60296 0
M  V30 2136 C 198.642 -1.50988 -2.74175 0
M  V30 2137 C 199.117 -2.41488 -3.89163 0
M  V30 2138 N 200.608 -2.39489 -3.96483 0
M  V30 2139 C 201.343 -3.06223 -4.84784 0
M  V30 2140 N 200.839 -3.82206 -5.77833 0
M  V30 2141 N 202.632 -2.95421 -4.78208 0
M  V30 2142 H 194.783 -1.83644 -1.06718 0
M  V30 2143 H 197.046 -0.786455 -0.529332 0
M  V30 2144 H 196.752 -2.54581 -2.42654 0
M  V30 2145 H 196.626 -1.22008 -3.56923 0
M  V30 2146 H 199.013 -0.47708 -2.91218 0
M  V30 2147 H 199.094 -1.83567 -1.78148 0
M  V30 2148 H 198.738 -3.44857 -3.72876 0
M  V30 2149 H 198.668 -2.06222 -4.84541 0
M  V30 2150 H 201.159 -1.84278 -3.29924 0
M  V30 2151 H 201.472 -4.302 -6.41988 0
M  V30 2152 H 199.817 -3.86313 -5.77743 0
M  V30 2153 H 203.008 -2.35581 -4.04499 0
M  V30 2154 H 203.181 -3.47704 -5.46814 0
M  V30 2155 N 196.587 1.43421 -0.653314 0
M  V30 2156 C 197.55 2.29182 0.0287951 0
M  V30 2157 C 198.55 1.42213 0.750465 0
M  V30 2158 O 199.74 1.63843 0.591701 0
M  V30 2159 C 196.872 3.24278 1.05151 0
M  V30 2160 H 198.065 2.90985 -0.725786 0
M  V30 2161 H 195.618 1.50702 -0.414545 0
M  V30 2162 H 196.353 2.6737 1.83532 0
M  V30 2163 H 196.138 3.88396 0.537687 0
M  V30 2164 H 197.628 3.88647 1.52786 0
M  V30 2165 N 198.065 0.39524 1.52563 0
M  V30 2166 C 198.975 -0.444232 2.30356 0
M  V30 2167 C 199.991 -1.06615 1.37511 0
M  V30 2168 O 201.167 -1.07067 1.70583 0
M  V30 2169 C 198.232 -1.55315 3.09964 0
M  V30 2170 C 197.293 -0.955734 4.18526 0
M  V30 2171 C 196.526 -2.01181 4.9433 0
M  V30 2172 O 196.749 -3.22781 4.70285 0
M  V30 2173 O 195.683 -1.62579 5.79527 0
M  V30 2174 H 199.509 0.189667 3.03107 0
M  V30 2175 H 197.094 0.1588 1.48554 0
M  V30 2176 H 198.976 -2.19724 3.59582 0
M  V30 2177 H 197.651 -2.17191 2.4002 0
M  V30 2178 H 196.558 -0.274743 3.7309 0
M  V30 2179 H 197.891 -0.381109 4.90722 0
M  V30 2180 N 199.544 -1.57102 0.125237 0
M  V30 2181 C 200.774 -1.99472 -0.538015 0
M  V30 2182 C 201.182 -1.00395 -1.60366 0
M  V30 2183 O 200.525 0.0103875 -1.83697 0
M  V30 2184 C 200.587 -3.38262 -1.21734 0
M  V30 2185 C 200.251 -4.56021 -0.298897 0
M  V30 2186 C 201.248 -5.17817 0.464943 0
M  V30 2187 C 198.933 -5.01869 -0.208149 0
M  V30 2188 C 200.927 -6.23852 1.3072 0
M  V30 2189 C 198.614 -6.07763 0.637736 0
M  V30 2190 C 199.612 -6.68622 1.39403 0
M  V30 2191 O 199.3 -7.7247 2.22586 0
M  V30 2192 H 199.032 -0.659934 -0.146501 0
M  V30 2193 H 201.586 -2.04321 0.210267 0
M  V30 2194 H 199.816 -3.30185 -2.01282 0
M  V30 2195 H 201.505 -3.6488 -1.77813 0
M  V30 2196 H 202.271 -4.83308 0.404741 0
M  V30 2197 H 198.15 -4.54241 -0.786522 0
M  V30 2198 H 201.694 -6.71284 1.898 0
M  V30 2199 H 197.591 -6.41701 0.699309 0
M  V30 2200 H 198.359 -7.89595 2.15596 0
M  V30 2201 N 201.022 0.148545 -1.56898 0
M  V30 2202 C 202.247 0.880385 -1.87787 0
M  V30 2203 C 202.672 1.74018 -0.714093 0
M  V30 2204 O 202.03 1.78153 0.336343 0
M  V30 2205 C 202.078 1.71422 -3.17249 0
M  V30 2206 O 201.182 2.8183 -3.01074 0
M  V30 2207 H 200.523 0.245301 -0.617028 0
M  V30 2208 H 203.053 0.139826 -2.04122 0
M  V30 2209 H 203.063 2.10954 -3.49231 0
M  V30 2210 H 201.738 1.08284 -4.01556 0
M  V30 2211 H 200.315 2.45715 -2.80497 0
M  V30 2212 N 202.5 1.5196 0.417844 0
M  V30 2213 C 203.746 1.65836 1.16732 0
M  V30 2214 C 204.079 0.382881 1.90388 0
M  V30 2215 O 203.354 -0.618368 1.84408 0
M  V30 2216 C 203.637 2.87466 2.16876 0
M  V30 2217 C 203.49 4.25041 1.47174 0
M  V30 2218 C 204.809 3.04613 3.17646 0
M  V30 2219 H 201.928 0.603515 0.423011 0
M  V30 2220 H 204.57 1.84494 0.454105 0
M  V30 2221 H 202.72 2.71689 2.777 0
M  V30 2222 H 204.392 4.52527 0.895376 0
M  V30 2223 H 202.635 4.26843 0.773806 0
M  V30 2224 H 203.306 5.06176 2.20204 0
M  V30 2225 H 205.782 3.1923 2.66892 0
M  V30 2226 H 204.658 3.91247 3.8499 0
M  V30 2227 H 204.919 2.17541 3.84874 0
M  V30 2228 N 203.978 -0.674533 1.42435 0
M  V30 2229 C 205.226 -1.43175 1.42637 0
M  V30 2230 C 205.547 -1.94951 0.0438992 0
M  V30 2231 O 204.817 -1.7308 -0.917607 0
M  V30 2232 H 203.397 -0.531307 0.525092 0
M  V30 2233 H 206.059 -0.797006 1.77859 0
M  V30 2234 H 205.155 -2.28463 2.12629 0
M  V30 2235 N 205.456 -1.28612 -0.910864 0
M  V30 2236 C 206.404 -1.1265 -2.03501 0
M  V30 2237 C 207.398 -0.0450054 -1.6934 0
M  V30 2238 O 208.604 -0.203988 -1.7884 0
M  V30 2239 H 204.979 -0.347639 -0.666822 0
M  V30 2240 H 206.95 -2.07849 -2.14106 0
M  V30 2241 C 205.699 -0.808143 -3.38178 0
M  V30 2242 H 205.022 -1.63231 -3.6496 0
M  V30 2243 H 206.462 -0.736426 -4.17556 0
M  V30 2244 C 204.921 0.488226 -3.33344 0
M  V30 2245 O 205.451 1.51766 -3.71927 0
M  V30 2246 N 203.657 0.490009 -2.86439 0
M  V30 2247 H 203.204 -0.348161 -2.55236 0
M  V30 2248 H 203.162 1.35741 -2.83587 0
M  V30 2249 N 206.934 1.1197 -1.10907 0
M  V30 2250 C 207.866 2.17592 -0.720175 0
M  V30 2251 C 208.879 1.60938 0.245495 0
M  V30 2252 O 210.068 1.78476 0.0292245 0
M  V30 2253 C 207.168 3.38873 -0.0427917 0
M  V30 2254 C 206.341 4.25006 -1.03388 0
M  V30 2255 C 205.4 5.24774 -0.387075 0
M  V30 2256 O 204.426 5.59631 -1.03934 0
M  V30 2257 N 205.628 5.74208 0.852407 0
M  V30 2258 H 208.393 2.51567 -1.62893 0
M  V30 2259 H 205.954 1.27439 -0.998543 0
M  V30 2260 H 207.946 4.02703 0.401501 0
M  V30 2261 H 206.516 3.03007 0.768456 0
M  V30 2262 H 205.736 3.57716 -1.65629 0
M  V30 2263 H 207.024 4.79397 -1.70458 0
M  V30 2264 H 206.422 5.48062 1.40161 0
M  V30 2265 H 204.979 6.39901 1.23977 0
M  V30 2266 N 208.412 0.89855 1.29475 0
M  V30 2267 C 209.828 0.594483 1.48115 0
M  V30 2268 C 210.028 -0.86431 1.82022 0
M  V30 2269 O 209.084 -1.64457 1.91599 0
M  V30 2270 C 210.397 1.51932 2.59494 0
M  V30 2271 C 211.945 1.5244 2.7337 0
M  V30 2272 C 212.42 2.43548 3.87877 0
M  V30 2273 N 213.911 2.41589 3.95208 0
M  V30 2274 C 214.646 3.08789 4.83153 0
M  V30 2275 N 214.142 3.85265 5.75798 0
M  V30 2276 N 215.935 2.97952 4.76635 0
M  V30 2277 H 208.086 1.84207 1.05742 0
M  V30 2278 H 210.349 0.789251 0.525154 0
M  V30 2279 H 210.055 2.55865 2.41301 0
M  V30 2280 H 209.929 1.23899 3.56271 0
M  V30 2281 H 212.316 0.492518 2.90961 0
M  V30 2282 H 212.397 1.8451 1.77172 0
M  V30 2283 H 212.041 3.46829 3.71041 0
M  V30 2284 H 211.971 2.08788 4.83441 0
M  V30 2285 H 214.462 1.86025 3.28943 0
M  V30 2286 H 214.775 4.33598 6.39697 0
M  V30 2287 H 213.12 3.89371 5.75687 0
M  V30 2288 H 216.311 2.37723 4.03244 0
M  V30 2289 H 216.484 3.50599 5.44962 0
M  V30 2290 N 209.89 -1.43072 0.660911 0
M  V30 2291 C 210.837 -2.30785 -0.0259884 0
M  V30 2292 C 211.807 -1.45184 -0.806888 0
M  V30 2293 O 212.992 -1.74041 -0.781943 0
M  V30 2294 C 210.132 -3.30861 -0.981067 0
M  V30 2295 C 209.245 -4.31558 -0.195458 0
M  V30 2296 C 208.38 -5.18712 -1.14503 0
M  V30 2297 C 207.419 -6.11097 -0.350299 0
M  V30 2298 N 206.556 -6.90849 -1.25186 0
M  V30 2299 H 211.396 -2.88975 0.727846 0
M  V30 2300 H 208.933 -1.42353 0.370682 0
M  V30 2301 H 210.891 -3.87399 -1.54849 0
M  V30 2302 H 209.521 -2.74304 -1.70169 0
M  V30 2303 H 208.573 -3.77252 0.488374 0
M  V30 2304 H 209.885 -4.9701 0.422176 0
M  V30 2305 H 209.039 -5.79914 -1.78284 0
M  V30 2306 H 207.778 -4.53404 -1.79656 0
M  V30 2307 H 206.783 -5.48976 0.300808 0
M  V30 2308 H 208.008 -6.7845 0.296941 0
M  V30 2309 H 205.954 -6.28182 -1.89005 0
M  V30 2310 H 205.871 -7.52854 -0.688971 0
M  V30 2311 H 207.139 -7.5655 -1.87757 0
M  V30 2312 N 211.368 -0.403325 -1.52352 0
M  V30 2313 C 212.645 0.232611 -1.94212 0
M  V30 2314 C 213.025 1.63133 -1.33981 0
M  V30 2315 O 212.373 2.22659 -0.513344 0
M  V30 2316 C 212.583 0.244811 -3.4814 0
M  V30 2317 C 213.931 0.46698 -4.22024 0
M  V30 2318 O 214.955 0.324419 -3.5472 0
M  V30 2319 O 213.814 0.74747 -5.41364 0
M  V30 2320 H 210.908 0.148223 -0.813609 0
M  V30 2321 H 213.454 -0.458848 -1.63379 0
M  V30 2322 H 212.226 -0.734378 -3.84347 0
M  V30 2323 H 211.849 0.980611 -3.85318 0
M  V30 2324 N 212.846 1.57033 -0.133567 0
M  V30 2325 C 213.809 2.14897 0.796995 0
M  V30 2326 C 214.809 1.0874 1.18458 0
M  V30 2327 O 215.999 1.34446 1.1077 0
M  V30 2328 C 213.131 2.70112 2.07973 0
M  V30 2329 H 214.324 2.98457 0.293873 0
M  V30 2330 H 211.877 1.55871 0.115787 0
M  V30 2331 H 212.612 1.9018 2.62682 0
M  V30 2332 H 212.397 3.47764 1.81115 0
M  V30 2333 H 213.887 3.14738 2.74462 0
M  V30 2334 N 214.325 -0.140222 1.56975 0
M  V30 2335 C 215.288 -1.15689 1.97861 0
M  V30 2336 C 216.288 -1.3549 0.865974 0
M  V30 2337 O 217.478 -1.32367 1.13246 0
M  V30 2338 C 214.61 -2.51582 2.30042 0
M  V30 2339 H 215.803 -0.805971 2.88867 0
M  V30 2340 H 213.356 -0.383801 1.51515 0
M  V30 2341 H 214.091 -2.91632 1.41849 0
M  V30 2342 H 213.876 -2.38569 3.11171 0
M  V30 2343 H 215.366 -3.24792 2.62488 0
M  V30 2344 N 215.803 -1.52179 -0.40978 0
M  V30 2345 C 216.713 -1.78364 -1.52392 0
M  V30 2346 C 217.729 -0.669183 -1.60617 0
M  V30 2347 O 218.905 -0.954518 -1.77344 0
M  V30 2348 C 215.97 -1.92822 -2.88133 0
M  V30 2349 C 215.031 -3.16725 -2.898 0
M  V30 2350 C 214.264 -3.30483 -4.19067 0
M  V30 2351 O 214.487 -2.49522 -5.12928 0
M  V30 2352 O 213.421 -4.2363 -4.27576 0
M  V30 2353 H 217.247 -2.72931 -1.33201 0
M  V30 2354 H 214.832 -1.37016 -0.59557 0
M  V30 2355 H 216.714 -2.04157 -3.68643 0
M  V30 2356 H 215.389 -1.01444 -3.07393 0
M  V30 2357 H 214.296 -3.10848 -2.08146 0
M  V30 2358 H 215.629 -4.07881 -2.75489 0
M  V30 2359 N 217.281 0.66697 -1.42791 0
M  V30 2360 C 218.229 1.80157 -1.47127 0
M  V30 2361 C 219.223 1.65825 -0.346199 0
M  V30 2362 O 220.429 1.72338 -0.519572 0
M  V30 2363 H 216.804 0.594158 -0.460956 0
M  V30 2364 H 218.775 1.73619 -2.42692 0
M  V30 2365 C 217.524 3.18351 -1.39813 0
M  V30 2366 H 216.847 3.3001 -2.25684 0
M  V30 2367 H 218.287 3.97736 -1.46908 0
M  V30 2368 C 216.746 3.36707 -0.11391 0
M  V30 2369 O 217.276 3.93027 0.830241 0
M  V30 2370 N 215.482 2.90586 -0.0285295 0
M  V30 2371 H 215.029 2.4494 -0.79764 0
M  V30 2372 H 214.987 3.03245 0.830063 0
M  V30 2373 N 218.759 1.29093 0.90403 0
M  V30 2374 C 219.984 1.19809 1.69294 0
M  V30 2375 C 220.409 -0.238481 1.86582 0
M  V30 2376 O 219.767 -1.1723 1.383 0
M  V30 2377 C 219.815 1.91202 3.05736 0
M  V30 2378 O 218.919 1.22611 3.93752 0
M  V30 2379 H 218.26 0.415385 0.518027 0
M  V30 2380 H 220.79 1.70586 1.12967 0
M  V30 2381 H 220.8 1.99487 3.55906 0
M  V30 2382 H 219.475 2.95692 2.92471 0
M  V30 2383 H 218.052 1.22554 3.52186 0
M  V30 2384 N 220.237 -1.11381 1.11499 0
M  V30 2385 C 221.167 -2.19509 0.796125 0
M  V30 2386 C 222.148 -1.68458 -0.235796 0
M  V30 2387 O 223.333 -1.93947 -0.0991344 0
M  V30 2388 C 220.463 -3.46475 0.239205 0
M  V30 2389 C 219.417 -4.10744 1.20307 0
M  V30 2390 C 218.743 -5.32293 0.50683 0
M  V30 2391 C 220.043 -4.55597 2.55399 0
M  V30 2392 H 221.737 -2.46439 1.70024 0
M  V30 2393 H 219.283 -1.18446 0.818935 0
M  V30 2394 H 221.236 -4.214 0.00392006 0
M  V30 2395 H 219.96 -3.19006 -0.700206 0
M  V30 2396 H 218.619 -3.37813 1.42399 0
M  V30 2397 H 218.267 -5.01095 -0.437408 0
M  V30 2398 H 217.967 -5.76243 1.1497 0
M  V30 2399 H 219.491 -6.09956 0.280351 0
M  V30 2400 H 220.905 -5.21841 2.37391 0
M  V30 2401 H 219.302 -5.10363 3.15673 0
M  V30 2402 H 220.372 -3.69013 3.14575 0
M  V30 2403 N 221.715 -0.905404 -1.28997 0
M  V30 2404 C 222.955 -0.541232 -1.97104 0
M  V30 2405 C 223.319 0.896841 -1.69767 0
M  V30 2406 O 224.52 1.36817 -2.31375 0
M  V30 2407 C 222.791 -0.832134 -3.47578 0
M  V30 2408 S 224.35 -0.573127 -4.35041 0
M  V30 2409 H 221.168 -0.200576 -0.682122 0
M  V30 2410 H 223.77 -1.16906 -1.56694 0
M  V30 2411 H 222.474 -1.87687 -3.64968 0
M  V30 2412 H 222.005 -0.192636 -3.92928 0
M  V30 2413 H 224.02 0.579297 -4.92807 0
M  V30 2414 N 223.193 1.4272 -0.668489 0
M  V30 2415 C 224.156 2.292 0.00448567 0
M  V30 2416 C 225.156 1.43001 0.735339 0
M  V30 2417 O 226.346 1.64461 0.57429 0
M  V30 2418 C 223.478 3.25375 1.01705 0
M  V30 2419 H 224.671 2.90199 -0.756608 0
M  V30 2420 H 222.224 1.50254 -0.430506 0
M  V30 2421 H 222.959 2.69301 1.80686 0
M  V30 2422 H 222.744 3.88944 0.496463 0
M  V30 2423 H 224.234 3.90245 1.48655 0
M  V30 2424 N 224.671 0.411399 1.52136 0
M  V30 2425 C 225.901 -0.16284 2.05957 0
M  V30 2426 C 226.309 -1.3922 1.28119 0
M  V30 2427 O 225.652 -1.80768 0.326881 0
M  V30 2428 C 225.714 -0.575946 3.54856 0
M  V30 2429 C 225.378 0.542998 4.53763 0
M  V30 2430 C 226.375 1.40726 5.00492 0
M  V30 2431 C 224.06 0.716337 4.97166 0
M  V30 2432 C 226.054 2.4298 5.8927 0
M  V30 2433 C 223.741 1.74218 5.8574 0
M  V30 2434 C 224.739 2.59731 6.31687 0
M  V30 2435 O 224.427 3.60558 7.18507 0
M  V30 2436 H 224.159 -0.0229125 0.675612 0
M  V30 2437 H 226.713 0.581634 1.96993 0
M  V30 2438 H 224.943 -1.37274 3.61515 0
M  V30 2439 H 226.632 -1.07836 3.91313 0
M  V30 2440 H 227.398 1.28476 4.67674 0
M  V30 2441 H 223.277 0.0603857 4.6096 0
M  V30 2442 H 226.821 3.0976 6.25055 0
M  V30 2443 H 222.718 1.86498 6.17971 0
M  V30 2444 H 223.486 3.56829 7.36624 0
M  V30 2445 N 226.149 -1.5696 0.141893 0
M  V30 2446 C 227.096 -2.16501 -0.799737 0
M  V30 2447 C 228.066 -1.09643 -1.24771 0
M  V30 2448 O 229.251 -1.3766 -1.32115 0
M  V30 2449 C 226.391 -2.78679 -2.03549 0
M  V30 2450 C 225.504 -3.99914 -1.6338 0
M  V30 2451 C 224.639 -4.50106 -2.82096 0
M  V30 2452 C 223.678 -5.63819 -2.38275 0
M  V30 2453 N 222.815 -6.08651 -3.49983 0
M  V30 2454 H 227.655 -2.96632 -0.285179 0
M  V30 2455 H 225.192 -1.46533 -0.129053 0
M  V30 2456 H 227.15 -3.1287 -2.75986 0
M  V30 2457 H 225.78 -2.012 -2.52425 0
M  V30 2458 H 224.832 -3.71735 -0.807279 0
M  V30 2459 H 226.144 -4.82311 -1.27192 0
M  V30 2460 H 225.298 -4.86325 -3.62729 0
M  V30 2461 H 224.037 -3.66706 -3.21525 0
M  V30 2462 H 223.042 -5.2718 -1.56081 0
M  V30 2463 H 224.267 -6.49 -1.99938 0
M  V30 2464 H 222.213 -5.28188 -3.89042 0
M  V30 2465 H 222.13 -6.85961 -3.17794 0
M  V30 2466 H 223.398 -6.49515 -4.30988 0
M  V30 2467 N 227.627 0.131896 -1.57047 0
M  V30 2468 C 228.574 1.16236 -1.99393 0
M  V30 2469 C 229.544 1.41863 -0.863943 0
M  V30 2470 O 230.729 1.53946 -1.12718 0
M  V30 2471 C 227.869 2.48708 -2.39245 0
M  V30 2472 C 226.982 2.30127 -3.65603 0
M  V30 2473 C 226.117 3.55738 -3.94492 0
M  V30 2474 C 225.156 3.32259 -5.14073 0
M  V30 2475 N 224.293 4.50039 -5.38896 0
M  V30 2476 H 229.133 0.794251 -2.87221 0
M  V30 2477 H 226.67 0.380707 -1.42088 0
M  V30 2478 H 228.628 3.25969 -2.60384 0
M  V30 2479 H 227.258 2.83437 -1.54478 0
M  V30 2480 H 226.31 1.43845 -3.52154 0
M  V30 2481 H 227.622 2.08746 -4.5302 0
M  V30 2482 H 226.776 4.41423 -4.1621 0
M  V30 2483 H 225.515 3.80138 -3.05526 0
M  V30 2484 H 224.52 2.44963 -4.92212 0
M  V30 2485 H 225.745 3.09242 -6.04604 0
M  V30 2486 H 223.691 4.74584 -4.52886 0
M  V30 2487 H 223.608 4.31716 -6.2061 0
M  V30 2488 H 224.876 5.36895 -5.65123 0
M  V30 2489 N 229.106 1.52395 0.401703 0
M  V30 2490 C 230.069 1.75636 1.47257 0
M  V30 2491 C 231.069 0.62628 1.48103 0
M  V30 2492 O 232.259 0.894227 1.49497 0
M  V30 2493 C 229.391 1.84553 2.86624 0
M  V30 2494 H 230.584 2.71241 1.27938 0
M  V30 2495 H 228.137 1.42923 0.632662 0
M  V30 2496 H 228.872 0.908882 3.11303 0
M  V30 2497 H 228.657 2.66715 2.87412 0
M  V30 2498 H 230.147 2.04251 3.64241 0
M  V30 2499 N 230.584 -0.659388 1.43143 0
M  V30 2500 C 231.547 -1.75432 1.47501 0
M  V30 2501 C 232.547 -1.56707 0.360512 0
M  V30 2502 O 233.737 -1.62717 0.622002 0
M  V30 2503 C 230.869 -3.14239 1.32162 0
M  V30 2504 H 232.062 -1.7295 2.45006 0
M  V30 2505 H 229.615 -0.870469 1.29817 0
M  V30 2506 H 230.35 -3.22336 0.356401 0
M  V30 2507 H 230.135 -3.29235 2.12948 0
M  V30 2508 H 231.625 -3.94094 1.3813 0
M  V30 2509 N 232.062 -1.29571 -0.897171 0
M  V30 2510 C 232.972 -1.16808 -2.03453 0
M  V30 2511 C 233.988 -0.0907471 -1.73763 0
M  V30 2512 O 235.164 -0.303312 -1.99103 0
M  V30 2513 C 232.229 -0.848264 -3.36163 0
M  V30 2514 C 231.29 -2.0097 -3.79354 0
M  V30 2515 C 230.523 -1.70505 -5.05731 0
M  V30 2516 O 230.746 -0.62718 -5.66941 0
M  V30 2517 O 229.68 -2.5538 -5.45036 0
M  V30 2518 H 233.506 -2.12325 -2.17144 0
M  V30 2519 H 231.091 -1.09047 -1.02123 0
M  V30 2520 H 232.973 -0.684581 -4.15802 0
M  V30 2521 H 231.648 0.0771071 -3.23608 0
M  V30 2522 H 230.555 -2.22863 -3.00471 0
M  V30 2523 H 231.888 -2.91636 -3.96496 0
M  V30 2524 N 233.54 1.10788 -1.12088 0
M  V30 2525 C 234.817 1.79136 -0.785476 0
M  V30 2526 C 235.197 1.98246 0.725377 0
M  V30 2527 O 234.545 1.57258 1.65778 0
M  V30 2528 C 234.755 3.12375 -1.55636 0
M  V30 2529 C 236.103 3.8731 -1.74001 0
M  V30 2530 O 237.127 3.22085 -1.52117 0
M  V30 2531 O 235.986 5.04369 -2.10415 0
M  V30 2532 H 233.08 0.776226 -0.285311 0
M  V30 2533 H 235.626 1.1747 -1.2247 0
M  V30 2534 H 234.398 2.93863 -2.5838 0
M  V30 2535 H 234.021 3.81758 -1.11114 0
M  V30 2536 N 235.018 0.912232 1.28515 0
M  V30 2537 C 235.981 0.404223 2.25607 0
M  V30 2538 C 236.981 -0.468602 1.53821 0
M  V30 2539 O 238.171 -0.271873 1.72065 0
M  V30 2540 C 235.303 -0.420653 3.38295 0
M  V30 2541 H 236.496 1.26188 2.7206 0
M  V30 2542 H 234.049 0.691495 1.40171 0
M  V30 2543 H 234.784 -1.29777 2.97201 0
M  V30 2544 H 234.569 0.204935 3.91564 0
M  V30 2545 H 236.059 -0.766971 4.10496 0
M  V30 2546 N 236.496 -1.42363 0.676048 0
M  V30 2547 C 237.406 -2.346 -0.00153389 0
M  V30 2548 C 238.422 -1.5516 -0.787485 0
M  V30 2549 O 239.598 -1.87723 -0.729521 0
M  V30 2550 C 236.663 -3.33705 -0.940298 0
M  V30 2551 C 235.724 -4.29042 -0.148739 0
M  V30 2552 C 234.957 -5.23413 -1.04279 0
M  V30 2553 O 235.18 -5.22749 -2.28232 0
M  V30 2554 O 234.114 -5.99795 -0.502925 0
M  V30 2555 H 237.94 -2.94082 0.758268 0
M  V30 2556 H 235.525 -1.42888 0.436289 0
M  V30 2557 H 237.407 -3.94586 -1.47917 0
M  V30 2558 H 236.082 -2.76695 -1.67993 0
M  V30 2559 H 234.989 -3.71571 0.43427 0
M  V30 2560 H 236.322 -4.89097 0.551805 0
M  V30 2561 N 237.974 -0.419461 -1.51915 0
M  V30 2562 C 238.921 0.400927 -2.27291 0
M  V30 2563 C 239.891 1.03224 -1.30131 0
M  V30 2564 O 241.076 1.05455 -1.59009 0
M  V30 2565 C 238.216 1.50603 -3.10504 0
M  V30 2566 C 237.329 0.89462 -4.22635 0
M  V30 2567 C 236.464 1.97328 -4.93189 0
M  V30 2568 C 235.503 1.33935 -5.97267 0
M  V30 2569 N 234.64 2.3586 -6.61298 0
M  V30 2570 H 239.48 -0.248251 -2.96964 0
M  V30 2571 H 237.017 -0.134266 -1.46486 0
M  V30 2572 H 238.975 2.15783 -3.57062 0
M  V30 2573 H 237.605 2.12509 -2.42981 0
M  V30 2574 H 236.657 0.131583 -3.80172 0
M  V30 2575 H 237.969 0.391641 -4.9726 0
M  V30 2576 H 237.123 2.70211 -5.43204 0
M  V30 2577 H 235.862 2.50994 -4.18155 0
M  V30 2578 H 234.867 0.595896 -5.46561 0
M  V30 2579 H 236.092 0.810252 -6.74249 0
M  V30 2580 H 234.038 2.88639 -5.89087 0
M  V30 2581 H 233.955 1.90403 -7.3163 0
M  V30 2582 H 235.223 3.08282 -7.15949 0
M  V30 2583 N 239.452 1.56882 -0.150215 0
M  V30 2584 C 240.382 2.19935 0.784284 0
M  V30 2585 C 241.363 1.14854 1.25469 0
M  V30 2586 O 242.548 1.43209 1.31168 0
M  V30 2587 C 239.678 2.82349 2.02229 0
M  V30 2588 C 238.632 3.93285 1.68853 0
M  V30 2589 C 237.958 4.42649 2.99944 0
M  V30 2590 C 239.258 5.13904 0.932714 0
M  V30 2591 H 240.952 2.9828 0.258781 0
M  V30 2592 H 238.498 1.43473 0.123029 0
M  V30 2593 H 240.451 3.25126 2.68088 0
M  V30 2594 H 239.175 2.0134 2.57157 0
M  V30 2595 H 237.834 3.5113 1.05371 0
M  V30 2596 H 237.482 3.58458 3.52869 0
M  V30 2597 H 237.182 5.17476 2.78374 0
M  V30 2598 H 238.706 4.88099 3.66868 0
M  V30 2599 H 240.12 5.53506 1.49345 0
M  V30 2600 H 238.517 5.94515 0.81684 0
M  V30 2601 H 239.587 4.84842 -0.0749568 0
M  V30 2602 N 240.93 -0.123565 1.57115 0
M  V30 2603 C 242.341 -0.681198 1.73829 0
M  V30 2604 C 242.692 -1.80535 0.768214 0
M  V30 2605 O 241.817 -2.16317 -0.0599103 0
M  V30 2606 C 242.412 -1.24246 3.15196 0
M  V30 2607 C 240.971 -1.74643 3.33432 0
M  V30 2608 C 240.118 -0.644284 2.69711 0
M  V30 2609 H 243.069 0.102315 1.5837 0
M  V30 2610 H 243.09 -2.11216 3.16493 0
M  V30 2611 H 242.602 -0.424062 3.85776 0
M  V30 2612 H 240.703 -2.58974 2.67886 0
M  V30 2613 H 240.816 -1.85902 4.41562 0
M  V30 2614 H 239.18 -1.07676 2.3082 0
M  V30 2615 H 239.963 0.163058 3.42913 0
M  V30 2616 N 242.408 -1.52605 -0.393616 0
M  V30 2617 C 243.657 -1.66649 -1.13627 0
M  V30 2618 C 243.97 -0.410364 -1.91247 0
M  V30 2619 O 245.176 -0.430854 -2.68059 0
M  V30 2620 C 243.632 -2.9449 -2.06891 0
M  V30 2621 C 243.24 -4.27266 -1.34714 0
M  V30 2622 C 244.984 -3.17899 -2.81319 0
M  V30 2623 C 242.891 -5.46217 -2.26717 0
M  V30 2624 H 241.821 -0.62084 -0.427871 0
M  V30 2625 H 244.472 -1.791 -0.399428 0
M  V30 2626 H 242.854 -2.75774 -2.84191 0
M  V30 2627 H 244.028 -4.56518 -0.626714 0
M  V30 2628 H 242.343 -4.10081 -0.722643 0
M  V30 2629 H 244.94 -4.03949 -3.50328 0
M  V30 2630 H 245.283 -2.32777 -3.45139 0
M  V30 2631 H 245.816 -3.37159 -2.11113 0
M  V30 2632 H 242.555 -6.33733 -1.67521 0
M  V30 2633 H 242.075 -5.21283 -2.96689 0
M  V30 2634 H 243.754 -5.7991 -2.86903 0
M  V30 2635 N 243.887 0.651787 -1.4349 0
M  V30 2636 C 245.115 1.43937 -1.48626 0
M  V30 2637 C 245.53 1.8851 -0.104587 0
M  V30 2638 O 244.887 1.5958 0.885464 0
M  V30 2639 C 244.938 2.6734 -2.43334 0
M  V30 2640 O 244.659 2.24631 -3.76128 0
M  V30 2641 C 246.16 3.60683 -2.57726 0
M  V30 2642 H 243.38 0.44213 -0.504739 0
M  V30 2643 H 245.924 0.798944 -1.88248 0
M  V30 2644 H 244.079 3.2752 -2.06904 0
M  V30 2645 H 244.493 3.04485 -4.2707 0
M  V30 2646 H 245.967 4.43933 -3.28067 0
M  V30 2647 H 246.444 4.08126 -1.62265 0
M  V30 2648 H 247.05 3.06384 -2.94973 0
M  V30 2649 N 245.365 1.30045 0.890287 0
M  V30 2650 C 246.315 1.12592 1.9826 0
M  V30 2651 C 247.299 0.0426021 1.60844 0
M  V30 2652 O 248.491 0.265346 1.75 0
M  V30 2653 C 245.62 0.814301 3.33503 0
M  V30 2654 C 244.706 1.93761 3.7725 0
M  V30 2655 N 245.097 3.18232 3.93143 0
M  V30 2656 C 243.395 1.83277 4.06602 0
M  V30 2657 C 244.096 3.9158 4.30163 0
M  V30 2658 N 243.072 3.19591 4.3973 0
M  V30 2659 H 246.874 2.07003 2.08631 0
M  V30 2660 H 244.388 1.21307 1.07974 0
M  V30 2661 H 246.385 0.67029 4.11476 0
M  V30 2662 H 245.045 -0.121797 3.24471 0
M  V30 2663 H 246.056 3.53581 3.78419 0
M  V30 2664 H 242.733 0.97001 4.06075 0
M  V30 2665 H 244.123 4.98744 4.50226 0
M  V30 2666 N 246.843 -1.10192 1.12674 0
M  V30 2667 C 248.254 -1.63707 0.897604 0
M  V30 2668 C 248.605 -1.87812 -0.567546 0
M  V30 2669 O 247.73 -1.62196 -1.43253 0
M  V30 2670 C 248.325 -2.974 1.62292 0
M  V30 2671 C 246.884 -3.47772 1.43986 0
M  V30 2672 C 246.031 -2.22332 1.65722 0
M  V30 2673 H 248.982 -0.936587 1.28116 0
M  V30 2674 H 249.003 -3.64986 1.07541 0
M  V30 2675 H 248.515 -2.79824 2.68924 0
M  V30 2676 H 246.616 -3.70487 0.396206 0
M  V30 2677 H 246.729 -4.25723 2.19765 0
M  V30 2678 H 245.093 -2.30599 1.08149 0
M  V30 2679 H 245.876 -2.07285 2.73657 0
M  V30 2680 N 248.321 -0.919034 -1.28029 0
M  V30 2681 C 249.57 -0.550802 -1.94034 0
M  V30 2682 C 249.883 0.910877 -1.73096 0
M  V30 2683 O 251.089 1.3875 -2.33368 0
M  V30 2684 C 249.545 -0.934249 -3.47563 0
M  V30 2685 C 249.153 -2.41602 -3.7727 0
M  V30 2686 C 250.897 -0.636854 -4.19696 0
M  V30 2687 C 248.804 -2.73932 -5.24133 0
M  V30 2688 H 247.734 -0.202273 -0.726362 0
M  V30 2689 H 250.385 -1.11867 -1.45458 0
M  V30 2690 H 248.767 -0.295115 -3.94899 0
M  V30 2691 H 249.941 -3.10233 -3.40723 0
M  V30 2692 H 248.256 -2.68441 -3.18321 0
M  V30 2693 H 250.853 -0.855005 -5.2782 0
M  V30 2694 H 251.196 0.425575 -4.14119 0
M  V30 2695 H 251.729 -1.23469 -3.78154 0
M  V30 2696 H 248.468 -3.79049 -5.34792 0
M  V30 2697 H 247.988 -2.09942 -5.61858 0
M  V30 2698 H 249.667 -2.61215 -5.91925 0
M  V30 2699 N 249.799 1.42003 -0.683588 0
M  V30 2700 C 251.215 1.55625 -0.353976 0
M  V30 2701 C 251.415 1.66151 1.14 0
M  V30 2702 O 250.471 1.63329 1.92561 0
M  V30 2703 C 251.784 2.80171 -1.092 0
M  V30 2704 C 253.332 2.93954 -1.07518 0
M  V30 2705 C 253.807 4.21372 -1.79471 0
M  V30 2706 N 255.298 4.28303 -1.76381 0
M  V30 2707 C 256.033 5.25729 -2.28904 0
M  V30 2708 N 255.529 6.29254 -2.89846 0
M  V30 2709 N 257.322 5.17586 -2.19228 0
M  V30 2710 H 249.473 1.33415 -1.6527 0
M  V30 2711 H 251.736 0.64282 -0.696769 0
M  V30 2712 H 251.442 2.78561 -2.14701 0
M  V30 2713 H 251.316 3.7133 -0.662862 0
M  V30 2714 H 253.703 2.95086 -0.028475 0
M  V30 2715 H 253.784 2.04002 -1.54328 0
M  V30 2716 H 253.428 4.21001 -2.84114 0
M  V30 2717 H 253.358 5.10275 -1.30104 0
M  V30 2718 H 255.849 3.54119 -1.31939 0
M  V30 2719 H 256.162 6.99964 -3.27522 0
M  V30 2720 H 254.507 6.29791 -2.93919 0
M  V30 2721 H 257.698 4.35631 -1.71299 0
M  V30 2722 H 257.871 5.93348 -2.60466 0
M  V30 2723 N 251.277 0.427512 1.51691 0
M  V30 2724 C 252.207 -0.3796 2.30394 0
M  V30 2725 C 253.188 -1.02982 1.35384 0
M  V30 2726 O 254.373 -1.03534 1.643 0
M  V30 2727 C 251.503 -1.48649 3.1388 0
M  V30 2728 C 250.457 -0.960294 4.17088 0
M  V30 2729 C 249.783 -2.16219 4.89033 0
M  V30 2730 C 251.083 -0.00153679 5.223 0
M  V30 2731 H 252.777 0.277164 2.98114 0
M  V30 2732 H 250.323 0.134739 1.43368 0
M  V30 2733 H 252.276 -2.05826 3.67714 0
M  V30 2734 H 251 -2.1714 2.43962 0
M  V30 2735 H 249.659 -0.410806 3.64291 0
M  V30 2736 H 249.307 -2.83307 4.15628 0
M  V30 2737 H 249.007 -1.81654 5.58816 0
M  V30 2738 H 250.531 -2.73968 5.45687 0
M  V30 2739 H 251.945 -0.482687 5.71264 0
M  V30 2740 H 250.342 0.256199 5.99553 0
M  V30 2741 H 251.412 0.938174 4.75738 0
M  V30 2742 N 252.755 -1.56801 0.158532 0
M  V30 2743 C 254.003 -1.96102 -0.488712 0
M  V30 2744 C 254.324 -1.04498 -1.64636 0
M  V30 2745 O 253.594 -0.108783 -1.95598 0
M  V30 2746 H 252.174 -0.724102 -0.183535 0
M  V30 2747 H 254.836 -1.93457 0.236728 0
M  V30 2748 H 253.932 -3.00097 -0.857219 0
M  V30 2749 N 254.233 0.115231 -1.57178 0
M  V30 2750 C 255.163 1.1423 -2.03651 0
M  V30 2751 C 256.144 1.42967 -0.921655 0
M  V30 2752 O 257.329 1.53343 -1.19162 0
M  V30 2753 C 254.459 2.4675 -2.44401 0
M  V30 2754 C 253.413 2.32467 -3.59365 0
M  V30 2755 C 252.739 3.69984 -3.86026 0
M  V30 2756 C 254.039 1.78203 -4.90959 0
M  V30 2757 H 255.733 0.755749 -2.89705 0
M  V30 2758 H 253.279 0.362093 -1.39373 0
M  V30 2759 H 255.232 3.18854 -2.75517 0
M  V30 2760 H 253.956 2.87302 -1.55322 0
M  V30 2761 H 252.615 1.62811 -3.28463 0
M  V30 2762 H 252.263 4.08028 -2.94147 0
M  V30 2763 H 251.963 3.61279 -4.63412 0
M  V30 2764 H 253.487 4.43587 -4.19599 0
M  V30 2765 H 254.901 2.40128 -5.20587 0
M  V30 2766 H 253.298 1.8031 -5.72371 0
M  V30 2767 H 254.368 0.739876 -4.79222 0
M  V30 2768 N 255.711 1.52812 0.385517 0
M  V30 2769 C 256.674 1.77188 1.45386 0
M  V30 2770 C 257.674 0.641953 1.4743 0
M  V30 2771 O 258.864 0.910033 1.4854 0
M  V30 2772 C 255.996 1.87582 2.8465 0
M  V30 2773 H 257.189 2.72583 1.25054 0
M  V30 2774 H 254.742 1.43586 0.617467 0
M  V30 2775 H 255.477 0.941849 3.10322 0
M  V30 2776 H 255.262 2.69748 2.84567 0
M  V30 2777 H 256.752 2.08102 3.62054 0
M  V30 2778 N 257.189 -0.644168 1.43834 0
M  V30 2779 C 258.119 -1.76814 1.52509 0
M  V30 2780 C 259.1 -1.65823 0.379052 0
M  V30 2781 O 260.285 -1.84781 0.597466 0
M  V30 2782 C 257.415 -3.15288 1.4564 0
M  V30 2783 C 256.369 -3.41053 2.58586 0
M  V30 2784 C 255.695 -4.79421 2.36769 0
M  V30 2785 C 256.995 -3.34902 4.00797 0
M  V30 2786 H 258.689 -1.69812 2.46586 0
M  V30 2787 H 256.235 -0.815542 1.1868 0
M  V30 2788 H 258.188 -3.93681 1.50311 0
M  V30 2789 H 256.912 -3.23043 0.480725 0
M  V30 2790 H 255.571 -2.65035 2.53282 0
M  V30 2791 H 255.219 -4.83863 1.37424 0
M  V30 2792 H 254.919 -4.9762 3.12487 0
M  V30 2793 H 256.443 -5.6006 2.43238 0
M  V30 2794 H 257.857 -4.03218 4.07539 0
M  V30 2795 H 256.254 -3.64637 4.76613 0
M  V30 2796 H 257.324 -2.32928 4.25291 0
M  V30 2797 N 258.668 -1.30515 -0.883378 0
M  V30 2798 C 259.616 -1.16941 -2.01066 0
M  V30 2799 C 260.61 -0.0809148 -1.69207 0
M  V30 2800 O 261.816 -0.241877 -1.78367 0
M  V30 2801 H 258.191 -0.361705 -0.659298 0
M  V30 2802 H 260.162 -2.12344 -2.09649 0
M  V30 2803 C 258.911 -0.879694 -3.36388 0
M  V30 2804 H 258.234 -1.70936 -3.61415 0
M  V30 2805 H 259.674 -0.82483 -4.159 0
M  V30 2806 C 258.133 0.417409 -3.34304 0
M  V30 2807 O 258.663 1.43843 -3.75063 0
M  V30 2808 N 256.869 0.429141 -2.87414 0
M  V30 2809 H 256.416 -0.402222 -2.5444 0
M  V30 2810 H 256.374 1.29696 -2.86403 0
M  V30 2811 N 260.146 1.09593 -1.13257 0
M  V30 2812 C 261.393 1.81734 -0.893257 0
M  V30 2813 C 261.721 1.8563 0.580656 0
M  V30 2814 O 260.976 1.31906 1.44566 0
M  V30 2815 C 261.275 3.27802 -1.42411 0
M  V30 2816 C 260.941 3.44041 -2.91456 0
M  V30 2817 C 259.603 3.48181 -3.3215 0
M  V30 2818 C 261.955 3.48719 -3.87356 0
M  V30 2819 C 259.283 3.54575 -4.67433 0
M  V30 2820 C 261.635 3.56648 -5.2248 0
M  V30 2821 C 260.299 3.59055 -5.62704 0
M  V30 2822 H 259.569 0.665011 -0.326866 0
M  V30 2823 H 262.216 1.2912 -1.41422 0
M  V30 2824 H 260.521 3.83042 -0.823795 0
M  V30 2825 H 262.218 3.82149 -1.21503 0
M  V30 2826 H 258.808 3.41502 -2.58987 0
M  V30 2827 H 262.992 3.44763 -3.57004 0
M  V30 2828 H 258.248 3.54725 -4.97976 0
M  V30 2829 H 262.422 3.59212 -5.96607 0
M  V30 2830 H 260.049 3.63763 -6.67518 0
M  V30 2831 N 261.624 0.925811 1.2754 0
M  V30 2832 C 262.849 0.580924 1.99098 0
M  V30 2833 C 263.274 -0.833555 1.68622 0
M  V30 2834 O 262.632 -1.55903 0.925422 0
M  V30 2835 C 262.68 0.811186 3.51358 0
M  V30 2836 O 261.784 -0.124129 4.12213 0
M  V30 2837 H 261.125 0.223873 0.625122 0
M  V30 2838 H 263.655 1.24455 1.62395 0
M  V30 2839 H 263.665 0.72601 4.01489 0
M  V30 2840 H 262.34 1.84227 3.72872 0
M  V30 2841 H 260.917 0.0108006 3.72898 0
M  V30 2842 N 263.102 -1.41638 0.69111 0
M  V30 2843 C 264.348 -2.01598 0.220519 0
M  V30 2844 C 264.681 -1.54594 -1.17535 0
M  V30 2845 O 263.956 -0.755177 -1.79241 0
M  V30 2846 C 264.239 -3.59062 0.273243 0
M  V30 2847 C 264.092 -4.16203 1.70573 0
M  V30 2848 C 265.411 -4.38546 -0.369457 0
M  V30 2849 H 262.53 -0.732468 0.0816045 0
M  V30 2850 H 265.172 -1.68445 0.878986 0
M  V30 2851 H 263.322 -3.87435 -0.287411 0
M  V30 2852 H 264.994 -3.98722 2.31989 0
M  V30 2853 H 263.237 -3.71414 2.2413 0
M  V30 2854 H 263.908 -5.25358 1.69419 0
M  V30 2855 H 266.384 -4.1596 0.107977 0
M  V30 2856 H 265.26 -5.48069 -0.302002 0
M  V30 2857 H 265.521 -4.17662 -1.44951 0
M  V30 2858 N 264.58 -0.43555 -1.51462 0
M  V30 2859 C 265.827 0.131514 -2.02072 0
M  V30 2860 C 266.155 1.42868 -1.31981 0
M  V30 2861 O 265.41 1.91076 -0.422883 0
M  V30 2862 C 265.709 0.39942 -3.55161 0
M  V30 2863 C 265.375 -0.81172 -4.43533 0
M  V30 2864 C 264.037 -1.14387 -4.67407 0
M  V30 2865 C 266.389 -1.61976 -4.95392 0
M  V30 2866 C 263.717 -2.28477 -5.40384 0
M  V30 2867 C 266.069 -2.75164 -5.6962 0
M  V30 2868 C 264.733 -3.08835 -5.91758 0
M  V30 2869 H 264.003 0.0481244 -0.739436 0
M  V30 2870 H 266.65 -0.58238 -1.8243 0
M  V30 2871 H 264.955 1.19519 -3.73125 0
M  V30 2872 H 266.652 0.85157 -3.91854 0
M  V30 2873 H 263.242 -0.542898 -4.25148 0
M  V30 2874 H 267.426 -1.37637 -4.76833 0
M  V30 2875 H 262.682 -2.5488 -5.55739 0
M  V30 2876 H 266.856 -3.38147 -6.08793 0
M  V30 2877 H 264.483 -3.97353 -6.48086 0
M  V30 2878 N 266.058 1.56714 -0.166846 0
M  V30 2879 C 267.288 2.00828 0.48494 0
M  V30 2880 C 267.696 1.04612 1.57648 0
M  V30 2881 O 267.039 0.0383201 1.8366 0
M  V30 2882 C 267.101 3.4137 1.12723 0
M  V30 2883 C 266.765 4.56654 0.177886 0
M  V30 2884 C 267.762 5.16402 -0.60207 0
M  V30 2885 C 265.447 5.02244 0.0750139 0
M  V30 2886 C 267.441 6.20167 -1.47215 0
M  V30 2887 C 265.128 6.05859 -0.798649 0
M  V30 2888 C 266.126 6.64691 -1.57082 0
M  V30 2889 O 265.814 7.66297 -2.42989 0
M  V30 2890 H 265.546 0.663587 0.128953 0
M  V30 2891 H 268.1 2.03692 -0.264365 0
M  V30 2892 H 266.33 3.35406 1.92457 0
M  V30 2893 H 268.019 3.69466 1.68076 0
M  V30 2894 H 268.785 4.82065 -0.53274 0
M  V30 2895 H 264.664 4.56167 0.665812 0
M  V30 2896 H 268.208 6.66016 -2.07531 0
M  V30 2897 H 264.105 6.39621 -0.869199 0
M  V30 2898 H 264.873 7.83601 -2.36455 0
M  V30 2899 N 267.536 -0.106894 1.57237 0
M  V30 2900 C 268.766 -0.825191 1.89405 0
M  V30 2901 C 269.174 -1.73374 0.757496 0
M  V30 2902 O 268.517 -1.81552 -0.280115 0
M  V30 2903 C 268.579 -1.70102 3.1671 0
M  V30 2904 C 268.243 -0.965523 4.46684 0
M  V30 2905 C 269.24 -0.300741 5.19029 0
M  V30 2906 C 266.925 -0.943105 4.93367 0
M  V30 2907 C 268.919 0.376622 6.36286 0
M  V30 2908 C 266.606 -0.261949 6.10538 0
M  V30 2909 C 267.604 0.396748 6.81847 0
M  V30 2910 O 267.292 1.06701 7.96787 0
M  V30 2911 H 267.024 -0.241852 0.631255 0
M  V30 2912 H 269.578 -0.0921491 2.05193 0
M  V30 2913 H 267.808 -2.47601 2.97036 0
M  V30 2914 H 269.497 -2.29483 3.34802 0
M  V30 2915 H 270.263 -0.309599 4.84011 0
M  V30 2916 H 266.142 -1.44524 4.3776 0
M  V30 2917 H 269.686 0.891334 6.91882 0
M  V30 2918 H 265.583 -0.250896 6.45012 0
M  V30 2919 H 266.351 0.972707 8.127 0
M  V30 2920 N 269.014 -1.53014 -0.377408 0
M  V30 2921 C 269.924 -1.81557 -1.48574 0
M  V30 2922 C 270.94 -0.703102 -1.59162 0
M  V30 2923 O 272.116 -0.99192 -1.75279 0
M  V30 2924 C 269.181 -1.9889 -2.83978 0
M  V30 2925 C 268.242 -3.22801 -2.83016 0
M  V30 2926 C 267.475 -3.39298 -4.11962 0
M  V30 2927 O 267.698 -2.60345 -5.0752 0
M  V30 2928 O 266.632 -4.32604 -4.18494 0
M  V30 2929 H 270.458 -2.75695 -1.27382 0
M  V30 2930 H 268.043 -1.38248 -0.566373 0
M  V30 2931 H 269.925 -2.11931 -3.6423 0
M  V30 2932 H 268.6 -1.07942 -3.05172 0
M  V30 2933 H 267.507 -3.15193 -2.01505 0
M  V30 2934 H 268.84 -4.13632 -2.66775 0
M  V30 2935 N 270.492 0.636531 -1.44174 0
M  V30 2936 C 271.741 1.39213 -1.45954 0
M  V30 2937 C 272.054 1.95374 -0.0939119 0
M  V30 2938 O 273.26 2.71498 0.0107767 0
M  V30 2939 C 271.716 2.52025 -2.56927 0
M  V30 2940 C 271.324 2.024 -3.99673 0
M  V30 2941 C 273.068 3.29269 -2.67922 0
M  V30 2942 C 270.975 3.12521 -5.0208 0
M  V30 2943 H 269.905 0.523132 -0.542999 0
M  V30 2944 H 272.556 0.685349 -1.70221 0
M  V30 2945 H 270.938 3.25253 -2.25891 0
M  V30 2946 H 272.112 1.36073 -4.40251 0
M  V30 2947 H 270.427 1.37987 -3.92872 0
M  V30 2948 H 273.024 4.11352 -3.41605 0
M  V30 2949 H 273.367 3.78397 -1.73555 0
M  V30 2950 H 273.9 2.63129 -2.98342 0
M  V30 2951 H 270.639 2.68343 -5.98057 0
M  V30 2952 H 270.159 3.77507 -4.66099 0
M  V30 2953 H 271.838 3.77385 -5.25538 0
M  V30 2954 N 271.97 1.30982 0.876444 0
M  V30 2955 C 272.9 1.20668 1.99903 0
M  V30 2956 C 273.881 0.095354 1.69833 0
M  V30 2957 O 275.066 0.27885 1.92188 0
M  V30 2958 C 272.196 0.90655 3.3526 0
M  V30 2959 C 271.15 1.97675 3.79617 0
M  V30 2960 C 270.476 1.52943 5.1236 0
M  V30 2961 C 271.776 3.389 3.97422 0
M  V30 2962 H 273.47 2.14586 2.0879 0
M  V30 2963 H 271.016 1.03308 1.00317 0
M  V30 2964 H 272.969 0.821025 4.13324 0
M  V30 2965 H 271.693 -0.0682969 3.26529 0
M  V30 2966 H 270.352 2.05205 3.03787 0
M  V30 2967 H 270 0.54262 5.00065 0
M  V30 2968 H 269.7 2.24532 5.43009 0
M  V30 2969 H 271.224 1.45786 5.92941 0
M  V30 2970 H 272.638 3.34081 4.659 0
M  V30 2971 H 271.035 4.0865 4.3946 0
M  V30 2972 H 272.105 3.80163 3.01006 0
M  V30 2973 N 273.449 -1.08991 1.13837 0
M  V30 2974 C 274.397 -2.17841 0.815347 0
M  V30 2975 C 275.391 -1.68164 -0.204233 0
M  V30 2976 O 276.597 -1.79897 -0.0609304 0
M  V30 2977 H 272.972 -0.710654 0.245915 0
M  V30 2978 H 274.943 -2.42315 1.74143 0
M  V30 2979 C 273.692 -3.46381 0.302614 0
M  V30 2980 H 273.015 -3.84979 1.0785 0
M  V30 2981 H 274.455 -4.23844 0.115074 0
M  V30 2982 C 272.914 -3.22556 -0.972591 0
M  V30 2983 O 273.444 -3.45599 -2.04754 0
M  V30 2984 N 271.65 -2.76134 -0.905455 0
M  V30 2985 H 271.197 -2.57582 -0.0305421 0
M  V30 2986 H 271.155 -2.60571 -1.75926 0
M  V30 2987 N 274.927 -0.932562 -1.27047 0
M  V30 2988 C 275.875 -0.42603 -2.28665 0
M  V30 2989 C 276.869 0.49219 -1.62092 0
M  V30 2990 O 278.075 0.371355 -1.76128 0
M  V30 2991 H 274.45 -0.119213 -0.742491 0
M  V30 2992 H 276.421 -1.29579 -2.68797 0
M  V30 2993 C 275.17 0.301426 -3.46391 0
M  V30 2994 H 274.493 -0.39595 -3.97834 0
M  V30 2995 H 275.933 0.6202 -4.1944 0
M  V30 2996 C 274.392 1.51616 -3.00856 0
M  V30 2997 O 274.922 2.61476 -3.04948 0
M  V30 2998 N 273.128 1.36969 -2.56296 0
M  V30 2999 H 272.675 0.475873 -2.53166 0
M  V30 3000 H 272.633 2.18368 -2.26192 0
M  V30 3001 N 276.405 1.4127 -0.698611 0
M  V30 3002 C 277.645 2.03044 -0.235062 0
M  V30 3003 C 278.009 1.54146 1.14468 0
M  V30 3004 O 279.21 2.07867 1.70425 0
M  V30 3005 C 277.481 3.56192 -0.293651 0
M  V30 3006 S 279.04 4.38696 0.0954053 0
M  V30 3007 H 275.858 0.704697 -0.0944648 0
M  V30 3008 H 278.46 1.72656 -0.917064 0
M  V30 3009 H 277.164 3.89274 -1.29977 0
M  V30 3010 H 276.695 3.91285 0.407397 0
M  V30 3011 H 278.71 4.78257 1.3223 0
M  V30 3012 N 277.883 0.443576 1.51229 0
M  V30 3013 C 278.793 -0.370721 2.31652 0
M  V30 3014 C 279.809 -1.02186 1.40833 0
M  V30 3015 O 280.985 -1.01586 1.73903 0
M  V30 3016 C 278.05 -1.45376 3.14749 0
M  V30 3017 C 277.111 -0.822099 4.21355 0
M  V30 3018 C 276.344 -1.85353 5.0048 0
M  V30 3019 O 276.567 -3.07656 4.80316 0
M  V30 3020 O 275.501 -1.4406 5.84406 0
M  V30 3021 H 279.327 0.286002 3.0235 0
M  V30 3022 H 276.912 0.20598 1.47973 0
M  V30 3023 H 278.794 -2.08173 3.66391 0
M  V30 3024 H 277.469 -2.09445 2.46809 0
M  V30 3025 H 276.376 -0.155909 3.73775 0
M  V30 3026 H 277.709 -0.224797 4.91686 0
M  V30 3027 N 279.361 -1.56624 0.175154 0
M  V30 3028 C 280.293 -2.15333 -0.785128 0
M  V30 3029 C 281.306 -1.1099 -1.19101 0
M  V30 3030 O 282.495 -1.38162 -1.13019 0
M  V30 3031 C 279.595 -2.68427 -2.06882 0
M  V30 3032 C 278.768 -3.97466 -1.8259 0
M  V30 3033 C 277.827 -4.35585 -2.95215 0
M  V30 3034 O 276.853 -5.03389 -2.65684 0
M  V30 3035 N 278.055 -3.97457 -4.23094 0
M  V30 3036 H 280.82 -2.98359 -0.283187 0
M  V30 3037 H 278.381 -1.61898 -0.00749817 0
M  V30 3038 H 280.373 -2.90924 -2.81328 0
M  V30 3039 H 278.943 -1.89968 -2.48256 0
M  V30 3040 H 278.163 -3.83307 -0.920287 0
M  V30 3041 H 279.451 -4.81736 -1.63733 0
M  V30 3042 H 278.849 -3.42878 -4.49945 0
M  V30 3043 H 277.406 -4.24947 -4.9423 0
M  V30 3044 N 280.839 0.0985539 -1.57292 0
M  V30 3045 C 281.802 1.10402 -2.00858 0
M  V30 3046 C 282.802 1.33146 -0.901593 0
M  V30 3047 O 283.992 1.29318 -1.16716 0
M  V30 3048 C 281.124 2.45394 -2.36632 0
M  V30 3049 H 282.317 0.729099 -2.90902 0
M  V30 3050 H 279.87 0.343495 -1.52479 0
M  V30 3051 H 280.605 2.87769 -1.49531 0
M  V30 3052 H 280.39 2.30235 -3.17387 0
M  V30 3053 H 281.88 3.17718 -2.71007 0
M  V30 3054 N 282.317 1.53212 0.369288 0
M  V30 3055 C 283.557 1.70915 1.12105 0
M  V30 3056 C 283.921 0.449444 1.86665 0
M  V30 3057 O 285.122 0.503105 2.6405 0
M  V30 3058 C 283.393 2.9222 2.05772 0
M  V30 3059 S 284.952 3.30609 2.88519 0
M  V30 3060 H 281.77 0.601445 0.379189 0
M  V30 3061 H 284.372 1.91306 0.402794 0
M  V30 3062 H 283.076 3.82103 1.49752 0
M  V30 3063 H 282.607 2.7422 2.82076 0
M  V30 3064 H 284.622 2.82333 4.08047 0
M  V30 3065 N 283.795 -0.628877 1.44509 0
M  V30 3066 C 284.742 -1.74074 1.51549 0
M  V30 3067 C 285.712 -1.62084 0.363021 0
M  V30 3068 O 286.897 -1.81975 0.573567 0
M  V30 3069 C 284.037 -3.12328 1.46784 0
M  V30 3070 C 283.15 -3.35277 2.72422 0
M  V30 3071 C 282.285 -4.63515 2.59475 0
M  V30 3072 C 281.324 -4.7965 3.80266 0
M  V30 3073 N 280.461 -5.99168 3.65981 0
M  V30 3074 H 285.301 -1.67392 2.46544 0
M  V30 3075 H 282.838 -0.816527 1.22357 0
M  V30 3076 H 284.796 -3.92286 1.42012 0
M  V30 3077 H 283.426 -3.18018 0.553544 0
M  V30 3078 H 282.478 -2.49242 2.87372 0
M  V30 3079 H 283.79 -3.43078 3.62076 0
M  V30 3080 H 282.944 -5.51638 2.52548 0
M  V30 3081 H 281.683 -4.58076 1.67384 0
M  V30 3082 H 280.688 -3.89957 3.87574 0
M  V30 3083 H 281.913 -4.86902 4.73395 0
M  V30 3084 H 279.859 -5.94814 2.76644 0
M  V30 3085 H 279.776 -6.08035 4.49254 0
M  V30 3086 H 281.044 -6.89846 3.6295 0
M  V30 3087 N 285.273 -1.31445 -0.869486 0
M  V30 3088 C 286.513 -1.22458 -1.63656 0
M  V30 3089 C 286.877 0.213846 -1.90805 0
M  V30 3090 O 288.078 0.427212 -2.65383 0
M  V30 3091 C 286.349 -2.04564 -2.93067 0
M  V30 3092 S 287.908 -2.12445 -3.83944 0
M  V30 3093 H 284.726 -0.436145 -0.561514 0
M  V30 3094 H 287.328 -1.66114 -1.03085 0
M  V30 3095 H 286.032 -3.0816 -2.71045 0
M  V30 3096 H 285.563 -1.6163 -3.58663 0
M  V30 3097 H 287.578 -1.26312 -4.79854 0
M  V30 3098 N 286.751 1.08385 -1.14413 0
M  V30 3099 C 287.714 2.13486 -0.834048 0
M  V30 3100 C 288.714 1.59988 0.161418 0
M  V30 3101 O 289.904 1.74071 -0.0669575 0
M  V30 3102 C 287.036 3.4003 -0.243354 0
M  V30 3103 H 288.229 2.42425 -1.7655 0
M  V30 3104 H 285.782 1.24101 -0.950189 0
M  V30 3105 H 286.517 3.16726 0.696807 0
M  V30 3106 H 286.302 3.80157 -0.960367 0
M  V30 3107 H 287.792 4.17577 -0.0436242 0
M  V30 3108 N 288.23 0.939286 1.26551 0
M  V30 3109 C 289.646 0.641304 1.46149 0
M  V30 3110 C 289.846 -0.805964 1.84679 0
M  V30 3111 O 288.902 -1.58278 1.96734 0
M  V30 3112 C 290.215 1.6011 2.54529 0
M  V30 3113 C 291.763 1.6106 2.68382 0
M  V30 3114 C 292.238 2.55765 3.79932 0
M  V30 3115 N 293.729 2.5404 3.87322 0
M  V30 3116 C 294.464 3.24004 4.73085 0
M  V30 3117 N 293.96 4.03388 5.63249 0
M  V30 3118 N 295.753 3.12965 4.66914 0
M  V30 3119 H 287.904 1.87478 0.998285 0
M  V30 3120 H 290.167 0.805559 0.499779 0
M  V30 3121 H 289.873 2.63412 2.33039 0
M  V30 3122 H 289.747 1.35171 3.52149 0
M  V30 3123 H 292.134 0.584835 2.89247 0
M  V30 3124 H 292.215 1.90053 1.71212 0
M  V30 3125 H 291.859 3.58458 3.5982 0
M  V30 3126 H 291.789 2.24063 4.76554 0
M  V30 3127 H 294.28 1.96396 3.22858 0
M  V30 3128 H 294.593 4.5373 6.25579 0
M  V30 3129 H 292.938 4.07489 5.63008 0
M  V30 3130 H 296.129 2.50432 3.95476 0
M  V30 3131 H 296.302 3.67759 5.33533 0
M  V30 3132 N 289.708 -1.40897 0.706093 0
M  V30 3133 C 290.954 -2.01352 0.241889 0
M  V30 3134 C 291.287 -1.55832 -1.15888 0
M  V30 3135 O 290.562 -0.774145 -1.7843 0
M  V30 3136 C 290.845 -3.58752 0.311311 0
M  V30 3137 C 290.698 -4.1437 1.74978 0
M  V30 3138 C 292.017 -4.38914 -0.322922 0
M  V30 3139 H 289.136 -0.731562 0.0893687 0
M  V30 3140 H 291.778 -1.67504 0.896802 0
M  V30 3141 H 289.928 -3.87718 -0.246302 0
M  V30 3142 H 291.6 -3.96239 2.36205 0
M  V30 3143 H 289.843 -3.69016 2.28057 0
M  V30 3144 H 290.514 -5.23532 1.74981 0
M  V30 3145 H 292.99 -4.15822 0.152089 0
M  V30 3146 H 291.866 -5.48358 -0.243855 0
M  V30 3147 H 292.127 -4.19176 -1.40513 0
M  V30 3148 N 291.186 -0.45159 -1.50991 0
M  V30 3149 C 292.149 0.341117 -2.26647 0
M  V30 3150 C 293.149 0.937422 -1.30649 0
M  V30 3151 O 294.339 0.809644 -1.54241 0
M  V30 3152 C 291.471 1.48398 -3.06905 0
M  V30 3153 H 292.664 -0.322117 -2.98165 0
M  V30 3154 H 290.217 -0.205122 -1.54948 0
M  V30 3155 H 290.952 2.18284 -2.39838 0
M  V30 3156 H 290.737 1.06241 -3.77432 0
M  V30 3157 H 292.227 2.04367 -3.64176 0
M  V30 3158 N 292.664 1.56529 -0.183458 0
M  V30 3159 C 293.911 1.97244 0.458357 0
M  V30 3160 C 294.239 1.06992 1.62428 0
M  V30 3161 O 293.494 0.106542 1.9541 0
M  V30 3162 C 293.793 3.43939 0.971637 0
M  V30 3163 C 293.459 4.5083 -0.0796784 0
M  V30 3164 C 292.121 4.79786 -0.368584 0
M  V30 3165 C 294.473 5.15138 -0.792638 0
M  V30 3166 C 291.801 5.70345 -1.37563 0
M  V30 3167 C 294.153 6.06784 -1.78875 0
M  V30 3168 C 292.817 6.34102 -2.08497 0
M  V30 3169 H 292.087 0.721768 0.167725 0
M  V30 3170 H 294.734 1.89472 -0.277976 0
M  V30 3171 H 293.039 3.48724 1.78602 0
M  V30 3172 H 294.736 3.72791 1.47744 0
M  V30 3173 H 291.326 4.28317 0.155668 0
M  V30 3174 H 295.51 4.92868 -0.582659 0
M  V30 3175 H 290.766 5.89789 -1.61118 0
M  V30 3176 H 294.94 6.55677 -2.3465 0
M  V30 3177 H 292.567 7.04074 -2.86678 0
M  V30 3178 N 294.142 -0.090211 1.57342 0
M  V30 3179 C 295.419 -0.824761 1.77361 0
M  V30 3180 C 295.799 -1.96698 0.76637 0
M  V30 3181 O 295.147 -2.27586 -0.204179 0
M  V30 3182 C 295.357 -1.31481 3.23286 0
M  V30 3183 C 296.705 -1.75563 3.86604 0
M  V30 3184 O 297.729 -1.41093 3.27065 0
M  V30 3185 O 296.588 -2.39317 4.91314 0
M  V30 3186 H 293.682 -0.393776 0.727234 0
M  V30 3187 H 296.228 -0.0717138 1.69548 0
M  V30 3188 H 295 -0.496671 3.88135 0
M  V30 3189 H 294.623 -2.12973 3.35751 0
M  V30 3190 N 295.62 -1.53406 -0.361157 0
M  V30 3191 C 296.845 -1.74024 -1.12829 0
M  V30 3192 C 297.27 -0.470069 -1.82132 0
M  V30 3193 O 296.628 0.57619 -1.719 0
M  V30 3194 C 296.676 -2.90903 -2.13091 0
M  V30 3195 O 295.78 -2.59821 -3.20261 0
M  V30 3196 H 295.121 -0.577804 -0.327168 0
M  V30 3197 H 297.651 -2.00307 -0.41693 0
M  V30 3198 H 297.661 -3.17194 -2.56616 0
M  V30 3199 H 296.336 -3.83034 -1.62042 0
M  V30 3200 H 294.913 -2.44362 -2.81677 0
M  V30 3201 N 297.098 0.621204 -1.44841 0
M  V30 3202 C 298.061 1.71459 -1.521 0
M  V30 3203 C 299.061 1.55696 -0.401933 0
M  V30 3204 O 300.251 1.61011 -0.664925 0
M  V30 3205 C 297.383 3.10624 -1.40447 0
M  V30 3206 H 298.576 1.66394 -2.49506 0
M  V30 3207 H 296.129 0.835745 -1.3208 0
M  V30 3208 H 296.864 3.21277 -0.441737 0
M  V30 3209 H 296.649 3.23473 -2.21602 0
M  V30 3210 H 298.139 3.90293 -1.4853 0
M  V30 3211 N 298.576 1.31904 0.862503 0
M  V30 3212 C 299.825 1.21373 1.61094 0
M  V30 3213 C 300.138 -0.22504 1.94301 0
M  V30 3214 O 301.344 -0.452121 2.67709 0
M  V30 3215 C 299.8 2.12525 2.9045 0
M  V30 3216 C 299.408 3.61441 2.64697 0
M  V30 3217 C 301.152 2.10813 3.68454 0
M  V30 3218 C 299.059 4.44578 3.90006 0
M  V30 3219 H 297.989 0.450705 0.604468 0
M  V30 3220 H 300.64 1.56811 0.953027 0
M  V30 3221 H 299.022 1.69994 3.57656 0
M  V30 3222 H 300.196 4.12264 2.05851 0
M  V30 3223 H 298.511 3.65205 2.00036 0
M  V30 3224 H 301.108 2.70167 4.61426 0
M  V30 3225 H 301.451 1.09713 4.01583 0
M  V30 3226 H 301.984 2.51583 3.08141 0
M  V30 3227 H 298.723 5.46461 3.62023 0
M  V30 3228 H 298.243 3.98508 4.48276 0
M  V30 3229 H 299.922 4.57176 4.5782 0
M  V30 3230 N 300.054 -1.07777 1.14986 0
M  V30 3231 C 301.017 -2.13041 0.845358 0
M  V30 3232 C 302.017 -1.60071 -0.152931 0
M  V30 3233 O 303.207 -1.74033 0.0761879 0
M  V30 3234 C 300.339 -3.39896 0.261383 0
M  V30 3235 H 301.532 -2.41485 1.77834 0
M  V30 3236 H 299.085 -1.23595 0.956757 0
M  V30 3237 H 299.82 -3.17091 -0.68 0
M  V30 3238 H 299.605 -3.79642 0.980514 0
M  V30 3239 H 301.095 -4.17548 0.0657687 0
M  V30 3240 N 301.532 -0.945985 -1.26051 0
M  V30 3241 C 302.442 -0.465633 -2.29933 0
M  V30 3242 C 303.458 0.462761 -1.67733 0
M  V30 3243 O 304.634 0.341118 -1.9849 0
M  V30 3244 C 301.699 0.256994 -3.45746 0
M  V30 3245 C 300.76 -0.708549 -4.23412 0
M  V30 3246 C 299.993 -0.0203135 -5.33696 0
M  V30 3247 O 300.216 1.19571 -5.57726 0
M  V30 3248 O 299.15 -0.701459 -5.97799 0
M  V30 3249 H 302.976 -1.32866 -2.73094 0
M  V30 3250 H 300.561 -0.712071 -1.31339 0
M  V30 3251 H 302.443 0.663852 -4.16138 0
M  V30 3252 H 301.118 1.09533 -3.04605 0
M  V30 3253 H 300.025 -1.16545 -3.55483 0
M  V30 3254 H 301.358 -1.51465 -4.68315 0
M  V30 3255 N 303.011 1.40521 -0.713556 0
M  V30 3256 C 303.941 2.33381 -0.0743864 0
M  V30 3257 C 304.922 1.52784 0.747735 0
M  V30 3258 O 306.107 1.81258 0.697071 0
M  V30 3259 C 303.237 3.36748 0.849598 0
M  V30 3260 C 302.191 4.27793 0.133247 0
M  V30 3261 C 301.517 5.21679 1.17281 0
M  V30 3262 C 302.817 5.12415 -1.01134 0
M  V30 3263 H 304.511 2.87081 -0.850007 0
M  V30 3264 H 302.057 1.38034 -0.410201 0
M  V30 3265 H 304.01 4.00648 1.30612 0
M  V30 3266 H 302.734 2.81439 1.65709 0
M  V30 3267 H 301.393 3.65342 -0.303426 0
M  V30 3268 H 301.041 4.62677 1.9733 0
M  V30 3269 H 300.741 5.83435 0.698397 0
M  V30 3270 H 302.265 5.88456 1.62947 0
M  V30 3271 H 303.679 5.69781 -0.634274 0
M  V30 3272 H 302.076 5.83203 -1.41399 0
M  V30 3273 H 303.146 4.48514 -1.84292 0
M  V30 3274 N 304.489 0.459591 1.5075 0
M  V30 3275 C 305.766 -0.160371 1.94941 0
M  V30 3276 C 306.146 -1.58048 1.39943 0
M  V30 3277 O 305.494 -2.206 0.595629 0
M  V30 3278 C 305.704 -0.115432 3.48809 0
M  V30 3279 C 307.052 -0.310026 4.23467 0
M  V30 3280 O 308.076 -0.192543 3.55679 0
M  V30 3281 O 306.935 -0.546031 5.43765 0
M  V30 3282 H 304.029 -0.117925 0.818549 0
M  V30 3283 H 306.575 0.519169 1.61563 0
M  V30 3284 H 305.347 0.87652 3.81357 0
M  V30 3285 H 304.97 -0.836928 3.88692 0
M  V30 3286 N 305.967 -1.56429 0.191757 0
M  V30 3287 C 307.195 -2.01867 -0.453586 0
M  V30 3288 C 307.61 -1.07191 -1.5542 0
M  V30 3289 O 306.967 -0.0762108 -1.82341 0
M  V30 3290 C 307.018 -3.47017 -1.013 0
M  V30 3291 O 306.739 -4.38078 0.0437005 0
M  V30 3292 C 308.24 -4.07956 -1.73456 0
M  V30 3293 H 305.46 -0.661211 -0.114199 0
M  V30 3294 H 308.004 -2.02295 0.299483 0
M  V30 3295 H 306.159 -3.47298 -1.71647 0
M  V30 3296 H 306.573 -5.23178 -0.372212 0
M  V30 3297 H 308.047 -5.1138 -2.07833 0
M  V30 3298 H 308.524 -3.51222 -2.63704 0
M  V30 3299 H 309.13 -4.11437 -1.07702 0
M  V30 3300 N 307.445 0.0818655 -1.57387 0
M  V30 3301 C 308.375 1.09885 -2.06028 0
M  V30 3302 C 309.356 1.4098 -0.951774 0
M  V30 3303 O 310.541 1.50781 -1.22387 0
M  V30 3304 C 307.671 2.4151 -2.4958 0
M  V30 3305 C 306.625 2.24792 -3.64215 0
M  V30 3306 C 305.951 3.61712 -3.93787 0
M  V30 3307 C 307.251 1.67749 -4.94629 0
M  V30 3308 H 308.945 0.694128 -2.91243 0
M  V30 3309 H 306.491 0.332448 -1.4011 0
M  V30 3310 H 308.444 3.12939 -2.82219 0
M  V30 3311 H 307.168 2.83943 -1.61381 0
M  V30 3312 H 305.827 1.55807 -3.31843 0
M  V30 3313 H 305.475 4.01697 -3.02735 0
M  V30 3314 H 305.175 3.51368 -4.70971 0
M  V30 3315 H 306.699 4.34587 -4.28913 0
M  V30 3316 H 308.113 2.29032 -5.25564 0
M  V30 3317 H 306.51 1.68128 -5.76067 0
M  V30 3318 H 307.58 0.638059 -4.80684 0
M  V30 3319 N 308.923 1.53595 0.353017 0
M  V30 3320 C 310.148 1.7462 1.11904 0
M  V30 3321 C 310.573 0.479721 1.8188 0
M  V30 3322 O 309.931 -0.567066 1.72204 0
M  V30 3323 C 309.979 2.92029 2.11545 0
M  V30 3324 O 309.083 2.61516 3.18878 0
M  V30 3325 H 308.424 0.579531 0.324099 0
M  V30 3326 H 310.954 2.00525 0.406301 0
M  V30 3327 H 310.964 3.18551 2.5493 0
M  V30 3328 H 309.639 3.83888 1.60008 0
M  V30 3329 H 308.216 2.45852 2.80377 0
M  V30 3330 N 310.401 -0.613514 1.45168 0
M  V30 3331 C 311.311 -1.75296 1.55912 0
M  V30 3332 C 312.327 -1.68244 0.443856 0
M  V30 3333 O 313.503 -1.88706 0.70371 0
M  V30 3334 C 310.568 -3.1174 1.5172 0
M  V30 3335 C 309.629 -3.30291 2.74238 0
M  V30 3336 C 308.862 -4.60226 2.70236 0
M  V30 3337 O 309.085 -5.42168 1.77229 0
M  V30 3338 O 308.019 -4.81361 3.61352 0
M  V30 3339 H 311.845 -1.69183 2.52212 0
M  V30 3340 H 309.43 -0.776886 1.27612 0
M  V30 3341 H 311.312 -3.93044 1.51968 0
M  V30 3342 H 309.987 -3.18357 0.585697 0
M  V30 3343 H 308.894 -2.48598 2.79553 0
M  V30 3344 H 310.227 -3.28547 3.66494 0
M  V30 3345 N 311.879 -1.3236 -0.855495 0
M  V30 3346 C 312.789 -1.23221 -1.99634 0
M  V30 3347 C 313.805 -0.145983 -1.73387 0
M  V30 3348 O 314.981 -0.366502 -1.98037 0
M  V30 3349 C 312.046 -0.954782 -3.33294 0
M  V30 3350 C 311.107 -2.12937 -3.72769 0
M  V30 3351 C 310.34 -1.86508 -5.00051 0
M  V30 3352 O 310.563 -0.807231 -5.64659 0
M  V30 3353 O 309.497 -2.72591 -5.36636 0
M  V30 3354 H 313.323 -2.19126 -2.1028 0
M  V30 3355 H 310.908 -1.12241 -0.986018 0
M  V30 3356 H 312.79 -0.816519 -4.13414 0
M  V30 3357 H 311.465 -0.0258854 -3.2369 0
M  V30 3358 H 310.372 -2.3231 -2.93228 0
M  V30 3359 H 311.705 -3.04102 -3.87018 0
M  V30 3360 N 313.357 1.07166 -1.15556 0
M  V30 3361 C 314.582 1.84053 -0.955988 0
M  V30 3362 C 315.007 1.81586 0.490739 0
M  V30 3363 O 314.365 1.21018 1.34997 0
M  V30 3364 C 314.413 3.28957 -1.47714 0
M  V30 3365 O 313.517 4.06795 -0.677593 0
M  V30 3366 H 312.858 0.569842 -0.340847 0
M  V30 3367 H 315.388 1.35178 -1.53584 0
M  V30 3368 H 315.398 3.79788 -1.4908 0
M  V30 3369 H 314.073 3.30068 -2.53037 0
M  V30 3370 H 312.65 3.6561 -0.733721 0
M  V30 3371 N 314.835 0.952656 1.25548 0
M  V30 3372 C 316.065 0.622592 1.96996 0
M  V30 3373 C 316.473 -0.809112 1.71026 0
M  V30 3374 O 315.816 -1.55258 0.981861 0
M  V30 3375 C 315.878 0.798946 3.5051 0
M  V30 3376 C 315.542 2.20744 4.00151 0
M  V30 3377 C 316.539 3.18394 4.11001 0
M  V30 3378 C 314.224 2.5311 4.33867 0
M  V30 3379 C 316.218 4.46504 4.54877 0
M  V30 3380 C 313.905 3.8145 4.7743 0
M  V30 3381 C 314.903 4.77959 4.87897 0
M  V30 3382 O 314.591 6.04012 5.30494 0
M  V30 3383 H 314.323 0.232503 0.634758 0
M  V30 3384 H 316.877 1.2789 1.60728 0
M  V30 3385 H 315.107 0.0854903 3.86605 0
M  V30 3386 H 316.796 0.47023 4.03167 0
M  V30 3387 H 317.562 2.94715 3.85186 0
M  V30 3388 H 313.441 1.78719 4.24948 0
M  V30 3389 H 316.985 5.21835 4.62962 0
M  V30 3390 H 312.882 4.04936 5.0269 0
M  V30 3391 H 313.65 6.0736 5.48685 0
M  V30 3392 N 316.313 -1.40141 0.720998 0
M  V30 3393 C 317.26 -2.30688 0.071919 0
M  V30 3394 C 318.23 -1.48476 -0.744584 0
M  V30 3395 O 319.415 -1.77201 -0.707423 0
M  V30 3396 C 316.555 -3.34724 -0.839855 0
M  V30 3397 C 315.668 -4.31998 -0.0122438 0
M  V30 3398 C 314.803 -5.23102 -0.923995 0
M  V30 3399 C 313.842 -6.12033 -0.0907969 0
M  V30 3400 N 312.979 -6.95537 -0.957718 0
M  V30 3401 H 317.819 -2.85628 0.849755 0
M  V30 3402 H 315.356 -1.40653 0.430726 0
M  V30 3403 H 317.314 -3.93618 -1.38279 0
M  V30 3404 H 315.944 -2.81274 -1.58381 0
M  V30 3405 H 314.996 -3.74841 0.64794 0
M  V30 3406 H 316.308 -4.94772 0.632595 0
M  V30 3407 H 315.462 -5.86953 -1.53527 0
M  V30 3408 H 314.201 -4.60615 -1.60264 0
M  V30 3409 H 313.206 -5.47207 0.533377 0
M  V30 3410 H 314.431 -6.76581 0.584428 0
M  V30 3411 H 312.377 -6.35633 -1.62192 0
M  V30 3412 H 312.294 -7.55099 -0.36904 0
M  V30 3413 H 313.562 -7.63832 -1.555 0
M  V30 3414 N 317.792 -0.46758 -1.50504 0
M  V30 3415 C 319.069 0.15003 -1.95024 0
M  V30 3416 C 319.449 1.57304 -1.40779 0
M  V30 3417 O 318.797 2.20281 -0.607319 0
M  V30 3418 C 319.007 0.0969324 -3.48865 0
M  V30 3419 C 320.355 0.287565 -4.23625 0
M  V30 3420 O 321.379 0.173678 -3.55776 0
M  V30 3421 O 320.238 0.517186 -5.44047 0
M  V30 3422 H 317.332 0.113582 -0.819163 0
M  V30 3423 H 319.878 -0.52773 -1.61286 0
M  V30 3424 H 318.65 -0.896732 -3.80886 0
M  V30 3425 H 318.273 0.816303 -3.8913 0
M  V30 3426 N 319.27 1.56325 -0.20005 0
M  V30 3427 C 320.2 2.22318 0.713916 0
M  V30 3428 C 321.181 1.18788 1.21752 0
M  V30 3429 O 322.366 1.47309 1.26545 0
M  V30 3430 C 319.496 2.88639 1.93144 0
M  V30 3431 C 318.45 3.98457 1.56255 0
M  V30 3432 C 317.776 4.51967 2.85709 0
M  V30 3433 C 319.076 5.16612 0.768747 0
M  V30 3434 H 320.77 2.98952 0.163755 0
M  V30 3435 H 318.316 1.43792 0.0773219 0
M  V30 3436 H 320.269 3.33491 2.57608 0
M  V30 3437 H 318.993 2.09419 2.50621 0
M  V30 3438 H 317.652 3.54305 0.941471 0
M  V30 3439 H 317.3 3.69503 3.41287 0
M  V30 3440 H 317 5.26071 2.6177 0
M  V30 3441 H 318.524 4.99523 3.51154 0
M  V30 3442 H 319.938 5.57977 1.3166 0
M  V30 3443 H 318.335 5.96812 0.627286 0
M  V30 3444 H 319.405 4.84358 -0.229168 0
M  V30 3445 N 320.748 -0.0735177 1.57428 0
M  V30 3446 C 321.976 -0.785969 1.9139 0
M  V30 3447 C 322.391 -1.71207 0.795847 0
M  V30 3448 O 321.748 -1.81033 -0.230915 0
M  V30 3449 C 321.799 -1.58107 3.25091 0
M  V30 3450 O 321.52 -0.6922 4.32597 0
M  V30 3451 C 323.021 -2.39467 3.73055 0
M  V30 3452 H 320.241 -0.223558 0.632663 0
M  V30 3453 H 322.785 -0.044302 2.04452 0
M  V30 3454 H 320.94 -2.27503 3.13562 0
M  V30 3455 H 321.354 -1.24504 5.09508 0
M  V30 3456 H 322.828 -2.90716 4.69242 0
M  V30 3457 H 323.305 -3.18913 3.01979 0
M  V30 3458 H 323.911 -1.7523 3.87523 0
M  V30 3459 N 322.226 -1.5378 -0.344866 0
M  V30 3460 C 323.475 -1.7018 -1.08267 0
M  V30 3461 C 323.788 -0.471 -1.89845 0
M  V30 3462 O 324.994 -0.515917 -2.66553 0
M  V30 3463 C 323.45 -3.00923 -1.97417 0
M  V30 3464 C 323.058 -4.31335 -1.21053 0
M  V30 3465 C 324.802 -3.26688 -2.71063 0
M  V30 3466 C 322.709 -5.53153 -2.09225 0
M  V30 3467 H 321.639 -0.634138 -0.407903 0
M  V30 3468 H 324.29 -1.8028 -0.342246 0
M  V30 3469 H 322.672 -2.84676 -2.75274 0
M  V30 3470 H 323.846 -4.58281 -0.481159 0
M  V30 3471 H 322.161 -4.12173 -0.591813 0
M  V30 3472 H 324.758 -4.1489 -3.37299 0
M  V30 3473 H 325.101 -2.43639 -3.37558 0
M  V30 3474 H 325.634 -3.43705 -2.0028 0
M  V30 3475 H 322.373 -6.38741 -1.47274 0
M  V30 3476 H 321.893 -5.30458 -2.79955 0
M  V30 3477 H 323.572 -5.88744 -2.68308 0
M  V30 3478 N 323.704 0.605807 -1.45491 0
M  V30 3479 C 324.953 1.36086 -1.48874 0
M  V30 3480 C 325.266 1.95131 -0.135333 0
M  V30 3481 O 326.472 2.7146 -0.0468144 0
M  V30 3482 C 324.928 2.46518 -2.62215 0
M  V30 3483 C 324.536 1.93877 -4.03876 0
M  V30 3484 C 326.28 3.23512 -2.74846 0
M  V30 3485 C 324.187 3.01801 -5.08596 0
M  V30 3486 H 323.117 0.511497 -0.553974 0
M  V30 3487 H 325.768 0.649089 -1.71636 0
M  V30 3488 H 324.15 3.20388 -2.32739 0
M  V30 3489 H 325.324 1.26704 -4.43038 0
M  V30 3490 H 323.639 1.29622 -3.95711 0
M  V30 3491 H 326.236 4.04013 -3.50253 0
M  V30 3492 H 326.579 3.74631 -1.81542 0
M  V30 3493 H 327.112 2.56742 -3.03856 0
M  V30 3494 H 323.851 2.55597 -6.03614 0
M  V30 3495 H 323.371 3.67535 -4.74002 0
M  V30 3496 H 325.05 3.66152 -5.33424 0
M  V30 3497 N 325.182 1.32811 0.848464 0
M  V30 3498 C 326.115 1.16601 1.96162 0
M  V30 3499 C 327.093 0.0638855 1.62474 0
M  V30 3500 O 328.277 0.224348 1.8716 0
M  V30 3501 C 325.404 0.786333 3.29446 0
M  V30 3502 C 324.45 1.89459 3.8211 0
M  V30 3503 S 325.283 3.50395 4.04949 0
M  V30 3504 C 326.439 3.14413 5.41198 0
M  V30 3505 H 326.672 2.10832 2.09612 0
M  V30 3506 H 324.205 1.17543 1.00115 0
M  V30 3507 H 326.163 0.574044 4.06466 0
M  V30 3508 H 324.824 -0.137218 3.138 0
M  V30 3509 H 324.017 1.58207 4.78526 0
M  V30 3510 H 323.619 2.06304 3.11953 0
M  V30 3511 H 325.911 2.64642 6.23675 0
M  V30 3512 H 326.854 4.09874 5.77416 0
M  V30 3513 H 327.262 2.51266 5.05495 0
M  V30 3514 N 326.66 -1.06551 1.16123 0
M  V30 3515 C 327.61 -2.12209 0.833736 0
M  V30 3516 C 328.594 -1.59825 -0.185656 0
M  V30 3517 O 329.786 -1.76994 0.0147906 0
M  V30 3518 C 326.915 -3.41674 0.333697 0
M  V30 3519 C 326.001 -4.00892 1.38372 0
M  V30 3520 N 326.392 -4.34256 2.59337 0
M  V30 3521 C 324.69 -4.28463 1.23836 0
M  V30 3522 C 325.391 -4.81291 3.26701 0
M  V30 3523 N 324.367 -4.80565 2.54083 0
M  V30 3524 H 328.169 -2.35849 1.75364 0
M  V30 3525 H 325.683 -1.24068 1.04789 0
M  V30 3526 H 327.68 -4.16822 0.0806918 0
M  V30 3527 H 326.34 -3.19475 -0.58017 0
M  V30 3528 H 327.351 -4.24687 2.96415 0
M  V30 3529 H 324.028 -4.15721 0.38504 0
M  V30 3530 H 325.418 -5.16332 4.29943 0
M  V30 3531 N 328.138 -0.959301 -1.25041 0
M  V30 3532 C 329.068 -0.501388 -2.28053 0
M  V30 3533 C 330.049 0.454673 -1.63911 0
M  V30 3534 O 331.234 0.352618 -1.90972 0
M  V30 3535 C 328.364 0.217224 -3.4662 0
M  V30 3536 C 327.318 -0.654034 -4.22973 0
M  V30 3537 C 326.644 0.195589 -5.34342 0
M  V30 3538 C 327.944 -1.93447 -4.85155 0
M  V30 3539 H 329.638 -1.36238 -2.66608 0
M  V30 3540 H 327.184 -0.656534 -1.28163 0
M  V30 3541 H 329.137 0.548732 -4.17812 0
M  V30 3542 H 327.861 1.1125 -3.07068 0
M  V30 3543 H 326.52 -0.968693 -3.5357 0
M  V30 3544 H 326.168 1.09076 -4.91031 0
M  V30 3545 H 325.868 -0.384091 -5.86343 0
M  V30 3546 H 327.392 0.521958 -6.08365 0
M  V30 3547 H 328.806 -1.66908 -5.48466 0
M  V30 3548 H 327.203 -2.46018 -5.47353 0
M  V30 3549 H 328.273 -2.63466 -4.07079 0
M  V30 3550 N 329.616 1.39756 -0.72842 0
M  V30 3551 C 330.546 2.33289 -0.0991354 0
M  V30 3552 C 331.527 1.53568 0.731489 0
M  V30 3553 O 332.712 1.81987 0.677807 0
M  V30 3554 C 329.842 3.3763 0.813834 0
M  V30 3555 C 328.796 4.2791 0.0878663 0
M  V30 3556 C 328.122 5.22894 1.11741 0
M  V30 3557 C 329.422 5.11314 -1.06563 0
M  V30 3558 H 331.116 2.86163 -0.880408 0
M  V30 3559 H 328.662 1.37591 -0.424819 0
M  V30 3560 H 330.615 4.0201 1.26355 0
M  V30 3561 H 329.339 2.83181 1.62715 0
M  V30 3562 H 327.998 3.65 -0.342159 0
M  V30 3563 H 327.646 4.64744 1.92412 0
M  V30 3564 H 327.346 5.84143 0.636477 0
M  V30 3565 H 328.87 5.90151 1.56697 0
M  V30 3566 H 330.284 5.69076 -0.694671 0
M  V30 3567 H 328.681 5.81671 -1.47577 0
M  V30 3568 H 329.751 4.46534 -1.89038 0
M  V30 3569 N 331.094 0.475555 1.50254 0
M  V30 3570 C 332.51 0.12997 1.5907 0
M  V30 3571 C 332.71 -1.36385 1.48328 0
M  V30 3572 O 331.766 -2.13754 1.34407 0
M  V30 3573 C 333.079 0.684139 2.92814 0
M  V30 3574 C 334.627 0.647965 3.0622 0
M  V30 3575 C 335.102 1.17975 4.42545 0
M  V30 3576 N 336.593 1.13936 4.48969 0
M  V30 3577 C 337.328 1.52129 5.52851 0
M  V30 3578 N 336.824 1.97793 6.63965 0
M  V30 3579 N 338.617 1.43704 5.4342 0
M  V30 3580 H 330.768 1.44706 1.55479 0
M  V30 3581 H 333.031 0.598691 0.735033 0
M  V30 3582 H 332.737 1.73079 3.06164 0
M  V30 3583 H 332.611 0.130204 3.76975 0
M  V30 3584 H 334.998 -0.38979 2.92514 0
M  V30 3585 H 335.079 1.23876 2.23805 0
M  V30 3586 H 334.723 2.21616 4.57 0
M  V30 3587 H 334.653 0.565138 5.23559 0
M  V30 3588 H 337.144 0.804488 3.69238 0
M  V30 3589 H 337.457 2.25072 7.39299 0
M  V30 3590 H 335.802 2.01749 6.65073 0
M  V30 3591 H 338.993 1.07867 4.55502 0
M  V30 3592 H 339.166 1.73794 6.24259 0
M  V30 3593 N 332.573 -1.56217 0.208337 0
M  V30 3594 C 333.819 -1.98242 -0.427552 0
M  V30 3595 C 334.152 -1.09554 -1.60348 0
M  V30 3596 O 333.427 -0.15035 -1.93918 0
M  V30 3597 C 333.71 -3.4931 -0.874907 0
M  V30 3598 C 333.563 -4.48773 0.303751 0
M  V30 3599 C 334.882 -4.04424 -1.73577 0
M  V30 3600 H 332.001 -0.720744 -0.153936 0
M  V30 3601 H 334.643 -1.87586 0.30192 0
M  V30 3602 H 332.793 -3.58522 -1.49648 0
M  V30 3603 H 334.465 -4.51586 0.941682 0
M  V30 3604 H 332.708 -4.23194 0.953375 0
M  V30 3605 H 333.379 -5.51976 -0.0519883 0
M  V30 3606 H 335.855 -3.98075 -1.21143 0
M  V30 3607 H 334.731 -5.1047 -2.01771 0
M  V30 3608 H 334.992 -3.50494 -2.69456 0
M  V30 3609 N 334.051 0.0651679 -1.57465 0
M  V30 3610 C 334.999 1.09542 -2.05191 0
M  V30 3611 C 335.993 1.39675 -0.958509 0
M  V30 3612 O 337.199 1.39003 -1.14359 0
M  V30 3613 H 333.574 0.370623 -0.654326 0
M  V30 3614 H 335.545 0.666802 -2.90854 0
M  V30 3615 C 334.294 2.39881 -2.51699 0
M  V30 3616 H 333.617 2.17547 -3.3543 0
M  V30 3617 H 335.057 3.104 -2.88839 0
M  V30 3618 C 333.516 3.0631 -1.40271 0
M  V30 3619 O 334.046 3.94664 -0.748523 0
M  V30 3620 N 332.252 2.67041 -1.14618 0
M  V30 3621 H 331.799 1.95281 -1.67997 0
M  V30 3622 H 331.757 3.1181 -0.402688 0
M  V30 3623 N 335.529 1.53961 0.336706 0
M  V30 3624 C 336.459 1.85417 1.41925 0
M  V30 3625 C 337.44 0.709856 1.5458 0
M  V30 3626 O 338.625 0.962396 1.68676 0
M  V30 3627 C 335.755 2.06985 2.78881 0
M  V30 3628 C 334.709 3.22813 2.81026 0
M  V30 3629 C 334.035 3.29727 4.20932 0
M  V30 3630 C 335.335 4.60767 2.45949 0
M  V30 3631 H 337.029 2.76079 1.15848 0
M  V30 3632 H 334.575 1.32839 0.555859 0
M  V30 3633 H 336.528 2.27575 3.54665 0
M  V30 3634 H 335.252 1.13061 3.06406 0
M  V30 3635 H 333.911 3.0209 2.07695 0
M  V30 3636 H 333.559 2.33385 4.45579 0
M  V30 3637 H 333.259 4.07566 4.23277 0
M  V30 3638 H 334.783 3.52536 4.98549 0
M  V30 3639 H 336.197 4.81325 3.11446 0
M  V30 3640 H 334.594 5.4106 2.59566 0
M  V30 3641 H 335.664 4.6391 1.41122 0
M  V30 3642 N 337.007 -0.598083 1.45811 0
M  V30 3643 C 338.235 -1.38322 1.53866 0
M  V30 3644 C 338.65 -1.87992 0.174479 0
M  V30 3645 O 338.007 -1.62756 -0.825627 0
M  V30 3646 C 338.058 -2.58125 2.53089 0
M  V30 3647 O 337.779 -2.10516 3.84206 0
M  V30 3648 C 339.28 -3.50869 2.70935 0
M  V30 3649 H 336.5 -0.423093 0.520801 0
M  V30 3650 H 339.044 -0.728527 1.91083 0
M  V30 3651 H 337.199 -3.19615 2.18917 0
M  V30 3652 H 337.613 -2.88425 4.38077 0
M  V30 3653 H 339.087 -4.31451 3.44317 0
M  V30 3654 H 339.564 -4.01822 1.77301 0
M  V30 3655 H 340.17 -2.95225 3.06141 0
M  V30 3656 N 338.485 -1.33259 -0.841409 0
M  V30 3657 C 339.415 -1.25926 -1.96634 0
M  V30 3658 C 340.396 -0.140349 -1.6952 0
M  V30 3659 O 341.581 -0.329707 -1.91381 0
M  V30 3660 C 338.711 -0.99512 -3.32738 0
M  V30 3661 C 337.665 -2.0767 -3.74242 0
M  V30 3662 C 336.991 -1.66474 -5.08125 0
M  V30 3663 C 338.291 -3.49318 -3.88297 0
M  V30 3664 H 339.985 -2.20046 -2.03027 0
M  V30 3665 H 337.531 -1.05931 -0.975425 0
M  V30 3666 H 339.484 -0.930323 -4.11002 0
M  V30 3667 H 338.208 -0.0183004 -3.26595 0
M  V30 3668 H 336.867 -2.13187 -2.98239 0
M  V30 3669 H 336.515 -0.675012 -4.9845 0
M  V30 3670 H 336.215 -2.3885 -5.36865 0
M  V30 3671 H 337.739 -1.61455 -5.88867 0
M  V30 3672 H 339.153 -3.46316 -4.56879 0
M  V30 3673 H 337.55 -4.20158 -4.28471 0
M  V30 3674 H 338.62 -3.8801 -2.9082 0
M  V30 3675 N 339.963 1.05934 -1.16686 0
M  V30 3676 C 341.209 1.79211 -0.962023 0
M  V30 3677 C 341.564 1.85667 0.504545 0
M  V30 3678 O 340.857 1.33991 1.36956 0
M  V30 3679 C 341.051 3.23105 -1.52767 0
M  V30 3680 C 340.88 3.30673 -3.04771 0
M  V30 3681 C 339.65 3.40395 -3.73442 0
M  V30 3682 C 341.848 3.20234 -4.02436 0
M  V30 3683 N 339.83 3.37015 -5.13122 0
M  V30 3684 C 341.201 3.24138 -5.28521 0
M  V30 3685 C 343.256 3.04143 -3.9421 0
M  V30 3686 C 341.959 3.13607 -6.47336 0
M  V30 3687 C 343.985 2.94951 -5.12599 0
M  V30 3688 C 343.347 2.99481 -6.37566 0
M  V30 3689 H 339.446 0.668442 -0.405844 0
M  V30 3690 H 342.03 1.26341 -1.48142 0
M  V30 3691 H 340.201 3.74364 -1.03471 0
M  V30 3692 H 341.933 3.84579 -1.26021 0
M  V30 3693 H 338.688 3.45344 -3.2409 0
M  V30 3694 H 339.112 3.38815 -5.86117 0
M  V30 3695 H 343.754 2.99484 -2.98445 0
M  V30 3696 H 341.472 3.17022 -7.43319 0
M  V30 3697 H 345.058 2.83583 -5.08008 0
M  V30 3698 H 343.938 2.92431 -7.27636 0
M  V30 3699 N 341.441 0.965919 1.2453 0
M  V30 3700 C 342.669 0.644385 1.96609 0
M  V30 3701 C 343.084 -0.785823 1.71669 0
M  V30 3702 O 342.441 -1.52703 0.999399 0
M  V30 3703 C 342.492 0.907375 3.49927 0
M  V30 3704 O 342.213 2.28136 3.74013 0
M  V30 3705 C 343.714 0.599784 4.39224 0
M  V30 3706 H 340.934 0.240588 0.626385 0
M  V30 3707 H 343.478 1.29337 1.58405 0
M  V30 3708 H 341.633 0.304631 3.862 0
M  V30 3709 H 342.047 2.36002 4.68405 0
M  V30 3710 H 343.521 0.834263 5.45659 0
M  V30 3711 H 343.998 -0.465921 4.36722 0
M  V30 3712 H 344.604 1.18235 4.08535 0
M  V30 3713 N 342.919 -1.39368 0.735821 0
M  V30 3714 C 344.144 -2.05319 0.293052 0
M  V30 3715 C 344.569 -1.55115 -1.064 0
M  V30 3716 O 343.927 -0.695261 -1.67439 0
M  V30 3717 C 343.975 -3.59305 0.305323 0
M  V30 3718 O 343.079 -4.06299 -0.706761 0
M  V30 3719 H 342.42 -0.650529 0.13307 0
M  V30 3720 H 344.95 -1.78386 1.00197 0
M  V30 3721 H 344.96 -4.07724 0.149997 0
M  V30 3722 H 343.635 -3.95207 1.29553 0
M  V30 3723 H 342.212 -3.69292 -0.517504 0
M  V30 3724 N 344.397 -0.483516 -1.5 0
M  V30 3725 C 345.345 0.318061 -2.30415 0
M  V30 3726 C 346.339 0.978988 -1.38247 0
M  V30 3727 O 347.545 0.908673 -1.55381 0
M  V30 3728 H 343.92 0.121419 -0.742133 0
M  V30 3729 H 345.891 -0.380403 -2.95965 0
M  V30 3730 C 344.64 1.38013 -3.19136 0
M  V30 3731 H 343.963 0.880952 -3.89973 0
M  V30 3732 H 345.403 1.91332 -3.78375 0
M  V30 3733 C 343.862 2.38884 -2.37563 0
M  V30 3734 O 344.392 3.44412 -2.06744 0
M  V30 3735 N 342.598 2.10912 -1.99911 0
M  V30 3736 H 342.145 1.25118 -2.25174 0
M  V30 3737 H 342.103 2.78635 -1.45636 0
M  V30 3738 N 345.875 1.56104 -0.216619 0
M  V30 3739 C 347.1 2.0301 0.424462 0
M  V30 3740 C 347.525 1.0955 1.52907 0
M  V30 3741 O 346.883 0.0827914 1.81111 0
M  V30 3742 C 346.931 3.4819 0.937883 0
M  V30 3743 O 346.035 3.57865 2.04955 0
M  V30 3744 H 345.376 0.656925 0.0966755 0
M  V30 3745 H 347.906 2.01859 -0.33381 0
M  V30 3746 H 347.916 3.88413 1.24897 0
M  V30 3747 H 346.591 4.15699 0.129387 0
M  V30 3748 H 345.168 3.29527 1.74546 0
M  V30 3749 N 347.353 -0.0568162 1.57498 0
M  V30 3750 C 348.263 -1.08346 2.08083 0
M  V30 3751 C 349.279 -1.41439 1.01346 0
M  V30 3752 O 350.455 -1.51316 1.32912 0
M  V30 3753 C 347.52 -2.37352 2.52715 0
M  V30 3754 C 346.581 -2.11093 3.73816 0
M  V30 3755 C 345.814 -3.33949 4.1631 0
M  V30 3756 O 346.037 -4.43622 3.58547 0
M  V30 3757 O 344.971 -3.21279 5.08983 0
M  V30 3758 H 348.797 -0.683667 2.95905 0
M  V30 3759 H 346.382 -0.271965 1.46904 0
M  V30 3760 H 348.264 -3.13246 2.81877 0
M  V30 3761 H 346.939 -2.76681 1.68016 0
M  V30 3762 H 345.846 -1.32856 3.49714 0
M  V30 3763 H 347.179 -1.76637 4.59413 0
M  V30 3764 N 348.832 -1.54138 -0.328536 0
M  V30 3765 C 350.08 -1.71765 -1.06496 0
M  V30 3766 C 350.401 -0.49149 -1.88704 0
M  V30 3767 O 349.671 0.494539 -1.89555 0
M  V30 3768 H 348.251 -0.633295 -0.396164 0
M  V30 3769 H 350.913 -1.91429 -0.366176 0
M  V30 3770 H 350.009 -2.5951 -1.73381 0
M  V30 3771 N 350.31 0.590341 -1.46126 0
M  V30 3772 C 351.22 1.72793 -1.58681 0
M  V30 3773 C 352.236 1.67516 -0.470566 0
M  V30 3774 O 353.412 1.87562 -0.733642 0
M  V30 3775 C 350.477 3.09287 -1.5666 0
M  V30 3776 C 349.538 3.25886 -2.79458 0
M  V30 3777 C 348.771 4.55869 -2.77524 0
M  V30 3778 O 348.994 5.3928 -1.85832 0
M  V30 3779 O 347.928 4.75552 -3.68964 0
M  V30 3780 H 351.754 1.65149 -2.54872 0
M  V30 3781 H 349.339 0.756486 -1.28832 0
M  V30 3782 H 351.221 3.90577 -1.58202 0
M  V30 3783 H 349.896 3.17385 -0.636271 0
M  V30 3784 H 348.803 2.44119 -2.83472 0
M  V30 3785 H 350.136 3.22675 -3.71674 0
M  V30 3786 N 351.788 1.33704 0.83433 0
M  V30 3787 C 352.735 1.24335 1.94447 0
M  V30 3788 C 353.705 0.120991 1.65659 0
M  V30 3789 O 354.89 0.300035 1.88426 0
M  V30 3790 C 352.03 0.993124 3.30501 0
M  V30 3791 C 351.143 2.20217 3.71657 0
M  V30 3792 C 350.278 1.88572 4.96602 0
M  V30 3793 C 349.317 3.05683 5.30306 0
M  V30 3794 N 348.454 2.73997 6.46429 0
M  V30 3795 H 353.294 2.1928 2.01792 0
M  V30 3796 H 350.831 1.09035 0.987404 0
M  V30 3797 H 352.789 0.828467 4.08892 0
M  V30 3798 H 351.419 0.0803902 3.227 0
M  V30 3799 H 350.471 2.47642 2.88752 0
M  V30 3800 H 351.783 3.07752 3.92543 0
M  V30 3801 H 350.937 1.68776 5.82752 0
M  V30 3802 H 349.676 0.982799 4.77695 0
M  V30 3803 H 348.681 3.26088 4.42659 0
M  V30 3804 H 349.906 3.96737 5.51159 0
M  V30 3805 H 347.852 1.86268 6.28999 0
M  V30 3806 H 347.769 3.55064 6.67432 0
M  V30 3807 H 349.037 2.57679 7.35678 0
M  V30 3808 N 353.266 -1.05314 1.17247 0
M  V30 3809 C 354.543 -1.75184 0.87005 0
M  V30 3810 C 354.923 -2.01481 -0.629965 0
M  V30 3811 O 354.271 -1.64988 -1.58086 0
M  V30 3812 C 354.481 -3.04594 1.70363 0
M  V30 3813 C 355.829 -3.78567 1.92281 0
M  V30 3814 O 356.853 -3.14461 1.67311 0
M  V30 3815 O 355.712 -4.93755 2.3424 0
M  V30 3816 H 352.806 -0.761729 0.322021 0
M  V30 3817 H 355.352 -1.11493 1.27935 0
M  V30 3818 H 354.124 -2.81201 2.72106 0
M  V30 3819 H 353.747 -3.76022 1.29202 0
M  V30 3820 N 354.744 -0.972509 -1.24016 0
M  V30 3821 C 355.972 -0.654803 -1.96265 0
M  V30 3822 C 356.387 0.776708 -1.72083 0
M  V30 3823 O 355.744 1.52171 -1.00748 0
M  V30 3824 C 355.795 -0.92592 -3.49441 0
M  V30 3825 O 355.516 -2.30116 -3.72798 0
M  V30 3826 C 357.017 -0.623068 -4.38899 0
M  V30 3827 H 354.237 -0.243907 -0.6251 0
M  V30 3828 H 356.781 -1.30175 -1.57717 0
M  V30 3829 H 354.936 -0.325108 -3.86033 0
M  V30 3830 H 355.35 -2.38483 -4.67147 0
M  V30 3831 H 356.824 -0.863189 -5.45209 0
M  V30 3832 H 357.301 0.442754 -4.36963 0
M  V30 3833 H 357.907 -1.204 -4.07902 0
M  V30 3834 N 356.222 1.38976 -0.743202 0
M  V30 3835 C 357.185 2.28901 -0.117014 0
M  V30 3836 C 358.185 1.46698 0.658503 0
M  V30 3837 O 359.375 1.67274 0.486305 0
M  V30 3838 C 356.507 3.30309 0.84315 0
M  V30 3839 H 357.7 2.8578 -0.909373 0
M  V30 3840 H 355.253 1.47761 -0.509547 0
M  V30 3841 H 355.988 2.785 1.66157 0
M  V30 3842 H 355.773 3.91029 0.289594 0
M  V30 3843 H 357.263 3.97577 1.2776 0
M  V30 3844 N 357.7 0.491464 1.49741 0
M  V30 3845 C 358.925 -0.0557177 2.07325 0
M  V30 3846 C 359.35 -1.30925 1.35056 0
M  V30 3847 O 358.708 -1.76733 0.404365 0
M  V30 3848 C 358.756 -0.302074 3.59333 0
M  V30 3849 O 357.86 -1.37868 3.88672 0
M  V30 3850 H 357.201 0.0219956 0.663636 0
M  V30 3851 H 359.731 0.688352 1.92673 0
M  V30 3852 H 359.741 -0.536464 4.04458 0
M  V30 3853 H 358.416 0.61383 4.11345 0
M  V30 3854 H 356.993 -1.12999 3.55367 0
M  V30 3855 N 359.178 -1.55987 0.224894 0
M  V30 3856 C 360.141 -2.19178 -0.670348 0
M  V30 3857 C 361.141 -1.15461 -1.11917 0
M  V30 3858 O 362.331 -1.40675 -1.02743 0
M  V30 3859 C 359.463 -2.81777 -1.9187 0
M  V30 3860 H 360.656 -2.99662 -0.119364 0
M  V30 3861 H 358.209 -1.5628 -0.0247128 0
M  V30 3862 H 358.944 -2.05172 -2.51147 0
M  V30 3863 H 358.729 -3.57732 -1.60531 0
M  V30 3864 H 360.219 -3.30205 -2.55645 0
M  V30 3865 N 360.656 0.0484629 -1.57525 0
M  V30 3866 C 361.603 1.05504 -2.05275 0
M  V30 3867 C 362.573 1.37084 -0.937927 0
M  V30 3868 O 363.758 1.47754 -1.2072 0
M  V30 3869 C 360.898 2.35676 -2.52093 0
M  V30 3870 C 360.011 2.10423 -3.77288 0
M  V30 3871 C 359.146 3.34327 -4.12794 0
M  V30 3872 C 358.185 3.04542 -5.30962 0
M  V30 3873 N 357.322 4.20841 -5.61994 0
M  V30 3874 H 362.162 0.640885 -2.91027 0
M  V30 3875 H 359.699 0.304854 -1.43906 0
M  V30 3876 H 361.657 3.11709 -2.77297 0
M  V30 3877 H 360.287 2.7485 -1.69285 0
M  V30 3878 H 359.339 1.24976 -3.59284 0
M  V30 3879 H 360.651 1.84438 -4.63448 0
M  V30 3880 H 359.805 4.1874 -4.39024 0
M  V30 3881 H 358.544 3.63408 -3.25247 0
M  V30 3882 H 357.549 2.18528 -5.04505 0
M  V30 3883 H 358.774 2.76758 -6.20146 0
M  V30 3884 H 356.72 4.4991 -4.77406 0
M  V30 3885 H 356.637 3.98212 -6.42622 0
M  V30 3886 H 357.905 5.06184 -5.92789 0
M  V30 3887 N 362.134 1.5431 0.320358 0
M  V30 3888 C 363.382 1.72327 1.05583 0
M  V30 3889 C 363.703 0.50149 1.88441 0
M  V30 3890 O 362.973 -0.48448 1.89815 0
M  V30 3891 H 361.553 0.635387 0.3928 0
M  V30 3892 H 364.215 1.91621 0.356019 0
M  V30 3893 H 363.311 2.60426 1.72003 0
M  V30 3894 N 363.613 -0.582584 1.46437 0
M  V30 3895 C 364.89 -1.34276 1.4223 0
M  V30 3896 C 365.27 -2.10835 0.10583 0
M  V30 3897 O 364.618 -2.09485 -0.912596 0
M  V30 3898 C 364.828 -2.26865 2.65204 0
M  V30 3899 C 366.176 -2.88691 3.11356 0
M  V30 3900 O 367.2 -2.37178 2.65753 0
M  V30 3901 O 366.059 -3.82255 3.90568 0
M  V30 3902 H 363.153 -0.603326 0.565621 0
M  V30 3903 H 365.699 -0.603591 1.58603 0
M  V30 3904 H 364.471 -1.69724 3.52576 0
M  V30 3905 H 364.094 -3.08122 2.5129 0
M  V30 3906 N 365.091 -1.34144 -0.827227 0
M  V30 3907 C 366.038 -1.25364 -1.93785 0
M  V30 3908 C 367.008 -0.129774 -1.65592 0
M  V30 3909 O 368.193 -0.310024 -1.88264 0
M  V30 3910 C 365.333 -1.01064 -3.2997 0
M  V30 3911 C 364.446 -2.22185 -3.70484 0
M  V30 3912 C 363.581 -1.91203 -4.95595 0
M  V30 3913 C 362.62 -3.08491 -5.28677 0
M  V30 3914 N 361.757 -2.77421 -6.44967 0
M  V30 3915 H 366.597 -2.20347 -2.00627 0
M  V30 3916 H 364.134 -1.09558 -0.981608 0
M  V30 3917 H 366.092 -0.850139 -4.08446 0
M  V30 3918 H 364.722 -0.0975026 -3.22653 0
M  V30 3919 H 363.774 -2.4917 -2.87434 0
M  V30 3920 H 365.086 -3.0983 -3.90905 0
M  V30 3921 H 364.24 -1.71864 -5.81848 0
M  V30 3922 H 362.979 -1.00812 -4.77167 0
M  V30 3923 H 361.984 -3.28431 -4.40923 0
M  V30 3924 H 363.209 -3.99655 -5.49047 0
M  V30 3925 H 361.155 -1.89601 -6.28003 0
M  V30 3926 H 361.072 -3.58598 -6.6554 0
M  V30 3927 H 362.34 -2.61577 -7.34301 0
M  V30 3928 N 366.569 1.04691 -1.17803 0
M  V30 3929 C 367.516 2.12557 -0.899343 0
M  V30 3930 C 368.486 1.65339 0.158771 0
M  V30 3931 O 369.671 1.90789 0.0204797 0
M  V30 3932 C 366.811 3.42481 -0.424315 0
M  V30 3933 C 365.924 4.03346 -1.54713 0
M  V30 3934 C 365.059 5.21208 -1.02546 0
M  V30 3935 C 364.098 5.74089 -2.12339 0
M  V30 3936 N 363.235 6.83247 -1.61612 0
M  V30 3937 H 368.075 2.35734 -1.823 0
M  V30 3938 H 365.612 1.1564 -0.909159 0
M  V30 3939 H 367.57 4.16996 -0.130421 0
M  V30 3940 H 366.2 3.19471 0.462377 0
M  V30 3941 H 365.252 3.2622 -1.95664 0
M  V30 3942 H 366.564 4.38628 -2.37501 0
M  V30 3943 H 365.718 6.02812 -0.685718 0
M  V30 3944 H 364.457 4.87414 -0.167084 0
M  V30 3945 H 363.462 4.91111 -2.47165 0
M  V30 3946 H 364.687 6.0993 -2.98601 0
M  V30 3947 H 362.633 6.5134 -0.780533 0
M  V30 3948 H 362.55 7.17559 -2.38003 0
M  V30 3949 H 363.818 7.68491 -1.30545 0
M  V30 3950 O 368.086 1.10799 1.17498 0
M  V30 3951 H 368.777 0.811108 1.759 0
M  V30 END ATOM
M  V30 BEGIN BOND
M  V30 END BOND
M  V30 END CTAB
M  END
$$$$
