drugbank_target|P27707 Deoxycytidine kinase (DB01073; DB02594; DB05494)
 OpenBabel12092120253D

  0  0  0     0  0            999 V3000
M  V30 BEGIN CTAB
M  V30 COUNTS 4235 4287 0 0 0
M  V30 BEGIN ATOM
M  V30 1 H -0.908 1.98254 -0.117106 0
M  V30 2 N 0 1.576 0 0
M  V30 3 C 0.933 2.03868 1.02534 0
M  V30 4 C 1.911 0.928543 1.3348 0
M  V30 5 O 3.095 1.19667 1.45644 0
M  V30 6 C 0.222 2.43627 2.35294 0
M  V30 7 C -0.732 3.65373 2.2001 0
M  V30 8 S 0.101 5.13292 1.52614 0
M  V30 9 C 1.257 5.56322 2.86805 0
M  V30 10 H 1.49 2.90518 0.631377 0
M  V30 11 H -0.977 1.52953 0.210867 0
M  V30 12 H 0.981 2.67203 3.11629 0
M  V30 13 H -0.358 1.57376 2.7183 0
M  V30 14 H -1.165 3.90944 3.18086 0
M  V30 15 H -1.563 3.418 1.51819 0
M  V30 16 H 0.729 5.58782 3.83104 0
M  V30 17 H 1.672 6.56266 2.65933 0
M  V30 18 H 2.08 4.83886 2.90714 0
M  V30 19 N 1.4781 -0.272755 1.55222 0
M  V30 20 C 2.4411 -1.32041 1.87344 0
M  V30 21 C 3.4411 -1.42342 0.74803 0
M  V30 22 O 4.6311 -1.41488 1.0162 0
M  V30 23 C 1.7631 -2.70173 2.07893 0
M  V30 24 H 2.9561 -1.04789 2.80997 0
M  V30 25 H 0.5091 -0.51083 1.47717 0
M  V30 26 H 1.2441 -3.02605 1.16622 0
M  V30 27 H 1.0291 -2.64082 2.89833 0
M  V30 28 H 2.5191 -3.45869 2.34017 0
M  V30 29 N 2.9562 -1.48159 -0.537278 0
M  V30 30 C 4.1842 -1.59454 -1.31841 0
M  V30 31 C 4.5992 -0.252065 -1.8711 0
M  V30 32 O 3.9562 0.757621 -1.66031 0
M  V30 33 C 4.0072 -2.63546 -2.47439 0
M  V30 34 O 3.7282 -3.92583 -1.94449 0
M  V30 35 C 5.2292 -2.85212 -3.39366 0
M  V30 36 H 2.4492 -0.53785 -0.401196 0
M  V30 37 H 4.9932 -1.93932 -0.648891 0
M  V30 38 H 3.1482 -2.31946 -3.1029 0
M  V30 39 H 3.5622 -4.49629 -2.70063 0
M  V30 40 H 5.0362 -3.61863 -4.16844 0
M  V30 41 H 5.5132 -1.93765 -3.94147 0
M  V30 42 H 6.1192 -3.18086 -2.82314 0
M  V30 43 N 4.4343 0.785586 -1.36625 0
M  V30 44 C 5.8453 1.36101 -1.27803 0
M  V30 45 C 6.1963 1.96035 0.0804875 0
M  V30 46 O 5.3213 1.92834 0.982042 0
M  V30 47 C 5.9163 2.47442 -2.31426 0
M  V30 48 C 4.4753 3.00789 -2.26281 0
M  V30 49 C 3.6223 1.73896 -2.15999 0
M  V30 50 H 6.5733 0.586928 -1.47448 0
M  V30 51 H 6.5943 3.2656 -1.95291 0
M  V30 52 H 6.1063 2.03791 -3.30289 0
M  V30 53 H 4.2073 3.48851 -1.30896 0
M  V30 54 H 4.3203 3.57343 -3.19128 0
M  V30 55 H 2.6843 1.9628 -1.62316 0
M  V30 56 H 3.4673 1.32368 -3.16755 0
M  V30 57 N 5.9124 1.20967 1.01018 0
M  V30 58 C 7.3234 1.02319 1.56165 0
M  V30 59 C 7.6744 -0.418546 1.91684 0
M  V30 60 O 6.7994 -1.30096 1.72928 0
M  V30 61 C 7.3944 1.85109 2.8376 0
M  V30 62 C 5.9534 1.70809 3.35412 0
M  V30 63 C 5.1004 1.82643 2.08655 0
M  V30 64 H 8.0514 1.35065 0.833255 0
M  V30 65 H 8.0724 1.35827 3.55431 0
M  V30 66 H 7.5844 2.90035 2.57878 0
M  V30 67 H 5.6854 0.685464 3.66241 0
M  V30 68 H 5.7984 2.52467 4.07182 0
M  V30 69 H 4.1624 1.25896 2.21409 0
M  V30 70 H 4.9454 2.89066 1.85191 0
M  V30 71 N 7.3905 -1.2043 1.01659 0
M  V30 72 C 8.3375 -2.23215 0.586822 0
M  V30 73 C 9.3075 -1.61382 -0.393085 0
M  V30 74 O 10.4925 -1.88544 -0.292525 0
M  V30 75 C 7.6325 -3.45032 -0.0687464 0
M  V30 76 C 6.7455 -4.21296 0.955724 0
M  V30 77 C 5.8805 -5.30507 0.271208 0
M  V30 78 C 4.9195 -5.98515 1.28244 0
M  V30 79 N 4.0565 -6.99316 0.62459 0
M  V30 80 H 8.8965 -2.59336 1.46796 0
M  V30 81 H 6.4335 -1.27431 0.734836 0
M  V30 82 H 8.3915 -4.1459 -0.465965 0
M  V30 83 H 7.0215 -3.09604 -0.913529 0
M  V30 84 H 6.0735 -3.50803 1.4711 0
M  V30 85 H 7.3855 -4.6803 1.72479 0
M  V30 86 H 6.5395 -6.06428 -0.18151 0
M  V30 87 H 5.2785 -4.8481 -0.530163 0
M  V30 88 H 4.2835 -5.21355 1.74554 0
M  V30 89 H 5.5085 -6.46298 2.08509 0
M  V30 90 H 3.4545 -6.55812 -0.156914 0
M  V30 91 H 3.3715 -7.44178 1.33172 0
M  V30 92 H 4.6395 -7.79255 0.195462 0
M  V30 93 N 8.8686 -0.792821 -1.36206 0
M  V30 94 C 10.2846 -0.474903 -1.52371 0
M  V30 95 C 10.4846 1.00622 -1.74578 0
M  V30 96 O 9.5406 1.79162 -1.77924 0
M  V30 97 C 10.8536 -1.3083 -2.70747 0
M  V30 98 C 12.4016 -1.30234 -2.84619 0
M  V30 99 C 12.8766 -2.11956 -4.06004 0
M  V30 100 N 14.3676 -2.09419 -4.13156 0
M  V30 101 C 15.1026 -2.69419 -5.06163 0
M  V30 102 N 14.5986 -3.3829 -6.04592 0
M  V30 103 N 16.3916 -2.59134 -4.98804 0
M  V30 104 H 8.5426 -1.75222 -1.20046 0
M  V30 105 H 10.8056 -0.745024 -0.586211 0
M  V30 106 H 10.5116 -2.35881 -2.6087 0
M  V30 107 H 10.3856 -0.95196 -3.6499 0
M  V30 108 H 12.7726 -0.259748 -2.93955 0
M  V30 109 H 12.8536 -1.69847 -1.91274 0
M  V30 110 H 12.4976 -3.16248 -3.97429 0
M  V30 111 H 12.4276 -1.69711 -4.98503 0
M  V30 112 H 14.9186 -1.59297 -3.42685 0
M  V30 113 H 15.2316 -3.81394 -6.7213 0
M  V30 114 H 13.5766 -3.42393 -6.04807 0
M  V30 115 H 16.7676 -2.04927 -4.20859 0
M  V30 116 H 16.9406 -3.06185 -5.711 0
M  V30 117 N 10.3467 1.47872 -0.545128 0
M  V30 118 C 11.5717 2.07391 -0.0190611 0
M  V30 119 C 11.9967 1.39688 1.25971 0
M  V30 120 O 11.3547 0.467816 1.7516 0
M  V30 121 C 11.4027 3.60188 0.172335 0
M  V30 122 O 10.5067 3.9339 1.23766 0
M  V30 123 H 9.8477 0.662411 -0.0459059 0
M  V30 124 H 12.3777 1.90066 -0.757365 0
M  V30 125 H 12.3877 4.06129 0.390305 0
M  V30 126 H 11.0627 4.08865 -0.761725 0
M  V30 127 H 9.6397 3.5921 1.00114 0
M  V30 128 N 11.8248 0.280983 1.55075 0
M  V30 129 C 13.0648 -0.335234 2.01632 0
M  V30 130 C 13.4288 -1.5261 1.16508 0
M  V30 131 O 14.6298 -2.21235 1.52672 0
M  V30 132 C 12.9008 -0.702172 3.50434 0
M  V30 133 S 14.4598 -1.30409 4.18974 0
M  V30 134 H 11.2778 -0.103967 0.703358 0
M  V30 135 H 13.8798 0.404187 1.91276 0
M  V30 136 H 12.5838 0.17333 4.10034 0
M  V30 137 H 12.1148 -1.4729 3.64786 0
M  V30 138 H 14.1298 -2.59253 4.23087 0
M  V30 139 N 13.3029 -1.57598 0.00835791 0
M  V30 140 C 14.7139 -1.7892 -0.53333 0
M  V30 141 C 15.0649 -0.916609 -1.73473 0
M  V30 142 O 14.1899 -0.121336 -2.1606 0
M  V30 143 C 14.7849 -3.24488 -0.974313 0
M  V30 144 C 13.3439 -3.46878 -1.46125 0
M  V30 145 C 12.4909 -2.74157 -0.416302 0
M  V30 146 H 15.4419 -1.56958 0.234495 0
M  V30 147 H 15.4629 -3.3306 -1.83988 0
M  V30 148 H 14.9749 -3.87972 -0.099718 0
M  V30 149 H 13.0759 -2.8862 -2.35646 0
M  V30 150 H 13.1889 -4.55572 -1.48295 0
M  V30 151 H 11.5529 -2.39022 -0.87981 0
M  V30 152 H 12.3359 -3.40345 0.44947 0
M  V30 153 N 14.781 0.264519 -1.55364 0
M  V30 154 C 16.006 1.01726 -1.80739 0
M  V30 155 C 16.431 1.78836 -0.583044 0
M  V30 156 O 15.789 1.75167 0.467566 0
M  V30 157 C 15.837 1.94482 -3.03659 0
M  V30 158 O 14.941 3.03386 -2.7934 0
M  V30 159 H 14.282 0.290395 -0.597132 0
M  V30 160 H 16.812 0.290854 -2.02522 0
M  V30 161 H 16.822 2.36278 -3.32621 0
M  V30 162 H 15.497 1.37772 -3.92418 0
M  V30 163 H 14.074 2.65844 -2.61498 0
M  V30 164 N 16.2591 1.48442 0.529413 0
M  V30 165 C 17.5061 1.56488 1.28521 0
M  V30 166 C 17.8341 0.239042 1.93025 0
M  V30 167 O 17.0891 -0.770713 1.79885 0
M  V30 168 C 17.3881 2.6523 2.39558 0
M  V30 169 C 17.0541 4.07648 1.92702 0
M  V30 170 C 15.7161 4.46411 1.79641 0
M  V30 171 C 18.0681 4.96896 1.573 0
M  V30 172 C 15.3961 5.72226 1.29514 0
M  V30 173 C 17.7481 6.23202 1.08636 0
M  V30 174 C 16.4121 6.60821 0.941919 0
M  V30 175 H 15.6821 0.572631 0.470292 0
M  V30 176 H 18.3291 1.82161 0.59072 0
M  V30 177 H 16.6341 2.33419 3.14679 0
M  V30 178 H 18.3311 2.68671 2.97686 0
M  V30 179 H 14.9211 3.77036 2.03819 0
M  V30 180 H 19.1051 4.67626 1.66251 0
M  V30 181 H 14.3611 6.00097 1.17019 0
M  V30 182 H 18.5351 6.91753 0.803136 0
M  V30 183 H 16.1621 7.58198 0.5513 0
M  V30 184 N 17.7372 -0.778329 1.37039 0
M  V30 185 C 18.9622 -1.57248 1.35233 0
M  V30 186 C 19.3872 -1.87999 -0.0615568 0
M  V30 187 O 18.7452 -1.48734 -1.03672 0
M  V30 188 C 18.7932 -2.86353 2.19167 0
M  V30 189 O 17.8972 -3.80442 1.59178 0
M  V30 190 H 17.2382 -0.476569 0.462362 0
M  V30 191 H 19.7682 -0.963853 1.80474 0
M  V30 192 H 19.7782 -3.35519 2.32145 0
M  V30 193 H 18.4532 -2.63299 3.21942 0
M  V30 194 H 17.0302 -3.39067 1.55203 0
M  V30 195 N 19.2153 -1.21501 -1.00376 0
M  V30 196 C 20.1783 -0.976927 -2.07337 0
M  V30 197 C 21.1783 0.0525322 -1.60714 0
M  V30 198 O 22.3683 -0.184869 -1.73216 0
M  V30 199 C 19.5003 -0.473423 -3.37597 0
M  V30 200 H 20.6933 -1.92587 -2.29892 0
M  V30 201 H 18.2463 -1.03217 -1.17371 0
M  V30 202 H 18.9813 0.480379 -3.20722 0
M  V30 203 H 18.7663 -1.216 -3.72768 0
M  V30 204 H 20.2563 -0.32675 -4.1632 0
M  V30 205 N 20.6934 1.19889 -1.02296 0
M  V30 206 C 21.9184 1.9393 -0.735237 0
M  V30 207 C 22.3434 1.74639 0.698782 0
M  V30 208 O 21.7014 1.04481 1.48167 0
M  V30 209 C 21.7494 3.43916 -1.08417 0
M  V30 210 O 20.8534 4.11917 -0.199446 0
M  V30 211 H 20.1944 0.605645 -0.272196 0
M  V30 212 H 22.7244 1.52137 -1.36804 0
M  V30 213 H 22.7344 3.9456 -1.03856 0
M  V30 214 H 21.4094 3.5728 -2.12894 0
M  V30 215 H 19.9864 3.71666 -0.303136 0
M  V30 216 N 22.1715 0.800033 1.35784 0
M  V30 217 C 23.3965 0.388511 2.03729 0
M  V30 218 C 23.8215 -0.990481 1.5991 0
M  V30 219 O 23.1795 -1.64013 0.772612 0
M  V30 220 C 23.2275 0.4726 3.5749 0
M  V30 221 O 22.3315 -0.51646 4.09153 0
M  V30 222 H 21.6725 0.163271 0.643614 0
M  V30 223 H 24.2025 1.0841 1.73518 0
M  V30 224 H 24.2125 0.34003 4.06581 0
M  V30 225 H 22.8875 1.47848 3.88734 0
M  V30 226 H 21.4645 -0.344673 3.71304 0
M  V30 227 N 23.6496 -1.47581 0.552962 0
M  V30 228 C 24.5596 -2.33743 -0.200353 0
M  V30 229 C 25.5756 -1.47928 -0.916151 0
M  V30 230 O 26.7516 -1.80865 -0.885993 0
M  V30 231 C 23.8166 -3.24536 -1.21973 0
M  V30 232 C 22.8776 -4.26238 -0.511819 0
M  V30 233 C 22.1106 -5.12693 -1.48263 0
M  V30 234 O 22.3336 -5.01525 -2.71714 0
M  V30 235 O 21.2676 -5.93375 -1.00945 0
M  V30 236 H 25.0936 -2.9945 0.506304 0
M  V30 237 H 22.6786 -1.46071 0.313622 0
M  V30 238 H 24.5606 -3.80631 -1.80827 0
M  V30 239 H 23.2356 -2.61462 -1.90839 0
M  V30 240 H 22.1426 -3.73914 0.117799 0
M  V30 241 H 23.4756 -4.92014 0.135308 0
M  V30 242 N 25.1277 -0.289203 -1.54924 0
M  V30 243 C 26.3757 0.322879 -1.99504 0
M  V30 244 C 26.6967 1.55313 -1.1791 0
M  V30 245 O 25.9667 1.94001 -0.272097 0
M  V30 246 H 24.5467 0.122291 -0.736922 0
M  V30 247 H 27.2087 -0.397802 -1.90797 0
M  V30 248 H 26.3047 0.603061 -3.06218 0
M  V30 249 N 26.6058 1.57591 -0.0167156 0
M  V30 250 C 27.8338 1.95575 0.675128 0
M  V30 251 C 28.2488 0.892542 1.6637 0
M  V30 252 O 27.6058 -0.126912 1.82058 0
M  V30 253 C 27.6568 3.33608 1.39239 0
M  V30 254 O 27.3778 4.3585 0.443444 0
M  V30 255 C 28.8788 3.86151 2.17721 0
M  V30 256 H 26.0988 0.644423 0.186978 0
M  V30 257 H 28.6428 2.0437 -0.0728 0
M  V30 258 H 26.7978 3.2607 2.09182 0
M  V30 259 H 27.2118 5.158 0.951358 0
M  V30 260 H 28.6858 4.85114 2.63379 0
M  V30 261 H 29.1628 3.19738 3.01105 0
M  V30 262 H 29.7688 3.96918 1.52761 0
M  V30 263 N 28.0839 -0.256276 1.55502 0
M  V30 264 C 29.4999 -0.604325 1.47716 0
M  V30 265 C 29.6999 -1.88763 0.705039 0
M  V30 266 O 28.7559 -2.51445 0.230613 0
M  V30 267 C 30.0689 -0.715756 2.92057 0
M  V30 268 C 31.6169 -0.808706 3.02372 0
M  V30 269 C 32.0919 -0.951777 4.48001 0
M  V30 270 N 33.5829 -1.01688 4.519 0
M  V30 271 C 34.3179 -1.14668 5.61817 0
M  V30 272 N 33.8139 -1.24261 6.81565 0
M  V30 273 N 35.6069 -1.1791 5.49594 0
M  V30 274 H 27.7579 0.586291 2.04148 0
M  V30 275 H 30.0209 0.201015 0.926443 0
M  V30 276 H 29.7269 0.157027 3.51349 0
M  V30 277 H 29.6009 -1.59071 3.42018 0
M  V30 278 H 31.9879 -1.67195 2.43166 0
M  V30 279 H 32.0689 0.0912063 2.55637 0
M  V30 280 H 31.7129 -0.0931291 5.07815 0
M  V30 281 H 31.6429 -1.86659 4.92408 0
M  V30 282 H 34.1339 -0.954468 3.65648 0
M  V30 283 H 34.4469 -1.34046 7.61086 0
M  V30 284 H 32.7919 -1.21236 6.84344 0
M  V30 285 H 35.9829 -1.10057 4.54978 0
M  V30 286 H 36.1559 -1.27681 6.35296 0
M  V30 287 N 29.562 -1.4872 -0.521534 0
M  V30 288 C 30.811 -1.56419 -1.27341 0
M  V30 289 C 31.124 -0.246805 -1.94037 0
M  V30 290 O 32.33 -0.202122 -2.70747 0
M  V30 291 C 30.786 -2.75896 -2.31105 0
M  V30 292 C 30.394 -4.14311 -1.70441 0
M  V30 293 C 32.138 -2.92913 -3.07249 0
M  V30 294 C 30.045 -5.25038 -2.72194 0
M  V30 295 H 28.975 -0.582344 -0.478949 0
M  V30 296 H 31.626 -1.75071 -0.549779 0
M  V30 297 H 30.008 -2.50697 -3.06541 0
M  V30 298 H 31.182 -4.49564 -1.01136 0
M  V30 299 H 29.497 -4.02482 -1.06759 0
M  V30 300 H 32.094 -3.72805 -3.83302 0
M  V30 301 H 32.437 -2.02689 -3.63625 0
M  V30 302 H 32.97 -3.18054 -2.38928 0
M  V30 303 H 29.709 -6.17255 -2.20627 0
M  V30 304 H 29.229 -4.94263 -3.39801 0
M  V30 305 H 30.908 -5.53508 -3.35019 0
M  V30 306 N 31.0401 0.771051 -1.3745 0
M  V30 307 C 31.9871 1.88435 -1.3327 0
M  V30 308 C 32.9571 1.64914 -0.198136 0
M  V30 309 O 34.1421 1.86821 -0.387606 0
M  V30 310 C 31.2821 3.25509 -1.14622 0
M  V30 311 C 30.3951 3.60979 -2.37314 0
M  V30 312 C 29.5301 4.87265 -2.11533 0
M  V30 313 C 28.5691 5.15469 -3.30088 0
M  V30 314 N 27.7061 6.32944 -3.03853 0
M  V30 315 H 32.5461 1.91344 -2.28455 0
M  V30 316 H 30.0831 0.935466 -1.13523 0
M  V30 317 H 32.0411 4.04582 -1.01831 0
M  V30 318 H 30.6711 3.21974 -0.230837 0
M  V30 319 H 29.7231 2.76885 -2.60842 0
M  V30 320 H 31.0351 3.77759 -3.25729 0
M  V30 321 H 30.1891 5.74244 -1.95777 0
M  V30 322 H 28.9281 4.7259 -1.20457 0
M  V30 323 H 27.9331 4.26966 -3.46382 0
M  V30 324 H 29.1581 5.32052 -4.22016 0
M  V30 325 H 27.1041 6.19625 -2.15407 0
M  V30 326 H 27.0211 6.50143 -3.85812 0
M  V30 327 H 28.2891 7.22857 -2.91716 0
M  V30 328 N 32.5182 1.22032 0.997298 0
M  V30 329 C 33.4652 0.986467 2.08656 0
M  V30 330 C 34.4352 -0.0902671 1.65855 0
M  V30 331 O 35.6202 0.0584294 1.90711 0
M  V30 332 C 32.7602 0.565569 3.40434 0
M  V30 333 C 31.8732 1.71259 3.96604 0
M  V30 334 C 31.0082 1.24011 5.16522 0
M  V30 335 C 30.0472 2.35896 5.64818 0
M  V30 336 N 29.1842 1.89726 6.7598 0
M  V30 337 H 34.0242 1.91892 2.27994 0
M  V30 338 H 31.5612 0.956199 1.11782 0
M  V30 339 H 33.5192 0.302738 4.161 0
M  V30 340 H 32.1492 -0.329879 3.2111 0
M  V30 341 H 31.2012 2.08986 3.17851 0
M  V30 342 H 32.5132 2.55436 4.28432 0
M  V30 343 H 31.6672 0.934395 5.99461 0
M  V30 344 H 30.4062 0.368487 4.86306 0
M  V30 345 H 29.4112 2.67261 4.8047 0
M  V30 346 H 30.6362 3.23567 5.97061 0
M  V30 347 H 28.5822 1.0492 6.47555 0
M  V30 348 H 28.4992 2.67471 7.07103 0
M  V30 349 H 29.7672 1.62211 7.62435 0
M  V30 350 N 33.9963 -1.19345 1.0293 0
M  V30 351 C 35.2453 -1.88363 0.721256 0
M  V30 352 C 35.5583 -1.80514 -0.753254 0
M  V30 353 O 36.7643 -2.44788 -1.17436 0
M  V30 354 C 35.2203 -3.37872 1.23978 0
M  V30 355 C 34.8283 -3.54278 2.74211 0
M  V30 356 C 36.5723 -4.12365 1.00775 0
M  V30 357 C 34.4793 -4.97682 3.19479 0
M  V30 358 H 33.4093 -0.705484 0.266098 0
M  V30 359 H 36.0603 -1.34928 1.24365 0
M  V30 360 H 34.4423 -3.90707 0.6453 0
M  V30 361 H 35.6163 -3.11769 3.39318 0
M  V30 362 H 33.9313 -2.93174 2.95699 0
M  V30 363 H 36.5283 -5.18119 1.32123 0
M  V30 364 H 36.8713 -4.16263 -0.0554308 0
M  V30 365 H 37.4043 -3.65668 1.56625 0
M  V30 366 H 34.1433 -4.98945 4.25128 0
M  V30 367 H 33.6633 -5.4095 2.591 0
M  V30 368 H 35.3423 -5.66337 3.12845 0
M  V30 369 N 35.4744 -0.807222 -1.35358 0
M  V30 370 C 36.6994 -0.399309 -2.0352 0
M  V30 371 C 37.1244 0.981986 -1.60433 0
M  V30 372 O 36.4824 1.63601 -0.781299 0
M  V30 373 C 36.5304 -0.491552 -3.57234 0
M  V30 374 O 35.6344 0.494754 -4.09421 0
M  V30 375 H 34.9754 -0.166682 -0.642739 0
M  V30 376 H 37.5054 -1.09328 -1.72941 0
M  V30 377 H 37.5154 -0.361588 -4.06395 0
M  V30 378 H 36.1904 -1.49907 -3.87944 0
M  V30 379 H 34.7674 0.324977 -3.71481 0
M  V30 380 N 36.9525 1.47285 -0.560781 0
M  V30 381 C 38.2015 2.01668 -0.035895 0
M  V30 382 C 38.5145 1.44021 1.32353 0
M  V30 383 O 39.7205 1.90088 1.93853 0
M  V30 384 C 38.1765 3.59897 -0.0136659 0
M  V30 385 C 37.7845 4.26536 -1.37006 0
M  V30 386 C 39.5285 4.22017 0.458425 0
M  V30 387 C 37.4355 5.76782 -1.30675 0
M  V30 388 H 36.3655 0.753938 -0.00964879 0
M  V30 389 H 39.0165 1.69243 -0.709166 0
M  V30 390 H 37.3985 3.89301 0.725325 0
M  V30 391 H 38.5725 4.0877 -2.12705 0
M  V30 392 H 36.8875 3.76419 -1.78038 0
M  V30 393 H 39.4845 5.32124 0.524247 0
M  V30 394 H 39.8275 3.89437 1.4712 0
M  V30 395 H 40.3605 3.97159 -0.225818 0
M  V30 396 H 37.0995 6.13988 -2.29564 0
M  V30 397 H 36.6195 5.96875 -0.591622 0
M  V30 398 H 38.2985 6.39063 -1.01033 0
M  V30 399 N 38.4306 0.297415 1.54768 0
M  V30 400 C 39.3406 -0.58983 2.27064 0
M  V30 401 C 40.3566 -1.15144 1.30453 0
M  V30 402 O 41.5326 -1.17699 1.63428 0
M  V30 403 C 38.5976 -1.74714 2.9946 0
M  V30 404 C 37.6586 -1.21997 4.11601 0
M  V30 405 C 36.8916 -2.32212 4.80535 0
M  V30 406 O 37.1146 -3.52036 4.48806 0
M  V30 407 O 36.0486 -1.99106 5.68014 0
M  V30 408 H 39.8746 -0.00348199 3.037 0
M  V30 409 H 37.4596 0.0640035 1.49263 0
M  V30 410 H 39.3416 -2.42147 3.44881 0
M  V30 411 H 38.0166 -2.32016 2.25722 0
M  V30 412 H 36.9236 -0.511458 3.70587 0
M  V30 413 H 38.2566 -0.692419 4.87305 0
M  V30 414 N 39.9087 -1.5758 0.0250728 0
M  V30 415 C 41.1567 -1.91255 -0.653151 0
M  V30 416 C 41.4777 -0.901691 -1.729 0
M  V30 417 O 40.7477 0.0573785 -1.95816 0
M  V30 418 H 39.3277 -0.705942 -0.244243 0
M  V30 419 H 41.9897 -1.94767 0.0719209 0
M  V30 420 H 41.0857 -2.91752 -1.10847 0
M  V30 421 N 41.3868 0.248026 -1.55636 0
M  V30 422 C 42.3348 1.32683 -1.91045 0
M  V30 423 C 43.3288 1.49883 -0.789401 0
M  V30 424 O 44.5348 1.51371 -0.974007 0
M  V30 425 H 40.9098 0.444272 -0.606734 0
M  V30 426 H 42.8808 1.00085 -2.81115 0
M  V30 427 C 41.6298 2.6755 -2.22064 0
M  V30 428 H 40.9528 2.55114 -3.07826 0
M  V30 429 H 42.3928 3.41912 -2.50743 0
M  V30 430 C 40.8518 3.20556 -1.0366 0
M  V30 431 O 41.3818 4.00695 -0.284016 0
M  V30 432 N 39.5878 2.78568 -0.82753 0
M  V30 433 H 39.1348 2.1351 -1.44123 0
M  V30 434 H 39.0928 3.14378 -0.0369803 0
M  V30 435 N 42.8649 1.48995 0.513639 0
M  V30 436 C 44.1139 1.57093 1.2651 0
M  V30 437 C 44.4269 0.257091 1.93903 0
M  V30 438 O 45.6329 0.216478 2.70636 0
M  V30 439 C 44.0889 2.77118 2.29638 0
M  V30 440 C 43.6969 4.15209 1.68241 0
M  V30 441 C 45.4409 2.94538 3.05692 0
M  V30 442 C 43.3479 5.26474 2.69406 0
M  V30 443 H 42.2779 0.584876 0.475854 0
M  V30 444 H 44.9289 1.7536 0.540487 0
M  V30 445 H 43.3109 2.52319 3.05207 0
M  V30 446 H 44.4849 4.50094 0.987505 0
M  V30 447 H 42.7999 4.03042 1.04623 0
M  V30 448 H 45.3969 3.74832 3.8132 0
M  V30 449 H 45.7399 2.04614 3.62545 0
M  V30 450 H 46.2729 3.19316 2.37238 0
M  V30 451 H 43.0119 6.18417 2.17351 0
M  V30 452 H 42.5319 4.96058 3.37175 0
M  V30 453 H 44.2109 5.55277 3.32078 0
M  V30 454 N 44.343 -0.763751 1.37857 0
M  V30 455 C 45.306 -1.85889 1.34081 0
M  V30 456 C 46.306 -1.58949 0.243277 0
M  V30 457 O 47.496 -1.66882 0.499589 0
M  V30 458 C 44.628 -3.23176 1.08489 0
M  V30 459 H 45.821 -1.90648 2.31502 0
M  V30 460 H 43.374 -0.964367 1.23003 0
M  V30 461 H 44.109 -3.24091 0.116318 0
M  V30 462 H 43.894 -3.44124 1.8794 0
M  V30 463 H 45.384 -4.03254 1.08517 0
M  V30 464 N 45.8211 -1.22559 -0.990812 0
M  V30 465 C 46.7841 -0.998863 -2.0629 0
M  V30 466 C 47.7841 0.0354834 -1.60761 0
M  V30 467 O 48.9741 -0.203231 -1.7301 0
M  V30 468 C 46.1061 -0.509203 -3.37076 0
M  V30 469 H 47.2991 -1.95014 -2.27837 0
M  V30 470 H 44.8521 -1.04456 -1.16269 0
M  V30 471 H 45.5871 0.446335 -3.21214 0
M  V30 472 H 45.3721 -1.25547 -3.71457 0
M  V30 473 H 46.8621 -0.370888 -4.1595 0
M  V30 474 N 47.2992 1.18797 -1.03562 0
M  V30 475 C 48.5472 1.88278 -0.734569 0
M  V30 476 C 48.8682 1.8043 0.739586 0
M  V30 477 O 48.1382 1.21925 1.53333 0
M  V30 478 H 46.7182 0.696991 -0.268725 0
M  V30 479 H 49.3802 1.44192 -1.31129 0
M  V30 480 H 48.4762 2.94443 -1.03489 0
M  V30 481 N 48.7773 0.814389 1.34928 0
M  V30 482 C 49.7243 0.22822 2.29669 0
M  V30 483 C 50.6943 -0.642164 1.53184 0
M  V30 484 O 51.8793 -0.585605 1.81591 0
M  V30 485 C 49.0193 -0.61089 3.3965 0
M  V30 486 C 48.1323 0.280792 4.31086 0
M  V30 487 C 47.2673 -0.567067 5.28165 0
M  V30 488 C 46.3063 0.324531 6.11239 0
M  V30 489 N 45.4433 -0.483756 7.00431 0
M  V30 490 H 50.2833 1.04153 2.79206 0
M  V30 491 H 47.8203 0.525133 1.37407 0
M  V30 492 H 49.7783 -1.11263 4.0209 0
M  V30 493 H 48.4083 -1.38939 2.91369 0
M  V30 494 H 47.4603 0.900688 3.69583 0
M  V30 495 H 48.7723 0.966723 4.89342 0
M  V30 496 H 47.9263 -1.13363 5.96015 0
M  V30 497 H 46.6653 -1.28654 4.70425 0
M  V30 498 H 45.6703 0.903298 5.42329 0
M  V30 499 H 46.8953 1.04198 6.71059 0
M  V30 500 H 44.8413 -1.18706 6.45171 0
M  V30 501 H 44.7583 0.143965 7.55863 0
M  V30 502 H 46.0263 -1.03334 7.7262 0
M  V30 503 N 50.2554 -1.46986 0.568584 0
M  V30 504 C 51.4804 -2.07335 0.0520528 0
M  V30 505 C 51.9054 -1.41675 -1.23733 0
M  V30 506 O 51.2634 -0.495623 -1.74394 0
M  V30 507 C 51.3114 -3.60417 -0.11501 0
M  V30 508 O 50.4154 -3.95309 -1.17492 0
M  V30 509 H 49.7564 -0.661597 0.0564385 0
M  V30 510 H 52.2864 -1.88837 0.787507 0
M  V30 511 H 52.2964 -4.06698 -0.325644 0
M  V30 512 H 50.9714 -4.07601 0.826675 0
M  V30 513 H 49.5484 -3.60757 -0.943869 0
M  V30 514 N 51.7335 -0.305618 -1.54608 0
M  V30 515 C 52.9615 0.304775 -2.04643 0
M  V30 516 C 53.3765 1.47167 -1.18268 0
M  V30 517 O 52.7335 1.81296 -0.209328 0
M  V30 518 C 52.7845 0.756564 -3.53495 0
M  V30 519 O 52.5055 -0.36389 -4.36586 0
M  V30 520 C 54.0065 1.43163 -4.19546 0
M  V30 521 H 51.2265 0.0655481 -0.667791 0
M  V30 522 H 53.7705 -0.446592 -1.99564 0
M  V30 523 H 51.9255 1.45794 -3.58919 0
M  V30 524 H 52.3395 -0.0113121 -5.24499 0
M  V30 525 H 53.8135 1.69886 -5.25207 0
M  V30 526 H 54.2905 2.37318 -3.69563 0
M  V30 527 H 54.8965 0.773307 -4.18211 0
M  V30 528 N 53.2116 1.57565 -0.0334293 0
M  V30 529 C 54.4586 1.91978 0.644272 0
M  V30 530 C 54.7866 0.910231 1.71887 0
M  V30 531 O 54.0416 -0.0801961 1.95536 0
M  V30 532 C 54.3406 3.33112 1.29504 0
M  V30 533 C 54.0066 4.49537 0.350388 0
M  V30 534 C 52.6686 4.81115 0.0903974 0
M  V30 535 C 55.0206 5.20347 -0.298032 0
M  V30 536 C 52.3486 5.8086 -0.825746 0
M  V30 537 C 54.7006 6.2107 -1.20226 0
M  V30 538 C 53.3646 6.51088 -1.4711 0
M  V30 539 H 52.6346 0.702496 0.235756 0
M  V30 540 H 55.2816 1.91259 -0.0961176 0
M  V30 541 H 53.5866 3.30113 2.11028 0
M  V30 542 H 55.2836 3.57011 1.82603 0
M  V30 543 H 51.8736 4.24883 0.563205 0
M  V30 544 H 56.0576 4.96178 -0.110234 0
M  V30 545 H 51.3136 6.02461 -1.04169 0
M  V30 546 H 55.4876 6.75057 -1.71086 0
M  V30 547 H 53.1146 7.28193 -2.18264 0
M  V30 548 N 54.6897 -0.239769 1.55765 0
M  V30 549 C 55.9357 -0.968234 1.78194 0
M  V30 550 C 56.2687 -1.84701 0.599938 0
M  V30 551 O 55.5437 -1.9031 -0.401524 0
M  V30 552 C 55.8267 -1.8227 3.10564 0
M  V30 553 C 55.6797 -0.971633 4.3918 0
M  V30 554 C 56.9987 -2.80388 3.39221 0
M  V30 555 H 54.1177 -0.350572 0.648281 0
M  V30 556 H 56.7597 -0.238259 1.885 0
M  V30 557 H 54.9097 -2.44507 3.01908 0
M  V30 558 H 56.5817 -0.367408 4.59835 0
M  V30 559 H 54.8247 -0.276276 4.32919 0
M  V30 560 H 55.4957 -1.60346 5.28198 0
M  V30 561 H 57.9717 -2.28287 3.47885 0
M  V30 562 H 56.8477 -3.3729 4.33044 0
M  V30 563 H 57.1087 -3.57212 2.60484 0
M  V30 564 N 56.1678 -1.49265 -0.50573 0
M  V30 565 C 57.1158 -1.66065 -1.62866 0
M  V30 566 C 58.1098 -0.526636 -1.61006 0
M  V30 567 O 59.3158 -0.706126 -1.65571 0
M  V30 568 H 55.6908 -0.52356 -0.539805 0
M  V30 569 H 57.6618 -2.60329 -1.45848 0
M  V30 570 C 56.4108 -1.74008 -3.01026 0
M  V30 571 H 55.7338 -2.6064 -3.03161 0
M  V30 572 H 57.1738 -1.89798 -3.79147 0
M  V30 573 C 55.6328 -0.483868 -3.33407 0
M  V30 574 O 56.1628 0.392548 -3.99777 0
M  V30 575 N 54.3688 -0.348236 -2.88506 0
M  V30 576 H 53.9158 -1.06242 -2.34671 0
M  V30 577 H 53.8738 0.491204 -3.10539 0
M  V30 578 N 57.6459 0.756429 -1.3826 0
M  V30 579 C 58.8949 1.51082 -1.3363 0
M  V30 580 C 59.2079 1.95467 0.0720068 0
M  V30 581 O 60.4139 2.7043 0.240834 0
M  V30 582 C 58.8699 2.72893 -2.34644 0
M  V30 583 C 58.4779 2.35544 -3.81081 0
M  V30 584 C 60.2219 3.50791 -2.39052 0
M  V30 585 C 58.1289 3.53948 -4.73787 0
M  V30 586 H 57.0589 0.56727 -0.49671 0
M  V30 587 H 59.7099 0.827147 -1.638 0
M  V30 588 H 58.0919 3.43227 -1.97513 0
M  V30 589 H 59.2659 1.72894 -4.27135 0
M  V30 590 H 57.5809 1.70786 -3.79764 0
M  V30 591 H 60.1779 4.38823 -3.05513 0
M  V30 592 H 60.5209 3.91745 -1.40861 0
M  V30 593 H 61.0539 2.87467 -2.74968 0
M  V30 594 H 57.7929 3.18064 -5.73163 0
M  V30 595 H 57.3129 4.15651 -4.32428 0
M  V30 596 H 58.9919 4.20566 -4.91663 0
M  V30 597 N 59.124 1.23083 0.984299 0
M  V30 598 C 60.054 1.03292 2.09411 0
M  V30 599 C 61.035 -0.048923 1.7003 0
M  V30 600 O 62.22 0.114967 1.93859 0
M  V30 601 C 59.35 0.619155 3.41736 0
M  V30 602 C 58.304 1.64791 3.95004 0
M  V30 603 C 57.63 1.0897 5.23478 0
M  V30 604 C 58.93 3.03999 4.24714 0
M  V30 605 H 60.624 1.96119 2.26225 0
M  V30 606 H 58.17 0.944344 1.08711 0
M  V30 607 H 60.123 0.467777 4.18796 0
M  V30 608 H 58.847 -0.344786 3.24775 0
M  V30 609 H 57.506 1.78721 3.20085 0
M  V30 610 H 57.154 0.11686 5.02864 0
M  V30 611 H 56.854 1.77704 5.60085 0
M  V30 612 H 58.378 0.950093 6.03163 0
M  V30 613 H 59.792 2.93393 4.92538 0
M  V30 614 H 58.189 3.69936 4.72512 0
M  V30 615 H 59.259 3.53285 3.32142 0
M  V30 616 N 60.6021 -1.18246 1.0419 0
M  V30 617 C 61.5491 -2.2192 0.634037 0
M  V30 618 C 62.5191 -1.62179 -0.358765 0
M  V30 619 O 63.7041 -1.89122 -0.252466 0
M  V30 620 C 60.8441 -3.451 0.00445535 0
M  V30 621 C 59.9571 -4.19174 1.04487 0
M  V30 622 C 59.0921 -5.29813 0.383676 0
M  V30 623 C 58.1311 -5.9566 1.4091 0
M  V30 624 N 57.2681 -6.97834 0.772784 0
M  V30 625 H 62.1081 -2.56164 1.52263 0
M  V30 626 H 59.6451 -1.25843 0.761701 0
M  V30 627 H 61.6031 -4.15485 -0.377919 0
M  V30 628 H 60.2331 -3.11472 -0.847652 0
M  V30 629 H 59.2851 -3.47604 1.54518 0
M  V30 630 H 60.5971 -4.64267 1.82368 0
M  V30 631 H 59.7511 -6.06677 -0.0528366 0
M  V30 632 H 58.4901 -4.85825 -0.427208 0
M  V30 633 H 57.4951 -5.17535 1.85574 0
M  V30 634 H 58.7201 -6.4173 2.22171 0
M  V30 635 H 56.6661 -6.55998 -0.0177708 0
M  V30 636 H 56.5831 -7.41186 1.48928 0
M  V30 637 H 57.8511 -7.78665 0.36071 0
M  V30 638 N 62.0802 -0.821533 -1.34494 0
M  V30 639 C 63.0122 -0.199946 -2.28326 0
M  V30 640 C 64.0252 0.609377 -1.50965 0
M  V30 641 O 65.2142 0.439285 -1.7301 0
M  V30 642 C 62.3142 0.738431 -3.30757 0
M  V30 643 C 61.4872 -0.0277632 -4.37391 0
M  V30 644 C 60.5462 0.831332 -5.19591 0
M  V30 645 O 59.5722 0.276822 -5.68526 0
M  V30 646 N 60.7742 2.15132 -5.39165 0
M  V30 647 H 63.5392 -1.00609 -2.82308 0
M  V30 648 H 61.1002 -0.678366 -1.47003 0
M  V30 649 H 63.0922 1.31773 -3.82646 0
M  V30 650 H 61.6622 1.44533 -2.7718 0
M  V30 651 H 60.8822 -0.788359 -3.86236 0
M  V30 652 H 62.1702 -0.555251 -5.05761 0
M  V30 653 H 61.5682 2.62559 -5.01078 0
M  V30 654 H 60.1252 2.6795 -5.94177 0
M  V30 655 N 63.5583 1.46682 -0.576371 0
M  V30 656 C 64.4883 2.33028 0.148397 0
M  V30 657 C 65.4693 1.44961 0.889956 0
M  V30 658 O 66.6543 1.73789 0.866662 0
M  V30 659 C 63.7843 3.27117 1.1667 0
M  V30 660 C 62.7383 4.24575 0.540386 0
M  V30 661 C 62.0643 5.08126 1.6647 0
M  V30 662 C 63.3643 5.19722 -0.518331 0
M  V30 663 H 65.0583 2.93875 -0.572509 0
M  V30 664 H 62.6043 1.41315 -0.276768 0
M  V30 665 H 64.5573 3.86374 1.68204 0
M  V30 666 H 63.2813 2.64364 1.9178 0
M  V30 667 H 61.9403 3.66571 0.0461769 0
M  V30 668 H 61.5883 4.41762 2.40531 0
M  V30 669 H 61.2883 5.74122 1.25131 0
M  V30 670 H 62.8123 5.70246 2.18293 0
M  V30 671 H 64.2263 5.73232 -0.0883058 0
M  V30 672 H 62.6233 5.94026 -0.851679 0
M  V30 673 H 63.6933 4.64037 -1.40703 0
M  V30 674 N 65.0364 0.313813 1.54444 0
M  V30 675 C 66.2764 -0.292389 2.02298 0
M  V30 676 C 66.6404 -1.50105 1.19719 0
M  V30 677 O 67.8414 -2.17947 1.5733 0
M  V30 678 C 66.1124 -0.627682 3.51845 0
M  V30 679 S 67.6714 -1.21493 4.21646 0
M  V30 680 H 64.4894 -0.0890247 0.705405 0
M  V30 681 H 67.0914 0.444668 1.90376 0
M  V30 682 H 65.7954 0.260265 4.09574 0
M  V30 683 H 65.3264 -1.39519 3.67829 0
M  V30 684 H 67.3414 -2.5022 4.28491 0
M  V30 685 N 66.5145 -1.57545 0.0417849 0
M  V30 686 C 67.4245 -2.14451 -0.951213 0
M  V30 687 C 68.4405 -1.09992 -1.34825 0
M  V30 688 O 69.6165 -1.42114 -1.42708 0
M  V30 689 C 66.6815 -2.67063 -2.21084 0
M  V30 690 C 65.7425 -3.86284 -1.87304 0
M  V30 691 C 64.9755 -4.36378 -3.07261 0
M  V30 692 O 65.1985 -3.85587 -4.20332 0
M  V30 693 O 64.1325 -5.28077 -2.88822 0
M  V30 694 H 67.9585 -2.99601 -0.497287 0
M  V30 695 H 65.5435 -1.48317 -0.179567 0
M  V30 696 H 67.4255 -3.00914 -2.95006 0
M  V30 697 H 66.1005 -1.84989 -2.65633 0
M  V30 698 H 65.0075 -3.57338 -1.10727 0
M  V30 699 H 66.3405 -4.6956 -1.47562 0
M  V30 700 N 67.9926 0.231505 -1.5589 0
M  V30 701 C 69.2696 0.981096 -1.69215 0
M  V30 702 C 69.6496 2.02799 -0.586164 0
M  V30 703 O 68.9976 2.24823 0.408253 0
M  V30 704 C 69.2076 1.60054 -3.10135 0
M  V30 705 C 70.5556 2.09658 -3.69227 0
M  V30 706 O 71.5796 1.69967 -3.13033 0
M  V30 707 O 70.4386 2.8258 -4.67772 0
M  V30 708 H 67.5326 0.457653 -0.688827 0
M  V30 709 H 70.0786 0.224073 -1.68214 0
M  V30 710 H 68.8506 0.844105 -3.82087 0
M  V30 711 H 68.4736 2.42336 -3.15212 0
M  V30 712 N 69.4707 1.49531 0.497807 0
M  V30 713 C 70.7167 1.60388 1.25089 0
M  V30 714 C 71.0717 0.288328 1.90227 0
M  V30 715 O 70.3647 -0.711706 1.77891 0
M  V30 716 C 70.5587 2.70252 2.33878 0
M  V30 717 C 70.3877 4.12363 1.79408 0
M  V30 718 C 69.1577 4.7911 1.60566 0
M  V30 719 C 71.3557 4.97491 1.30412 0
M  V30 720 N 69.3377 6.05525 1.01059 0
M  V30 721 C 70.7087 6.14411 0.830595 0
M  V30 722 C 72.7637 4.83466 1.19015 0
M  V30 723 C 71.4667 7.1885 0.254371 0
M  V30 724 C 73.4927 5.88057 0.627892 0
M  V30 725 C 72.8547 7.04208 0.16461 0
M  V30 726 H 68.9537 0.641246 0.447579 0
M  V30 727 H 71.5377 1.86549 0.557441 0
M  V30 728 H 69.7087 2.45858 3.0068 0
M  V30 729 H 71.4407 2.70613 3.00917 0
M  V30 730 H 68.1957 4.35961 1.85026 0
M  V30 731 H 68.6197 6.73028 0.732236 0
M  V30 732 H 73.2617 3.93978 1.53431 0
M  V30 733 H 70.9797 8.08036 -0.102052 0
M  V30 734 H 74.5657 5.79266 0.542444 0
M  V30 735 H 73.4457 7.83757 -0.263669 0
M  V30 736 N 70.9488 -0.749086 1.3866 0
M  V30 737 C 71.8588 -1.89358 1.38494 0
M  V30 738 C 72.8748 -1.71708 0.281476 0
M  V30 739 O 74.0508 -1.94554 0.520643 0
M  V30 740 C 71.1158 -3.24782 1.21316 0
M  V30 741 C 70.1768 -3.54926 2.41508 0
M  V30 742 C 69.4098 -4.83888 2.2514 0
M  V30 743 O 69.6328 -5.56592 1.24746 0
M  V30 744 O 68.5668 -5.13612 3.13826 0
M  V30 745 H 72.3928 -1.92452 2.34938 0
M  V30 746 H 69.9778 -0.894981 1.19626 0
M  V30 747 H 71.8598 -4.05739 1.13814 0
M  V30 748 H 70.5348 -3.2249 0.279592 0
M  V30 749 H 69.4418 -2.74112 2.54585 0
M  V30 750 H 70.7748 -3.61983 3.3351 0
M  V30 751 N 72.4269 -1.23603 -0.977757 0
M  V30 752 C 73.6729 -1.07129 -1.72195 0
M  V30 753 C 74.0059 0.390501 -1.90233 0
M  V30 754 O 73.2809 1.28902 -1.45653 0
M  V30 755 C 73.5639 -1.80031 -3.11867 0
M  V30 756 C 73.4169 -3.33899 -3.01383 0
M  V30 757 C 74.7359 -1.56492 -4.11337 0
M  V30 758 H 71.8549 -0.390571 -0.624999 0
M  V30 759 H 74.4969 -1.52142 -1.13811 0
M  V30 760 H 72.6469 -1.41768 -3.6171 0
M  V30 761 H 74.3189 -3.81699 -2.59043 0
M  V30 762 H 72.5619 -3.62796 -2.37827 0
M  V30 763 H 73.2329 -3.801 -4.00285 0
M  V30 764 H 75.7089 -1.89757 -3.70313 0
M  V30 765 H 74.5849 -2.09973 -5.07151 0
M  V30 766 H 74.8459 -0.500874 -4.39254 0
M  V30 767 N 73.905 1.17692 -1.04816 0
M  V30 768 C 75.151 1.88137 -0.75711 0
M  V30 769 C 75.484 1.80604 0.713841 0
M  V30 770 O 74.759 1.21146 1.52164 0
M  V30 771 C 75.042 3.38318 -1.2334 0
M  V30 772 C 74.895 3.54622 -2.76701 0
M  V30 773 C 76.214 4.32214 -0.829415 0
M  V30 774 H 73.333 0.683163 -0.27651 0
M  V30 775 H 75.975 1.38424 -1.30149 0
M  V30 776 H 74.125 3.80787 -0.770286 0
M  V30 777 H 75.797 3.21194 -3.31107 0
M  V30 778 H 74.04 2.97026 -3.16161 0
M  V30 779 H 74.711 4.60028 -3.05088 0
M  V30 780 H 77.187 3.97565 -1.22805 0
M  V30 781 H 76.063 5.35838 -1.19033 0
M  V30 782 H 76.324 4.41294 0.266891 0
M  V30 783 N 75.3831 0.828654 1.34056 0
M  V30 784 C 76.7941 0.477534 1.8049 0
M  V30 785 C 77.1451 -1.00258 1.6865 0
M  V30 786 O 76.2701 -1.78057 1.22982 0
M  V30 787 C 76.8651 0.860018 3.27703 0
M  V30 788 C 75.4241 0.561185 3.72193 0
M  V30 789 C 74.5711 1.07385 2.55663 0
M  V30 790 H 77.5221 1.0183 1.21722 0
M  V30 791 H 77.5431 0.166038 3.80138 0
M  V30 792 H 77.0551 1.93731 3.36288 0
M  V30 793 H 75.1561 -0.506465 3.69142 0
M  V30 794 H 75.2691 1.10926 4.66082 0
M  V30 795 H 73.6331 0.495149 2.49841 0
M  V30 796 H 74.4161 2.15771 2.67016 0
M  V30 797 N 76.8612 -1.46375 0.584142 0
M  V30 798 C 77.7712 -2.34115 -0.150728 0
M  V30 799 C 78.7872 -1.49838 -0.884567 0
M  V30 800 O 79.9632 -1.82704 -0.847429 0
M  V30 801 C 77.0282 -3.2705 -1.15062 0
M  V30 802 C 76.0892 -4.27228 -0.421293 0
M  V30 803 C 75.3222 -5.15722 -1.37355 0
M  V30 804 O 75.5452 -5.07176 -2.61014 0
M  V30 805 O 74.4792 -5.95383 -0.883355 0
M  V30 806 H 78.3052 -2.98309 0.569708 0
M  V30 807 H 75.8902 -1.45373 0.344535 0
M  V30 808 H 77.7722 -3.84381 -1.72712 0
M  V30 809 H 76.4472 -2.65451 -1.8525 0
M  V30 810 H 75.3542 -3.7358 0.197085 0
M  V30 811 H 76.6872 -4.91616 0.239641 0
M  V30 812 N 78.3393 -0.321999 -1.54275 0
M  V30 813 C 79.7503 0.166384 -1.85957 0
M  V30 814 C 80.1013 1.51747 -1.24367 0
M  V30 815 O 79.2263 2.09317 -0.549124 0
M  V30 816 C 79.8213 0.308681 -3.37391 0
M  V30 817 C 78.3803 0.741286 -3.69028 0
M  V30 818 C 77.5273 -0.137937 -2.76957 0
M  V30 819 H 80.4783 -0.542335 -1.49146 0
M  V30 820 H 80.4993 1.13984 -3.63026 0
M  V30 821 H 80.0113 -0.674809 -3.82188 0
M  V30 822 H 78.1123 1.73458 -3.29762 0
M  V30 823 H 78.2253 0.546118 -4.75977 0
M  V30 824 H 76.5893 0.386251 -2.51754 0
M  V30 825 H 77.3723 -1.11816 -3.2458 0
M  V30 826 N 79.8174 1.5752 -0.0501392 0
M  V30 827 C 81.0634 1.92936 0.624798 0
M  V30 828 C 81.3964 0.928685 1.70555 0
M  V30 829 O 80.6714 -0.0454779 1.94447 0
M  V30 830 C 80.9544 3.38737 1.22185 0
M  V30 831 C 80.8074 4.49552 0.149218 0
M  V30 832 C 82.1264 3.84913 2.13378 0
M  V30 833 H 79.2454 0.701604 0.225657 0
M  V30 834 H 81.8874 1.89671 -0.111693 0
M  V30 835 H 80.0374 3.4165 1.84953 0
M  V30 836 H 81.7094 4.58768 -0.482648 0
M  V30 837 H 79.9524 4.30638 -0.522841 0
M  V30 838 H 80.6234 5.48653 0.606966 0
M  V30 839 H 83.0994 3.8387 1.60572 0
M  V30 840 H 81.9754 4.87584 2.52097 0
M  V30 841 H 82.2364 3.21611 3.03346 0
M  V30 842 N 81.2955 -0.223234 1.56011 0
M  V30 843 C 82.2585 -1.26014 1.9145 0
M  V30 844 C 83.2585 -1.3989 0.792937 0
M  V30 845 O 84.4485 -1.38184 1.0607 0
M  V30 846 C 81.5805 -2.63422 2.16383 0
M  V30 847 H 82.7735 -0.95796 2.84189 0
M  V30 848 H 80.3265 -0.463576 1.49267 0
M  V30 849 H 81.0615 -2.98741 1.2619 0
M  V30 850 H 80.8465 -2.54728 2.98088 0
M  V30 851 H 82.3365 -3.38249 2.44903 0
M  V30 852 N 82.7736 -1.49793 -0.48987 0
M  V30 853 C 84.1896 -1.36803 -0.822022 0
M  V30 854 C 84.3896 -0.409652 -1.97292 0
M  V30 855 O 83.4456 0.154614 -2.52026 0
M  V30 856 C 84.7586 -2.77768 -1.15175 0
M  V30 857 C 86.3066 -2.86549 -1.25931 0
M  V30 858 C 86.7816 -4.28306 -1.62228 0
M  V30 859 N 88.2726 -4.31169 -1.69256 0
M  V30 860 C 89.0076 -5.37832 -1.98807 0
M  V30 861 N 88.5036 -6.54726 -2.26507 0
M  V30 862 N 90.2966 -5.25258 -2.00152 0
M  V30 863 H 82.4476 -2.10691 0.268881 0
M  V30 864 H 84.7106 -0.946241 0.057728 0
M  V30 865 H 84.4166 -3.49648 -0.379335 0
M  V30 866 H 84.2906 -3.13836 -2.09253 0
M  V30 867 H 86.6776 -2.14899 -2.02243 0
M  V30 868 H 86.7586 -2.54049 -0.298776 0
M  V30 869 H 86.4026 -5.00486 -0.864622 0
M  V30 870 H 86.3326 -4.58279 -2.594 0
M  V30 871 H 88.8236 -3.4687 -1.49965 0
M  V30 872 H 89.1366 -7.31833 -2.48276 0
M  V30 873 H 87.4816 -6.57933 -2.23939 0
M  V30 874 H 90.6726 -4.32938 -1.77996 0
M  V30 875 H 90.8456 -6.08476 -2.22848 0
M  V30 876 N 84.2517 0.741722 -1.39055 0
M  V30 877 C 85.4977 1.50234 -1.37118 0
M  V30 878 C 85.8527 1.92368 0.0350439 0
M  V30 879 O 85.1457 1.63422 1.00019 0
M  V30 880 C 85.3397 2.7592 -2.27163 0
M  V30 881 C 85.1687 2.46074 -3.76401 0
M  V30 882 C 83.9387 2.38704 -4.45364 0
M  V30 883 C 86.1367 2.12062 -4.68545 0
M  V30 884 N 84.1187 2.01258 -5.79973 0
M  V30 885 C 85.4897 1.85005 -5.91754 0
M  V30 886 C 87.5447 1.98473 -4.56632 0
M  V30 887 C 86.2477 1.4573 -7.04383 0
M  V30 888 C 88.2737 1.60599 -5.69176 0
M  V30 889 C 87.6357 1.34423 -6.91455 0
M  V30 890 H 83.7347 0.548858 -0.557027 0
M  V30 891 H 86.3187 0.862642 -1.74547 0
M  V30 892 H 84.4897 3.3768 -1.91904 0
M  V30 893 H 86.2217 3.42068 -2.16267 0
M  V30 894 H 82.9767 2.55574 -3.98721 0
M  V30 895 H 83.4007 1.85147 -6.51191 0
M  V30 896 H 88.0427 2.17381 -3.62637 0
M  V30 897 H 85.7607 1.25562 -7.98286 0
M  V30 898 H 89.3467 1.507 -5.61944 0
M  V30 899 H 88.2267 1.05555 -7.77064 0
M  V30 900 N 85.7298 1.2412 0.971189 0
M  V30 901 C 86.9698 1.09066 1.7287 0
M  V30 902 C 87.3338 -0.364794 1.88503 0
M  V30 903 O 88.5348 -0.636748 2.61149 0
M  V30 904 C 86.8058 1.80629 3.08396 0
M  V30 905 S 88.3648 1.81263 3.99611 0
M  V30 906 H 85.1828 0.390145 0.594397 0
M  V30 907 H 87.7848 1.57397 1.15959 0
M  V30 908 H 86.4888 2.85647 2.94676 0
M  V30 909 H 86.0198 1.32617 3.70373 0
M  V30 910 H 88.0348 0.877804 4.88374 0
M  V30 911 N 87.2079 -1.17134 1.05439 0
M  V30 912 C 88.1559 -2.23289 0.651511 0
M  V30 913 C 89.1499 -1.66186 -0.328411 0
M  V30 914 O 90.3559 -1.78949 -0.194206 0
M  V30 915 H 86.7309 -0.726938 0.192523 0
M  V30 916 H 88.7019 -2.54565 1.55689 0
M  V30 917 C 87.4509 -3.47671 0.0448436 0
M  V30 918 H 86.7739 -3.91918 0.78996 0
M  V30 919 H 88.2139 -4.2353 -0.19964 0
M  V30 920 C 86.6729 -3.14453 -1.20918 0
M  V30 921 O 87.2029 -3.29459 -2.29825 0
M  V30 922 N 85.4089 -2.68657 -1.10779 0
M  V30 923 H 84.9559 -2.56646 -0.221526 0
M  V30 924 H 84.9139 -2.46804 -1.9477 0
M  V30 925 N 88.686 -0.835752 -1.33615 0
M  V30 926 C 89.932 -0.430596 -1.98176 0
M  V30 927 C 90.265 1.00684 -1.66061 0
M  V30 928 O 89.54 1.70339 -0.938877 0
M  V30 929 C 89.823 -0.648065 -3.5422 0
M  V30 930 C 89.676 -2.13255 -3.96033 0
M  V30 931 C 90.995 -0.0922113 -4.40003 0
M  V30 932 H 88.114 -0.157924 -0.719881 0
M  V30 933 H 90.756 -1.05069 -1.58305 0
M  V30 934 H 88.906 -0.120237 -3.88314 0
M  V30 935 H 90.578 -2.725 -3.72211 0
M  V30 936 H 88.821 -2.61823 -3.45878 0
M  V30 937 H 89.492 -2.23547 -5.04708 0
M  V30 938 H 91.968 -0.543343 -4.12537 0
M  V30 939 H 90.844 -0.274083 -5.48215 0
M  V30 940 H 91.105 1.00378 -4.30554 0
M  V30 941 N 90.1641 1.46063 -0.591896 0
M  V30 942 C 91.0961 2.28539 0.174001 0
M  V30 943 C 92.1091 1.39047 0.846753 0
M  V30 944 O 93.2981 1.63564 0.714774 0
M  V30 945 C 90.3981 3.14347 1.26645 0
M  V30 946 C 89.5711 4.32021 0.683856 0
M  V30 947 C 88.6301 4.99157 1.66518 0
M  V30 948 O 87.6561 5.56458 1.19763 0
M  V30 949 N 88.8581 4.97005 2.99943 0
M  V30 950 H 91.6231 2.94911 -0.533633 0
M  V30 951 H 89.1841 1.56077 -0.430294 0
M  V30 952 H 91.1761 3.56125 1.92242 0
M  V30 953 H 89.7461 2.49988 1.87682 0
M  V30 954 H 88.9661 3.93915 -0.1498 0
M  V30 955 H 90.2541 5.08059 0.274567 0
M  V30 956 H 89.6521 4.51714 3.40545 0
M  V30 957 H 88.2091 5.42696 3.61004 0
M  V30 958 N 91.6422 0.330177 1.54103 0
M  V30 959 C 92.8672 -0.274893 2.0557 0
M  V30 960 C 93.2922 -1.44487 1.20437 0
M  V30 961 O 92.6502 -1.80021 0.214991 0
M  V30 962 C 92.6982 -0.68079 3.54115 0
M  V30 963 O 91.8022 -1.7824 3.71893 0
M  V30 964 H 91.1432 -0.0483849 0.662235 0
M  V30 965 H 93.6732 0.480508 1.98878 0
M  V30 966 H 93.6832 -0.961635 3.96505 0
M  V30 967 H 92.3582 0.174903 4.15532 0
M  V30 968 H 90.9352 -1.49985 3.41407 0
M  V30 969 N 93.1203 -1.57491 0.0584922 0
M  V30 970 C 94.3483 -1.97296 -0.623037 0
M  V30 971 C 94.7633 -0.936338 -1.63946 0
M  V30 972 O 94.1203 0.0785981 -1.82331 0
M  V30 973 C 94.1713 -3.37183 -1.30345 0
M  V30 974 O 93.8923 -4.36872 -0.32773 0
M  V30 975 C 95.3933 -3.91788 -2.07406 0
M  V30 976 H 92.6133 -0.649153 -0.169826 0
M  V30 977 H 95.1573 -2.04106 0.12696 0
M  V30 978 H 93.3123 -3.31502 -2.00463 0
M  V30 979 H 93.7263 -5.18141 -0.814269 0
M  V30 980 H 95.2003 -4.91926 -2.50425 0
M  V30 981 H 95.6773 -3.27609 -2.92521 0
M  V30 982 H 96.2833 -4.00829 -1.42184 0
M  V30 983 N 94.5984 0.214957 -1.56127 0
M  V30 984 C 95.5304 1.29004 -1.89448 0
M  V30 985 C 96.5434 1.42716 -0.783326 0
M  V30 986 O 97.7324 1.43496 -1.06166 0
M  V30 987 C 94.8324 2.66482 -2.09381 0
M  V30 988 C 94.0054 2.74633 -3.40434 0
M  V30 989 C 93.0644 3.9317 -3.49719 0
M  V30 990 O 92.0904 3.812 -4.227 0
M  V30 991 N 93.2924 5.07765 -2.81346 0
M  V30 992 H 96.0574 1.00743 -2.82261 0
M  V30 993 H 93.6184 0.40497 -1.56753 0
M  V30 994 H 95.6104 3.44173 -2.12901 0
M  V30 995 H 94.1804 2.87314 -1.23163 0
M  V30 996 H 93.4004 1.83368 -3.48955 0
M  V30 997 H 94.6884 2.77054 -4.26754 0
M  V30 998 H 94.0864 5.20386 -2.21843 0
M  V30 999 H 92.6434 5.83474 -2.90519 0
M  V30 1000 N 96.0765 1.50051 0.48192 0
M  V30 1001 C 97.3535 1.51009 1.2432 0
M  V30 1002 C 97.7335 0.248587 2.09631 0
M  V30 1003 O 97.0815 -0.768409 2.15192 0
M  V30 1004 C 97.2915 2.79981 2.08355 0
M  V30 1005 C 98.6395 3.3022 2.66908 0
M  V30 1006 O 99.6635 2.81228 2.18607 0
M  V30 1007 O 98.5225 4.15595 3.54884 0
M  V30 1008 H 95.6165 0.605239 0.563573 0
M  V30 1009 H 98.1625 1.62332 0.494627 0
M  V30 1010 H 96.9345 3.63275 1.45419 0
M  V30 1011 H 96.5575 2.7161 2.90368 0
M  V30 1012 N 97.5546 -0.734337 1.39446 0
M  V30 1013 C 98.4646 -1.87879 1.40495 0
M  V30 1014 C 99.4806 -1.714 0.299672 0
M  V30 1015 O 100.657 -1.93991 0.541249 0
M  V30 1016 C 97.7216 -3.23477 1.24754 0
M  V30 1017 C 96.7826 -3.52344 2.45259 0
M  V30 1018 C 96.0156 -4.81473 2.30259 0
M  V30 1019 O 96.2386 -5.55237 1.30643 0
M  V30 1020 O 95.1726 -5.10254 3.19256 0
M  V30 1021 H 98.9986 -1.89949 2.36966 0
M  V30 1022 H 96.5836 -0.882243 1.20569 0
M  V30 1023 H 98.4656 -4.04509 1.18111 0
M  V30 1024 H 97.1406 -3.22176 0.313781 0
M  V30 1025 H 96.0476 -2.71396 2.57478 0
M  V30 1026 H 97.3806 -3.58426 3.37331 0
M  V30 1027 N 99.0327 -1.24633 -0.964593 0
M  V30 1028 C 100.28 -1.08788 -1.70796 0
M  V30 1029 C 100.608 0.372783 -1.90894 0
M  V30 1030 O 99.8627 1.29167 -1.47018 0
M  V30 1031 C 100.162 -1.7763 -3.10133 0
M  V30 1032 C 99.8277 -3.27557 -3.09866 0
M  V30 1033 C 98.4897 -3.6846 -3.09501 0
M  V30 1034 C 100.842 -4.23389 -3.03959 0
M  V30 1035 C 98.1697 -5.03624 -3.00965 0
M  V30 1036 C 100.522 -5.58565 -2.96965 0
M  V30 1037 C 99.1857 -5.98809 -2.9493 0
M  V30 1038 H 98.4557 -0.398084 -0.624988 0
M  V30 1039 H 101.103 -1.54777 -1.12767 0
M  V30 1040 H 99.4077 -1.24044 -3.71645 0
M  V30 1041 H 101.105 -1.62832 -3.66451 0
M  V30 1042 H 97.6947 -2.95006 -3.10917 0
M  V30 1043 H 101.879 -3.92787 -3.03368 0
M  V30 1044 H 97.1347 -5.33998 -2.97752 0
M  V30 1045 H 101.309 -6.32523 -2.91354 0
M  V30 1046 H 98.9357 -7.03505 -2.88071 0
M  V30 1047 N 100.511 1.16574 -1.06058 0
M  V30 1048 C 101.421 2.2452 -0.680282 0
M  V30 1049 C 102.437 1.71348 0.302604 0
M  V30 1050 O 103.613 2.00822 0.152513 0
M  V30 1051 C 100.678 3.46629 -0.0700315 0
M  V30 1052 C 99.7388 4.14849 -1.10448 0
M  V30 1053 C 98.9718 5.31129 -0.523256 0
M  V30 1054 O 99.1948 5.66514 0.664709 0
M  V30 1055 O 98.1288 5.88526 -1.26179 0
M  V30 1056 H 101.955 2.59355 -1.58015 0
M  V30 1057 H 99.5398 1.24043 -0.832694 0
M  V30 1058 H 101.422 4.20543 0.268667 0
M  V30 1059 H 100.097 3.13573 0.803353 0
M  V30 1060 H 99.0038 3.42916 -1.49532 0
M  V30 1061 H 100.337 4.51954 -1.94931 0
M  V30 1062 N 101.989 0.842826 1.3317 0
M  V30 1063 C 102.899 0.281444 2.32906 0
M  V30 1064 C 103.915 -0.594587 1.63526 0
M  V30 1065 O 105.091 -0.49777 1.95152 0
M  V30 1066 C 102.156 -0.530929 3.42611 0
M  V30 1067 C 101.217 0.369843 4.27704 0
M  V30 1068 C 100.45 -0.403853 5.3217 0
M  V30 1069 O 100.673 -1.63513 5.46461 0
M  V30 1070 O 99.6069 0.224199 6.01482 0
M  V30 1071 H 103.433 1.10744 2.82789 0
M  V30 1072 H 101.018 0.60545 1.36582 0
M  V30 1073 H 102.9 -0.992437 4.09547 0
M  V30 1074 H 101.575 -1.33392 2.94938 0
M  V30 1075 H 100.482 0.879275 3.6362 0
M  V30 1076 H 101.815 1.13771 4.78871 0
M  V30 1077 N 103.467 -1.45747 0.599634 0
M  V30 1078 C 104.397 -2.33235 -0.111306 0
M  V30 1079 C 105.378 -1.46359 -0.866781 0
M  V30 1080 O 106.563 -1.75146 -0.838904 0
M  V30 1081 C 103.693 -3.28932 -1.11451 0
M  V30 1082 C 102.647 -4.25381 -0.472772 0
M  V30 1083 C 101.973 -5.1071 -1.58365 0
M  V30 1084 C 103.273 -5.18831 0.600948 0
M  V30 1085 H 104.967 -2.92927 0.61919 0
M  V30 1086 H 102.513 -1.40857 0.299215 0
M  V30 1087 H 104.466 -3.89002 -1.62036 0
M  V30 1088 H 103.19 -2.67381 -1.8755 0
M  V30 1089 H 101.849 -3.66598 0.0121472 0
M  V30 1090 H 101.497 -4.45533 -2.33473 0
M  V30 1091 H 101.197 -5.7604 -1.15982 0
M  V30 1092 H 102.721 -5.73647 -2.09194 0
M  V30 1093 H 104.135 -5.73019 0.179491 0
M  V30 1094 H 102.532 -5.92595 0.946076 0
M  V30 1095 H 103.602 -4.6174 1.48068 0
M  V30 1096 N 104.945 -0.338344 -1.53925 0
M  V30 1097 C 106.173 0.261298 -2.05243 0
M  V30 1098 C 106.588 1.44625 -1.21363 0
M  V30 1099 O 105.945 1.80811 -0.247736 0
M  V30 1100 C 105.996 0.681412 -3.5502 0
M  V30 1101 O 105.717 -0.456414 -4.35716 0
M  V30 1102 C 107.218 1.34232 -4.22489 0
M  V30 1103 H 104.438 0.0513685 -0.669031 0
M  V30 1104 H 106.982 -0.488822 -1.98572 0
M  V30 1105 H 105.137 1.38148 -3.61931 0
M  V30 1106 H 105.551 -0.122564 -5.24357 0
M  V30 1107 H 107.025 1.58708 -5.28693 0
M  V30 1108 H 107.502 2.29426 -3.74514 0
M  V30 1109 H 108.108 0.684424 -4.19757 0
M  V30 1110 N 106.423 1.57458 -0.0668435 0
M  V30 1111 C 107.356 2.08033 0.93795 0
M  V30 1112 C 108.334 0.984321 1.29421 0
M  V30 1113 O 109.518 1.25736 1.40437 0
M  V30 1114 C 106.645 2.53388 2.24749 0
M  V30 1115 C 105.691 3.74376 2.04315 0
M  V30 1116 S 106.524 5.19303 1.30706 0
M  V30 1117 C 107.68 5.67986 2.62951 0
M  V30 1118 H 107.913 2.92935 0.50759 0
M  V30 1119 H 105.446 1.5371 0.145804 0
M  V30 1120 H 107.404 2.8018 3.00016 0
M  V30 1121 H 106.065 1.68763 2.64911 0
M  V30 1122 H 105.258 4.04083 3.01218 0
M  V30 1123 H 104.86 3.47931 1.37186 0
M  V30 1124 H 107.152 5.74528 3.5906 0
M  V30 1125 H 108.095 6.66955 2.3786 0
M  V30 1126 H 108.503 4.95781 2.69929 0
M  V30 1127 N 107.901 -0.206675 1.56239 0
M  V30 1128 C 109.126 -0.949474 1.8439 0
M  V30 1129 C 109.551 -1.76549 0.649016 0
M  V30 1130 O 108.909 -1.76782 -0.402231 0
M  V30 1131 C 108.957 -1.83078 3.10668 0
M  V30 1132 O 108.061 -2.9281 2.90407 0
M  V30 1133 H 107.402 -0.268033 0.607499 0
M  V30 1134 H 109.932 -0.215488 2.03462 0
M  V30 1135 H 109.942 -2.2377 3.41161 0
M  V30 1136 H 108.617 -1.23112 3.97261 0
M  V30 1137 H 107.194 -2.55956 2.71184 0
M  V30 1138 N 109.379 -1.50304 -0.473955 0
M  V30 1139 C 110.311 -1.65109 -1.58971 0
M  V30 1140 C 111.324 -0.532676 -1.53839 0
M  V30 1141 O 112.513 -0.805751 -1.59279 0
M  V30 1142 C 109.613 -1.61684 -2.97845 0
M  V30 1143 C 108.786 -2.8951 -3.27876 0
M  V30 1144 C 107.845 -2.78768 -4.4629 0
M  V30 1145 O 106.871 -3.52722 -4.46739 0
M  V30 1146 N 108.073 -1.9213 -5.47783 0
M  V30 1147 H 110.838 -2.61347 -1.46689 0
M  V30 1148 H 108.399 -1.47732 -0.662324 0
M  V30 1149 H 110.391 -1.52114 -3.75024 0
M  V30 1150 H 108.961 -0.731925 -3.03911 0
M  V30 1151 H 108.181 -3.13228 -2.39336 0
M  V30 1152 H 109.469 -3.74199 -3.4475 0
M  V30 1153 H 108.867 -1.31353 -5.50239 0
M  V30 1154 H 107.424 -1.88466 -6.23958 0
M  V30 1155 N 110.857 0.726932 -1.39834 0
M  V30 1156 C 111.804 1.841 -1.39197 0
M  V30 1157 C 112.774 1.642 -0.250502 0
M  V30 1158 O 113.959 1.85494 -0.446846 0
M  V30 1159 C 111.099 3.21697 -1.24919 0
M  V30 1160 C 110.212 3.53247 -2.48678 0
M  V30 1161 C 109.347 4.80289 -2.26928 0
M  V30 1162 C 108.386 5.04707 -3.4632 0
M  V30 1163 N 107.523 6.22956 -3.23836 0
M  V30 1164 H 112.363 1.83979 -2.34427 0
M  V30 1165 H 109.9 0.898876 -1.16442 0
M  V30 1166 H 111.858 4.01137 -1.1465 0
M  V30 1167 H 110.488 3.21076 -0.333153 0
M  V30 1168 H 109.54 2.68447 -2.69519 0
M  V30 1169 H 110.852 3.67205 -3.37582 0
M  V30 1170 H 110.006 5.67725 -2.13947 0
M  V30 1171 H 108.745 4.68519 -1.35431 0
M  V30 1172 H 107.75 4.1573 -3.5979 0
M  V30 1173 H 108.975 5.18357 -4.38729 0
M  V30 1174 H 106.921 6.12459 -2.35011 0
M  V30 1175 H 106.838 6.37539 -4.063 0
M  V30 1176 H 108.106 7.1321 -3.14566 0
M  V30 1177 N 112.336 1.25143 0.95797 0
M  V30 1178 C 113.284 1.05019 2.07542 0
M  V30 1179 C 114.278 -0.0178751 1.69391 0
M  V30 1180 O 115.484 0.137472 1.79474 0
M  V30 1181 H 111.859 0.32265 0.679265 0
M  V30 1182 H 113.83 1.99759 2.21673 0
M  V30 1183 C 112.579 0.682074 3.40944 0
M  V30 1184 H 111.902 1.49573 3.70767 0
M  V30 1185 H 113.342 0.580945 4.20001 0
M  V30 1186 C 111.801 -0.611608 3.31302 0
M  V30 1187 O 112.331 -1.65465 3.66038 0
M  V30 1188 N 110.537 -0.595982 2.84423 0
M  V30 1189 H 110.084 0.253192 2.56353 0
M  V30 1190 H 110.042 -1.46173 2.78354 0
M  V30 1191 N 113.814 -1.1601 1.06675 0
M  V30 1192 C 115.062 -1.86264 0.784229 0
M  V30 1193 C 115.383 -1.82328 -0.691488 0
M  V30 1194 O 114.653 -1.25947 -1.50047 0
M  V30 1195 H 113.233 -0.689621 0.28711 0
M  V30 1196 H 115.895 -1.40664 1.34906 0
M  V30 1197 H 114.991 -2.91595 1.11259 0
M  V30 1198 N 115.292 -0.849877 -1.32721 0
M  V30 1199 C 116.54 -0.450032 -1.97026 0
M  V30 1200 C 116.861 0.996604 -1.67609 0
M  V30 1201 O 116.131 1.6958 -0.980786 0
M  V30 1202 H 114.711 -0.163426 -0.728904 0
M  V30 1203 H 117.373 -1.08526 -1.6189 0
M  V30 1204 H 116.469 -0.591146 -3.0645 0
M  V30 1205 N 116.77 1.45427 -0.607355 0
M  V30 1206 C 117.718 2.32269 0.12411 0
M  V30 1207 C 118.712 1.45955 0.859854 0
M  V30 1208 O 119.918 1.6244 0.775447 0
M  V30 1209 H 116.293 0.749691 0.0588839 0
M  V30 1210 H 118.264 2.91743 -0.626762 0
M  V30 1211 C 117.013 3.29567 1.1082 0
M  V30 1212 H 116.336 3.95978 0.551492 0
M  V30 1213 H 117.776 3.93061 1.58995 0
M  V30 1214 C 116.235 2.56722 2.18164 0
M  V30 1215 O 116.765 2.34842 3.25902 0
M  V30 1216 N 114.971 2.16861 1.93442 0
M  V30 1217 H 114.518 2.34855 1.05834 0
M  V30 1218 H 114.476 1.68444 2.65469 0
M  V30 1219 N 118.248 0.346503 1.53744 0
M  V30 1220 C 119.494 -0.249473 2.0126 0
M  V30 1221 C 119.827 -1.49965 1.23386 0
M  V30 1222 O 119.102 -1.91811 0.32229 0
M  V30 1223 C 119.385 -0.560643 3.55709 0
M  V30 1224 C 119.238 0.701836 4.44291 0
M  V30 1225 C 120.557 -1.36905 4.18264 0
M  V30 1226 H 117.676 -0.0891987 0.731582 0
M  V30 1227 H 120.318 0.467624 1.84156 0
M  V30 1228 H 118.468 -1.17156 3.70414 0
M  V30 1229 H 120.14 1.33974 4.41417 0
M  V30 1230 H 118.383 1.32612 4.13033 0
M  V30 1231 H 119.054 0.43933 5.50249 0
M  V30 1232 H 121.53 -0.852448 4.07275 0
M  V30 1233 H 120.406 -1.55553 5.26398 0
M  V30 1234 H 120.667 -2.37203 3.73078 0
M  V30 1235 N 119.726 -1.57421 0.075193 0
M  V30 1236 C 120.656 -2.15942 -0.888324 0
M  V30 1237 C 121.637 -1.08737 -1.30806 0
M  V30 1238 O 122.822 -1.36787 -1.37851 0
M  V30 1239 C 119.952 -2.72379 -2.1547 0
M  V30 1240 C 118.906 -3.8478 -1.87425 0
M  V30 1241 C 118.232 -4.27834 -3.20721 0
M  V30 1242 C 119.532 -5.08869 -1.17684 0
M  V30 1243 H 121.226 -2.96705 -0.400799 0
M  V30 1244 H 118.772 -1.42723 -0.191342 0
M  V30 1245 H 120.725 -3.11965 -2.83295 0
M  V30 1246 H 119.449 -1.88841 -2.6647 0
M  V30 1247 H 118.108 -3.45703 -1.22004 0
M  V30 1248 H 117.756 -3.41214 -3.6957 0
M  V30 1249 H 117.456 -5.03605 -3.02746 0
M  V30 1250 H 118.98 -4.70039 -3.89738 0
M  V30 1251 H 120.394 -5.4575 -1.75584 0
M  V30 1252 H 118.791 -5.8994 -1.09956 0
M  V30 1253 H 119.861 -4.84648 -0.156453 0
M  V30 1254 N 121.204 0.198386 -1.56346 0
M  V30 1255 C 122.136 1.26987 -1.90806 0
M  V30 1256 C 123.149 1.41877 -0.798419 0
M  V30 1257 O 124.338 1.42362 -1.07682 0
M  V30 1258 C 121.438 2.64246 -2.12196 0
M  V30 1259 C 120.611 2.71007 -3.43328 0
M  V30 1260 C 119.67 3.89439 -3.5387 0
M  V30 1261 O 118.696 3.76695 -4.26719 0
M  V30 1262 N 119.898 5.04752 -2.86715 0
M  V30 1263 H 122.663 0.977433 -2.83313 0
M  V30 1264 H 120.224 0.388322 -1.57174 0
M  V30 1265 H 122.216 3.41896 -2.1654 0
M  V30 1266 H 120.786 2.85992 -1.26204 0
M  V30 1267 H 120.006 1.79657 -3.50881 0
M  V30 1268 H 121.294 2.72512 -4.29668 0
M  V30 1269 H 120.692 5.18004 -2.2735 0
M  V30 1270 H 119.249 5.8036 -2.96691 0
M  V30 1271 N 122.682 1.50554 0.465978 0
M  V30 1272 C 123.615 1.64436 1.58227 0
M  V30 1273 C 124.593 0.492367 1.54966 0
M  V30 1274 O 125.777 0.712536 1.74514 0
M  V30 1275 C 122.904 1.63165 2.96808 0
M  V30 1276 C 121.95 2.83987 3.18204 0
M  V30 1277 S 122.783 4.45219 2.97557 0
M  V30 1278 C 123.939 4.46649 4.3847 0
M  V30 1279 H 124.172 2.58861 1.46213 0
M  V30 1280 H 121.705 1.3988 0.653678 0
M  V30 1281 H 123.663 1.63116 3.76701 0
M  V30 1282 H 122.324 0.69967 3.06208 0
M  V30 1283 H 121.517 2.79416 4.19455 0
M  V30 1284 H 121.119 2.81629 2.46092 0
M  V30 1285 H 123.411 4.20526 5.31191 0
M  V30 1286 H 124.354 5.48295 4.48082 0
M  V30 1287 H 124.762 3.76296 4.20787 0
M  V30 1288 N 124.16 -0.719506 1.40217 0
M  V30 1289 C 125.093 -1.84298 1.34571 0
M  V30 1290 C 126.071 -1.61149 0.216741 0
M  V30 1291 O 127.255 -1.84212 0.399756 0
M  V30 1292 C 124.382 -3.20568 1.09335 0
M  V30 1293 C 123.428 -3.62551 2.24631 0
M  V30 1294 S 124.261 -3.7012 3.87004 0
M  V30 1295 C 125.417 -5.09154 3.64024 0
M  V30 1296 H 125.65 -1.88807 2.2965 0
M  V30 1297 H 123.183 -0.885901 1.26456 0
M  V30 1298 H 125.141 -3.99246 0.954602 0
M  V30 1299 H 123.802 -3.13696 0.159164 0
M  V30 1300 H 122.995 -4.61483 2.02606 0
M  V30 1301 H 122.597 -2.91119 2.34789 0
M  V30 1302 H 124.889 -5.95955 3.22248 0
M  V30 1303 H 125.832 -5.36213 4.62473 0
M  V30 1304 H 126.24 -4.79562 2.97793 0
M  V30 1305 N 125.638 -1.25649 -0.95132 0
M  V30 1306 C 126.868 -1.13179 -1.72841 0
M  V30 1307 C 127.276 0.316827 -1.86528 0
M  V30 1308 O 126.619 1.22948 -1.3649 0
M  V30 1309 C 126.681 -1.71644 -3.15878 0
M  V30 1310 C 126.345 -3.20667 -3.25609 0
M  V30 1311 C 127.342 -4.17616 -3.09666 0
M  V30 1312 C 125.027 -3.6094 -3.49324 0
M  V30 1313 C 127.021 -5.52817 -3.17289 0
M  V30 1314 C 124.708 -4.96278 -3.56584 0
M  V30 1315 C 125.706 -5.92025 -3.40581 0
M  V30 1316 O 125.394 -7.24899 -3.47528 0
M  V30 1317 H 125.126 -0.395389 -0.54831 0
M  V30 1318 H 127.68 -1.66566 -1.20187 0
M  V30 1319 H 125.91 -1.12707 -3.69911 0
M  V30 1320 H 127.599 -1.54225 -3.75459 0
M  V30 1321 H 128.365 -3.87842 -2.91211 0
M  V30 1322 H 124.244 -2.86907 -3.6084 0
M  V30 1323 H 127.788 -6.2753 -3.04716 0
M  V30 1324 H 123.685 -5.25716 -3.74556 0
M  V30 1325 H 124.453 -7.33039 -3.64138 0
M  V30 1326 N 127.117 1.15442 -1.07289 0
M  V30 1327 C 128.027 2.23786 -0.704057 0
M  V30 1328 C 129.043 1.7166 0.284413 0
M  V30 1329 O 130.219 2.00972 0.131205 0
M  V30 1330 C 127.284 3.46535 -0.106792 0
M  V30 1331 C 126.345 4.13654 -1.14842 0
M  V30 1332 C 125.578 5.30544 -0.57956 0
M  V30 1333 O 125.801 5.67187 0.604585 0
M  V30 1334 O 124.735 5.87154 -1.32414 0
M  V30 1335 H 128.561 2.57664 -1.60757 0
M  V30 1336 H 126.146 1.23152 -0.845803 0
M  V30 1337 H 128.028 4.20804 0.224048 0
M  V30 1338 H 126.703 3.14407 0.770049 0
M  V30 1339 H 125.61 3.4131 -1.5316 0
M  V30 1340 H 126.943 4.49861 -1.99714 0
M  V30 1341 N 128.595 0.856903 1.32268 0
M  V30 1342 C 129.542 0.301172 2.28827 0
M  V30 1343 C 130.512 -0.593104 1.5515 0
M  V30 1344 O 131.697 -0.527537 1.83362 0
M  V30 1345 C 128.837 -0.502523 3.41422 0
M  V30 1346 C 127.95 0.417797 4.29975 0
M  V30 1347 C 127.085 -0.398749 5.29701 0
M  V30 1348 C 126.124 0.518827 6.09897 0
M  V30 1349 N 125.261 -0.260674 7.01616 0
M  V30 1350 H 130.101 1.12983 2.75751 0
M  V30 1351 H 127.638 0.568582 1.35667 0
M  V30 1352 H 129.596 -0.984141 4.05426 0
M  V30 1353 H 128.226 -1.29599 2.95642 0
M  V30 1354 H 127.278 1.01781 3.66531 0
M  V30 1355 H 128.59 1.12191 4.86019 0
M  V30 1356 H 127.744 -0.943435 5.9932 0
M  V30 1357 H 126.483 -1.13622 4.7428 0
M  V30 1358 H 125.488 1.07538 5.39181 0
M  V30 1359 H 126.713 1.25495 6.67404 0
M  V30 1360 H 124.659 -0.981198 6.4862 0
M  V30 1361 H 124.576 0.384364 7.55022 0
M  V30 1362 H 125.844 -0.787014 7.75517 0
M  V30 1363 N 130.073 -1.45103 0.615059 0
M  V30 1364 C 131.484 -1.85654 0.197383 0
M  V30 1365 C 131.835 -1.51433 -1.24749 0
M  V30 1366 O 130.96 -0.944608 -1.94695 0
M  V30 1367 C 131.555 -3.36972 0.351448 0
M  V30 1368 C 130.114 -3.76398 -0.011593 0
M  V30 1369 C 129.261 -2.69024 0.672394 0
M  V30 1370 H 132.212 -1.35797 0.821263 0
M  V30 1371 H 132.233 -3.78239 -0.414227 0
M  V30 1372 H 131.745 -3.61847 1.40314 0
M  V30 1373 H 129.846 -3.5714 -1.06217 0
M  V30 1374 H 129.959 -4.77532 0.387265 0
M  V30 1375 H 128.323 -2.54465 0.109284 0
M  V30 1376 H 129.106 -2.96735 1.72636 0
M  V30 1377 N 131.551 -0.354651 -1.53558 0
M  V30 1378 C 132.461 0.50515 -2.29097 0
M  V30 1379 C 133.477 1.10223 -1.34636 0
M  V30 1380 O 134.653 1.11553 -1.67684 0
M  V30 1381 C 131.718 1.63479 -3.05738 0
M  V30 1382 C 130.779 1.06636 -4.15845 0
M  V30 1383 C 130.012 2.14217 -4.88822 0
M  V30 1384 O 130.235 3.35137 -4.61562 0
M  V30 1385 O 129.169 1.77887 -5.75013 0
M  V30 1386 H 132.995 -0.109237 -3.03503 0
M  V30 1387 H 130.58 -0.119357 -1.48922 0
M  V30 1388 H 132.462 2.2918 -3.5363 0
M  V30 1389 H 131.137 2.23478 -2.34178 0
M  V30 1390 H 130.044 0.373565 -3.7223 0
M  V30 1391 H 131.377 0.511081 -4.89539 0
M  V30 1392 N 133.029 1.57378 -0.0835403 0
M  V30 1393 C 134.445 1.57246 0.273109 0
M  V30 1394 C 134.645 1.09385 1.69225 0
M  V30 1395 O 133.701 0.765051 2.40631 0
M  V30 1396 C 135.014 3.00614 0.0720628 0
M  V30 1397 C 136.562 3.12684 0.1407 0
M  V30 1398 C 137.037 4.57989 -0.0322094 0
M  V30 1399 N 138.528 4.63194 0.0230085 0
M  V30 1400 C 139.263 5.73335 -0.0861941 0
M  V30 1401 N 138.759 6.9235 -0.24958 0
M  V30 1402 N 140.552 5.62093 -0.0282886 0
M  V30 1403 H 132.703 1.86801 -1.0109 0
M  V30 1404 H 134.966 0.861687 -0.395222 0
M  V30 1405 H 134.672 3.39786 -0.907662 0
M  V30 1406 H 134.546 3.68193 0.81936 0
M  V30 1407 H 136.933 2.73391 1.11092 0
M  V30 1408 H 137.014 2.47719 -0.637896 0
M  V30 1409 H 136.658 4.97973 -0.999247 0
M  V30 1410 H 136.588 5.21 0.765937 0
M  V30 1411 H 139.079 3.77613 0.14722 0
M  V30 1412 H 139.392 7.72117 -0.324733 0
M  V30 1413 H 137.737 6.94415 -0.285097 0
M  V30 1414 H 140.928 4.67997 0.0981408 0
M  V30 1415 H 141.101 6.47895 -0.116845 0
M  V30 1416 N 134.507 -0.190092 1.56449 0
M  V30 1417 C 135.753 -0.906472 1.82084 0
M  V30 1418 C 136.108 -1.80677 0.661335 0
M  V30 1419 O 135.401 -1.88501 -0.343237 0
M  V30 1420 C 135.595 -1.75382 3.1141 0
M  V30 1421 C 135.424 -0.937053 4.39829 0
M  V30 1422 C 134.194 -0.619507 5.01488 0
M  V30 1423 C 136.392 -0.2874 5.13496 0
M  V30 1424 N 134.374 0.215367 6.13522 0
M  V30 1425 C 135.745 0.409454 6.18646 0
M  V30 1426 C 137.8 -0.203639 4.97483 0
M  V30 1427 C 136.503 1.1821 7.0952 0
M  V30 1428 C 138.529 0.555622 5.88784 0
M  V30 1429 C 137.891 1.24091 6.93384 0
M  V30 1430 H 133.99 -0.310931 0.717528 0
M  V30 1431 H 136.574 -0.174821 1.93914 0
M  V30 1432 H 134.745 -2.45703 3.00806 0
M  V30 1433 H 136.477 -2.41006 3.25112 0
M  V30 1434 H 133.232 -0.945126 4.64074 0
M  V30 1435 H 133.656 0.622562 6.74131 0
M  V30 1436 H 138.298 -0.719099 4.1664 0
M  V30 1437 H 136.016 1.70897 7.89823 0
M  V30 1438 H 139.602 0.621854 5.78467 0
M  V30 1439 H 138.482 1.81901 7.62812 0
M  V30 1440 N 135.985 -1.50799 -0.457987 0
M  V30 1441 C 137.21 -1.66496 -1.23668 0
M  V30 1442 C 137.635 -0.353288 -1.84752 0
M  V30 1443 O 136.993 0.684346 -1.67888 0
M  V30 1444 C 137.041 -2.76763 -2.3116 0
M  V30 1445 O 136.145 -2.38928 -3.36136 0
M  V30 1446 H 135.486 -0.555828 -0.363252 0
M  V30 1447 H 138.016 -1.9725 -0.543474 0
M  V30 1448 H 138.026 -3.00232 -2.76269 0
M  V30 1449 H 136.701 -3.71954 -1.86073 0
M  V30 1450 H 135.278 -2.25953 -2.96647 0
M  V30 1451 N 137.463 0.71206 -1.40597 0
M  V30 1452 C 138.71 1.47197 -1.39065 0
M  V30 1453 C 139.038 1.94499 0.00583891 0
M  V30 1454 O 138.293 1.68752 0.99102 0
M  V30 1455 C 138.592 2.71039 -2.32965 0
M  V30 1456 C 138.258 2.42484 -3.80148 0
M  V30 1457 C 136.92 2.34406 -4.20247 0
M  V30 1458 C 139.272 2.18598 -4.73143 0
M  V30 1459 C 136.6 2.00516 -5.51371 0
M  V30 1460 C 138.952 1.8622 -6.0457 0
M  V30 1461 C 137.616 1.76626 -6.43708 0
M  V30 1462 H 136.886 0.538634 -0.508876 0
M  V30 1463 H 139.533 0.815325 -1.73276 0
M  V30 1464 H 137.838 3.41558 -1.91951 0
M  V30 1465 H 139.535 3.29138 -2.29061 0
M  V30 1466 H 136.125 2.49659 -3.4838 0
M  V30 1467 H 140.309 2.23793 -4.42979 0
M  V30 1468 H 135.565 1.91628 -5.80593 0
M  V30 1469 H 139.739 1.66752 -6.76141 0
M  V30 1470 H 137.366 1.50133 -7.45228 0
M  V30 1471 N 138.941 1.26152 0.944643 0
M  V30 1472 C 140.169 1.14259 1.72489 0
M  V30 1473 C 140.584 -0.302555 1.8636 0
M  V30 1474 O 139.941 -1.20741 1.36849 0
M  V30 1475 C 139.992 1.80266 3.13347 0
M  V30 1476 O 139.713 3.19133 3.00143 0
M  V30 1477 C 141.214 1.74283 4.07603 0
M  V30 1478 H 138.434 0.398051 0.540181 0
M  V30 1479 H 140.978 1.66706 1.18446 0
M  V30 1480 H 139.133 1.31766 3.64303 0
M  V30 1481 H 139.547 3.51744 3.89071 0
M  V30 1482 H 141.021 2.25111 5.04013 0
M  V30 1483 H 141.498 0.708631 4.33446 0
M  V30 1484 H 142.104 2.22319 3.62567 0
M  V30 1485 N 140.419 -1.14872 1.07899 0
M  V30 1486 C 141.666 -1.85789 0.805532 0
M  V30 1487 C 141.994 -1.82649 -0.668561 0
M  V30 1488 O 141.249 -1.24858 -1.50695 0
M  V30 1489 C 141.548 -3.34223 1.26609 0
M  V30 1490 C 141.214 -3.57555 2.74709 0
M  V30 1491 C 139.876 -3.63631 3.1516 0
M  V30 1492 C 142.228 -3.66803 3.70277 0
M  V30 1493 C 139.556 -3.76473 4.49983 0
M  V30 1494 C 141.908 -3.8117 5.04869 0
M  V30 1495 C 140.572 -3.85494 5.44932 0
M  V30 1496 H 139.842 -0.679849 0.294765 0
M  V30 1497 H 142.489 -1.3572 1.35101 0
M  V30 1498 H 140.794 -3.86536 0.640103 0
M  V30 1499 H 142.491 -3.87511 1.03132 0
M  V30 1500 H 139.081 -3.5347 2.42398 0
M  V30 1501 H 143.265 -3.61404 3.40149 0
M  V30 1502 H 138.521 -3.7808 4.80484 0
M  V30 1503 H 142.695 -3.87268 5.78789 0
M  V30 1504 H 140.322 -3.95197 6.49403 0
M  V30 1505 N 141.898 -0.863906 -1.31812 0
M  V30 1506 C 142.83 -0.272485 -2.27575 0
M  V30 1507 C 143.843 0.56104 -1.52827 0
M  V30 1508 O 145.032 0.384021 -1.7432 0
M  V30 1509 C 142.132 0.63283 -3.32939 0
M  V30 1510 C 141.305 -0.166902 -4.37081 0
M  V30 1511 C 140.364 0.665608 -5.21973 0
M  V30 1512 O 139.39 0.0958091 -5.69119 0
M  V30 1513 N 140.592 1.9787 -5.45736 0
M  V30 1514 H 143.357 -1.0954 -2.78964 0
M  V30 1515 H 140.918 -0.724791 -1.4477 0
M  V30 1516 H 142.91 1.19532 -3.86645 0
M  V30 1517 H 141.48 1.35642 -2.81638 0
M  V30 1518 H 140.7 -0.910838 -3.83533 0
M  V30 1519 H 141.988 -0.715874 -5.03739 0
M  V30 1520 H 141.386 2.46484 -5.09178 0
M  V30 1521 H 139.943 2.48911 -6.024 0
M  V30 1522 N 143.376 1.44774 -0.622745 0
M  V30 1523 C 144.604 2.06487 -0.130722 0
M  V30 1524 C 145.019 1.46476 1.19123 0
M  V30 1525 O 144.376 0.584502 1.72887 0
M  V30 1526 C 144.427 3.615 -0.000807207 0
M  V30 1527 O 144.148 4.19274 -1.27048 0
M  V30 1528 C 145.649 4.40229 0.520898 0
M  V30 1529 H 142.869 0.666704 -0.0758106 0
M  V30 1530 H 145.413 1.85779 -0.854774 0
M  V30 1531 H 143.568 3.81498 0.673643 0
M  V30 1532 H 143.982 5.12622 -1.1099 0
M  V30 1533 H 145.456 5.49144 0.560838 0
M  V30 1534 H 145.933 4.1108 1.54627 0
M  V30 1535 H 146.539 4.25131 -0.120018 0
M  V30 1536 N 144.854 0.36279 1.53368 0
M  V30 1537 C 146.084 -0.228281 2.05335 0
M  V30 1538 C 146.492 -1.43226 1.23625 0
M  V30 1539 O 145.835 -1.81717 0.269206 0
M  V30 1540 C 145.897 -0.688549 3.52845 0
M  V30 1541 C 145.561 0.398362 4.5526 0
M  V30 1542 C 146.558 1.24732 5.04716 0
M  V30 1543 C 144.243 0.557805 4.99193 0
M  V30 1544 C 146.237 2.2411 5.96702 0
M  V30 1545 C 143.924 1.55495 5.90986 0
M  V30 1546 C 144.922 2.39503 6.39631 0
M  V30 1547 O 144.61 3.37517 7.29615 0
M  V30 1548 H 144.342 -0.044395 0.674541 0
M  V30 1549 H 146.896 0.518668 1.98744 0
M  V30 1550 H 145.126 -1.48706 3.56964 0
M  V30 1551 H 146.815 -1.20231 3.87685 0
M  V30 1552 H 147.581 1.13532 4.71525 0
M  V30 1553 H 143.46 -0.0862959 4.60919 0
M  V30 1554 H 147.004 2.89718 6.34594 0
M  V30 1555 H 142.901 1.66744 6.23592 0
M  V30 1556 H 143.669 3.33213 7.47604 0
M  V30 1557 N 146.332 -1.57332 0.0918853 0
M  V30 1558 C 147.295 -2.12708 -0.85369 0
M  V30 1559 C 148.295 -1.05561 -1.213 0
M  V30 1560 O 149.485 -1.31461 -1.14296 0
M  V30 1561 C 146.617 -2.64503 -2.15061 0
M  V30 1562 H 147.81 -2.97573 -0.3729 0
M  V30 1563 H 145.363 -1.55509 -0.157072 0
M  V30 1564 H 146.098 -1.83149 -2.67632 0
M  V30 1565 H 145.883 -3.4284 -1.90272 0
M  V30 1566 H 147.373 -3.07351 -2.82711 0
M  V30 1567 N 147.81 0.181792 -1.56548 0
M  V30 1568 C 149.05 0.906711 -1.83189 0
M  V30 1569 C 149.414 1.79882 -0.671312 0
M  V30 1570 O 150.615 2.56054 -0.81792 0
M  V30 1571 C 148.886 1.69023 -3.14906 0
M  V30 1572 S 150.445 2.46535 -3.62996 0
M  V30 1573 H 147.263 0.303877 -0.642791 0
M  V30 1574 H 149.865 0.169107 -1.94767 0
M  V30 1575 H 148.569 1.02571 -3.97376 0
M  V30 1576 H 148.1 2.46941 -3.06241 0
M  V30 1577 H 150.115 3.71014 -3.29489 0
M  V30 1578 N 149.288 1.51039 0.449983 0
M  V30 1579 C 150.218 1.74379 1.55288 0
M  V30 1580 C 151.199 0.593236 1.5942 0
M  V30 1581 O 152.384 0.834625 1.7535 0
M  V30 1582 C 149.514 1.85728 2.93466 0
M  V30 1583 C 148.468 3.01078 3.04197 0
M  V30 1584 C 147.794 2.97595 4.44231 0
M  V30 1585 C 149.094 4.41254 2.7945 0
M  V30 1586 H 150.788 2.66725 1.36008 0
M  V30 1587 H 148.334 1.2835 0.652864 0
M  V30 1588 H 150.287 2.0064 3.70569 0
M  V30 1589 H 149.011 0.900207 3.13949 0
M  V30 1590 H 147.67 2.85851 2.29531 0
M  V30 1591 H 147.318 1.99691 4.61663 0
M  V30 1592 H 147.018 3.75046 4.52343 0
M  V30 1593 H 148.542 3.14583 5.23326 0
M  V30 1594 H 149.956 4.56897 3.46292 0
M  V30 1595 H 148.353 5.20315 2.98985 0
M  V30 1596 H 149.423 4.52164 1.75144 0
M  V30 1597 N 150.766 -0.704594 1.40972 0
M  V30 1598 C 151.991 -1.49858 1.43378 0
M  V30 1599 C 152.416 -1.88061 0.038184 0
M  V30 1600 O 151.774 -1.5402 -0.956425 0
M  V30 1601 C 151.822 -2.74333 2.34038 0
M  V30 1602 O 150.926 -3.7147 1.7912 0
M  V30 1603 H 150.267 -0.45139 0.486974 0
M  V30 1604 H 152.797 -0.866832 1.8533 0
M  V30 1605 H 152.807 -3.22741 2.49604 0
M  V30 1606 H 151.482 -2.45863 3.35446 0
M  V30 1607 H 150.059 -3.30363 1.72958 0
M  V30 1608 N 152.244 -1.26651 -0.937939 0
M  V30 1609 C 153.66 -1.03834 -1.21205 0
M  V30 1610 C 153.86 0.234502 -2.00131 0
M  V30 1611 O 152.916 0.942767 -2.3424 0
M  V30 1612 C 154.229 -2.27167 -1.97017 0
M  V30 1613 C 155.777 -2.32101 -2.09996 0
M  V30 1614 C 156.252 -3.55136 -2.8921 0
M  V30 1615 N 157.743 -3.55632 -2.96783 0
M  V30 1616 C 158.478 -4.475 -3.58512 0
M  V30 1617 N 157.974 -5.4966 -4.21717 0
M  V30 1618 N 159.767 -4.35145 -3.55816 0
M  V30 1619 H 151.918 -2.08398 -0.410391 0
M  V30 1620 H 154.181 -0.916031 -0.244114 0
M  V30 1621 H 153.887 -3.19765 -1.46434 0
M  V30 1622 H 153.761 -2.31672 -2.97671 0
M  V30 1623 H 156.148 -1.40015 -2.59769 0
M  V30 1624 H 156.229 -2.31605 -1.08594 0
M  V30 1625 H 155.873 -4.47553 -2.40123 0
M  V30 1626 H 155.803 -3.5288 -3.90875 0
M  V30 1627 H 158.294 -2.81743 -2.51852 0
M  V30 1628 H 158.607 -6.15943 -4.66727 0
M  V30 1629 H 156.952 -5.53514 -4.20294 0
M  V30 1630 H 160.143 -3.5455 -3.05634 0
M  V30 1631 H 160.316 -5.06934 -4.03636 0
M  V30 1632 N 153.722 1.14298 -1.08507 0
M  V30 1633 C 154.971 1.84708 -0.810305 0
M  V30 1634 C 155.284 1.83903 0.666271 0
M  V30 1635 O 156.49 2.50112 1.05624 0
M  V30 1636 C 154.946 3.31572 -1.39957 0
M  V30 1637 C 154.554 3.40791 -2.90801 0
M  V30 1638 C 156.298 4.07087 -1.20334 0
M  V30 1639 C 154.205 4.81872 -3.4286 0
M  V30 1640 H 153.135 0.691985 -0.299454 0
M  V30 1641 H 155.786 1.28841 -1.30661 0
M  V30 1642 H 154.168 3.87183 -0.830976 0
M  V30 1643 H 155.342 2.95225 -3.53806 0
M  V30 1644 H 153.657 2.78732 -3.0935 0
M  V30 1645 H 156.254 5.11225 -1.56693 0
M  V30 1646 H 156.597 4.16054 -0.143237 0
M  V30 1647 H 157.13 3.57779 -1.73893 0
M  V30 1648 H 153.869 4.78094 -4.48449 0
M  V30 1649 H 153.389 5.27972 -2.84615 0
M  V30 1650 H 155.068 5.50765 -3.39509 0
M  V30 1651 N 155.201 0.870884 1.31352 0
M  V30 1652 C 156.617 0.562932 1.49343 0
M  V30 1653 C 156.817 -0.902725 1.80148 0
M  V30 1654 O 155.873 -1.68484 1.88067 0
M  V30 1655 C 157.186 1.46393 2.62659 0
M  V30 1656 C 158.734 1.46607 2.76542 0
M  V30 1657 C 159.209 2.35266 3.92955 0
M  V30 1658 N 160.7 2.33151 4.00243 0
M  V30 1659 C 161.435 2.98471 4.89594 0
M  V30 1660 N 160.931 3.72964 5.8384 0
M  V30 1661 N 162.724 2.87775 4.82848 0
M  V30 1662 H 154.875 1.81923 1.09626 0
M  V30 1663 H 157.138 0.777934 0.541777 0
M  V30 1664 H 156.844 2.50689 2.46674 0
M  V30 1665 H 156.718 1.16314 3.58819 0
M  V30 1666 H 159.105 0.43069 2.9194 0
M  V30 1667 H 159.186 1.8071 1.81046 0
M  V30 1668 H 158.83 3.38881 3.78315 0
M  V30 1669 H 158.76 1.98487 4.87761 0
M  V30 1670 H 161.251 1.79006 3.32814 0
M  V30 1671 H 161.564 4.19932 6.4875 0
M  V30 1672 H 159.909 3.77073 5.83816 0
M  V30 1673 H 163.1 2.29116 4.08195 0
M  V30 1674 H 163.273 3.38961 5.52277 0
M  V30 1675 N 156.679 -1.44442 0.630414 0
M  V30 1676 C 157.642 -2.29107 -0.0652523 0
M  V30 1677 C 158.642 -1.41002 -0.772995 0
M  V30 1678 O 159.832 -1.62881 -0.617692 0
M  V30 1679 C 156.964 -3.22564 -1.10296 0
M  V30 1680 H 158.157 -2.92103 0.679401 0
M  V30 1681 H 155.71 -1.51343 0.390517 0
M  V30 1682 H 156.445 -2.64416 -1.87762 0
M  V30 1683 H 156.23 -3.87491 -0.59941 0
M  V30 1684 H 157.72 -3.86167 -1.5895 0
M  V30 1685 N 158.157 -0.370918 -1.53173 0
M  V30 1686 C 159.089 0.507823 -2.23503 0
M  V30 1687 C 160.102 1.04182 -1.251 0
M  V30 1688 O 161.291 0.947286 -1.5129 0
M  V30 1689 C 158.391 1.71447 -2.92334 0
M  V30 1690 C 157.564 1.31105 -4.17289 0
M  V30 1691 C 156.623 2.38035 -4.69282 0
M  V30 1692 O 155.649 2.00204 -5.32829 0
M  V30 1693 N 156.851 3.69697 -4.47554 0
M  V30 1694 H 159.616 -0.0946382 -2.99551 0
M  V30 1695 H 157.177 -0.196358 -1.60705 0
M  V30 1696 H 159.169 2.42469 -3.24023 0
M  V30 1697 H 157.739 2.22368 -2.19707 0
M  V30 1698 H 156.959 0.430462 -3.91843 0
M  V30 1699 H 158.247 1.0179 -4.98514 0
M  V30 1700 H 157.645 4.03205 -3.9679 0
M  V30 1701 H 156.202 4.36807 -4.8378 0
M  V30 1702 N 159.635 1.57281 -0.100228 0
M  V30 1703 C 160.565 2.17328 0.853857 0
M  V30 1704 C 161.546 1.10804 1.2906 0
M  V30 1705 O 162.731 1.38963 1.35657 0
M  V30 1706 C 159.861 2.75772 2.11109 0
M  V30 1707 C 158.815 3.87713 1.81279 0
M  V30 1708 C 158.141 4.32882 3.13874 0
M  V30 1709 C 159.441 5.10677 1.09574 0
M  V30 1710 H 161.135 2.97305 0.353545 0
M  V30 1711 H 158.681 1.43009 0.168612 0
M  V30 1712 H 160.634 3.16433 2.78296 0
M  V30 1713 H 159.358 1.93057 2.63432 0
M  V30 1714 H 158.017 3.476 1.16489 0
M  V30 1715 H 157.665 3.47051 3.64095 0
M  V30 1716 H 157.365 5.08358 2.94696 0
M  V30 1717 H 158.889 4.7618 3.82211 0
M  V30 1718 H 160.303 5.48474 1.66879 0
M  V30 1719 H 158.7 5.91615 1.00557 0
M  V30 1720 H 159.77 4.84835 0.0793299 0
M  V30 1721 N 161.113 -0.173488 1.56642 0
M  V30 1722 C 162.076 -1.19859 1.95362 0
M  V30 1723 C 163.076 -1.37296 0.83704 0
M  V30 1724 O 164.266 -1.34739 1.10413 0
M  V30 1725 C 161.398 -2.56405 2.24654 0
M  V30 1726 H 162.591 -0.867062 2.87092 0
M  V30 1727 H 160.144 -0.415853 1.50666 0
M  V30 1728 H 160.879 -2.94576 1.35631 0
M  V30 1729 H 160.664 -2.45115 3.06041 0
M  V30 1730 H 162.154 -3.30287 2.5554 0
M  V30 1731 N 162.591 -1.51276 -0.441967 0
M  V30 1732 C 163.816 -1.67799 -1.21895 0
M  V30 1733 C 164.241 -0.372864 -1.84367 0
M  V30 1734 O 163.599 0.666501 -1.68604 0
M  V30 1735 C 163.647 -2.79199 -2.28211 0
M  V30 1736 O 162.751 -2.42479 -3.33583 0
M  V30 1737 H 162.092 -0.559649 -0.357336 0
M  V30 1738 H 164.622 -1.97815 -0.522522 0
M  V30 1739 H 164.632 -3.03146 -2.73069 0
M  V30 1740 H 163.307 -3.73906 -1.82118 0
M  V30 1741 H 161.884 -2.29087 -2.94234 0
M  V30 1742 N 164.069 0.697108 -1.41344 0
M  V30 1743 C 164.999 1.82353 -1.45841 0
M  V30 1744 C 165.98 1.67115 -0.317247 0
M  V30 1745 O 167.165 1.86871 -0.528474 0
M  V30 1746 C 164.295 3.20476 -1.33838 0
M  V30 1747 C 163.249 3.50415 -2.4575 0
M  V30 1748 C 162.575 4.87878 -2.18813 0
M  V30 1749 C 163.875 3.49546 -3.88091 0
M  V30 1750 H 165.569 1.78846 -2.40113 0
M  V30 1751 H 163.115 0.859028 -1.15571 0
M  V30 1752 H 165.068 3.98988 -1.35596 0
M  V30 1753 H 163.792 3.24604 -0.360498 0
M  V30 1754 H 162.451 2.74253 -2.43271 0
M  V30 1755 H 162.099 4.8863 -1.19371 0
M  V30 1756 H 161.799 5.08875 -2.93803 0
M  V30 1757 H 163.323 5.68702 -2.22284 0
M  V30 1758 H 164.737 4.18066 -3.92293 0
M  V30 1759 H 163.134 3.82075 -4.62751 0
M  V30 1760 H 164.204 2.48552 -4.16353 0
M  V30 1761 N 165.547 1.27147 0.931209 0
M  V30 1762 C 166.495 1.09398 2.05268 0
M  V30 1763 C 167.489 0.0180591 1.6939 0
M  V30 1764 O 168.695 0.17551 1.79142 0
M  V30 1765 H 165.07 0.336986 0.672268 0
M  V30 1766 H 167.041 2.04416 2.17386 0
M  V30 1767 C 165.79 0.75424 3.39421 0
M  V30 1768 H 165.113 1.57404 3.67511 0
M  V30 1769 H 166.553 0.669903 4.18674 0
M  V30 1770 C 165.012 -0.541197 3.32525 0
M  V30 1771 O 165.542 -1.57664 3.69466 0
M  V30 1772 N 163.748 -0.535517 2.85623 0
M  V30 1773 H 163.295 0.307511 2.55758 0
M  V30 1774 H 163.253 -1.40236 2.81392 0
M  V30 1775 N 167.025 -1.13721 1.09112 0
M  V30 1776 C 168.273 -1.84559 0.823562 0
M  V30 1777 C 168.594 -1.83754 -0.652658 0
M  V30 1778 O 167.864 -1.29102 -1.47342 0
M  V30 1779 H 166.444 -0.683376 0.301673 0
M  V30 1780 H 169.106 -1.37771 1.37859 0
M  V30 1781 H 168.202 -2.8917 1.17419 0
M  V30 1782 N 168.503 -0.877838 -1.30888 0
M  V30 1783 C 169.45 -0.337538 -2.28318 0
M  V30 1784 C 170.42 0.568346 -1.56074 0
M  V30 1785 O 171.605 0.498298 -1.84178 0
M  V30 1786 C 168.745 0.448142 -3.42178 0
M  V30 1787 C 167.858 -0.48615 -4.29256 0
M  V30 1788 C 166.993 0.314427 -5.30269 0
M  V30 1789 C 166.032 -0.615791 -6.08995 0
M  V30 1790 N 165.169 0.14902 -7.01942 0
M  V30 1791 H 170.009 -1.17356 -2.73919 0
M  V30 1792 H 167.546 -0.590094 -1.34745 0
M  V30 1793 H 169.504 0.919517 -4.06941 0
M  V30 1794 H 168.134 1.24879 -2.97666 0
M  V30 1795 H 167.186 -1.076 -3.64865 0
M  V30 1796 H 168.498 -1.19909 -4.84173 0
M  V30 1797 H 167.652 0.847969 -6.00745 0
M  V30 1798 H 166.391 1.06062 -4.76027 0
M  V30 1799 H 165.396 -1.16102 -5.37401 0
M  V30 1800 H 166.621 -1.36097 -6.65323 0
M  V30 1801 H 164.567 0.877884 -6.50099 0
M  V30 1802 H 164.484 -0.504433 -7.54315 0
M  V30 1803 H 165.752 0.663537 -7.76671 0
M  V30 1804 N 169.982 1.44106 -0.638065 0
M  V30 1805 C 170.912 2.33448 0.0494287 0
M  V30 1806 C 171.893 1.48606 0.827672 0
M  V30 1807 O 173.078 1.77308 0.792173 0
M  V30 1808 C 170.208 3.31771 1.02691 0
M  V30 1809 C 169.162 4.26485 0.359823 0
M  V30 1810 C 168.488 5.14729 1.44769 0
M  V30 1811 C 169.788 5.17056 -0.738296 0
M  V30 1812 H 171.482 2.91183 -0.696636 0
M  V30 1813 H 169.028 1.40014 -0.336456 0
M  V30 1814 H 170.981 3.93161 1.51666 0
M  V30 1815 H 169.705 2.7226 1.80395 0
M  V30 1816 H 168.364 3.66437 -0.10934 0
M  V30 1817 H 168.012 4.51566 2.21578 0
M  V30 1818 H 167.712 5.78913 1.00668 0
M  V30 1819 H 169.236 5.78991 1.93911 0
M  V30 1820 H 170.65 5.72342 -0.331354 0
M  V30 1821 H 169.047 5.89879 -1.10286 0
M  V30 1822 H 170.117 4.57652 -1.60258 0
M  V30 1823 N 171.46 0.379036 1.52974 0
M  V30 1824 C 172.407 -0.461048 2.26148 0
M  V30 1825 C 173.377 -1.06637 1.27349 0
M  V30 1826 O 174.562 -1.09633 1.56157 0
M  V30 1827 C 171.702 -1.58782 3.06402 0
M  V30 1828 C 170.815 -1.00636 4.20115 0
M  V30 1829 C 169.95 -2.10334 4.87784 0
M  V30 1830 C 168.989 -1.49724 5.93506 0
M  V30 1831 N 168.126 -2.5331 6.54812 0
M  V30 1832 H 172.966 0.169429 2.97518 0
M  V30 1833 H 170.503 0.0953806 1.4679 0
M  V30 1834 H 172.461 -2.25174 3.51215 0
M  V30 1835 H 171.091 -2.18876 2.37261 0
M  V30 1836 H 170.143 -0.232332 3.7969 0
M  V30 1837 H 171.455 -0.523343 4.96047 0
M  V30 1838 H 170.609 -2.84519 5.35849 0
M  V30 1839 H 169.348 -2.61992 4.11353 0
M  V30 1840 H 168.353 -0.740598 5.44789 0
M  V30 1841 H 169.578 -0.988732 6.71864 0
M  V30 1842 H 167.524 -3.04156 5.81227 0
M  V30 1843 H 167.441 -2.09734 7.26325 0
M  V30 1844 H 168.709 -3.27155 7.07524 0
M  V30 1845 N 172.938 -1.57226 0.108567 0
M  V30 1846 C 174.215 -1.86333 -0.594939 0
M  V30 1847 C 174.595 -1.00788 -1.85486 0
M  V30 1848 O 173.943 -0.0839293 -2.28346 0
M  V30 1849 C 174.153 -3.37265 -0.897405 0
M  V30 1850 C 175.501 -4.05629 -1.25501 0
M  V30 1851 O 176.525 -3.42224 -0.987998 0
M  V30 1852 O 175.384 -5.17531 -1.75567 0
M  V30 1853 H 172.478 -0.771018 -0.2991 0
M  V30 1854 H 175.024 -1.69102 0.142283 0
M  V30 1855 H 173.796 -3.913 -0.00413806 0
M  V30 1856 H 173.419 -3.59889 -1.69014 0
M  V30 1857 N 174.416 0.165178 -1.56732 0
M  V30 1858 C 175.379 1.18822 -1.95995 0
M  V30 1859 C 176.379 1.3685 -0.84431 0
M  V30 1860 O 177.569 1.34152 -1.11126 0
M  V30 1861 C 174.701 2.5521 -2.26011 0
M  V30 1862 H 175.894 0.851825 -2.87548 0
M  V30 1863 H 173.447 0.407857 -1.50885 0
M  V30 1864 H 174.182 2.93852 -1.37191 0
M  V30 1865 H 173.967 2.43489 -3.07336 0
M  V30 1866 H 175.457 3.28927 -2.57288 0
M  V30 1867 N 175.894 1.51508 0.433938 0
M  V30 1868 C 176.804 1.75917 1.5521 0
M  V30 1869 C 177.82 0.643545 1.61662 0
M  V30 1870 O 178.996 0.926183 1.7884 0
M  V30 1871 C 176.061 1.88213 2.91164 0
M  V30 1872 C 175.122 3.12074 2.94802 0
M  V30 1873 C 174.355 3.23774 4.24271 0
M  V30 1874 O 174.578 2.4133 5.16833 0
M  V30 1875 O 173.512 4.16774 4.34262 0
M  V30 1876 H 177.338 2.70777 1.37527 0
M  V30 1877 H 174.923 1.36051 0.617293 0
M  V30 1878 H 176.805 1.98267 3.71845 0
M  V30 1879 H 175.48 0.965413 3.08968 0
M  V30 1880 H 174.387 3.07497 2.13065 0
M  V30 1881 H 175.72 4.03446 2.81943 0
M  V30 1882 N 177.372 -0.689602 1.41712 0
M  V30 1883 C 178.319 -1.80345 1.44029 0
M  V30 1884 C 179.289 -1.63478 0.293948 0
M  V30 1885 O 180.474 -1.84244 0.495869 0
M  V30 1886 C 177.614 -3.18272 1.33405 0
M  V30 1887 C 176.727 -3.46529 2.57956 0
M  V30 1888 C 175.862 -4.74103 2.39582 0
M  V30 1889 C 174.901 -4.95347 3.5958 0
M  V30 1890 N 174.038 -6.14151 3.40239 0
M  V30 1891 H 178.878 -1.77698 2.39222 0
M  V30 1892 H 176.415 -0.867688 1.18784 0
M  V30 1893 H 178.373 -3.97956 1.25246 0
M  V30 1894 H 177.003 -3.2008 0.418164 0
M  V30 1895 H 176.055 -2.61207 2.76542 0
M  V30 1896 H 177.367 -3.58126 3.47199 0
M  V30 1897 H 176.521 -5.61853 2.28924 0
M  V30 1898 H 175.26 -4.64763 1.47805 0
M  V30 1899 H 174.265 -4.06044 3.70686 0
M  V30 1900 H 175.49 -5.06542 4.52318 0
M  V30 1901 H 173.436 -6.06013 2.51167 0
M  V30 1902 H 173.353 -6.26543 4.23061 0
M  V30 1903 H 174.621 -7.04619 3.33365 0
M  V30 1904 N 178.85 -1.27639 -0.924453 0
M  V30 1905 C 180.261 -1.12834 -1.48746 0
M  V30 1906 C 180.612 0.285505 -1.94112 0
M  V30 1907 O 179.737 1.17874 -1.81479 0
M  V30 1908 C 180.332 -2.04217 -2.70334 0
M  V30 1909 C 178.891 -1.93509 -3.22848 0
M  V30 1910 C 178.038 -1.96583 -1.95577 0
M  V30 1911 H 180.989 -1.40484 -0.738233 0
M  V30 1912 H 181.01 -1.59989 -3.4523 0
M  V30 1913 H 180.522 -3.07111 -2.37285 0
M  V30 1914 H 178.623 -0.936131 -3.60649 0
M  V30 1915 H 178.736 -2.79917 -3.88823 0
M  V30 1916 H 177.1 -1.4085 -2.12211 0
M  V30 1917 H 177.883 -3.01137 -1.64837 0
M  V30 1918 N 180.328 1.1314 -1.09713 0
M  V30 1919 C 181.574 1.84757 -0.836224 0
M  V30 1920 C 181.907 1.8347 0.636598 0
M  V30 1921 O 181.182 1.27491 1.46889 0
M  V30 1922 C 181.465 3.32782 -1.37578 0
M  V30 1923 C 181.318 3.42567 -2.91493 0
M  V30 1924 C 182.637 4.28307 -1.01198 0
M  V30 1925 H 179.756 0.67082 -0.305236 0
M  V30 1926 H 182.398 1.3278 -1.35903 0
M  V30 1927 H 180.548 3.77177 -0.931097 0
M  V30 1928 H 182.22 3.06862 -3.44432 0
M  V30 1929 H 180.463 2.83349 -3.28475 0
M  V30 1930 H 181.134 4.46674 -3.24324 0
M  V30 1931 H 183.61 3.91999 -1.39556 0
M  V30 1932 H 182.486 5.30307 -1.41653 0
M  V30 1933 H 182.747 4.42029 0.0794833 0
M  V30 1934 N 181.806 0.884767 1.30421 0
M  V30 1935 C 182.736 0.367574 2.30589 0
M  V30 1936 C 183.717 -0.549464 1.60981 0
M  V30 1937 O 184.902 -0.46336 1.88591 0
M  V30 1938 C 182.032 -0.418944 3.44764 0
M  V30 1939 C 180.986 0.406316 4.26067 0
M  V30 1940 C 180.312 -0.506793 5.32293 0
M  V30 1941 C 181.612 1.64832 4.95608 0
M  V30 1942 H 183.306 1.20462 2.74097 0
M  V30 1943 H 180.852 0.580695 1.31772 0
M  V30 1944 H 182.805 -0.791395 4.13902 0
M  V30 1945 H 181.529 -1.28964 3.0006 0
M  V30 1946 H 180.188 0.760903 3.58617 0
M  V30 1947 H 179.836 -1.37519 4.83836 0
M  V30 1948 H 179.536 0.0415828 5.87585 0
M  V30 1949 H 181.06 -0.875764 6.04287 0
M  V30 1950 H 182.474 1.34646 5.57264 0
M  V30 1951 H 180.871 2.13688 5.60765 0
M  V30 1952 H 181.941 2.39284 4.21748 0
M  V30 1953 N 183.284 -1.43765 0.645699 0
M  V30 1954 C 184.531 -2.01898 0.15604 0
M  V30 1955 C 184.859 -1.50887 -1.22733 0
M  V30 1956 O 184.114 -0.689271 -1.8316 0
M  V30 1957 C 184.413 -3.57238 0.107679 0
M  V30 1958 C 184.079 -4.27564 1.43178 0
M  V30 1959 C 182.741 -4.46492 1.7944 0
M  V30 1960 C 185.093 -4.67454 2.30513 0
M  V30 1961 C 182.421 -5.02573 3.02716 0
M  V30 1962 C 184.773 -5.24901 3.53074 0
M  V30 1963 C 183.437 -5.42046 3.89541 0
M  V30 1964 H 182.707 -0.738797 0.057099 0
M  V30 1965 H 185.354 -1.72341 0.834912 0
M  V30 1966 H 183.659 -3.86293 -0.654618 0
M  V30 1967 H 185.356 -3.99965 -0.287938 0
M  V30 1968 H 181.946 -4.13171 1.13963 0
M  V30 1969 H 186.13 -4.5253 2.0379 0
M  V30 1970 H 181.386 -5.14033 3.31028 0
M  V30 1971 H 185.56 -5.54758 4.20971 0
M  V30 1972 H 183.187 -5.85268 4.85145 0
M  V30 1973 N 184.763 -0.387143 -1.52771 0
M  V30 1974 C 186.01 0.195735 -2.01552 0
M  V30 1975 C 186.338 1.46995 -1.27369 0
M  V30 1976 O 185.593 1.92325 -0.361879 0
M  V30 1977 C 185.892 0.512209 -3.53711 0
M  V30 1978 C 185.558 -0.670202 -4.45891 0
M  V30 1979 C 184.22 -0.994586 -4.70809 0
M  V30 1980 C 186.572 -1.46134 -5.00294 0
M  V30 1981 C 183.9 -2.11169 -5.4738 0
M  V30 1982 C 186.252 -2.56903 -5.78086 0
M  V30 1983 C 184.916 -2.89852 -6.01284 0
M  V30 1984 H 184.186 0.0716246 -0.73753 0
M  V30 1985 H 186.833 -0.524046 -1.8419 0
M  V30 1986 H 185.138 1.31329 -3.69134 0
M  V30 1987 H 186.835 0.975804 -3.88946 0
M  V30 1988 H 183.425 -0.407366 -4.2666 0
M  V30 1989 H 187.609 -1.22397 -4.80971 0
M  V30 1990 H 182.865 -2.3707 -5.63567 0
M  V30 1991 H 187.039 -3.18608 -6.19243 0
M  V30 1992 H 184.666 -3.76533 -6.60399 0
M  V30 1993 N 186.241 1.57166 -0.116904 0
M  V30 1994 C 187.151 2.18745 0.847812 0
M  V30 1995 C 188.167 1.163 1.29423 0
M  V30 1996 O 189.343 1.48761 1.35765 0
M  V30 1997 C 186.408 2.77307 2.0809 0
M  V30 1998 C 185.469 3.94781 1.68661 0
M  V30 1999 C 184.702 4.50541 2.86091 0
M  V30 2000 O 184.925 4.05202 4.01456 0
M  V30 2001 O 183.859 5.41256 2.63298 0
M  V30 2002 H 187.685 3.01632 0.353778 0
M  V30 2003 H 185.27 1.49005 0.108599 0
M  V30 2004 H 187.152 3.14647 2.80313 0
M  V30 2005 H 185.827 1.97452 2.56504 0
M  V30 2006 H 184.734 3.62214 0.935518 0
M  V30 2007 H 186.067 4.76065 1.24991 0
M  V30 2008 N 187.719 -0.156864 1.56817 0
M  V30 2009 C 189.135 -0.50916 1.5126 0
M  V30 2010 C 189.335 -1.83897 0.823658 0
M  V30 2011 O 188.391 -2.49469 0.390055 0
M  V30 2012 C 189.704 -0.52857 2.96018 0
M  V30 2013 C 191.252 -0.614771 3.06903 0
M  V30 2014 C 191.727 -0.664938 4.53147 0
M  V30 2015 N 193.218 -0.727433 4.57452 0
M  V30 2016 C 193.953 -0.787067 5.67973 0
M  V30 2017 N 193.449 -0.806649 6.88088 0
M  V30 2018 N 195.242 -0.827195 5.5598 0
M  V30 2019 H 187.393 0.714935 2.00006 0
M  V30 2020 H 189.656 0.259526 0.911784 0
M  V30 2021 H 189.362 0.380154 3.49639 0
M  V30 2022 H 189.236 -1.36998 3.51442 0
M  V30 2023 H 191.623 -1.51392 2.53307 0
M  V30 2024 H 191.704 0.253597 2.5454 0
M  V30 2025 H 191.348 0.230011 5.07379 0
M  V30 2026 H 191.278 -1.54966 5.03282 0
M  V30 2027 H 193.769 -0.719998 3.70978 0
M  V30 2028 H 194.082 -0.853727 7.6807 0
M  V30 2029 H 192.427 -0.774687 6.90669 0
M  V30 2030 H 195.618 -0.808998 4.61056 0
M  V30 2031 H 195.791 -0.870206 6.4213 0
M  V30 2032 N 189.197 -1.51736 -0.425897 0
M  V30 2033 C 190.422 -1.69082 -1.20108 0
M  V30 2034 C 190.847 -0.392398 -1.83962 0
M  V30 2035 O 190.205 0.64858 -1.69302 0
M  V30 2036 C 190.253 -2.81604 -2.25237 0
M  V30 2037 O 189.357 -2.46004 -3.30992 0
M  V30 2038 H 188.698 -0.563408 -0.35138 0
M  V30 2039 H 191.228 -1.98358 -0.501512 0
M  V30 2040 H 191.238 -3.06025 -2.69838 0
M  V30 2041 H 189.913 -3.75817 -1.78142 0
M  V30 2042 H 188.49 -2.32195 -2.91787 0
M  V30 2043 N 190.675 0.682077 -1.42076 0
M  V30 2044 C 191.921 1.44428 -1.42367 0
M  V30 2045 C 192.254 1.94164 -0.0373056 0
M  V30 2046 O 191.529 1.70429 0.937239 0
M  V30 2047 C 191.812 2.64654 -2.44194 0
M  V30 2048 C 191.665 2.20596 -3.91991 0
M  V30 2049 C 192.984 3.66865 -2.431 0
M  V30 2050 H 190.103 0.523834 -0.518428 0
M  V30 2051 H 192.745 0.77576 -1.73442 0
M  V30 2052 H 190.895 3.2169 -2.17826 0
M  V30 2053 H 192.567 1.68783 -4.29313 0
M  V30 2054 H 190.81 1.52242 -4.06208 0
M  V30 2055 H 191.481 3.06921 -4.58807 0
M  V30 2056 H 193.957 3.19531 -2.66532 0
M  V30 2057 H 192.833 4.48577 -3.16339 0
M  V30 2058 H 193.094 4.17493 -1.45437 0
M  V30 2059 N 192.153 1.28127 0.917671 0
M  V30 2060 C 193.383 1.17722 1.6978 0
M  V30 2061 C 193.791 -0.267261 1.87303 0
M  V30 2062 O 193.134 -1.19286 1.39702 0
M  V30 2063 C 193.196 1.79958 3.11216 0
M  V30 2064 C 192.86 3.29187 3.16993 0
M  V30 2065 C 193.857 4.25679 2.98485 0
M  V30 2066 C 191.542 3.70075 3.39632 0
M  V30 2067 C 193.536 5.61035 3.02521 0
M  V30 2068 C 191.223 5.05557 3.433 0
M  V30 2069 C 192.221 6.00847 3.24764 0
M  V30 2070 O 191.909 7.33859 3.28187 0
M  V30 2071 H 191.641 0.409788 0.537634 0
M  V30 2072 H 194.195 1.69694 1.15728 0
M  V30 2073 H 192.425 1.22475 3.66793 0
M  V30 2074 H 194.114 1.64125 3.71238 0
M  V30 2075 H 194.88 3.95426 2.80826 0
M  V30 2076 H 190.759 2.96373 3.53106 0
M  V30 2077 H 194.303 6.35388 2.87971 0
M  V30 2078 H 190.2 5.35462 3.60486 0
M  V30 2079 H 190.968 7.42436 3.44575 0
M  V30 2080 N 193.631 -1.12557 1.10312 0
M  V30 2081 C 194.856 -1.88405 0.867085 0
M  V30 2082 C 195.281 -1.79038 -0.576817 0
M  V30 2083 O 194.639 -1.14439 -1.40618 0
M  V30 2084 C 194.687 -3.3563 1.31851 0
M  V30 2085 O 193.791 -4.09565 0.482734 0
M  V30 2086 H 193.132 -0.585455 0.313271 0
M  V30 2087 H 195.662 -1.42352 1.4696 0
M  V30 2088 H 195.672 -3.86469 1.3079 0
M  V30 2089 H 194.347 -3.41765 2.37001 0
M  V30 2090 H 192.924 -3.68695 0.558448 0
M  V30 2091 N 195.109 -0.891671 -1.2995 0
M  V30 2092 C 196.386 -0.433307 -1.9074 0
M  V30 2093 C 196.766 1.08646 -1.80995 0
M  V30 2094 O 196.114 1.92476 -1.23147 0
M  V30 2095 C 196.324 -0.938895 -3.36134 0
M  V30 2096 C 197.672 -0.977829 -4.13187 0
M  V30 2097 O 198.696 -0.886015 -3.45005 0
M  V30 2098 O 197.555 -1.11453 -5.35015 0
M  V30 2099 H 194.649 -0.133699 -0.816121 0
M  V30 2100 H 197.195 -0.981011 -1.38471 0
M  V30 2101 H 195.967 -1.98281 -3.37343 0
M  V30 2102 H 195.59 -0.37074 -3.95868 0
M  V30 2103 N 196.587 1.43421 -0.653314 0
M  V30 2104 C 198.003 1.56341 -0.320886 0
M  V30 2105 C 198.203 1.63696 1.17499 0
M  V30 2106 O 197.259 1.59208 1.95982 0
M  V30 2107 C 198.572 2.82424 -1.03233 0
M  V30 2108 C 200.12 2.96168 -1.01259 0
M  V30 2109 C 200.595 4.25084 -1.70492 0
M  V30 2110 N 202.086 4.31948 -1.67257 0
M  V30 2111 C 202.821 5.30466 -2.17701 0
M  V30 2112 N 202.317 6.35261 -2.76434 0
M  V30 2113 N 204.11 5.2212 -2.082 0
M  V30 2114 H 196.261 1.3689 -1.62403 0
M  V30 2115 H 198.524 0.657455 -0.682977 0
M  V30 2116 H 198.23 2.83053 -2.08744 0
M  V30 2117 H 198.104 3.72653 -0.583948 0
M  V30 2118 H 200.491 2.9508 0.0341235 0
M  V30 2119 H 200.572 2.07229 -1.49966 0
M  V30 2120 H 200.216 4.26932 -2.7512 0
M  V30 2121 H 200.146 5.1292 -1.19251 0
M  V30 2122 H 202.637 3.56838 -1.24398 0
M  V30 2123 H 202.95 7.06754 -3.12601 0
M  V30 2124 H 201.295 6.35884 -2.80495 0
M  V30 2125 H 204.486 4.39166 -1.62021 0
M  V30 2126 H 204.659 5.98739 -2.47822 0
M  V30 2127 N 198.065 0.39524 1.52563 0
M  V30 2128 C 199.295 -0.184675 2.05773 0
M  V30 2129 C 199.703 -1.40571 1.26635 0
M  V30 2130 O 199.046 -1.81105 0.30769 0
M  V30 2131 C 199.108 -0.613551 3.54226 0
M  V30 2132 C 198.772 0.49484 4.54313 0
M  V30 2133 C 199.769 1.3541 5.01956 0
M  V30 2134 C 197.454 0.663565 4.97898 0
M  V30 2135 C 199.448 2.36716 5.91814 0
M  V30 2136 C 197.135 1.67996 5.87555 0
M  V30 2137 C 198.133 2.53017 6.34406 0
M  V30 2138 O 197.821 3.52917 7.22291 0
M  V30 2139 H 197.553 -0.030077 0.675331 0
M  V30 2140 H 200.107 0.560708 1.97599 0
M  V30 2141 H 198.337 -1.411 3.60038 0
M  V30 2142 H 200.026 -1.11981 3.90148 0
M  V30 2143 H 200.792 1.23509 4.6901 0
M  V30 2144 H 196.671 0.0114913 4.60999 0
M  V30 2145 H 200.215 3.03113 6.28306 0
M  V30 2146 H 196.112 1.79933 6.19915 0
M  V30 2147 H 196.88 3.48996 7.40367 0
M  V30 2148 N 199.544 -1.57102 0.125237 0
M  V30 2149 C 200.793 -1.94582 -0.531095 0
M  V30 2150 C 201.106 -1.01126 -1.6743 0
M  V30 2151 O 202.312 -1.28097 -2.39381 0
M  V30 2152 C 200.768 -3.45839 -0.996164 0
M  V30 2153 C 200.376 -4.47842 0.118926 0
M  V30 2154 C 202.12 -3.92227 -1.62352 0
M  V30 2155 C 200.027 -5.90284 -0.363192 0
M  V30 2156 H 198.957 -0.726391 -0.20217 0
M  V30 2157 H 201.608 -1.82339 0.206092 0
M  V30 2158 H 199.99 -3.53338 -1.78796 0
M  V30 2159 H 201.164 -4.52018 0.895358 0
M  V30 2160 H 199.479 -4.11243 0.653324 0
M  V30 2161 H 202.076 -4.96069 -1.99548 0
M  V30 2162 H 202.419 -3.32552 -2.50429 0
M  V30 2163 H 202.952 -3.87554 -0.897019 0
M  V30 2164 H 199.691 -6.53728 0.481679 0
M  V30 2165 H 199.211 -5.89515 -1.10597 0
M  V30 2166 H 200.89 -6.41752 -0.822377 0
M  V30 2167 N 201.022 0.148545 -1.56898 0
M  V30 2168 C 202.269 0.861418 -1.83264 0
M  V30 2169 C 202.597 1.81239 -0.705883 0
M  V30 2170 O 201.852 1.93305 0.305212 0
M  V30 2171 C 202.151 1.67064 -3.1595 0
M  V30 2172 C 201.817 0.866591 -4.42494 0
M  V30 2173 C 200.479 0.644762 -4.76861 0
M  V30 2174 C 202.831 0.30418 -5.20312 0
M  V30 2175 C 200.159 -0.15021 -5.86508 0
M  V30 2176 C 202.511 -0.477824 -6.30793 0
M  V30 2177 C 201.175 -0.710244 -6.63711 0
M  V30 2178 H 200.445 0.315215 -0.670612 0
M  V30 2179 H 203.092 0.125142 -1.91091 0
M  V30 2180 H 201.397 2.47698 -3.03567 0
M  V30 2181 H 203.094 2.22566 -3.33565 0
M  V30 2182 H 199.684 1.04955 -4.15551 0
M  V30 2183 H 203.868 0.462844 -4.94137 0
M  V30 2184 H 199.124 -0.339796 -6.10455 0
M  V30 2185 H 203.298 -0.92076 -6.90286 0
M  V30 2186 H 200.925 -1.3281 -7.48509 0
M  V30 2187 N 202.5 1.5196 0.417844 0
M  V30 2188 C 203.463 1.74065 1.49111 0
M  V30 2189 C 204.463 0.610537 1.48758 0
M  V30 2190 O 205.653 0.87832 1.50437 0
M  V30 2191 C 202.785 1.81502 2.88565 0
M  V30 2192 H 203.978 2.69869 1.30807 0
M  V30 2193 H 201.531 1.42244 0.647785 0
M  V30 2194 H 202.266 0.875813 3.1225 0
M  V30 2195 H 202.051 2.63651 2.90225 0
M  V30 2196 H 203.541 2.00376 3.66387 0
M  V30 2197 N 203.978 -0.674533 1.42435 0
M  V30 2198 C 205.203 -1.46784 1.46524 0
M  V30 2199 C 205.628 -1.87938 0.078066 0
M  V30 2200 O 204.986 -1.56014 -0.92354 0
M  V30 2201 C 205.034 -2.69307 2.39805 0
M  V30 2202 O 204.138 -3.67587 1.86959 0
M  V30 2203 H 203.479 -0.440959 0.496439 0
M  V30 2204 H 206.009 -0.827326 1.87127 0
M  V30 2205 H 206.019 -3.17374 2.56393 0
M  V30 2206 H 204.694 -2.38692 3.40586 0
M  V30 2207 H 203.271 -3.2662 1.79927 0
M  V30 2208 N 205.456 -1.28612 -0.910864 0
M  V30 2209 C 206.404 -1.1265 -2.03501 0
M  V30 2210 C 207.398 -0.0450054 -1.6934 0
M  V30 2211 O 208.604 -0.203988 -1.7884 0
M  V30 2212 H 204.979 -0.347639 -0.666822 0
M  V30 2213 H 206.95 -2.07849 -2.14106 0
M  V30 2214 C 205.699 -0.808143 -3.38178 0
M  V30 2215 H 205.022 -1.63231 -3.6496 0
M  V30 2216 H 206.462 -0.736426 -4.17556 0
M  V30 2217 C 204.921 0.488226 -3.33344 0
M  V30 2218 O 205.451 1.51766 -3.71927 0
M  V30 2219 N 203.657 0.490009 -2.86439 0
M  V30 2220 H 203.204 -0.348161 -2.55236 0
M  V30 2221 H 203.162 1.35741 -2.83587 0
M  V30 2222 N 206.934 1.1197 -1.10907 0
M  V30 2223 C 207.864 2.19928 -0.784473 0
M  V30 2224 C 208.845 1.6833 0.244726 0
M  V30 2225 O 210.03 1.93892 0.109418 0
M  V30 2226 C 207.16 3.46597 -0.220827 0
M  V30 2227 C 206.114 4.11376 -1.18127 0
M  V30 2228 C 205.44 5.32554 -0.478594 0
M  V30 2229 C 206.74 4.56945 -2.52979 0
M  V30 2230 H 208.434 2.47337 -1.68715 0
M  V30 2231 H 205.98 1.18879 -0.812642 0
M  V30 2232 H 207.933 4.21396 0.0184278 0
M  V30 2233 H 206.657 3.1863 0.717113 0
M  V30 2234 H 205.316 3.38564 -1.40606 0
M  V30 2235 H 204.964 5.00856 0.463976 0
M  V30 2236 H 204.664 5.76844 -1.11912 0
M  V30 2237 H 206.188 6.10096 -0.248 0
M  V30 2238 H 207.602 5.23093 -2.3462 0
M  V30 2239 H 205.999 5.1203 -3.12962 0
M  V30 2240 H 207.069 3.70676 -3.12614 0
M  V30 2241 N 208.412 0.89855 1.29475 0
M  V30 2242 C 209.642 0.538479 1.99459 0
M  V30 2243 C 210.05 -0.880922 1.67441 0
M  V30 2244 O 209.393 -1.59283 0.915127 0
M  V30 2245 C 209.455 0.649564 3.53583 0
M  V30 2246 C 209.119 2.03573 4.09154 0
M  V30 2247 C 210.116 3.00675 4.24135 0
M  V30 2248 C 207.801 2.3448 4.44212 0
M  V30 2249 C 209.795 4.26809 4.73405 0
M  V30 2250 C 207.482 3.60857 4.93179 0
M  V30 2251 C 208.48 4.56836 5.0773 0
M  V30 2252 O 208.168 5.80969 5.55635 0
M  V30 2253 H 207.9 0.205372 0.644048 0
M  V30 2254 H 210.454 1.20958 1.66007 0
M  V30 2255 H 208.684 -0.0785592 3.8662 0
M  V30 2256 H 210.373 0.29881 4.04799 0
M  V30 2257 H 211.139 2.78112 3.97339 0
M  V30 2258 H 207.018 1.60534 4.32145 0
M  V30 2259 H 210.562 5.0173 4.84678 0
M  V30 2260 H 206.459 3.83251 5.19412 0
M  V30 2261 H 207.227 5.83542 5.73952 0
M  V30 2262 N 209.89 -1.43072 0.660911 0
M  V30 2263 C 210.8 -2.34585 -0.0264163 0
M  V30 2264 C 211.816 -1.54316 -0.803898 0
M  V30 2265 O 212.992 -1.86939 -0.749391 0
M  V30 2266 C 210.057 -3.32689 -0.975639 0
M  V30 2267 C 209.118 -4.2886 -0.194236 0
M  V30 2268 C 208.351 -5.22278 -1.09825 0
M  V30 2269 O 208.574 -5.20299 -2.33763 0
M  V30 2270 O 207.508 -5.99228 -0.566513 0
M  V30 2271 H 211.334 -2.94869 0.727034 0
M  V30 2272 H 208.919 -1.43342 0.42111 0
M  V30 2273 H 210.801 -3.92995 -1.52094 0
M  V30 2274 H 209.476 -2.74898 -1.70918 0
M  V30 2275 H 208.383 -3.72011 0.394835 0
M  V30 2276 H 209.716 -4.89655 0.499899 0
M  V30 2277 N 211.368 -0.403325 -1.52352 0
M  V30 2278 C 212.593 0.176499 -2.06648 0
M  V30 2279 C 213.018 1.38577 -1.27193 0
M  V30 2280 O 212.376 1.7879 -0.300637 0
M  V30 2281 C 212.424 0.511061 -3.5696 0
M  V30 2282 O 211.528 1.60294 -3.79973 0
M  V30 2283 H 210.869 0.0167337 -0.663789 0
M  V30 2284 H 213.399 -0.574848 -1.96359 0
M  V30 2285 H 213.409 0.771362 -4.00642 0
M  V30 2286 H 212.084 -0.37296 -4.14224 0
M  V30 2287 H 210.661 1.33526 -3.48174 0
M  V30 2288 N 212.846 1.57033 -0.133567 0
M  V30 2289 C 213.756 2.19632 0.824564 0
M  V30 2290 C 214.772 1.17666 1.28182 0
M  V30 2291 O 215.948 1.50193 1.3418 0
M  V30 2292 C 213.013 2.79499 2.05137 0
M  V30 2293 C 212.074 3.96548 1.64464 0
M  V30 2294 C 211.307 4.5355 2.81297 0
M  V30 2295 O 211.53 4.09438 3.97136 0
M  V30 2296 O 210.464 5.44018 2.57542 0
M  V30 2297 H 214.29 3.01991 0.321766 0
M  V30 2298 H 211.875 1.49112 0.0927889 0
M  V30 2299 H 213.757 3.17602 2.7696 0
M  V30 2300 H 212.432 2.00162 2.54395 0
M  V30 2301 H 211.339 3.63186 0.897048 0
M  V30 2302 H 212.672 4.77364 1.19934 0
M  V30 2303 N 214.325 -0.140222 1.56975 0
M  V30 2304 C 215.565 -0.857823 1.85528 0
M  V30 2305 C 215.929 -1.78039 0.718768 0
M  V30 2306 O 217.13 -2.53795 0.885521 0
M  V30 2307 C 215.401 -1.60615 3.19277 0
M  V30 2308 S 216.96 -2.36824 3.69405 0
M  V30 2309 H 213.778 -0.286727 0.650622 0
M  V30 2310 H 216.38 -0.117408 1.95147 0
M  V30 2311 H 215.084 -0.919994 3.99955 0
M  V30 2312 H 214.615 -2.38735 3.12681 0
M  V30 2313 H 216.63 -3.62148 3.3921 0
M  V30 2314 N 215.803 -1.52179 -0.40978 0
M  V30 2315 C 216.736 -1.70196 -1.52015 0
M  V30 2316 C 217.714 -0.549542 -1.53032 0
M  V30 2317 O 218.898 -0.776815 -1.71749 0
M  V30 2318 C 216.025 -1.74069 -2.90547 0
M  V30 2319 C 215.071 -2.95601 -3.07445 0
M  V30 2320 S 215.904 -4.55956 -2.80827 0
M  V30 2321 C 217.06 -4.62614 -4.21591 0
M  V30 2322 H 217.293 -2.64109 -1.36504 0
M  V30 2323 H 214.826 -1.4221 -0.601312 0
M  V30 2324 H 216.784 -1.76985 -3.70387 0
M  V30 2325 H 215.445 -0.812835 -3.034 0
M  V30 2326 H 214.638 -2.94791 -4.08796 0
M  V30 2327 H 214.24 -2.90569 -2.35469 0
M  V30 2328 H 216.532 -4.39951 -5.15218 0
M  V30 2329 H 217.475 -5.64548 -4.27424 0
M  V30 2330 H 217.883 -3.91654 -4.06531 0
M  V30 2331 N 217.281 0.66697 -1.42791 0
M  V30 2332 C 218.229 1.80157 -1.47127 0
M  V30 2333 C 219.223 1.65825 -0.346199 0
M  V30 2334 O 220.429 1.72338 -0.519572 0
M  V30 2335 H 216.804 0.594158 -0.460956 0
M  V30 2336 H 218.775 1.73619 -2.42692 0
M  V30 2337 C 217.524 3.18351 -1.39813 0
M  V30 2338 H 216.847 3.3001 -2.25684 0
M  V30 2339 H 218.287 3.97736 -1.46908 0
M  V30 2340 C 216.746 3.36707 -0.11391 0
M  V30 2341 O 217.276 3.93027 0.830241 0
M  V30 2342 N 215.482 2.90586 -0.0285295 0
M  V30 2343 H 215.029 2.4494 -0.79764 0
M  V30 2344 H 214.987 3.03245 0.830063 0
M  V30 2345 N 218.759 1.29093 0.90403 0
M  V30 2346 C 219.669 1.15727 2.0407 0
M  V30 2347 C 220.685 0.0815308 1.73809 0
M  V30 2348 O 221.861 0.292749 1.99261 0
M  V30 2349 C 218.926 0.830424 3.36608 0
M  V30 2350 C 217.987 1.98955 3.80415 0
M  V30 2351 C 217.22 1.6782 5.06628 0
M  V30 2352 O 217.443 0.597105 5.67266 0
M  V30 2353 O 216.377 2.52486 5.46383 0
M  V30 2354 H 220.203 2.11171 2.18267 0
M  V30 2355 H 217.788 1.08504 1.027 0
M  V30 2356 H 219.67 0.662521 4.16159 0
M  V30 2357 H 218.345 -0.0942678 3.23563 0
M  V30 2358 H 217.252 2.21267 3.01648 0
M  V30 2359 H 218.585 2.89529 3.98037 0
M  V30 2360 N 220.237 -1.11381 1.11499 0
M  V30 2361 C 221.465 -1.86934 0.88675 0
M  V30 2362 C 221.88 -1.80195 -0.563476 0
M  V30 2363 O 221.237 -1.18367 -1.38908 0
M  V30 2364 C 221.288 -3.35722 1.34064 0
M  V30 2365 O 221.009 -3.4232 2.73401 0
M  V30 2366 C 222.51 -4.2818 1.14791 0
M  V30 2367 H 219.73 -0.591117 0.317523 0
M  V30 2368 H 222.274 -1.40865 1.48248 0
M  V30 2369 H 220.429 -3.79294 0.788355 0
M  V30 2370 H 220.843 -4.34971 2.93087 0
M  V30 2371 H 222.317 -5.30817 1.5145 0
M  V30 2372 H 222.794 -4.39113 0.0875279 0
M  V30 2373 H 223.4 -3.90402 1.68721 0
M  V30 2374 N 221.715 -0.905404 -1.28997 0
M  V30 2375 C 222.625 -0.392246 -2.31298 0
M  V30 2376 C 223.641 0.515889 -1.66176 0
M  V30 2377 O 224.817 0.404093 -1.97304 0
M  V30 2378 C 221.882 0.36686 -3.44754 0
M  V30 2379 C 220.943 -0.573485 -4.25452 0
M  V30 2380 C 220.176 0.149488 -5.33491 0
M  V30 2381 O 220.399 1.37255 -5.5364 0
M  V30 2382 O 219.333 -0.510919 -5.99728 0
M  V30 2383 H 223.159 -1.2411 -2.77183 0
M  V30 2384 H 220.744 -0.669926 -1.33538 0
M  V30 2385 H 222.626 0.795907 -4.13816 0
M  V30 2386 H 221.301 1.19169 -3.00966 0
M  V30 2387 H 220.208 -1.05176 -3.59011 0
M  V30 2388 H 221.541 -1.36489 -4.72897 0
M  V30 2389 N 223.193 1.4272 -0.668489 0
M  V30 2390 C 224.439 2.02443 -0.197076 0
M  V30 2391 C 224.794 1.51882 1.18109 0
M  V30 2392 O 224.087 0.708618 1.78015 0
M  V30 2393 C 224.281 3.57021 -0.164499 0
M  V30 2394 C 224.11 4.22583 -1.53797 0
M  V30 2395 C 222.88 4.58019 -2.13416 0
M  V30 2396 C 225.078 4.50588 -2.47941 0
M  V30 2397 N 223.06 5.08729 -3.4361 0
M  V30 2398 C 224.431 5.02782 -3.62782 0
M  V30 2399 C 226.486 4.32571 -2.46551 0
M  V30 2400 C 225.189 5.38852 -4.76478 0
M  V30 2401 C 227.215 4.69713 -3.59338 0
M  V30 2402 C 226.577 5.22053 -4.72906 0
M  V30 2403 H 222.676 0.773214 -0.116894 0
M  V30 2404 H 225.26 1.73673 -0.880108 0
M  V30 2405 H 223.431 3.85323 0.487925 0
M  V30 2406 H 225.163 4.03439 0.319207 0
M  V30 2407 H 221.918 4.43566 -1.65969 0
M  V30 2408 H 222.342 5.38521 -4.10273 0
M  V30 2409 H 226.984 3.91365 -1.59978 0
M  V30 2410 H 224.702 5.78993 -5.63731 0
M  V30 2411 H 228.288 4.57454 -3.59482 0
M  V30 2412 H 227.168 5.50258 -5.58736 0
M  V30 2413 N 224.671 0.411399 1.52136 0
M  V30 2414 C 225.899 -0.163076 2.06256 0
M  V30 2415 C 226.314 -1.3867 1.28125 0
M  V30 2416 O 225.671 -1.79423 0.333721 0
M  V30 2417 C 225.722 -0.511252 3.57867 0
M  V30 2418 O 225.443 0.66378 4.33042 0
M  V30 2419 C 226.944 -1.13921 4.28412 0
M  V30 2420 H 224.164 -0.0193897 0.67072 0
M  V30 2421 H 226.708 0.583007 1.96013 0
M  V30 2422 H 224.863 -1.20723 3.6811 0
M  V30 2423 H 225.277 0.372601 5.23175 0
M  V30 2424 H 226.751 -1.33302 5.35663 0
M  V30 2425 H 227.228 -2.11296 3.85033 0
M  V30 2426 H 227.834 -0.483373 4.22544 0
M  V30 2427 N 226.149 -1.5696 0.141893 0
M  V30 2428 C 227.398 -1.95135 -0.510427 0
M  V30 2429 C 227.711 -1.02896 -1.66348 0
M  V30 2430 O 228.917 -1.30629 -2.38009 0
M  V30 2431 C 227.373 -3.46876 -0.959427 0
M  V30 2432 C 226.981 -4.47691 0.166419 0
M  V30 2433 C 228.725 -3.93927 -1.58183 0
M  V30 2434 C 226.632 -5.90636 -0.300565 0
M  V30 2435 H 225.562 -0.728494 -0.194454 0
M  V30 2436 H 228.213 -1.8211 0.22542 0
M  V30 2437 H 226.595 -3.55215 -1.75038 0
M  V30 2438 H 227.769 -4.51043 0.94325 0
M  V30 2439 H 226.084 -4.10527 0.696905 0
M  V30 2440 H 228.681 -4.98158 -1.94275 0
M  V30 2441 H 229.024 -3.3519 -2.46888 0
M  V30 2442 H 229.557 -3.88484 -0.855863 0
M  V30 2443 H 226.296 -6.5318 0.550989 0
M  V30 2444 H 225.816 -5.90655 -1.04338 0
M  V30 2445 H 227.495 -6.42588 -0.754265 0
M  V30 2446 N 227.627 0.131896 -1.57047 0
M  V30 2447 C 228.857 0.855219 -1.88068 0
M  V30 2448 C 229.265 1.74557 -0.729817 0
M  V30 2449 O 228.608 1.81083 0.308962 0
M  V30 2450 C 228.67 1.75119 -3.13964 0
M  V30 2451 C 228.334 1.03646 -4.45091 0
M  V30 2452 C 229.331 0.383276 -5.18485 0
M  V30 2453 C 227.016 1.02148 -4.91804 0
M  V30 2454 C 229.01 -0.275347 -6.36805 0
M  V30 2455 C 226.697 0.359047 -6.10044 0
M  V30 2456 C 227.695 -0.288222 -6.82392 0
M  V30 2457 O 227.383 -0.94011 -7.98384 0
M  V30 2458 H 227.115 0.251864 -0.627328 0
M  V30 2459 H 229.669 0.124782 -2.05021 0
M  V30 2460 H 227.899 2.52295 -2.9306 0
M  V30 2461 H 229.588 2.3478 -3.31109 0
M  V30 2462 H 230.354 0.386562 -4.83457 0
M  V30 2463 H 226.233 1.5147 -4.35405 0
M  V30 2464 H 229.777 -0.781148 -6.93213 0
M  V30 2465 H 225.674 0.35348 -6.44531 0
M  V30 2466 H 226.442 -0.84329 -8.14144 0
M  V30 2467 N 229.106 1.52395 0.401703 0
M  V30 2468 C 230.038 1.72505 1.50912 0
M  V30 2469 C 231.051 0.605468 1.51122 0
M  V30 2470 O 232.24 0.880828 1.55254 0
M  V30 2471 C 229.34 1.75711 2.89791 0
M  V30 2472 C 228.513 3.04824 3.1369 0
M  V30 2473 C 227.572 2.99743 4.32482 0
M  V30 2474 O 226.598 3.73635 4.29402 0
M  V30 2475 N 227.8 2.18047 5.37992 0
M  V30 2476 H 230.565 2.68049 1.34052 0
M  V30 2477 H 228.126 1.50724 0.591084 0
M  V30 2478 H 230.118 1.69834 3.6734 0
M  V30 2479 H 228.688 0.876092 3.00072 0
M  V30 2480 H 227.908 3.2429 2.24119 0
M  V30 2481 H 229.196 3.90221 3.26504 0
M  V30 2482 H 228.594 1.57456 5.43345 0
M  V30 2483 H 227.151 2.18021 6.14256 0
M  V30 2484 N 230.584 -0.659388 1.43143 0
M  V30 2485 C 231.861 -1.41627 1.34912 0
M  V30 2486 C 232.241 -2.11099 -0.00607785 0
M  V30 2487 O 231.589 -2.04353 -1.02236 0
M  V30 2488 C 231.799 -2.40604 2.52805 0
M  V30 2489 C 233.147 -3.04789 2.95616 0
M  V30 2490 O 234.171 -2.50932 2.52807 0
M  V30 2491 O 233.03 -4.02421 3.69756 0
M  V30 2492 H 230.124 -0.63246 0.532844 0
M  V30 2493 H 232.67 -0.686814 1.5518 0
M  V30 2494 H 231.442 -1.88174 3.43083 0
M  V30 2495 H 231.065 -3.21009 2.34604 0
M  V30 2496 N 232.062 -1.29571 -0.897171 0
M  V30 2497 C 233.308 -1.18873 -1.65048 0
M  V30 2498 C 233.663 0.256707 -1.9068 0
M  V30 2499 O 232.956 1.18202 -1.50794 0
M  V30 2500 C 233.15 -1.9382 -3.00281 0
M  V30 2501 C 232.979 -3.45503 -2.8785 0
M  V30 2502 C 231.749 -4.14856 -2.88483 0
M  V30 2503 C 233.947 -4.40956 -2.64693 0
M  V30 2504 N 231.929 -5.52886 -2.66815 0
M  V30 2505 C 233.3 -5.66464 -2.5203 0
M  V30 2506 C 235.355 -4.3069 -2.49821 0
M  V30 2507 C 234.058 -6.82871 -2.26008 0
M  V30 2508 C 236.084 -5.46852 -2.25182 0
M  V30 2509 C 235.446 -6.71333 -2.13286 0
M  V30 2510 H 231.545 -0.489998 -0.609447 0
M  V30 2511 H 234.129 -1.63431 -1.05822 0
M  V30 2512 H 232.3 -1.51671 -3.57562 0
M  V30 2513 H 234.032 -1.75366 -3.64731 0
M  V30 2514 H 230.787 -3.66579 -2.99861 0
M  V30 2515 H 231.211 -6.25487 -2.59027 0
M  V30 2516 H 235.853 -3.35141 -2.5776 0
M  V30 2517 H 233.571 -7.78473 -2.16806 0
M  V30 2518 H 237.157 -5.40809 -2.14515 0
M  V30 2519 H 236.037 -7.59701 -1.94485 0
M  V30 2520 N 233.54 1.10788 -1.12088 0
M  V30 2521 C 234.49 2.15158 -0.754401 0
M  V30 2522 C 235.474 1.59026 0.244846 0
M  V30 2523 O 236.666 1.76927 0.0509097 0
M  V30 2524 C 233.795 3.42677 -0.206657 0
M  V30 2525 C 232.881 4.05751 -1.23398 0
M  V30 2526 N 233.272 4.43582 -2.43041 0
M  V30 2527 C 231.57 4.32764 -1.07848 0
M  V30 2528 C 232.271 4.93085 -3.08613 0
M  V30 2529 N 231.247 4.89664 -2.36072 0
M  V30 2530 H 235.049 2.42195 -1.6649 0
M  V30 2531 H 232.563 1.27872 -1.00112 0
M  V30 2532 H 234.56 4.16834 0.0740646 0
M  V30 2533 H 233.22 3.17101 0.698342 0
M  V30 2534 H 234.231 4.35395 -2.80449 0
M  V30 2535 H 230.908 4.16863 -0.230483 0
M  V30 2536 H 232.298 5.31933 -4.10483 0
M  V30 2537 N 235.018 0.912232 1.28515 0
M  V30 2538 C 236.295 0.463597 1.90027 0
M  V30 2539 C 236.675 -1.05753 1.82701 0
M  V30 2540 O 236.023 -1.90492 1.26194 0
M  V30 2541 C 236.233 0.992253 3.34597 0
M  V30 2542 C 237.581 1.04344 4.11579 0
M  V30 2543 O 238.605 0.94079 3.43551 0
M  V30 2544 O 237.464 1.1995 5.33174 0
M  V30 2545 H 234.558 0.146666 0.813891 0
M  V30 2546 H 237.104 1.00292 1.36893 0
M  V30 2547 H 235.876 2.03623 3.34146 0
M  V30 2548 H 235.499 0.433672 3.95228 0
M  V30 2549 N 236.496 -1.42363 0.676048 0
M  V30 2550 C 237.742 -2.02336 0.207809 0
M  V30 2551 C 238.097 -1.52506 -1.17302 0
M  V30 2552 O 237.39 -0.718048 -1.77636 0
M  V30 2553 C 237.584 -3.56929 0.183431 0
M  V30 2554 C 237.413 -4.21762 1.56036 0
M  V30 2555 C 236.183 -4.56881 2.15842 0
M  V30 2556 C 238.381 -4.49267 2.50327 0
M  V30 2557 N 236.363 -5.069 3.46303 0
M  V30 2558 C 237.734 -5.00851 3.65443 0
M  V30 2559 C 239.789 -4.31257 2.48841 0
M  V30 2560 C 238.492 -5.36317 4.79329 0
M  V30 2561 C 240.518 -4.678 3.61824 0
M  V30 2562 C 239.88 -5.19537 4.75668 0
M  V30 2563 H 235.979 -0.772583 0.120993 0
M  V30 2564 H 238.563 -1.73203 0.889306 0
M  V30 2565 H 236.734 -3.85576 -0.467483 0
M  V30 2566 H 238.466 -4.03603 -0.297808 0
M  V30 2567 H 235.221 -4.4268 1.68319 0
M  V30 2568 H 235.645 -5.36338 4.13123 0
M  V30 2569 H 240.287 -3.90511 1.62051 0
M  V30 2570 H 238.005 -5.75995 5.66794 0
M  V30 2571 H 241.591 -4.55541 3.61903 0
M  V30 2572 H 240.471 -5.47287 5.61646 0
M  V30 2573 N 237.974 -0.419461 -1.51915 0
M  V30 2574 C 238.907 0.445751 -2.23804 0
M  V30 2575 C 239.885 1.03951 -1.25031 0
M  V30 2576 O 241.069 1.08541 -1.54114 0
M  V30 2577 C 238.196 1.61964 -2.97465 0
M  V30 2578 C 237.242 1.14828 -4.10751 0
M  V30 2579 S 238.075 0.104938 -5.35397 0
M  V30 2580 C 239.231 1.28391 -6.1259 0
M  V30 2581 H 239.464 -0.164627 -2.96844 0
M  V30 2582 H 236.997 -0.203833 -1.53049 0
M  V30 2583 H 238.955 2.29271 -3.40507 0
M  V30 2584 H 237.616 2.20139 -2.24048 0
M  V30 2585 H 236.809 2.02561 -4.61503 0
M  V30 2586 H 236.411 0.553712 -3.69878 0
M  V30 2587 H 238.703 2.20563 -6.40592 0
M  V30 2588 H 239.646 0.816724 -7.03374 0
M  V30 2589 H 240.054 1.51439 -5.43807 0
M  V30 2590 N 239.452 1.56882 -0.150215 0
M  V30 2591 C 240.4 2.18214 0.805313 0
M  V30 2592 C 241.394 1.14006 1.25296 0
M  V30 2593 O 242.6 1.3225 1.22107 0
M  V30 2594 H 238.975 0.698762 0.277913 0
M  V30 2595 H 240.946 2.97231 0.263862 0
M  V30 2596 C 239.695 2.82065 2.03309 0
M  V30 2597 H 239.018 3.61968 1.69763 0
M  V30 2598 H 240.458 3.28477 2.68103 0
M  V30 2599 C 238.917 1.80739 2.84315 0
M  V30 2600 O 239.447 1.27983 3.80767 0
M  V30 2601 N 237.653 1.4997 2.48913 0
M  V30 2602 H 237.2 1.93062 1.70542 0
M  V30 2603 H 237.158 0.824217 3.03404 0
M  V30 2604 N 240.93 -0.123565 1.57115 0
M  V30 2605 C 241.878 -1.17082 2.00984 0
M  V30 2606 C 242.872 -1.43136 0.906009 0
M  V30 2607 O 244.078 -1.43152 1.09121 0
M  V30 2608 H 240.453 -0.394653 0.64012 0
M  V30 2609 H 242.424 -0.774292 2.88179 0
M  V30 2610 C 241.173 -2.49057 2.42623 0
M  V30 2611 H 240.496 -2.29846 3.27125 0
M  V30 2612 H 241.936 -3.20906 2.7712 0
M  V30 2613 C 240.395 -3.11305 1.28805 0
M  V30 2614 O 240.925 -3.97171 0.60153 0
M  V30 2615 N 239.131 -2.71111 1.04628 0
M  V30 2616 H 238.678 -2.01382 1.60634 0
M  V30 2617 H 238.636 -3.1309 0.286685 0
M  V30 2618 N 242.408 -1.52605 -0.393616 0
M  V30 2619 C 243.34 -1.73303 -1.49995 0
M  V30 2620 C 244.353 -0.613473 -1.50799 0
M  V30 2621 O 245.542 -0.889049 -1.54784 0
M  V30 2622 C 242.642 -1.77245 -2.88855 0
M  V30 2623 C 241.815 -3.06483 -3.12069 0
M  V30 2624 C 240.874 -3.02033 -4.30886 0
M  V30 2625 O 239.9 -3.75907 -4.27414 0
M  V30 2626 N 241.102 -2.20897 -5.36828 0
M  V30 2627 H 243.867 -2.68756 -1.32629 0
M  V30 2628 H 241.428 -1.51036 -0.583083 0
M  V30 2629 H 243.42 -1.7178 -3.66434 0
M  V30 2630 H 241.99 -0.891993 -2.99603 0
M  V30 2631 H 241.21 -3.25474 -2.22396 0
M  V30 2632 H 242.498 -3.91947 -3.2443 0
M  V30 2633 H 241.896 -1.60336 -5.42502 0
M  V30 2634 H 240.453 -2.21275 -6.13091 0
M  V30 2635 N 243.887 0.651787 -1.4349 0
M  V30 2636 C 245.134 1.41167 -1.45183 0
M  V30 2637 C 245.462 1.94349 -0.0766601 0
M  V30 2638 O 244.717 1.72804 0.918555 0
M  V30 2639 C 245.016 2.60914 -2.44251 0
M  V30 2640 C 244.682 2.26142 -3.9009 0
M  V30 2641 C 243.344 2.16371 -4.2981 0
M  V30 2642 C 245.696 1.98334 -4.81989 0
M  V30 2643 C 243.024 1.7695 -5.5938 0
M  V30 2644 C 245.376 1.6041 -6.11924 0
M  V30 2645 C 244.04 1.49166 -6.5062 0
M  V30 2646 H 243.31 0.516566 -0.531263 0
M  V30 2647 H 245.957 0.741099 -1.76579 0
M  V30 2648 H 244.262 3.3311 -2.06265 0
M  V30 2649 H 245.959 3.19127 -2.42815 0
M  V30 2650 H 242.549 2.34658 -3.58655 0
M  V30 2651 H 246.733 2.04803 -4.52072 0
M  V30 2652 H 241.989 1.66831 -5.88198 0
M  V30 2653 H 246.163 1.37925 -6.82605 0
M  V30 2654 H 243.79 1.1839 -7.50925 0
M  V30 2655 N 245.365 1.30045 0.890287 0
M  V30 2656 C 246.613 1.18327 1.63839 0
M  V30 2657 C 246.934 -0.263455 1.93212 0
M  V30 2658 O 246.204 -1.17856 1.56482 0
M  V30 2659 H 244.784 0.434933 0.607324 0
M  V30 2660 H 247.446 1.631 1.06698 0
M  V30 2661 H 246.542 1.74024 2.59079 0
M  V30 2662 N 246.843 -1.10192 1.12674 0
M  V30 2663 C 247.775 -2.16418 0.754701 0
M  V30 2664 C 248.788 -1.61309 -0.21986 0
M  V30 2665 O 249.977 -1.785 -0.000826841 0
M  V30 2666 C 247.077 -3.38762 0.096698 0
M  V30 2667 C 246.25 -4.23307 1.10136 0
M  V30 2668 C 245.309 -5.24092 0.470513 0
M  V30 2669 O 244.335 -5.57906 1.12824 0
M  V30 2670 N 245.537 -5.75491 -0.760948 0
M  V30 2671 H 248.302 -2.48943 1.66875 0
M  V30 2672 H 245.863 -1.25834 1.01869 0
M  V30 2673 H 247.855 -4.03291 -0.337384 0
M  V30 2674 H 246.425 -3.04192 -0.720153 0
M  V30 2675 H 245.645 -3.55036 1.71299 0
M  V30 2676 H 246.933 -4.76624 1.78064 0
M  V30 2677 H 246.331 -5.50222 -1.31424 0
M  V30 2678 H 244.888 -6.41792 -1.13781 0
M  V30 2679 N 248.321 -0.919034 -1.28029 0
M  V30 2680 C 249.546 -0.570357 -1.99403 0
M  V30 2681 C 249.971 0.842486 -1.68178 0
M  V30 2682 O 249.329 1.56391 -0.917141 0
M  V30 2683 C 249.377 -0.792541 -3.51783 0
M  V30 2684 O 248.481 0.145988 -4.12142 0
M  V30 2685 H 247.822 -0.220555 -0.6263 0
M  V30 2686 H 250.352 -1.23592 -1.63053 0
M  V30 2687 H 250.362 -0.704708 -4.01868 0
M  V30 2688 H 249.037 -1.82247 -3.73844 0
M  V30 2689 H 247.614 0.00897528 -3.72899 0
M  V30 2690 N 249.799 1.42003 -0.683588 0
M  V30 2691 C 250.729 2.33487 -0.024866 0
M  V30 2692 C 251.71 1.51163 0.779975 0
M  V30 2693 O 252.895 1.79739 0.735362 0
M  V30 2694 C 250.025 3.3487 0.920836 0
M  V30 2695 C 248.979 4.27414 0.223958 0
M  V30 2696 C 248.305 5.19074 1.2832 0
M  V30 2697 C 249.605 5.14445 -0.90242 0
M  V30 2698 H 251.299 2.88819 -0.788921 0
M  V30 2699 H 248.845 1.38873 -0.38083 0
M  V30 2700 H 250.798 3.97787 1.39081 0
M  V30 2701 H 249.522 2.77861 1.71642 0
M  V30 2702 H 248.181 3.65904 -0.225864 0
M  V30 2703 H 247.829 4.58387 2.071 0
M  V30 2704 H 247.529 5.81822 0.821995 0
M  V30 2705 H 249.053 5.84867 1.75392 0
M  V30 2706 H 250.467 5.70998 -0.513272 0
M  V30 2707 H 248.864 5.86072 -1.28997 0
M  V30 2708 H 249.934 4.52322 -1.74737 0
M  V30 2709 N 251.277 0.427512 1.51691 0
M  V30 2710 C 252.187 -0.39527 2.31246 0
M  V30 2711 C 253.203 -1.03674 1.39742 0
M  V30 2712 O 254.379 -1.03425 1.72816 0
M  V30 2713 C 251.444 -1.48706 3.13189 0
M  V30 2714 C 250.505 -0.866743 4.20459 0
M  V30 2715 C 249.738 -1.90651 4.98486 0
M  V30 2716 O 249.961 -3.12733 4.77026 0
M  V30 2717 O 248.895 -1.5025 5.82845 0
M  V30 2718 H 252.721 0.253918 3.02637 0
M  V30 2719 H 250.306 0.190274 1.48183 0
M  V30 2720 H 252.188 -2.12047 3.64162 0
M  V30 2721 H 250.863 -2.12051 2.44573 0
M  V30 2722 H 249.77 -0.195544 3.73589 0
M  V30 2723 H 251.103 -0.276934 4.9142 0
M  V30 2724 N 252.755 -1.56801 0.158532 0
M  V30 2725 C 253.685 -2.20347 -0.772609 0
M  V30 2726 C 254.666 -1.15518 -1.24859 0
M  V30 2727 O 255.851 -1.43902 -1.30406 0
M  V30 2728 C 252.981 -2.83417 -2.00729 0
M  V30 2729 C 251.935 -3.94174 -1.66765 0
M  V30 2730 C 251.261 -4.44233 -2.97592 0
M  V30 2731 C 252.561 -5.14392 -0.905447 0
M  V30 2732 H 254.255 -2.98413 -0.242959 0
M  V30 2733 H 251.801 -1.43537 -0.115419 0
M  V30 2734 H 253.754 -3.26543 -2.6636 0
M  V30 2735 H 252.478 -2.02701 -2.56086 0
M  V30 2736 H 251.137 -3.51684 -1.03508 0
M  V30 2737 H 250.785 -3.60325 -3.50963 0
M  V30 2738 H 250.485 -5.18945 -2.75626 0
M  V30 2739 H 252.009 -4.90037 -3.64274 0
M  V30 2740 H 253.423 -5.5429 -1.46408 0
M  V30 2741 H 251.82 -5.9494 -0.7853 0
M  V30 2742 H 252.89 -4.84795 0.100668 0
M  V30 2743 N 254.233 0.115231 -1.57178 0
M  V30 2744 C 255.51 0.852873 -1.76027 0
M  V30 2745 C 255.89 1.97892 -0.73498 0
M  V30 2746 O 255.238 2.27232 0.24036 0
M  V30 2747 C 255.448 1.36608 -3.21153 0
M  V30 2748 C 256.796 1.81692 -3.83762 0
M  V30 2749 O 257.82 1.46278 -3.24779 0
M  V30 2750 O 256.679 2.47104 -4.87444 0
M  V30 2751 H 253.773 0.405296 -0.720877 0
M  V30 2752 H 256.319 0.0986785 -1.69413 0
M  V30 2753 H 255.091 0.558357 -3.87296 0
M  V30 2754 H 254.714 2.18287 -3.3232 0
M  V30 2755 N 255.711 1.52812 0.385517 0
M  V30 2756 C 256.959 1.67694 1.12797 0
M  V30 2757 C 257.28 0.421115 1.90399 0
M  V30 2758 O 256.55 -0.564551 1.87589 0
M  V30 2759 H 255.13 0.618155 0.419396 0
M  V30 2760 H 257.792 1.89938 0.436972 0
M  V30 2761 H 256.888 2.52896 1.82894 0
M  V30 2762 N 257.189 -0.644168 1.43834 0
M  V30 2763 C 258.438 -1.39985 1.45214 0
M  V30 2764 C 258.751 -1.95421 0.0835494 0
M  V30 2765 O 259.957 -2.71488 -0.0251748 0
M  V30 2766 C 258.413 -2.53384 2.55587 0
M  V30 2767 C 258.021 -2.04517 3.98594 0
M  V30 2768 C 259.765 -3.30685 2.66172 0
M  V30 2769 C 257.672 -3.1518 5.00416 0
M  V30 2770 H 256.602 -0.526005 0.540218 0
M  V30 2771 H 259.253 -0.694367 1.69855 0
M  V30 2772 H 257.635 -3.26446 2.24163 0
M  V30 2773 H 258.809 -1.38405 4.39523 0
M  V30 2774 H 257.124 -1.40068 3.92135 0
M  V30 2775 H 259.721 -4.13158 3.39418 0
M  V30 2776 H 260.064 -3.79312 1.71546 0
M  V30 2777 H 260.597 -2.64708 2.96942 0
M  V30 2778 H 257.336 -2.71511 5.96625 0
M  V30 2779 H 256.856 -3.79974 4.64091 0
M  V30 2780 H 258.535 -3.80166 5.23529 0
M  V30 2781 N 258.668 -1.30515 -0.883378 0
M  V30 2782 C 259.917 -1.18795 -1.63005 0
M  V30 2783 C 260.23 0.255923 -1.93919 0
M  V30 2784 O 261.436 0.494654 -2.66956 0
M  V30 2785 C 259.892 -2.07878 -2.93794 0
M  V30 2786 C 259.5 -3.57184 -2.70414 0
M  V30 2787 C 261.244 -2.04924 -3.71761 0
M  V30 2788 C 259.151 -4.38317 -3.97029 0
M  V30 2789 H 258.081 -0.441031 -0.611562 0
M  V30 2790 H 260.732 -1.55275 -0.977854 0
M  V30 2791 H 259.114 -1.64283 -3.60315 0
M  V30 2792 H 260.288 -4.08937 -2.12384 0
M  V30 2793 H 258.603 -3.61976 -2.0582 0
M  V30 2794 H 261.2 -2.62792 -4.65665 0
M  V30 2795 H 261.543 -1.0331 -4.03277 0
M  V30 2796 H 262.076 -2.46649 -3.12104 0
M  V30 2797 H 258.815 -5.40632 -3.70671 0
M  V30 2798 H 258.335 -3.91326 -4.54559 0
M  V30 2799 H 260.014 -4.49834 -4.65036 0
M  V30 2800 N 260.146 1.09593 -1.13257 0
M  V30 2801 C 261.376 1.85231 -0.915049 0
M  V30 2802 C 261.784 1.81345 0.539498 0
M  V30 2803 O 261.127 1.20664 1.38513 0
M  V30 2804 C 261.189 3.34275 -1.3229 0
M  V30 2805 C 260.853 3.6191 -2.79052 0
M  V30 2806 C 261.85 3.57777 -3.77216 0
M  V30 2807 C 259.535 3.90309 -3.16171 0
M  V30 2808 C 261.529 3.81652 -5.1051 0
M  V30 2809 C 259.216 4.13839 -4.49644 0
M  V30 2810 C 260.214 4.09502 -5.46623 0
M  V30 2811 O 259.902 4.32426 -6.77689 0
M  V30 2812 H 259.634 0.591997 -0.326367 0
M  V30 2813 H 262.188 1.394 -1.50854 0
M  V30 2814 H 260.418 3.80805 -0.672667 0
M  V30 2815 H 262.107 3.9132 -1.07812 0
M  V30 2816 H 262.873 3.35865 -3.49885 0
M  V30 2817 H 258.752 3.92811 -2.41289 0
M  V30 2818 H 262.296 3.78182 -5.86195 0
M  V30 2819 H 258.193 4.35232 -4.767 0
M  V30 2820 H 258.961 4.49896 -6.83766 0
M  V30 2821 N 261.624 0.925811 1.2754 0
M  V30 2822 C 262.554 0.440748 2.29303 0
M  V30 2823 C 263.535 -0.497971 1.62648 0
M  V30 2824 O 264.72 -0.403126 1.8997 0
M  V30 2825 C 261.85 -0.309048 3.45922 0
M  V30 2826 C 260.804 0.54166 4.24559 0
M  V30 2827 C 260.13 -0.337191 5.33636 0
M  V30 2828 C 261.43 1.80516 4.90114 0
M  V30 2829 H 263.124 1.29121 2.70126 0
M  V30 2830 H 260.67 0.622323 1.29858 0
M  V30 2831 H 262.623 -0.659315 4.1621 0
M  V30 2832 H 261.347 -1.19352 3.04011 0
M  V30 2833 H 260.006 0.874609 3.56014 0
M  V30 2834 H 259.654 -1.22056 4.87966 0
M  V30 2835 H 259.354 0.228497 5.87156 0
M  V30 2836 H 260.878 -0.683072 6.06767 0
M  V30 2837 H 262.292 1.52307 5.52698 0
M  V30 2838 H 260.689 2.3142 5.53683 0
M  V30 2839 H 261.759 2.52581 4.13921 0
M  V30 2840 N 263.102 -1.41638 0.69111 0
M  V30 2841 C 264.034 -2.29194 -0.0161523 0
M  V30 2842 C 265.047 -1.44549 -0.748955 0
M  V30 2843 O 266.236 -1.681 -0.6004 0
M  V30 2844 C 263.336 -3.22325 -1.0469 0
M  V30 2845 C 262.509 -4.35706 -0.384621 0
M  V30 2846 C 261.568 -5.09443 -1.31737 0
M  V30 2847 O 260.594 -5.63386 -0.811451 0
M  V30 2848 N 261.796 -5.16487 -2.64993 0
M  V30 2849 H 264.561 -2.90534 0.735523 0
M  V30 2850 H 262.122 -1.52742 0.53679 0
M  V30 2851 H 264.114 -3.68522 -1.67252 0
M  V30 2852 H 262.684 -2.62323 -1.70015 0
M  V30 2853 H 261.904 -3.91948 0.420804 0
M  V30 2854 H 263.192 -5.08743 0.0760765 0
M  V30 2855 H 262.59 -4.741 -3.08619 0
M  V30 2856 H 261.147 -5.66276 -3.22761 0
M  V30 2857 N 264.58 -0.43555 -1.51462 0
M  V30 2858 C 265.543 0.365137 -2.26273 0
M  V30 2859 C 266.543 0.951227 -1.29647 0
M  V30 2860 O 267.733 0.825958 -1.53374 0
M  V30 2861 C 264.865 1.51645 -3.05314 0
M  V30 2862 H 266.058 -0.290474 -2.9849 0
M  V30 2863 H 263.611 -0.188676 -1.55157 0
M  V30 2864 H 264.346 2.20816 -2.3751 0
M  V30 2865 H 264.131 1.10238 -3.76284 0
M  V30 2866 H 265.621 2.08218 -3.61987 0
M  V30 2867 N 266.058 1.56714 -0.166846 0
M  V30 2868 C 267.286 2.0112 0.485644 0
M  V30 2869 C 267.701 1.04705 1.57106 0
M  V30 2870 O 267.058 0.0471923 1.82439 0
M  V30 2871 C 267.109 3.45361 1.06808 0
M  V30 2872 O 266.83 4.38092 0.0259995 0
M  V30 2873 C 268.331 4.05145 1.79924 0
M  V30 2874 H 265.551 0.65931 0.124704 0
M  V30 2875 H 268.095 2.02746 -0.267262 0
M  V30 2876 H 266.25 3.44524 1.7715 0
M  V30 2877 H 266.664 5.22519 0.455398 0
M  V30 2878 H 268.138 5.08009 2.15942 0
M  V30 2879 H 268.615 3.46982 2.69258 0
M  V30 2880 H 269.221 4.09672 1.14234 0
M  V30 2881 N 267.536 -0.106894 1.57237 0
M  V30 2882 C 268.947 -0.662723 1.74542 0
M  V30 2883 C 269.298 -1.7971 0.787319 0
M  V30 2884 O 268.423 -2.16368 -0.0369636 0
M  V30 2885 C 269.018 -1.20896 3.16496 0
M  V30 2886 C 267.577 -1.71096 3.35266 0
M  V30 2887 C 266.724 -0.615642 2.7038 0
M  V30 2888 H 269.675 0.119106 1.58252 0
M  V30 2889 H 269.696 -2.07847 3.18716 0
M  V30 2890 H 269.208 -0.383122 3.86204 0
M  V30 2891 H 267.309 -2.56119 2.70618 0
M  V30 2892 H 267.422 -1.81208 4.43509 0
M  V30 2893 H 265.786 -1.05222 2.31949 0
M  V30 2894 H 266.569 0.199419 3.4272 0
M  V30 2895 N 269.014 -1.53014 -0.377408 0
M  V30 2896 C 269.924 -1.81557 -1.48574 0
M  V30 2897 C 270.94 -0.703102 -1.59162 0
M  V30 2898 O 272.116 -0.99192 -1.75279 0
M  V30 2899 C 269.181 -1.9889 -2.83978 0
M  V30 2900 C 268.242 -3.22801 -2.83016 0
M  V30 2901 C 267.475 -3.39298 -4.11962 0
M  V30 2902 O 267.698 -2.60345 -5.0752 0
M  V30 2903 O 266.632 -4.32604 -4.18494 0
M  V30 2904 H 270.458 -2.75695 -1.27382 0
M  V30 2905 H 268.043 -1.38248 -0.566373 0
M  V30 2906 H 269.925 -2.11931 -3.6423 0
M  V30 2907 H 268.6 -1.07942 -3.05172 0
M  V30 2908 H 267.507 -3.15193 -2.01505 0
M  V30 2909 H 268.84 -4.13632 -2.66775 0
M  V30 2910 N 270.492 0.636531 -1.44174 0
M  V30 2911 C 271.72 1.42353 -1.50144 0
M  V30 2912 C 272.135 1.88389 -0.124575 0
M  V30 2913 O 271.492 1.6051 0.868489 0
M  V30 2914 C 271.543 2.64744 -2.46156 0
M  V30 2915 O 271.264 2.20629 -3.7849 0
M  V30 2916 C 272.765 3.57929 -2.61537 0
M  V30 2917 H 269.985 0.436752 -0.5094 0
M  V30 2918 H 272.529 0.778933 -1.89084 0
M  V30 2919 H 270.684 3.25307 -2.10366 0
M  V30 2920 H 271.098 2.99938 -4.30276 0
M  V30 2921 H 272.572 4.40428 -3.32757 0
M  V30 2922 H 273.049 4.06382 -1.66585 0
M  V30 2923 H 273.655 3.03238 -2.98206 0
M  V30 2924 N 271.97 1.30982 0.876444 0
M  V30 2925 C 273.21 1.21589 1.64303 0
M  V30 2926 C 273.574 -0.223962 1.90689 0
M  V30 2927 O 274.775 -0.44128 2.65153 0
M  V30 2928 C 273.046 2.03007 2.94148 0
M  V30 2929 S 274.605 2.10405 3.85065 0
M  V30 2930 H 271.423 0.433161 0.563819 0
M  V30 2931 H 274.025 1.65565 1.03964 0
M  V30 2932 H 272.729 3.06719 2.72675 0
M  V30 2933 H 272.26 1.59725 3.59515 0
M  V30 2934 H 274.275 1.23765 4.80517 0
M  V30 2935 N 273.449 -1.08991 1.13837 0
M  V30 2936 C 274.379 -2.17771 0.842507 0
M  V30 2937 C 275.36 -1.6892 -0.20001 0
M  V30 2938 O 276.545 -1.94113 -0.0579731 0
M  V30 2939 C 273.675 -3.4589 0.312644 0
M  V30 2940 C 272.629 -4.08099 1.28992 0
M  V30 2941 C 271.955 -5.31098 0.619623 0
M  V30 2942 C 273.255 -4.50077 2.65005 0
M  V30 2943 H 274.949 -2.42777 1.75213 0
M  V30 2944 H 272.495 -1.16682 0.843875 0
M  V30 2945 H 274.448 -4.21297 0.0933043 0
M  V30 2946 H 273.172 -3.20419 -0.632382 0
M  V30 2947 H 271.831 -3.34717 1.49533 0
M  V30 2948 H 271.479 -5.0191 -0.33102 0
M  V30 2949 H 271.179 -5.73674 1.27167 0
M  V30 2950 H 272.703 -6.09224 0.409669 0
M  V30 2951 H 274.117 -5.16688 2.48407 0
M  V30 2952 H 272.514 -5.03553 3.26427 0
M  V30 2953 H 273.584 -3.62257 3.22332 0
M  V30 2954 N 274.927 -0.932562 -1.27047 0
M  V30 2955 C 275.877 -0.406392 -2.24349 0
M  V30 2956 C 276.861 0.492066 -1.53191 0
M  V30 2957 O 278.053 0.328717 -1.73921 0
M  V30 2958 C 275.182 0.335214 -3.41659 0
M  V30 2959 C 274.268 -0.58004 -4.20115 0
M  V30 2960 N 274.659 -1.70203 -4.76303 0
M  V30 2961 C 272.957 -0.383974 -4.44344 0
M  V30 2962 C 273.658 -2.27167 -5.35509 0
M  V30 2963 N 272.634 -1.56068 -5.20715 0
M  V30 2964 H 276.436 -1.26299 -2.65378 0
M  V30 2965 H 273.95 -0.787408 -1.42034 0
M  V30 2966 H 275.947 0.729142 -4.10474 0
M  V30 2967 H 274.607 1.18868 -3.0216 0
M  V30 2968 H 275.618 -2.08433 -4.74106 0
M  V30 2969 H 272.295 0.428436 -4.15296 0
M  V30 2970 H 273.685 -3.21654 -5.89905 0
M  V30 2971 N 276.405 1.4127 -0.698611 0
M  V30 2972 C 277.821 1.55241 -0.370462 0
M  V30 2973 C 278.021 1.67351 1.12231 0
M  V30 2974 O 277.077 1.65363 1.90818 0
M  V30 2975 C 278.39 2.78997 -1.12165 0
M  V30 2976 C 279.938 2.92797 -1.1063 0
M  V30 2977 C 280.413 4.19445 -1.8393 0
M  V30 2978 N 281.904 4.26409 -1.80914 0
M  V30 2979 C 282.639 5.23271 -2.34467 0
M  V30 2980 N 282.135 6.26145 -2.96504 0
M  V30 2981 N 283.928 5.15232 -2.24706 0
M  V30 2982 H 276.079 1.31654 -1.66676 0
M  V30 2983 H 278.342 0.635393 -0.703548 0
M  V30 2984 H 278.048 2.76268 -2.17644 0
M  V30 2985 H 277.922 3.70606 -0.702209 0
M  V30 2986 H 280.309 2.95039 -0.0597713 0
M  V30 2987 H 280.39 2.02353 -1.56483 0
M  V30 2988 H 280.034 4.17964 -2.88563 0
M  V30 2989 H 279.964 5.08866 -1.35509 0
M  V30 2990 H 282.455 3.527 -1.35687 0
M  V30 2991 H 282.768 6.96451 -3.34927 0
M  V30 2992 H 281.113 6.26638 -3.00583 0
M  V30 2993 H 284.304 4.33789 -1.7591 0
M  V30 2994 H 284.477 5.90552 -2.66745 0
M  V30 2995 N 277.883 0.443576 1.51229 0
M  V30 2996 C 279.132 -0.122332 2.01329 0
M  V30 2997 C 279.445 -1.43237 1.33201 0
M  V30 2998 O 280.651 -2.0816 1.74304 0
M  V30 2999 C 279.107 -0.268551 3.58897 0
M  V30 3000 C 278.715 1.03142 4.35965 0
M  V30 3001 C 280.459 -0.787894 4.17124 0
M  V30 3002 C 278.366 0.850504 5.85252 0
M  V30 3003 H 277.296 -0.0494929 0.752374 0
M  V30 3004 H 279.947 0.574289 1.74282 0
M  V30 3005 H 278.329 -1.02832 3.82415 0
M  V30 3006 H 279.503 1.80001 4.24189 0
M  V30 3007 H 277.818 1.47977 3.89219 0
M  V30 3008 H 280.415 -0.939841 5.26375 0
M  V30 3009 H 280.758 -1.77201 3.76703 0
M  V30 3010 H 281.291 -0.0862669 3.97706 0
M  V30 3011 H 278.03 1.80718 6.30096 0
M  V30 3012 H 277.55 0.121825 5.99676 0
M  V30 3013 H 279.229 0.506163 6.45017 0
M  V30 3014 N 279.361 -1.56624 0.175154 0
M  V30 3015 C 280.591 -2.01082 -0.474283 0
M  V30 3016 C 280.999 -1.05447 -1.57091 0
M  V30 3017 O 280.342 -0.0480595 -1.83637 0
M  V30 3018 C 280.404 -3.41963 -1.10911 0
M  V30 3019 C 280.068 -4.56742 -0.153666 0
M  V30 3020 C 281.065 -5.16076 0.629448 0
M  V30 3021 C 278.75 -5.02277 -0.0483776 0
M  V30 3022 C 280.744 -6.19377 1.50501 0
M  V30 3023 C 278.431 -6.05427 0.830768 0
M  V30 3024 C 279.429 -6.63849 1.60605 0
M  V30 3025 O 279.117 -7.64998 2.47049 0
M  V30 3026 H 278.849 -0.664261 -0.125432 0
M  V30 3027 H 281.403 -2.03549 0.275163 0
M  V30 3028 H 279.633 -3.36422 -1.90676 0
M  V30 3029 H 281.322 -3.70352 -1.66114 0
M  V30 3030 H 282.088 -4.81776 0.558297 0
M  V30 3031 H 277.967 -4.56513 -0.641611 0
M  V30 3032 H 281.511 -6.64906 2.1106 0
M  V30 3033 H 277.408 -6.39151 0.903107 0
M  V30 3034 H 278.176 -7.82336 2.40607 0
M  V30 3035 N 280.839 0.0985539 -1.57292 0
M  V30 3036 C 281.769 1.12064 -2.04851 0
M  V30 3037 C 282.75 1.41981 -0.936767 0
M  V30 3038 O 283.935 1.52071 -1.20781 0
M  V30 3039 C 281.065 2.44144 -2.47004 0
M  V30 3040 C 280.019 2.28643 -3.6181 0
M  V30 3041 C 279.345 3.65869 -3.89929 0
M  V30 3042 C 280.645 1.72986 -4.92822 0
M  V30 3043 H 282.339 0.724979 -2.9049 0
M  V30 3044 H 279.885 0.34729 -1.39749 0
M  V30 3045 H 281.838 3.15914 -2.78884 0
M  V30 3046 H 280.562 2.85639 -1.5836 0
M  V30 3047 H 279.221 1.59318 -3.30172 0
M  V30 3048 H 278.869 4.04885 -2.98458 0
M  V30 3049 H 278.569 3.56344 -4.67218 0
M  V30 3050 H 280.093 4.39112 -4.2428 0
M  V30 3051 H 281.507 2.34593 -5.23105 0
M  V30 3052 H 279.904 1.74229 -5.74251 0
M  V30 3053 H 280.974 0.689007 -4.7998 0
M  V30 3054 N 282.317 1.53212 0.369288 0
M  V30 3055 C 283.733 1.42902 0.710712 0
M  V30 3056 C 283.933 0.565135 1.93413 0
M  V30 3057 O 282.989 0.0461484 2.52458 0
M  V30 3058 C 284.302 2.86042 0.927382 0
M  V30 3059 C 285.85 2.9565 1.02762 0
M  V30 3060 C 286.325 4.39843 1.27679 0
M  V30 3061 N 287.816 4.43256 1.34457 0
M  V30 3062 C 288.551 5.51929 1.55439 0
M  V30 3063 N 288.047 6.70655 1.73762 0
M  V30 3064 N 289.84 5.39502 1.57779 0
M  V30 3065 H 281.991 2.07888 -0.435457 0
M  V30 3066 H 284.254 0.938661 -0.132739 0
M  V30 3067 H 283.96 3.51557 0.100287 0
M  V30 3068 H 283.834 3.29472 1.83653 0
M  V30 3069 H 286.221 2.30291 1.84527 0
M  V30 3070 H 286.302 2.5562 0.0959504 0
M  V30 3071 H 285.946 5.05774 0.464175 0
M  V30 3072 H 285.876 4.77443 2.22162 0
M  V30 3073 H 288.367 3.5769 1.21926 0
M  V30 3074 H 288.68 7.49248 1.89335 0
M  V30 3075 H 287.025 6.73648 1.70948 0
M  V30 3076 H 290.216 4.45713 1.43029 0
M  V30 3077 H 290.389 6.2426 1.7379 0
M  V30 3078 N 283.795 -0.628877 1.44509 0
M  V30 3079 C 285.043 -1.38565 1.4712 0
M  V30 3080 C 285.364 -1.94712 0.105899 0
M  V30 3081 O 284.634 -1.75912 -0.862079 0
M  V30 3082 H 283.214 -0.514333 0.541729 0
M  V30 3083 H 285.876 -0.740018 1.80305 0
M  V30 3084 H 284.972 -2.21583 2.19789 0
M  V30 3085 N 285.273 -1.31445 -0.869486 0
M  V30 3086 C 286.689 -1.10113 -1.15531 0
M  V30 3087 C 286.889 0.128087 -2.01092 0
M  V30 3088 O 285.945 0.817276 -2.38908 0
M  V30 3089 C 287.258 -2.37291 -1.84698 0
M  V30 3090 C 288.806 -2.42906 -1.97397 0
M  V30 3091 C 289.281 -3.69967 -2.69979 0
M  V30 3092 N 290.772 -3.70864 -2.77514 0
M  V30 3093 C 291.507 -4.65875 -3.34287 0
M  V30 3094 N 291.003 -5.71242 -3.91988 0
M  V30 3095 N 292.796 -4.53394 -3.3225 0
M  V30 3096 H 284.947 -2.1028 -0.299347 0
M  V30 3097 H 287.21 -0.927683 -0.195214 0
M  V30 3098 H 286.916 -3.27078 -1.29278 0
M  V30 3099 H 286.79 -2.47125 -2.84972 0
M  V30 3100 H 289.177 -1.53588 -2.51982 0
M  V30 3101 H 289.258 -2.37036 -0.961643 0
M  V30 3102 H 288.902 -4.59652 -2.16062 0
M  V30 3103 H 288.832 -3.73103 -3.7162 0
M  V30 3104 H 291.323 -2.94697 -2.36563 0
M  V30 3105 H 291.636 -6.39817 -4.33421 0
M  V30 3106 H 289.981 -5.75015 -3.90362 0
M  V30 3107 H 293.172 -3.70252 -2.8641 0
M  V30 3108 H 293.345 -5.27617 -3.76197 0
M  V30 3109 N 286.751 1.08385 -1.14413 0
M  V30 3110 C 287.699 2.17406 -0.826888 0
M  V30 3111 C 288.693 1.6827 0.195312 0
M  V30 3112 O 289.899 1.79927 0.0513892 0
M  V30 3113 H 286.274 0.70934 -0.249681 0
M  V30 3114 H 288.245 2.41388 -1.75426 0
M  V30 3115 C 286.994 3.46215 -0.320979 0
M  V30 3116 H 286.317 3.84401 -1.0989 0
M  V30 3117 H 287.757 4.23777 -0.137549 0
M  V30 3118 C 286.216 3.23067 0.955472 0
M  V30 3119 O 286.746 3.4668 2.02918 0
M  V30 3120 N 284.952 2.7661 0.890798 0
M  V30 3121 H 284.499 2.57594 0.0168815 0
M  V30 3122 H 284.457 2.61501 1.74542 0
M  V30 3123 N 288.23 0.939286 1.26551 0
M  V30 3124 C 289.14 0.453432 2.30176 0
M  V30 3125 C 290.156 -0.471649 1.67486 0
M  V30 3126 O 291.332 -0.35164 1.98306 0
M  V30 3127 C 288.397 -0.275326 3.45605 0
M  V30 3128 C 287.458 0.686084 4.23782 0
M  V30 3129 C 286.691 -0.00798994 5.33699 0
M  V30 3130 O 286.914 -1.22528 5.57085 0
M  V30 3131 O 285.848 0.669746 5.98162 0
M  V30 3132 H 289.674 1.31416 2.73795 0
M  V30 3133 H 287.259 0.705095 1.31715 0
M  V30 3134 H 289.141 -0.685911 4.1578 0
M  V30 3135 H 287.816 -1.11147 3.0402 0
M  V30 3136 H 286.723 1.14658 3.56096 0
M  V30 3137 H 288.056 1.48979 4.69112 0
M  V30 3138 N 289.708 -1.40897 0.706093 0
M  V30 3139 C 290.618 -2.3455 0.0482286 0
M  V30 3140 C 291.634 -1.56796 -0.754396 0
M  V30 3141 O 292.81 -1.89228 -0.689538 0
M  V30 3142 C 289.875 -3.35625 -0.869303 0
M  V30 3143 C 288.936 -4.29261 -0.0576994 0
M  V30 3144 C 288.169 -5.25508 -0.931531 0
M  V30 3145 O 288.392 -5.27472 -2.17092 0
M  V30 3146 O 287.326 -6.00727 -0.375587 0
M  V30 3147 H 291.152 -2.92407 0.820476 0
M  V30 3148 H 288.737 -1.4193 0.4665 0
M  V30 3149 H 290.619 -3.97635 -1.39514 0
M  V30 3150 H 289.294 -2.80196 -1.62086 0
M  V30 3151 H 288.201 -3.70566 0.512988 0
M  V30 3152 H 289.534 -4.87817 0.655426 0
M  V30 3153 N 291.186 -0.45159 -1.50991 0
M  V30 3154 C 292.118 0.388634 -2.25881 0
M  V30 3155 C 293.131 0.974041 -1.30446 0
M  V30 3156 O 294.32 0.865758 -1.56099 0
M  V30 3157 C 291.42 1.5571 -3.01011 0
M  V30 3158 C 290.593 1.08801 -4.23652 0
M  V30 3159 C 289.652 2.12825 -4.8124 0
M  V30 3160 O 288.678 1.71678 -5.42693 0
M  V30 3161 N 289.88 3.45453 -4.66522 0
M  V30 3162 H 292.645 -0.25329 -2.98628 0
M  V30 3163 H 290.206 -0.281268 -1.59438 0
M  V30 3164 H 292.198 2.24952 -3.3642 0
M  V30 3165 H 290.768 2.10409 -2.31186 0
M  V30 3166 H 289.988 0.22215 -3.93574 0
M  V30 3167 H 291.276 0.752213 -5.03209 0
M  V30 3168 H 290.674 3.81605 -4.17605 0
M  V30 3169 H 289.231 4.10549 -5.06254 0
M  V30 3170 N 292.664 1.56529 -0.183458 0
M  V30 3171 C 293.912 1.96855 0.457452 0
M  V30 3172 C 294.233 1.07104 1.62953 0
M  V30 3173 O 293.503 0.139887 1.954 0
M  V30 3174 H 292.083 0.72693 0.171992 0
M  V30 3175 H 294.745 1.93056 -0.267476 0
M  V30 3176 H 293.841 3.01423 0.809368 0
M  V30 3177 N 294.142 -0.090211 1.57342 0
M  V30 3178 C 295.391 -0.791531 1.8552 0
M  V30 3179 C 295.704 -1.79659 0.773441 0
M  V30 3180 O 296.91 -2.54616 0.942497 0
M  V30 3181 C 295.366 -1.45856 3.2902 0
M  V30 3182 C 294.974 -0.493017 4.45279 0
M  V30 3183 C 296.718 -2.14332 3.66418 0
M  V30 3184 C 294.625 -1.16491 5.79814 0
M  V30 3185 H 293.555 -0.299356 0.692027 0
M  V30 3186 H 296.206 -0.0445343 1.83446 0
M  V30 3187 H 294.588 -2.25318 3.2565 0
M  V30 3188 H 295.762 0.270464 4.60006 0
M  V30 3189 H 294.077 0.0863061 4.16311 0
M  V30 3190 H 296.674 -2.65344 4.64216 0
M  V30 3191 H 297.017 -2.93447 2.95287 0
M  V30 3192 H 297.55 -1.41724 3.71698 0
M  V30 3193 H 294.289 -0.41447 6.54188 0
M  V30 3194 H 293.809 -1.8997 5.68921 0
M  V30 3195 H 295.488 -1.69001 6.24538 0
M  V30 3196 N 295.62 -1.53406 -0.361157 0
M  V30 3197 C 297.031 -1.61442 -0.937728 0
M  V30 3198 C 297.382 -0.48461 -1.90121 0
M  V30 3199 O 296.507 0.388312 -2.12888 0
M  V30 3200 C 297.102 -2.92624 -1.70753 0
M  V30 3201 C 295.661 -3.02981 -2.23337 0
M  V30 3202 C 294.808 -2.5677 -1.04712 0
M  V30 3203 H 297.759 -1.58083 -0.139816 0
M  V30 3204 H 297.78 -2.80675 -2.56908 0
M  V30 3205 H 297.292 -3.74834 -1.00604 0
M  V30 3206 H 295.393 -2.25368 -2.96715 0
M  V30 3207 H 295.506 -4.0814 -2.50916 0
M  V30 3208 H 293.87 -2.11752 -1.41539 0
M  V30 3209 H 294.653 -3.41402 -0.360539 0
M  V30 3210 N 297.098 0.621204 -1.44841 0
M  V30 3211 C 298.028 1.74366 -1.55303 0
M  V30 3212 C 299.009 1.65199 -0.405385 0
M  V30 3213 O 300.194 1.83807 -0.626787 0
M  V30 3214 C 297.324 3.12931 -1.50637 0
M  V30 3215 C 296.278 3.36896 -2.63979 0
M  V30 3216 C 295.604 4.75594 -2.44366 0
M  V30 3217 C 296.904 3.28483 -4.06074 0
M  V30 3218 H 298.598 1.65867 -2.49256 0
M  V30 3219 H 296.144 0.796558 -1.19962 0
M  V30 3220 H 298.097 3.9124 -1.56555 0
M  V30 3221 H 296.821 3.22237 -0.532057 0
M  V30 3222 H 295.48 2.60972 -2.57467 0
M  V30 3223 H 295.128 4.81616 -1.45105 0
M  V30 3224 H 294.828 4.92586 -3.20364 0
M  V30 3225 H 296.352 5.5612 -2.52117 0
M  V30 3226 H 297.766 3.96684 -4.13902 0
M  V30 3227 H 296.163 3.57008 -4.82354 0
M  V30 3228 H 297.233 2.26133 -4.28943 0
M  V30 3229 N 298.576 1.31904 0.862503 0
M  V30 3230 C 299.486 1.22161 2.00285 0
M  V30 3231 C 300.502 0.136785 1.73462 0
M  V30 3232 O 301.678 0.355994 1.98229 0
M  V30 3233 C 298.743 0.937093 3.33796 0
M  V30 3234 C 297.804 2.10957 3.73893 0
M  V30 3235 C 297.037 1.83853 5.01033 0
M  V30 3236 O 297.26 0.777274 5.65079 0
M  V30 3237 O 296.194 2.69741 5.38074 0
M  V30 3238 H 300.02 2.18008 2.11439 0
M  V30 3239 H 297.605 1.11716 0.991957 0
M  V30 3240 H 299.487 0.794583 4.13841 0
M  V30 3241 H 298.162 0.00871894 3.23699 0
M  V30 3242 H 297.069 2.30752 2.94456 0
M  V30 3243 H 298.402 3.02046 3.88625 0
M  V30 3244 N 300.054 -1.07777 1.14986 0
M  V30 3245 C 301.284 -1.83752 0.944402 0
M  V30 3246 C 301.692 -1.8218 -0.51058 0
M  V30 3247 O 301.035 -1.22852 -1.36576 0
M  V30 3248 C 301.097 -3.32128 1.37592 0
M  V30 3249 C 300.761 -3.57425 2.84775 0
M  V30 3250 C 301.758 -3.5173 3.8286 0
M  V30 3251 C 299.443 -3.8523 3.2234 0
M  V30 3252 C 301.437 -3.73482 5.16517 0
M  V30 3253 C 299.124 -4.06634 4.56171 0
M  V30 3254 C 300.122 -4.00754 5.53069 0
M  V30 3255 O 299.81 -4.2159 6.84483 0
M  V30 3256 H 299.542 -0.58673 0.335744 0
M  V30 3257 H 302.096 -1.36982 1.53052 0
M  V30 3258 H 300.326 -3.79686 0.733165 0
M  V30 3259 H 302.015 -3.89555 1.14024 0
M  V30 3260 H 302.781 -3.30256 3.55184 0
M  V30 3261 H 298.66 -3.88923 2.47508 0
M  V30 3262 H 302.204 -3.68808 5.92137 0
M  V30 3263 H 298.101 -4.27593 4.83564 0
M  V30 3264 H 298.869 -4.38961 6.90837 0
M  V30 3265 N 301.532 -0.945985 -1.26051 0
M  V30 3266 C 302.462 -0.477172 -2.28572 0
M  V30 3267 C 303.443 0.472032 -1.63419 0
M  V30 3268 O 304.628 0.372853 -1.90587 0
M  V30 3269 C 301.758 0.253975 -3.4637 0
M  V30 3270 C 300.712 -0.609135 -4.23643 0
M  V30 3271 C 300.038 0.252252 -5.34105 0
M  V30 3272 C 301.338 -1.8829 -4.8718 0
M  V30 3273 H 303.032 -1.33402 -2.68038 0
M  V30 3274 H 300.578 -0.642904 -1.28852 0
M  V30 3275 H 302.531 0.593016 -4.17207 0
M  V30 3276 H 301.255 1.145 -3.05871 0
M  V30 3277 H 299.914 -0.931138 -3.54578 0
M  V30 3278 H 299.562 1.14278 -4.89846 0
M  V30 3279 H 299.262 -0.32188 -5.86718 0
M  V30 3280 H 300.786 0.586454 -6.07777 0
M  V30 3281 H 302.2 -1.61081 -5.50205 0
M  V30 3282 H 300.597 -2.40199 -5.49931 0
M  V30 3283 H 301.667 -2.59134 -4.09851 0
M  V30 3284 N 303.011 1.40521 -0.713556 0
M  V30 3285 C 303.921 2.34522 -0.0606667 0
M  V30 3286 C 304.937 1.57193 0.74607 0
M  V30 3287 O 306.113 1.89591 0.679493 0
M  V30 3288 C 303.178 3.36081 0.851491 0
M  V30 3289 C 302.239 4.29286 0.0349339 0
M  V30 3290 C 301.472 5.25994 0.903649 0
M  V30 3291 O 301.695 5.28616 2.14292 0
M  V30 3292 O 300.629 6.00918 0.343723 0
M  V30 3293 H 304.455 2.91968 -0.835972 0
M  V30 3294 H 302.04 1.41681 -0.47402 0
M  V30 3295 H 303.922 3.98369 1.37404 0
M  V30 3296 H 302.597 2.81052 1.60598 0
M  V30 3297 H 301.504 3.70289 -0.532633 0
M  V30 3298 H 302.837 4.87462 -0.681287 0
M  V30 3299 N 304.489 0.459591 1.5075 0
M  V30 3300 C 305.436 -0.340524 2.28274 0
M  V30 3301 C 306.406 -0.997371 1.32822 0
M  V30 3302 O 307.591 -1.01202 1.61749 0
M  V30 3303 C 304.731 -1.42317 3.14388 0
M  V30 3304 C 303.844 -0.782251 4.24859 0
M  V30 3305 C 302.979 -1.84182 4.98247 0
M  V30 3306 C 302.018 -1.18053 6.00608 0
M  V30 3307 N 301.155 -2.18244 6.67319 0
M  V30 3308 H 305.995 0.326899 2.96202 0
M  V30 3309 H 303.532 0.173057 1.46078 0
M  V30 3310 H 305.49 -2.06241 3.62658 0
M  V30 3311 H 304.12 -2.05992 2.4853 0
M  V30 3312 H 303.172 -0.0307404 3.80388 0
M  V30 3313 H 304.484 -0.259663 4.98124 0
M  V30 3314 H 303.638 -2.55714 5.50177 0
M  V30 3315 H 302.377 -2.39819 4.24662 0
M  V30 3316 H 301.382 -0.450776 5.47949 0
M  V30 3317 H 302.607 -0.631202 6.7616 0
M  V30 3318 H 300.553 -2.72919 5.96533 0
M  V30 3319 H 300.47 -1.70938 7.36421 0
M  V30 3320 H 301.738 -2.89191 7.23871 0
M  V30 3321 N 305.967 -1.56429 0.191757 0
M  V30 3322 C 306.897 -2.21937 -0.725696 0
M  V30 3323 C 307.878 -1.1814 -1.2238 0
M  V30 3324 O 309.063 -1.46636 -1.27325 0
M  V30 3325 C 306.193 -2.87611 -1.94672 0
M  V30 3326 C 305.147 -3.97623 -1.58366 0
M  V30 3327 C 304.473 -4.50446 -2.88102 0
M  V30 3328 C 305.773 -5.16197 -0.796133 0
M  V30 3329 H 307.467 -2.98861 -0.179606 0
M  V30 3330 H 305.013 -1.43749 -0.0849464 0
M  V30 3331 H 306.966 -3.3212 -2.59373 0
M  V30 3332 H 305.69 -2.08087 -2.51728 0
M  V30 3333 H 304.349 -3.53801 -0.960247 0
M  V30 3334 H 303.997 -3.67688 -3.43241 0
M  V30 3335 H 303.697 -5.24675 -2.64556 0
M  V30 3336 H 305.221 -4.97654 -3.53798 0
M  V30 3337 H 306.635 -5.57271 -1.34618 0
M  V30 3338 H 305.032 -5.96471 -0.658928 0
M  V30 3339 H 306.102 -4.84473 0.203478 0
M  V30 3340 N 307.445 0.0818655 -1.57387 0
M  V30 3341 C 308.395 1.10501 -1.99433 0
M  V30 3342 C 309.379 1.35041 -0.874798 0
M  V30 3343 O 310.571 1.35511 -1.13868 0
M  V30 3344 C 307.7 2.42159 -2.43339 0
M  V30 3345 C 306.786 2.20937 -3.62005 0
M  V30 3346 N 307.177 1.69616 -4.76512 0
M  V30 3347 C 305.475 2.51451 -3.68359 0
M  V30 3348 C 306.176 1.62973 -5.58404 0
M  V30 3349 N 305.152 2.08664 -5.01956 0
M  V30 3350 H 308.954 0.701373 -2.85408 0
M  V30 3351 H 306.468 0.289096 -1.59806 0
M  V30 3352 H 308.465 3.16208 -2.71695 0
M  V30 3353 H 307.125 2.83249 -1.58746 0
M  V30 3354 H 308.136 1.38624 -4.99003 0
M  V30 3355 H 304.813 2.95975 -2.94457 0
M  V30 3356 H 306.203 1.24233 -6.60315 0
M  V30 3357 N 308.923 1.53595 0.353017 0
M  V30 3358 C 310.153 1.74058 1.11299 0
M  V30 3359 C 310.561 0.475205 1.83135 0
M  V30 3360 O 309.904 -0.562344 1.74881 0
M  V30 3361 C 309.966 2.85994 2.17825 0
M  V30 3362 C 309.63 4.25923 1.65647 0
M  V30 3363 C 310.627 5.07829 1.11383 0
M  V30 3364 C 308.312 4.72377 1.7078 0
M  V30 3365 C 310.306 6.34285 0.629439 0
M  V30 3366 C 307.993 5.98808 1.21953 0
M  V30 3367 C 308.991 6.79594 0.681265 0
M  V30 3368 O 308.679 8.03651 0.200248 0
M  V30 3369 H 308.411 0.585327 0.338183 0
M  V30 3370 H 310.965 2.01186 0.413927 0
M  V30 3371 H 309.195 2.54368 2.91262 0
M  V30 3372 H 310.884 2.94515 2.79313 0
M  V30 3373 H 311.65 4.73107 1.06746 0
M  V30 3374 H 307.529 4.0956 2.11617 0
M  V30 3375 H 311.073 6.97288 0.208636 0
M  V30 3376 H 306.97 6.33026 1.26287 0
M  V30 3377 H 307.738 8.1788 0.318416 0
M  V30 3378 N 310.401 -0.613514 1.45168 0
M  V30 3379 C 311.348 -1.72456 1.53387 0
M  V30 3380 C 312.318 -1.6169 0.380191 0
M  V30 3381 O 313.503 -1.81356 0.592836 0
M  V30 3382 C 310.643 -3.10753 1.50088 0
M  V30 3383 C 309.756 -3.32368 2.75963 0
M  V30 3384 C 308.891 -4.60737 2.64376 0
M  V30 3385 C 307.93 -4.7559 3.85332 0
M  V30 3386 N 307.067 -5.95253 3.72315 0
M  V30 3387 H 311.907 -1.64768 2.48305 0
M  V30 3388 H 309.444 -0.803503 1.23216 0
M  V30 3389 H 311.402 -3.90758 1.46164 0
M  V30 3390 H 310.032 -3.17413 0.587243 0
M  V30 3391 H 309.084 -2.4618 2.89999 0
M  V30 3392 H 310.396 -3.39218 3.65695 0
M  V30 3393 H 309.55 -5.48928 2.58385 0
M  V30 3394 H 308.289 -4.56275 1.72233 0
M  V30 3395 H 307.294 -3.85824 3.91688 0
M  V30 3396 H 308.519 -4.81854 4.78533 0
M  V30 3397 H 306.465 -5.91847 2.82937 0
M  V30 3398 H 306.382 -6.03236 4.55677 0
M  V30 3399 H 307.65 -6.85958 3.70246 0
M  V30 3400 N 311.879 -1.3236 -0.855495 0
M  V30 3401 C 312.829 -1.17809 -1.95205 0
M  V30 3402 C 313.813 -0.0852319 -1.60674 0
M  V30 3403 O 315.005 -0.311651 -1.74235 0
M  V30 3404 C 312.134 -0.902437 -3.31226 0
M  V30 3405 C 311.22 -2.03695 -3.7198 0
M  V30 3406 N 311.611 -3.28544 -3.84568 0
M  V30 3407 C 309.909 -1.93993 -4.016 0
M  V30 3408 C 310.61 -4.02847 -4.19629 0
M  V30 3409 N 309.586 -3.31138 -4.31102 0
M  V30 3410 H 313.388 -2.12462 -2.0307 0
M  V30 3411 H 310.902 -1.24127 -1.0472 0
M  V30 3412 H 312.899 -0.77915 -4.09554 0
M  V30 3413 H 311.559 0.0357267 -3.2468 0
M  V30 3414 H 312.57 -3.6349 -3.68911 0
M  V30 3415 H 309.247 -1.07733 -4.03361 0
M  V30 3416 H 310.637 -5.10506 -4.36845 0
M  V30 3417 N 313.357 1.07166 -1.15556 0
M  V30 3418 C 314.267 2.17947 -0.868116 0
M  V30 3419 C 315.283 1.73297 0.156297 0
M  V30 3420 O 316.459 2.01392 -0.0182327 0
M  V30 3421 C 313.524 3.44789 -0.36355 0
M  V30 3422 C 312.585 4.03996 -1.45209 0
M  V30 3423 C 311.818 5.24783 -0.971508 0
M  V30 3424 O 312.041 5.70109 0.182194 0
M  V30 3425 O 310.975 5.75715 -1.75603 0
M  V30 3426 H 314.801 2.4503 -1.79427 0
M  V30 3427 H 312.386 1.16539 -0.934824 0
M  V30 3428 H 314.268 4.21307 -0.0887113 0
M  V30 3429 H 312.943 3.19253 0.534708 0
M  V30 3430 H 311.85 3.29009 -1.78056 0
M  V30 3431 H 313.183 4.33808 -2.32533 0
M  V30 3432 N 314.835 0.952656 1.25548 0
M  V30 3433 C 316.06 0.623025 1.97821 0
M  V30 3434 C 316.485 -0.7976 1.70352 0
M  V30 3435 O 315.843 -1.53905 0.958283 0
M  V30 3436 C 315.891 0.885532 3.49558 0
M  V30 3437 O 314.995 -0.0366641 4.12384 0
M  V30 3438 H 314.336 0.237082 0.620232 0
M  V30 3439 H 316.866 1.27871 1.59719 0
M  V30 3440 H 316.876 0.811009 3.99858 0
M  V30 3441 H 315.551 1.92094 3.6888 0
M  V30 3442 H 314.128 0.0898954 3.72792 0
M  V30 3443 N 316.313 -1.40141 0.720998 0
M  V30 3444 C 317.559 -2.01572 0.272075 0
M  V30 3445 C 317.914 -1.5616 -1.12391 0
M  V30 3446 O 317.207 -0.774198 -1.75262 0
M  V30 3447 C 317.401 -3.56165 0.296892 0
M  V30 3448 C 317.23 -4.16584 1.69375 0
M  V30 3449 C 316 -4.49783 2.30269 0
M  V30 3450 C 318.198 -4.41076 2.64493 0
M  V30 3451 N 316.18 -4.95626 3.62254 0
M  V30 3452 C 317.551 -4.88971 3.81192 0
M  V30 3453 C 319.606 -4.23122 2.62435 0
M  V30 3454 C 318.309 -5.20796 4.96149 0
M  V30 3455 C 320.335 -4.56052 3.76524 0
M  V30 3456 C 319.697 -5.04141 4.91956 0
M  V30 3457 H 315.796 -0.768343 0.145511 0
M  V30 3458 H 318.38 -1.70287 0.943959 0
M  V30 3459 H 316.551 -3.86868 -0.344578 0
M  V30 3460 H 318.283 -4.04346 -0.169254 0
M  V30 3461 H 315.038 -4.37101 1.82318 0
M  V30 3462 H 315.462 -5.22923 4.29977 0
M  V30 3463 H 320.104 -3.85158 1.74393 0
M  V30 3464 H 317.822 -5.57672 5.84831 0
M  V30 3465 H 321.408 -4.43796 3.76213 0
M  V30 3466 H 320.288 -5.29142 5.78774 0
M  V30 3467 N 317.792 -0.46758 -1.50504 0
M  V30 3468 C 318.722 0.318381 -2.31319 0
M  V30 3469 C 319.703 0.993564 -1.38066 0
M  V30 3470 O 320.888 0.991411 -1.66987 0
M  V30 3471 C 318.018 1.40275 -3.17711 0
M  V30 3472 C 316.972 0.849373 -4.19487 0
M  V30 3473 C 316.298 2.03177 -4.94594 0
M  V30 3474 C 317.598 -0.136942 -5.2212 0
M  V30 3475 H 319.292 -0.356106 -2.97275 0
M  V30 3476 H 316.838 -0.172703 -1.42961 0
M  V30 3477 H 318.791 1.96004 -3.73042 0
M  V30 3478 H 317.515 2.10596 -2.49634 0
M  V30 3479 H 316.174 0.314076 -3.65252 0
M  V30 3480 H 315.822 2.72187 -4.22993 0
M  V30 3481 H 315.522 1.66774 -5.63436 0
M  V30 3482 H 317.046 2.59403 -5.52759 0
M  V30 3483 H 318.46 0.331056 -5.72343 0
M  V30 3484 H 316.857 -0.41507 -5.98663 0
M  V30 3485 H 317.927 -1.06398 -4.73083 0
M  V30 3486 N 319.27 1.56325 -0.20005 0
M  V30 3487 C 320.2 2.22318 0.713916 0
M  V30 3488 C 321.181 1.18788 1.21752 0
M  V30 3489 O 322.366 1.47309 1.26545 0
M  V30 3490 C 319.496 2.88639 1.93144 0
M  V30 3491 C 318.45 3.98457 1.56255 0
M  V30 3492 C 317.776 4.51967 2.85709 0
M  V30 3493 C 319.076 5.16612 0.768747 0
M  V30 3494 H 320.77 2.98952 0.163755 0
M  V30 3495 H 318.316 1.43792 0.0773219 0
M  V30 3496 H 320.269 3.33491 2.57608 0
M  V30 3497 H 318.993 2.09419 2.50621 0
M  V30 3498 H 317.652 3.54305 0.941471 0
M  V30 3499 H 317.3 3.69503 3.41287 0
M  V30 3500 H 317 5.26071 2.6177 0
M  V30 3501 H 318.524 4.99523 3.51154 0
M  V30 3502 H 319.938 5.57977 1.3166 0
M  V30 3503 H 318.335 5.96812 0.627286 0
M  V30 3504 H 319.405 4.84358 -0.229168 0
M  V30 3505 N 320.748 -0.0735177 1.57428 0
M  V30 3506 C 321.698 -1.09442 2.00016 0
M  V30 3507 C 322.682 -1.34575 0.881947 0
M  V30 3508 O 323.874 -1.34905 1.14585 0
M  V30 3509 C 321.003 -2.40865 2.4462 0
M  V30 3510 C 320.089 -2.19014 3.63172 0
M  V30 3511 N 320.48 -1.67087 4.77405 0
M  V30 3512 C 318.778 -2.49494 3.69688 0
M  V30 3513 C 319.479 -1.6001 5.5926 0
M  V30 3514 N 318.455 -2.05999 5.03056 0
M  V30 3515 H 322.257 -0.686227 2.85776 0
M  V30 3516 H 319.771 -0.280617 1.59957 0
M  V30 3517 H 321.768 -3.14763 2.73368 0
M  V30 3518 H 320.428 -2.82403 1.60246 0
M  V30 3519 H 321.439 -1.35975 4.99731 0
M  V30 3520 H 318.116 -2.94409 2.96023 0
M  V30 3521 H 319.506 -1.2073 6.60964 0
M  V30 3522 N 322.226 -1.5378 -0.344866 0
M  V30 3523 C 323.642 -1.44015 -0.687888 0
M  V30 3524 C 323.842 -0.595834 -1.92489 0
M  V30 3525 O 322.898 -0.0863064 -2.52352 0
M  V30 3526 C 324.211 -2.87481 -0.881758 0
M  V30 3527 C 325.759 -2.97247 -0.980459 0
M  V30 3528 C 326.234 -4.41819 -1.20665 0
M  V30 3529 N 327.725 -4.45339 -1.27389 0
M  V30 3530 C 328.46 -5.54333 -1.46639 0
M  V30 3531 N 327.956 -6.73335 -1.63071 0
M  V30 3532 N 329.749 -5.41944 -1.49176 0
M  V30 3533 H 321.9 -2.07169 0.468475 0
M  V30 3534 H 324.163 -0.93643 0.147655 0
M  V30 3535 H 323.869 -3.51672 -0.0443444 0
M  V30 3536 H 323.743 -3.32352 -1.78388 0
M  V30 3537 H 326.13 -2.33197 -1.8084 0
M  V30 3538 H 326.211 -2.5574 -0.0552713 0
M  V30 3539 H 325.855 -5.06449 -0.383652 0
M  V30 3540 H 325.785 -4.80917 -2.14539 0
M  V30 3541 H 328.276 -3.59585 -1.1622 0
M  V30 3542 H 328.589 -7.52165 -1.77391 0
M  V30 3543 H 326.934 -6.76282 -1.60209 0
M  V30 3544 H 330.125 -4.47932 -1.3592 0
M  V30 3545 H 330.298 -6.26946 -1.63837 0
M  V30 3546 N 323.704 0.605807 -1.45491 0
M  V30 3547 C 324.932 1.39136 -1.5313 0
M  V30 3548 C 325.347 1.88082 -0.164507 0
M  V30 3549 O 324.704 1.62316 0.834247 0
M  V30 3550 C 324.755 2.59463 -2.51716 0
M  V30 3551 O 324.476 2.12551 -3.83084 0
M  V30 3552 C 325.977 3.52301 -2.6907 0
M  V30 3553 H 323.197 0.425849 -0.51855 0
M  V30 3554 H 325.741 0.73865 -1.90694 0
M  V30 3555 H 323.896 3.20772 -2.17219 0
M  V30 3556 H 324.31 2.90744 -4.36541 0
M  V30 3557 H 325.784 4.33271 -3.42024 0
M  V30 3558 H 326.261 4.02757 -1.75167 0
M  V30 3559 H 326.867 2.96845 -3.04571 0
M  V30 3560 N 325.182 1.32811 0.848464 0
M  V30 3561 C 326.112 1.24882 1.97299 0
M  V30 3562 C 327.093 0.131357 1.69592 0
M  V30 3563 O 328.278 0.319553 1.91553 0
M  V30 3564 C 325.408 0.97746 3.33261 0
M  V30 3565 C 324.362 2.05682 3.75338 0
M  V30 3566 C 323.688 1.63777 5.09 0
M  V30 3567 C 324.988 3.47254 3.90144 0
M  V30 3568 H 326.682 2.18966 2.04191 0
M  V30 3569 H 324.228 1.05413 0.981029 0
M  V30 3570 H 326.181 0.908513 4.1149 0
M  V30 3571 H 324.905 0.000980011 3.266 0
M  V30 3572 H 323.564 2.11603 2.99366 0
M  V30 3573 H 323.212 0.648569 4.98801 0
M  V30 3574 H 322.912 2.36 5.38124 0
M  V30 3575 H 324.436 1.5833 5.89715 0
M  V30 3576 H 325.85 3.43888 4.58709 0
M  V30 3577 H 324.247 4.1788 4.30693 0
M  V30 3578 H 325.317 3.86462 2.92874 0
M  V30 3579 N 326.66 -1.06551 1.16123 0
M  V30 3580 C 327.607 -2.13961 0.865414 0
M  V30 3581 C 328.577 -1.65066 -0.185055 0
M  V30 3582 O 329.762 -1.90732 -0.05083 0
M  V30 3583 C 326.902 -3.43113 0.369776 0
M  V30 3584 C 326.015 -4.05756 1.48276 0
M  V30 3585 C 325.15 -5.22773 0.942414 0
M  V30 3586 C 324.189 -5.77395 2.03179 0
M  V30 3587 N 323.326 -6.85731 1.50721 0
M  V30 3588 H 328.166 -2.38605 1.78527 0
M  V30 3589 H 325.703 -1.17072 0.890646 0
M  V30 3590 H 327.661 -4.17151 0.0640643 0
M  V30 3591 H 326.291 -3.18695 -0.513143 0
M  V30 3592 H 325.343 -3.29292 1.9045 0
M  V30 3593 H 326.655 -4.42351 2.30493 0
M  V30 3594 H 325.809 -6.03827 0.589729 0
M  V30 3595 H 324.548 -4.87618 0.0895191 0
M  V30 3596 H 323.553 -4.94981 2.3932 0
M  V30 3597 H 324.778 -6.14603 2.8886 0
M  V30 3598 H 322.724 -6.52499 0.676811 0
M  V30 3599 H 322.641 -7.21254 2.26557 0
M  V30 3600 H 323.909 -7.7047 1.18303 0
M  V30 3601 N 328.138 -0.959301 -1.25041 0
M  V30 3602 C 329.366 -0.633949 -1.96948 0
M  V30 3603 C 329.781 0.794916 -1.7125 0
M  V30 3604 O 329.138 1.53231 -0.991287 0
M  V30 3605 C 329.189 -0.888805 -3.50403 0
M  V30 3606 O 328.91 -2.26149 -3.75218 0
M  V30 3607 C 330.411 -0.576482 -4.39536 0
M  V30 3608 H 327.631 -0.237263 -0.627652 0
M  V30 3609 H 330.175 -1.28495 -1.59089 0
M  V30 3610 H 328.33 -0.284145 -3.86357 0
M  V30 3611 H 328.744 -2.33514 -4.6965 0
M  V30 3612 H 330.218 -0.805314 -5.46094 0
M  V30 3613 H 330.695 0.489075 -4.36468 0
M  V30 3614 H 331.301 -1.16067 -4.09156 0
M  V30 3615 N 329.616 1.39756 -0.72842 0
M  V30 3616 C 330.564 2.32485 -0.0731849 0
M  V30 3617 C 331.558 1.52717 0.733063 0
M  V30 3618 O 332.764 1.68428 0.634988 0
M  V30 3619 H 329.139 0.751984 -0.00486469 0
M  V30 3620 H 331.11 2.85382 -0.871761 0
M  V30 3621 C 329.859 3.37773 0.824908 0
M  V30 3622 H 329.182 3.99227 0.213915 0
M  V30 3623 H 330.622 4.05121 1.25111 0
M  V30 3624 C 329.081 2.74287 1.95622 0
M  V30 3625 O 329.611 2.61618 3.04826 0
M  V30 3626 N 327.817 2.32475 1.74367 0
M  V30 3627 H 327.364 2.4298 0.855494 0
M  V30 3628 H 327.322 1.90337 2.50238 0
M  V30 3629 N 331.094 0.475555 1.50254 0
M  V30 3630 C 332.341 -0.0778919 2.0235 0
M  V30 3631 C 332.669 -1.39319 1.35722 0
M  V30 3632 O 331.924 -1.89888 0.473395 0
M  V30 3633 C 332.223 -0.305114 3.56095 0
M  V30 3634 C 331.889 0.92903 4.41225 0
M  V30 3635 C 330.551 1.26739 4.6421 0
M  V30 3636 C 332.903 1.75054 4.90923 0
M  V30 3637 C 330.231 2.42724 5.34137 0
M  V30 3638 C 332.583 2.9017 5.62125 0
M  V30 3639 C 331.247 3.24416 5.83362 0
M  V30 3640 H 330.517 -0.0285027 0.740452 0
M  V30 3641 H 333.164 0.630543 1.80821 0
M  V30 3642 H 331.469 -1.09584 3.76163 0
M  V30 3643 H 333.166 -0.747377 3.93974 0
M  V30 3644 H 329.756 0.655428 4.23559 0
M  V30 3645 H 333.94 1.50231 4.73016 0
M  V30 3646 H 329.196 2.69525 5.48786 0
M  V30 3647 H 333.37 3.54169 5.99614 0
M  V30 3648 H 330.997 4.14396 6.37323 0
M  V30 3649 N 332.573 -1.56217 0.208337 0
M  V30 3650 C 333.85 -1.89739 -0.475234 0
M  V30 3651 C 334.23 -1.1238 -1.78701 0
M  V30 3652 O 333.578 -0.228979 -2.2735 0
M  V30 3653 C 333.788 -3.42289 -0.681101 0
M  V30 3654 C 335.136 -4.12789 -0.994507 0
M  V30 3655 O 336.16 -3.47814 -0.768357 0
M  V30 3656 O 335.019 -5.27649 -1.42299 0
M  V30 3657 H 332.113 -0.788478 -0.249461 0
M  V30 3658 H 334.659 -1.67855 0.249538 0
M  V30 3659 H 333.431 -3.90534 0.244722 0
M  V30 3660 H 333.054 -3.69909 -1.45785 0
M  V30 3661 N 334.051 0.0651679 -1.57465 0
M  V30 3662 C 335.281 0.774683 -1.91526 0
M  V30 3663 C 335.689 1.71305 -0.803196 0
M  V30 3664 O 335.032 1.82231 0.231881 0
M  V30 3665 C 335.094 1.61645 -3.21109 0
M  V30 3666 C 334.758 0.846753 -4.49087 0
M  V30 3667 C 335.755 0.163024 -5.19644 0
M  V30 3668 C 333.44 0.811966 -4.95694 0
M  V30 3669 C 335.434 -0.54519 -6.35064 0
M  V30 3670 C 333.121 0.0999836 -6.11018 0
M  V30 3671 C 334.119 -0.577388 -6.80555 0
M  V30 3672 O 333.807 -1.27789 -7.93678 0
M  V30 3673 H 333.539 0.225031 -0.637446 0
M  V30 3674 H 336.093 0.0377134 -2.05365 0
M  V30 3675 H 334.323 2.39638 -3.03497 0
M  V30 3676 H 336.012 2.20525 -3.40769 0
M  V30 3677 H 336.778 0.181163 -4.84662 0
M  V30 3678 H 332.657 1.32867 -4.41438 0
M  V30 3679 H 336.201 -1.07446 -6.89276 0
M  V30 3680 H 332.098 0.0797945 -6.45451 0
M  V30 3681 H 332.866 -1.18784 -8.09835 0
M  V30 3682 N 335.529 1.53961 0.336706 0
M  V30 3683 C 336.459 1.85417 1.41925 0
M  V30 3684 C 337.44 0.709856 1.5458 0
M  V30 3685 O 338.625 0.962396 1.68676 0
M  V30 3686 C 335.755 2.06985 2.78881 0
M  V30 3687 C 334.709 3.22813 2.81026 0
M  V30 3688 C 334.035 3.29727 4.20932 0
M  V30 3689 C 335.335 4.60767 2.45949 0
M  V30 3690 H 337.029 2.76079 1.15848 0
M  V30 3691 H 334.575 1.32839 0.555859 0
M  V30 3692 H 336.528 2.27575 3.54665 0
M  V30 3693 H 335.252 1.13061 3.06406 0
M  V30 3694 H 333.911 3.0209 2.07695 0
M  V30 3695 H 333.559 2.33385 4.45579 0
M  V30 3696 H 333.259 4.07566 4.23277 0
M  V30 3697 H 334.783 3.52536 4.98549 0
M  V30 3698 H 336.197 4.81325 3.11446 0
M  V30 3699 H 334.594 5.4106 2.59566 0
M  V30 3700 H 335.664 4.6391 1.41122 0
M  V30 3701 N 337.007 -0.598083 1.45811 0
M  V30 3702 C 337.939 -1.72231 1.51225 0
M  V30 3703 C 338.952 -1.57757 0.402059 0
M  V30 3704 O 340.141 -1.65464 0.669624 0
M  V30 3705 C 337.241 -3.10331 1.3619 0
M  V30 3706 C 336.414 -3.50955 2.61054 0
M  V30 3707 C 335.473 -4.68055 2.40439 0
M  V30 3708 O 334.499 -4.74691 3.14097 0
M  V30 3709 N 335.701 -5.61941 1.45612 0
M  V30 3710 H 338.466 -1.68046 2.48154 0
M  V30 3711 H 336.027 -0.783637 1.41671 0
M  V30 3712 H 338.019 -3.86439 1.20195 0
M  V30 3713 H 336.589 -3.0897 0.475015 0
M  V30 3714 H 335.809 -2.64711 2.92099 0
M  V30 3715 H 337.097 -3.74858 3.44034 0
M  V30 3716 H 336.495 -5.59301 0.848431 0
M  V30 3717 H 335.052 -6.37542 1.35585 0
M  V30 3718 N 338.485 -1.33259 -0.841409 0
M  V30 3719 C 339.395 -1.25332 -1.98316 0
M  V30 3720 C 340.411 -0.164364 -1.73222 0
M  V30 3721 O 341.587 -0.387486 -1.97637 0
M  V30 3722 C 338.652 -0.990078 -3.32262 0
M  V30 3723 C 337.713 -2.16879 -3.70489 0
M  V30 3724 C 336.946 -1.91801 -4.98044 0
M  V30 3725 O 337.169 -0.867075 -5.63771 0
M  V30 3726 O 336.103 -2.78267 -5.33714 0
M  V30 3727 H 339.929 -2.21344 -2.07944 0
M  V30 3728 H 337.514 -1.1328 -0.974058 0
M  V30 3729 H 339.396 -0.860321 -4.12524 0
M  V30 3730 H 338.071 -0.0602155 -3.23644 0
M  V30 3731 H 336.978 -2.35407 -2.90748 0
M  V30 3732 H 338.311 -3.0819 -3.8377 0
M  V30 3733 N 339.963 1.05934 -1.16686 0
M  V30 3734 C 341.209 1.79065 -0.95203 0
M  V30 3735 C 341.542 1.87147 0.518629 0
M  V30 3736 O 340.817 1.36574 1.38484 0
M  V30 3737 C 341.1 3.23359 -1.58464 0
M  V30 3738 C 340.953 3.23336 -3.12689 0
M  V30 3739 C 342.272 4.21004 -1.28232 0
M  V30 3740 H 339.391 0.65005 -0.34728 0
M  V30 3741 H 342.033 1.23868 -1.44072 0
M  V30 3742 H 340.183 3.70493 -1.16908 0
M  V30 3743 H 341.855 2.84336 -3.6325 0
M  V30 3744 H 340.098 2.61886 -3.4583 0
M  V30 3745 H 340.769 4.25144 -3.52075 0
M  V30 3746 H 343.245 3.8233 -1.64203 0
M  V30 3747 H 342.121 5.20225 -1.75092 0
M  V30 3748 H 342.382 4.41639 -0.201791 0
M  V30 3749 N 341.441 0.965919 1.2453 0
M  V30 3750 C 342.852 0.665929 1.7442 0
M  V30 3751 C 343.203 -0.818407 1.78316 0
M  V30 3752 O 342.328 -1.64037 1.41141 0
M  V30 3753 C 342.923 1.20211 3.16757 0
M  V30 3754 C 341.482 0.952059 3.6416 0
M  V30 3755 C 340.629 1.33848 2.42858 0
M  V30 3756 H 343.58 1.14144 1.10258 0
M  V30 3757 H 343.601 0.567544 3.76244 0
M  V30 3758 H 343.113 2.28244 3.13889 0
M  V30 3759 H 341.214 -0.112821 3.72429 0
M  V30 3760 H 341.327 1.59645 4.51719 0
M  V30 3761 H 339.691 0.756864 2.43195 0
M  V30 3762 H 340.474 2.42827 2.42673 0
M  V30 3763 N 342.919 -1.39368 0.735821 0
M  V30 3764 C 344.168 -1.99733 0.281004 0
M  V30 3765 C 344.481 -1.59055 -1.13846 0
M  V30 3766 O 345.687 -2.12262 -1.69284 0
M  V30 3767 C 344.143 -3.57057 0.451462 0
M  V30 3768 C 343.751 -4.06697 1.87886 0
M  V30 3769 C 345.495 -4.2446 0.0584616 0
M  V30 3770 C 343.402 -5.56598 1.99883 0
M  V30 3771 H 342.332 -0.747163 0.101311 0
M  V30 3772 H 344.983 -1.59357 0.909819 0
M  V30 3773 H 343.365 -3.95234 -0.246263 0
M  V30 3774 H 344.539 -3.79853 2.60861 0
M  V30 3775 H 342.854 -3.5196 2.22515 0
M  V30 3776 H 345.451 -5.34549 0.127099 0
M  V30 3777 H 345.794 -4.04444 -0.986433 0
M  V30 3778 H 346.327 -3.9146 0.707374 0
M  V30 3779 H 343.066 -5.81494 3.02564 0
M  V30 3780 H 342.586 -5.85242 1.31346 0
M  V30 3781 H 344.265 -6.22022 1.78039 0
M  V30 3782 N 344.397 -0.483516 -1.5 0
M  V30 3783 C 345.327 0.293829 -2.31644 0
M  V30 3784 C 346.308 0.978864 -1.39112 0
M  V30 3785 O 347.493 0.973644 -1.68029 0
M  V30 3786 C 344.623 1.36897 -3.19181 0
M  V30 3787 C 343.577 0.804833 -4.20365 0
M  V30 3788 C 342.903 1.9792 -4.96721 0
M  V30 3789 C 344.203 -0.192313 -5.21946 0
M  V30 3790 H 345.897 -0.387616 -2.9688 0
M  V30 3791 H 343.443 -0.187856 -1.42769 0
M  V30 3792 H 345.396 1.92037 -3.751 0
M  V30 3793 H 344.12 2.07936 -2.51853 0
M  V30 3794 H 342.779 0.275319 -3.65565 0
M  V30 3795 H 342.427 2.67686 -4.25856 0
M  V30 3796 H 342.127 1.60789 -5.65173 0
M  V30 3797 H 343.651 2.53526 -5.55479 0
M  V30 3798 H 345.065 0.270333 -5.72662 0
M  V30 3799 H 343.462 -0.478543 -5.98189 0
M  V30 3800 H 344.532 -1.11409 -4.71928 0
M  V30 3801 N 345.875 1.56104 -0.216619 0
M  V30 3802 C 347.103 2.02563 0.421413 0
M  V30 3803 C 347.518 1.0965 1.53695 0
M  V30 3804 O 346.875 0.10521 1.82196 0
M  V30 3805 C 346.926 3.48584 0.957665 0
M  V30 3806 O 346.647 4.37953 -0.113389 0
M  V30 3807 C 348.148 4.10664 1.66943 0
M  V30 3808 H 345.368 0.662944 0.103665 0
M  V30 3809 H 347.912 2.01793 -0.331629 0
M  V30 3810 H 346.067 3.49985 1.661 0
M  V30 3811 H 346.481 5.23704 0.288932 0
M  V30 3812 H 347.955 5.14622 1.99671 0
M  V30 3813 H 348.432 3.55373 2.58083 0
M  V30 3814 H 349.038 4.13098 1.01142 0
M  V30 3815 N 347.353 -0.0568162 1.57498 0
M  V30 3816 C 348.283 -1.06593 2.0775 0
M  V30 3817 C 349.264 -1.39448 0.974082 0
M  V30 3818 O 350.449 -1.48815 1.24771 0
M  V30 3819 C 347.579 -2.37509 2.5339 0
M  V30 3820 C 346.533 -2.1897 3.67745 0
M  V30 3821 C 345.859 -3.55402 3.99492 0
M  V30 3822 C 347.159 -1.59859 4.97235 0
M  V30 3823 H 348.853 -0.647706 2.9231 0
M  V30 3824 H 346.399 -0.310116 1.40621 0
M  V30 3825 H 348.352 -3.08409 2.87162 0
M  V30 3826 H 347.076 -2.8134 1.65878 0
M  V30 3827 H 345.735 -1.50508 3.3428 0
M  V30 3828 H 345.383 -3.9683 3.09088 0
M  V30 3829 H 345.083 -3.43831 4.76502 0
M  V30 3830 H 346.607 -4.27708 4.35773 0
M  V30 3831 H 348.021 -2.20642 5.29141 0
M  V30 3832 H 346.418 -1.58942 5.78669 0
M  V30 3833 H 347.488 -0.561506 4.81638 0
M  V30 3834 N 348.832 -1.54138 -0.328536 0
M  V30 3835 C 350.109 -1.62749 -1.08499 0
M  V30 3836 C 350.489 -0.458198 -2.06067 0
M  V30 3837 O 349.837 0.548046 -2.2183 0
M  V30 3838 C 350.047 -2.99519 -1.79135 0
M  V30 3839 C 351.395 -3.55394 -2.32337 0
M  V30 3840 O 352.419 -3.01792 -1.89209 0
M  V30 3841 O 351.278 -4.49186 -3.11279 0
M  V30 3842 H 348.372 -0.65886 -0.499832 0
M  V30 3843 H 350.918 -1.66484 -0.328826 0
M  V30 3844 H 349.69 -3.76061 -1.08139 0
M  V30 3845 H 349.313 -2.99441 -2.61574 0
M  V30 3846 N 350.31 0.590341 -1.46126 0
M  V30 3847 C 351.556 1.35082 -1.51264 0
M  V30 3848 C 351.889 1.93534 -0.160711 0
M  V30 3849 O 351.164 1.76045 0.826956 0
M  V30 3850 C 351.447 2.48588 -2.6053 0
M  V30 3851 C 351.3 1.95221 -4.05227 0
M  V30 3852 C 352.619 3.50662 -2.6594 0
M  V30 3853 H 349.738 0.489803 -0.550692 0
M  V30 3854 H 352.38 0.663887 -1.78024 0
M  V30 3855 H 350.53 3.07186 -2.37843 0
M  V30 3856 H 352.202 1.41139 -4.39178 0
M  V30 3857 H 350.445 1.26101 -4.15068 0
M  V30 3858 H 351.116 2.77121 -4.77397 0
M  V30 3859 H 353.592 3.01934 -2.86313 0
M  V30 3860 H 352.468 4.27551 -3.44226 0
M  V30 3861 H 352.729 4.07399 -1.71694 0
M  V30 3862 N 351.788 1.33704 0.83433 0
M  V30 3863 C 352.736 1.24323 1.96587 0
M  V30 3864 C 353.73 0.143659 1.6879 0
M  V30 3865 O 354.936 0.30791 1.77347 0
M  V30 3866 H 351.311 0.385925 0.645419 0
M  V30 3867 H 353.282 2.19978 2.01624 0
M  V30 3868 C 352.031 1.00394 3.32891 0
M  V30 3869 H 351.354 1.84231 3.54822 0
M  V30 3870 H 352.794 0.97862 4.12552 0
M  V30 3871 C 351.253 -0.293047 3.35623 0
M  V30 3872 O 351.783 -1.29823 3.80143 0
M  V30 3873 N 349.989 -0.322174 2.88809 0
M  V30 3874 H 349.536 0.496379 2.52772 0
M  V30 3875 H 349.494 -1.18977 2.91019 0
M  V30 3876 N 353.266 -1.05314 1.17247 0
M  V30 3877 C 354.176 -2.16538 0.90268 0
M  V30 3878 C 355.192 -1.73523 -0.128707 0
M  V30 3879 O 356.368 -2.01337 0.0502701 0
M  V30 3880 C 353.433 -3.44167 0.418356 0
M  V30 3881 C 352.494 -4.01635 1.51618 0
M  V30 3882 C 351.727 -5.23171 1.05487 0
M  V30 3883 O 351.95 -5.70327 -0.0914715 0
M  V30 3884 O 350.884 -5.72848 1.8474 0
M  V30 3885 H 354.71 -2.42145 1.83302 0
M  V30 3886 H 352.295 -1.15037 0.953246 0
M  V30 3887 H 354.177 -4.21112 0.155726 0
M  V30 3888 H 352.852 -3.20063 -0.48385 0
M  V30 3889 H 351.759 -3.26135 1.83268 0
M  V30 3890 H 353.092 -4.30053 2.39405 0
M  V30 3891 N 354.744 -0.972509 -1.24016 0
M  V30 3892 C 356.021 -0.553733 -1.87598 0
M  V30 3893 C 356.401 0.969158 -1.87538 0
M  V30 3894 O 355.749 1.84255 -1.35139 0
M  V30 3895 C 355.959 -1.15076 -3.29482 0
M  V30 3896 C 357.307 -1.23862 -4.06132 0
M  V30 3897 O 358.331 -1.10363 -3.38672 0
M  V30 3898 O 357.19 -1.45252 -5.26844 0
M  V30 3899 H 354.284 -0.185331 -0.805966 0
M  V30 3900 H 356.83 -1.06709 -1.31952 0
M  V30 3901 H 355.602 -2.19333 -3.2405 0
M  V30 3902 H 355.225 -0.621746 -3.92709 0
M  V30 3903 N 356.222 1.38976 -0.743202 0
M  V30 3904 C 357.469 2.00343 -0.294752 0
M  V30 3905 C 357.797 1.58983 1.12047 0
M  V30 3906 O 357.052 0.813809 1.77977 0
M  V30 3907 C 357.351 3.55647 -0.353517 0
M  V30 3908 C 357.017 4.16685 -1.72292 0
M  V30 3909 C 355.679 4.3307 -2.09771 0
M  V30 3910 C 358.031 4.50464 -2.62168 0
M  V30 3911 C 355.359 4.80526 -3.36618 0
M  V30 3912 C 357.711 4.99332 -3.88395 0
M  V30 3913 C 356.375 5.13924 -4.25956 0
M  V30 3914 H 355.645 0.733108 -0.107857 0
M  V30 3915 H 358.292 1.6618 -0.951651 0
M  V30 3916 H 356.597 3.89884 0.386954 0
M  V30 3917 H 358.294 4.00998 0.0117269 0
M  V30 3918 H 354.884 4.04339 -1.42155 0
M  V30 3919 H 359.068 4.37416 -2.3448 0
M  V30 3920 H 354.324 4.90008 -3.65653 0
M  V30 3921 H 358.498 5.2444 -4.58187 0
M  V30 3922 H 356.125 5.50457 -5.2431 0
M  V30 3923 N 357.7 0.491464 1.49741 0
M  V30 3924 C 358.647 -0.292027 2.28945 0
M  V30 3925 C 359.617 -0.968973 1.34908 0
M  V30 3926 O 360.802 -0.97748 1.6386 0
M  V30 3927 C 357.942 -1.35617 3.17336 0
M  V30 3928 C 357.055 -0.691957 4.26422 0
M  V30 3929 C 356.19 -1.73572 5.02042 0
M  V30 3930 C 355.229 -1.05286 6.02977 0
M  V30 3931 N 354.366 -2.0404 6.71798 0
M  V30 3932 H 359.206 0.389654 2.95442 0
M  V30 3933 H 356.743 0.204003 1.45679 0
M  V30 3934 H 358.701 -1.98502 3.66951 0
M  V30 3935 H 357.331 -2.00674 2.52844 0
M  V30 3936 H 356.383 0.0499523 3.80367 0
M  V30 3937 H 357.695 -0.153946 4.98562 0
M  V30 3938 H 356.849 -2.43987 5.55478 0
M  V30 3939 H 355.588 -2.30757 4.29654 0
M  V30 3940 H 354.593 -0.334446 5.48782 0
M  V30 3941 H 355.818 -0.487636 6.77347 0
M  V30 3942 H 353.764 -2.60205 6.02187 0
M  V30 3943 H 353.681 -1.55279 7.39881 0
M  V30 3944 H 354.949 -2.73772 7.29842 0
M  V30 3945 N 359.178 -1.55987 0.224894 0
M  V30 3946 C 360.455 -1.90232 -0.455083 0
M  V30 3947 C 360.835 -1.14269 -1.77499 0
M  V30 3948 O 360.183 -0.253079 -2.27094 0
M  V30 3949 C 360.393 -3.42993 -0.644758 0
M  V30 3950 C 361.741 -4.13821 -0.950669 0
M  V30 3951 O 362.765 -3.4861 -0.731423 0
M  V30 3952 O 361.624 -5.29128 -1.36695 0
M  V30 3953 H 358.718 -0.79108 -0.241084 0
M  V30 3954 H 361.264 -1.67581 0.267327 0
M  V30 3955 H 360.036 -3.90252 0.28613 0
M  V30 3956 H 359.659 -3.71434 -1.41853 0
M  V30 3957 N 360.656 0.0484629 -1.57525 0
M  V30 3958 C 361.603 1.05504 -2.05275 0
M  V30 3959 C 362.573 1.37084 -0.937927 0
M  V30 3960 O 363.758 1.47754 -1.2072 0
M  V30 3961 C 360.898 2.35676 -2.52093 0
M  V30 3962 C 360.011 2.10423 -3.77288 0
M  V30 3963 C 359.146 3.34327 -4.12794 0
M  V30 3964 C 358.185 3.04542 -5.30962 0
M  V30 3965 N 357.322 4.20841 -5.61994 0
M  V30 3966 H 362.162 0.640885 -2.91027 0
M  V30 3967 H 359.699 0.304854 -1.43906 0
M  V30 3968 H 361.657 3.11709 -2.77297 0
M  V30 3969 H 360.287 2.7485 -1.69285 0
M  V30 3970 H 359.339 1.24976 -3.59284 0
M  V30 3971 H 360.651 1.84438 -4.63448 0
M  V30 3972 H 359.805 4.1874 -4.39024 0
M  V30 3973 H 358.544 3.63408 -3.25247 0
M  V30 3974 H 357.549 2.18528 -5.04505 0
M  V30 3975 H 358.774 2.76758 -6.20146 0
M  V30 3976 H 356.72 4.4991 -4.77406 0
M  V30 3977 H 356.637 3.98212 -6.42622 0
M  V30 3978 H 357.905 5.06184 -5.92789 0
M  V30 3979 N 362.134 1.5431 0.320358 0
M  V30 3980 C 363.364 1.7638 1.07582 0
M  V30 3981 C 363.772 0.513944 1.82086 0
M  V30 3982 O 363.115 -0.525123 1.76035 0
M  V30 3983 C 363.177 2.9055 2.1171 0
M  V30 3984 C 362.841 4.2934 1.56575 0
M  V30 3985 C 363.838 5.10077 1.00586 0
M  V30 3986 C 361.523 4.75893 1.60722 0
M  V30 3987 C 363.517 6.35477 0.494756 0
M  V30 3988 C 361.204 6.0126 1.09224 0
M  V30 3989 C 362.202 6.80886 0.53696 0
M  V30 3990 O 361.89 8.03894 0.0297371 0
M  V30 3991 H 361.622 0.592369 0.325692 0
M  V30 3992 H 364.176 2.02019 0.37116 0
M  V30 3993 H 362.406 2.60489 2.85801 0
M  V30 3994 H 364.095 3.00373 2.73003 0
M  V30 3995 H 364.861 4.75265 0.966869 0
M  V30 3996 H 360.74 4.13957 2.02882 0
M  V30 3997 H 364.284 6.97574 0.0606842 0
M  V30 3998 H 360.181 6.35562 1.12831 0
M  V30 3999 H 360.949 8.18372 0.14486 0
M  V30 4000 N 363.613 -0.582584 1.46437 0
M  V30 4001 C 364.523 -1.71949 1.59595 0
M  V30 4002 C 365.539 -1.67264 0.479443 0
M  V30 4003 O 366.715 -1.87171 0.743579 0
M  V30 4004 C 363.78 -3.08452 1.58298 0
M  V30 4005 C 362.841 -3.244 2.81182 0
M  V30 4006 C 362.074 -4.54391 2.79937 0
M  V30 4007 O 362.297 -5.38287 1.8869 0
M  V30 4008 O 361.231 -4.73588 3.71481 0
M  V30 4009 H 365.057 -1.63795 2.55744 0
M  V30 4010 H 362.642 -0.749643 1.29231 0
M  V30 4011 H 364.524 -3.89732 1.60271 0
M  V30 4012 H 363.199 -3.17043 0.653094 0
M  V30 4013 H 362.106 -2.42613 2.84763 0
M  V30 4014 H 363.439 -3.20699 3.7338 0
M  V30 4015 N 365.091 -1.34144 -0.827227 0
M  V30 4016 C 366.316 -1.29476 -1.62021 0
M  V30 4017 C 366.741 0.129292 -1.87655 0
M  V30 4018 O 366.099 1.08967 -1.449 0
M  V30 4019 C 366.147 -2.08702 -2.94068 0
M  V30 4020 O 365.251 -1.45359 -3.85933 0
M  V30 4021 H 364.592 -0.444881 -0.492927 0
M  V30 4022 H 367.122 -1.76882 -1.02829 0
M  V30 4023 H 367.132 -2.19898 -3.43669 0
M  V30 4024 H 365.807 -3.12241 -2.74734 0
M  V30 4025 H 364.384 -1.42879 -3.44442 0
M  V30 4026 N 366.569 1.04691 -1.17803 0
M  V30 4027 C 367.499 2.14494 -0.92275 0
M  V30 4028 C 368.48 1.69546 0.137179 0
M  V30 4029 O 369.665 1.94195 -0.0141108 0
M  V30 4030 C 366.795 3.44491 -0.440803 0
M  V30 4031 C 365.749 4.03031 -1.4405 0
M  V30 4032 C 365.075 5.28432 -0.81631 0
M  V30 4033 C 366.375 4.39932 -2.81527 0
M  V30 4034 H 368.069 2.36107 -1.84103 0
M  V30 4035 H 365.615 1.1347 -0.886599 0
M  V30 4036 H 367.568 4.2066 -0.249602 0
M  V30 4037 H 366.292 3.22546 0.513025 0
M  V30 4038 H 364.951 3.28937 -1.61853 0
M  V30 4039 H 364.599 5.02792 0.144511 0
M  V30 4040 H 364.299 5.68559 -1.48371 0
M  V30 4041 H 365.823 6.07284 -0.635496 0
M  V30 4042 H 367.237 5.07113 -2.67412 0
M  V30 4043 H 365.634 4.9109 -3.44892 0
M  V30 4044 H 366.704 3.50045 -3.35554 0
M  V30 4045 N 368.047 0.979072 1.23499 0
M  V30 4046 C 369.293 0.648178 1.92163 0
M  V30 4047 C 369.626 -0.816049 1.76222 0
M  V30 4048 O 368.901 -1.58849 1.12237 0
M  V30 4049 C 369.184 1.03773 3.44824 0
M  V30 4050 C 369.037 2.55948 3.69879 0
M  V30 4051 C 370.356 0.580653 4.36253 0
M  V30 4052 H 367.475 0.236952 0.69787 0
M  V30 4053 H 370.117 1.22012 1.45647 0
M  V30 4054 H 368.267 0.551058 3.84572 0
M  V30 4055 H 369.939 3.12179 3.3962 0
M  V30 4056 H 368.182 2.98641 3.14636 0
M  V30 4057 H 368.853 2.78255 4.76737 0
M  V30 4058 H 371.329 0.998465 4.03943 0
M  V30 4059 H 370.205 0.881663 5.41773 0
M  V30 4060 H 370.466 -0.519052 4.39042 0
M  V30 4061 N 369.525 -1.3858 0.750561 0
M  V30 4062 C 370.435 -2.34278 0.122825 0
M  V30 4063 C 371.451 -1.59116 -0.704131 0
M  V30 4064 O 372.627 -1.91326 -0.628987 0
M  V30 4065 C 369.692 -3.38221 -0.762086 0
M  V30 4066 C 368.753 -4.29227 0.078896 0
M  V30 4067 C 367.986 -5.28205 -0.763874 0
M  V30 4068 O 368.209 -5.34112 -2.00201 0
M  V30 4069 O 367.143 -6.01618 -0.18428 0
M  V30 4070 H 370.969 -2.89649 0.913088 0
M  V30 4071 H 368.554 -1.40374 0.511417 0
M  V30 4072 H 370.436 -4.01872 -1.26793 0
M  V30 4073 H 369.111 -2.85211 -1.5309 0
M  V30 4074 H 368.018 -3.68747 0.630621 0
M  V30 4075 H 369.351 -4.85484 0.810289 0
M  V30 4076 N 371.003 -0.499398 -1.49478 0
M  V30 4077 C 371.95 0.279881 -2.29097 0
M  V30 4078 C 372.92 0.961805 -1.3542 0
M  V30 4079 O 374.105 0.968777 -1.64376 0
M  V30 4080 C 371.245 1.33932 -3.18051 0
M  V30 4081 C 370.358 0.669333 -4.26783 0
M  V30 4082 C 369.493 1.70907 -5.02955 0
M  V30 4083 C 368.532 1.02087 -6.03527 0
M  V30 4084 N 367.669 2.00474 -6.7287 0
M  V30 4085 H 372.509 -0.405317 -2.95231 0
M  V30 4086 H 370.046 -0.211726 -1.45568 0
M  V30 4087 H 372.004 1.96553 -3.67998 0
M  V30 4088 H 370.634 1.9933 -2.53904 0
M  V30 4089 H 369.686 -0.0701234 -3.80335 0
M  V30 4090 H 370.998 0.127503 -4.98637 0
M  V30 4091 H 370.152 2.41037 -5.56764 0
M  V30 4092 H 368.891 2.28476 -4.30871 0
M  V30 4093 H 367.896 0.305338 -5.48951 0
M  V30 4094 H 369.121 0.451708 -6.77596 0
M  V30 4095 H 367.067 2.57007 -6.03559 0
M  V30 4096 H 366.984 1.51353 -7.40694 0
M  V30 4097 H 368.252 2.69897 -7.31284 0
M  V30 4098 N 372.481 1.55866 -0.233164 0
M  V30 4099 C 373.727 1.98897 0.395959 0
M  V30 4100 C 374.06 1.12091 1.58585 0
M  V30 4101 O 373.335 0.181182 1.93654 0
M  V30 4102 C 373.618 3.50658 0.819224 0
M  V30 4103 C 373.471 4.48233 -0.375109 0
M  V30 4104 C 374.79 4.07135 1.67121 0
M  V30 4105 H 371.909 0.723102 0.142451 0
M  V30 4106 H 374.551 1.87082 -0.331725 0
M  V30 4107 H 372.701 3.60857 1.43925 0
M  V30 4108 H 374.373 4.50031 -1.01341 0
M  V30 4109 H 372.616 4.21624 -1.02058 0
M  V30 4110 H 373.287 5.51988 -0.0358328 0
M  V30 4111 H 375.763 3.99952 1.14795 0
M  V30 4112 H 374.639 5.13615 1.93625 0
M  V30 4113 H 374.9 3.54736 2.63846 0
M  V30 4114 N 373.959 -0.0401083 1.57549 0
M  V30 4115 C 374.906 -1.04413 2.05831 0
M  V30 4116 C 375.876 -1.36585 0.945184 0
M  V30 4117 O 377.061 -1.47112 1.21502 0
M  V30 4118 C 374.201 -2.34336 2.53339 0
M  V30 4119 C 373.314 -2.08419 3.78398 0
M  V30 4120 C 372.449 -3.32133 4.14561 0
M  V30 4121 C 371.488 -3.01721 5.3257 0
M  V30 4122 N 370.625 -4.17855 5.64218 0
M  V30 4123 H 375.465 -0.625442 2.91363 0
M  V30 4124 H 373.002 -0.297218 1.44066 0
M  V30 4125 H 374.96 -3.10234 2.78946 0
M  V30 4126 H 373.59 -2.73948 1.7074 0
M  V30 4127 H 372.642 -1.23069 3.59942 0
M  V30 4128 H 373.954 -1.81978 4.64419 0
M  V30 4129 H 373.108 -4.16406 4.41238 0
M  V30 4130 H 371.847 -3.61678 3.2717 0
M  V30 4131 H 370.852 -2.15849 5.05657 0
M  V30 4132 H 372.077 -2.73466 6.21605 0
M  V30 4133 H 370.023 -4.47372 4.79786 0
M  V30 4134 H 369.94 -3.94798 6.44725 0
M  V30 4135 H 371.208 -5.03033 5.95465 0
M  V30 4136 N 375.437 -1.54477 -0.31217 0
M  V30 4137 C 376.347 -1.87695 -1.4074 0
M  V30 4138 C 377.363 -0.769975 -1.56036 0
M  V30 4139 O 378.539 -1.06537 -1.70915 0
M  V30 4140 C 375.604 -2.10755 -2.75287 0
M  V30 4141 C 374.665 -3.34514 -2.69071 0
M  V30 4142 C 373.898 -3.56465 -3.97201 0
M  V30 4143 O 374.121 -2.81637 -4.96021 0
M  V30 4144 O 373.055 -4.49964 -3.9977 0
M  V30 4145 H 376.881 -2.80849 -1.15574 0
M  V30 4146 H 374.466 -1.40526 -0.507228 0
M  V30 4147 H 376.348 -2.27188 -3.54913 0
M  V30 4148 H 375.023 -1.20788 -3.0032 0
M  V30 4149 H 373.93 -3.23456 -1.87955 0
M  V30 4150 H 375.263 -4.24575 -2.48992 0
M  V30 4151 N 376.915 0.57481 -1.46744 0
M  V30 4152 C 378.162 1.33272 -1.52462 0
M  V30 4153 C 378.49 1.93669 -0.179572 0
M  V30 4154 O 377.745 1.7743 0.825664 0
M  V30 4155 C 378.044 2.476 -2.57738 0
M  V30 4156 C 377.71 2.05146 -4.01529 0
M  V30 4157 C 376.372 1.93284 -4.40676 0
M  V30 4158 C 378.724 1.72506 -4.91824 0
M  V30 4159 C 376.052 1.47049 -5.67973 0
M  V30 4160 C 378.404 1.27748 -6.19567 0
M  V30 4161 C 377.068 1.14468 -6.57612 0
M  V30 4162 H 376.338 0.487678 -0.557899 0
M  V30 4163 H 378.985 0.646456 -1.80259 0
M  V30 4164 H 377.29 3.21708 -2.23632 0
M  V30 4165 H 378.987 3.05807 -2.5939 0
M  V30 4166 H 375.577 2.15316 -3.7059 0
M  V30 4167 H 379.761 1.80552 -4.62293 0
M  V30 4168 H 375.017 1.35417 -5.96215 0
M  V30 4169 H 379.191 1.01547 -6.88957 0
M  V30 4170 H 376.818 0.78419 -7.56145 0
M  V30 4171 N 378.394 1.34581 0.820102 0
M  V30 4172 C 379.324 1.29038 1.94606 0
M  V30 4173 C 380.305 0.1673 1.69275 0
M  V30 4174 O 381.49 0.360112 1.90832 0
M  V30 4175 C 378.62 1.04793 3.31113 0
M  V30 4176 C 377.574 2.13597 3.70891 0
M  V30 4177 C 376.9 1.74537 5.05412 0
M  V30 4178 C 378.2 3.55451 3.8269 0
M  V30 4179 H 379.894 2.23248 1.99501 0
M  V30 4180 H 377.44 1.0747 0.958449 0
M  V30 4181 H 379.393 0.995592 4.0947 0
M  V30 4182 H 378.117 0.0702565 3.26524 0
M  V30 4183 H 376.776 2.17905 2.9481 0
M  V30 4184 H 376.424 0.754226 4.97313 0
M  V30 4185 H 376.124 2.47361 5.32997 0
M  V30 4186 H 377.648 1.70803 5.86224 0
M  V30 4187 H 379.062 3.5354 4.51312 0
M  V30 4188 H 377.459 4.26922 4.21732 0
M  V30 4189 H 378.529 3.92587 2.84611 0
M  V30 4190 N 379.872 -1.04064 1.18357 0
M  V30 4191 C 381.097 -1.81454 1.00445 0
M  V30 4192 C 381.522 -1.82823 -0.442423 0
M  V30 4193 O 380.88 -1.24555 -1.31741 0
M  V30 4194 C 380.928 -3.24925 1.56384 0
M  V30 4195 O 380.032 -4.04856 0.785209 0
M  V30 4196 H 379.373 -0.560604 0.355835 0
M  V30 4197 H 381.903 -1.31059 1.57114 0
M  V30 4198 H 381.913 -3.75702 1.59097 0
M  V30 4199 H 380.588 -3.23244 2.61699 0
M  V30 4200 H 379.165 -3.63537 0.830399 0
M  V30 4201 N 381.35 -0.985608 -1.22978 0
M  V30 4202 C 382.578 -0.675582 -1.95559 0
M  V30 4203 C 382.993 0.758413 -1.72897 0
M  V30 4204 O 382.35 1.51094 -1.02357 0
M  V30 4205 C 382.401 -0.96293 -3.48439 0
M  V30 4206 O 382.122 -2.34057 -3.70336 0
M  V30 4207 C 383.623 -0.669585 -4.38214 0
M  V30 4208 H 380.843 -0.250523 -0.622478 0
M  V30 4209 H 383.387 -1.3184 -1.56328 0
M  V30 4210 H 381.542 -0.366033 -3.85667 0
M  V30 4211 H 381.956 -2.43424 -4.64591 0
M  V30 4212 H 383.43 -0.920967 -5.44263 0
M  V30 4213 H 383.907 0.396383 -4.37408 0
M  V30 4214 H 384.513 -1.2472 -4.06602 0
M  V30 4215 N 382.828 1.3818 -0.7579 0
M  V30 4216 C 383.758 2.33027 -0.148597 0
M  V30 4217 C 384.739 1.55085 0.69875 0
M  V30 4218 O 385.924 1.83384 0.639053 0
M  V30 4219 C 383.054 3.3928 0.742034 0
M  V30 4220 C 382.008 4.28 -0.00291946 0
M  V30 4221 C 381.334 5.25146 1.00625 0
M  V30 4222 C 382.634 5.08938 -1.17385 0
M  V30 4223 H 384.328 2.84231 -0.940909 0
M  V30 4224 H 381.874 1.36659 -0.453908 0
M  V30 4225 H 383.827 4.046 1.17799 0
M  V30 4226 H 382.551 2.86569 1.56671 0
M  V30 4227 H 381.21 3.64192 -0.419504 0
M  V30 4228 H 380.858 4.68721 1.8251 0
M  V30 4229 H 380.558 5.85361 0.512428 0
M  V30 4230 H 382.082 5.93342 1.44143 0
M  V30 4231 H 383.496 5.67474 -0.815224 0
M  V30 4232 H 381.893 5.7841 -1.59882 0
M  V30 4233 H 382.963 4.42424 -1.98468 0
M  V30 4234 O 384.345 0.648902 1.4789 0
M  V30 4235 H 385.036 0.173089 1.92925 0
M  V30 END ATOM
M  V30 BEGIN BOND
M  V30 END BOND
M  V30 END CTAB
M  END
$$$$
