drugbank_target|Q99705 Melanin-concentrating hormone receptor 1 (DB00502)
 OpenBabel12092120333D

  0  0  0     0  0            999 V3000
M  V30 BEGIN CTAB
M  V30 COUNTS 6519 6601 0 0 0
M  V30 BEGIN ATOM
M  V30 1 H -0.908 1.98254 -0.117106 0
M  V30 2 N 0 1.576 0 0
M  V30 3 C 0.933 2.03868 1.02534 0
M  V30 4 C 1.911 0.928543 1.3348 0
M  V30 5 O 3.095 1.19667 1.45644 0
M  V30 6 C 0.222 2.43627 2.35294 0
M  V30 7 C -0.732 3.65373 2.2001 0
M  V30 8 S 0.101 5.13292 1.52614 0
M  V30 9 C 1.257 5.56322 2.86805 0
M  V30 10 H 1.49 2.90518 0.631377 0
M  V30 11 H -0.977 1.52953 0.210867 0
M  V30 12 H 0.981 2.67203 3.11629 0
M  V30 13 H -0.358 1.57376 2.7183 0
M  V30 14 H -1.165 3.90944 3.18086 0
M  V30 15 H -1.563 3.418 1.51819 0
M  V30 16 H 0.729 5.58782 3.83104 0
M  V30 17 H 1.672 6.56266 2.65933 0
M  V30 18 H 2.08 4.83886 2.90714 0
M  V30 19 N 1.4781 -0.272755 1.55222 0
M  V30 20 C 2.7031 -1.02683 1.80197 0
M  V30 21 C 3.1281 -1.79142 0.573551 0
M  V30 22 O 2.4861 -1.74917 -0.476849 0
M  V30 23 C 2.5341 -1.9609 3.02624 0
M  V30 24 O 1.6381 -3.04863 2.77727 0
M  V30 25 H 0.9791 -0.293557 0.595584 0
M  V30 26 H 3.5091 -0.30159 2.02365 0
M  V30 27 H 3.5191 -2.38039 3.31363 0
M  V30 28 H 2.1941 -1.39851 3.91682 0
M  V30 29 H 0.7711 -2.67228 2.60084 0
M  V30 30 N 2.9562 -1.48159 -0.537278 0
M  V30 31 C 4.2022 -1.56035 -1.29541 0
M  V30 32 C 4.5352 -0.230377 -1.92829 0
M  V30 33 O 3.8102 0.762952 -1.78911 0
M  V30 34 C 4.0932 -2.69323 -2.39034 0
M  V30 35 C 3.9462 -4.12002 -1.80485 0
M  V30 36 C 5.2652 -2.78408 -3.40847 0
M  V30 37 H 2.3842 -0.567992 -0.469632 0
M  V30 38 H 5.0262 -1.80302 -0.599277 0
M  V30 39 H 3.1762 -2.48763 -2.98412 0
M  V30 40 H 4.8482 -4.43981 -1.25215 0
M  V30 41 H 3.0912 -4.19344 -1.11055 0
M  V30 42 H 3.7622 -4.87077 -2.59731 0
M  V30 43 H 6.2382 -2.97012 -2.91416 0
M  V30 44 H 5.1142 -3.59416 -4.14863 0
M  V30 45 H 5.3752 -1.86269 -4.00944 0
M  V30 46 N 4.4343 0.785586 -1.36625 0
M  V30 47 C 5.6823 1.54057 -1.30808 0
M  V30 48 C 6.0033 1.94683 0.111157 0
M  V30 49 O 5.2733 1.65241 1.05224 0
M  V30 50 H 3.8533 0.571354 -0.481211 0
M  V30 51 H 6.5153 0.935821 -1.70963 0
M  V30 52 H 5.6113 2.44637 -1.93801 0
M  V30 53 N 5.9124 1.20967 1.01018 0
M  V30 54 C 6.8754 0.965918 2.07853 0
M  V30 55 C 7.8754 -0.0610545 1.60684 0
M  V30 56 O 9.0654 0.175681 1.73312 0
M  V30 57 C 6.1974 0.455513 3.37843 0
M  V30 58 H 7.3904 1.91365 2.3091 0
M  V30 59 H 4.9434 1.02594 1.17916 0
M  V30 60 H 5.6784 -0.497381 3.20463 0
M  V30 61 H 5.4634 1.19622 3.73407 0
M  V30 62 H 6.9534 0.304667 4.16487 0
M  V30 63 N 7.3905 -1.2043 1.01659 0
M  V30 64 C 8.3235 -2.21924 0.531521 0
M  V30 65 C 9.3015 -1.57054 -0.421032 0
M  V30 66 O 10.4855 -1.85389 -0.341035 0
M  V30 67 C 7.6125 -3.37942 -0.226496 0
M  V30 68 C 6.6585 -4.21115 0.67561 0
M  V30 69 S 7.4915 -4.90674 2.14475 0
M  V30 70 C 8.6475 -6.10113 1.3969 0
M  V30 71 H 8.8805 -2.62725 1.3915 0
M  V30 72 H 6.4135 -1.30481 0.825479 0
M  V30 73 H 8.3715 -4.05196 -0.657738 0
M  V30 74 H 7.0325 -2.956 -1.06205 0
M  V30 75 H 6.2255 -5.03918 0.091108 0
M  V30 76 H 5.8275 -3.59115 1.04463 0
M  V30 77 H 8.1195 -6.7411 0.676897 0
M  V30 78 H 9.0625 -6.73022 2.20107 0
M  V30 79 H 9.4705 -5.57283 0.899786 0
M  V30 80 N 8.8686 -0.792821 -1.36206 0
M  V30 81 C 9.8156 -0.191653 -2.30003 0
M  V30 82 C 10.7856 0.666453 -1.52143 0
M  V30 83 O 11.9706 0.61442 -1.80636 0
M  V30 84 C 9.1106 0.664848 -3.38635 0
M  V30 85 C 8.2236 -0.212175 -4.31479 0
M  V30 86 C 7.3586 0.651022 -5.27196 0
M  V30 87 C 6.3976 -0.227247 -6.11678 0
M  V30 88 N 5.5346 0.595127 -6.99573 0
M  V30 89 H 10.3746 -0.996978 -2.80828 0
M  V30 90 H 7.9116 -0.503206 -1.38225 0
M  V30 91 H 9.8696 1.17645 -4.00269 0
M  V30 92 H 8.4996 1.43557 -2.89122 0
M  V30 93 H 7.5516 -0.841777 -3.70969 0
M  V30 94 H 8.8636 -0.888751 -4.90818 0
M  V30 95 H 8.0176 1.2283 -5.94136 0
M  V30 96 H 6.7566 1.36121 -4.68319 0
M  V30 97 H 5.7616 -0.816904 -5.43697 0
M  V30 98 H 6.9866 -0.93509 -6.72631 0
M  V30 99 H 4.9326 1.28955 -6.432 0
M  V30 100 H 4.8496 -0.0236952 -7.55996 0
M  V30 101 H 6.1176 1.15613 -7.70879 0
M  V30 102 N 10.3467 1.47872 -0.545128 0
M  V30 103 C 11.2937 2.29849 0.2093 0
M  V30 104 C 12.2637 1.38313 0.919707 0
M  V30 105 O 13.4487 1.67277 0.917772 0
M  V30 106 C 10.5887 3.22019 1.24088 0
M  V30 107 C 9.7017 4.2864 0.537778 0
M  V30 108 C 8.8367 5.07973 1.5536 0
M  V30 109 C 7.8757 6.06381 0.8348 0
M  V30 110 N 7.0127 6.78717 1.79688 0
M  V30 111 H 11.8527 2.93845 -0.49591 0
M  V30 112 H 9.3897 1.44848 -0.256389 0
M  V30 113 H 11.3477 3.73868 1.85144 0
M  V30 114 H 9.9777 2.59914 1.91428 0
M  V30 115 H 9.0297 3.7994 -0.187046 0
M  V30 116 H 10.3417 4.98793 -0.0258907 0
M  V30 117 H 9.4957 5.63912 2.23803 0
M  V30 118 H 8.2347 4.37693 2.15118 0
M  V30 119 H 7.2397 5.49631 0.136388 0
M  V30 120 H 8.4647 6.78665 0.24313 0
M  V30 121 H 6.4107 6.11177 2.38326 0
M  V30 122 H 6.3277 7.44998 1.28505 0
M  V30 123 H 7.5957 7.39237 2.47282 0
M  V30 124 N 11.8248 0.280983 1.55075 0
M  V30 125 C 13.0728 -0.333455 1.9933 0
M  V30 126 C 13.3938 -1.55937 1.17085 0
M  V30 127 O 12.6638 -1.94143 0.261805 0
M  V30 128 H 11.2438 -0.126197 0.736263 0
M  V30 129 H 13.9058 0.387678 1.91005 0
M  V30 130 H 13.0018 -0.619292 3.05894 0
M  V30 131 N 13.3029 -1.57598 0.00835791 0
M  V30 132 C 14.5489 -1.91211 -0.675732 0
M  V30 133 C 14.8819 -0.883139 -1.72958 0
M  V30 134 O 14.1569 0.097016 -1.94258 0
M  V30 135 C 14.4399 -3.35379 -1.31123 0
M  V30 136 C 14.2929 -4.48999 -0.268356 0
M  V30 137 C 15.6119 -3.7912 -2.23508 0
M  V30 138 H 12.7309 -0.695374 -0.244179 0
M  V30 139 H 15.3729 -1.89901 0.0613655 0
M  V30 140 H 13.5229 -3.36626 -1.93946 0
M  V30 141 H 15.1949 -4.59887 0.360844 0
M  V30 142 H 13.4379 -4.31873 0.408482 0
M  V30 143 H 14.1089 -5.46851 -0.752218 0
M  V30 144 H 16.5849 -3.79477 -1.70693 0
M  V30 145 H 15.4609 -4.80729 -2.64936 0
M  V30 146 H 15.7219 -3.13455 -3.11766 0
M  V30 147 N 14.781 0.264519 -1.55364 0
M  V30 148 C 16.029 0.993021 -1.76021 0
M  V30 149 C 16.35 1.86511 -0.569099 0
M  V30 150 O 15.62 1.91438 0.415735 0
M  V30 151 H 14.2 0.369639 -0.649135 0
M  V30 152 H 16.862 0.286707 -1.9278 0
M  V30 153 H 15.958 1.62502 -2.66457 0
M  V30 154 N 16.2591 1.48442 0.529413 0
M  V30 155 C 17.6751 1.34575 0.858004 0
M  V30 156 C 17.8751 0.3572 1.98309 0
M  V30 157 O 16.9311 -0.221379 2.51528 0
M  V30 158 C 18.2441 2.74617 1.22499 0
M  V30 159 C 19.7921 2.83109 1.33484 0
M  V30 160 C 20.2671 4.23854 1.73526 0
M  V30 161 N 21.7581 4.2653 1.80628 0
M  V30 162 C 22.4931 5.32372 2.12997 0
M  V30 163 N 21.9891 6.48491 2.43786 0
M  V30 164 N 23.7821 5.19766 2.14008 0
M  V30 165 H 15.9331 2.1133 -0.212925 0
M  V30 166 H 18.1961 0.947439 -0.0326199 0
M  V30 167 H 17.9021 3.4852 0.471905 0
M  V30 168 H 17.7761 3.08177 2.17501 0
M  V30 169 H 20.1631 2.09462 2.0787 0
M  V30 170 H 20.2441 2.53168 0.366027 0
M  V30 171 H 19.8881 4.98018 0.997013 0
M  V30 172 H 19.8181 4.5124 2.71459 0
M  V30 173 H 22.3091 3.42772 1.59108 0
M  V30 174 H 22.6221 7.24993 2.67592 0
M  V30 175 H 20.9671 6.51765 2.41304 0
M  V30 176 H 24.1581 4.28066 1.89412 0
M  V30 177 H 24.3311 6.02354 2.38902 0
M  V30 178 N 17.7372 -0.778329 1.37039 0
M  V30 179 C 18.7002 -1.87301 1.32102 0
M  V30 180 C 19.7002 -1.59198 0.226405 0
M  V30 181 O 20.8902 -1.67403 0.481861 0
M  V30 182 C 18.0222 -3.24309 1.05055 0
M  V30 183 H 19.2152 -1.93093 2.29467 0
M  V30 184 H 16.7682 -0.977358 1.21973 0
M  V30 185 H 17.5032 -3.24196 0.0819373 0
M  V30 186 H 17.2882 -3.46098 1.84279 0
M  V30 187 H 18.7782 -4.04382 1.04234 0
M  V30 188 N 19.2153 -1.21501 -1.00376 0
M  V30 189 C 20.4613 -1.03452 -1.74429 0
M  V30 190 C 20.7943 0.430764 -1.89362 0
M  V30 191 O 20.0693 1.31962 -1.42886 0
M  V30 192 C 20.3523 -1.73375 -3.15615 0
M  V30 193 C 20.2053 -3.27431 -3.08397 0
M  V30 194 C 21.5243 -1.47732 -4.14564 0
M  V30 195 H 18.6433 -0.377226 -0.633143 0
M  V30 196 H 21.2853 -1.49693 -1.17013 0
M  V30 197 H 19.4353 -1.34064 -3.64636 0
M  V30 198 H 21.1073 -3.76119 -2.67081 0
M  V30 199 H 19.3503 -3.5767 -2.45468 0
M  V30 200 H 20.0213 -3.71524 -4.08258 0
M  V30 201 H 22.4973 -1.8186 -3.74254 0
M  V30 202 H 21.3733 -1.99169 -5.11491 0
M  V30 203 H 21.6343 -0.407589 -4.40217 0
M  V30 204 N 20.6934 1.19889 -1.02296 0
M  V30 205 C 21.9414 1.89046 -0.714558 0
M  V30 206 C 22.2624 1.79636 0.758681 0
M  V30 207 O 21.5324 1.20292 1.54618 0
M  V30 208 H 20.1124 0.699802 -0.261317 0
M  V30 209 H 22.7744 1.45574 -1.29592 0
M  V30 210 H 21.8704 2.95524 -1.0036 0
M  V30 211 N 22.1715 0.800033 1.35784 0
M  V30 212 C 23.1015 0.220184 2.3246 0
M  V30 213 C 24.0825 -0.65073 1.57161 0
M  V30 214 O 25.2675 -0.582359 1.85263 0
M  V30 215 C 22.3975 -0.637353 3.41402 0
M  V30 216 C 21.3515 0.134531 4.27789 0
M  V30 217 C 20.6775 -0.844285 5.27992 0
M  V30 218 C 21.9775 1.32979 5.05088 0
M  V30 219 H 23.6715 1.02787 2.81203 0
M  V30 220 H 21.2175 0.495717 1.35199 0
M  V30 221 H 23.1705 -1.05302 4.08031 0
M  V30 222 H 21.8945 -1.47785 2.91251 0
M  V30 223 H 20.5535 0.531296 3.6273 0
M  V30 224 H 20.2015 -1.68011 4.74111 0
M  V30 225 H 19.9015 -0.332184 5.8666 0
M  V30 226 H 21.4255 -1.2583 5.97494 0
M  V30 227 H 22.8395 0.98934 5.64699 0
M  V30 228 H 21.2365 1.77593 5.7322 0
M  V30 229 H 22.3065 2.11978 4.36111 0
M  V30 230 N 23.6496 -1.47581 0.552962 0
M  V30 231 C 24.8976 -2.02082 0.0272703 0
M  V30 232 C 25.2186 -1.4301 -1.32563 0
M  V30 233 O 24.4886 -0.603745 -1.86365 0
M  V30 234 H 23.0686 -0.746966 0.00709182 0
M  V30 235 H 25.7306 -1.81033 0.722008 0
M  V30 236 H 24.8266 -3.12034 -0.0639951 0
M  V30 237 N 25.1277 -0.289203 -1.54924 0
M  V30 238 C 26.3757 0.322879 -1.99504 0
M  V30 239 C 26.6967 1.55313 -1.1791 0
M  V30 240 O 25.9667 1.94001 -0.272097 0
M  V30 241 H 24.5467 0.122291 -0.736922 0
M  V30 242 H 27.2087 -0.397802 -1.90797 0
M  V30 243 H 26.3047 0.603061 -3.06218 0
M  V30 244 N 26.6058 1.57591 -0.0167156 0
M  V30 245 C 27.8538 1.90906 0.663285 0
M  V30 246 C 28.1748 0.892509 1.73376 0
M  V30 247 O 27.4448 -0.0677623 1.95783 0
M  V30 248 H 26.0248 0.704637 0.247983 0
M  V30 249 H 28.6868 1.94803 -0.0615909 0
M  V30 250 H 27.7828 2.9116 1.12393 0
M  V30 251 N 28.0839 -0.256276 1.55502 0
M  V30 252 C 29.3089 -1.00766 1.81276 0
M  V30 253 C 29.7339 -1.78524 0.59252 0
M  V30 254 O 29.0919 -1.75413 -0.45827 0
M  V30 255 C 29.1399 -1.92869 3.04687 0
M  V30 256 O 28.2439 -3.019 2.80945 0
M  V30 257 H 27.5849 -0.287224 0.598664 0
M  V30 258 H 30.1149 -0.280109 2.02674 0
M  V30 259 H 30.1249 -2.34511 3.33869 0
M  V30 260 H 28.7999 -1.35689 3.93143 0
M  V30 261 H 27.3769 -2.64454 2.62904 0
M  V30 262 N 29.562 -1.4872 -0.521534 0
M  V30 263 C 30.81 -1.56857 -1.27437 0
M  V30 264 C 31.131 -0.247982 -1.93417 0
M  V30 265 O 30.401 0.731151 -1.81744 0
M  V30 266 H 28.981 -0.577885 -0.473347 0
M  V30 267 H 31.643 -1.85233 -0.606205 0
M  V30 268 H 30.739 -2.35402 -2.0492 0
M  V30 269 N 31.0401 0.771051 -1.3745 0
M  V30 270 C 32.2801 1.54264 -1.34096 0
M  V30 271 C 32.6441 1.91858 0.0737639 0
M  V30 272 O 33.8451 2.67797 0.23203 0
M  V30 273 C 32.1161 2.77326 -2.25445 0
M  V30 274 S 33.6751 3.67383 -2.39948 0
M  V30 275 H 30.4931 0.528122 -0.476034 0
M  V30 276 H 33.0951 0.906633 -1.73206 0
M  V30 277 H 31.7991 2.47788 -3.27153 0
M  V30 278 H 31.3301 3.45886 -1.87421 0
M  V30 279 H 33.3451 4.69334 -1.61059 0
M  V30 280 N 32.5182 1.22032 0.997298 0
M  V30 281 C 33.4502 0.944263 2.08845 0
M  V30 282 C 34.4632 -0.0754663 1.62625 0
M  V30 283 O 35.6522 0.157994 1.77799 0
M  V30 284 C 32.7522 0.397723 3.36558 0
M  V30 285 C 31.9252 1.47362 4.11829 0
M  V30 286 C 30.9842 0.934951 5.17827 0
M  V30 287 O 30.0102 1.62016 5.45655 0
M  V30 288 N 31.2122 -0.245895 5.79979 0
M  V30 289 H 33.9772 1.88363 2.33109 0
M  V30 290 H 31.5382 1.12661 1.16272 0
M  V30 291 H 33.5302 0.0227771 4.04694 0
M  V30 292 H 32.1002 -0.446646 3.09393 0
M  V30 293 H 31.3202 2.02208 3.38386 0
M  V30 294 H 32.6082 2.19764 4.58891 0
M  V30 295 H 32.0062 -0.819475 5.59733 0
M  V30 296 H 30.5632 -0.562272 6.4937 0
M  V30 297 N 33.9963 -1.19345 1.0293 0
M  V30 298 C 34.9593 -2.20793 0.615069 0
M  V30 299 C 35.9593 -1.57553 -0.321533 0
M  V30 300 O 37.1493 -1.73862 -0.108483 0
M  V30 301 C 34.2813 -3.40754 -0.0999222 0
M  V30 302 H 35.4743 -2.58955 1.51269 0
M  V30 303 H 33.0273 -1.3303 0.820534 0
M  V30 304 H 33.7623 -3.0811 -1.01187 0
M  V30 305 H 33.5473 -3.87889 0.57309 0
M  V30 306 H 35.0373 -4.15898 -0.376645 0
M  V30 307 N 35.4744 -0.807222 -1.35358 0
M  V30 308 C 36.7024 -0.400377 -2.02989 0
M  V30 309 C 37.1174 0.988859 -1.60832 0
M  V30 310 O 36.4744 1.63729 -0.806175 0
M  V30 311 C 36.5254 -0.474867 -3.58368 0
M  V30 312 O 36.2464 -1.80933 -3.98992 0
M  V30 313 C 37.7474 -0.0609112 -4.43258 0
M  V30 314 H 34.9674 -0.162587 -0.651004 0
M  V30 315 H 37.5114 -1.09102 -1.72965 0
M  V30 316 H 35.6664 0.167534 -3.87038 0
M  V30 317 H 36.0804 -1.77256 -4.9364 0
M  V30 318 H 37.5544 -0.164145 -5.51756 0
M  V30 319 H 38.0314 0.993831 -4.27808 0
M  V30 320 H 38.6374 -0.676492 -4.19885 0
M  V30 321 N 36.9525 1.47285 -0.560781 0
M  V30 322 C 37.8625 2.33846 0.187954 0
M  V30 323 C 38.8785 1.48412 0.908293 0
M  V30 324 O 40.0545 1.81332 0.876388 0
M  V30 325 C 37.1195 3.25178 1.2025 0
M  V30 326 C 36.1805 4.26504 0.489208 0
M  V30 327 C 35.4135 5.13472 1.45542 0
M  V30 328 O 35.6365 5.02959 2.6905 0
M  V30 329 O 34.5705 5.93902 0.977963 0
M  V30 330 H 38.3965 2.99177 -0.522177 0
M  V30 331 H 35.9815 1.45903 -0.321364 0
M  V30 332 H 37.8635 3.81584 1.78805 0
M  V30 333 H 36.5385 2.6247 1.89449 0
M  V30 334 H 35.4455 3.73847 -0.137627 0
M  V30 335 H 36.7785 4.91935 -0.161399 0
M  V30 336 N 38.4306 0.297415 1.54768 0
M  V30 337 C 39.3406 -0.58983 2.27064 0
M  V30 338 C 40.3566 -1.15144 1.30453 0
M  V30 339 O 41.5326 -1.17699 1.63428 0
M  V30 340 C 38.5976 -1.74714 2.9946 0
M  V30 341 C 37.6586 -1.21997 4.11601 0
M  V30 342 C 36.8916 -2.32212 4.80535 0
M  V30 343 O 37.1146 -3.52036 4.48806 0
M  V30 344 O 36.0486 -1.99106 5.68014 0
M  V30 345 H 39.8746 -0.00348199 3.037 0
M  V30 346 H 37.4596 0.0640035 1.49263 0
M  V30 347 H 39.3416 -2.42147 3.44881 0
M  V30 348 H 38.0166 -2.32016 2.25722 0
M  V30 349 H 36.9236 -0.511458 3.70587 0
M  V30 350 H 38.2566 -0.692419 4.87305 0
M  V30 351 N 39.9087 -1.5758 0.0250728 0
M  V30 352 C 41.1857 -1.82917 -0.692873 0
M  V30 353 C 41.5657 -0.908137 -1.90568 0
M  V30 354 O 40.9137 0.0372298 -2.2847 0
M  V30 355 C 41.1237 -3.32034 -1.07492 0
M  V30 356 C 42.4717 -3.98406 -1.46826 0
M  V30 357 O 43.4957 -3.36505 -1.16801 0
M  V30 358 O 42.3547 -5.07497 -2.02754 0
M  V30 359 H 39.4487 -0.754079 -0.33955 0
M  V30 360 H 41.9947 -1.69619 0.0524456 0
M  V30 361 H 40.7667 -3.90728 -0.211552 0
M  V30 362 H 40.3897 -3.50424 -1.87854 0
M  V30 363 N 41.3868 0.248026 -1.55636 0
M  V30 364 C 42.7978 0.817177 -1.67866 0
M  V30 365 C 43.1488 1.86069 -0.622322 0
M  V30 366 O 42.2738 2.15157 0.231618 0
M  V30 367 C 42.8688 1.489 -3.04326 0
M  V30 368 C 41.4278 2.00587 -3.185 0
M  V30 369 C 40.5748 0.856573 -2.63739 0
M  V30 370 H 43.5258 0.0238579 -1.58682 0
M  V30 371 H 43.5468 2.35698 -2.98708 0
M  V30 372 H 43.0588 0.729279 -3.81186 0
M  V30 373 H 41.1598 2.79443 -2.4646 0
M  V30 374 H 41.2728 2.20402 -4.25393 0
M  V30 375 H 39.6368 1.25678 -2.21534 0
M  V30 376 H 40.4198 0.109953 -3.43124 0
M  V30 377 N 42.8649 1.48995 0.513639 0
M  V30 378 C 43.7949 1.67636 1.62544 0
M  V30 379 C 44.7759 0.525087 1.61793 0
M  V30 380 O 45.9609 0.759502 1.78732 0
M  V30 381 C 43.0909 1.73114 3.01079 0
M  V30 382 C 42.0449 2.87905 3.16693 0
M  V30 383 C 41.3709 2.78486 4.56453 0
M  V30 384 C 42.6709 4.29005 2.97913 0
M  V30 385 H 44.3649 2.60716 1.47198 0
M  V30 386 H 41.9109 1.25465 0.706714 0
M  V30 387 H 43.8639 1.84742 3.78746 0
M  V30 388 H 42.5879 0.766241 3.17484 0
M  V30 389 H 41.2469 2.75859 2.41448 0
M  V30 390 H 40.8949 1.7993 4.69717 0
M  V30 391 H 40.5949 3.55523 4.67843 0
M  V30 392 H 42.1189 2.92104 5.36197 0
M  V30 393 H 43.5329 4.41798 3.65359 0
M  V30 394 H 41.9299 5.07166 3.20785 0
M  V30 395 H 42.9999 4.44329 1.94165 0
M  V30 396 N 44.343 -0.763751 1.37857 0
M  V30 397 C 45.754 -1.3405 1.29952 0
M  V30 398 C 46.105 -1.96138 -0.0492898 0
M  V30 399 O 45.23 -1.94372 -0.951239 0
M  V30 400 C 45.825 -2.43729 2.35333 0
M  V30 401 C 44.384 -2.97151 2.31037 0
M  V30 402 C 43.531 -1.70438 2.18738 0
M  V30 403 H 46.482 -0.563396 1.48363 0
M  V30 404 H 46.503 -3.23412 2.00462 0
M  V30 405 H 46.015 -1.9851 3.33489 0
M  V30 406 H 44.116 -3.46724 1.3643 0
M  V30 407 H 44.229 -3.52221 3.24772 0
M  V30 408 H 42.593 -1.93673 1.65418 0
M  V30 409 H 43.376 -1.27312 3.18821 0
M  V30 410 N 45.8211 -1.22559 -0.990812 0
M  V30 411 C 46.7691 -0.994798 -2.10253 0
M  V30 412 C 47.7631 0.0627798 -1.69284 0
M  V30 413 O 48.9691 -0.0898392 -1.79776 0
M  V30 414 H 45.3441 -0.304527 -0.687581 0
M  V30 415 H 47.3151 -1.93812 -2.26891 0
M  V30 416 C 46.0641 -0.591439 -3.42633 0
M  V30 417 H 45.3871 -1.3969 -3.74602 0
M  V30 418 H 46.8271 -0.469385 -4.21394 0
M  V30 419 C 45.2861 0.699232 -3.29564 0
M  V30 420 O 45.8161 1.75112 -3.61523 0
M  V30 421 N 44.0221 0.671182 -2.82743 0
M  V30 422 H 43.5691 -0.185136 -2.56934 0
M  V30 423 H 43.5271 1.53502 -2.7438 0
M  V30 424 N 47.2992 1.18797 -1.03562 0
M  V30 425 C 48.5392 1.90346 -0.744832 0
M  V30 426 C 48.9032 1.78231 0.713972 0
M  V30 427 O 50.1042 2.44441 1.11813 0
M  V30 428 C 48.3752 3.36942 -1.19184 0
M  V30 429 S 49.9342 4.26638 -1.02593 0
M  V30 430 H 46.7522 0.657343 -0.270963 0
M  V30 431 H 49.3542 1.43579 -1.32685 0
M  V30 432 H 48.0582 3.43287 -2.24905 0
M  V30 433 H 47.5892 3.88745 -0.603397 0
M  V30 434 H 49.6042 4.96164 0.0596033 0
M  V30 435 N 48.7773 0.814389 1.34928 0
M  V30 436 C 50.0253 0.397636 1.9815 0
M  V30 437 C 50.3463 -1.04069 1.64908 0
M  V30 438 O 49.6163 -1.72121 0.93548 0
M  V30 439 H 48.1963 0.144043 0.732981 0
M  V30 440 H 50.8583 1.04195 1.6471 0
M  V30 441 H 49.9543 0.509688 3.0791 0
M  V30 442 N 50.2554 -1.46986 0.568584 0
M  V30 443 C 51.2184 -2.28624 -0.162366 0
M  V30 444 C 52.2184 -1.37596 -0.832103 0
M  V30 445 O 53.4084 -1.60115 -0.68622 0
M  V30 446 C 50.5404 -3.17596 -1.23878 0
M  V30 447 H 51.7334 -2.94722 0.554899 0
M  V30 448 H 49.2864 -1.52863 0.325976 0
M  V30 449 H 50.0214 -2.56214 -1.98808 0
M  V30 450 H 49.8064 -3.846 -0.763219 0
M  V30 451 H 51.2964 -3.79078 -1.75185 0
M  V30 452 N 51.7335 -0.305618 -1.54608 0
M  V30 453 C 52.9735 0.303114 -2.0214 0
M  V30 454 C 53.3375 1.50737 -1.18921 0
M  V30 455 O 54.5385 2.18778 -1.56172 0
M  V30 456 C 52.8095 0.646332 -3.51507 0
M  V30 457 S 54.3685 1.23727 -4.20995 0
M  V30 458 H 51.1865 0.0927643 -0.704923 0
M  V30 459 H 53.7885 -0.434566 -1.90609 0
M  V30 460 H 52.4925 -0.238541 -4.09706 0
M  V30 461 H 52.0235 1.41468 -3.67084 0
M  V30 462 H 54.0385 2.52489 -4.27158 0
M  V30 463 N 53.2116 1.57565 -0.0334293 0
M  V30 464 C 54.1746 2.09393 0.932048 0
M  V30 465 C 55.1746 1.00986 1.25134 0
M  V30 466 O 56.3646 1.27129 1.19096 0
M  V30 467 C 53.4966 2.56338 2.2473 0
M  V30 468 H 54.6896 2.95984 0.483085 0
M  V30 469 H 52.2426 1.54819 0.21468 0
M  V30 470 H 52.9776 1.7309 2.74245 0
M  V30 471 H 52.7626 3.35542 2.02865 0
M  V30 472 H 54.2526 2.96646 2.93923 0
M  V30 473 N 54.6897 -0.239769 1.55765 0
M  V30 474 C 56.1007 -0.808263 1.68297 0
M  V30 475 C 56.4517 -1.85736 0.632181 0
M  V30 476 O 55.5767 -2.15277 -0.220204 0
M  V30 477 C 56.1717 -1.47284 3.05111 0
M  V30 478 C 54.7307 -1.98895 3.19559 0
M  V30 479 C 53.8777 -0.842575 2.64189 0
M  V30 480 H 56.8287 -0.0154422 1.58692 0
M  V30 481 H 56.8497 -2.34111 2.99954 0
M  V30 482 H 56.3617 -0.709053 3.81568 0
M  V30 483 H 54.4627 -2.78132 2.47938 0
M  V30 484 H 54.5757 -2.18143 4.26556 0
M  V30 485 H 52.9397 -1.24501 2.22197 0
M  V30 486 H 53.7227 -0.0917552 3.43177 0
M  V30 487 N 56.1678 -1.49265 -0.50573 0
M  V30 488 C 57.4158 -1.582 -1.25766 0
M  V30 489 C 57.7368 -0.268482 -1.93143 0
M  V30 490 O 57.0068 0.711833 -1.8251 0
M  V30 491 H 55.5868 -0.582873 -0.467191 0
M  V30 492 H 58.2488 -1.85865 -0.586525 0
M  V30 493 H 57.3448 -2.37563 -2.02412 0
M  V30 494 N 57.6459 0.756429 -1.3826 0
M  V30 495 C 58.5779 1.87971 -1.31147 0
M  V30 496 C 59.5909 1.61248 -0.224239 0
M  V30 497 O 60.7799 1.71881 -0.481581 0
M  V30 498 C 57.8799 3.23545 -1.00857 0
M  V30 499 C 57.0529 3.77794 -2.20432 0
M  V30 500 C 56.1119 4.91877 -1.86931 0
M  V30 501 O 55.1379 5.06659 -2.59395 0
M  V30 502 N 56.3399 5.74643 -0.822568 0
M  V30 503 H 59.1049 1.94585 -2.2794 0
M  V30 504 H 56.6659 0.936234 -1.32084 0
M  V30 505 H 58.6579 3.97403 -0.765021 0
M  V30 506 H 57.2279 3.12335 -0.128687 0
M  V30 507 H 56.4479 2.95534 -2.6087 0
M  V30 508 H 57.7359 4.10771 -3.00241 0
M  V30 509 H 57.1339 5.65266 -0.221575 0
M  V30 510 H 55.6909 6.48661 -0.638899 0
M  V30 511 N 59.124 1.23083 0.984299 0
M  V30 512 C 60.372 1.05848 1.72165 0
M  V30 513 C 60.693 -0.406049 1.90726 0
M  V30 514 O 59.963 -1.29139 1.47309 0
M  V30 515 H 58.543 0.388685 0.637913 0
M  V30 516 H 61.205 1.54736 1.18503 0
M  V30 517 H 60.301 1.54327 2.71274 0
M  V30 518 N 60.6021 -1.18246 1.0419 0
M  V30 519 C 61.8501 -1.87886 0.744543 0
M  V30 520 C 62.1711 -1.8082 -0.730006 0
M  V30 521 O 61.4411 -1.22736 -1.52685 0
M  V30 522 H 60.0211 -0.695556 0.272417 0
M  V30 523 H 62.6831 -1.43494 1.31892 0
M  V30 524 H 61.7791 -2.9389 1.05049 0
M  V30 525 N 62.0802 -0.821533 -1.34494 0
M  V30 526 C 63.4962 -0.507117 -1.51329 0
M  V30 527 C 63.6962 0.968964 -1.76673 0
M  V30 528 O 62.7522 1.75348 -1.81685 0
M  V30 529 C 64.0652 -1.36544 -2.67911 0
M  V30 530 C 65.6132 -1.36242 -2.81793 0
M  V30 531 C 66.0882 -2.2052 -4.01416 0
M  V30 532 N 67.5792 -2.18136 -4.08621 0
M  V30 533 C 68.3142 -2.80095 -5.00334 0
M  V30 534 N 67.8102 -3.51039 -5.9728 0
M  V30 535 N 69.6032 -2.69656 -4.93196 0
M  V30 536 H 61.7542 -1.77729 -1.16302 0
M  V30 537 H 64.0172 -0.757291 -0.570276 0
M  V30 538 H 63.7232 -2.41361 -2.55808 0
M  V30 539 H 63.5972 -1.02917 -3.62888 0
M  V30 540 H 65.9842 -0.322041 -2.93338 0
M  V30 541 H 66.0652 -1.73866 -1.87628 0
M  V30 542 H 65.7092 -3.24607 -3.90631 0
M  V30 543 H 65.6392 -1.80247 -4.94791 0
M  V30 544 H 68.1302 -1.6653 -3.39229 0
M  V30 545 H 68.4432 -3.95565 -6.63889 0
M  V30 546 H 66.7882 -3.55145 -5.97409 0
M  V30 547 H 69.9792 -2.13808 -4.16418 0
M  V30 548 H 70.1522 -3.1823 -5.64476 0
M  V30 549 N 63.5583 1.46682 -0.576371 0
M  V30 550 C 64.9743 1.57822 -0.237562 0
M  V30 551 C 65.1743 1.57237 1.26011 0
M  V30 552 O 64.2303 1.48596 2.04146 0
M  V30 553 C 65.5433 2.87499 -0.881168 0
M  V30 554 C 67.0913 3.01119 -0.85417 0
M  V30 555 C 67.5663 4.33524 -1.4772 0
M  V30 556 N 69.0573 4.40207 -1.44125 0
M  V30 557 C 69.7923 5.4126 -1.89276 0
M  V30 558 N 69.2883 6.49021 -2.42371 0
M  V30 559 N 71.0813 5.32422 -1.80231 0
M  V30 560 H 63.2323 1.45306 -1.54919 0
M  V30 561 H 65.4953 0.692733 -0.647167 0
M  V30 562 H 65.2013 2.9372 -1.93447 0
M  V30 563 H 65.0753 3.75224 -0.385592 0
M  V30 564 H 67.4623 2.94485 0.190491 0
M  V30 565 H 67.5433 2.14887 -1.3877 0
M  V30 566 H 67.1873 4.40916 -2.52103 0
M  V30 567 H 67.1173 5.1852 -0.918947 0
M  V30 568 H 69.6083 3.62931 -1.05307 0
M  V30 569 H 69.9213 7.2233 -2.74698 0
M  V30 570 H 68.2663 6.49858 -2.46393 0
M  V30 571 H 71.4573 4.47137 -1.38514 0
M  V30 572 H 71.6303 6.11034 -2.15735 0
M  V30 573 N 65.0364 0.313813 1.54444 0
M  V30 574 C 66.2824 -0.284918 2.01395 0
M  V30 575 C 66.6374 -1.50537 1.19818 0
M  V30 576 O 65.9304 -1.89692 0.269748 0
M  V30 577 C 66.1244 -0.680386 3.50864 0
M  V30 578 C 65.9534 0.500198 4.4691 0
M  V30 579 C 64.7234 0.996248 4.95382 0
M  V30 580 C 66.9214 1.34928 4.96285 0
M  V30 581 N 64.9034 2.14226 5.75309 0
M  V30 582 C 66.2744 2.3426 5.7404 0
M  V30 583 C 68.3294 1.37818 4.78446 0
M  V30 584 C 67.0324 3.36272 6.35856 0
M  V30 585 C 69.0584 2.38695 5.4109 0
M  V30 586 C 68.4204 3.36755 6.18688 0
M  V30 587 H 64.5194 -0.0683689 0.779006 0
M  V30 588 H 67.1034 0.44664 1.89508 0
M  V30 589 H 65.2744 -1.38109 3.63016 0
M  V30 590 H 67.0064 -1.25975 3.84594 0
M  V30 591 H 63.7614 0.56912 4.70168 0
M  V30 592 H 64.1854 2.72005 6.19953 0
M  V30 593 H 68.8274 0.633747 4.18023 0
M  V30 594 H 66.5454 4.11627 6.95405 0
M  V30 595 H 70.1314 2.41721 5.29209 0
M  V30 596 H 69.0114 4.13535 6.66302 0
M  V30 597 N 66.5145 -1.57545 0.0417849 0
M  V30 598 C 67.9305 -1.56467 -0.314704 0
M  V30 599 C 68.1305 -1.04859 -1.72066 0
M  V30 600 O 67.1865 -0.700983 -2.42575 0
M  V30 601 C 68.4995 -3.00317 -0.15174 0
M  V30 602 C 70.0475 -3.12201 -0.223553 0
M  V30 603 C 70.5225 -4.57913 -0.0892295 0
M  V30 604 N 72.0135 -4.6297 -0.145808 0
M  V30 605 C 72.7485 -5.73362 -0.0658459 0
M  V30 606 N 72.2445 -6.92769 0.0659282 0
M  V30 607 N 74.0375 -5.6197 -0.12075 0
M  V30 608 H 66.1885 -1.89416 0.961014 0
M  V30 609 H 68.4515 -0.871862 0.372237 0
M  V30 610 H 68.1575 -3.42073 0.817254 0
M  V30 611 H 68.0315 -3.65892 -0.916692 0
M  V30 612 H 70.4185 -2.70349 -1.18301 0
M  V30 613 H 70.4995 -2.49323 0.571994 0
M  V30 614 H 70.1435 -5.00448 0.866867 0
M  V30 615 H 70.0735 -5.18786 -0.903802 0
M  V30 616 H 72.5645 -3.7709 -0.247286 0
M  V30 617 H 72.8775 -7.72707 0.119905 0
M  V30 618 H 71.2225 -6.94927 0.100885 0
M  V30 619 H 74.4135 -4.67572 -0.222187 0
M  V30 620 H 74.5865 -6.47977 -0.0549735 0
M  V30 621 N 67.9926 0.231505 -1.5589 0
M  V30 622 C 68.9226 1.29022 -1.94617 0
M  V30 623 C 69.9036 1.4941 -0.813067 0
M  V30 624 O 71.0886 1.6176 -1.07459 0
M  V30 625 C 68.2186 2.64199 -2.25424 0
M  V30 626 C 67.1726 2.58484 -3.41131 0
M  V30 627 C 66.4986 3.97599 -3.57518 0
M  V30 628 C 67.7986 2.1413 -4.76388 0
M  V30 629 H 69.4926 0.968563 -2.83301 0
M  V30 630 H 67.0386 0.464479 -1.36303 0
M  V30 631 H 68.9916 3.38413 -2.51107 0
M  V30 632 H 67.7156 2.98032 -1.33583 0
M  V30 633 H 66.3746 1.86727 -3.15481 0
M  V30 634 H 66.0226 4.28723 -2.6307 0
M  V30 635 H 65.7226 3.94659 -4.35337 0
M  V30 636 H 67.2466 4.7349 -3.85538 0
M  V30 637 H 68.6606 2.78083 -5.01341 0
M  V30 638 H 67.0576 2.2227 -5.57419 0
M  V30 639 H 68.1276 1.09331 -4.72414 0
M  V30 640 N 69.4707 1.49531 0.497807 0
M  V30 641 C 70.8817 1.52344 1.07927 0
M  V30 642 C 71.2327 0.311469 1.93712 0
M  V30 643 O 70.3577 -0.578405 2.08527 0
M  V30 644 C 70.9527 2.76062 1.96405 0
M  V30 645 C 69.5117 2.81643 2.49709 0
M  V30 646 C 68.6587 2.46299 1.27404 0
M  V30 647 H 71.6097 1.56182 0.281576 0
M  V30 648 H 71.6307 2.56405 2.81135 0
M  V30 649 H 71.1427 3.64254 1.33943 0
M  V30 650 H 69.2437 1.97739 3.15801 0
M  V30 651 H 69.3567 3.83891 2.86643 0
M  V30 652 H 67.7207 1.98148 1.60029 0
M  V30 653 H 68.5037 3.36769 0.66645 0
M  V30 654 N 70.9488 -0.749086 1.3866 0
M  V30 655 C 71.8808 -1.87273 1.32142 0
M  V30 656 C 72.8938 -1.61127 0.232787 0
M  V30 657 O 74.0828 -1.71623 0.49069 0
M  V30 658 C 71.1828 -3.23005 1.02571 0
M  V30 659 C 70.3558 -3.7662 2.22433 0
M  V30 660 C 69.4148 -4.90879 1.89537 0
M  V30 661 O 68.4408 -5.05276 2.62078 0
M  V30 662 N 69.6428 -5.74198 0.853031 0
M  V30 663 H 72.4078 -1.93373 2.28969 0
M  V30 664 H 69.9688 -0.929216 1.32579 0
M  V30 665 H 71.9608 -3.96992 0.786085 0
M  V30 666 H 70.5308 -3.12262 0.145249 0
M  V30 667 H 69.7508 -2.94147 2.62434 0
M  V30 668 H 71.0388 -4.09173 3.02415 0
M  V30 669 H 70.4368 -5.6514 0.25155 0
M  V30 670 H 68.9938 -6.48313 0.67329 0
M  V30 671 N 72.4269 -1.23603 -0.977757 0
M  V30 672 C 73.8379 -1.06424 -1.53398 0
M  V30 673 C 74.1889 0.367578 -1.92726 0
M  V30 674 O 73.3139 1.25465 -1.76316 0
M  V30 675 C 73.9089 -1.92568 -2.78753 0
M  V30 676 C 72.4679 -1.79642 -3.30765 0
M  V30 677 C 71.6149 -1.88111 -2.03739 0
M  V30 678 H 74.5659 -1.37227 -0.797152 0
M  V30 679 H 74.5869 -1.45203 -3.51705 0
M  V30 680 H 74.0989 -2.96771 -2.50098 0
M  V30 681 H 72.1999 -0.782325 -3.64294 0
M  V30 682 H 72.3129 -2.63174 -4.00345 0
M  V30 683 H 70.6769 -1.31723 -2.17994 0
M  V30 684 H 71.4599 -2.93875 -1.77461 0
M  V30 685 N 73.905 1.17692 -1.04816 0
M  V30 686 C 74.868 2.19787 -0.650117 0
M  V30 687 C 75.868 1.58044 0.296427 0
M  V30 688 O 77.058 1.74012 0.0808097 0
M  V30 689 C 74.19 3.40869 0.0456987 0
M  V30 690 H 75.383 2.56516 -1.5537 0
M  V30 691 H 72.936 1.31708 -0.841594 0
M  V30 692 H 73.671 3.09681 0.962726 0
M  V30 693 H 73.456 3.86928 -0.634727 0
M  V30 694 H 74.946 4.16445 0.310432 0
M  V30 695 N 75.3831 0.828654 1.34056 0
M  V30 696 C 76.6291 0.429279 1.98818 0
M  V30 697 C 76.9841 -0.998011 1.64492 0
M  V30 698 O 76.2771 -1.68652 0.909228 0
M  V30 699 C 76.4711 0.575226 3.52741 0
M  V30 700 C 76.3001 2.01515 4.02022 0
M  V30 701 C 75.0701 2.64825 4.30344 0
M  V30 702 C 77.2681 2.98261 4.18981 0
M  V30 703 N 75.2501 3.99998 4.65698 0
M  V30 704 C 76.6211 4.18356 4.57578 0
M  V30 705 C 78.6761 2.94802 4.01243 0
M  V30 706 C 77.3791 5.35454 4.80293 0
M  V30 707 C 79.4051 4.11121 4.25128 0
M  V30 708 C 78.7671 5.29969 4.64018 0
M  V30 709 H 74.8661 0.205304 0.754569 0
M  V30 710 H 77.4501 1.07457 1.62361 0
M  V30 711 H 75.6211 -0.0401962 3.88379 0
M  V30 712 H 77.3531 0.148292 4.04428 0
M  V30 713 H 74.1081 2.16027 4.21461 0
M  V30 714 H 74.5321 4.69653 4.87601 0
M  V30 715 H 79.1741 2.04054 3.70299 0
M  V30 716 H 76.8921 6.26755 5.10102 0
M  V30 717 H 80.4781 4.0985 4.12934 0
M  V30 718 H 79.3581 6.18479 4.82134 0
M  V30 719 N 76.8612 -1.46375 0.584142 0
M  V30 720 C 78.1072 -2.02678 0.0703716 0
M  V30 721 C 78.4402 -1.4545 -1.28678 0
M  V30 722 O 77.7152 -0.62014 -1.84349 0
M  V30 723 C 77.9982 -3.60099 0.00614674 0
M  V30 724 C 77.8512 -4.27709 1.3923 0
M  V30 725 C 79.1702 -4.34598 -0.693742 0
M  V30 726 H 76.2892 -0.736504 0.027047 0
M  V30 727 H 78.9312 -1.74501 0.751615 0
M  V30 728 H 77.0812 -3.84236 -0.574009 0
M  V30 729 H 78.7532 -4.14832 2.01773 0
M  V30 730 H 76.9962 -3.87016 1.95962 0
M  V30 731 H 77.6672 -5.36478 1.29982 0
M  V30 732 H 80.1432 -4.15615 -0.200869 0
M  V30 733 H 79.0192 -5.44318 -0.707714 0
M  V30 734 H 79.2802 -4.05759 -1.75533 0
M  V30 735 N 78.3393 -0.321999 -1.54275 0
M  V30 736 C 79.2493 0.553631 -2.27974 0
M  V30 737 C 80.2653 1.13054 -1.32268 0
M  V30 738 O 81.4413 1.15084 -1.6528 0
M  V30 739 C 78.5063 1.69927 -3.02201 0
M  V30 740 C 77.5673 1.15433 -4.1349 0
M  V30 741 C 76.8003 2.24537 -4.84168 0
M  V30 742 O 77.0233 3.44852 -4.5435 0
M  V30 743 O 75.9573 1.90044 -5.7111 0
M  V30 744 H 79.7833 -0.0448345 -3.03667 0
M  V30 745 H 77.3683 -0.0877418 -1.49142 0
M  V30 746 H 79.2503 2.3663 -3.48689 0
M  V30 747 H 77.9253 2.28395 -2.29385 0
M  V30 748 H 76.8323 0.452436 -3.71354 0
M  V30 749 H 78.1653 0.614805 -4.88345 0
M  V30 750 N 79.8174 1.5752 -0.0501392 0
M  V30 751 C 81.0654 1.9227 0.622642 0
M  V30 752 C 81.3864 0.929083 1.71444 0
M  V30 753 O 80.6564 -0.0262186 1.95882 0
M  V30 754 H 79.2364 0.709739 0.232981 0
M  V30 755 H 81.8984 1.94628 -0.102898 0
M  V30 756 H 80.9944 2.93479 1.06191 0
M  V30 757 N 81.2955 -0.223234 1.56011 0
M  V30 758 C 82.5205 -0.968978 1.83373 0
M  V30 759 C 82.9455 -1.77227 0.630254 0
M  V30 760 O 82.3035 -1.76345 -0.420959 0
M  V30 761 C 82.3515 -1.86363 3.08709 0
M  V30 762 O 81.4555 -2.95873 2.87285 0
M  V30 763 H 80.7965 -0.274461 0.604622 0
M  V30 764 H 83.3265 -0.237056 2.03222 0
M  V30 765 H 83.3365 -2.27376 3.38768 0
M  V30 766 H 82.0115 -1.27319 3.95933 0
M  V30 767 H 80.5885 -2.58818 2.68454 0
M  V30 768 N 82.7736 -1.49793 -0.48987 0
M  V30 769 C 83.9986 -1.63836 -1.27172 0
M  V30 770 C 84.4236 -0.31402 -1.8546 0
M  V30 771 O 83.7816 0.719803 -1.66399 0
M  V30 772 C 83.8296 -2.71797 -2.36978 0
M  V30 773 O 82.9336 -2.31744 -3.41128 0
M  V30 774 H 82.2746 -0.547997 -0.37496 0
M  V30 775 H 84.8046 -1.96053 -0.585191 0
M  V30 776 H 84.8146 -2.94305 -2.82575 0
M  V30 777 H 83.4896 -3.67923 -1.93921 0
M  V30 778 H 82.0666 -2.1961 -3.01373 0
M  V30 779 N 84.2517 0.741722 -1.39055 0
M  V30 780 C 85.2147 1.83733 -1.37021 0
M  V30 781 C 86.2147 1.58542 -0.268534 0
M  V30 782 O 87.4047 1.66067 -0.526076 0
M  V30 783 C 84.5367 3.2141 -1.13617 0
M  V30 784 H 85.7297 1.86941 -2.34506 0
M  V30 785 H 83.2827 0.944676 -1.24521 0
M  V30 786 H 84.0177 3.23865 -0.167863 0
M  V30 787 H 83.8027 3.4109 -1.93391 0
M  V30 788 H 85.2927 4.01477 -1.14918 0
M  V30 789 N 85.7298 1.2412 0.971189 0
M  V30 790 C 87.1458 1.00584 1.23916 0
M  V30 791 C 87.3458 -0.287481 1.99439 0
M  V30 792 O 86.4018 -1.00454 2.31658 0
M  V30 793 C 87.7148 2.21864 2.0297 0
M  V30 794 C 89.2628 2.26452 2.16076 0
M  V30 795 C 89.7378 3.47343 2.98524 0
M  V30 796 N 91.2288 3.47639 3.06107 0
M  V30 797 C 91.9638 4.37837 3.70251 0
M  V30 798 N 91.4598 5.38286 4.36142 0
M  V30 799 N 93.2528 4.25558 3.67228 0
M  V30 800 H 85.4038 2.07236 0.465499 0
M  V30 801 H 87.6668 0.909236 0.268315 0
M  V30 802 H 87.3728 3.15771 1.54861 0
M  V30 803 H 87.2468 2.23698 3.03709 0
M  V30 804 H 89.6338 1.33078 2.6339 0
M  V30 805 H 89.7148 2.28645 1.14696 0
M  V30 806 H 89.3588 4.41029 2.51905 0
M  V30 807 H 89.2888 3.42393 4.00093 0
M  V30 808 H 91.7798 2.74966 2.59233 0
M  V30 809 H 92.0928 6.03352 4.82894 0
M  V30 810 H 90.4378 5.42176 4.34822 0
M  V30 811 H 93.6288 3.46322 3.14927 0
M  V30 812 H 93.8018 4.96054 4.16935 0
M  V30 813 N 87.2079 -1.17134 1.05439 0
M  V30 814 C 88.1379 -2.2342 0.678649 0
M  V30 815 C 89.1189 -1.66971 -0.32476 0
M  V30 816 O 90.3039 -1.93149 -0.201802 0
M  V30 817 C 87.4339 -3.47256 0.0552099 0
M  V30 818 C 86.3879 -4.16543 0.98365 0
M  V30 819 C 85.7139 -5.34231 0.223961 0
M  V30 820 C 87.0139 -4.68495 2.3089 0
M  V30 821 H 88.7079 -2.55105 1.56722 0
M  V30 822 H 86.2539 -1.2262 0.754998 0
M  V30 823 H 88.2069 -4.20828 -0.21946 0
M  V30 824 H 86.9309 -3.14846 -0.868319 0
M  V30 825 H 85.5899 -3.44887 1.24293 0
M  V30 826 H 85.2379 -4.98071 -0.702412 0
M  V30 827 H 84.9379 -5.81527 0.842627 0
M  V30 828 H 86.4619 -6.10585 -0.0433671 0
M  V30 829 H 87.8759 -5.33691 2.09396 0
M  V30 830 H 86.2729 -5.26379 2.88176 0
M  V30 831 H 87.3429 -3.85169 2.94572 0
M  V30 832 N 88.686 -0.835752 -1.33615 0
M  V30 833 C 89.932 -0.439817 -1.98588 0
M  V30 834 C 90.287 0.989274 -1.65019 0
M  V30 835 O 89.58 1.68168 -0.918159 0
M  V30 836 C 89.774 -0.593925 -3.52431 0
M  V30 837 C 89.603 -2.03644 -4.00948 0
M  V30 838 C 88.373 -2.67103 -4.28934 0
M  V30 839 C 90.571 -3.00479 -4.17393 0
M  V30 840 N 88.553 -4.02462 -4.6357 0
M  V30 841 C 89.924 -4.20777 -4.55353 0
M  V30 842 C 91.979 -2.96926 -3.99674 0
M  V30 843 C 90.682 -5.37994 -4.77447 0
M  V30 844 C 92.708 -4.1337 -4.22941 0
M  V30 845 C 92.07 -5.32422 -4.61201 0
M  V30 846 H 88.169 -0.209303 -0.75347 0
M  V30 847 H 90.753 -1.08316 -1.61789 0
M  V30 848 H 88.924 0.019599 -3.88395 0
M  V30 849 H 90.656 -0.169738 -4.04344 0
M  V30 850 H 87.411 -2.18259 -4.20309 0
M  V30 851 H 87.835 -4.72232 -4.85104 0
M  V30 852 H 92.477 -2.06015 -3.69212 0
M  V30 853 H 90.195 -6.29451 -5.06771 0
M  V30 854 H 93.781 -4.12034 -4.10754 0
M  V30 855 H 92.661 -6.21027 -4.78848 0
M  V30 856 N 90.1641 1.46063 -0.591896 0
M  V30 857 C 91.0741 2.34192 0.13831 0
M  V30 858 C 92.0901 1.50305 0.876608 0
M  V30 859 O 93.2661 1.8315 0.837728 0
M  V30 860 C 90.3311 3.27656 1.13326 0
M  V30 861 C 89.3921 4.27445 0.39863 0
M  V30 862 C 88.6251 5.16443 1.34618 0
M  V30 863 O 88.8481 5.08553 2.58321 0
M  V30 864 O 87.7821 5.95843 0.851768 0
M  V30 865 H 91.6081 2.98002 -0.58552 0
M  V30 866 H 89.1931 1.45188 -0.352239 0
M  V30 867 H 91.0751 3.85291 1.70671 0
M  V30 868 H 89.7501 2.6643 1.83839 0
M  V30 869 H 88.6571 3.73471 -0.216895 0
M  V30 870 H 89.9901 4.91482 -0.265709 0
M  V30 871 N 91.6422 0.330177 1.54103 0
M  V30 872 C 92.5742 -0.566902 2.22079 0
M  V30 873 C 93.5872 -1.07462 1.22294 0
M  V30 874 O 94.7762 -0.987065 1.48726 0
M  V30 875 C 91.8762 -1.79138 2.87685 0
M  V30 876 C 91.0492 -1.42123 4.13666 0
M  V30 877 C 90.1082 -2.50394 4.62806 0
M  V30 878 O 89.1342 -2.14261 5.27334 0
M  V30 879 N 90.3362 -3.81433 4.37595 0
M  V30 880 H 93.1012 0.0151844 2.99696 0
M  V30 881 H 90.6622 0.153681 1.61169 0
M  V30 882 H 92.6542 -2.50975 3.1748 0
M  V30 883 H 91.2242 -2.28115 2.13734 0
M  V30 884 H 90.4442 -0.534201 3.90564 0
M  V30 885 H 91.7322 -1.14971 4.9564 0
M  V30 886 H 91.1302 -4.13584 3.8596 0
M  V30 887 H 89.6872 -4.4948 4.72029 0
M  V30 888 N 93.1203 -1.57491 0.0584922 0
M  V30 889 C 94.0833 -2.1085 -0.898617 0
M  V30 890 C 95.0833 -1.02964 -1.23511 0
M  V30 891 O 96.2733 -1.29007 -1.17059 0
M  V30 892 C 93.4053 -2.59881 -2.20623 0
M  V30 893 H 94.5983 -2.96715 -0.435936 0
M  V30 894 H 92.1513 -1.55141 -0.190023 0
M  V30 895 H 92.8863 -1.77431 -2.71457 0
M  V30 896 H 92.6713 -3.38727 -1.97501 0
M  V30 897 H 94.1613 -3.01285 -2.89166 0
M  V30 898 N 94.5984 0.214957 -1.56127 0
M  V30 899 C 95.8264 0.955092 -1.83536 0
M  V30 900 C 96.2414 1.77677 -0.638472 0
M  V30 901 O 95.5984 1.78219 0.392968 0
M  V30 902 C 95.6494 1.86734 -3.09536 0
M  V30 903 O 95.3704 1.07887 -4.24608 0
M  V30 904 C 96.8714 2.72082 -3.4998 0
M  V30 905 H 94.0914 0.279611 -0.609966 0
M  V30 906 H 96.6354 0.228197 -2.03223 0
M  V30 907 H 94.7904 2.5481 -2.91806 0
M  V30 908 H 95.2044 1.69872 -4.9623 0
M  V30 909 H 96.6784 3.31782 -4.41163 0
M  V30 910 H 97.1554 3.44806 -2.7204 0
M  V30 911 H 97.7614 2.09409 -3.70173 0
M  V30 912 N 96.0765 1.50051 0.48192 0
M  V30 913 C 97.3245 1.60181 1.23234 0
M  V30 914 C 97.6455 0.299176 1.92691 0
M  V30 915 O 96.9155 -0.682708 1.83619 0
M  V30 916 H 95.4955 0.590232 0.457859 0
M  V30 917 H 98.1575 1.86775 0.556881 0
M  V30 918 H 97.2535 2.40753 1.98607 0
M  V30 919 N 97.5546 -0.734337 1.39446 0
M  V30 920 C 98.7826 -1.52358 1.39981 0
M  V30 921 C 99.1976 -1.88799 -0.0054975 0
M  V30 922 O 98.5546 -1.54146 -0.976998 0
M  V30 923 C 98.6056 -2.81072 2.27333 0
M  V30 924 O 98.3266 -2.46178 3.62392 0
M  V30 925 C 99.8276 -3.75096 2.36259 0
M  V30 926 H 97.0476 -0.470806 0.478103 0
M  V30 927 H 99.5916 -0.907339 1.83269 0
M  V30 928 H 97.7466 -3.39026 1.87457 0
M  V30 929 H 98.1606 -3.28866 4.08592 0
M  V30 930 H 99.6346 -4.62305 3.01626 0
M  V30 931 H 100.112 -4.16892 1.38194 0
M  V30 932 H 100.718 -3.23061 2.76608 0
M  V30 933 N 99.0327 -1.24633 -0.964593 0
M  V30 934 C 100.281 -1.08573 -1.70459 0
M  V30 935 C 100.602 0.375655 -1.91347 0
M  V30 936 O 99.8717 1.26779 -1.49345 0
M  V30 937 H 98.4517 -0.398784 -0.631649 0
M  V30 938 H 101.114 -1.56601 -1.16026 0
M  V30 939 H 100.21 -1.58623 -2.68785 0
M  V30 940 N 100.511 1.16574 -1.06058 0
M  V30 941 C 101.757 1.87565 -0.78683 0
M  V30 942 C 102.112 1.80012 0.679214 0
M  V30 943 O 101.405 1.20327 1.49104 0
M  V30 944 C 101.599 3.36195 -1.21275 0
M  V30 945 C 101.428 3.58216 -2.71866 0
M  V30 946 C 100.198 3.7444 -3.39298 0
M  V30 947 C 102.396 3.57134 -3.70081 0
M  V30 948 N 100.378 3.84389 -4.78663 0
M  V30 949 C 101.749 3.73038 -4.9522 0
M  V30 950 C 103.804 3.40332 -3.63426 0
M  V30 951 C 102.507 3.73879 -6.14497 0
M  V30 952 C 104.533 3.42466 -4.82153 0
M  V30 953 C 103.895 3.58887 -6.06118 0
M  V30 954 H 99.9938 0.704081 -0.340284 0
M  V30 955 H 102.578 1.39885 -1.35426 0
M  V30 956 H 100.749 3.82522 -0.673179 0
M  V30 957 H 102.481 3.94839 -0.887917 0
M  V30 958 H 99.2358 3.74662 -2.89699 0
M  V30 959 H 99.6598 3.93138 -5.51155 0
M  V30 960 H 104.302 3.26566 -2.68541 0
M  V30 961 H 102.02 3.86427 -7.09718 0
M  V30 962 H 105.606 3.30712 -4.78666 0
M  V30 963 H 104.486 3.60454 -6.9645 0
M  V30 964 N 101.989 0.842826 1.3317 0
M  V30 965 C 102.922 0.223862 2.27099 0
M  V30 966 C 103.9 -0.631311 1.49844 0
M  V30 967 O 105.084 -0.590708 1.79005 0
M  V30 968 C 102.211 -0.685313 3.31694 0
M  V30 969 C 101.257 0.094919 4.26394 0
M  V30 970 S 102.09 1.45546 5.15341 0
M  V30 971 C 103.246 0.551685 6.23464 0
M  V30 972 H 103.479 1.02015 2.79249 0
M  V30 973 H 101.012 0.639797 1.4052 0
M  V30 974 H 102.97 -1.20426 3.92438 0
M  V30 975 H 101.631 -1.4553 2.78352 0
M  V30 976 H 100.824 -0.597059 5.00451 0
M  V30 977 H 100.426 0.545054 3.70007 0
M  V30 978 H 102.718 -0.248877 6.77043 0
M  V30 979 H 103.661 1.26253 6.96754 0
M  V30 980 H 104.069 0.131275 5.64347 0
M  V30 981 N 103.467 -1.45747 0.599634 0
M  V30 982 C 104.744 -1.95585 0.0240846 0
M  V30 983 C 105.124 -1.54217 -1.44154 0
M  V30 984 O 104.472 -0.800903 -2.14004 0
M  V30 985 C 104.682 -3.48344 0.21385 0
M  V30 986 C 106.03 -4.24504 0.0904902 0
M  V30 987 O 107.054 -3.55911 0.143558 0
M  V30 988 O 105.913 -5.46491 -0.0310766 0
M  V30 989 H 103.007 -0.82602 -0.0402478 0
M  V30 990 H 105.553 -1.55951 0.669139 0
M  V30 991 H 104.325 -3.71397 1.23206 0
M  V30 992 H 103.948 -3.9485 -0.466842 0
M  V30 993 N 104.945 -0.338344 -1.53925 0
M  V30 994 C 105.875 0.51328 -2.27789 0
M  V30 995 C 106.856 1.107 -1.29149 0
M  V30 996 O 108.041 1.12937 -1.57984 0
M  V30 997 C 105.171 1.66697 -3.04679 0
M  V30 998 C 104.125 1.20183 -4.1078 0
M  V30 999 C 103.451 2.44363 -4.75595 0
M  V30 1000 C 104.751 0.30605 -5.21403 0
M  V30 1001 H 106.445 -0.102883 -2.99223 0
M  V30 1002 H 103.991 -0.0509219 -1.4391 0
M  V30 1003 H 105.944 2.26915 -3.55088 0
M  V30 1004 H 104.668 2.30995 -2.30887 0
M  V30 1005 H 103.327 0.622499 -3.61276 0
M  V30 1006 H 102.975 3.07057 -3.98403 0
M  V30 1007 H 102.675 2.13925 -5.47275 0
M  V30 1008 H 104.199 3.05317 -5.28786 0
M  V30 1009 H 105.613 0.814929 -5.67478 0
M  V30 1010 H 104.01 0.0937929 -6.00027 0
M  V30 1011 H 105.08 -0.65921 -4.80398 0
M  V30 1012 N 106.423 1.57458 -0.0668435 0
M  V30 1013 C 107.333 2.15937 0.916975 0
M  V30 1014 C 108.349 1.12123 1.33058 0
M  V30 1015 O 109.525 1.44366 1.40429 0
M  V30 1016 C 106.59 2.70547 2.16807 0
M  V30 1017 C 105.651 3.89215 1.81135 0
M  V30 1018 C 104.884 4.41211 3.0028 0
M  V30 1019 O 105.107 3.92225 4.14144 0
M  V30 1020 O 104.041 5.32605 2.80384 0
M  V30 1021 H 107.867 3.00354 0.449561 0
M  V30 1022 H 105.452 1.48584 0.155949 0
M  V30 1023 H 107.334 3.0557 2.90181 0
M  V30 1024 H 106.009 1.89192 2.62656 0
M  V30 1025 H 104.916 3.59054 1.05028 0
M  V30 1026 H 106.249 4.71848 1.40073 0
M  V30 1027 N 107.901 -0.206675 1.56239 0
M  V30 1028 C 108.864 -1.23976 1.92776 0
M  V30 1029 C 109.864 -1.39041 0.807729 0
M  V30 1030 O 111.054 -1.37051 1.0753 0
M  V30 1031 C 108.186 -2.61112 2.19165 0
M  V30 1032 H 109.379 -0.927764 2.85189 0
M  V30 1033 H 106.932 -0.447718 1.4975 0
M  V30 1034 H 107.667 -2.97386 1.29352 0
M  V30 1035 H 107.452 -2.51552 3.00772 0
M  V30 1036 H 108.942 -3.35633 2.48476 0
M  V30 1037 N 109.379 -1.50304 -0.473955 0
M  V30 1038 C 110.604 -1.65175 -1.25427 0
M  V30 1039 C 111.029 -0.333673 -1.85117 0
M  V30 1040 O 110.387 0.702114 -1.67153 0
M  V30 1041 C 110.435 -2.74295 -2.34082 0
M  V30 1042 O 109.539 -2.35349 -3.38651 0
M  V30 1043 H 108.88 -0.551944 -0.369126 0
M  V30 1044 H 111.41 -1.96662 -0.564364 0
M  V30 1045 H 111.42 -2.97285 -2.79438 0
M  V30 1046 H 110.095 -3.69959 -1.90008 0
M  V30 1047 H 108.672 -2.22794 -2.99027 0
M  V30 1048 N 110.857 0.726932 -1.39834 0
M  V30 1049 C 111.787 1.85405 -1.41941 0
M  V30 1050 C 112.768 1.67751 -0.281728 0
M  V30 1051 O 113.953 1.8795 -0.488717 0
M  V30 1052 C 111.083 3.23243 -1.2701 0
M  V30 1053 C 110.037 3.55549 -2.38262 0
M  V30 1054 C 109.363 4.9241 -2.08415 0
M  V30 1055 C 110.663 3.577 -3.80589 0
M  V30 1056 H 112.357 1.83899 -2.36266 0
M  V30 1057 H 109.903 0.883349 -1.13723 0
M  V30 1058 H 111.856 4.01775 -1.27103 0
M  V30 1059 H 110.58 3.25296 -0.291564 0
M  V30 1060 H 109.239 2.79351 -2.37399 0
M  V30 1061 H 108.887 4.91052 -1.0898 0
M  V30 1062 H 108.587 5.14992 -2.82943 0
M  V30 1063 H 110.111 5.73289 -2.10171 0
M  V30 1064 H 111.525 4.26293 -3.83337 0
M  V30 1065 H 109.922 3.91804 -4.54543 0
M  V30 1066 H 110.992 2.57328 -4.10987 0
M  V30 1067 N 112.336 1.25143 0.95797 0
M  V30 1068 C 113.266 1.07711 2.07173 0
M  V30 1069 C 114.247 -0.0128462 1.70095 0
M  V30 1070 O 115.432 0.156061 1.93572 0
M  V30 1071 C 112.562 0.691503 3.40346 0
M  V30 1072 C 111.516 1.73132 3.9142 0
M  V30 1073 C 110.842 1.20049 5.21049 0
M  V30 1074 C 112.142 3.1294 4.1817 0
M  V30 1075 H 113.836 2.00873 2.22014 0
M  V30 1076 H 111.382 0.967191 1.06684 0
M  V30 1077 H 113.335 0.556505 4.17709 0
M  V30 1078 H 112.059 -0.275819 3.25433 0
M  V30 1079 H 110.718 1.8547 3.16222 0
M  V30 1080 H 110.366 0.223499 5.02503 0
M  V30 1081 H 110.066 1.89545 5.56189 0
M  V30 1082 H 111.59 1.07782 6.01012 0
M  V30 1083 H 113.004 3.03775 4.86203 0
M  V30 1084 H 111.401 3.79875 4.64559 0
M  V30 1085 H 112.471 3.6025 3.24573 0
M  V30 1086 N 113.814 -1.1601 1.06675 0
M  V30 1087 C 115.225 -1.68235 0.809565 0
M  V30 1088 C 115.576 -1.8454 -0.666303 0
M  V30 1089 O 114.701 -1.54374 -1.5165 0
M  V30 1090 C 115.296 -3.05585 1.46299 0
M  V30 1091 C 113.855 -3.54915 1.25349 0
M  V30 1092 C 113.002 -2.30804 1.53703 0
M  V30 1093 H 115.953 -1.00318 1.22971 0
M  V30 1094 H 115.974 -3.70174 0.880431 0
M  V30 1095 H 115.486 -2.93686 2.53713 0
M  V30 1096 H 113.587 -3.72067 0.199261 0
M  V30 1097 H 113.7 -4.36774 1.9689 0
M  V30 1098 H 112.064 -2.36007 0.957739 0
M  V30 1099 H 112.847 -2.21499 2.62284 0
M  V30 1100 N 115.292 -0.849877 -1.32721 0
M  V30 1101 C 116.52 -0.464754 -2.01613 0
M  V30 1102 C 116.935 0.937191 -1.63897 0
M  V30 1103 O 116.292 1.61081 -0.857856 0
M  V30 1104 C 116.343 -0.588638 -3.56675 0
M  V30 1105 O 116.064 -1.93535 -3.93034 0
M  V30 1106 C 117.565 -0.2019 -4.4284 0
M  V30 1107 H 114.785 -0.183215 -0.645502 0
M  V30 1108 H 117.329 -1.1455 -1.69407 0
M  V30 1109 H 115.484 0.0443159 -3.87375 0
M  V30 1110 H 115.898 -1.92871 -4.87751 0
M  V30 1111 H 117.372 -0.339599 -5.50954 0
M  V30 1112 H 117.849 0.857224 -4.30753 0
M  V30 1113 H 118.455 -0.809733 -4.17521 0
M  V30 1114 N 116.77 1.45427 -0.607355 0
M  V30 1115 C 118.018 2.01841 -0.102253 0
M  V30 1116 C 118.339 1.47832 1.27164 0
M  V30 1117 O 117.609 0.672497 1.83995 0
M  V30 1118 H 116.189 0.746188 -0.0348101 0
M  V30 1119 H 118.851 1.78229 -0.7887 0
M  V30 1120 H 117.947 3.12057 -0.0518585 0
M  V30 1121 N 118.248 0.346503 1.53744 0
M  V30 1122 C 119.659 -0.136779 1.86198 0
M  V30 1123 C 120.01 -1.49749 1.26766 0
M  V30 1124 O 119.135 -2.08417 0.582355 0
M  V30 1125 C 119.73 -0.254966 3.37839 0
M  V30 1126 C 118.289 -0.682482 3.70161 0
M  V30 1127 C 117.436 0.181981 2.76702 0
M  V30 1128 H 120.387 0.565994 1.48264 0
M  V30 1129 H 120.408 -1.08195 3.64793 0
M  V30 1130 H 119.92 0.735526 3.81066 0
M  V30 1131 H 118.021 -1.68189 3.3248 0
M  V30 1132 H 118.134 -0.470326 4.76786 0
M  V30 1133 H 116.498 -0.34615 2.52337 0
M  V30 1134 H 117.281 1.16966 3.2276 0
M  V30 1135 N 119.726 -1.57421 0.075193 0
M  V30 1136 C 120.674 -2.14124 -0.908508 0
M  V30 1137 C 121.668 -1.07898 -1.30592 0
M  V30 1138 O 122.874 -1.26273 -1.28277 0
M  V30 1139 H 119.249 -0.684707 -0.310935 0
M  V30 1140 H 121.22 -2.95634 -0.405374 0
M  V30 1141 C 119.969 -2.72044 -2.16535 0
M  V30 1142 H 119.292 -3.53456 -1.86839 0
M  V30 1143 H 120.732 -3.15311 -2.83469 0
M  V30 1144 C 119.191 -1.66968 -2.92615 0
M  V30 1145 O 119.721 -1.0967 -3.86439 0
M  V30 1146 N 117.927 -1.37923 -2.55784 0
M  V30 1147 H 117.474 -1.84706 -1.79559 0
M  V30 1148 H 117.432 -0.67852 -3.06991 0
M  V30 1149 N 121.204 0.198386 -1.56346 0
M  V30 1150 C 122.167 1.22952 -1.93431 0
M  V30 1151 C 123.167 1.38611 -0.815092 0
M  V30 1152 O 124.357 1.36479 -1.08255 0
M  V30 1153 C 121.489 2.59946 -2.20546 0
M  V30 1154 H 122.682 0.912626 -2.85677 0
M  V30 1155 H 120.235 0.43977 -1.49986 0
M  V30 1156 H 120.97 2.96696 -1.30927 0
M  V30 1157 H 120.755 2.49953 -3.02102 0
M  V30 1158 H 122.245 3.3431 -2.50253 0
M  V30 1159 N 122.682 1.50554 0.465978 0
M  V30 1160 C 123.907 1.65838 1.24549 0
M  V30 1161 C 124.332 0.343486 1.84937 0
M  V30 1162 O 123.69 -0.69324 1.67523 0
M  V30 1163 C 123.738 2.75533 2.32624 0
M  V30 1164 O 122.842 2.37142 3.37398 0
M  V30 1165 H 122.183 0.553893 0.366194 0
M  V30 1166 H 124.713 1.96959 0.553927 0
M  V30 1167 H 124.723 2.98763 2.77857 0
M  V30 1168 H 123.398 3.70962 1.88043 0
M  V30 1169 H 121.975 2.24377 2.97841 0
M  V30 1170 N 124.16 -0.719506 1.40217 0
M  V30 1171 C 125.108 -1.85493 1.40339 0
M  V30 1172 C 126.102 -1.66995 0.284415 0
M  V30 1173 O 127.308 -1.74148 0.455252 0
M  V30 1174 H 123.683 -0.610857 0.438586 0
M  V30 1175 H 125.654 -1.82506 2.36081 0
M  V30 1176 C 124.403 -3.23321 1.27901 0
M  V30 1177 H 123.726 -3.38159 2.1328 0
M  V30 1178 H 125.166 -4.02914 1.32045 0
M  V30 1179 C 123.625 -3.36898 -0.0111355 0
M  V30 1180 O 124.155 -3.89674 -0.975538 0
M  V30 1181 N 122.361 -2.90492 -0.0793393 0
M  V30 1182 H 121.908 -2.47731 0.706183 0
M  V30 1183 H 121.866 -2.99955 -0.942038 0
M  V30 1184 N 125.638 -1.25649 -0.95132 0
M  V30 1185 C 126.866 -1.13343 -1.73092 0
M  V30 1186 C 127.281 0.312434 -1.86197 0
M  V30 1187 O 126.638 1.21465 -1.36207 0
M  V30 1188 C 126.689 -1.78602 -3.14299 0
M  V30 1189 O 126.41 -3.17537 -3.01831 0
M  V30 1190 C 127.911 -1.72119 -4.08522 0
M  V30 1191 H 125.131 -0.395181 -0.542285 0
M  V30 1192 H 127.675 -1.66076 -1.19328 0
M  V30 1193 H 125.83 -1.29832 -3.64996 0
M  V30 1194 H 126.244 -3.49676 -3.90931 0
M  V30 1195 H 127.718 -2.22435 -5.052 0
M  V30 1196 H 128.195 -0.685635 -4.33815 0
M  V30 1197 H 128.801 -2.20393 -3.63741 0
M  V30 1198 N 127.117 1.15442 -1.07289 0
M  V30 1199 C 128.342 1.90638 -0.816828 0
M  V30 1200 C 128.767 1.77445 0.624083 0
M  V30 1201 O 128.125 1.10671 1.43602 0
M  V30 1202 C 128.173 3.39008 -1.22906 0
M  V30 1203 O 127.277 4.10701 -0.373975 0
M  V30 1204 H 126.618 0.593555 -0.297638 0
M  V30 1205 H 129.148 1.46198 -1.43134 0
M  V30 1206 H 129.158 3.89801 -1.20497 0
M  V30 1207 H 127.833 3.47929 -2.27856 0
M  V30 1208 H 126.41 3.70046 -0.460499 0
M  V30 1209 N 128.595 0.856903 1.32268 0
M  V30 1210 C 129.872 0.382583 1.91822 0
M  V30 1211 C 130.252 -1.13407 1.78051 0
M  V30 1212 O 129.6 -1.95673 1.18001 0
M  V30 1213 C 129.81 0.849446 3.38505 0
M  V30 1214 C 131.158 0.867936 4.15634 0
M  V30 1215 O 132.182 0.794232 3.47232 0
M  V30 1216 O 131.041 0.972286 5.37781 0
M  V30 1217 H 128.135 0.112014 0.819379 0
M  V30 1218 H 130.681 0.943952 1.41024 0
M  V30 1219 H 129.453 1.89267 3.42482 0
M  V30 1220 H 129.076 0.265652 3.96712 0
M  V30 1221 N 130.073 -1.45103 0.615059 0
M  V30 1222 C 131.321 -2.01784 0.112955 0
M  V30 1223 C 131.642 -1.48504 -1.26378 0
M  V30 1224 O 130.912 -0.682245 -1.83636 0
M  V30 1225 H 129.492 -0.745993 0.0387668 0
M  V30 1226 H 132.154 -1.77808 0.798141 0
M  V30 1227 H 131.25 -3.12025 0.0684069 0
M  V30 1228 N 131.551 -0.354651 -1.53558 0
M  V30 1229 C 132.962 0.126902 -1.86268 0
M  V30 1230 C 133.313 1.49075 -1.27558 0
M  V30 1231 O 132.438 2.08105 -0.5934 0
M  V30 1232 C 133.033 0.237046 -3.3797 0
M  V30 1233 C 131.592 0.662842 -3.70518 0
M  V30 1234 C 130.739 -0.196652 -2.76602 0
M  V30 1235 H 133.69 -0.573849 -1.47962 0
M  V30 1236 H 133.711 1.06259 -3.65362 0
M  V30 1237 H 133.223 -0.755725 -3.80671 0
M  V30 1238 H 131.324 1.66424 -3.33367 0
M  V30 1239 H 131.437 0.445034 -4.77029 0
M  V30 1240 H 129.801 0.332763 -2.52517 0
M  V30 1241 H 130.584 -1.18676 -3.22135 0
M  V30 1242 N 133.029 1.57378 -0.0835403 0
M  V30 1243 C 134.306 1.85363 0.624507 0
M  V30 1244 C 134.686 0.978239 1.87066 0
M  V30 1245 O 134.034 0.0475908 2.2845 0
M  V30 1246 C 134.244 3.35795 0.950947 0
M  V30 1247 C 135.592 4.03581 1.31939 0
M  V30 1248 O 136.616 3.40609 1.04232 0
M  V30 1249 O 135.475 5.14672 1.83779 0
M  V30 1250 H 132.569 0.766162 0.311329 0
M  V30 1251 H 135.115 1.69307 -0.115362 0
M  V30 1252 H 133.887 3.91244 0.0663899 0
M  V30 1253 H 133.51 3.57154 1.74719 0
M  V30 1254 N 134.507 -0.190092 1.56449 0
M  V30 1255 C 135.455 -1.25501 1.95837 0
M  V30 1256 C 136.449 -1.4685 0.844485 0
M  V30 1257 O 137.655 -1.47651 1.02952 0
M  V30 1258 H 134.03 -0.421447 0.622805 0
M  V30 1259 H 136.001 -0.895821 2.84636 0
M  V30 1260 C 134.75 -2.59124 2.31841 0
M  V30 1261 H 134.073 -2.43514 3.17082 0
M  V30 1262 H 135.513 -3.32371 2.6326 0
M  V30 1263 C 133.972 -3.16488 1.15486 0
M  V30 1264 O 134.502 -3.99365 0.432535 0
M  V30 1265 N 132.708 -2.75305 0.930349 0
M  V30 1266 H 132.255 -2.08013 1.51948 0
M  V30 1267 H 132.213 -3.14024 0.153634 0
M  V30 1268 N 135.985 -1.50799 -0.457987 0
M  V30 1269 C 136.915 -1.73553 -1.5621 0
M  V30 1270 C 137.896 -0.584774 -1.59732 0
M  V30 1271 O 139.081 -0.825314 -1.7579 0
M  V30 1272 C 136.211 -1.84169 -2.94447 0
M  V30 1273 C 135.165 -2.99461 -3.0579 0
M  V30 1274 C 134.491 -2.95235 -4.45803 0
M  V30 1275 C 135.791 -4.39766 -2.81786 0
M  V30 1276 H 137.485 -2.66 -1.37421 0
M  V30 1277 H 135.031 -1.28002 -0.659662 0
M  V30 1278 H 136.984 -1.98672 -3.71628 0
M  V30 1279 H 135.708 -0.883545 -3.14422 0
M  V30 1280 H 134.367 -2.8463 -2.31044 0
M  V30 1281 H 134.015 -1.97239 -4.62715 0
M  V30 1282 H 133.715 -3.72642 -4.54326 0
M  V30 1283 H 135.239 -3.11803 -5.24987 0
M  V30 1284 H 136.653 -4.55054 -3.4871 0
M  V30 1285 H 135.05 -5.18722 -3.0174 0
M  V30 1286 H 136.12 -4.51229 -1.7754 0
M  V30 1287 N 137.463 0.71206 -1.40597 0
M  V30 1288 C 138.691 1.50111 -1.42388 0
M  V30 1289 C 139.106 1.88784 -0.0245395 0
M  V30 1290 O 138.463 1.55681 0.952351 0
M  V30 1291 C 138.514 2.7742 -2.31776 0
M  V30 1292 O 138.235 2.40382 -3.66262 0
M  V30 1293 C 139.736 3.7129 -2.42196 0
M  V30 1294 H 136.956 0.46314 -0.485533 0
M  V30 1295 H 139.5 0.878068 -1.8469 0
M  V30 1296 H 137.655 3.36001 -1.92827 0
M  V30 1297 H 138.069 3.22324 -4.13772 0
M  V30 1298 H 139.543 4.57448 -3.08943 0
M  V30 1299 H 140.02 4.14641 -1.44809 0
M  V30 1300 H 140.626 3.18619 -2.81712 0
M  V30 1301 N 138.941 1.26152 0.944643 0
M  V30 1302 C 140.166 1.14363 1.7302 0
M  V30 1303 C 140.591 -0.29772 1.85729 0
M  V30 1304 O 139.949 -1.2157 1.34501 0
M  V30 1305 C 139.997 1.81378 3.11664 0
M  V30 1306 O 139.101 1.10022 3.97453 0
M  V30 1307 H 138.442 0.398694 0.53098 0
M  V30 1308 H 140.972 1.66906 1.18337 0
M  V30 1309 H 140.982 1.88064 3.62072 0
M  V30 1310 H 139.657 2.86237 3.0173 0
M  V30 1311 H 138.234 1.11287 3.55907 0
M  V30 1312 N 140.419 -1.14872 1.07899 0
M  V30 1313 C 141.382 -2.17986 0.708161 0
M  V30 1314 C 142.382 -1.58775 -0.25442 0
M  V30 1315 O 143.572 -1.74166 -0.034645 0
M  V30 1316 C 140.704 -3.40871 0.0446929 0
M  V30 1317 H 141.897 -2.52306 1.62116 0
M  V30 1318 H 139.45 -1.2943 0.876218 0
M  V30 1319 H 140.185 -3.12124 -0.880281 0
M  V30 1320 H 139.97 -3.8511 0.737091 0
M  V30 1321 H 141.46 -4.17121 -0.19991 0
M  V30 1322 N 141.898 -0.863906 -1.31812 0
M  V30 1323 C 143.146 -0.470904 -1.96537 0
M  V30 1324 C 143.467 0.978771 -1.68657 0
M  V30 1325 O 142.737 1.6853 -0.998717 0
M  V30 1326 H 141.317 -0.171148 -0.72713 0
M  V30 1327 H 143.979 -1.10236 -1.60729 0
M  V30 1328 H 143.075 -0.623616 -3.05806 0
M  V30 1329 N 143.376 1.44774 -0.622745 0
M  V30 1330 C 144.601 2.06999 -0.128968 0
M  V30 1331 C 145.026 1.4617 1.1839 0
M  V30 1332 O 144.384 0.560007 1.72434 0
M  V30 1333 C 144.432 3.60595 -0.0188351 0
M  V30 1334 O 143.536 3.99398 1.02739 0
M  V30 1335 H 142.877 0.659047 -0.0809544 0
M  V30 1336 H 145.407 1.85784 -0.85705 0
M  V30 1337 H 145.417 4.07627 0.174476 0
M  V30 1338 H 144.092 4.04252 -0.977384 0
M  V30 1339 H 142.669 3.64011 0.809326 0
M  V30 1340 N 144.854 0.36279 1.53368 0
M  V30 1341 C 146.265 -0.117022 1.86333 0
M  V30 1342 C 146.616 -1.48397 1.28347 0
M  V30 1343 O 145.741 -2.07787 0.604428 0
M  V30 1344 C 146.336 -0.21912 3.38091 0
M  V30 1345 C 144.895 -0.643184 3.70864 0
M  V30 1346 C 144.042 0.211318 2.76494 0
M  V30 1347 H 146.993 0.581687 1.47655 0
M  V30 1348 H 147.014 -1.04319 3.6592 0
M  V30 1349 H 146.526 0.775902 3.80265 0
M  V30 1350 H 144.627 -1.64654 3.34245 0
M  V30 1351 H 144.74 -0.41973 4.77258 0
M  V30 1352 H 143.104 -0.319367 2.5269 0
M  V30 1353 H 143.887 1.20383 3.21501 0
M  V30 1354 N 146.332 -1.57332 0.0918853 0
M  V30 1355 C 147.743 -1.81496 -0.437739 0
M  V30 1356 C 148.094 -1.00727 -1.6837 0
M  V30 1357 O 147.219 -0.235694 -2.15113 0
M  V30 1358 C 147.814 -3.29197 -0.800939 0
M  V30 1359 C 146.373 -3.54136 -1.27532 0
M  V30 1360 C 145.52 -2.75979 -0.270392 0
M  V30 1361 H 148.471 -1.55494 0.317366 0
M  V30 1362 H 148.492 -3.42344 -1.66074 0
M  V30 1363 H 148.004 -3.87955 0.106078 0
M  V30 1364 H 146.105 -3.00705 -2.20016 0
M  V30 1365 H 146.218 -4.62792 -1.23938 0
M  V30 1366 H 144.582 -2.43349 -0.751872 0
M  V30 1367 H 145.365 -3.37484 0.629248 0
M  V30 1368 N 147.81 0.181792 -1.56548 0
M  V30 1369 C 149.226 0.53316 -1.50431 0
M  V30 1370 C 149.426 1.85184 -0.794297 0
M  V30 1371 O 148.482 2.50058 -0.350318 0
M  V30 1372 C 149.795 0.575597 -2.9514 0
M  V30 1373 C 151.343 0.663519 -3.05886 0
M  V30 1374 C 151.818 0.736946 -4.52032 0
M  V30 1375 N 153.309 0.800118 -4.56237 0
M  V30 1376 C 154.044 0.877327 -5.66649 0
M  V30 1377 N 153.54 0.916016 -6.86718 0
M  V30 1378 N 155.333 0.915542 -5.54594 0
M  V30 1379 H 147.484 -0.683025 -2.01118 0
M  V30 1380 H 149.747 -0.244988 -0.915797 0
M  V30 1381 H 149.453 -0.324482 -3.502 0
M  V30 1382 H 149.327 1.42572 -3.49218 0
M  V30 1383 H 151.714 1.55403 -2.50867 0
M  V30 1384 H 151.795 -0.21307 -2.54911 0
M  V30 1385 H 151.439 -0.149262 -5.07681 0
M  V30 1386 H 151.369 1.62953 -5.00753 0
M  V30 1387 H 153.86 0.778926 -3.69785 0
M  V30 1388 H 154.173 0.975813 -7.66614 0
M  V30 1389 H 152.518 0.884469 -6.89349 0
M  V30 1390 H 155.709 0.882245 -4.59711 0
M  V30 1391 H 155.882 0.972253 -6.40665 0
M  V30 1392 N 149.288 1.51039 0.449983 0
M  V30 1393 C 150.516 1.66869 1.2232 0
M  V30 1394 C 150.931 0.360727 1.85322 0
M  V30 1395 O 150.288 -0.659531 1.70166 0
M  V30 1396 C 150.339 2.77524 2.31652 0
M  V30 1397 O 150.06 4.03252 1.7123 0
M  V30 1398 C 151.561 3.04512 3.2216 0
M  V30 1399 H 148.781 0.560326 0.369155 0
M  V30 1400 H 151.325 1.97385 0.534719 0
M  V30 1401 H 149.48 2.49642 2.96239 0
M  V30 1402 H 149.894 4.64609 2.43389 0
M  V30 1403 H 151.368 3.85551 3.95038 0
M  V30 1404 H 151.845 2.16415 3.8218 0
M  V30 1405 H 152.451 3.34005 2.63288 0
M  V30 1406 N 150.766 -0.704594 1.40972 0
M  V30 1407 C 152.014 -1.46169 1.39568 0
M  V30 1408 C 152.335 -1.95 0.00253745 0
M  V30 1409 O 151.605 -1.71095 -0.954114 0
M  V30 1410 H 150.185 -0.542326 0.513704 0
M  V30 1411 H 152.847 -0.834553 1.76128 0
M  V30 1412 H 151.943 -2.32922 2.07735 0
M  V30 1413 N 152.244 -1.26651 -0.937939 0
M  V30 1414 C 153.469 -1.15279 -1.72411 0
M  V30 1415 C 153.894 0.287866 -1.85884 0
M  V30 1416 O 153.252 1.20855 -1.35143 0
M  V30 1417 C 153.3 -1.83028 -3.10698 0
M  V30 1418 O 152.404 -1.12128 -3.96864 0
M  V30 1419 H 151.745 -0.401504 -0.528858 0
M  V30 1420 H 154.275 -1.67531 -1.1745 0
M  V30 1421 H 154.285 -1.89981 -3.6107 0
M  V30 1422 H 152.96 -2.87833 -3.00208 0
M  V30 1423 H 151.537 -1.13173 -3.55312 0
M  V30 1424 N 153.722 1.14298 -1.08507 0
M  V30 1425 C 154.971 1.84708 -0.810305 0
M  V30 1426 C 155.284 1.83903 0.666271 0
M  V30 1427 O 156.49 2.50112 1.05624 0
M  V30 1428 C 154.946 3.31572 -1.39957 0
M  V30 1429 C 154.554 3.40791 -2.90801 0
M  V30 1430 C 156.298 4.07087 -1.20334 0
M  V30 1431 C 154.205 4.81872 -3.4286 0
M  V30 1432 H 153.135 0.691985 -0.299454 0
M  V30 1433 H 155.786 1.28841 -1.30661 0
M  V30 1434 H 154.168 3.87183 -0.830976 0
M  V30 1435 H 155.342 2.95225 -3.53806 0
M  V30 1436 H 153.657 2.78732 -3.0935 0
M  V30 1437 H 156.254 5.11225 -1.56693 0
M  V30 1438 H 156.597 4.16054 -0.143237 0
M  V30 1439 H 157.13 3.57779 -1.73893 0
M  V30 1440 H 153.869 4.78094 -4.48449 0
M  V30 1441 H 153.389 5.27972 -2.84615 0
M  V30 1442 H 155.068 5.50765 -3.39509 0
M  V30 1443 N 155.201 0.870884 1.31352 0
M  V30 1444 C 156.426 0.495957 2.01383 0
M  V30 1445 C 156.851 -0.904324 1.64935 0
M  V30 1446 O 156.209 -1.59687 0.858466 0
M  V30 1447 C 156.257 0.661433 3.54482 0
M  V30 1448 O 155.361 -0.298851 4.11316 0
M  V30 1449 H 154.702 0.197158 0.634054 0
M  V30 1450 H 157.232 1.17455 1.67527 0
M  V30 1451 H 157.242 0.555072 4.04207 0
M  V30 1452 H 155.917 1.68246 3.8035 0
M  V30 1453 H 154.494 -0.147368 3.72609 0
M  V30 1454 N 156.679 -1.44442 0.630414 0
M  V30 1455 C 157.909 -2.06115 0.141465 0
M  V30 1456 C 158.317 -1.47179 -1.1889 0
M  V30 1457 O 157.66 -0.588873 -1.74006 0
M  V30 1458 C 157.722 -3.59467 -0.0484355 0
M  V30 1459 C 157.386 -4.40864 1.20366 0
M  V30 1460 C 158.383 -4.74391 2.12719 0
M  V30 1461 C 156.068 -4.8125 1.43887 0
M  V30 1462 C 158.062 -5.47186 3.26904 0
M  V30 1463 C 155.749 -5.53795 2.5837 0
M  V30 1464 C 156.747 -5.86682 3.49705 0
M  V30 1465 O 156.435 -6.57749 4.62191 0
M  V30 1466 H 156.167 -0.671648 0.0765792 0
M  V30 1467 H 158.721 -1.86312 0.864695 0
M  V30 1468 H 156.951 -3.77758 -0.826803 0
M  V30 1469 H 158.64 -4.02909 -0.491849 0
M  V30 1470 H 159.406 -4.43728 1.95781 0
M  V30 1471 H 155.285 -4.55073 0.736853 0
M  V30 1472 H 158.829 -5.72773 3.98217 0
M  V30 1473 H 154.726 -5.83872 2.75251 0
M  V30 1474 H 155.494 -6.76217 4.61164 0
M  V30 1475 N 158.157 -0.370918 -1.53173 0
M  V30 1476 C 159.406 0.218249 -2.00516 0
M  V30 1477 C 159.719 1.49429 -1.26215 0
M  V30 1478 O 160.925 2.16239 -1.64174 0
M  V30 1479 C 159.381 0.43948 -3.57207 0
M  V30 1480 C 158.989 -0.822244 -4.4039 0
M  V30 1481 C 160.733 0.986012 -4.1289 0
M  V30 1482 C 158.64 -0.570304 -5.88644 0
M  V30 1483 H 157.57 0.0853333 -0.749156 0
M  V30 1484 H 160.221 -0.490483 -1.76823 0
M  V30 1485 H 158.603 1.20961 -3.77074 0
M  V30 1486 H 159.777 -1.59557 -4.32294 0
M  V30 1487 H 158.092 -1.29238 -3.95836 0
M  V30 1488 H 160.689 1.18991 -5.21292 0
M  V30 1489 H 161.032 1.94972 -3.6782 0
M  V30 1490 H 161.565 0.27592 -3.96842 0
M  V30 1491 H 158.304 -1.50449 -6.38001 0
M  V30 1492 H 157.824 0.164427 -5.99575 0
M  V30 1493 H 159.503 -0.19784 -6.46697 0
M  V30 1494 N 159.635 1.57281 -0.100228 0
M  V30 1495 C 160.583 2.15542 0.874328 0
M  V30 1496 C 161.577 1.09962 1.28859 0
M  V30 1497 O 162.783 1.28298 1.26252 0
M  V30 1498 H 159.158 0.689567 0.300003 0
M  V30 1499 H 161.129 2.96241 0.35829 0
M  V30 1500 C 159.878 2.75454 2.1218 0
M  V30 1501 H 159.201 3.56384 1.81193 0
M  V30 1502 H 160.641 3.19781 2.78417 0
M  V30 1503 C 159.1 1.71602 2.89921 0
M  V30 1504 O 159.63 1.15804 3.84646 0
M  V30 1505 N 157.836 1.41975 2.53558 0
M  V30 1506 H 157.383 1.87539 1.76598 0
M  V30 1507 H 157.341 0.727274 3.05873 0
M  V30 1508 N 161.113 -0.173488 1.56642 0
M  V30 1509 C 162.362 -0.888758 1.81063 0
M  V30 1510 C 162.675 -1.83506 0.67712 0
M  V30 1511 O 163.881 -2.59254 0.806206 0
M  V30 1512 C 162.337 -1.63091 3.20826 0
M  V30 1513 C 161.945 -0.728357 4.4204 0
M  V30 1514 C 163.689 -2.33454 3.54541 0
M  V30 1515 C 161.596 -1.47062 5.72823 0
M  V30 1516 H 160.526 -0.335618 0.675186 0
M  V30 1517 H 163.177 -0.141712 1.82952 0
M  V30 1518 H 161.559 -2.42263 3.13248 0
M  V30 1519 H 162.733 0.0262449 4.60793 0
M  V30 1520 H 161.048 -0.134492 4.16183 0
M  V30 1521 H 163.645 -2.89578 4.49498 0
M  V30 1522 H 163.988 -3.08687 2.79317 0
M  V30 1523 H 164.521 -1.61227 3.63663 0
M  V30 1524 H 161.26 -0.760658 6.51072 0
M  V30 1525 H 160.78 -2.1986 5.58052 0
M  V30 1526 H 162.459 -2.01868 6.14702 0
M  V30 1527 N 162.591 -1.51276 -0.441967 0
M  V30 1528 C 163.84 -1.6295 -1.18871 0
M  V30 1529 C 164.153 -0.349312 -1.92456 0
M  V30 1530 O 165.359 -0.345355 -2.69295 0
M  V30 1531 C 163.815 -2.87759 -2.16155 0
M  V30 1532 C 163.423 -4.22764 -1.48239 0
M  V30 1533 C 165.167 -3.08788 -2.91291 0
M  V30 1534 C 163.074 -5.38728 -2.4398 0
M  V30 1535 H 162.004 -0.606913 -0.447406 0
M  V30 1536 H 164.655 -1.77739 -0.456205 0
M  V30 1537 H 163.037 -2.66593 -2.92821 0
M  V30 1538 H 164.211 -4.54293 -0.771635 0
M  V30 1539 H 162.526 -4.07575 -0.852741 0
M  V30 1540 H 165.123 -3.92599 -3.63002 0
M  V30 1541 H 165.466 -2.21679 -3.5237 0
M  V30 1542 H 165.999 -3.30272 -2.21733 0
M  V30 1543 H 162.738 -6.28082 -1.87598 0
M  V30 1544 H 162.258 -5.1158 -3.13123 0
M  V30 1545 H 163.937 -5.70489 -3.05207 0
M  V30 1546 N 164.069 0.697108 -1.41344 0
M  V30 1547 C 165.002 1.82134 -1.37486 0
M  V30 1548 C 165.98 1.60784 -0.242351 0
M  V30 1549 O 167.164 1.83553 -0.429012 0
M  V30 1550 C 164.291 3.18788 -1.14421 0
M  V30 1551 C 163.337 3.58932 -2.3037 0
M  V30 1552 S 164.17 3.63916 -3.92843 0
M  V30 1553 C 165.326 5.03298 -3.72078 0
M  V30 1554 H 165.559 1.85129 -2.32625 0
M  V30 1555 H 163.092 0.865671 -1.2785 0
M  V30 1556 H 165.05 3.97677 -1.018 0
M  V30 1557 H 163.711 3.13404 -0.20905 0
M  V30 1558 H 162.904 4.58202 -2.09922 0
M  V30 1559 H 162.506 2.87347 -2.39391 0
M  V30 1560 H 164.798 5.90753 -3.31688 0
M  V30 1561 H 165.741 5.28788 -4.70945 0
M  V30 1562 H 166.149 4.74764 -3.05384 0
M  V30 1563 N 165.547 1.27147 0.931209 0
M  V30 1564 C 166.958 1.12044 1.49342 0
M  V30 1565 C 167.309 -0.295795 1.93957 0
M  V30 1566 O 166.434 -1.18835 1.80852 0
M  V30 1567 C 167.029 2.02781 2.71414 0
M  V30 1568 C 165.588 1.91794 3.2387 0
M  V30 1569 C 164.735 1.95543 1.96617 0
M  V30 1570 H 167.686 1.40091 0.745672 0
M  V30 1571 H 167.707 1.58156 3.46074 0
M  V30 1572 H 167.219 3.05848 2.38911 0
M  V30 1573 H 165.32 0.916992 3.6114 0
M  V30 1574 H 165.433 2.77852 3.90302 0
M  V30 1575 H 163.797 1.39722 2.12955 0
M  V30 1576 H 164.58 3.00259 1.66432 0
M  V30 1577 N 167.025 -1.13721 1.09112 0
M  V30 1578 C 168.25 -1.89314 0.847053 0
M  V30 1579 C 168.675 -1.78416 -0.595774 0
M  V30 1580 O 168.033 -1.12942 -1.41823 0
M  V30 1581 C 168.081 -3.3701 1.28284 0
M  V30 1582 O 167.185 -4.10054 0.439267 0
M  V30 1583 H 166.526 -0.588745 0.307044 0
M  V30 1584 H 169.056 -1.43902 1.45442 0
M  V30 1585 H 169.066 -3.87834 1.26683 0
M  V30 1586 H 167.741 -3.4426 2.33363 0
M  V30 1587 H 166.318 -3.69266 0.519312 0
M  V30 1588 N 168.503 -0.877838 -1.30888 0
M  V30 1589 C 169.749 -0.493426 -1.96706 0
M  V30 1590 C 170.082 0.953504 -1.6918 0
M  V30 1591 O 169.357 1.67266 -0.992594 0
M  V30 1592 C 169.64 -0.760429 -3.51979 0
M  V30 1593 C 169.493 -2.25747 -3.89048 0
M  V30 1594 C 170.812 -0.232148 -4.39487 0
M  V30 1595 H 167.931 -0.180746 -0.714493 0
M  V30 1596 H 170.573 -1.10052 -1.54882 0
M  V30 1597 H 168.723 -0.243715 -3.87735 0
M  V30 1598 H 170.395 -2.84204 -3.63354 0
M  V30 1599 H 168.638 -2.72694 -3.37373 0
M  V30 1600 H 169.309 -2.39491 -4.97341 0
M  V30 1601 H 171.785 -0.674314 -4.106 0
M  V30 1602 H 170.661 -0.448355 -5.47066 0
M  V30 1603 H 170.922 0.866297 -4.33529 0
M  V30 1604 N 169.982 1.44106 -0.638065 0
M  V30 1605 C 171.229 2.01978 -0.14533 0
M  V30 1606 C 171.557 1.50234 1.23532 0
M  V30 1607 O 170.812 0.679548 1.83523 0
M  V30 1608 C 171.111 3.5729 -0.0887327 0
M  V30 1609 C 170.777 4.28317 -1.40909 0
M  V30 1610 C 169.439 4.47437 -1.77069 0
M  V30 1611 C 171.791 4.6867 -2.28031 0
M  V30 1612 C 169.119 5.04171 -3.00047 0
M  V30 1613 C 171.471 5.26766 -3.50286 0
M  V30 1614 C 170.135 5.44104 -3.86661 0
M  V30 1615 H 169.405 0.739089 -0.0531801 0
M  V30 1616 H 172.052 1.72781 -0.825761 0
M  V30 1617 H 170.357 3.8594 0.675095 0
M  V30 1618 H 172.054 3.99807 0.309145 0
M  V30 1619 H 168.644 4.1377 -1.1177 0
M  V30 1620 H 172.828 4.53604 -2.01388 0
M  V30 1621 H 168.084 5.15782 -3.28298 0
M  V30 1622 H 172.258 5.56983 -4.18023 0
M  V30 1623 H 169.885 5.87832 -4.82034 0
M  V30 1624 N 171.46 0.379036 1.52974 0
M  V30 1625 C 172.708 -0.206014 2.01047 0
M  V30 1626 C 173.029 -1.48175 1.26765 0
M  V30 1627 O 172.299 -1.92085 0.384743 0
M  V30 1628 H 170.879 -0.0791184 0.742798 0
M  V30 1629 H 173.541 0.508366 1.88153 0
M  V30 1630 H 172.637 -0.423501 3.09213 0
M  V30 1631 N 172.938 -1.57226 0.108567 0
M  V30 1632 C 174.166 -1.99179 -0.559954 0
M  V30 1633 C 174.581 -0.988022 -1.60884 0
M  V30 1634 O 173.938 0.0205512 -1.82488 0
M  V30 1635 C 173.989 -3.41159 -1.19552 0
M  V30 1636 O 173.71 -4.37694 -0.188577 0
M  V30 1637 C 175.211 -3.98188 -1.94837 0
M  V30 1638 H 172.431 -0.654228 -0.149088 0
M  V30 1639 H 174.975 -2.03598 0.19183 0
M  V30 1640 H 173.13 -3.37711 -1.89815 0
M  V30 1641 H 173.544 -5.20469 -0.649014 0
M  V30 1642 H 175.018 -4.99644 -2.34648 0
M  V30 1643 H 175.495 -3.3675 -2.81951 0
M  V30 1644 H 176.101 -4.0515 -1.2936 0
M  V30 1645 N 174.416 0.165178 -1.56732 0
M  V30 1646 C 175.665 0.879143 -1.81532 0
M  V30 1647 C 175.978 1.83144 -0.686842 0
M  V30 1648 O 177.184 2.58823 -0.819944 0
M  V30 1649 C 175.64 1.61388 -3.21686 0
M  V30 1650 C 175.248 0.704904 -4.4242 0
M  V30 1651 C 176.992 2.3157 -3.55774 0
M  V30 1652 C 174.899 1.44022 -5.73595 0
M  V30 1653 H 173.829 0.332033 -0.676957 0
M  V30 1654 H 176.48 0.132008 -1.83025 0
M  V30 1655 H 174.862 2.40599 -3.14529 0
M  V30 1656 H 176.036 -0.0506815 -4.60772 0
M  V30 1657 H 174.351 0.112419 -4.16248 0
M  V30 1658 H 176.948 2.8719 -4.51028 0
M  V30 1659 H 177.291 3.07201 -2.8095 0
M  V30 1660 H 177.824 1.59297 -3.64513 0
M  V30 1661 H 174.563 0.72612 -6.51466 0
M  V30 1662 H 174.083 2.16898 -5.5921 0
M  V30 1663 H 175.762 1.98606 -6.15764 0
M  V30 1664 N 175.894 1.51508 0.433938 0
M  V30 1665 C 177.134 1.66006 1.19253 0
M  V30 1666 C 177.498 0.369868 1.88404 0
M  V30 1667 O 178.699 0.39066 2.65946 0
M  V30 1668 C 176.97 2.83229 2.17981 0
M  V30 1669 S 178.529 3.18075 3.02281 0
M  V30 1670 H 175.347 0.584821 0.404358 0
M  V30 1671 H 177.949 1.89425 0.48357 0
M  V30 1672 H 176.653 3.75407 1.65824 0
M  V30 1673 H 176.184 2.6201 2.93453 0
M  V30 1674 H 178.199 2.64772 4.19655 0
M  V30 1675 N 177.372 -0.689602 1.41712 0
M  V30 1676 C 178.302 -1.81577 1.46806 0
M  V30 1677 C 179.283 -1.66945 0.326105 0
M  V30 1678 O 180.468 -1.86588 0.538377 0
M  V30 1679 C 177.598 -3.19762 1.35535 0
M  V30 1680 C 176.552 -3.49107 2.47605 0
M  V30 1681 C 175.878 -4.86711 2.21397 0
M  V30 1682 C 177.178 -3.47483 3.89939 0
M  V30 1683 H 178.872 -1.7757 2.41058 0
M  V30 1684 H 176.418 -0.852887 1.16025 0
M  V30 1685 H 178.371 -3.98263 1.3771 0
M  V30 1686 H 177.095 -3.24409 0.377708 0
M  V30 1687 H 175.754 -2.72959 2.44722 0
M  V30 1688 H 175.402 -4.8799 1.21961 0
M  V30 1689 H 175.102 -5.0731 2.96497 0
M  V30 1690 H 176.626 -5.67515 2.25297 0
M  V30 1691 H 178.04 -4.1598 3.94505 0
M  V30 1692 H 176.437 -3.79615 4.64771 0
M  V30 1693 H 177.507 -2.46341 4.17665 0
M  V30 1694 N 178.85 -1.27639 -0.924453 0
M  V30 1695 C 179.78 -1.13166 -2.04244 0
M  V30 1696 C 180.761 -0.032256 -1.70069 0
M  V30 1697 O 181.946 -0.207328 -1.9309 0
M  V30 1698 C 179.076 -0.781496 -3.38393 0
M  V30 1699 C 178.03 -1.83449 -3.86692 0
M  V30 1700 C 177.356 -1.33822 -5.17683 0
M  V30 1701 C 178.656 -3.23917 -4.09726 0
M  V30 1702 H 180.35 -2.06689 -2.1661 0
M  V30 1703 H 177.896 -0.995136 -1.04082 0
M  V30 1704 H 179.849 -0.667057 -4.16087 0
M  V30 1705 H 178.573 0.189439 -3.2605 0
M  V30 1706 H 177.232 -1.93789 -3.11193 0
M  V30 1707 H 176.88 -0.35665 -5.01734 0
M  V30 1708 H 176.58 -2.04224 -5.50968 0
M  V30 1709 H 178.104 -1.23679 -5.97943 0
M  V30 1710 H 179.518 -3.16559 -4.77978 0
M  V30 1711 H 177.915 -3.92059 -4.54324 0
M  V30 1712 H 178.985 -3.68729 -3.14908 0
M  V30 1713 N 180.328 1.1314 -1.09713 0
M  V30 1714 C 181.576 1.84119 -0.833338 0
M  V30 1715 C 181.897 1.84097 0.642904 0
M  V30 1716 O 181.167 1.29881 1.46655 0
M  V30 1717 H 179.747 0.681766 -0.305293 0
M  V30 1718 H 182.409 1.37038 -1.38588 0
M  V30 1719 H 181.505 2.88543 -1.18951 0
M  V30 1720 N 181.806 0.884767 1.30421 0
M  V30 1721 C 183.055 0.499164 1.95426 0
M  V30 1722 C 183.368 -0.95645 1.70621 0
M  V30 1723 O 184.574 -1.44889 2.29607 0
M  V30 1724 C 183.03 0.84177 3.49917 0
M  V30 1725 C 182.638 2.31514 3.83543 0
M  V30 1726 C 184.382 0.525355 4.21237 0
M  V30 1727 C 182.289 2.59939 5.31212 0
M  V30 1728 H 181.219 0.182944 0.73147 0
M  V30 1729 H 183.87 1.07971 1.48373 0
M  V30 1730 H 182.252 0.190311 3.95542 0
M  V30 1731 H 183.426 3.0109 3.48829 0
M  V30 1732 H 181.741 2.59907 3.25326 0
M  V30 1733 H 184.338 0.714762 5.29901 0
M  V30 1734 H 184.681 -0.535222 4.12845 0
M  V30 1735 H 185.214 1.134 3.81294 0
M  V30 1736 H 181.953 3.64736 5.44654 0
M  V30 1737 H 181.473 1.94972 5.67227 0
M  V30 1738 H 183.152 2.45429 5.98643 0
M  V30 1739 N 183.284 -1.43765 0.645699 0
M  V30 1740 C 184.533 -2.01116 0.153412 0
M  V30 1741 C 184.846 -1.51493 -1.23731 0
M  V30 1742 O 186.052 -2.01067 -1.8244 0
M  V30 1743 C 184.508 -3.59206 0.223473 0
M  V30 1744 C 184.116 -4.17823 1.61642 0
M  V30 1745 C 185.86 -4.23972 -0.211597 0
M  V30 1746 C 183.767 -5.68183 1.64081 0
M  V30 1747 H 182.697 -0.752093 0.0535891 0
M  V30 1748 H 185.348 -1.6482 0.806633 0
M  V30 1749 H 183.73 -3.92867 -0.497118 0
M  V30 1750 H 184.904 -3.95674 2.36176 0
M  V30 1751 H 183.219 -3.65399 1.99681 0
M  V30 1752 H 185.816 -5.34275 -0.213112 0
M  V30 1753 H 186.159 -3.97352 -1.24165 0
M  V30 1754 H 186.692 -3.95166 0.456988 0
M  V30 1755 H 183.431 -5.99559 2.64971 0
M  V30 1756 H 182.951 -5.9241 0.938611 0
M  V30 1757 H 184.63 -6.32085 1.3812 0
M  V30 1758 N 184.763 -0.387143 -1.52771 0
M  V30 1759 C 186.011 0.195349 -2.01154 0
M  V30 1760 C 186.332 1.475 -1.27549 0
M  V30 1761 O 185.602 1.91878 -0.394924 0
M  V30 1762 H 184.182 0.075178 -0.743207 0
M  V30 1763 H 186.844 -0.518337 -1.87881 0
M  V30 1764 H 185.94 0.407096 -3.09434 0
M  V30 1765 N 186.241 1.57166 -0.116904 0
M  V30 1766 C 187.189 2.16457 0.851418 0
M  V30 1767 C 188.183 1.11323 1.27686 0
M  V30 1768 O 189.389 1.2963 1.24884 0
M  V30 1769 H 185.764 0.69271 0.292672 0
M  V30 1770 H 187.735 2.96605 0.32685 0
M  V30 1771 C 186.484 2.77689 2.09246 0
M  V30 1772 H 185.807 3.58285 1.77402 0
M  V30 1773 H 187.247 3.22716 2.7501 0
M  V30 1774 C 185.706 1.74667 2.88085 0
M  V30 1775 O 186.236 1.19877 3.83396 0
M  V30 1776 N 184.442 1.44656 2.52038 0
M  V30 1777 H 183.989 1.89402 1.74599 0
M  V30 1778 H 183.947 0.759675 3.05084 0
M  V30 1779 N 187.719 -0.156864 1.56817 0
M  V30 1780 C 188.944 -0.890331 1.87318 0
M  V30 1781 C 189.369 -1.74394 0.704855 0
M  V30 1782 O 188.727 -1.77972 -0.345786 0
M  V30 1783 C 188.775 -1.73102 3.16336 0
M  V30 1784 O 187.879 -2.83422 2.99576 0
M  V30 1785 H 187.22 -0.24857 0.615718 0
M  V30 1786 H 189.75 -0.150649 2.04045 0
M  V30 1787 H 189.76 -2.12803 3.48107 0
M  V30 1788 H 188.435 -1.10412 4.00976 0
M  V30 1789 H 187.012 -2.47199 2.7919 0
M  V30 1790 N 189.197 -1.51736 -0.425897 0
M  V30 1791 C 190.425 -1.68794 -1.1965 0
M  V30 1792 C 190.84 -0.390164 -1.84725 0
M  V30 1793 O 190.197 0.632376 -1.71194 0
M  V30 1794 C 190.248 -2.81174 -2.27208 0
M  V30 1795 O 189.969 -4.05925 -1.64793 0
M  V30 1796 C 191.47 -3.09599 -3.17275 0
M  V30 1797 H 188.69 -0.566128 -0.360194 0
M  V30 1798 H 191.234 -1.98211 -0.503249 0
M  V30 1799 H 189.389 -2.54324 -2.9223 0
M  V30 1800 H 189.803 -4.68423 -2.35967 0
M  V30 1801 H 191.277 -3.91786 -3.88854 0
M  V30 1802 H 191.754 -2.22468 -3.78688 0
M  V30 1803 H 192.36 -3.38151 -2.57941 0
M  V30 1804 N 190.675 0.682077 -1.42076 0
M  V30 1805 C 191.921 1.44428 -1.42367 0
M  V30 1806 C 192.254 1.94164 -0.0373056 0
M  V30 1807 O 191.529 1.70429 0.937239 0
M  V30 1808 C 191.812 2.64654 -2.44194 0
M  V30 1809 C 191.665 2.20596 -3.91991 0
M  V30 1810 C 192.984 3.66865 -2.431 0
M  V30 1811 H 190.103 0.523834 -0.518428 0
M  V30 1812 H 192.745 0.77576 -1.73442 0
M  V30 1813 H 190.895 3.2169 -2.17826 0
M  V30 1814 H 192.567 1.68783 -4.29313 0
M  V30 1815 H 190.81 1.52242 -4.06208 0
M  V30 1816 H 191.481 3.06921 -4.58807 0
M  V30 1817 H 193.957 3.19531 -2.66532 0
M  V30 1818 H 192.833 4.48577 -3.16339 0
M  V30 1819 H 193.094 4.17493 -1.45437 0
M  V30 1820 N 192.153 1.28127 0.917671 0
M  V30 1821 C 193.402 1.14432 1.66097 0
M  V30 1822 C 193.715 -0.307247 1.93172 0
M  V30 1823 O 194.921 -0.565259 2.65551 0
M  V30 1824 C 193.377 2.00015 2.99202 0
M  V30 1825 C 192.985 3.49889 2.79789 0
M  V30 1826 C 194.729 1.94996 3.77064 0
M  V30 1827 C 192.636 4.27636 4.08511 0
M  V30 1828 H 191.566 0.424662 0.62304 0
M  V30 1829 H 194.217 1.52628 1.01868 0
M  V30 1830 H 192.599 1.54672 3.64544 0
M  V30 1831 H 193.773 4.03162 2.23152 0
M  V30 1832 H 192.088 3.56392 2.15345 0
M  V30 1833 H 194.685 2.50354 4.72469 0
M  V30 1834 H 195.028 0.925819 4.05875 0
M  V30 1835 H 195.561 2.38287 3.18534 0
M  V30 1836 H 192.3 5.30615 3.84874 0
M  V30 1837 H 191.82 3.79137 4.64774 0
M  V30 1838 H 193.499 4.37346 4.76799 0
M  V30 1839 N 193.631 -1.12557 1.10312 0
M  V30 1840 C 194.878 -1.84038 0.844759 0
M  V30 1841 C 195.206 -1.84026 -0.629668 0
M  V30 1842 O 194.461 -1.28026 -1.48013 0
M  V30 1843 C 194.76 -3.31462 1.33669 0
M  V30 1844 C 194.426 -3.51647 2.82232 0
M  V30 1845 C 193.088 -3.56864 3.22802 0
M  V30 1846 C 195.44 -3.58867 3.77974 0
M  V30 1847 C 192.768 -3.66844 4.57867 0
M  V30 1848 C 195.12 -3.70375 5.1284 0
M  V30 1849 C 193.784 -3.73848 5.52986 0
M  V30 1850 H 193.054 -0.673444 0.309119 0
M  V30 1851 H 195.701 -1.32824 1.37949 0
M  V30 1852 H 194.006 -3.85091 0.721949 0
M  V30 1853 H 195.703 -3.85236 1.11329 0
M  V30 1854 H 192.293 -3.48249 2.49842 0
M  V30 1855 H 196.477 -3.54107 3.47738 0
M  V30 1856 H 191.733 -3.67804 4.88396 0
M  V30 1857 H 195.907 -3.74904 5.86873 0
M  V30 1858 H 193.534 -3.81333 6.57639 0
M  V30 1859 N 195.109 -0.891671 -1.2995 0
M  V30 1860 C 196.072 -0.36828 -2.26222 0
M  V30 1861 C 197.072 0.493014 -1.53056 0
M  V30 1862 O 198.262 0.299213 -1.71611 0
M  V30 1863 C 195.394 0.47442 -3.37583 0
M  V30 1864 H 196.587 -1.21844 -2.74033 0
M  V30 1865 H 194.14 -0.669107 -1.41254 0
M  V30 1866 H 194.875 1.34489 -2.95099 0
M  V30 1867 H 194.66 -0.142615 -3.91841 0
M  V30 1868 H 196.15 0.83218 -4.09224 0
M  V30 1869 N 196.587 1.43421 -0.653314 0
M  V30 1870 C 197.833 2.02111 -0.166992 0
M  V30 1871 C 198.166 1.51423 1.21592 0
M  V30 1872 O 197.441 0.707389 1.8118 0
M  V30 1873 C 197.724 3.5966 -0.177948 0
M  V30 1874 C 197.577 4.20579 -1.59478 0
M  V30 1875 C 198.896 4.37413 0.4856 0
M  V30 1876 H 196.015 0.734374 -0.0621557 0
M  V30 1877 H 198.657 1.70717 -0.834016 0
M  V30 1878 H 196.807 3.86537 0.390032 0
M  V30 1879 H 198.479 4.04732 -2.21336 0
M  V30 1880 H 196.722 3.77226 -2.14204 0
M  V30 1881 H 197.393 5.29665 -1.5543 0
M  V30 1882 H 199.869 4.161 0.00234528 0
M  V30 1883 H 198.745 5.47075 0.447207 0
M  V30 1884 H 199.006 4.13672 1.55974 0
M  V30 1885 N 198.065 0.39524 1.52563 0
M  V30 1886 C 199.311 -0.185318 2.01952 0
M  V30 1887 C 199.644 -1.45964 1.28095 0
M  V30 1888 O 198.919 -1.90689 0.38315 0
M  V30 1889 C 199.202 -0.447193 3.57312 0
M  V30 1890 C 199.055 0.842828 4.41833 0
M  V30 1891 C 200.374 -1.23529 4.22408 0
M  V30 1892 H 197.493 -0.0658788 0.73405 0
M  V30 1893 H 200.135 0.525975 1.82575 0
M  V30 1894 H 198.285 -1.05312 3.73954 0
M  V30 1895 H 199.957 1.4795 4.36931 0
M  V30 1896 H 198.2 1.45686 4.08605 0
M  V30 1897 H 198.871 0.614165 5.48573 0
M  V30 1898 H 201.347 -0.722445 4.0978 0
M  V30 1899 H 200.223 -1.38727 5.3108 0
M  V30 1900 H 200.484 -2.25213 3.80436 0
M  V30 1901 N 199.544 -1.57102 0.125237 0
M  V30 1902 C 200.491 -2.15641 -0.822655 0
M  V30 1903 C 201.461 -1.08313 -1.25927 0
M  V30 1904 O 202.646 -1.36251 -1.33567 0
M  V30 1905 C 199.786 -2.76504 -2.06494 0
M  V30 1906 C 198.899 -3.98158 -1.67612 0
M  V30 1907 C 198.034 -4.47088 -2.86854 0
M  V30 1908 C 197.073 -5.6126 -2.44242 0
M  V30 1909 N 196.21 -6.04905 -3.56419 0
M  V30 1910 H 201.05 -2.96313 -0.316625 0
M  V30 1911 H 198.587 -1.46388 -0.144588 0
M  V30 1912 H 200.545 -3.09925 -2.79289 0
M  V30 1913 H 199.175 -1.98512 -2.54545 0
M  V30 1914 H 198.227 -3.70858 -0.846661 0
M  V30 1915 H 199.539 -4.80934 -1.32301 0
M  V30 1916 H 198.693 -4.82451 -3.67867 0
M  V30 1917 H 197.432 -3.63275 -3.25396 0
M  V30 1918 H 196.437 -5.25495 -1.61663 0
M  V30 1919 H 197.662 -6.46843 -2.0681 0
M  V30 1920 H 195.608 -5.24032 -3.94623 0
M  V30 1921 H 195.525 -6.82552 -3.25051 0
M  V30 1922 H 196.793 -6.44907 -4.37853 0
M  V30 1923 N 201.022 0.148545 -1.56898 0
M  V30 1924 C 201.969 1.18345 -1.98149 0
M  V30 1925 C 202.939 1.42772 -0.848848 0
M  V30 1926 O 204.124 1.55132 -1.11079 0
M  V30 1927 C 201.264 2.51231 -2.36594 0
M  V30 1928 C 200.377 2.33991 -3.63142 0
M  V30 1929 C 199.512 3.59902 -3.90697 0
M  V30 1930 C 198.551 3.37692 -5.1052 0
M  V30 1931 N 197.688 4.5573 -5.34092 0
M  V30 1932 H 202.528 0.82467 -2.86362 0
M  V30 1933 H 200.065 0.395756 -1.41676 0
M  V30 1934 H 202.023 3.28713 -2.56912 0
M  V30 1935 H 200.653 2.85059 -1.51463 0
M  V30 1936 H 199.705 1.47572 -3.50609 0
M  V30 1937 H 201.017 2.13539 -4.5078 0
M  V30 1938 H 200.171 4.45813 -4.11505 0
M  V30 1939 H 198.91 3.83357 -3.01477 0
M  V30 1940 H 197.915 2.5017 -4.89587 0
M  V30 1941 H 199.14 3.15637 -6.0129 0
M  V30 1942 H 197.086 4.79361 -4.47827 0
M  V30 1943 H 197.003 4.38274 -6.15996 0
M  V30 1944 H 198.271 5.42858 -5.59397 0
M  V30 1945 N 202.5 1.5196 0.417844 0
M  V30 1946 C 203.725 1.69717 1.1921 0
M  V30 1947 C 204.15 0.402148 1.83751 0
M  V30 1948 O 203.508 -0.639593 1.69643 0
M  V30 1949 C 203.556 2.82794 2.2374 0
M  V30 1950 O 202.66 2.47756 3.29683 0
M  V30 1951 H 202.001 0.565263 0.348387 0
M  V30 1952 H 204.531 1.98621 0.490985 0
M  V30 1953 H 204.541 3.07452 2.68212 0
M  V30 1954 H 203.216 3.76756 1.76146 0
M  V30 1955 H 201.793 2.33739 2.90552 0
M  V30 1956 N 203.978 -0.674533 1.42435 0
M  V30 1957 C 204.925 -1.78807 1.45934 0
M  V30 1958 C 205.895 -1.63157 0.311271 0
M  V30 1959 O 207.08 -1.83707 0.515383 0
M  V30 1960 C 204.22 -3.16839 1.36773 0
M  V30 1961 C 203.333 -3.43774 2.61617 0
M  V30 1962 C 202.468 -4.71536 2.44597 0
M  V30 1963 C 201.507 -4.91505 3.64814 0
M  V30 1964 N 200.644 -6.10508 3.46734 0
M  V30 1965 H 205.484 -1.75151 2.41093 0
M  V30 1966 H 203.021 -0.85504 1.19697 0
M  V30 1967 H 204.979 -3.96606 1.29459 0
M  V30 1968 H 203.609 -3.19619 0.452089 0
M  V30 1969 H 202.661 -2.58259 2.79297 0
M  V30 1970 H 203.973 -3.54423 3.50978 0
M  V30 1971 H 203.127 -5.59393 2.3487 0
M  V30 1972 H 201.866 -4.6317 1.52726 0
M  V30 1973 H 200.871 -4.0209 3.74972 0
M  V30 1974 H 202.096 -5.01716 4.57665 0
M  V30 1975 H 200.042 -6.03315 2.5758 0
M  V30 1976 H 199.959 -6.2202 4.29682 0
M  V30 1977 H 201.227 -7.01044 3.40819 0
M  V30 1978 N 205.456 -1.28612 -0.910864 0
M  V30 1979 C 206.386 -1.15326 -2.03032 0
M  V30 1980 C 207.367 -0.0502924 -1.70026 0
M  V30 1981 O 208.552 -0.227797 -1.92859 0
M  V30 1982 C 205.682 -0.817343 -3.37545 0
M  V30 1983 C 204.636 -1.8754 -3.84724 0
M  V30 1984 C 203.962 -1.39305 -5.16235 0
M  V30 1985 C 205.262 -3.28244 -4.06267 0
M  V30 1986 H 206.956 -2.08975 -2.14406 0
M  V30 1987 H 204.502 -1.00612 -1.03021 0
M  V30 1988 H 206.455 -0.711151 -4.15356 0
M  V30 1989 H 205.179 0.154846 -3.26233 0
M  V30 1990 H 203.838 -1.97079 -3.09121 0
M  V30 1991 H 203.486 -0.409846 -5.01328 0
M  V30 1992 H 203.186 -2.10057 -5.48771 0
M  V30 1993 H 204.71 -1.30014 -5.96598 0
M  V30 1994 H 206.124 -3.21611 -4.74594 0
M  V30 1995 H 204.521 -3.96855 -4.5014 0
M  V30 1996 H 205.591 -3.72048 -3.10979 0
M  V30 1997 N 206.934 1.1197 -1.10907 0
M  V30 1998 C 207.884 2.15946 -0.731538 0
M  V30 1999 C 208.868 1.58758 0.261699 0
M  V30 2000 O 210.06 1.76863 0.0696722 0
M  V30 2001 C 207.189 3.42877 -0.170299 0
M  V30 2002 C 206.275 4.07037 -1.19087 0
M  V30 2003 N 206.666 4.46135 -2.38322 0
M  V30 2004 C 204.964 4.33884 -1.03252 0
M  V30 2005 C 205.665 4.96331 -3.03366 0
M  V30 2006 N 204.641 4.9214 -2.30865 0
M  V30 2007 H 208.443 2.43947 -1.63912 0
M  V30 2008 H 205.957 1.28927 -0.987505 0
M  V30 2009 H 207.954 4.16732 0.118271 0
M  V30 2010 H 206.614 3.16343 0.731935 0
M  V30 2011 H 207.625 4.38345 -2.75815 0
M  V30 2012 H 204.302 4.17084 -0.186256 0
M  V30 2013 H 205.692 5.36257 -4.04818 0
M  V30 2014 N 208.412 0.89855 1.29475 0
M  V30 2015 C 209.658 0.534065 1.96263 0
M  V30 2016 C 210.013 -0.909415 1.69551 0
M  V30 2017 O 209.306 -1.63596 0.997349 0
M  V30 2018 C 209.5 0.761398 3.49195 0
M  V30 2019 C 209.329 2.22542 3.90775 0
M  V30 2020 C 208.099 2.87264 4.15701 0
M  V30 2021 C 210.297 3.20051 4.02581 0
M  V30 2022 N 208.279 4.24121 4.4384 0
M  V30 2023 C 209.65 4.42023 4.34759 0
M  V30 2024 C 211.705 3.15657 3.85052 0
M  V30 2025 C 210.408 5.60161 4.51235 0
M  V30 2026 C 212.434 4.33078 4.02737 0
M  V30 2027 C 211.796 5.5382 4.35273 0
M  V30 2028 H 207.895 0.245013 0.742625 0
M  V30 2029 H 210.479 1.15912 1.56437 0
M  V30 2030 H 208.65 0.165732 3.88046 0
M  V30 2031 H 210.382 0.362462 4.03074 0
M  V30 2032 H 207.137 2.38064 4.09417 0
M  V30 2033 H 207.561 4.94839 4.6202 0
M  V30 2034 H 212.203 2.23396 3.58962 0
M  V30 2035 H 209.921 6.52913 4.76162 0
M  V30 2036 H 213.507 4.31163 3.90628 0
M  V30 2037 H 212.387 6.43166 4.48672 0
M  V30 2038 N 209.89 -1.43072 0.660911 0
M  V30 2039 C 211.13 -2.03596 0.181146 0
M  V30 2040 C 211.494 -1.51057 -1.18515 0
M  V30 2041 O 212.695 -2.03275 -1.75877 0
M  V30 2042 C 210.966 -3.56845 0.19911 0
M  V30 2043 S 212.525 -4.38289 -0.211684 0
M  V30 2044 H 209.343 -0.706954 0.0757479 0
M  V30 2045 H 211.945 -1.75027 0.870965 0
M  V30 2046 H 210.649 -3.92583 1.1961 0
M  V30 2047 H 210.18 -3.90067 -0.510996 0
M  V30 2048 H 212.195 -4.74583 -1.44863 0
M  V30 2049 N 211.368 -0.403325 -1.52352 0
M  V30 2050 C 212.316 0.439752 -2.28405 0
M  V30 2051 C 213.31 1.05089 -1.32863 0
M  V30 2052 O 214.516 0.989759 -1.50345 0
M  V30 2053 H 210.891 0.160587 -0.734653 0
M  V30 2054 H 212.862 -0.222983 -2.97566 0
M  V30 2055 C 211.611 1.54736 -3.11371 0
M  V30 2056 H 210.934 1.08643 -3.84755 0
M  V30 2057 H 212.374 2.1112 -3.67701 0
M  V30 2058 C 210.833 2.51141 -2.24566 0
M  V30 2059 O 211.363 3.54887 -1.88196 0
M  V30 2060 N 209.569 2.21213 -1.8845 0
M  V30 2061 H 209.116 1.36878 -2.18225 0
M  V30 2062 H 209.074 2.85963 -1.30662 0
M  V30 2063 N 212.846 1.57033 -0.133567 0
M  V30 2064 C 213.794 2.17348 0.828412 0
M  V30 2065 C 214.788 1.12671 1.26498 0
M  V30 2066 O 215.994 1.30947 1.23502 0
M  V30 2067 H 212.369 0.695775 0.285309 0
M  V30 2068 H 214.34 2.96935 0.295372 0
M  V30 2069 C 213.089 2.79893 2.06289 0
M  V30 2070 H 212.412 3.60147 1.73592 0
M  V30 2071 H 213.852 3.25615 2.71572 0
M  V30 2072 C 212.311 1.77713 2.86216 0
M  V30 2073 O 212.841 1.23937 3.82103 0
M  V30 2074 N 211.047 1.47321 2.50489 0
M  V30 2075 H 210.594 1.91243 1.7258 0
M  V30 2076 H 210.552 0.79199 3.04261 0
M  V30 2077 N 214.325 -0.140222 1.56975 0
M  V30 2078 C 215.571 -0.852949 1.83991 0
M  V30 2079 C 215.904 -1.80512 0.716187 0
M  V30 2080 O 215.179 -1.92479 -0.279681 0
M  V30 2081 C 215.462 -1.6215 3.21527 0
M  V30 2082 C 215.315 -0.690363 4.4447 0
M  V30 2083 C 216.634 -2.58247 3.56366 0
M  V30 2084 H 213.753 -0.308634 0.669264 0
M  V30 2085 H 216.395 -0.117898 1.89634 0
M  V30 2086 H 214.545 -2.24812 3.16847 0
M  V30 2087 H 216.217 -0.0742264 4.6124 0
M  V30 2088 H 214.46 -0.000396433 4.338 0
M  V30 2089 H 215.131 -1.2643 5.37326 0
M  V30 2090 H 217.607 -2.05701 3.61699 0
M  V30 2091 H 216.483 -3.09067 4.53617 0
M  V30 2092 H 216.744 -3.39923 2.82674 0
M  V30 2093 N 215.803 -1.52179 -0.40978 0
M  V30 2094 C 217.214 -1.58377 -0.988615 0
M  V30 2095 C 217.565 -0.423879 -1.91566 0
M  V30 2096 O 216.69 0.455844 -2.11544 0
M  V30 2097 C 217.285 -2.87044 -1.79976 0
M  V30 2098 C 215.844 -2.95722 -2.32863 0
M  V30 2099 C 214.991 -2.53309 -1.12828 0
M  V30 2100 H 217.942 -1.57558 -0.190039 0
M  V30 2101 H 217.963 -2.7236 -2.65707 0
M  V30 2102 H 217.475 -3.71444 -1.12478 0
M  V30 2103 H 215.576 -2.15814 -3.03735 0
M  V30 2104 H 215.689 -3.99951 -2.63773 0
M  V30 2105 H 214.053 -2.07142 -1.48204 0
M  V30 2106 H 214.836 -3.40082 -0.46897 0
M  V30 2107 N 217.281 0.66697 -1.42791 0
M  V30 2108 C 218.558 1.4234 -1.34159 0
M  V30 2109 C 218.938 2.11093 0.0172729 0
M  V30 2110 O 218.286 2.03808 1.03318 0
M  V30 2111 C 218.496 2.41942 -2.51526 0
M  V30 2112 C 219.844 3.06353 -2.93995 0
M  V30 2113 O 220.868 2.52269 -2.51473 0
M  V30 2114 O 219.727 4.04376 -3.67617 0
M  V30 2115 H 216.821 0.635277 -0.529483 0
M  V30 2116 H 219.367 0.695034 -1.54814 0
M  V30 2117 H 218.139 1.89991 -3.42081 0
M  V30 2118 H 217.762 3.22249 -2.32898 0
M  V30 2119 N 218.759 1.29093 0.90403 0
M  V30 2120 C 220.008 1.16187 1.64874 0
M  V30 2121 C 220.321 -0.286742 1.93487 0
M  V30 2122 O 221.527 -0.537062 2.66135 0
M  V30 2123 C 219.983 2.03177 2.97064 0
M  V30 2124 C 219.591 3.52836 2.76062 0
M  V30 2125 C 221.335 1.98984 3.74974 0
M  V30 2126 C 219.242 4.31945 4.03952 0
M  V30 2127 H 218.172 0.431246 0.618501 0
M  V30 2128 H 220.823 1.53699 1.00243 0
M  V30 2129 H 219.205 1.5853 3.62883 0
M  V30 2130 H 220.379 4.05507 2.18863 0
M  V30 2131 H 218.694 3.58656 2.11553 0
M  V30 2132 H 221.291 2.55351 4.69787 0
M  V30 2133 H 221.634 0.968815 4.0487 0
M  V30 2134 H 222.167 2.41652 3.15989 0
M  V30 2135 H 218.906 5.34667 3.79225 0
M  V30 2136 H 218.426 3.84045 4.60727 0
M  V30 2137 H 220.105 4.42379 4.72133 0
M  V30 2138 N 220.237 -1.11381 1.11499 0
M  V30 2139 C 221.484 -1.83132 0.864231 0
M  V30 2140 C 221.812 -1.84683 -0.610114 0
M  V30 2141 O 221.067 -1.29589 -1.46646 0
M  V30 2142 C 221.366 -3.30026 1.37177 0
M  V30 2143 C 221.032 -3.48634 2.85946 0
M  V30 2144 C 219.694 -3.53421 3.26569 0
M  V30 2145 C 222.046 -3.54837 3.81759 0
M  V30 2146 C 219.374 -3.61967 4.61733 0
M  V30 2147 C 221.726 -3.64915 5.1674 0
M  V30 2148 C 220.39 -3.67962 5.5692 0
M  V30 2149 H 219.66 -0.670127 0.316245 0
M  V30 2150 H 222.307 -1.31354 1.3935 0
M  V30 2151 H 220.612 -3.84304 0.762753 0
M  V30 2152 H 222.309 -3.84034 1.15408 0
M  V30 2153 H 218.899 -3.45579 2.53521 0
M  V30 2154 H 223.083 -3.50399 3.51474 0
M  V30 2155 H 218.339 -3.62603 4.92269 0
M  V30 2156 H 222.513 -3.68658 5.90816 0
M  V30 2157 H 220.14 -3.74336 6.61647 0
M  V30 2158 N 221.715 -0.905404 -1.28997 0
M  V30 2159 C 222.964 -0.530191 -1.94607 0
M  V30 2160 C 223.277 0.929185 -1.72121 0
M  V30 2161 O 224.483 1.41218 -2.31883 0
M  V30 2162 C 222.939 -0.897333 -3.48534 0
M  V30 2163 C 222.547 -2.37587 -3.79811 0
M  V30 2164 C 224.291 -0.592304 -4.20347 0
M  V30 2165 C 222.198 -2.68357 -5.27009 0
M  V30 2166 H 221.128 -0.194558 -0.728466 0
M  V30 2167 H 223.779 -1.10318 -1.46636 0
M  V30 2168 H 222.161 -0.253214 -3.9519 0
M  V30 2169 H 223.335 -3.06602 -3.43994 0
M  V30 2170 H 221.65 -2.6505 -3.2115 0
M  V30 2171 H 224.247 -0.798975 -5.28697 0
M  V30 2172 H 224.59 0.469474 -4.13644 0
M  V30 2173 H 225.123 -1.19452 -3.79442 0
M  V30 2174 H 221.862 -3.73355 -5.38782 0
M  V30 2175 H 221.382 -2.03971 -5.64053 0
M  V30 2176 H 223.061 -2.54922 -5.94663 0
M  V30 2177 N 223.193 1.4272 -0.668489 0
M  V30 2178 C 224.442 2.00846 -0.185389 0
M  V30 2179 C 224.755 1.53442 1.21305 0
M  V30 2180 O 225.961 2.03944 1.79218 0
M  V30 2181 C 224.417 3.58805 -0.280591 0
M  V30 2182 C 224.025 4.15198 -1.68268 0
M  V30 2183 C 225.769 4.24255 0.14412 0
M  V30 2184 C 223.676 5.655 -1.73099 0
M  V30 2185 H 222.606 0.751145 -0.0655475 0
M  V30 2186 H 225.257 1.63516 -0.832752 0
M  V30 2187 H 223.639 3.93608 0.434553 0
M  V30 2188 H 224.813 3.91866 -2.42441 0
M  V30 2189 H 223.128 3.62176 -2.05469 0
M  V30 2190 H 225.725 5.34547 0.128086 0
M  V30 2191 H 226.068 3.99277 1.17827 0
M  V30 2192 H 226.601 3.94389 -0.519798 0
M  V30 2193 H 223.34 5.95268 -2.74475 0
M  V30 2194 H 222.86 5.90842 -1.03274 0
M  V30 2195 H 224.539 6.29808 -1.48158 0
M  V30 2196 N 224.671 0.411399 1.52136 0
M  V30 2197 C 225.619 -0.427633 2.28635 0
M  V30 2198 C 226.613 -1.04383 1.33419 0
M  V30 2199 O 227.819 -0.981772 1.50868 0
M  V30 2200 H 224.194 -0.156689 0.735495 0
M  V30 2201 H 226.165 0.238761 2.97443 0
M  V30 2202 C 224.914 -1.53082 3.12188 0
M  V30 2203 H 224.237 -1.06601 3.85326 0
M  V30 2204 H 225.677 -2.09167 3.68816 0
M  V30 2205 C 224.136 -2.49946 2.25895 0
M  V30 2206 O 224.666 -3.53884 1.90076 0
M  V30 2207 N 222.872 -2.2021 1.8962 0
M  V30 2208 H 222.419 -1.35719 2.18948 0
M  V30 2209 H 222.377 -2.85266 1.32176 0
M  V30 2210 N 226.149 -1.5696 0.141893 0
M  V30 2211 C 227.079 -2.19516 -0.795936 0
M  V30 2212 C 228.06 -1.14187 -1.26077 0
M  V30 2213 O 229.245 -1.42511 -1.31925 0
M  V30 2214 C 226.375 -2.81272 -2.03723 0
M  V30 2215 C 225.329 -3.92384 -1.70936 0
M  V30 2216 C 224.655 -4.41052 -3.02287 0
M  V30 2217 C 225.955 -5.13403 -0.959954 0
M  V30 2218 H 227.649 -2.98138 -0.274596 0
M  V30 2219 H 225.195 -1.43406 -0.130636 0
M  V30 2220 H 227.148 -3.237 -2.69808 0
M  V30 2221 H 225.872 -1.99973 -2.58221 0
M  V30 2222 H 224.531 -3.50566 -1.07232 0
M  V30 2223 H 224.179 -3.56582 -3.54765 0
M  V30 2224 H 223.879 -5.15993 -2.81114 0
M  V30 2225 H 225.403 -4.86146 -3.69451 0
M  V30 2226 H 226.817 -5.52706 -1.52279 0
M  V30 2227 H 225.214 -5.94073 -0.848357 0
M  V30 2228 H 226.284 -4.84875 0.0492434 0
M  V30 2229 N 227.627 0.131896 -1.57047 0
M  V30 2230 C 228.852 0.860418 -1.8871 0
M  V30 2231 C 229.277 1.73251 -0.73251 0
M  V30 2232 O 228.635 1.785 0.317429 0
M  V30 2233 C 228.683 1.68047 -3.19049 0
M  V30 2234 O 227.787 2.7862 -3.04047 0
M  V30 2235 H 227.128 0.238743 -0.619595 0
M  V30 2236 H 229.658 0.118169 -2.04258 0
M  V30 2237 H 229.668 2.07238 -3.51449 0
M  V30 2238 H 228.343 1.04018 -4.02682 0
M  V30 2239 H 226.92 2.42726 -2.83088 0
M  V30 2240 N 229.106 1.52395 0.401703 0
M  V30 2241 C 230.352 1.67065 1.14966 0
M  V30 2242 C 230.685 0.403052 1.89971 0
M  V30 2243 O 229.96 -0.598774 1.85054 0
M  V30 2244 C 230.243 2.8975 2.13815 0
M  V30 2245 C 230.096 4.26578 1.42658 0
M  V30 2246 C 231.415 3.07965 3.14397 0
M  V30 2247 H 228.534 0.607968 0.416587 0
M  V30 2248 H 231.176 1.84965 0.434511 0
M  V30 2249 H 229.326 2.74619 2.74803 0
M  V30 2250 H 230.998 4.53451 0.847329 0
M  V30 2251 H 229.241 4.27639 0.72849 0
M  V30 2252 H 229.912 5.08483 2.14823 0
M  V30 2253 H 232.388 3.22043 2.63491 0
M  V30 2254 H 231.264 3.95308 3.80819 0
M  V30 2255 H 231.525 2.21611 3.82545 0
M  V30 2256 N 230.584 -0.659388 1.43143 0
M  V30 2257 C 231.83 -1.42145 1.44647 0
M  V30 2258 C 232.163 -1.9408 0.0681907 0
M  V30 2259 O 231.438 -1.71899 -0.910007 0
M  V30 2260 C 231.721 -2.60735 2.48373 0
M  V30 2261 C 231.574 -2.14332 3.95451 0
M  V30 2262 C 232.893 -3.62951 2.48906 0
M  V30 2263 H 230.012 -0.51552 0.526696 0
M  V30 2264 H 232.654 -0.748069 1.74654 0
M  V30 2265 H 230.804 -3.18184 2.22916 0
M  V30 2266 H 232.476 -1.61932 4.31944 0
M  V30 2267 H 230.719 -1.4576 4.08578 0
M  V30 2268 H 231.39 -2.99583 4.63631 0
M  V30 2269 H 233.866 -3.1525 2.71582 0
M  V30 2270 H 232.742 -4.43487 3.23435 0
M  V30 2271 H 233.003 -4.15126 1.52061 0
M  V30 2272 N 232.062 -1.29571 -0.897171 0
M  V30 2273 C 233.339 -1.08365 -1.62839 0
M  V30 2274 C 233.719 0.371331 -2.07808 0
M  V30 2275 O 233.067 1.3606 -1.83576 0
M  V30 2276 C 233.277 -2.0735 -2.80726 0
M  V30 2277 C 234.625 -2.38406 -3.51351 0
M  V30 2278 O 235.649 -2.05564 -2.90898 0
M  V30 2279 O 234.508 -2.9453 -4.60341 0
M  V30 2280 H 231.602 -0.415345 -0.715134 0
M  V30 2281 H 234.148 -1.40952 -0.945018 0
M  V30 2282 H 232.92 -3.05339 -2.44711 0
M  V30 2283 H 232.543 -1.75507 -3.56767 0
M  V30 2284 N 233.54 1.10788 -1.12088 0
M  V30 2285 C 234.47 2.19083 -0.807755 0
M  V30 2286 C 235.451 1.6858 0.226859 0
M  V30 2287 O 236.636 1.93997 0.0888475 0
M  V30 2288 C 233.766 3.46344 -0.257576 0
M  V30 2289 C 232.72 4.101 -1.22483 0
M  V30 2290 C 232.046 5.32016 -0.535052 0
M  V30 2291 C 233.346 4.54236 -2.57811 0
M  V30 2292 H 235.04 2.45534 -1.71328 0
M  V30 2293 H 232.586 1.1801 -0.825205 0
M  V30 2294 H 234.539 4.21392 -0.0262679 0
M  V30 2295 H 233.263 3.19373 0.683278 0
M  V30 2296 H 231.922 3.37054 -1.44189 0
M  V30 2297 H 231.57 5.01319 0.410827 0
M  V30 2298 H 231.27 5.75625 -1.18024 0
M  V30 2299 H 232.794 6.09799 -0.312695 0
M  V30 2300 H 234.208 5.20575 -2.40155 0
M  V30 2301 H 232.605 5.08682 -3.18375 0
M  V30 2302 H 233.675 3.6734 -3.16528 0
M  V30 2303 N 235.018 0.912232 1.28515 0
M  V30 2304 C 235.948 0.416403 2.29757 0
M  V30 2305 C 236.929 -0.515194 1.6211 0
M  V30 2306 O 238.114 -0.423253 1.89532 0
M  V30 2307 C 235.244 -0.34572 3.45575 0
M  V30 2308 C 234.198 0.496599 4.25109 0
M  V30 2309 C 233.524 -0.393771 5.33248 0
M  V30 2310 C 234.824 1.75307 4.92001 0
M  V30 2311 H 236.518 1.26249 2.7148 0
M  V30 2312 H 234.064 0.608515 1.30511 0
M  V30 2313 H 236.017 -0.703422 4.15488 0
M  V30 2314 H 234.741 -1.2257 3.02728 0
M  V30 2315 H 233.4 0.8368 3.56922 0
M  V30 2316 H 233.048 -1.27225 4.86644 0
M  V30 2317 H 232.748 0.166209 5.87365 0
M  V30 2318 H 234.272 -0.747389 6.06009 0
M  V30 2319 H 235.686 1.46437 5.54283 0
M  V30 2320 H 234.083 2.25534 5.56106 0
M  V30 2321 H 235.153 2.48176 4.16577 0
M  V30 2322 N 236.496 -1.42363 0.676048 0
M  V30 2323 C 237.743 -2.01522 0.19883 0
M  V30 2324 C 238.071 -1.53456 -1.19505 0
M  V30 2325 O 237.326 -0.727967 -1.81657 0
M  V30 2326 C 237.625 -3.56929 0.183431 0
M  V30 2327 C 237.291 -4.24431 1.52215 0
M  V30 2328 C 235.953 -4.42585 1.8887 0
M  V30 2329 C 238.305 -4.62459 2.40377 0
M  V30 2330 C 235.633 -4.96039 3.13309 0
M  V30 2331 C 237.985 -5.17294 3.64129 0
M  V30 2332 C 236.649 -5.33661 4.00951 0
M  V30 2333 H 235.919 -0.737419 0.0727571 0
M  V30 2334 H 238.566 -1.70531 0.871281 0
M  V30 2335 H 236.871 -3.87594 -0.572532 0
M  V30 2336 H 238.568 -4.00486 -0.203035 0
M  V30 2337 H 235.158 -4.10661 1.22701 0
M  V30 2338 H 239.342 -4.48105 2.13343 0
M  V30 2339 H 234.598 -5.06896 3.41857 0
M  V30 2340 H 238.772 -5.45704 4.32644 0
M  V30 2341 H 236.399 -5.74845 4.9745 0
M  V30 2342 N 237.974 -0.419461 -1.51915 0
M  V30 2343 C 238.904 0.391813 -2.30189 0
M  V30 2344 C 239.885 1.03699 -1.34836 0
M  V30 2345 O 241.07 1.04403 -1.63748 0
M  V30 2346 C 238.2 1.50312 -3.13087 0
M  V30 2347 C 237.154 0.9824 -4.16573 0
M  V30 2348 C 236.48 2.18809 -4.8788 0
M  V30 2349 C 237.78 0.0292356 -5.22292 0
M  V30 2350 H 239.474 -0.26135 -2.98257 0
M  V30 2351 H 237.02 -0.127134 -1.43438 0
M  V30 2352 H 238.973 2.07773 -3.66617 0
M  V30 2353 H 237.697 2.18431 -2.42807 0
M  V30 2354 H 236.356 0.430119 -3.64068 0
M  V30 2355 H 236.004 2.85507 -4.14119 0
M  V30 2356 H 235.704 1.84615 -5.57845 0
M  V30 2357 H 237.228 2.76858 -5.44226 0
M  V30 2358 H 238.642 0.512976 -5.71 0
M  V30 2359 H 237.039 -0.2244 -5.9968 0
M  V30 2360 H 238.109 -0.912931 -4.76228 0
M  V30 2361 N 239.452 1.56882 -0.150215 0
M  V30 2362 C 240.382 2.19935 0.784284 0
M  V30 2363 C 241.363 1.14854 1.25469 0
M  V30 2364 O 242.548 1.43209 1.31168 0
M  V30 2365 C 239.678 2.82349 2.02229 0
M  V30 2366 C 238.632 3.93285 1.68853 0
M  V30 2367 C 237.958 4.42649 2.99944 0
M  V30 2368 C 239.258 5.13904 0.932714 0
M  V30 2369 H 240.952 2.9828 0.258781 0
M  V30 2370 H 238.498 1.43473 0.123029 0
M  V30 2371 H 240.451 3.25126 2.68088 0
M  V30 2372 H 239.175 2.0134 2.57157 0
M  V30 2373 H 237.834 3.5113 1.05371 0
M  V30 2374 H 237.482 3.58458 3.52869 0
M  V30 2375 H 237.182 5.17476 2.78374 0
M  V30 2376 H 238.706 4.88099 3.66868 0
M  V30 2377 H 240.12 5.53506 1.49345 0
M  V30 2378 H 238.517 5.94515 0.81684 0
M  V30 2379 H 239.587 4.84842 -0.0749568 0
M  V30 2380 N 240.93 -0.123565 1.57115 0
M  V30 2381 C 242.178 -0.83051 1.84247 0
M  V30 2382 C 242.499 -1.80629 0.73471 0
M  V30 2383 O 241.769 -1.94403 -0.241688 0
M  V30 2384 H 240.349 -0.309694 0.679778 0
M  V30 2385 H 243.011 -0.111976 1.94578 0
M  V30 2386 H 242.107 -1.37852 2.80006 0
M  V30 2387 N 242.408 -1.52605 -0.393616 0
M  V30 2388 C 243.341 -1.71798 -1.50202 0
M  V30 2389 C 244.319 -0.565743 -1.52441 0
M  V30 2390 O 245.503 -0.794987 -1.70916 0
M  V30 2391 C 242.63 -1.7714 -2.88685 0
M  V30 2392 C 241.676 -2.98845 -3.04292 0
M  V30 2393 S 242.509 -4.58909 -2.75976 0
M  V30 2394 C 243.665 -4.6706 -4.1666 0
M  V30 2395 H 243.898 -2.65542 -1.33696 0
M  V30 2396 H 241.431 -1.42839 -0.586195 0
M  V30 2397 H 243.389 -1.80903 -3.68489 0
M  V30 2398 H 242.05 -0.844969 -3.02521 0
M  V30 2399 H 241.243 -2.99111 -4.05646 0
M  V30 2400 H 240.845 -2.9305 -2.32374 0
M  V30 2401 H 243.137 -4.45391 -5.10523 0
M  V30 2402 H 244.08 -5.6905 -4.21412 0
M  V30 2403 H 244.488 -3.95944 -4.02354 0
M  V30 2404 N 243.887 0.651787 -1.4349 0
M  V30 2405 C 245.298 1.233 -1.40193 0
M  V30 2406 C 245.649 1.9591 -0.106727 0
M  V30 2407 O 244.774 2.01316 0.793773 0
M  V30 2408 C 245.369 2.24257 -2.53957 0
M  V30 2409 C 243.928 2.77852 -2.5392 0
M  V30 2410 C 243.075 1.52517 -2.3159 0
M  V30 2411 H 246.026 0.443717 -1.52371 0
M  V30 2412 H 246.047 3.0646 -2.25528 0
M  V30 2413 H 245.559 1.71382 -3.4821 0
M  V30 2414 H 243.66 3.34786 -1.63551 0
M  V30 2415 H 243.773 3.25299 -3.51735 0
M  V30 2416 H 242.137 1.79915 -1.80285 0
M  V30 2417 H 242.92 1.01574 -3.27929 0
M  V30 2418 N 245.365 1.30045 0.890287 0
M  V30 2419 C 246.612 1.18561 1.64163 0
M  V30 2420 C 246.94 -0.260852 1.92743 0
M  V30 2421 O 246.195 -1.20376 1.54299 0
M  V30 2422 C 246.494 1.95409 2.99249 0
M  V30 2423 C 246.16 3.45066 2.90242 0
M  V30 2424 C 244.822 3.85878 2.87492 0
M  V30 2425 C 247.174 4.4039 2.78758 0
M  V30 2426 C 244.502 5.20314 2.7109 0
M  V30 2427 C 246.854 5.74928 2.63894 0
M  V30 2428 C 245.518 6.14986 2.59516 0
M  V30 2429 H 244.788 0.433846 0.600715 0
M  V30 2430 H 247.435 1.61088 1.03552 0
M  V30 2431 H 245.74 1.45501 3.63781 0
M  V30 2432 H 247.437 1.8392 3.56334 0
M  V30 2433 H 244.027 3.12631 2.93189 0
M  V30 2434 H 248.211 4.09806 2.79952 0
M  V30 2435 H 243.467 5.50449 2.66112 0
M  V30 2436 H 247.641 6.48434 2.53981 0
M  V30 2437 H 245.268 7.19104 2.46565 0
M  V30 2438 N 246.843 -1.10192 1.12674 0
M  V30 2439 C 247.776 -2.15847 0.740625 0
M  V30 2440 C 248.754 -1.60352 -0.269421 0
M  V30 2441 O 249.938 -1.87796 -0.16278 0
M  V30 2442 C 247.065 -3.38562 0.096641 0
M  V30 2443 C 246.111 -4.12758 1.07391 0
M  V30 2444 S 246.944 -4.67997 2.60267 0
M  V30 2445 C 248.1 -5.94021 1.97206 0
M  V30 2446 H 248.333 -2.48266 1.63558 0
M  V30 2447 H 245.866 -1.22019 0.946087 0
M  V30 2448 H 247.824 -4.09621 -0.268535 0
M  V30 2449 H 246.485 -3.04377 -0.775462 0
M  V30 2450 H 245.678 -5.00755 0.570997 0
M  V30 2451 H 245.28 -3.47523 1.38216 0
M  V30 2452 H 247.572 -6.64589 1.31634 0
M  V30 2453 H 248.515 -6.48979 2.83253 0
M  V30 2454 H 248.923 -5.46169 1.42686 0
M  V30 2455 N 248.321 -0.919034 -1.28029 0
M  V30 2456 C 249.57 -0.550802 -1.94034 0
M  V30 2457 C 249.883 0.910877 -1.73096 0
M  V30 2458 O 251.089 1.3875 -2.33368 0
M  V30 2459 C 249.545 -0.934249 -3.47563 0
M  V30 2460 C 249.153 -2.41602 -3.7727 0
M  V30 2461 C 250.897 -0.636854 -4.19696 0
M  V30 2462 C 248.804 -2.73932 -5.24133 0
M  V30 2463 H 247.734 -0.202273 -0.726362 0
M  V30 2464 H 250.385 -1.11867 -1.45458 0
M  V30 2465 H 248.767 -0.295115 -3.94899 0
M  V30 2466 H 249.941 -3.10233 -3.40723 0
M  V30 2467 H 248.256 -2.68441 -3.18321 0
M  V30 2468 H 250.853 -0.855005 -5.2782 0
M  V30 2469 H 251.196 0.425575 -4.14119 0
M  V30 2470 H 251.729 -1.23469 -3.78154 0
M  V30 2471 H 248.468 -3.79049 -5.34792 0
M  V30 2472 H 247.988 -2.09942 -5.61858 0
M  V30 2473 H 249.667 -2.61215 -5.91925 0
M  V30 2474 N 249.799 1.42003 -0.683588 0
M  V30 2475 C 250.749 2.27997 0.0121992 0
M  V30 2476 C 251.733 1.4156 0.764822 0
M  V30 2477 O 252.925 1.64935 0.642287 0
M  V30 2478 C 250.054 3.29706 0.956482 0
M  V30 2479 C 249.14 4.23625 0.200739 0
M  V30 2480 N 249.531 4.99448 -0.799087 0
M  V30 2481 C 247.829 4.43845 0.437937 0
M  V30 2482 C 248.53 5.68102 -1.25041 0
M  V30 2483 N 247.506 5.40511 -0.578648 0
M  V30 2484 H 251.308 2.84048 -0.754564 0
M  V30 2485 H 248.822 1.54071 -0.513398 0
M  V30 2486 H 250.819 3.90124 1.47 0
M  V30 2487 H 249.479 2.75216 1.72297 0
M  V30 2488 H 250.49 5.04303 -1.17893 0
M  V30 2489 H 247.167 4.00382 1.18325 0
M  V30 2490 H 248.557 6.38913 -2.07942 0
M  V30 2491 N 251.277 0.427512 1.51691 0
M  V30 2492 C 252.209 -0.424521 2.25234 0
M  V30 2493 C 253.222 -0.994671 1.2888 0
M  V30 2494 O 254.411 -0.890483 1.54702 0
M  V30 2495 C 251.511 -1.60479 2.98496 0
M  V30 2496 C 250.684 -1.15527 4.21868 0
M  V30 2497 C 249.743 -2.20454 4.77793 0
M  V30 2498 O 248.769 -1.8029 5.39893 0
M  V30 2499 N 249.971 -3.52831 4.60967 0
M  V30 2500 H 252.736 0.205749 2.98993 0
M  V30 2501 H 250.297 0.255867 1.59865 0
M  V30 2502 H 252.289 -2.30276 3.32799 0
M  V30 2503 H 250.859 -2.14061 2.27809 0
M  V30 2504 H 250.079 -0.284736 3.9317 0
M  V30 2505 H 251.367 -0.832173 5.01949 0
M  V30 2506 H 250.765 -3.88201 4.11481 0
M  V30 2507 H 249.322 -4.18551 4.99658 0
M  V30 2508 N 252.755 -1.56801 0.158532 0
M  V30 2509 C 253.685 -2.20347 -0.772609 0
M  V30 2510 C 254.666 -1.15518 -1.24859 0
M  V30 2511 O 255.851 -1.43902 -1.30406 0
M  V30 2512 C 252.981 -2.83417 -2.00729 0
M  V30 2513 C 251.935 -3.94174 -1.66765 0
M  V30 2514 C 251.261 -4.44233 -2.97592 0
M  V30 2515 C 252.561 -5.14392 -0.905447 0
M  V30 2516 H 254.255 -2.98413 -0.242959 0
M  V30 2517 H 251.801 -1.43537 -0.115419 0
M  V30 2518 H 253.754 -3.26543 -2.6636 0
M  V30 2519 H 252.478 -2.02701 -2.56086 0
M  V30 2520 H 251.137 -3.51684 -1.03508 0
M  V30 2521 H 250.785 -3.60325 -3.50963 0
M  V30 2522 H 250.485 -5.18945 -2.75626 0
M  V30 2523 H 252.009 -4.90037 -3.64274 0
M  V30 2524 H 253.423 -5.5429 -1.46408 0
M  V30 2525 H 251.82 -5.9494 -0.7853 0
M  V30 2526 H 252.89 -4.84795 0.100668 0
M  V30 2527 N 254.233 0.115231 -1.57178 0
M  V30 2528 C 255.166 1.17166 -1.95825 0
M  V30 2529 C 256.144 1.39912 -0.828463 0
M  V30 2530 O 257.328 1.54004 -1.08697 0
M  V30 2531 C 254.455 2.52478 -2.25771 0
M  V30 2532 C 253.501 2.46136 -3.48309 0
M  V30 2533 S 254.334 1.89736 -5.0076 0
M  V30 2534 C 255.49 3.26713 -5.33863 0
M  V30 2535 H 255.723 0.842103 -2.85124 0
M  V30 2536 H 253.256 0.322136 -1.51002 0
M  V30 2537 H 255.214 3.30332 -2.43702 0
M  V30 2538 H 253.875 2.82609 -1.37079 0
M  V30 2539 H 253.068 3.45819 -3.66641 0
M  V30 2540 H 252.67 1.76404 -3.29784 0
M  V30 2541 H 254.962 4.22935 -5.29275 0
M  V30 2542 H 255.905 3.13205 -6.35065 0
M  V30 2543 H 256.313 3.25316 -4.61335 0
M  V30 2544 N 255.711 1.52812 0.385517 0
M  V30 2545 C 256.959 1.67694 1.12797 0
M  V30 2546 C 257.28 0.421115 1.90399 0
M  V30 2547 O 256.55 -0.564551 1.87589 0
M  V30 2548 H 255.13 0.618155 0.419396 0
M  V30 2549 H 257.792 1.89938 0.436972 0
M  V30 2550 H 256.888 2.52896 1.82894 0
M  V30 2551 N 257.189 -0.644168 1.43834 0
M  V30 2552 C 258.137 -1.77793 1.49974 0
M  V30 2553 C 259.131 -1.65253 0.372536 0
M  V30 2554 O 260.337 -1.7149 0.546924 0
M  V30 2555 H 256.712 -0.58675 0.47035 0
M  V30 2556 H 258.683 -1.69736 2.45423 0
M  V30 2557 C 257.432 -3.16087 1.4486 0
M  V30 2558 H 256.755 -3.26378 2.30905 0
M  V30 2559 H 258.195 -3.95349 1.53217 0
M  V30 2560 C 256.654 -3.36484 0.167463 0
M  V30 2561 O 257.184 -3.94298 -0.767609 0
M  V30 2562 N 255.39 -2.90504 0.0747556 0
M  V30 2563 H 254.937 -2.4364 0.836507 0
M  V30 2564 H 254.895 -3.04527 -0.781714 0
M  V30 2565 N 258.668 -1.30515 -0.883378 0
M  V30 2566 C 259.916 -1.19194 -1.63209 0
M  V30 2567 C 260.237 0.253205 -1.93349 0
M  V30 2568 O 259.507 1.17025 -1.57105 0
M  V30 2569 H 258.087 -0.438148 -0.605009 0
M  V30 2570 H 260.749 -1.63663 -1.05832 0
M  V30 2571 H 259.845 -1.75396 -2.58153 0
M  V30 2572 N 260.146 1.09593 -1.13257 0
M  V30 2573 C 261.392 1.82003 -0.89458 0
M  V30 2574 C 261.725 1.85402 0.577906 0
M  V30 2575 O 261 1.32099 1.42759 0
M  V30 2576 C 261.283 3.28237 -1.48096 0
M  V30 2577 C 261.136 3.3312 -3.02244 0
M  V30 2578 C 262.455 4.24871 -1.14774 0
M  V30 2579 H 259.574 0.66077 -0.326424 0
M  V30 2580 H 262.216 1.28389 -1.40058 0
M  V30 2581 H 260.366 3.74024 -1.05062 0
M  V30 2582 H 262.038 2.95748 -3.54021 0
M  V30 2583 H 260.281 2.72756 -3.37323 0
M  V30 2584 H 260.952 4.3613 -3.38371 0
M  V30 2585 H 263.428 3.87361 -1.51957 0
M  V30 2586 H 262.304 5.25532 -1.58452 0
M  V30 2587 H 262.565 4.42058 -0.0611849 0
M  V30 2588 N 261.624 0.925811 1.2754 0
M  V30 2589 C 262.87 0.575575 1.95086 0
M  V30 2590 C 263.225 -0.873246 1.71441 0
M  V30 2591 O 262.518 -1.61443 1.03183 0
M  V30 2592 C 262.712 0.835296 3.47502 0
M  V30 2593 C 262.541 2.30781 3.85967 0
M  V30 2594 C 261.311 2.96017 4.09514 0
M  V30 2595 C 263.509 3.28519 3.95702 0
M  V30 2596 N 261.491 4.3344 4.34744 0
M  V30 2597 C 262.862 4.51146 4.25285 0
M  V30 2598 C 264.917 3.23753 3.7827 0
M  V30 2599 C 263.62 5.69606 4.39251 0
M  V30 2600 C 265.646 4.41523 3.9346 0
M  V30 2601 C 265.008 5.62928 4.23428 0
M  V30 2602 H 261.107 0.260711 0.737261 0
M  V30 2603 H 263.691 1.19204 1.53943 0
M  V30 2604 H 261.862 0.248005 3.87607 0
M  V30 2605 H 263.594 0.447878 4.02214 0
M  V30 2606 H 260.349 2.46695 4.04275 0
M  V30 2607 H 260.773 5.04528 4.5142 0
M  V30 2608 H 265.415 2.3096 3.54143 0
M  V30 2609 H 263.133 6.62866 4.62205 0
M  V30 2610 H 266.719 4.39351 3.81394 0
M  V30 2611 H 265.599 6.52538 4.34929 0
M  V30 2612 N 263.102 -1.41638 0.69111 0
M  V30 2613 C 264.052 -2.28 -0.000107832 0
M  V30 2614 C 265.036 -1.41964 -0.757304 0
M  V30 2615 O 266.228 -1.65274 -0.633532 0
M  V30 2616 C 263.357 -3.30209 -0.938983 0
M  V30 2617 C 262.443 -4.23725 -0.17827 0
M  V30 2618 N 262.834 -4.99017 0.825563 0
M  V30 2619 C 261.132 -4.44071 -0.414392 0
M  V30 2620 C 261.833 -5.67431 1.28052 0
M  V30 2621 N 260.809 -5.40197 0.607304 0
M  V30 2622 H 264.611 -2.83644 0.769617 0
M  V30 2623 H 262.125 -1.53797 0.521562 0
M  V30 2624 H 264.122 -3.90898 -1.44929 0
M  V30 2625 H 262.782 -2.76126 -1.70836 0
M  V30 2626 H 263.793 -5.03671 1.20566 0
M  V30 2627 H 260.47 -4.01004 -1.162 0
M  V30 2628 H 261.86 -6.37801 2.11327 0
M  V30 2629 N 264.58 -0.43555 -1.51462 0
M  V30 2630 C 265.827 0.131514 -2.02072 0
M  V30 2631 C 266.155 1.42868 -1.31981 0
M  V30 2632 O 265.41 1.91076 -0.422883 0
M  V30 2633 C 265.709 0.39942 -3.55161 0
M  V30 2634 C 265.375 -0.81172 -4.43533 0
M  V30 2635 C 264.037 -1.14387 -4.67407 0
M  V30 2636 C 266.389 -1.61976 -4.95392 0
M  V30 2637 C 263.717 -2.28477 -5.40384 0
M  V30 2638 C 266.069 -2.75164 -5.6962 0
M  V30 2639 C 264.733 -3.08835 -5.91758 0
M  V30 2640 H 264.003 0.0481244 -0.739436 0
M  V30 2641 H 266.65 -0.58238 -1.8243 0
M  V30 2642 H 264.955 1.19519 -3.73125 0
M  V30 2643 H 266.652 0.85157 -3.91854 0
M  V30 2644 H 263.242 -0.542898 -4.25148 0
M  V30 2645 H 267.426 -1.37637 -4.76833 0
M  V30 2646 H 262.682 -2.5488 -5.55739 0
M  V30 2647 H 266.856 -3.38147 -6.08793 0
M  V30 2648 H 264.483 -3.97353 -6.48086 0
M  V30 2649 N 266.058 1.56714 -0.166846 0
M  V30 2650 C 267.306 1.96358 0.478305 0
M  V30 2651 C 267.627 1.0537 1.6408 0
M  V30 2652 O 266.897 0.119154 1.95537 0
M  V30 2653 H 265.477 0.725065 0.179692 0
M  V30 2654 H 268.139 1.93329 -0.246985 0
M  V30 2655 H 267.235 3.00547 0.841292 0
M  V30 2656 N 267.536 -0.106894 1.57237 0
M  V30 2657 C 268.446 -1.14911 2.0453 0
M  V30 2658 C 269.462 -1.44592 0.96795 0
M  V30 2659 O 270.638 -1.55468 1.2803 0
M  V30 2660 C 267.703 -2.45272 2.45036 0
M  V30 2661 C 266.764 -2.22879 3.66911 0
M  V30 2662 C 265.997 -3.47024 4.05475 0
M  V30 2663 O 266.22 -4.54804 3.44252 0
M  V30 2664 O 265.154 -3.3731 4.98504 0
M  V30 2665 H 268.98 -0.777461 2.9358 0
M  V30 2666 H 266.565 -0.318563 1.45964 0
M  V30 2667 H 268.447 -3.22055 2.71769 0
M  V30 2668 H 267.122 -2.81886 1.59129 0
M  V30 2669 H 266.029 -1.43915 3.45311 0
M  V30 2670 H 267.362 -1.91163 4.53561 0
M  V30 2671 N 269.014 -1.53014 -0.377408 0
M  V30 2672 C 270.242 -1.72515 -1.14219 0
M  V30 2673 C 270.657 -0.448735 -1.8339 0
M  V30 2674 O 270.014 0.577592 -1.73119 0
M  V30 2675 C 270.065 -2.8826 -2.18148 0
M  V30 2676 O 269.786 -4.10962 -1.51795 0
M  V30 2677 C 271.287 -3.19536 -3.07264 0
M  V30 2678 H 268.507 -0.577301 -0.342001 0
M  V30 2679 H 271.051 -1.99712 -0.439935 0
M  V30 2680 H 269.206 -2.63492 -2.83991 0
M  V30 2681 H 269.62 -4.75693 -2.20945 0
M  V30 2682 H 271.094 -4.03959 -3.76193 0
M  V30 2683 H 271.571 -2.34403 -3.71419 0
M  V30 2684 H 272.177 -3.46186 -2.47053 0
M  V30 2685 N 270.492 0.636531 -1.44174 0
M  V30 2686 C 271.425 1.76139 -1.45087 0
M  V30 2687 C 272.403 1.59611 -0.310326 0
M  V30 2688 O 273.587 1.81568 -0.506477 0
M  V30 2689 C 270.714 3.13648 -1.27839 0
M  V30 2690 C 269.76 3.48838 -2.45386 0
M  V30 2691 S 270.593 3.46927 -4.07924 0
M  V30 2692 C 271.749 4.87064 -3.9309 0
M  V30 2693 H 271.982 1.75096 -2.40268 0
M  V30 2694 H 269.515 0.810666 -1.31406 0
M  V30 2695 H 271.473 3.93002 -1.18575 0
M  V30 2696 H 270.134 3.12235 -0.341787 0
M  V30 2697 H 269.327 4.48886 -2.29167 0
M  V30 2698 H 268.929 2.76935 -2.51362 0
M  V30 2699 H 271.221 5.76153 -3.56446 0
M  V30 2700 H 272.164 5.08337 -4.92949 0
M  V30 2701 H 272.572 4.61384 -3.25246 0
M  V30 2702 N 271.97 1.30982 0.876444 0
M  V30 2703 C 273.21 1.21589 1.64303 0
M  V30 2704 C 273.574 -0.223962 1.90689 0
M  V30 2705 O 274.775 -0.44128 2.65153 0
M  V30 2706 C 273.046 2.03007 2.94148 0
M  V30 2707 S 274.605 2.10405 3.85065 0
M  V30 2708 H 271.423 0.433161 0.563819 0
M  V30 2709 H 274.025 1.65565 1.03964 0
M  V30 2710 H 272.729 3.06719 2.72675 0
M  V30 2711 H 272.26 1.59725 3.59515 0
M  V30 2712 H 274.275 1.23765 4.80517 0
M  V30 2713 N 273.449 -1.08991 1.13837 0
M  V30 2714 C 274.677 -1.85011 0.926202 0
M  V30 2715 C 275.092 -1.8135 -0.525127 0
M  V30 2716 O 274.449 -1.21287 -1.36366 0
M  V30 2717 C 274.5 -3.32802 1.41155 0
M  V30 2718 O 274.221 -3.36444 2.80601 0
M  V30 2719 C 275.722 -4.25649 1.23847 0
M  V30 2720 H 272.942 -0.584249 0.32999 0
M  V30 2721 H 275.486 -1.37688 1.51202 0
M  V30 2722 H 273.641 -3.77536 0.868631 0
M  V30 2723 H 274.055 -4.28657 3.02248 0
M  V30 2724 H 275.529 -5.27485 1.62675 0
M  V30 2725 H 276.006 -4.38828 0.18065 0
M  V30 2726 H 276.612 -3.86735 1.76964 0
M  V30 2727 N 274.927 -0.932562 -1.27047 0
M  V30 2728 C 275.857 -0.452902 -2.29066 0
M  V30 2729 C 276.838 0.489338 -1.62909 0
M  V30 2730 O 278.023 0.393046 -1.90181 0
M  V30 2731 C 275.153 0.290698 -3.46081 0
M  V30 2732 C 274.107 -0.564168 -4.24265 0
M  V30 2733 C 273.433 0.308886 -5.33807 0
M  V30 2734 C 274.733 -1.83112 -4.89149 0
M  V30 2735 H 276.427 -1.30552 -2.69437 0
M  V30 2736 H 273.973 -0.629201 -1.29526 0
M  V30 2737 H 275.926 0.637233 -4.16554 0
M  V30 2738 H 274.65 1.17738 -3.0464 0
M  V30 2739 H 273.309 -0.893477 -3.55545 0
M  V30 2740 H 272.957 1.19467 -4.88607 0
M  V30 2741 H 272.657 -0.259633 -5.87026 0
M  V30 2742 H 274.181 0.650884 -6.07121 0
M  V30 2743 H 275.595 -1.55236 -5.51883 0
M  V30 2744 H 273.992 -2.34353 -5.52448 0
M  V30 2745 H 275.062 -2.54772 -4.12576 0
M  V30 2746 N 276.405 1.4127 -0.698611 0
M  V30 2747 C 277.654 2.00408 -0.227949 0
M  V30 2748 C 277.967 1.55981 1.18023 0
M  V30 2749 O 279.173 2.07699 1.74852 0
M  V30 2750 C 277.629 3.58129 -0.356636 0
M  V30 2751 C 277.237 4.11536 -1.77037 0
M  V30 2752 C 278.981 4.24466 0.0540969 0
M  V30 2753 C 276.888 5.61701 -1.85055 0
M  V30 2754 H 275.818 0.749586 -0.0814657 0
M  V30 2755 H 278.469 1.61713 -0.867249 0
M  V30 2756 H 276.851 3.94442 0.350965 0
M  V30 2757 H 278.025 3.86636 -2.50698 0
M  V30 2758 H 276.34 3.57736 -2.13105 0
M  V30 2759 H 278.937 5.34698 0.0146723 0
M  V30 2760 H 279.28 4.01687 1.09332 0
M  V30 2761 H 279.813 3.93198 -0.603337 0
M  V30 2762 H 276.552 5.89312 -2.8704 0
M  V30 2763 H 276.072 5.88519 -1.15783 0
M  V30 2764 H 277.751 6.26524 -1.61484 0
M  V30 2765 N 277.883 0.443576 1.51229 0
M  V30 2766 C 279.111 -0.11929 2.06556 0
M  V30 2767 C 279.526 -1.35921 1.31038 0
M  V30 2768 O 278.883 -1.78675 0.371704 0
M  V30 2769 C 278.934 -0.435228 3.5887 0
M  V30 2770 O 278.655 0.755486 4.31537 0
M  V30 2771 C 280.156 -1.04808 4.30732 0
M  V30 2772 H 277.376 -0.0051584 0.67098 0
M  V30 2773 H 279.92 0.624453 1.94733 0
M  V30 2774 H 278.075 -1.12887 3.70588 0
M  V30 2775 H 278.489 0.483491 5.22267 0
M  V30 2776 H 279.963 -1.2191 5.3837 0
M  V30 2777 H 280.44 -2.03081 3.89429 0
M  V30 2778 H 281.046 -0.393637 4.23474 0
M  V30 2779 N 279.361 -1.56624 0.175154 0
M  V30 2780 C 280.324 -2.16934 -0.739738 0
M  V30 2781 C 281.324 -1.11842 -1.15533 0
M  V30 2782 O 282.514 -1.37335 -1.07167 0
M  V30 2783 C 279.646 -2.75531 -2.00738 0
M  V30 2784 H 280.839 -2.99131 -0.214639 0
M  V30 2785 H 278.392 -1.56123 -0.0744197 0
M  V30 2786 H 279.127 -1.97078 -2.57548 0
M  V30 2787 H 278.912 -3.52444 -1.71831 0
M  V30 2788 H 280.402 -3.21904 -2.66021 0
M  V30 2789 N 280.839 0.0985539 -1.57292 0
M  V30 2790 C 281.772 1.15082 -1.97057 0
M  V30 2791 C 282.75 1.39025 -0.843255 0
M  V30 2792 O 283.934 1.52842 -1.10325 0
M  V30 2793 C 281.061 2.50069 -2.28437 0
M  V30 2794 C 280.107 2.42428 -3.509 0
M  V30 2795 S 280.94 1.84414 -5.02744 0
M  V30 2796 C 282.096 3.21032 -5.37298 0
M  V30 2797 H 282.329 0.811815 -2.86002 0
M  V30 2798 H 279.862 0.306102 -1.51335 0
M  V30 2799 H 281.82 3.27729 -2.47192 0
M  V30 2800 H 280.481 2.8114 -1.40069 0
M  V30 2801 H 279.674 3.41911 -3.70288 0
M  V30 2802 H 279.276 1.72896 -3.31637 0
M  V30 2803 H 281.568 4.17297 -5.33731 0
M  V30 2804 H 282.511 3.06452 -6.38352 0
M  V30 2805 H 282.919 3.20404 -4.64759 0
M  V30 2806 N 282.317 1.53212 0.369288 0
M  V30 2807 C 283.594 1.59815 1.12776 0
M  V30 2808 C 283.974 0.403402 2.0721 0
M  V30 2809 O 283.322 -0.606667 2.20299 0
M  V30 2810 C 283.532 2.94664 1.87013 0
M  V30 2811 C 284.88 3.49109 2.41677 0
M  V30 2812 O 285.904 2.96669 1.97144 0
M  V30 2813 O 284.763 4.40775 3.23079 0
M  V30 2814 H 281.857 0.645376 0.517125 0
M  V30 2815 H 284.403 1.65553 0.37285 0
M  V30 2816 H 283.175 3.73061 1.18071 0
M  V30 2817 H 282.798 2.92401 2.69421 0
M  V30 2818 N 283.795 -0.628877 1.44509 0
M  V30 2819 C 284.758 -1.72263 1.51188 0
M  V30 2820 C 285.758 -1.55907 0.39367 0
M  V30 2821 O 286.948 -1.61361 0.656377 0
M  V30 2822 C 284.08 -3.11365 1.38798 0
M  V30 2823 H 285.273 -1.67714 2.4862 0
M  V30 2824 H 282.826 -0.842737 1.31634 0
M  V30 2825 H 283.561 -3.21507 0.424693 0
M  V30 2826 H 283.346 -3.24644 2.19884 0
M  V30 2827 H 284.836 -3.91075 1.46458 0
M  V30 2828 N 285.273 -1.31445 -0.869486 0
M  V30 2829 C 286.221 -1.19067 -1.99814 0
M  V30 2830 C 287.215 -0.0988569 -1.69111 0
M  V30 2831 O 288.421 -0.260781 -1.78101 0
M  V30 2832 H 284.796 -0.368677 -0.655425 0
M  V30 2833 H 286.767 -2.14555 -2.07385 0
M  V30 2834 C 285.516 -0.915323 -3.35436 0
M  V30 2835 H 284.839 -1.74759 -3.59582 0
M  V30 2836 H 286.279 -0.868895 -4.15001 0
M  V30 2837 C 284.738 0.381928 -3.34728 0
M  V30 2838 O 285.268 1.39857 -3.76567 0
M  V30 2839 N 283.474 0.398633 -2.87853 0
M  V30 2840 H 283.021 -0.429186 -2.54 0
M  V30 2841 H 282.979 1.26651 -2.87762 0
M  V30 2842 N 286.751 1.08385 -1.14413 0
M  V30 2843 C 287.976 1.85057 -0.936413 0
M  V30 2844 C 288.401 1.81055 0.509971 0
M  V30 2845 O 287.759 1.1958 1.36273 0
M  V30 2846 C 287.807 3.30505 -1.44217 0
M  V30 2847 O 286.911 4.07491 -0.634409 0
M  V30 2848 H 286.252 0.573425 -0.334784 0
M  V30 2849 H 288.782 1.36799 -1.52142 0
M  V30 2850 H 288.792 3.81348 -1.45043 0
M  V30 2851 H 287.467 3.32734 -2.49522 0
M  V30 2852 H 286.044 3.66368 -0.694902 0
M  V30 2853 N 288.23 0.939286 1.26551 0
M  V30 2854 C 289.162 0.404704 2.25599 0
M  V30 2855 C 290.175 -0.470983 1.55838 0
M  V30 2856 O 291.364 -0.281734 1.76263 0
M  V30 2857 C 288.464 -0.43764 3.36062 0
M  V30 2858 C 287.637 0.421449 4.35365 0
M  V30 2859 C 286.696 -0.36015 5.24966 0
M  V30 2860 O 285.722 0.236167 5.6871 0
M  V30 2861 N 286.924 -1.65715 5.56344 0
M  V30 2862 H 289.689 1.25618 2.72103 0
M  V30 2863 H 287.25 0.807963 1.40298 0
M  V30 2864 H 289.242 -0.967866 3.92956 0
M  V30 2865 H 287.812 -1.18991 2.89067 0
M  V30 2866 H 287.032 1.1329 3.7757 0
M  V30 2867 H 288.32 1.00835 4.98708 0
M  V30 2868 H 287.718 -2.16378 5.22682 0
M  V30 2869 H 286.275 -2.13366 6.15888 0
M  V30 2870 N 289.708 -1.40897 0.706093 0
M  V30 2871 C 290.955 -2.01054 0.241531 0
M  V30 2872 C 291.283 -1.55956 -1.16223 0
M  V30 2873 O 290.538 -0.766336 -1.80072 0
M  V30 2874 C 290.837 -3.5646 0.259099 0
M  V30 2875 C 290.503 -4.21106 1.61184 0
M  V30 2876 C 289.165 -4.38479 1.98216 0
M  V30 2877 C 291.517 -4.57256 2.50132 0
M  V30 2878 C 288.845 -4.89282 3.2376 0
M  V30 2879 C 291.197 -5.09454 3.7502 0
M  V30 2880 C 289.861 -5.25037 4.12181 0
M  V30 2881 H 289.131 -0.73571 0.0883825 0
M  V30 2882 H 291.778 -1.68645 0.907257 0
M  V30 2883 H 290.083 -3.88721 -0.490189 0
M  V30 2884 H 291.78 -4.00826 -0.11804 0
M  V30 2885 H 288.37 -4.07966 1.31384 0
M  V30 2886 H 292.554 -4.43479 2.228 0
M  V30 2887 H 287.81 -4.99531 3.52532 0
M  V30 2888 H 291.984 -5.36404 4.44121 0
M  V30 2889 H 289.611 -5.64164 5.09532 0
M  V30 2890 N 291.186 -0.45159 -1.50991 0
M  V30 2891 C 292.414 0.108334 -2.06616 0
M  V30 2892 C 292.829 1.35224 -1.31757 0
M  V30 2893 O 292.186 1.78475 -0.381174 0
M  V30 2894 C 292.237 0.41619 -3.59096 0
M  V30 2895 O 291.958 -0.778361 -4.3113 0
M  V30 2896 C 293.459 1.02523 -4.31282 0
M  V30 2897 H 290.679 0.00159995 -0.670998 0
M  V30 2898 H 293.223 -0.634771 -1.94399 0
M  V30 2899 H 291.378 1.10921 -3.71181 0
M  V30 2900 H 291.792 -0.511181 -5.22003 0
M  V30 2901 H 293.266 1.19053 -5.39009 0
M  V30 2902 H 293.743 2.01013 -3.905 0
M  V30 2903 H 294.349 0.371173 -4.23677 0
M  V30 2904 N 292.664 1.56529 -0.183458 0
M  V30 2905 C 293.889 2.02064 0.467428 0
M  V30 2906 C 294.314 1.06282 1.55196 0
M  V30 2907 O 293.672 0.0443565 1.81246 0
M  V30 2908 C 293.72 3.46122 1.01153 0
M  V30 2909 O 292.824 3.53437 2.12499 0
M  V30 2910 H 292.165 0.654726 0.110588 0
M  V30 2911 H 294.695 2.02521 -0.290917 0
M  V30 2912 H 294.705 3.85676 1.33108 0
M  V30 2913 H 293.38 4.15331 0.217533 0
M  V30 2914 H 291.957 3.2575 1.81497 0
M  V30 2915 N 294.142 -0.090211 1.57342 0
M  V30 2916 C 295.37 -0.806224 1.90546 0
M  V30 2917 C 295.785 -1.72041 0.777644 0
M  V30 2918 O 295.142 -1.80778 -0.250103 0
M  V30 2919 C 295.193 -1.61546 3.23396 0
M  V30 2920 O 294.914 -0.738043 4.31839 0
M  V30 2921 C 296.415 -2.4341 3.70495 0
M  V30 2922 H 293.635 -0.230256 0.630257 0
M  V30 2923 H 296.179 -0.0659843 2.04394 0
M  V30 2924 H 294.334 -2.30816 3.11131 0
M  V30 2925 H 294.748 -1.29901 5.08159 0
M  V30 2926 H 296.222 -2.95676 4.66133 0
M  V30 2927 H 296.699 -3.22098 2.98579 0
M  V30 2928 H 297.305 -1.79331 3.85643 0
M  V30 2929 N 295.62 -1.53406 -0.361157 0
M  V30 2930 C 296.85 -1.73465 -1.1222 0
M  V30 2931 C 297.258 -0.465486 -1.83384 0
M  V30 2932 O 296.601 0.571611 -1.7458 0
M  V30 2933 C 296.663 -2.84834 -2.19339 0
M  V30 2934 C 296.327 -4.25038 -1.67903 0
M  V30 2935 C 297.324 -5.07231 -1.14074 0
M  V30 2936 C 295.009 -4.71464 -1.73282 0
M  V30 2937 C 297.003 -6.33942 -0.663068 0
M  V30 2938 C 294.69 -5.98153 -1.25127 0
M  V30 2939 C 295.688 -6.79223 -0.717296 0
M  V30 2940 O 295.376 -8.03533 -0.242865 0
M  V30 2941 H 295.108 -0.583526 -0.341283 0
M  V30 2942 H 297.662 -2.00964 -0.424591 0
M  V30 2943 H 295.892 -2.5282 -2.92607 0
M  V30 2944 H 297.581 -2.9303 -2.80871 0
M  V30 2945 H 298.347 -4.72534 -1.09254 0
M  V30 2946 H 294.226 -4.08432 -2.13786 0
M  V30 2947 H 297.77 -6.97167 -0.245612 0
M  V30 2948 H 293.667 -6.32347 -1.29642 0
M  V30 2949 H 294.435 -8.177 -0.361786 0
M  V30 2950 N 297.098 0.621204 -1.44841 0
M  V30 2951 C 298.347 1.37658 -1.47422 0
M  V30 2952 C 298.66 1.95264 -0.114629 0
M  V30 2953 O 299.866 2.71494 -0.0180199 0
M  V30 2954 C 298.322 2.49285 -2.59586 0
M  V30 2955 C 297.93 1.98149 -4.01797 0
M  V30 2956 C 299.674 3.26409 -2.71399 0
M  V30 2957 C 297.581 3.07178 -5.05367 0
M  V30 2958 H 296.511 0.517344 -0.548517 0
M  V30 2959 H 299.162 0.667257 -1.70938 0
M  V30 2960 H 297.544 3.22839 -2.29328 0
M  V30 2961 H 298.718 1.31395 -4.41669 0
M  V30 2962 H 297.033 1.33812 -3.94314 0
M  V30 2963 H 299.63 4.07706 -3.45948 0
M  V30 2964 H 299.973 3.76535 -1.77559 0
M  V30 2965 H 300.506 2.5995 -3.01116 0
M  V30 2966 H 297.245 2.61985 -6.00869 0
M  V30 2967 H 296.765 3.72542 -4.70077 0
M  V30 2968 H 298.444 3.71789 -5.29511 0
M  V30 2969 N 298.576 1.31904 0.862503 0
M  V30 2970 C 299.506 1.22782 1.98612 0
M  V30 2971 C 300.487 0.113362 1.69722 0
M  V30 2972 O 301.672 0.299218 1.91881 0
M  V30 2973 C 298.802 0.942058 3.34279 0
M  V30 2974 C 297.756 2.0169 3.77499 0
M  V30 2975 C 297.082 1.58369 5.10709 0
M  V30 2976 C 298.382 3.43096 3.93805 0
M  V30 2977 H 300.076 2.16788 2.06502 0
M  V30 2978 H 297.622 1.04366 0.992154 0
M  V30 2979 H 299.575 0.864818 4.1243 0
M  V30 2980 H 298.299 -0.0336603 3.26583 0
M  V30 2981 H 296.958 2.08416 3.01593 0
M  V30 2982 H 296.606 0.595628 4.99461 0
M  V30 2983 H 296.306 2.30279 5.40597 0
M  V30 2984 H 297.83 1.52067 5.91361 0
M  V30 2985 H 299.244 3.39003 4.62331 0
M  V30 2986 H 297.641 4.13288 4.35101 0
M  V30 2987 H 298.711 3.83334 2.96957 0
M  V30 2988 N 300.054 -1.07777 1.14986 0
M  V30 2989 C 301.282 -1.84018 0.945773 0
M  V30 2990 C 301.697 -1.81897 -0.505863 0
M  V30 2991 O 301.054 -1.22726 -1.35072 0
M  V30 2992 C 301.105 -3.31287 1.44677 0
M  V30 2993 O 300.826 -3.33449 2.84154 0
M  V30 2994 C 302.327 -4.24311 1.28355 0
M  V30 2995 H 299.547 -0.580716 0.336169 0
M  V30 2996 H 302.091 -1.36077 1.52654 0
M  V30 2997 H 300.246 -3.76594 0.908625 0
M  V30 2998 H 300.66 -4.25427 3.06777 0
M  V30 2999 H 302.134 -5.2573 1.68261 0
M  V30 3000 H 302.611 -4.38612 0.227184 0
M  V30 3001 H 303.217 -3.84836 1.81056 0
M  V30 3002 N 301.532 -0.945985 -1.26051 0
M  V30 3003 C 302.495 -0.463897 -2.24456 0
M  V30 3004 C 303.495 0.427655 -1.55009 0
M  V30 3005 O 304.685 0.226157 -1.72726 0
M  V30 3006 C 301.817 0.330812 -3.39291 0
M  V30 3007 H 303.01 -1.33357 -2.68619 0
M  V30 3008 H 300.563 -0.728416 -1.38289 0
M  V30 3009 H 301.298 1.21852 -3.00537 0
M  V30 3010 H 301.083 -0.308679 -3.90883 0
M  V30 3011 H 302.573 0.657865 -4.12386 0
M  V30 3012 N 303.011 1.40521 -0.713556 0
M  V30 3013 C 303.944 2.28198 -0.00881422 0
M  V30 3014 C 304.922 1.43227 0.769735 0
M  V30 3015 O 306.106 1.72641 0.756799 0
M  V30 3016 C 303.233 3.23758 0.994899 0
M  V30 3017 C 302.279 4.25391 0.3074 0
M  V30 3018 S 303.112 5.26765 -0.963247 0
M  V30 3019 C 304.268 6.25888 0.0384143 0
M  V30 3020 H 304.501 2.87622 -0.752407 0
M  V30 3021 H 302.034 1.45925 -0.504502 0
M  V30 3022 H 303.992 3.79341 1.56879 0
M  V30 3023 H 302.653 2.63396 1.71118 0
M  V30 3024 H 301.846 4.92596 1.0661 0
M  V30 3025 H 301.448 3.73497 -0.193879 0
M  V30 3026 H 303.74 6.71683 0.885912 0
M  V30 3027 H 304.683 7.05552 -0.60019 0
M  V30 3028 H 305.091 5.63072 0.401233 0
M  V30 3029 N 304.489 0.459591 1.5075 0
M  V30 3030 C 305.452 -0.329093 2.26825 0
M  V30 3031 C 306.452 -0.930481 1.31144 0
M  V30 3032 O 307.642 -0.801453 1.54669 0
M  V30 3033 C 304.774 -1.46768 3.07688 0
M  V30 3034 H 305.967 0.337924 2.9799 0
M  V30 3035 H 303.52 0.213336 1.54837 0
M  V30 3036 H 304.255 -2.17009 2.40993 0
M  V30 3037 H 304.04 -1.04238 3.77991 0
M  V30 3038 H 305.53 -2.02433 3.65254 0
M  V30 3039 N 305.967 -1.56429 0.191757 0
M  V30 3040 C 307.216 -1.9666 -0.448088 0
M  V30 3041 C 307.529 -1.08136 -1.62991 0
M  V30 3042 O 308.735 -1.38135 -2.33733 0
M  V30 3043 C 307.191 -3.49753 -0.848585 0
M  V30 3044 C 306.799 -4.46935 0.308764 0
M  V30 3045 C 308.543 -3.9876 -1.4557 0
M  V30 3046 C 306.45 -5.91293 -0.112506 0
M  V30 3047 H 305.38 -0.734312 -0.171179 0
M  V30 3048 H 308.031 -1.81301 0.283242 0
M  V30 3049 H 306.413 -3.60604 -1.63649 0
M  V30 3050 H 307.587 -4.47813 1.08627 0
M  V30 3051 H 305.902 -4.08102 0.827158 0
M  V30 3052 H 308.499 -5.04086 -1.78328 0
M  V30 3053 H 308.842 -3.42875 -2.36099 0
M  V30 3054 H 309.375 -3.9101 -0.731836 0
M  V30 3055 H 306.114 -6.51097 0.758514 0
M  V30 3056 H 305.634 -5.93676 -0.854941 0
M  V30 3057 H 307.313 -6.44663 -0.549448 0
M  V30 3058 N 307.445 0.0818655 -1.57387 0
M  V30 3059 C 308.722 0.815343 -1.77796 0
M  V30 3060 C 309.102 1.96289 -0.77679 0
M  V30 3061 O 308.45 2.27691 0.192106 0
M  V30 3062 C 308.66 1.29765 -3.23978 0
M  V30 3063 C 310.008 1.7351 -3.8753 0
M  V30 3064 O 311.032 1.39356 -3.27808 0
M  V30 3065 O 309.891 2.36708 -4.92576 0
M  V30 3066 H 306.985 0.389914 -0.729312 0
M  V30 3067 H 309.531 0.0627213 -1.69584 0
M  V30 3068 H 308.303 0.47608 -3.88393 0
M  V30 3069 H 307.926 2.11189 -3.36875 0
M  V30 3070 N 308.923 1.53595 0.353017 0
M  V30 3071 C 310.339 1.43648 0.695516 0
M  V30 3072 C 310.539 0.585617 1.92802 0
M  V30 3073 O 309.595 0.0729223 2.52395 0
M  V30 3074 C 310.908 2.8701 0.896991 0
M  V30 3075 C 312.456 2.96723 0.996209 0
M  V30 3076 C 312.931 4.41173 1.23007 0
M  V30 3077 N 314.422 4.44657 1.29749 0
M  V30 3078 C 315.157 5.53547 1.49577 0
M  V30 3079 N 314.653 6.72461 1.66639 0
M  V30 3080 N 316.446 5.41145 1.52048 0
M  V30 3081 H 308.597 2.07415 -0.457481 0
M  V30 3082 H 310.86 0.9372 -0.142687 0
M  V30 3083 H 310.566 3.51644 0.0629938 0
M  V30 3084 H 310.44 3.31401 1.80148 0
M  V30 3085 H 312.827 2.32235 1.82074 0
M  V30 3086 H 312.908 2.55707 0.0688331 0
M  V30 3087 H 312.552 5.06238 0.410505 0
M  V30 3088 H 312.482 4.79772 2.17086 0
M  V30 3089 H 314.973 3.58963 1.18126 0
M  V30 3090 H 315.286 7.51214 1.81378 0
M  V30 3091 H 313.631 6.75423 1.63794 0
M  V30 3092 H 316.822 4.47205 1.38294 0
M  V30 3093 H 316.995 6.26068 1.67159 0
M  V30 3094 N 310.401 -0.613514 1.45168 0
M  V30 3095 C 311.631 -1.39743 1.52169 0
M  V30 3096 C 312.039 -1.88596 0.151086 0
M  V30 3097 O 311.382 -1.6251 -0.856521 0
M  V30 3098 C 311.444 -2.64035 2.43979 0
M  V30 3099 C 311.108 -2.36861 3.90827 0
M  V30 3100 C 312.105 -1.97591 4.80889 0
M  V30 3101 C 309.79 -2.49956 4.35692 0
M  V30 3102 C 311.784 -1.71768 6.1382 0
M  V30 3103 C 309.471 -2.23747 5.68665 0
M  V30 3104 C 310.469 -1.84714 6.57548 0
M  V30 3105 O 310.157 -1.58809 7.88058 0
M  V30 3106 H 309.889 -0.434382 0.517966 0
M  V30 3107 H 312.443 -0.75587 1.90986 0
M  V30 3108 H 310.673 -3.3089 2.00122 0
M  V30 3109 H 312.362 -3.26069 2.41731 0
M  V30 3110 H 313.128 -1.87015 4.47493 0
M  V30 3111 H 309.007 -2.79305 3.66756 0
M  V30 3112 H 312.551 -1.41227 6.83155 0
M  V30 3113 H 308.448 -2.33938 6.01617 0
M  V30 3114 H 309.216 -1.7291 8.00028 0
M  V30 3115 N 311.879 -1.3236 -0.855495 0
M  V30 3116 C 312.809 -1.23833 -1.97958 0
M  V30 3117 C 313.79 -0.122361 -1.69659 0
M  V30 3118 O 314.975 -0.30939 -1.9172 0
M  V30 3119 C 312.105 -0.959772 -3.33775 0
M  V30 3120 C 311.059 -2.03689 -3.76424 0
M  V30 3121 C 310.385 -1.61075 -5.09862 0
M  V30 3122 C 311.685 -3.4518 -3.9198 0
M  V30 3123 H 313.379 -2.1788 -2.0535 0
M  V30 3124 H 310.925 -1.04891 -0.986605 0
M  V30 3125 H 312.878 -0.886678 -4.11966 0
M  V30 3126 H 311.602 0.0163404 -3.26596 0
M  V30 3127 H 310.261 -2.10012 -3.00484 0
M  V30 3128 H 309.909 -0.622107 -4.99138 0
M  V30 3129 H 309.609 -2.33143 -5.39368 0
M  V30 3130 H 311.133 -1.55201 -5.90546 0
M  V30 3131 H 312.547 -3.4145 -4.60526 0
M  V30 3132 H 310.944 -4.1559 -4.32903 0
M  V30 3133 H 312.014 -3.84903 -2.94919 0
M  V30 3134 N 313.357 1.07166 -1.15556 0
M  V30 3135 C 314.32 2.12589 -0.856644 0
M  V30 3136 C 315.32 1.6015 0.14444 0
M  V30 3137 O 316.51 1.7399 -0.0854163 0
M  V30 3138 C 313.642 3.39753 -0.279405 0
M  V30 3139 H 314.835 2.40539 -1.79112 0
M  V30 3140 H 312.388 1.23086 -0.963298 0
M  V30 3141 H 313.123 3.17447 0.663174 0
M  V30 3142 H 312.908 3.79117 -1.00063 0
M  V30 3143 H 314.398 4.17507 -0.0879113 0
M  V30 3144 N 314.835 0.952656 1.25548 0
M  V30 3145 C 316.063 0.623496 1.97282 0
M  V30 3146 C 316.478 -0.803987 1.70826 0
M  V30 3147 O 315.835 -1.53755 0.983147 0
M  V30 3148 C 315.886 0.870209 3.5087 0
M  V30 3149 O 315.607 2.24156 3.76412 0
M  V30 3150 C 317.108 0.553164 4.39835 0
M  V30 3151 H 314.328 0.233931 0.628902 0
M  V30 3152 H 316.872 1.27649 1.59768 0
M  V30 3153 H 315.027 0.263652 3.86502 0
M  V30 3154 H 315.441 2.31021 4.70882 0
M  V30 3155 H 316.915 0.776342 5.46513 0
M  V30 3156 H 317.392 -0.512215 4.36203 0
M  V30 3157 H 317.998 1.13896 4.09766 0
M  V30 3158 N 316.313 -1.40141 0.720998 0
M  V30 3159 C 317.559 -2.01084 0.263231 0
M  V30 3160 C 317.892 -1.57052 -1.14229 0
M  V30 3161 O 317.167 -0.793027 -1.77599 0
M  V30 3162 C 317.45 -3.58401 0.349344 0
M  V30 3163 C 317.303 -4.12491 1.79363 0
M  V30 3164 C 318.622 -4.39231 -0.276351 0
M  V30 3165 H 315.741 -0.730572 0.0971228 0
M  V30 3166 H 318.383 -1.66543 0.914518 0
M  V30 3167 H 316.533 -3.87958 -0.205165 0
M  V30 3168 H 318.205 -3.93711 2.40394 0
M  V30 3169 H 316.448 -3.66576 2.31958 0
M  V30 3170 H 317.119 -5.21646 1.80524 0
M  V30 3171 H 319.595 -4.15637 0.196184 0
M  V30 3172 H 318.471 -5.48586 -0.185681 0
M  V30 3173 H 318.732 -4.20643 -1.36059 0
M  V30 3174 N 317.792 -0.46758 -1.50504 0
M  V30 3175 C 318.742 0.34698 -2.25344 0
M  V30 3176 C 319.726 0.964469 -1.2879 0
M  V30 3177 O 320.918 0.8776 -1.53711 0
M  V30 3178 C 318.047 1.43042 -3.1208 0
M  V30 3179 C 317.133 0.82084 -4.16081 0
M  V30 3180 N 317.524 -0.0567602 -5.05768 0
M  V30 3181 C 315.822 1.08517 -4.32597 0
M  V30 3182 C 316.523 -0.402343 -5.80307 0
M  V30 3183 N 315.499 0.221607 -5.43148 0
M  V30 3184 H 319.301 -0.329129 -2.92051 0
M  V30 3185 H 316.815 -0.281508 -1.59942 0
M  V30 3186 H 318.812 2.02712 -3.64299 0
M  V30 3187 H 317.472 2.10856 -2.46921 0
M  V30 3188 H 318.483 -0.425349 -5.1615 0
M  V30 3189 H 315.16 1.75855 -3.78657 0
M  V30 3190 H 316.55 -1.11834 -6.62528 0
M  V30 3191 N 319.27 1.56325 -0.20005 0
M  V30 3192 C 320.681 1.8408 0.31167 0
M  V30 3193 C 321.032 1.12087 1.61031 0
M  V30 3194 O 320.157 0.38332 2.12978 0
M  V30 3195 C 320.752 3.33932 0.57226 0
M  V30 3196 C 319.311 3.6208 1.02834 0
M  V30 3197 C 318.458 2.77186 0.079634 0
M  V30 3198 H 321.409 1.52939 -0.423729 0
M  V30 3199 H 321.43 3.52971 1.42096 0
M  V30 3200 H 320.942 3.86303 -0.37308 0
M  V30 3201 H 319.043 3.15147 1.98778 0
M  V30 3202 H 319.156 4.7023 0.917624 0
M  V30 3203 H 317.52 2.47951 0.582448 0
M  V30 3204 H 318.303 3.32347 -0.860238 0
M  V30 3205 N 320.748 -0.0735177 1.57428 0
M  V30 3206 C 321.997 -0.771809 1.86349 0
M  V30 3207 C 322.31 -1.78828 0.792452 0
M  V30 3208 O 323.516 -2.53602 0.96945 0
M  V30 3209 C 321.972 -1.42358 3.30548 0
M  V30 3210 C 321.58 -0.445761 4.45777 0
M  V30 3211 C 323.324 -2.10434 3.6867 0
M  V30 3212 C 321.231 -1.10335 5.81016 0
M  V30 3213 H 320.161 -0.291999 0.695164 0
M  V30 3214 H 322.812 -0.0250749 1.83483 0
M  V30 3215 H 321.194 -2.21852 3.28021 0
M  V30 3216 H 322.368 0.319239 4.59693 0
M  V30 3217 H 320.683 0.130457 4.16196 0
M  V30 3218 H 323.28 -2.60405 4.67004 0
M  V30 3219 H 323.623 -2.90298 2.98383 0
M  V30 3220 H 324.156 -1.37773 3.7318 0
M  V30 3221 H 320.895 -0.345061 6.54591 0
M  V30 3222 H 320.415 -1.83925 5.70904 0
M  V30 3223 H 322.094 -1.62367 6.26295 0
M  V30 3224 N 322.226 -1.5378 -0.344866 0
M  V30 3225 C 323.451 -1.75211 -1.10977 0
M  V30 3226 C 323.876 -0.48936 -1.81623 0
M  V30 3227 O 323.234 0.557925 -1.72502 0
M  V30 3228 C 323.282 -2.93147 -2.09993 0
M  V30 3229 O 322.386 -2.63203 -3.17487 0
M  V30 3230 H 321.727 -0.581241 -0.321021 0
M  V30 3231 H 324.257 -2.00738 -0.395661 0
M  V30 3232 H 324.267 -3.19898 -2.53237 0
M  V30 3233 H 322.942 -3.84731 -1.5797 0
M  V30 3234 H 321.519 -2.47336 -2.79069 0
M  V30 3235 N 323.704 0.605807 -1.45491 0
M  V30 3236 C 324.929 1.39625 -1.53361 0
M  V30 3237 C 325.354 1.87351 -0.167645 0
M  V30 3238 O 324.712 1.60243 0.848051 0
M  V30 3239 C 324.76 2.57559 -2.5238 0
M  V30 3240 O 323.864 3.58248 -2.04285 0
M  V30 3241 H 323.205 0.416771 -0.516912 0
M  V30 3242 H 325.735 0.737103 -1.90861 0
M  V30 3243 H 325.745 3.0478 -2.71244 0
M  V30 3244 H 324.42 2.22171 -3.51586 0
M  V30 3245 H 322.997 3.17664 -1.95305 0
M  V30 3246 N 325.182 1.32811 0.848464 0
M  V30 3247 C 326.41 1.26739 1.63538 0
M  V30 3248 C 326.825 -0.163484 1.88091 0
M  V30 3249 O 326.182 -1.10258 1.45429 0
M  V30 3250 C 326.233 2.03013 2.99112 0
M  V30 3251 O 325.954 3.40518 2.75643 0
M  V30 3252 C 327.455 2.04038 3.93552 0
M  V30 3253 H 324.675 0.437024 0.509167 0
M  V30 3254 H 327.219 1.75033 1.05753 0
M  V30 3255 H 325.374 1.58426 3.53525 0
M  V30 3256 H 325.788 3.79635 3.61908 0
M  V30 3257 H 327.262 2.61877 4.85926 0
M  V30 3258 H 327.739 1.0282 4.26995 0
M  V30 3259 H 328.345 2.486 3.45077 0
M  V30 3260 N 326.66 -1.06551 1.16123 0
M  V30 3261 C 327.607 -2.13961 0.865414 0
M  V30 3262 C 328.577 -1.65066 -0.185055 0
M  V30 3263 O 329.762 -1.90732 -0.05083 0
M  V30 3264 C 326.902 -3.43113 0.369776 0
M  V30 3265 C 326.015 -4.05756 1.48276 0
M  V30 3266 C 325.15 -5.22773 0.942414 0
M  V30 3267 C 324.189 -5.77395 2.03179 0
M  V30 3268 N 323.326 -6.85731 1.50721 0
M  V30 3269 H 328.166 -2.38605 1.78527 0
M  V30 3270 H 325.703 -1.17072 0.890646 0
M  V30 3271 H 327.661 -4.17151 0.0640643 0
M  V30 3272 H 326.291 -3.18695 -0.513143 0
M  V30 3273 H 325.343 -3.29292 1.9045 0
M  V30 3274 H 326.655 -4.42351 2.30493 0
M  V30 3275 H 325.809 -6.03827 0.589729 0
M  V30 3276 H 324.548 -4.87618 0.0895191 0
M  V30 3277 H 323.553 -4.94981 2.3932 0
M  V30 3278 H 324.778 -6.14603 2.8886 0
M  V30 3279 H 322.724 -6.52499 0.676811 0
M  V30 3280 H 322.641 -7.21254 2.26557 0
M  V30 3281 H 323.909 -7.7047 1.18303 0
M  V30 3282 N 328.138 -0.959301 -1.25041 0
M  V30 3283 C 329.385 -0.616611 -1.92884 0
M  V30 3284 C 329.713 0.847036 -1.75087 0
M  V30 3285 O 328.968 1.62374 -1.09239 0
M  V30 3286 C 329.267 -0.927136 -3.45165 0
M  V30 3287 C 328.933 -2.37757 -3.83122 0
M  V30 3288 C 327.595 -2.77402 -3.93194 0
M  V30 3289 C 329.947 -3.31929 -4.01836 0
M  V30 3290 C 327.275 -4.10277 -4.19392 0
M  V30 3291 C 329.627 -4.64423 -4.29528 0
M  V30 3292 C 328.291 -5.03857 -4.37818 0
M  V30 3293 H 327.561 -0.225634 -0.705812 0
M  V30 3294 H 330.208 -1.20921 -1.48493 0
M  V30 3295 H 328.513 -0.252195 -3.90987 0
M  V30 3296 H 330.21 -0.6405 -3.95852 0
M  V30 3297 H 326.8 -2.06013 -3.75841 0
M  V30 3298 H 330.984 -3.02488 -3.93465 0
M  V30 3299 H 326.24 -4.40467 -4.24027 0
M  V30 3300 H 330.414 -5.37369 -4.42953 0
M  V30 3301 H 328.041 -6.06843 -4.57871 0
M  V30 3302 N 329.616 1.39756 -0.72842 0
M  V30 3303 C 331.032 1.5442 -0.403308 0
M  V30 3304 C 331.232 1.69694 1.08656 0
M  V30 3305 O 330.288 1.69373 1.87267 0
M  V30 3306 C 331.601 2.76555 -1.18058 0
M  V30 3307 C 333.149 2.90384 -1.16815 0
M  V30 3308 C 333.624 4.15449 -1.92785 0
M  V30 3309 N 335.115 4.22475 -1.89918 0
M  V30 3310 C 335.85 5.1818 -2.45514 0
M  V30 3311 N 335.346 6.19714 -3.09719 0
M  V30 3312 N 337.139 5.1035 -2.35584 0
M  V30 3313 H 329.29 1.28089 -1.69431 0
M  V30 3314 H 331.553 0.620327 -0.716867 0
M  V30 3315 H 331.259 2.7159 -2.23455 0
M  V30 3316 H 331.133 3.69033 -0.780662 0
M  V30 3317 H 333.52 2.94846 -0.12234 0
M  V30 3318 H 333.601 1.98988 -1.6074 0
M  V30 3319 H 333.245 4.11749 -2.97364 0
M  V30 3320 H 333.175 5.05877 -1.46272 0
M  V30 3321 H 335.666 3.49743 -1.43138 0
M  V30 3322 H 335.979 6.8919 -3.49625 0
M  V30 3323 H 334.324 6.20121 -3.13807 0
M  V30 3324 H 337.515 4.2996 -1.85072 0
M  V30 3325 H 337.688 5.84761 -2.79211 0
M  V30 3326 N 331.094 0.475555 1.50254 0
M  V30 3327 C 332.041 -0.316293 2.28622 0
M  V30 3328 C 333.011 -0.983227 1.33873 0
M  V30 3329 O 334.196 -0.994805 1.62814 0
M  V30 3330 C 331.336 -1.38975 3.1588 0
M  V30 3331 C 330.449 -0.737146 4.25664 0
M  V30 3332 C 329.584 -1.78887 5.00173 0
M  V30 3333 C 328.623 -1.11676 6.01826 0
M  V30 3334 N 327.76 -2.11154 6.69596 0
M  V30 3335 H 332.6 0.358297 2.95838 0
M  V30 3336 H 330.137 0.188541 1.45887 0
M  V30 3337 H 332.095 -2.02383 3.64825 0
M  V30 3338 H 330.725 -2.03344 2.50701 0
M  V30 3339 H 329.777 0.0096065 3.80399 0
M  V30 3340 H 331.089 -0.206816 4.98371 0
M  V30 3341 H 330.243 -2.49865 5.52859 0
M  V30 3342 H 328.982 -2.35302 4.27182 0
M  V30 3343 H 327.987 -0.392633 5.48396 0
M  V30 3344 H 329.212 -0.55945 6.76792 0
M  V30 3345 H 327.158 -2.66577 5.99394 0
M  V30 3346 H 327.075 -1.63118 7.38193 0
M  V30 3347 H 328.343 -2.81497 7.26897 0
M  V30 3348 N 332.573 -1.56217 0.208337 0
M  V30 3349 C 333.984 -1.84243 -0.301904 0
M  V30 3350 C 334.335 -1.12939 -1.60434 0
M  V30 3351 O 333.46 -0.39461 -2.12772 0
M  V30 3352 C 334.055 -3.34231 -0.554543 0
M  V30 3353 C 332.614 -3.62621 -1.00912 0
M  V30 3354 C 331.761 -2.77224 -0.064933 0
M  V30 3355 H 334.712 -1.52712 0.431833 0
M  V30 3356 H 334.733 -3.5372 -1.40223 0
M  V30 3357 H 334.245 -3.86099 0.393561 0
M  V30 3358 H 332.346 -3.16197 -1.97104 0
M  V30 3359 H 332.459 -4.7071 -0.892674 0
M  V30 3360 H 330.823 -2.48256 -0.56929 0
M  V30 3361 H 331.606 -3.31887 0.877851 0
M  V30 3362 N 334.051 0.0651679 -1.57465 0
M  V30 3363 C 335.276 0.779605 -1.9219 0
M  V30 3364 C 335.701 1.69988 -0.805333 0
M  V30 3365 O 335.059 1.79685 0.241435 0
M  V30 3366 C 335.107 1.54364 -3.2589 0
M  V30 3367 O 334.211 2.65474 -3.1559 0
M  V30 3368 H 333.552 0.212249 -0.629163 0
M  V30 3369 H 336.082 0.0314294 -2.04576 0
M  V30 3370 H 336.092 1.92146 -3.59922 0
M  V30 3371 H 334.767 0.868457 -4.06732 0
M  V30 3372 H 333.344 2.30501 -2.93128 0
M  V30 3373 N 335.529 1.53961 0.336706 0
M  V30 3374 C 336.775 1.7179 1.07777 0
M  V30 3375 C 337.108 0.483263 1.88091 0
M  V30 3376 O 336.383 -0.519747 1.87427 0
M  V30 3377 C 336.666 2.98558 2.01334 0
M  V30 3378 C 336.519 4.32245 1.24437 0
M  V30 3379 C 337.838 3.21023 3.01052 0
M  V30 3380 H 334.957 0.625089 0.390426 0
M  V30 3381 H 337.599 1.86641 0.35567 0
M  V30 3382 H 335.749 2.86028 2.62908 0
M  V30 3383 H 337.421 4.56637 0.654243 0
M  V30 3384 H 335.664 4.30344 0.546458 0
M  V30 3385 H 336.335 5.17137 1.93063 0
M  V30 3386 H 338.811 3.32929 2.49595 0
M  V30 3387 H 337.687 4.11104 3.6371 0
M  V30 3388 H 337.948 2.37637 3.72802 0
M  V30 3389 N 337.007 -0.598083 1.45811 0
M  V30 3390 C 337.97 -1.69018 1.54808 0
M  V30 3391 C 338.97 -1.55037 0.426652 0
M  V30 3392 O 340.16 -1.59932 0.690456 0
M  V30 3393 C 337.292 -3.0835 1.45371 0
M  V30 3394 H 338.485 -1.62403 2.52121 0
M  V30 3395 H 336.038 -0.814626 1.33392 0
M  V30 3396 H 336.773 -3.20534 0.492793 0
M  V30 3397 H 336.558 -3.19907 2.26721 0
M  V30 3398 H 338.048 -3.8788 1.54721 0
M  V30 3399 N 338.485 -1.33259 -0.841409 0
M  V30 3400 C 339.713 -1.27605 -1.62864 0
M  V30 3401 C 340.128 0.153507 -1.88175 0
M  V30 3402 O 339.485 1.09485 -1.46011 0
M  V30 3403 C 339.536 -2.04596 -2.98031 0
M  V30 3404 O 339.257 -3.41975 -2.73834 0
M  V30 3405 C 340.758 -2.06122 -3.92465 0
M  V30 3406 H 337.978 -0.439718 -0.506842 0
M  V30 3407 H 340.522 -1.75591 -1.04824 0
M  V30 3408 H 338.677 -1.60299 -3.5268 0
M  V30 3409 H 339.091 -3.81549 -3.59889 0
M  V30 3410 H 340.565 -2.64451 -4.84531 0
M  V30 3411 H 341.042 -1.05083 -4.26444 0
M  V30 3412 H 341.648 -2.50427 -3.43753 0
M  V30 3413 N 339.963 1.05934 -1.16686 0
M  V30 3414 C 340.893 2.1546 -0.899949 0
M  V30 3415 C 341.874 1.69391 0.155154 0
M  V30 3416 O 343.059 1.94199 0.00648693 0
M  V30 3417 C 340.189 3.44939 -0.404241 0
M  V30 3418 C 339.143 4.04536 -1.39767 0
M  V30 3419 C 338.469 5.29268 -0.760216 0
M  V30 3420 C 339.769 4.42893 -2.76845 0
M  V30 3421 H 341.463 2.38046 -1.81588 0
M  V30 3422 H 339.009 1.14404 -0.874514 0
M  V30 3423 H 340.962 4.20901 -0.204971 0
M  V30 3424 H 339.686 3.21983 0.547206 0
M  V30 3425 H 338.345 3.30635 -1.58355 0
M  V30 3426 H 337.993 5.02611 0.197831 0
M  V30 3427 H 337.693 5.70101 -1.42332 0
M  V30 3428 H 339.217 6.07924 -0.57105 0
M  V30 3429 H 340.631 5.09921 -2.62019 0
M  V30 3430 H 339.028 4.94721 -3.39663 0
M  V30 3431 H 340.098 3.53584 -3.31823 0
M  V30 3432 N 341.441 0.965919 1.2453 0
M  V30 3433 C 342.687 0.62776 1.92839 0
M  V30 3434 C 343.02 -0.834694 1.75347 0
M  V30 3435 O 342.295 -1.60031 1.10546 0
M  V30 3436 C 342.578 1.00109 3.45905 0
M  V30 3437 C 342.431 2.52011 3.72573 0
M  V30 3438 C 343.75 0.53435 4.36844 0
M  V30 3439 H 340.869 0.229537 0.700344 0
M  V30 3440 H 343.511 1.2046 1.46933 0
M  V30 3441 H 341.661 0.510238 3.85135 0
M  V30 3442 H 343.333 3.08559 3.42912 0
M  V30 3443 H 341.576 2.95287 3.17786 0
M  V30 3444 H 342.247 2.73183 4.79661 0
M  V30 3445 H 344.723 0.955565 4.04979 0
M  V30 3446 H 343.599 0.824152 5.42678 0
M  V30 3447 H 343.86 -0.565589 4.38467 0
M  V30 3448 N 342.919 -1.39368 0.735821 0
M  V30 3449 C 344.168 -1.99733 0.281004 0
M  V30 3450 C 344.481 -1.59055 -1.13846 0
M  V30 3451 O 345.687 -2.12262 -1.69284 0
M  V30 3452 C 344.143 -3.57057 0.451462 0
M  V30 3453 C 343.751 -4.06697 1.87886 0
M  V30 3454 C 345.495 -4.2446 0.0584616 0
M  V30 3455 C 343.402 -5.56598 1.99883 0
M  V30 3456 H 342.332 -0.747163 0.101311 0
M  V30 3457 H 344.983 -1.59357 0.909819 0
M  V30 3458 H 343.365 -3.95234 -0.246263 0
M  V30 3459 H 344.539 -3.79853 2.60861 0
M  V30 3460 H 342.854 -3.5196 2.22515 0
M  V30 3461 H 345.451 -5.34549 0.127099 0
M  V30 3462 H 345.794 -4.04444 -0.986433 0
M  V30 3463 H 346.327 -3.9146 0.707374 0
M  V30 3464 H 343.066 -5.81494 3.02564 0
M  V30 3465 H 342.586 -5.85242 1.31346 0
M  V30 3466 H 344.265 -6.22022 1.78039 0
M  V30 3467 N 344.397 -0.483516 -1.5 0
M  V30 3468 C 345.637 0.0657469 -2.04294 0
M  V30 3469 C 346.001 1.35869 -1.35659 0
M  V30 3470 O 347.202 1.99111 -1.80578 0
M  V30 3471 C 345.473 0.232758 -3.56641 0
M  V30 3472 S 347.032 0.738788 -4.32536 0
M  V30 3473 H 343.85 0.0100755 -0.710929 0
M  V30 3474 H 346.452 -0.653494 -1.84254 0
M  V30 3475 H 345.156 -0.713847 -4.04144 0
M  V30 3476 H 344.687 0.977751 -3.81056 0
M  V30 3477 H 346.702 2.01048 -4.53645 0
M  V30 3478 N 345.875 1.56104 -0.216619 0
M  V30 3479 C 346.805 2.23063 0.690296 0
M  V30 3480 C 347.786 1.20072 1.20485 0
M  V30 3481 O 348.971 1.48643 1.24976 0
M  V30 3482 C 346.101 2.90672 1.90072 0
M  V30 3483 C 345.055 4.00092 1.5202 0
M  V30 3484 C 344.381 4.54972 2.80899 0
M  V30 3485 C 345.681 5.17398 0.71391 0
M  V30 3486 H 347.375 2.99109 0.132038 0
M  V30 3487 H 344.921 1.43866 0.0620664 0
M  V30 3488 H 346.874 3.36204 2.54057 0
M  V30 3489 H 345.598 2.12066 2.48386 0
M  V30 3490 H 344.257 3.55283 0.903839 0
M  V30 3491 H 343.905 3.73102 3.37348 0
M  V30 3492 H 343.605 5.28817 2.56176 0
M  V30 3493 H 345.129 5.0322 3.45836 0
M  V30 3494 H 346.543 5.59342 1.25735 0
M  V30 3495 H 344.94 5.97444 0.563951 0
M  V30 3496 H 346.01 4.84088 -0.280527 0
M  V30 3497 N 347.353 -0.0568162 1.57498 0
M  V30 3498 C 348.283 -1.06593 2.0775 0
M  V30 3499 C 349.264 -1.39448 0.974082 0
M  V30 3500 O 350.449 -1.48815 1.24771 0
M  V30 3501 C 347.579 -2.37509 2.5339 0
M  V30 3502 C 346.533 -2.1897 3.67745 0
M  V30 3503 C 345.859 -3.55402 3.99492 0
M  V30 3504 C 347.159 -1.59859 4.97235 0
M  V30 3505 H 348.853 -0.647706 2.9231 0
M  V30 3506 H 346.399 -0.310116 1.40621 0
M  V30 3507 H 348.352 -3.08409 2.87162 0
M  V30 3508 H 347.076 -2.8134 1.65878 0
M  V30 3509 H 345.735 -1.50508 3.3428 0
M  V30 3510 H 345.383 -3.9683 3.09088 0
M  V30 3511 H 345.083 -3.43831 4.76502 0
M  V30 3512 H 346.607 -4.27708 4.35773 0
M  V30 3513 H 348.021 -2.20642 5.29141 0
M  V30 3514 H 346.418 -1.58942 5.78669 0
M  V30 3515 H 347.488 -0.561506 4.81638 0
M  V30 3516 N 348.832 -1.54138 -0.328536 0
M  V30 3517 C 350.078 -1.73297 -1.06488 0
M  V30 3518 C 350.433 -0.497958 -1.85844 0
M  V30 3519 O 349.726 0.509591 -1.84699 0
M  V30 3520 C 349.92 -2.9457 -2.02393 0
M  V30 3521 C 349.749 -4.29747 -1.32467 0
M  V30 3522 C 348.519 -4.93987 -1.06324 0
M  V30 3523 C 350.717 -5.08903 -0.743137 0
M  V30 3524 N 348.699 -6.13005 -0.331359 0
M  V30 3525 C 350.07 -6.19836 -0.142602 0
M  V30 3526 C 352.125 -4.93699 -0.64546 0
M  V30 3527 C 350.828 -7.17224 0.546125 0
M  V30 3528 C 352.854 -5.91393 0.0295558 0
M  V30 3529 C 352.216 -7.01674 0.619056 0
M  V30 3530 H 348.315 -0.687017 -0.373539 0
M  V30 3531 H 350.899 -1.91589 -0.346659 0
M  V30 3532 H 349.07 -2.77752 -2.71493 0
M  V30 3533 H 350.802 -3.0238 -2.68977 0
M  V30 3534 H 347.557 -4.53824 -1.35428 0
M  V30 3535 H 347.981 -6.76997 0.0202939 0
M  V30 3536 H 352.623 -4.08589 -1.08695 0
M  V30 3537 H 350.341 -8.01896 0.999459 0
M  V30 3538 H 353.927 -5.81706 0.104705 0
M  V30 3539 H 352.807 -7.75971 1.13309 0
M  V30 3540 N 350.31 0.590341 -1.46126 0
M  V30 3541 C 351.273 1.68194 -1.55703 0
M  V30 3542 C 352.273 1.54808 -0.434868 0
M  V30 3543 O 353.463 1.59564 -0.698928 0
M  V30 3544 C 350.595 3.07575 -1.47005 0
M  V30 3545 H 351.788 1.61064 -2.52979 0
M  V30 3546 H 349.341 0.807541 -1.33823 0
M  V30 3547 H 350.076 3.20268 -0.509785 0
M  V30 3548 H 349.861 3.187 -2.28414 0
M  V30 3549 H 351.351 3.87055 -1.56776 0
M  V30 3550 N 351.788 1.33704 0.83433 0
M  V30 3551 C 352.718 1.26967 1.95963 0
M  V30 3552 C 353.699 0.149337 1.69443 0
M  V30 3553 O 354.884 0.339852 1.91203 0
M  V30 3554 C 352.014 1.01275 3.32206 0
M  V30 3555 C 350.968 2.09652 3.73136 0
M  V30 3556 C 350.294 1.69166 5.07235 0
M  V30 3557 C 351.594 3.51372 3.86439 0
M  V30 3558 H 353.288 2.2112 2.01857 0
M  V30 3559 H 350.834 1.06447 0.969793 0
M  V30 3560 H 352.787 0.952106 4.10503 0
M  V30 3561 H 351.511 0.0356203 3.26581 0
M  V30 3562 H 350.17 2.14766 2.97104 0
M  V30 3563 H 349.818 0.701437 4.98085 0
M  V30 3564 H 349.518 2.41694 5.35591 0
M  V30 3565 H 351.042 1.64576 5.88003 0
M  V30 3566 H 352.456 3.48734 4.55036 0
M  V30 3567 H 350.853 4.22425 4.26236 0
M  V30 3568 H 351.923 3.89546 2.88759 0
M  V30 3569 N 353.266 -1.05314 1.17247 0
M  V30 3570 C 354.491 -1.82509 0.985148 0
M  V30 3571 C 354.916 -1.82343 -0.461788 0
M  V30 3572 O 354.274 -1.23151 -1.33055 0
M  V30 3573 C 354.322 -3.26566 1.52929 0
M  V30 3574 O 353.426 -4.05666 0.742225 0
M  V30 3575 H 352.767 -0.564347 0.349869 0
M  V30 3576 H 355.297 -1.32718 1.55715 0
M  V30 3577 H 355.307 -3.77369 1.55103 0
M  V30 3578 H 353.982 -3.26001 2.58256 0
M  V30 3579 H 352.559 -3.64397 0.791794 0
M  V30 3580 N 354.744 -0.972509 -1.24016 0
M  V30 3581 C 355.991 -0.637034 -1.92219 0
M  V30 3582 C 356.319 0.828418 -1.75976 0
M  V30 3583 O 355.574 1.61206 -1.10955 0
M  V30 3584 C 355.873 -0.963694 -3.44162 0
M  V30 3585 C 355.539 -2.41807 -3.80579 0
M  V30 3586 C 354.201 -2.81556 -3.9023 0
M  V30 3587 C 356.553 -3.36172 -3.98293 0
M  V30 3588 C 353.881 -4.14702 -4.15017 0
M  V30 3589 C 356.233 -4.68952 -4.24578 0
M  V30 3590 C 354.897 -5.08472 -4.32449 0
M  V30 3591 H 354.167 -0.233107 -0.703379 0
M  V30 3592 H 356.814 -1.2249 -1.47202 0
M  V30 3593 H 355.119 -0.29365 -3.90698 0
M  V30 3594 H 356.816 -0.682449 -3.9515 0
M  V30 3595 H 353.406 -2.09988 -3.73635 0
M  V30 3596 H 357.59 -3.06644 -3.90234 0
M  V30 3597 H 352.846 -4.4494 -4.19331 0
M  V30 3598 H 357.02 -5.42037 -4.37229 0
M  V30 3599 H 354.647 -6.11665 -4.51409 0
M  V30 3600 N 356.222 1.38976 -0.743202 0
M  V30 3601 C 357.471 1.99581 -0.291592 0
M  V30 3602 C 357.784 1.59656 1.13001 0
M  V30 3603 O 358.99 2.13157 1.68156 0
M  V30 3604 C 357.446 3.56813 -0.470391 0
M  V30 3605 C 357.054 4.05695 -1.90041 0
M  V30 3606 C 358.798 4.24423 -0.0809709 0
M  V30 3607 C 356.705 5.5553 -2.02832 0
M  V30 3608 H 355.635 0.746615 -0.105272 0
M  V30 3609 H 358.286 1.58872 -0.918258 0
M  V30 3610 H 356.668 3.95359 0.225299 0
M  V30 3611 H 357.842 3.78464 -2.62872 0
M  V30 3612 H 356.157 3.50775 -2.24379 0
M  V30 3613 H 358.754 5.34474 -0.155445 0
M  V30 3614 H 359.097 4.04962 0.96497 0
M  V30 3615 H 359.63 3.9108 -0.728124 0
M  V30 3616 H 356.369 5.79881 -3.05643 0
M  V30 3617 H 355.889 5.84537 -1.34448 0
M  V30 3618 H 357.568 6.21069 -1.81335 0
M  V30 3619 N 357.7 0.491464 1.49741 0
M  V30 3620 C 358.925 -0.0557177 2.07325 0
M  V30 3621 C 359.35 -1.30925 1.35056 0
M  V30 3622 O 358.708 -1.76733 0.404365 0
M  V30 3623 C 358.756 -0.302074 3.59333 0
M  V30 3624 O 357.86 -1.37868 3.88672 0
M  V30 3625 H 357.201 0.0219956 0.663636 0
M  V30 3626 H 359.731 0.688352 1.92673 0
M  V30 3627 H 359.741 -0.536464 4.04458 0
M  V30 3628 H 358.416 0.61383 4.11345 0
M  V30 3629 H 356.993 -1.12999 3.55367 0
M  V30 3630 N 359.178 -1.55987 0.224894 0
M  V30 3631 C 360.427 -1.97566 -0.406273 0
M  V30 3632 C 360.74 -1.11569 -1.6066 0
M  V30 3633 O 361.946 -1.43062 -2.3075 0
M  V30 3634 C 360.402 -3.51474 -0.774207 0
M  V30 3635 C 360.01 -4.46179 0.403496 0
M  V30 3636 C 361.754 -4.01758 -1.37079 0
M  V30 3637 C 359.661 -5.91399 0.0129412 0
M  V30 3638 H 358.591 -0.737777 -0.155565 0
M  V30 3639 H 361.242 -1.80659 0.321635 0
M  V30 3640 H 359.624 -3.63994 -1.55963 0
M  V30 3641 H 360.798 -4.45409 1.18101 0
M  V30 3642 H 359.113 -4.06255 0.913536 0
M  V30 3643 H 361.71 -5.07756 -1.67596 0
M  V30 3644 H 362.053 -3.47805 -2.28773 0
M  V30 3645 H 362.586 -3.92475 -0.648733 0
M  V30 3646 H 359.325 -6.49341 0.896451 0
M  V30 3647 H 358.845 -5.95356 -0.728821 0
M  V30 3648 H 360.524 -6.45683 -0.412582 0
M  V30 3649 N 360.656 0.0484629 -1.57525 0
M  V30 3650 C 361.884 0.755421 -1.92616 0
M  V30 3651 C 362.299 1.69919 -0.822984 0
M  V30 3652 O 361.656 1.81378 0.202085 0
M  V30 3653 C 361.707 1.52915 -3.27566 0
M  V30 3654 O 361.428 0.62329 -4.33644 0
M  V30 3655 C 362.929 2.33502 -3.76818 0
M  V30 3656 H 360.149 0.213465 -0.63614 0
M  V30 3657 H 362.693 0.0117698 -2.04497 0
M  V30 3658 H 360.848 2.22486 -3.17142 0
M  V30 3659 H 361.262 1.16383 -5.11425 0
M  V30 3660 H 362.736 2.83214 -4.73808 0
M  V30 3661 H 363.213 3.14068 -3.07014 0
M  V30 3662 H 363.819 1.69043 -3.90262 0
M  V30 3663 N 362.134 1.5431 0.320358 0
M  V30 3664 C 363.545 1.63872 0.894594 0
M  V30 3665 C 363.896 0.534847 1.88769 0
M  V30 3666 O 363.021 -0.331732 2.13842 0
M  V30 3667 C 363.616 2.97049 1.62934 0
M  V30 3668 C 362.175 3.08796 2.15226 0
M  V30 3669 C 361.322 2.59456 0.978671 0
M  V30 3670 H 364.273 1.58398 0.0978544 0
M  V30 3671 H 364.294 2.87388 2.49376 0
M  V30 3672 H 363.806 3.7737 0.906302 0
M  V30 3673 H 361.907 2.33156 2.90636 0
M  V30 3674 H 362.02 4.14649 2.40006 0
M  V30 3675 H 360.384 2.1543 1.35875 0
M  V30 3676 H 361.167 3.42237 0.269895 0
M  V30 3677 N 363.613 -0.582584 1.46437 0
M  V30 3678 C 364.859 -1.34278 1.51978 0
M  V30 3679 C 365.192 -1.93446 0.170973 0
M  V30 3680 O 364.467 -1.76481 -0.817608 0
M  V30 3681 C 364.75 -2.47203 2.61845 0
M  V30 3682 C 364.603 -1.93069 4.06257 0
M  V30 3683 C 365.922 -3.49247 2.67795 0
M  V30 3684 H 363.041 -0.486876 0.553282 0
M  V30 3685 H 365.683 -0.654437 1.78374 0
M  V30 3686 H 363.833 -3.0592 2.39469 0
M  V30 3687 H 365.505 -1.38808 4.3992 0
M  V30 3688 H 363.748 -1.23898 4.1573 0
M  V30 3689 H 364.419 -2.74586 4.7886 0
M  V30 3690 H 366.895 -3.00411 2.8791 0
M  V30 3691 H 365.771 -4.25719 3.46489 0
M  V30 3692 H 366.032 -4.06482 1.73852 0
M  V30 3693 N 365.091 -1.34144 -0.827227 0
M  V30 3694 C 366.337 -1.27455 -1.58515 0
M  V30 3695 C 366.692 0.155271 -1.91772 0
M  V30 3696 O 365.985 1.10042 -1.56848 0
M  V30 3697 C 366.179 -2.09464 -2.89585 0
M  V30 3698 C 366.008 -3.60276 -2.69131 0
M  V30 3699 C 364.778 -4.29565 -2.66087 0
M  V30 3700 C 366.976 -4.54367 -2.40947 0
M  V30 3701 N 364.958 -5.66252 -2.37132 0
M  V30 3702 C 366.329 -5.79027 -2.21648 0
M  V30 3703 C 368.384 -4.43327 -2.26639 0
M  V30 3704 C 367.087 -6.93891 -1.89492 0
M  V30 3705 C 369.113 -5.58019 -1.95878 0
M  V30 3706 C 368.475 -6.81695 -1.774 0
M  V30 3707 H 364.574 -0.521614 -0.582617 0
M  V30 3708 H 367.158 -1.68811 -0.970105 0
M  V30 3709 H 365.329 -1.70411 -3.49019 0
M  V30 3710 H 367.061 -1.94453 -3.54923 0
M  V30 3711 H 363.816 -3.81959 -2.80008 0
M  V30 3712 H 364.24 -6.38338 -2.25507 0
M  V30 3713 H 368.882 -3.48333 -2.39633 0
M  V30 3714 H 366.6 -7.88871 -1.75236 0
M  V30 3715 H 370.186 -5.5142 -1.85546 0
M  V30 3716 H 369.066 -7.68942 -1.53941 0
M  V30 3717 N 366.569 1.04691 -1.17803 0
M  V30 3718 C 367.499 2.14494 -0.92275 0
M  V30 3719 C 368.48 1.69546 0.137179 0
M  V30 3720 O 369.665 1.94195 -0.0141108 0
M  V30 3721 C 366.795 3.44491 -0.440803 0
M  V30 3722 C 365.749 4.03031 -1.4405 0
M  V30 3723 C 365.075 5.28432 -0.81631 0
M  V30 3724 C 366.375 4.39932 -2.81527 0
M  V30 3725 H 368.069 2.36107 -1.84103 0
M  V30 3726 H 365.615 1.1347 -0.886599 0
M  V30 3727 H 367.568 4.2066 -0.249602 0
M  V30 3728 H 366.292 3.22546 0.513025 0
M  V30 3729 H 364.951 3.28937 -1.61853 0
M  V30 3730 H 364.599 5.02792 0.144511 0
M  V30 3731 H 364.299 5.68559 -1.48371 0
M  V30 3732 H 365.823 6.07284 -0.635496 0
M  V30 3733 H 367.237 5.07113 -2.67412 0
M  V30 3734 H 365.634 4.9109 -3.44892 0
M  V30 3735 H 366.704 3.50045 -3.35554 0
M  V30 3736 N 368.047 0.979072 1.23499 0
M  V30 3737 C 369.277 0.664237 1.95631 0
M  V30 3738 C 369.685 -0.772653 1.72704 0
M  V30 3739 O 369.028 -1.53141 1.01457 0
M  V30 3740 C 369.09 0.873115 3.48736 0
M  V30 3741 C 368.754 2.29182 3.95379 0
M  V30 3742 C 369.751 3.2704 4.04155 0
M  V30 3743 C 367.436 2.62256 4.28401 0
M  V30 3744 C 369.43 4.56052 4.45304 0
M  V30 3745 C 367.117 3.91491 4.69231 0
M  V30 3746 C 368.115 4.88201 4.77649 0
M  V30 3747 O 367.803 6.15129 5.17563 0
M  V30 3748 H 367.535 0.245915 0.629684 0
M  V30 3749 H 370.089 1.3127 1.57979 0
M  V30 3750 H 368.319 0.167476 3.86337 0
M  V30 3751 H 370.008 0.555642 4.02079 0
M  V30 3752 H 370.774 3.02819 3.78848 0
M  V30 3753 H 366.653 1.87692 4.21061 0
M  V30 3754 H 370.197 5.31538 4.51789 0
M  V30 3755 H 366.094 4.15508 4.93987 0
M  V30 3756 H 366.862 6.18862 5.35679 0
M  V30 3757 N 369.525 -1.3858 0.750561 0
M  V30 3758 C 370.488 -2.28836 0.129152 0
M  V30 3759 C 371.488 -1.47045 -0.650714 0
M  V30 3760 O 372.678 -1.6753 -0.477428 0
M  V30 3761 C 369.81 -3.30751 -0.825622 0
M  V30 3762 H 371.003 -2.85294 0.924516 0
M  V30 3763 H 368.556 -1.47489 0.517376 0
M  V30 3764 H 369.291 -2.79378 -1.64677 0
M  V30 3765 H 369.076 -3.91177 -0.268852 0
M  V30 3766 H 370.566 -3.98249 -1.2565 0
M  V30 3767 N 371.003 -0.499398 -1.49478 0
M  V30 3768 C 372.419 -0.155261 -1.58843 0
M  V30 3769 C 372.619 1.34008 -1.50479 0
M  V30 3770 O 371.675 2.11589 -1.37791 0
M  V30 3771 C 372.988 -0.730636 -2.91689 0
M  V30 3772 C 374.536 -0.696599 -3.0515 0
M  V30 3773 C 375.011 -1.25001 -4.40612 0
M  V30 3774 N 376.502 -1.21064 -4.47099 0
M  V30 3775 C 377.237 -1.60905 -5.50361 0
M  V30 3776 N 376.733 -2.08331 -6.60735 0
M  V30 3777 N 378.526 -1.52331 -5.41065 0
M  V30 3778 H 370.677 -1.47162 -1.53158 0
M  V30 3779 H 372.94 -0.610309 -0.725415 0
M  V30 3780 H 372.646 -1.77928 -3.03372 0
M  V30 3781 H 372.52 -0.190161 -3.7672 0
M  V30 3782 H 374.907 0.343204 -2.93097 0
M  V30 3783 H 374.988 -1.2742 -2.21806 0
M  V30 3784 H 374.632 -2.28859 -4.53416 0
M  V30 3785 H 374.562 -0.64836 -5.22593 0
M  V30 3786 H 377.053 -0.863128 -3.67911 0
M  V30 3787 H 377.366 -2.36805 -7.35624 0
M  V30 3788 H 375.711 -2.12304 -6.6178 0
M  V30 3789 H 378.902 -1.151 -4.53729 0
M  V30 3790 H 379.075 -1.83704 -6.21415 0
M  V30 3791 N 372.481 1.55866 -0.233164 0
M  V30 3792 C 373.411 2.23783 0.666599 0
M  V30 3793 C 374.392 1.21343 1.19205 0
M  V30 3794 O 375.577 1.4996 1.23392 0
M  V30 3795 C 372.707 2.92671 1.86978 0
M  V30 3796 C 371.661 4.01682 1.47768 0
M  V30 3797 C 370.987 4.57926 2.76058 0
M  V30 3798 C 372.287 5.18126 0.658993 0
M  V30 3799 H 373.981 2.99232 0.100306 0
M  V30 3800 H 371.527 1.43924 0.046804 0
M  V30 3801 H 373.48 3.3888 2.50476 0
M  V30 3802 H 372.204 2.14688 2.46123 0
M  V30 3803 H 370.863 3.56222 0.866106 0
M  V30 3804 H 370.511 3.76659 3.33372 0
M  V30 3805 H 370.211 5.31505 2.50552 0
M  V30 3806 H 371.735 5.06859 3.40479 0
M  V30 3807 H 373.149 5.60644 1.19795 0
M  V30 3808 H 371.546 5.98009 0.500552 0
M  V30 3809 H 372.616 4.83763 -0.331856 0
M  V30 3810 N 373.959 -0.0401083 1.57549 0
M  V30 3811 C 375.208 -0.732108 1.87944 0
M  V30 3812 C 375.521 -1.77107 0.830206 0
M  V30 3813 O 376.727 -2.51488 1.02302 0
M  V30 3814 C 375.183 -1.35315 3.33494 0
M  V30 3815 C 374.791 -0.351105 4.46622 0
M  V30 3816 C 376.535 -2.02566 3.73051 0
M  V30 3817 C 374.442 -0.979859 5.83226 0
M  V30 3818 H 373.372 -0.277188 0.701201 0
M  V30 3819 H 376.023 0.0138501 1.83495 0
M  V30 3820 H 374.405 -2.14844 3.32653 0
M  V30 3821 H 375.579 0.416674 4.58912 0
M  V30 3822 H 373.894 0.218708 4.15825 0
M  V30 3823 H 376.491 -2.50441 4.72423 0
M  V30 3824 H 376.834 -2.83904 3.04474 0
M  V30 3825 H 377.367 -1.29827 3.76018 0
M  V30 3826 H 374.106 -0.206135 6.55176 0
M  V30 3827 H 373.626 -1.71774 5.74677 0
M  V30 3828 H 375.305 -1.49046 6.29599 0
M  V30 3829 N 375.437 -1.54477 -0.31217 0
M  V30 3830 C 376.848 -1.64344 -0.885891 0
M  V30 3831 C 377.199 -0.54485 -1.88483 0
M  V30 3832 O 376.324 0.320387 -2.14015 0
M  V30 3833 C 376.919 -2.97908 -1.61357 0
M  V30 3834 C 375.478 -3.09933 -2.13585 0
M  V30 3835 C 374.625 -2.59971 -0.964897 0
M  V30 3836 H 377.576 -1.58448 -0.0894528 0
M  V30 3837 H 377.597 -2.88706 -2.47848 0
M  V30 3838 H 377.109 -3.77845 -0.886277 0
M  V30 3839 H 375.21 -2.34694 -2.89395 0
M  V30 3840 H 375.323 -4.15916 -2.37804 0
M  V30 3841 H 373.687 -2.16147 -1.34731 0
M  V30 3842 H 374.47 -3.42376 -0.251742 0
M  V30 3843 N 376.915 0.57481 -1.46744 0
M  V30 3844 C 378.162 1.33272 -1.52462 0
M  V30 3845 C 378.49 1.93669 -0.179572 0
M  V30 3846 O 377.745 1.7743 0.825664 0
M  V30 3847 C 378.044 2.476 -2.57738 0
M  V30 3848 C 377.71 2.05146 -4.01529 0
M  V30 3849 C 376.372 1.93284 -4.40676 0
M  V30 3850 C 378.724 1.72506 -4.91824 0
M  V30 3851 C 376.052 1.47049 -5.67973 0
M  V30 3852 C 378.404 1.27748 -6.19567 0
M  V30 3853 C 377.068 1.14468 -6.57612 0
M  V30 3854 H 376.338 0.487678 -0.557899 0
M  V30 3855 H 378.985 0.646456 -1.80259 0
M  V30 3856 H 377.29 3.21708 -2.23632 0
M  V30 3857 H 378.987 3.05807 -2.5939 0
M  V30 3858 H 375.577 2.15316 -3.7059 0
M  V30 3859 H 379.761 1.80552 -4.62293 0
M  V30 3860 H 375.017 1.35417 -5.96215 0
M  V30 3861 H 379.191 1.01547 -6.88957 0
M  V30 3862 H 376.818 0.78419 -7.56145 0
M  V30 3863 N 378.394 1.34581 0.820102 0
M  V30 3864 C 379.805 1.24298 1.39309 0
M  V30 3865 C 380.156 -0.130351 1.95767 0
M  V30 3866 O 379.281 -1.0308 1.90272 0
M  V30 3867 C 379.876 2.25054 2.53251 0
M  V30 3868 C 378.435 2.18552 3.0645 0
M  V30 3869 C 377.582 2.11503 1.79337 0
M  V30 3870 H 380.533 1.45906 0.624262 0
M  V30 3871 H 380.554 1.86917 3.31425 0
M  V30 3872 H 380.066 3.24996 2.1213 0
M  V30 3873 H 378.167 1.21976 3.52069 0
M  V30 3874 H 378.28 3.0993 3.65349 0
M  V30 3875 H 376.644 1.57268 2.00347 0
M  V30 3876 H 377.427 3.13284 1.40386 0
M  V30 3877 N 379.872 -1.04064 1.18357 0
M  V30 3878 C 381.12 -1.76915 0.977013 0
M  V30 3879 C 381.441 -1.88624 -0.494577 0
M  V30 3880 O 380.711 -1.41125 -1.3587 0
M  V30 3881 H 379.291 -0.65535 0.358504 0
M  V30 3882 H 381.953 -1.25592 1.49039 0
M  V30 3883 H 381.049 -2.78178 1.41504 0
M  V30 3884 N 381.35 -0.985608 -1.22978 0
M  V30 3885 C 382.598 -0.656087 -1.91154 0
M  V30 3886 C 382.919 0.813561 -1.77218 0
M  V30 3887 O 382.189 1.58244 -1.1548 0
M  V30 3888 H 380.769 -0.239674 -0.707506 0
M  V30 3889 H 383.431 -1.25054 -1.49491 0
M  V30 3890 H 382.527 -0.912253 -2.9847 0
M  V30 3891 N 382.828 1.3818 -0.7579 0
M  V30 3892 C 383.791 2.28764 -0.141286 0
M  V30 3893 C 384.791 1.47388 0.642907 0
M  V30 3894 O 385.981 1.67781 0.468536 0
M  V30 3895 C 383.113 3.31184 0.808069 0
M  V30 3896 H 384.306 2.848 -0.939633 0
M  V30 3897 H 381.859 1.47212 -0.525191 0
M  V30 3898 H 382.594 2.80247 1.63193 0
M  V30 3899 H 382.379 3.91314 0.248104 0
M  V30 3900 H 383.869 3.98909 1.23536 0
M  V30 3901 N 384.306 0.507319 1.49211 0
M  V30 3902 C 385.552 -0.0350047 2.0277 0
M  V30 3903 C 385.885 -1.3606 1.38569 0
M  V30 3904 O 385.16 -1.87321 0.523542 0
M  V30 3905 C 385.443 -0.180916 3.59645 0
M  V30 3906 C 385.296 1.16825 4.34364 0
M  V30 3907 C 386.615 -0.918558 4.30407 0
M  V30 3908 H 383.734 -0.0112473 0.736914 0
M  V30 3909 H 386.376 0.659956 1.7817 0
M  V30 3910 H 384.526 -0.772826 3.80736 0
M  V30 3911 H 386.198 1.79952 4.24753 0
M  V30 3912 H 384.441 1.75594 3.96673 0
M  V30 3913 H 385.112 1.01939 5.42506 0
M  V30 3914 H 387.588 -0.41649 4.1401 0
M  V30 3915 H 386.464 -0.989505 5.39907 0
M  V30 3916 H 386.725 -1.96373 3.96093 0
M  V30 3917 N 385.784 -1.5574 0.241426 0
M  V30 3918 C 387.032 -1.98417 -0.384075 0
M  V30 3919 C 387.353 -1.13078 -1.58866 0
M  V30 3920 O 386.623 -0.212312 -1.94746 0
M  V30 3921 H 385.203 -0.732813 -0.144894 0
M  V30 3922 H 387.865 -1.9193 0.338943 0
M  V30 3923 H 386.961 -3.04219 -0.696939 0
M  V30 3924 N 387.262 0.0317525 -1.57568 0
M  V30 3925 C 388.502 0.727979 -1.90997 0
M  V30 3926 C 388.866 1.72664 -0.839708 0
M  V30 3927 O 390.067 2.47092 -1.05825 0
M  V30 3928 C 388.338 1.38239 -3.29583 0
M  V30 3929 S 389.897 2.10814 -3.84841 0
M  V30 3930 H 386.715 0.241226 -0.668828 0
M  V30 3931 H 389.317 -0.0173037 -1.95492 0
M  V30 3932 H 388.021 0.642288 -4.05343 0
M  V30 3933 H 387.552 2.16628 -3.28384 0
M  V30 3934 H 389.567 3.3792 -3.63352 0
M  V30 3935 N 388.74 1.54641 0.303973 0
M  V30 3936 C 389.988 1.73437 1.0375 0
M  V30 3937 C 390.309 0.521449 1.87899 0
M  V30 3938 O 389.579 -0.46432 1.90318 0
M  V30 3939 H 388.159 0.639518 0.386039 0
M  V30 3940 H 390.821 1.91988 0.335675 0
M  V30 3941 H 389.917 2.62235 1.69231 0
M  V30 3942 N 390.218 -0.567019 1.47046 0
M  V30 3943 C 391.467 -1.32091 1.5243 0
M  V30 3944 C 391.78 -1.94704 0.187021 0
M  V30 3945 O 392.986 -2.7124 0.118771 0
M  V30 3946 C 391.442 -2.39479 2.68659 0
M  V30 3947 C 391.05 -1.831 4.08874 0
M  V30 3948 C 392.794 -3.16111 2.83327 0
M  V30 3949 C 390.701 -2.8821 5.16419 0
M  V30 3950 H 389.631 -0.496629 0.56734 0
M  V30 3951 H 392.282 -0.603354 1.73297 0
M  V30 3952 H 390.664 -3.14105 2.41152 0
M  V30 3953 H 391.838 -1.14913 4.46242 0
M  V30 3954 H 390.153 -1.19085 3.99008 0
M  V30 3955 H 392.75 -3.94585 3.60842 0
M  V30 3956 H 393.093 -3.69686 1.91411 0
M  V30 3957 H 393.626 -2.48595 3.10556 0
M  V30 3958 H 390.365 -2.39504 6.10179 0
M  V30 3959 H 389.885 -3.54839 4.8358 0
M  V30 3960 H 391.564 -3.51881 5.42945 0
M  V30 3961 N 391.696 -1.35014 -0.812953 0
M  V30 3962 C 393.112 -1.14914 -1.10757 0
M  V30 3963 C 393.312 0.0426818 -2.01455 0
M  V30 3964 O 392.368 0.715212 -2.42159 0
M  V30 3965 C 393.681 -2.44911 -1.74468 0
M  V30 3966 C 395.229 -2.5106 -1.86917 0
M  V30 3967 C 395.704 -3.81085 -2.54044 0
M  V30 3968 N 397.195 -3.82301 -2.61535 0
M  V30 3969 C 397.93 -4.79634 -3.14227 0
M  V30 3970 N 397.426 -5.87353 -3.67407 0
M  V30 3971 N 399.219 -4.67078 -3.12721 0
M  V30 3972 H 391.37 -2.1136 -0.20989 0
M  V30 3973 H 393.633 -0.935128 -0.155692 0
M  V30 3974 H 393.339 -3.32267 -1.15289 0
M  V30 3975 H 393.213 -2.58989 -2.74234 0
M  V30 3976 H 395.6 -1.64137 -2.45241 0
M  V30 3977 H 395.681 -2.40901 -0.860242 0
M  V30 3978 H 395.325 -4.68402 -1.96372 0
M  V30 3979 H 395.255 -3.88529 -3.55461 0
M  V30 3980 H 397.746 -3.04465 -2.23851 0
M  V30 3981 H 398.059 -6.57624 -4.05894 0
M  V30 3982 H 396.404 -5.91054 -3.65623 0
M  V30 3983 H 399.595 -3.82067 -2.70449 0
M  V30 3984 H 399.768 -5.43098 -3.53481 0
M  V30 3985 N 393.175 1.03435 -1.18907 0
M  V30 3986 C 394.105 2.13503 -0.945448 0
M  V30 3987 C 395.086 1.69682 0.119189 0
M  V30 3988 O 396.271 1.94169 -0.034707 0
M  V30 3989 C 393.401 3.44004 -0.477316 0
M  V30 3990 C 392.355 4.0148 -1.48316 0
M  V30 3991 C 391.681 5.27537 -0.872311 0
M  V30 3992 C 392.981 4.36921 -2.86177 0
M  V30 3993 H 394.675 2.34141 -1.86597 0
M  V30 3994 H 392.221 1.12523 -0.898584 0
M  V30 3995 H 394.174 4.20372 -0.294204 0
M  V30 3996 H 392.898 3.23072 0.478786 0
M  V30 3997 H 391.557 3.27201 -1.65332 0
M  V30 3998 H 391.205 5.02917 0.0911752 0
M  V30 3999 H 390.905 5.66954 -1.54393 0
M  V30 4000 H 392.429 6.06576 -0.699871 0
M  V30 4001 H 393.843 5.04248 -2.72776 0
M  V30 4002 H 392.24 4.87405 -3.50081 0
M  V30 4003 H 393.31 3.46466 -3.39248 0
M  V30 4004 N 394.653 0.992116 1.22453 0
M  V30 4005 C 396.064 0.702776 1.72968 0
M  V30 4006 C 396.415 -0.780399 1.80012 0
M  V30 4007 O 395.54 -1.61007 1.44589 0
M  V30 4008 C 396.135 1.26903 3.14135 0
M  V30 4009 C 394.694 1.02909 3.62059 0
M  V30 4010 C 393.841 1.38969 2.39964 0
M  V30 4011 H 396.792 1.16457 1.07812 0
M  V30 4012 H 396.813 0.647223 3.74955 0
M  V30 4013 H 396.325 2.34851 3.08977 0
M  V30 4014 H 394.426 -0.0337979 3.72585 0
M  V30 4015 H 394.539 1.69191 4.48231 0
M  V30 4016 H 392.903 0.808279 2.41535 0
M  V30 4017 H 393.686 2.4792 2.37467 0
M  V30 4018 N 396.131 -1.37776 0.765217 0
M  V30 4019 C 397.079 -2.32209 0.134798 0
M  V30 4020 C 398.073 -1.54607 -0.692315 0
M  V30 4021 O 399.279 -1.70052 -0.590109 0
M  V30 4022 H 395.654 -0.751591 0.0248005 0
M  V30 4023 H 397.625 -2.8297 0.947119 0
M  V30 4024 C 396.374 -3.39841 -0.735063 0
M  V30 4025 H 395.697 -3.99654 -0.107991 0
M  V30 4026 H 397.137 -4.08296 -1.14326 0
M  V30 4027 C 395.596 -2.79378 -1.88281 0
M  V30 4028 O 396.126 -2.69608 -2.97783 0
M  V30 4029 N 394.332 -2.37016 -1.68142 0
M  V30 4030 H 393.879 -2.45162 -0.790772 0
M  V30 4031 H 393.837 -1.96905 -2.45104 0
M  V30 4032 N 397.609 -0.515225 -1.4894 0
M  V30 4033 C 399.02 -0.0710067 -1.86565 0
M  V30 4034 C 399.371 1.34733 -1.42623 0
M  V30 4035 O 398.496 2.00653 -0.810379 0
M  V30 4036 C 399.091 -0.122083 -3.3858 0
M  V30 4037 C 397.65 0.266863 -3.75453 0
M  V30 4038 C 396.797 -0.488376 -2.72966 0
M  V30 4039 H 399.748 -0.727266 -1.41055 0
M  V30 4040 H 399.769 0.669818 -3.74558 0
M  V30 4041 H 399.281 -1.15448 -3.70531 0
M  V30 4042 H 397.382 1.30196 -3.49113 0
M  V30 4043 H 397.495 -0.0624811 -4.79059 0
M  V30 4044 H 395.859 0.0635622 -2.54621 0
M  V30 4045 H 396.642 -1.52113 -3.07761 0
M  V30 4046 N 399.087 1.5561 -0.249682 0
M  V30 4047 C 400.364 1.90932 0.424761 0
M  V30 4048 C 400.744 1.17078 1.75658 0
M  V30 4049 O 400.092 0.289176 2.26663 0
M  V30 4050 C 400.302 3.43975 0.590109 0
M  V30 4051 C 401.65 4.15281 0.884714 0
M  V30 4052 O 402.674 3.49729 0.67587 0
M  V30 4053 O 401.533 5.31236 1.28259 0
M  V30 4054 H 398.627 0.794815 0.228468 0
M  V30 4055 H 401.173 1.67135 -0.293954 0
M  V30 4056 H 399.945 3.89748 -0.34818 0
M  V30 4057 H 399.568 3.73644 1.35926 0
M  V30 4058 N 400.565 -0.0233959 1.57583 0
M  V30 4059 C 401.793 -0.724682 1.93794 0
M  V30 4060 C 402.208 -1.68588 0.849912 0
M  V30 4061 O 401.565 -1.81676 -0.173204 0
M  V30 4062 C 401.616 -1.47684 3.29957 0
M  V30 4063 O 401.337 -0.554222 4.3458 0
M  V30 4064 C 402.838 -2.27477 3.80485 0
M  V30 4065 H 400.058 -0.203317 0.639455 0
M  V30 4066 H 402.602 0.0207653 2.04489 0
M  V30 4067 H 400.757 -2.17412 3.20641 0
M  V30 4068 H 401.171 -1.08232 5.13212 0
M  V30 4069 H 402.645 -2.7564 4.78254 0
M  V30 4070 H 403.122 -3.09144 3.11972 0
M  V30 4071 H 403.728 -1.62813 3.92902 0
M  V30 4072 N 402.043 -1.548 -0.295768 0
M  V30 4073 C 403.32 -1.65014 -1.05023 0
M  V30 4074 C 403.7 -0.501805 -2.05049 0
M  V30 4075 O 403.048 0.500869 -2.22943 0
M  V30 4076 C 403.258 -3.03252 -1.72741 0
M  V30 4077 C 404.606 -3.60242 -2.24746 0
M  V30 4078 O 405.63 -3.05737 -1.82765 0
M  V30 4079 O 404.489 -4.55687 -3.01681 0
M  V30 4080 H 401.583 -0.669314 -0.485744 0
M  V30 4081 H 404.129 -1.67144 -0.293438 0
M  V30 4082 H 402.901 -3.7827 -1.00138 0
M  V30 4083 H 402.524 -3.04922 -2.55163 0
M  V30 4084 N 403.521 0.559213 -1.47345 0
M  V30 4085 C 404.451 1.67622 -1.62558 0
M  V30 4086 C 405.432 1.63331 -0.475087 0
M  V30 4087 O 406.617 1.80983 -0.704182 0
M  V30 4088 C 403.747 3.0626 -1.63774 0
M  V30 4089 C 402.701 3.25397 -2.7803 0
M  V30 4090 C 402.027 4.64801 -2.64318 0
M  V30 4091 C 403.327 3.10965 -4.19641 0
M  V30 4092 H 405.021 1.55146 -2.56067 0
M  V30 4093 H 402.567 0.744961 -1.23233 0
M  V30 4094 H 404.52 3.84247 -1.73008 0
M  V30 4095 H 403.244 3.1969 -0.66825 0
M  V30 4096 H 401.903 2.49817 -2.68304 0
M  V30 4097 H 401.551 4.75028 -1.65401 0
M  V30 4098 H 401.251 4.78555 -3.40968 0
M  V30 4099 H 402.775 5.44926 -2.75478 0
M  V30 4100 H 404.189 3.78772 -4.30354 0
M  V30 4101 H 402.586 3.36229 -4.97062 0
M  V30 4102 H 403.656 2.07736 -4.38148 0
M  V30 4103 N 404.999 1.35443 0.805782 0
M  V30 4104 C 406.229 1.31687 1.59192 0
M  V30 4105 C 406.637 -0.10756 1.88894 0
M  V30 4106 O 405.98 -1.07017 1.49309 0
M  V30 4107 C 406.042 2.05686 2.94845 0
M  V30 4108 C 405.706 3.54868 2.87954 0
M  V30 4109 C 406.703 4.49444 2.61335 0
M  V30 4110 C 404.388 3.97528 3.07046 0
M  V30 4111 C 406.382 5.84655 2.53885 0
M  V30 4112 C 404.069 5.32833 2.99219 0
M  V30 4113 C 405.067 6.26209 2.72674 0
M  V30 4114 O 404.755 7.59032 2.64811 0
M  V30 4115 H 404.487 0.453878 0.50097 0
M  V30 4116 H 407.041 1.78892 1.0093 0
M  V30 4117 H 405.271 1.5312 3.55093 0
M  V30 4118 H 406.96 1.94998 3.55993 0
M  V30 4119 H 407.726 4.17804 2.46303 0
M  V30 4120 H 403.605 3.25233 3.26718 0
M  V30 4121 H 407.149 6.57508 2.33086 0
M  V30 4122 H 403.046 5.64087 3.13809 0
M  V30 4123 H 403.814 7.68967 2.80413 0
M  V30 4124 N 406.477 -1.02803 1.19454 0
M  V30 4125 C 407.723 -1.76598 1.0092 0
M  V30 4126 C 408.078 -1.86939 -0.455142 0
M  V30 4127 O 407.371 -1.37575 -1.33355 0
M  V30 4128 C 407.565 -3.18941 1.6128 0
M  V30 4129 C 407.394 -3.22476 3.13431 0
M  V30 4130 C 406.164 -3.30375 3.82336 0
M  V30 4131 C 408.362 -3.09451 4.10785 0
M  V30 4132 N 406.344 -3.23292 5.21877 0
M  V30 4133 C 407.715 -3.10012 5.36929 0
M  V30 4134 C 409.77 -2.93585 4.02135 0
M  V30 4135 C 408.473 -2.96334 6.55423 0
M  V30 4136 C 410.499 -2.81256 5.20239 0
M  V30 4137 C 409.861 -2.82472 6.45282 0
M  V30 4138 H 405.96 -0.657447 0.423424 0
M  V30 4139 H 408.544 -1.22369 1.5144 0
M  V30 4140 H 406.715 -3.71489 1.1336 0
M  V30 4141 H 408.447 -3.81102 1.36173 0
M  V30 4142 H 405.202 -3.3663 3.33132 0
M  V30 4143 H 405.626 -3.23156 5.94894 0
M  V30 4144 H 410.268 -2.91466 3.0628 0
M  V30 4145 H 407.986 -2.97203 7.51463 0
M  V30 4146 H 411.572 -2.70014 5.15348 0
M  V30 4147 H 410.452 -2.73036 7.35133 0
M  V30 4148 N 407.956 -0.998596 -1.21925 0
M  V30 4149 C 409.203 -0.677663 -1.90824 0
M  V30 4150 C 409.531 0.790905 -1.77693 0
M  V30 4151 O 408.786 1.58817 -1.14349 0
M  V30 4152 C 409.085 -1.03648 -3.42041 0
M  V30 4153 C 408.751 -2.49825 -3.75364 0
M  V30 4154 C 407.413 -2.8977 -3.8417 0
M  V30 4155 C 409.765 -3.44545 -3.91073 0
M  V30 4156 C 407.093 -4.23412 -4.06127 0
M  V30 4157 C 409.445 -4.77853 -4.14535 0
M  V30 4158 C 408.109 -5.17531 -4.21566 0
M  V30 4159 H 407.379 -0.247975 -0.698276 0
M  V30 4160 H 410.026 -1.25584 -1.44571 0
M  V30 4161 H 408.331 -0.376457 -3.89987 0
M  V30 4162 H 410.028 -0.766113 -3.93614 0
M  V30 4163 H 406.618 -2.17866 -3.69097 0
M  V30 4164 H 410.802 -3.14853 -3.83642 0
M  V30 4165 H 406.058 -4.53734 -4.09799 0
M  V30 4166 H 410.232 -5.51189 -4.25633 0
M  V30 4167 H 407.859 -6.21102 -4.38333 0
M  V30 4168 N 409.434 1.37368 -0.772513 0
M  V30 4169 C 410.662 2.03942 -0.348588 0
M  V30 4170 C 411.077 1.58264 1.02947 0
M  V30 4171 O 410.434 0.764246 1.65727 0
M  V30 4172 C 410.485 3.5946 -0.38351 0
M  V30 4173 O 410.206 4.03468 -1.70721 0
M  V30 4174 C 411.707 4.4327 0.0519152 0
M  V30 4175 H 408.927 0.654931 -0.145966 0
M  V30 4176 H 411.471 1.75686 -1.04665 0
M  V30 4177 H 409.626 3.86486 0.265978 0
M  V30 4178 H 410.04 4.97991 -1.64636 0
M  V30 4179 H 411.514 5.51995 -0.0236733 0
M  V30 4180 H 411.991 4.2514 1.10238 0
M  V30 4181 H 412.597 4.21471 -0.569415 0
M  V30 4182 N 410.912 0.523116 1.48665 0
M  V30 4183 C 411.842 -0.23231 2.32342 0
M  V30 4184 C 412.823 -0.941637 1.41659 0
M  V30 4185 O 414.008 -0.928751 1.70552 0
M  V30 4186 C 411.138 -1.28387 3.22698 0
M  V30 4187 C 410.092 -0.693098 4.22351 0
M  V30 4188 C 409.418 -1.8468 5.01794 0
M  V30 4189 C 410.718 0.33063 5.21252 0
M  V30 4190 H 412.412 0.466192 2.95748 0
M  V30 4191 H 409.958 0.225643 1.42221 0
M  V30 4192 H 411.911 -1.82024 3.80059 0
M  V30 4193 H 410.635 -2.01186 2.57278 0
M  V30 4194 H 409.294 -0.178299 3.66166 0
M  V30 4195 H 408.942 -2.56301 4.32804 0
M  V30 4196 H 408.642 -1.45747 5.69238 0
M  V30 4197 H 410.166 -2.38709 5.62006 0
M  V30 4198 H 411.58 -0.118407 5.73178 0
M  V30 4199 H 409.977 0.636974 5.9671 0
M  V30 4200 H 411.047 1.23883 4.68808 0
M  V30 4201 N 412.39 -1.55475 0.257931 0
M  V30 4202 C 413.62 -2.03314 -0.367026 0
M  V30 4203 C 414.028 -1.13625 -1.51281 0
M  V30 4204 O 413.371 -0.145334 -1.83124 0
M  V30 4205 C 413.433 -3.47362 -0.926284 0
M  V30 4206 C 413.097 -4.56914 0.0886584 0
M  V30 4207 C 414.094 -5.12013 0.902123 0
M  V30 4208 C 411.779 -5.01827 0.217936 0
M  V30 4209 C 413.773 -6.10529 1.83122 0
M  V30 4210 C 411.46 -6.00172 1.15052 0
M  V30 4211 C 412.458 -6.54402 1.95568 0
M  V30 4212 O 412.146 -7.50827 2.87253 0
M  V30 4213 H 411.878 -0.669976 -0.0900443 0
M  V30 4214 H 414.432 -2.01804 0.382673 0
M  V30 4215 H 412.662 -3.46056 -1.72575 0
M  V30 4216 H 414.351 -3.78637 -1.46249 0
M  V30 4217 H 415.117 -4.78139 0.812891 0
M  V30 4218 H 410.996 -4.59272 -0.398721 0
M  V30 4219 H 414.54 -6.52783 2.46008 0
M  V30 4220 H 410.437 -6.33465 1.24064 0
M  V30 4221 H 411.205 -7.68483 2.81739 0
M  V30 4222 N 413.868 0.0150385 -1.57593 0
M  V30 4223 C 414.8 1.03912 -2.04291 0
M  V30 4224 C 415.813 1.31618 -0.958146 0
M  V30 4225 O 417.002 1.28859 -1.23522 0
M  V30 4226 C 414.102 2.37749 -2.41514 0
M  V30 4227 C 413.275 2.29198 -3.72541 0
M  V30 4228 C 412.334 3.45598 -3.96797 0
M  V30 4229 O 411.36 3.24461 -4.67668 0
M  V30 4230 N 412.562 4.67945 -3.43523 0
M  V30 4231 H 415.327 0.64099 -2.92765 0
M  V30 4232 H 412.888 0.20272 -1.60626 0
M  V30 4233 H 414.88 3.14364 -2.54867 0
M  V30 4234 H 413.45 2.69357 -1.58637 0
M  V30 4235 H 412.67 1.3759 -3.69408 0
M  V30 4236 H 413.958 2.20642 -4.5847 0
M  V30 4237 H 413.356 4.88017 -2.86104 0
M  V30 4238 H 411.913 5.41878 -3.62232 0
M  V30 4239 N 415.346 1.54954 0.287554 0
M  V30 4240 C 416.593 1.74873 1.02106 0
M  V30 4241 C 416.921 0.541829 1.86801 0
M  V30 4242 O 416.176 -0.475992 1.89823 0
M  V30 4243 C 416.475 2.99833 1.94512 0
M  V30 4244 C 416.141 4.33029 1.25686 0
M  V30 4245 C 414.803 4.69233 1.06649 0
M  V30 4246 C 417.155 5.15542 0.765913 0
M  V30 4247 C 414.483 5.85518 0.372222 0
M  V30 4248 C 416.835 6.32542 0.0853101 0
M  V30 4249 C 415.499 6.67398 -0.1169 0
M  V30 4250 H 414.769 0.639906 0.373632 0
M  V30 4251 H 417.416 1.89219 0.294665 0
M  V30 4252 H 415.721 2.80325 2.73725 0
M  V30 4253 H 417.418 3.1244 2.51361 0
M  V30 4254 H 414.008 4.04564 1.41512 0
M  V30 4255 H 418.192 4.88059 0.90066 0
M  V30 4256 H 413.448 6.11057 0.204695 0
M  V30 4257 H 417.622 6.95741 -0.302936 0
M  V30 4258 H 415.249 7.57357 -0.656859 0
M  V30 4259 N 416.824 -0.551391 1.4764 0
M  V30 4260 C 418.071 -1.3083 1.54563 0
M  V30 4261 C 418.399 -1.93359 0.210361 0
M  V30 4262 O 417.654 -1.78721 -0.797332 0
M  V30 4263 C 417.953 -2.43469 2.61644 0
M  V30 4264 C 417.619 -1.98732 4.04742 0
M  V30 4265 C 416.281 -1.86248 4.43695 0
M  V30 4266 C 418.633 -1.64659 4.94507 0
M  V30 4267 C 415.961 -1.37995 5.70241 0
M  V30 4268 C 418.313 -1.17875 6.21521 0
M  V30 4269 C 416.977 -1.03992 6.5935 0
M  V30 4270 H 416.247 -0.478741 0.565587 0
M  V30 4271 H 418.894 -0.617697 1.81264 0
M  V30 4272 H 417.199 -3.18109 2.28722 0
M  V30 4273 H 418.896 -3.01642 2.64222 0
M  V30 4274 H 415.486 -2.09393 3.73968 0
M  V30 4275 H 419.67 -1.73174 4.65107 0
M  V30 4276 H 414.926 -1.25915 5.98294 0
M  V30 4277 H 419.1 -0.905739 6.90485 0
M  V30 4278 H 416.727 -0.663794 7.57296 0
M  V30 4279 N 418.302 -1.35869 -0.798587 0
M  V30 4280 C 419.232 -1.32118 -1.92528 0
M  V30 4281 C 420.213 -0.194209 -1.68988 0
M  V30 4282 O 421.398 -0.390426 -1.90235 0
M  V30 4283 C 418.528 -1.10047 -3.29404 0
M  V30 4284 C 417.482 -2.19471 -3.67446 0
M  V30 4285 C 416.808 -1.82555 -5.02571 0
M  V30 4286 C 418.108 -3.61495 -3.76987 0
M  V30 4287 H 419.802 -2.26394 -1.95924 0
M  V30 4288 H 417.348 -1.08981 -0.94123 0
M  V30 4289 H 419.301 -1.06061 -4.07835 0
M  V30 4290 H 418.025 -0.122195 -3.26371 0
M  V30 4291 H 416.684 -2.22568 -2.91306 0
M  V30 4292 H 416.332 -0.833249 -4.9605 0
M  V30 4293 H 416.032 -2.5581 -5.28995 0
M  V30 4294 H 417.556 -1.80108 -5.83432 0
M  V30 4295 H 418.97 -3.60676 -4.4563 0
M  V30 4296 H 417.367 -4.33577 -4.14887 0
M  V30 4297 H 418.437 -3.97065 -2.78329 0
M  V30 4298 N 419.78 1.02168 -1.19998 0
M  V30 4299 C 420.743 2.08765 -0.94604 0
M  V30 4300 C 421.743 1.60618 0.0763846 0
M  V30 4301 O 422.933 1.73472 -0.159135 0
M  V30 4302 C 420.065 3.38262 -0.423255 0
M  V30 4303 H 421.258 2.32726 -1.89153 0
M  V30 4304 H 418.811 1.1889 -1.01464 0
M  V30 4305 H 419.546 3.19974 0.527938 0
M  V30 4306 H 419.331 3.74532 -1.16053 0
M  V30 4307 H 420.821 4.16759 -0.264911 0
M  V30 4308 N 421.258 1.00505 1.21394 0
M  V30 4309 C 422.505 0.687774 1.90462 0
M  V30 4310 C 422.833 -0.78147 1.7811 0
M  V30 4311 O 422.088 -1.58208 1.1519 0
M  V30 4312 C 422.387 1.0546 3.41486 0
M  V30 4313 C 422.053 2.51812 3.74034 0
M  V30 4314 C 420.715 2.91804 3.82628 0
M  V30 4315 C 423.067 3.46614 3.8924 0
M  V30 4316 C 420.395 4.2556 4.03876 0
M  V30 4317 C 422.747 4.80044 4.11995 0
M  V30 4318 C 421.411 5.19759 4.18816 0
M  V30 4319 H 420.681 0.251674 0.696951 0
M  V30 4320 H 423.328 1.26349 1.43903 0
M  V30 4321 H 421.633 0.397133 3.89782 0
M  V30 4322 H 423.33 0.786976 3.93202 0
M  V30 4323 H 419.92 2.1982 3.67936 0
M  V30 4324 H 424.104 3.16883 3.81967 0
M  V30 4325 H 419.36 4.55901 4.07387 0
M  V30 4326 H 423.534 5.53439 4.22704 0
M  V30 4327 H 421.161 6.23418 4.35033 0
M  V30 4328 N 422.737 -1.36956 0.779787 0
M  V30 4329 C 423.7 -2.2851 0.177662 0
M  V30 4330 C 424.7 -1.48393 -0.619377 0
M  V30 4331 O 425.89 -1.68505 -0.441785 0
M  V30 4332 C 423.022 -3.32428 -0.755279 0
M  V30 4333 H 424.215 -2.83269 0.984823 0
M  V30 4334 H 421.768 -1.46358 0.548544 0
M  V30 4335 H 422.503 -2.82808 -1.58714 0
M  V30 4336 H 422.288 -3.91659 -0.185817 0
M  V30 4337 H 423.778 -4.00824 -1.17174 0
M  V30 4338 N 424.215 -0.530993 -1.48385 0
M  V30 4339 C 425.145 0.219985 -2.32461 0
M  V30 4340 C 426.126 0.934111 -1.42156 0
M  V30 4341 O 427.311 0.919694 -1.71042 0
M  V30 4342 C 424.441 1.26674 -3.23375 0
M  V30 4343 C 423.395 0.67069 -4.22712 0
M  V30 4344 C 422.721 1.82017 -5.02766 0
M  V30 4345 C 424.021 -0.358268 -5.2107 0
M  V30 4346 H 425.715 -0.48187 -2.95497 0
M  V30 4347 H 423.261 -0.233182 -1.42099 0
M  V30 4348 H 425.214 1.80006 -3.81019 0
M  V30 4349 H 423.938 1.99818 -2.58341 0
M  V30 4350 H 422.597 0.158878 -3.66256 0
M  V30 4351 H 422.245 2.54002 -4.34157 0
M  V30 4352 H 421.945 1.42727 -5.70003 0
M  V30 4353 H 423.469 2.35725 -5.63264 0
M  V30 4354 H 424.883 0.0880081 -5.73232 0
M  V30 4355 H 423.28 -0.66861 -5.96364 0
M  V30 4356 H 424.35 -1.26367 -4.68145 0
M  V30 4357 N 425.693 1.55336 -0.266172 0
M  V30 4358 C 427.104 1.85236 0.233315 0
M  V30 4359 C 427.455 1.18816 1.56132 0
M  V30 4360 O 426.58 0.473307 2.11161 0
M  V30 4361 C 427.175 3.36059 0.430113 0
M  V30 4362 C 425.734 3.66116 0.873842 0
M  V30 4363 C 424.881 2.77274 -0.0380016 0
M  V30 4364 H 427.832 1.51004 -0.488214 0
M  V30 4365 H 427.853 3.58681 1.26998 0
M  V30 4366 H 427.365 3.84373 -0.536588 0
M  V30 4367 H 425.466 3.23295 1.85233 0
M  V30 4368 H 425.579 4.73699 0.717358 0
M  V30 4369 H 423.943 2.50198 0.476759 0
M  V30 4370 H 424.726 3.284 -1.00042 0
M  V30 4371 N 427.171 -0.0066808 1.57599 0
M  V30 4372 C 428.418 -0.69292 1.90276 0
M  V30 4373 C 428.746 -1.74148 0.866192 0
M  V30 4374 O 428.001 -1.95268 -0.129933 0
M  V30 4375 C 428.3 -1.37939 3.29708 0
M  V30 4376 C 427.966 -0.464679 4.48499 0
M  V30 4377 C 426.628 -0.212809 4.80729 0
M  V30 4378 C 428.98 0.16551 5.20937 0
M  V30 4379 C 426.308 0.677653 5.82773 0
M  V30 4380 C 428.66 1.04381 6.23929 0
M  V30 4381 C 427.324 1.30492 6.54621 0
M  V30 4382 H 426.594 -0.253558 0.696268 0
M  V30 4383 H 429.241 0.0474123 1.91441 0
M  V30 4384 H 427.546 -2.1936 3.24636 0
M  V30 4385 H 429.243 -1.9163 3.52249 0
M  V30 4386 H 425.833 -0.671153 4.23313 0
M  V30 4387 H 430.017 -0.0160756 4.96297 0
M  V30 4388 H 425.273 0.88803 6.04917 0
M  V30 4389 H 429.447 1.53851 6.79193 0
M  V30 4390 H 427.074 1.99662 7.33512 0
M  V30 4391 N 428.649 -1.55105 -0.279332 0
M  V30 4392 C 429.895 -1.75672 -1.01327 0
M  V30 4393 C 430.228 -0.552739 -1.86168 0
M  V30 4394 O 429.503 0.449827 -1.89227 0
M  V30 4395 C 429.786 -3.05825 -1.90114 0
M  V30 4396 C 429.639 -4.36565 -1.08309 0
M  V30 4397 C 430.958 -3.31975 -2.8893 0
M  V30 4398 H 428.077 -0.639149 -0.366957 0
M  V30 4399 H 430.719 -1.87833 -0.286154 0
M  V30 4400 H 428.869 -2.95588 -2.52111 0
M  V30 4401 H 430.541 -4.58751 -0.484314 0
M  V30 4402 H 428.784 -4.32076 -0.386362 0
M  V30 4403 H 429.455 -5.23946 -1.73737 0
M  V30 4404 H 431.931 -3.41963 -2.37067 0
M  V30 4405 H 430.807 -4.2432 -3.48201 0
M  V30 4406 H 431.068 -2.51309 -3.63725 0
M  V30 4407 N 430.127 0.543554 -1.4793 0
M  V30 4408 C 431.373 1.30201 -1.55485 0
M  V30 4409 C 431.706 1.92925 -0.222201 0
M  V30 4410 O 430.981 1.78586 0.77053 0
M  V30 4411 C 431.264 2.40174 -2.68307 0
M  V30 4412 C 431.117 1.8223 -4.11233 0
M  V30 4413 C 432.436 3.42024 -2.76961 0
M  V30 4414 H 429.555 0.472036 -0.565996 0
M  V30 4415 H 432.197 0.606914 -1.80046 0
M  V30 4416 H 430.347 2.99463 -2.47495 0
M  V30 4417 H 432.019 1.27096 -4.43446 0
M  V30 4418 H 430.262 1.12832 -4.18869 0
M  V30 4419 H 430.933 2.61793 -4.85972 0
M  V30 4420 H 433.409 2.92672 -2.95774 0
M  V30 4421 H 432.285 4.16383 -3.57654 0
M  V30 4422 H 432.546 4.0173 -1.84568 0
M  V30 4423 N 431.605 1.3629 0.791371 0
M  V30 4424 C 432.854 1.29742 1.54434 0
M  V30 4425 C 433.167 -0.121729 1.95221 0
M  V30 4426 O 434.373 -0.309579 2.69729 0
M  V30 4427 C 432.829 2.27623 2.78776 0
M  V30 4428 C 432.437 3.74963 2.45166 0
M  V30 4429 C 434.181 2.30047 3.56761 0
M  V30 4430 C 432.088 4.64626 3.65891 0
M  V30 4431 H 431.018 0.482113 0.579727 0
M  V30 4432 H 433.669 1.61642 0.868565 0
M  V30 4433 H 432.051 1.88714 3.48142 0
M  V30 4434 H 433.225 4.22596 1.83709 0
M  V30 4435 H 431.54 3.75295 1.80396 0
M  V30 4436 H 434.137 2.94247 4.46456 0
M  V30 4437 H 434.48 1.30846 3.95203 0
M  V30 4438 H 435.013 2.67563 2.94372 0
M  V30 4439 H 431.752 5.64883 3.32547 0
M  V30 4440 H 431.272 4.2171 4.26521 0
M  V30 4441 H 432.951 4.80801 4.32943 0
M  V30 4442 N 433.083 -1.0153 1.20538 0
M  V30 4443 C 434.311 -1.78746 1.04199 0
M  V30 4444 C 434.726 -1.84323 -0.408733 0
M  V30 4445 O 434.083 -1.29714 -1.28377 0
M  V30 4446 C 434.134 -3.23152 1.62035 0
M  V30 4447 O 433.855 -3.17918 3.0143 0
M  V30 4448 C 435.356 -4.16911 1.50666 0
M  V30 4449 H 432.576 -0.56208 0.366479 0
M  V30 4450 H 435.12 -1.27794 1.59653 0
M  V30 4451 H 433.275 -3.71248 1.10697 0
M  V30 4452 H 433.689 -4.08567 3.28897 0
M  V30 4453 H 435.163 -5.16072 1.95892 0
M  V30 4454 H 435.64 -4.36791 0.459363 0
M  V30 4455 H 436.246 -3.74698 2.01201 0
M  V30 4456 N 434.561 -1.01147 -1.20859 0
M  V30 4457 C 435.524 -0.582224 -2.21682 0
M  V30 4458 C 436.524 0.344887 -1.57058 0
M  V30 4459 O 437.714 0.134281 -1.73682 0
M  V30 4460 C 434.846 0.150496 -3.40568 0
M  V30 4461 H 436.039 -1.47408 -2.61172 0
M  V30 4462 H 433.592 -0.800695 -1.34233 0
M  V30 4463 H 434.327 1.0575 -3.06574 0
M  V30 4464 H 434.112 -0.515444 -3.88697 0
M  V30 4465 H 435.602 0.438344 -4.15293 0
M  V30 4466 N 436.039 1.36541 -0.78704 0
M  V30 4467 C 437.002 2.28413 -0.189778 0
M  V30 4468 C 438.002 1.48719 0.611499 0
M  V30 4469 O 439.192 1.68737 0.432842 0
M  V30 4470 C 436.324 3.32824 0.737638 0
M  V30 4471 H 437.517 2.82743 -0.999831 0
M  V30 4472 H 435.07 1.46065 -0.556298 0
M  V30 4473 H 435.805 2.83646 1.57212 0
M  V30 4474 H 435.59 3.91752 0.165044 0
M  V30 4475 H 437.08 4.0144 1.15047 0
M  V30 4476 N 437.518 0.538854 1.48102 0
M  V30 4477 C 438.748 0.0122958 2.06596 0
M  V30 4478 C 439.156 -1.27861 1.39457 0
M  V30 4479 O 438.499 -1.77348 0.478907 0
M  V30 4480 C 438.561 -0.273131 3.58461 0
M  V30 4481 C 438.225 0.92561 4.47528 0
M  V30 4482 C 439.222 1.82637 4.86765 0
M  V30 4483 C 436.907 1.13511 4.89306 0
M  V30 4484 C 438.901 2.92047 5.66558 0
M  V30 4485 C 436.588 2.23233 5.68868 0
M  V30 4486 C 437.586 3.12333 6.07402 0
M  V30 4487 O 437.274 4.20155 6.85365 0
M  V30 4488 H 437.006 0.0344283 0.675123 0
M  V30 4489 H 439.56 0.746494 1.91355 0
M  V30 4490 H 437.79 -1.06141 3.71848 0
M  V30 4491 H 439.479 -0.742842 3.99045 0
M  V30 4492 H 440.245 1.67649 4.55103 0
M  V30 4493 H 436.124 0.450835 4.5879 0
M  V30 4494 H 439.668 3.6162 5.96554 0
M  V30 4495 H 435.565 2.38201 5.99942 0
M  V30 4496 H 436.333 4.17975 7.03732 0
M  V30 4497 N 438.996 -1.55193 0.274407 0
M  V30 4498 C 440.242 -1.99877 -0.343086 0
M  V30 4499 C 440.575 -1.16256 -1.55558 0
M  V30 4500 O 439.85 -0.232462 -1.93106 0
M  V30 4501 C 440.133 -3.52706 -0.725965 0
M  V30 4502 C 439.986 -4.47081 0.493818 0
M  V30 4503 C 441.305 -4.11422 -1.56268 0
M  V30 4504 H 438.424 -0.726625 -0.123229 0
M  V30 4505 H 441.066 -1.86136 0.38121 0
M  V30 4506 H 439.216 -3.64546 -1.34307 0
M  V30 4507 H 440.888 -4.47186 1.13237 0
M  V30 4508 H 439.131 -4.1877 1.13201 0
M  V30 4509 H 439.802 -5.51699 0.18217 0
M  V30 4510 H 442.278 -4.02855 -1.04151 0
M  V30 4511 H 441.154 -5.18568 -1.79939 0
M  V30 4512 H 441.415 -3.61607 -2.54348 0
M  V30 4513 N 440.474 -0.00167713 -1.576 0
M  V30 4514 C 441.89 0.354422 -1.55615 0
M  V30 4515 C 442.09 1.74679 -1.00447 0
M  V30 4516 O 441.146 2.4428 -0.639022 0
M  V30 4517 C 442.459 0.22812 -2.99833 0
M  V30 4518 C 444.007 0.302934 -3.11531 0
M  V30 4519 C 444.482 0.205737 -4.57538 0
M  V30 4520 N 445.973 0.263584 -4.62449 0
M  V30 4521 C 446.708 0.211742 -5.73009 0
M  V30 4522 N 446.204 0.110399 -6.92712 0
M  V30 4523 N 447.997 0.263729 -5.61481 0
M  V30 4524 H 440.148 -0.912498 -1.918 0
M  V30 4525 H 442.411 -0.349928 -0.881053 0
M  V30 4526 H 442.117 -0.729934 -3.44042 0
M  V30 4527 H 441.991 1.00951 -3.6344 0
M  V30 4528 H 444.378 1.25143 -2.67251 0
M  V30 4529 H 444.459 -0.508357 -2.50698 0
M  V30 4530 H 444.103 -0.739225 -5.02492 0
M  V30 4531 H 444.033 1.03554 -5.16318 0
M  V30 4532 H 446.524 0.343173 -3.76339 0
M  V30 4533 H 446.837 0.0767828 -7.72762 0
M  V30 4534 H 445.182 0.0760025 -6.94958 0
M  V30 4535 H 448.373 0.34111 -4.66855 0
M  V30 4536 H 448.546 0.219862 -6.47627 0
M  V30 4537 N 441.952 1.55251 0.271103 0
M  V30 4538 C 443.201 1.75151 1.00025 0
M  V30 4539 C 443.514 0.561041 1.87381 0
M  V30 4540 O 444.72 0.642506 2.63788 0
M  V30 4541 C 443.176 3.09999 1.82835 0
M  V30 4542 C 442.784 4.3662 1.00336 0
M  V30 4543 C 444.528 3.39249 2.55168 0
M  V30 4544 C 442.435 5.62506 1.82595 0
M  V30 4545 H 441.365 0.652877 0.377183 0
M  V30 4546 H 444.016 1.81708 0.255843 0
M  V30 4547 H 442.398 2.97485 2.61378 0
M  V30 4548 H 443.572 4.60055 0.261959 0
M  V30 4549 H 441.887 4.14527 0.394486 0
M  V30 4550 H 444.484 4.3051 3.1712 0
M  V30 4551 H 444.827 2.59467 3.2555 0
M  V30 4552 H 445.36 3.52869 1.83653 0
M  V30 4553 H 442.099 6.45041 1.16631 0
M  V30 4554 H 441.619 5.43211 2.54327 0
M  V30 4555 H 443.298 6.00875 2.39913 0
M  V30 4556 N 443.43 -0.535701 1.48216 0
M  V30 4557 C 444.36 -1.65014 1.65204 0
M  V30 4558 C 445.341 -1.62554 0.501011 0
M  V30 4559 O 446.526 -1.7984 0.732886 0
M  V30 4560 C 443.656 -3.03616 1.68626 0
M  V30 4561 C 442.61 -3.20932 2.83172 0
M  V30 4562 C 441.936 -4.60537 2.71679 0
M  V30 4563 C 443.236 -3.04249 4.24535 0
M  V30 4564 H 444.93 -1.51053 2.58502 0
M  V30 4565 H 442.476 -0.725262 1.24402 0
M  V30 4566 H 444.429 -3.81446 1.79099 0
M  V30 4567 H 443.153 -3.18587 0.719026 0
M  V30 4568 H 441.812 -2.45517 2.72244 0
M  V30 4569 H 441.46 -4.72336 1.72937 0
M  V30 4570 H 441.16 -4.73069 3.48538 0
M  V30 4571 H 442.684 -5.40475 2.84112 0
M  V30 4572 H 444.098 -3.71877 4.36326 0
M  V30 4573 H 442.495 -3.28278 5.02348 0
M  V30 4574 H 443.565 -2.00739 4.41397 0
M  V30 4575 N 444.908 -1.36708 -0.784132 0
M  V30 4576 C 445.84 -1.27333 -1.90575 0
M  V30 4577 C 446.853 -0.191706 -1.61667 0
M  V30 4578 O 448.042 -0.446854 -1.72816 0
M  V30 4579 C 445.142 -0.943177 -3.25511 0
M  V30 4580 C 444.315 -2.12776 -3.82158 0
M  V30 4581 C 443.374 -1.76983 -4.95544 0
M  V30 4582 O 442.4 -2.49134 -5.11782 0
M  V30 4583 N 443.602 -0.706624 -5.76183 0
M  V30 4584 H 446.367 -2.23974 -1.99138 0
M  V30 4585 H 443.928 -1.30171 -0.962656 0
M  V30 4586 H 445.92 -0.684799 -3.98864 0
M  V30 4587 H 444.49 -0.0657333 -3.12531 0
M  V30 4588 H 443.71 -2.54863 -3.0073 0
M  V30 4589 H 444.998 -2.91904 -4.16737 0
M  V30 4590 H 444.396 -0.107643 -5.65598 0
M  V30 4591 H 442.953 -0.50808 -6.49817 0
M  V30 4592 N 446.386 1.0089 -1.21074 0
M  V30 4593 C 447.802 1.2695 -0.967257 0
M  V30 4594 C 448.002 1.9846 0.348673 0
M  V30 4595 O 447.058 2.28459 1.0753 0
M  V30 4596 C 448.371 2.09697 -2.15517 0
M  V30 4597 C 449.919 2.22937 -2.197 0
M  V30 4598 C 450.394 3.09064 -3.37999 0
M  V30 4599 N 451.885 3.16653 -3.38061 0
M  V30 4600 C 452.62 3.8354 -4.26245 0
M  V30 4601 N 452.116 4.52488 -5.2462 0
M  V30 4602 N 453.909 3.80141 -4.14064 0
M  V30 4603 H 446.06 0.529005 -2.05707 0
M  V30 4604 H 448.323 0.296148 -0.900556 0
M  V30 4605 H 448.029 1.64497 -3.10859 0
M  V30 4606 H 447.903 3.10444 -2.14253 0
M  V30 4607 H 450.29 2.67357 -1.24916 0
M  V30 4608 H 450.371 1.21673 -2.2501 0
M  V30 4609 H 450.015 2.65347 -4.33074 0
M  V30 4610 H 449.945 4.10433 -3.29928 0
M  V30 4611 H 452.436 2.67566 -2.66865 0
M  V30 4612 H 452.749 5.01219 -5.88217 0
M  V30 4613 H 451.094 4.51288 -5.28549 0
M  V30 4614 H 454.285 3.25427 -3.36474 0
M  V30 4615 H 454.458 4.31992 -4.82998 0
M  V30 4616 N 447.864 1.01787 1.20321 0
M  V30 4617 C 448.797 0.533882 2.21867 0
M  V30 4618 C 449.775 -0.419361 1.57099 0
M  V30 4619 O 450.959 -0.339062 1.85426 0
M  V30 4620 C 448.086 -0.222899 3.37966 0
M  V30 4621 C 447.132 0.680091 4.21043 0
M  V30 4622 S 447.965 2.14997 4.90445 0
M  V30 4623 C 449.121 1.40339 6.09964 0
M  V30 4624 H 449.354 1.39429 2.62577 0
M  V30 4625 H 446.887 0.826867 1.30393 0
M  V30 4626 H 448.845 -0.653425 4.05266 0
M  V30 4627 H 447.506 -1.0589 2.95713 0
M  V30 4628 H 446.699 0.0964704 5.03908 0
M  V30 4629 H 446.301 1.04845 3.59004 0
M  V30 4630 H 448.593 0.68407 6.74038 0
M  V30 4631 H 449.536 2.20823 6.72787 0
M  V30 4632 H 449.944 0.905716 5.57187 0
M  V30 4633 N 449.342 -1.36122 0.79427 0
M  V30 4634 C 450.57 -2.03362 0.380989 0
M  V30 4635 C 450.985 -1.59881 -1.00416 0
M  V30 4636 O 450.342 -0.790515 -1.6449 0
M  V30 4637 C 450.393 -3.58804 0.440649 0
M  V30 4638 O 450.114 -4.007 1.77118 0
M  V30 4639 C 451.615 -4.43296 0.0186117 0
M  V30 4640 H 448.835 -0.652526 0.156367 0
M  V30 4641 H 451.379 -1.73998 1.07447 0
M  V30 4642 H 449.534 -3.8686 -0.204458 0
M  V30 4643 H 449.948 -4.95309 1.72538 0
M  V30 4644 H 451.422 -5.51887 0.111488 0
M  V30 4645 H 451.899 -4.2684 -1.03461 0
M  V30 4646 H 452.505 -4.20512 0.636395 0
M  V30 4647 N 450.82 -0.546701 -1.47814 0
M  V30 4648 C 452.045 -0.021268 -2.07389 0
M  V30 4649 C 452.47 1.25822 -1.39822 0
M  V30 4650 O 451.828 1.75111 -0.46968 0
M  V30 4651 C 451.876 0.168502 -3.60206 0
M  V30 4652 O 450.98 1.23347 -3.93522 0
M  V30 4653 H 450.321 -0.0466108 -0.662362 0
M  V30 4654 H 452.851 -0.759387 -1.89985 0
M  V30 4655 H 452.861 0.385982 -4.0617 0
M  V30 4656 H 451.536 -0.766075 -4.08784 0
M  V30 4657 H 450.113 0.997319 -3.59316 0
M  V30 4658 N 452.299 1.55045 -0.282633 0
M  V30 4659 C 453.524 2.04628 0.337977 0
M  V30 4660 C 453.949 1.15937 1.48123 0
M  V30 4661 O 453.307 0.159532 1.80597 0
M  V30 4662 C 453.355 3.51854 0.78936 0
M  V30 4663 O 452.459 3.66236 1.89592 0
M  V30 4664 H 451.8 0.660434 0.0687261 0
M  V30 4665 H 454.33 2.00261 -0.419124 0
M  V30 4666 H 454.34 3.93361 1.08311 0
M  V30 4667 H 453.015 4.15873 -0.0470419 0
M  V30 4668 H 451.592 3.36633 1.60413 0
M  V30 4669 N 453.777 0.010035 1.57597 0
M  V30 4670 C 455.023 -0.673697 1.91283 0
M  V30 4671 C 455.356 -1.72863 0.884979 0
M  V30 4672 O 454.631 -1.94268 -0.0949487 0
M  V30 4673 C 454.914 -1.30766 3.35518 0
M  V30 4674 C 454.767 -0.263578 4.49027 0
M  V30 4675 C 456.086 -2.23105 3.79358 0
M  V30 4676 H 453.205 -0.243439 0.695634 0
M  V30 4677 H 455.847 0.0633864 1.89894 0
M  V30 4678 H 453.997 -1.93588 3.36832 0
M  V30 4679 H 455.669 0.365738 4.59848 0
M  V30 4680 H 453.912 0.413077 4.31829 0
M  V30 4681 H 454.583 -0.746398 5.4693 0
M  V30 4682 H 457.059 -1.70289 3.79659 0
M  V30 4683 H 455.935 -2.64424 4.81011 0
M  V30 4684 H 456.196 -3.11433 3.13787 0
M  V30 4685 N 455.255 -1.55392 -0.262866 0
M  V30 4686 C 456.218 -1.88181 -1.30846 0
M  V30 4687 C 457.218 -0.757079 -1.41862 0
M  V30 4688 O 458.408 -1.02519 -1.40838 0
M  V30 4689 C 455.54 -2.09609 -2.68844 0
M  V30 4690 H 456.733 -2.81659 -1.02997 0
M  V30 4691 H 454.286 -1.48039 -0.501414 0
M  V30 4692 H 455.021 -1.18547 -3.01856 0
M  V30 4693 H 454.806 -2.91508 -2.62231 0
M  V30 4694 H 456.296 -2.36215 -3.44372 0
M  V30 4695 N 456.733 0.527833 -1.48498 0
M  V30 4696 C 458.144 1.10975 -1.50138 0
M  V30 4697 C 458.495 1.943 -0.272378 0
M  V30 4698 O 457.62 2.07319 0.620301 0
M  V30 4699 C 458.215 2.01927 -2.72049 0
M  V30 4700 C 456.774 2.55332 -2.76554 0
M  V30 4701 C 455.921 1.32341 -2.43683 0
M  V30 4702 H 458.872 0.312986 -1.55583 0
M  V30 4703 H 458.893 2.86244 -2.50689 0
M  V30 4704 H 458.405 1.41254 -3.61481 0
M  V30 4705 H 456.506 3.19721 -1.91336 0
M  V30 4706 H 456.619 2.94319 -3.78038 0
M  V30 4707 H 454.983 1.63989 -1.94884 0
M  V30 4708 H 455.766 0.734165 -3.35358 0
M  V30 4709 N 458.211 1.37122 0.776871 0
M  V30 4710 C 459.174 1.32301 1.8716 0
M  V30 4711 C 460.174 0.228099 1.59174 0
M  V30 4712 O 461.364 0.483642 1.67352 0
M  V30 4713 C 458.496 1.054 3.24197 0
M  V30 4714 H 459.689 2.29673 1.92848 0
M  V30 4715 H 457.242 1.22077 0.97606 0
M  V30 4716 H 457.977 0.0853872 3.24188 0
M  V30 4717 H 457.762 1.84648 3.45901 0
M  V30 4718 H 459.252 1.04664 4.04271 0
M  V30 4719 N 459.689 -1.00246 1.21608 0
M  V30 4720 C 460.914 -1.78167 1.06167 0
M  V30 4721 C 461.339 -1.84138 -0.384035 0
M  V30 4722 O 460.697 -1.28683 -1.27712 0
M  V30 4723 C 460.745 -3.19786 1.66642 0
M  V30 4724 O 459.849 -4.02153 0.913613 0
M  V30 4725 H 459.19 -0.549 0.37349 0
M  V30 4726 H 461.72 -1.25994 1.61204 0
M  V30 4727 H 461.73 -3.70451 1.70969 0
M  V30 4728 H 460.405 -3.14754 2.7185 0
M  V30 4729 H 458.982 -3.60711 0.945635 0
M  V30 4730 N 461.167 -1.02423 -1.1978 0
M  V30 4731 C 462.099 -0.559152 -2.22275 0
M  V30 4732 C 463.112 0.36251 -1.58713 0
M  V30 4733 O 464.301 0.159641 -1.77785 0
M  V30 4734 C 461.401 0.205094 -3.38279 0
M  V30 4735 C 460.574 -0.720361 -4.31427 0
M  V30 4736 C 459.633 -0.00234368 -5.262 0
M  V30 4737 O 458.659 -0.627378 -5.65732 0
M  V30 4738 N 459.861 1.26996 -5.66438 0
M  V30 4739 H 462.626 -1.44064 -2.62804 0
M  V30 4740 H 460.187 -0.902692 -1.34399 0
M  V30 4741 H 462.179 0.694868 -3.9869 0
M  V30 4742 H 460.749 0.987947 -2.96578 0
M  V30 4743 H 459.969 -1.39031 -3.68869 0
M  V30 4744 H 461.257 -1.3495 -4.90577 0
M  V30 4745 H 460.655 1.79858 -5.36347 0
M  V30 4746 H 459.212 1.70432 -6.29123 0
M  V30 4747 N 462.645 1.35699 -0.801477 0
M  V30 4748 C 464.061 1.52065 -0.484596 0
M  V30 4749 C 464.261 1.75215 0.995084 0
M  V30 4750 O 463.317 1.79061 1.78026 0
M  V30 4751 C 464.63 2.69908 -1.32552 0
M  V30 4752 C 466.178 2.83784 -1.32044 0
M  V30 4753 C 466.653 4.04646 -2.14536 0
M  V30 4754 N 468.144 4.11814 -2.12046 0
M  V30 4755 C 468.879 5.04437 -2.72636 0
M  V30 4756 N 468.375 6.02426 -3.42133 0
M  V30 4757 N 470.168 4.97144 -2.62305 0
M  V30 4758 H 462.319 1.18928 -1.75983 0
M  V30 4759 H 464.582 0.581455 -0.748741 0
M  V30 4760 H 464.288 2.59363 -2.37537 0
M  V30 4761 H 464.162 3.64376 -0.975181 0
M  V30 4762 H 466.549 2.93783 -0.27846 0
M  V30 4763 H 466.63 1.90188 -1.71062 0
M  V30 4764 H 466.274 3.95407 -3.18772 0
M  V30 4765 H 466.204 4.97413 -1.72882 0
M  V30 4766 H 468.695 3.41664 -1.61476 0
M  V30 4767 H 469.008 6.69688 -3.85666 0
M  V30 4768 H 467.353 6.02615 -3.46237 0
M  V30 4769 H 470.544 4.19546 -2.07603 0
M  V30 4770 H 470.717 5.69138 -3.09815 0
M  V30 4771 N 464.123 0.554532 1.47522 0
M  V30 4772 C 465.348 0.0322661 2.07375 0
M  V30 4773 C 465.773 -1.25079 1.40488 0
M  V30 4774 O 465.131 -1.74859 0.47896 0
M  V30 4775 C 465.179 -0.149397 3.6029 0
M  V30 4776 O 464.283 -1.21259 3.9417 0
M  V30 4777 H 463.624 0.0501228 0.662106 0
M  V30 4778 H 466.154 0.769452 1.8958 0
M  V30 4779 H 466.164 -0.364437 4.06369 0
M  V30 4780 H 464.839 0.787743 4.08372 0
M  V30 4781 H 463.416 -0.97825 3.5984 0
M  V30 4782 N 465.601 -1.54893 0.290851 0
M  V30 4783 C 466.85 -1.99111 -0.322113 0
M  V30 4784 C 467.163 -1.18283 -1.55784 0
M  V30 4785 O 468.369 -1.5272 -2.24475 0
M  V30 4786 C 466.825 -3.54442 -0.624438 0
M  V30 4787 C 466.433 -4.44066 0.592373 0
M  V30 4788 C 468.177 -4.07211 -1.19916 0
M  V30 4789 C 466.084 -5.90812 0.263762 0
M  V30 4790 H 465.014 -0.743712 -0.124133 0
M  V30 4791 H 467.665 -1.79132 0.39797 0
M  V30 4792 H 466.047 -3.70281 -1.40384 0
M  V30 4793 H 467.221 -4.39999 1.36886 0
M  V30 4794 H 465.536 -4.02015 1.08502 0
M  V30 4795 H 468.133 -5.14407 -1.45909 0
M  V30 4796 H 468.476 -3.57196 -2.13815 0
M  V30 4797 H 469.009 -3.94873 -0.481687 0
M  V30 4798 H 465.748 -6.44955 1.17105 0
M  V30 4799 H 465.268 -5.97911 -0.475655 0
M  V30 4800 H 466.947 -6.46852 -0.138354 0
M  V30 4801 N 467.08 -0.0183926 -1.57589 0
M  V30 4802 C 468.496 0.337897 -1.55982 0
M  V30 4803 C 468.696 1.73604 -1.02294 0
M  V30 4804 O 467.752 2.43589 -0.664895 0
M  V30 4805 C 469.065 0.196305 -3.00059 0
M  V30 4806 C 470.613 0.269875 -3.11834 0
M  V30 4807 C 471.088 0.157197 -4.5773 0
M  V30 4808 N 472.579 0.214521 -4.62703 0
M  V30 4809 C 473.314 0.150955 -5.73201 0
M  V30 4810 N 472.81 0.0369212 -6.9279 0
M  V30 4811 N 474.603 0.204162 -5.61729 0
M  V30 4812 H 466.754 -0.93279 -1.90821 0
M  V30 4813 H 469.017 -0.359253 -0.877292 0
M  V30 4814 H 468.723 -0.766383 -3.43248 0
M  V30 4815 H 468.597 0.970908 -3.6449 0
M  V30 4816 H 470.984 1.22302 -2.68563 0
M  V30 4817 H 471.065 -0.534918 -2.50144 0
M  V30 4818 H 470.709 -0.792479 -5.01679 0
M  V30 4819 H 470.639 0.980717 -5.17387 0
M  V30 4820 H 473.13 0.303238 -3.76681 0
M  V30 4821 H 473.443 -0.00518321 -7.728 0
M  V30 4822 H 471.788 0.0022886 -6.95 0
M  V30 4823 H 474.979 0.291575 -4.67191 0
M  V30 4824 H 475.152 0.15116 -6.47824 0
M  V30 4825 N 468.558 1.5553 0.254621 0
M  V30 4826 C 469.488 1.9268 1.31897 0
M  V30 4827 C 470.469 0.790797 1.506 0
M  V30 4828 O 471.654 1.05045 1.63337 0
M  V30 4829 C 468.784 2.21477 2.67517 0
M  V30 4830 C 467.738 3.37256 2.63519 0
M  V30 4831 C 467.064 3.51576 4.02862 0
M  V30 4832 C 468.364 4.73157 2.21179 0
M  V30 4833 H 470.058 2.81832 1.01051 0
M  V30 4834 H 467.604 1.35599 0.484662 0
M  V30 4835 H 469.557 2.46055 3.42104 0
M  V30 4836 H 468.281 1.29144 2.99982 0
M  V30 4837 H 466.94 3.12675 1.9139 0
M  V30 4838 H 466.588 2.56676 4.32581 0
M  V30 4839 H 466.288 4.2943 4.01078 0
M  V30 4840 H 467.812 3.78467 4.79161 0
M  V30 4841 H 469.226 4.97158 2.85494 0
M  V30 4842 H 467.623 5.54058 2.30521 0
M  V30 4843 H 468.693 4.70739 1.16332 0
M  V30 4844 N 470.036 -0.519951 1.48776 0
M  V30 4845 C 471.452 -0.849418 1.35119 0
M  V30 4846 C 471.652 -1.98077 0.36982 0
M  V30 4847 O 470.708 -2.51664 -0.205359 0
M  V30 4848 C 472.021 -1.20748 2.75391 0
M  V30 4849 C 473.569 -1.31679 2.83954 0
M  V30 4850 C 474.044 -1.70824 4.24951 0
M  V30 4851 N 475.535 -1.77908 4.27672 0
M  V30 4852 C 476.27 -2.09603 5.33717 0
M  V30 4853 N 475.766 -2.39652 6.5003 0
M  V30 4854 N 477.559 -2.10694 5.21119 0
M  V30 4855 H 469.71 0.226377 2.1119 0
M  V30 4856 H 471.973 0.0386519 0.947212 0
M  V30 4857 H 471.679 -0.449703 3.48813 0
M  V30 4858 H 471.553 -2.15534 3.09556 0
M  V30 4859 H 473.94 -2.06532 2.10781 0
M  V30 4860 H 474.021 -0.3499 2.53396 0
M  V30 4861 H 473.665 -0.965282 4.98643 0
M  V30 4862 H 473.595 -2.6858 4.52959 0
M  V30 4863 H 476.086 -1.56923 3.43779 0
M  V30 4864 H 476.399 -2.6297 7.26682 0
M  V30 4865 H 474.744 -2.37149 6.53288 0
M  V30 4866 H 477.935 -1.86682 4.29264 0
M  V30 4867 H 478.108 -2.35062 6.03863 0
M  V30 4868 N 471.514 -1.37532 -0.769588 0
M  V30 4869 C 472.742 -1.36059 -1.55871 0
M  V30 4870 C 473.157 0.053544 -1.88724 0
M  V30 4871 O 472.514 1.01591 -1.5161 0
M  V30 4872 C 472.565 -2.20107 -2.86767 0
M  V30 4873 O 472.286 -3.56009 -2.55321 0
M  V30 4874 C 473.787 -2.26636 -3.80987 0
M  V30 4875 H 471.007 -0.465967 -0.482821 0
M  V30 4876 H 473.551 -1.80901 -0.953686 0
M  V30 4877 H 471.706 -1.78768 -3.43687 0
M  V30 4878 H 472.12 -4.0009 -3.39158 0
M  V30 4879 H 473.594 -2.89763 -4.69831 0
M  V30 4880 H 474.071 -1.2754 -4.20274 0
M  V30 4881 H 474.677 -2.68296 -3.29996 0
M  V30 4882 N 472.992 0.995999 -1.22138 0
M  V30 4883 C 473.939 2.08551 -0.988687 0
M  V30 4884 C 474.909 1.65864 0.0885021 0
M  V30 4885 O 476.094 1.90704 -0.0604589 0
M  V30 4886 C 473.234 3.40374 -0.569191 0
M  V30 4887 C 472.347 3.96421 -1.71681 0
M  V30 4888 C 471.482 5.1639 -1.2456 0
M  V30 4889 C 470.521 5.64567 -2.36497 0
M  V30 4890 N 469.658 6.75777 -1.90445 0
M  V30 4891 H 474.498 2.2779 -1.92135 0
M  V30 4892 H 472.035 1.1168 -0.957388 0
M  V30 4893 H 473.993 4.16068 -0.307166 0
M  V30 4894 H 472.623 3.21145 0.326462 0
M  V30 4895 H 471.675 3.17628 -2.09324 0
M  V30 4896 H 472.987 4.2816 -2.55891 0
M  V30 4897 H 472.141 5.99362 -0.940774 0
M  V30 4898 H 470.88 4.86266 -0.373662 0
M  V30 4899 H 469.885 4.80185 -2.67772 0
M  V30 4900 H 471.11 5.96716 -3.24202 0
M  V30 4901 H 469.056 6.47443 -1.05609 0
M  V30 4902 H 468.973 7.06818 -2.68223 0
M  V30 4903 H 470.241 7.62262 -1.63022 0
M  V30 4904 N 474.47 1.03057 1.19235 0
M  V30 4905 C 475.886 0.747947 1.40989 0
M  V30 4906 C 476.086 -0.666752 1.90149 0
M  V30 4907 O 475.142 -1.43249 2.07933 0
M  V30 4908 C 476.455 1.7855 2.41951 0
M  V30 4909 C 478.003 1.80524 2.55695 0
M  V30 4910 C 478.478 2.83243 3.59913 0
M  V30 4911 N 479.969 2.8207 3.67411 0
M  V30 4912 C 480.704 3.58204 4.47747 0
M  V30 4913 N 480.2 4.44057 5.31775 0
M  V30 4914 N 481.993 3.46738 4.42413 0
M  V30 4915 H 474.144 1.94367 0.856468 0
M  V30 4916 H 476.407 0.840412 0.438647 0
M  V30 4917 H 476.113 2.79973 2.12857 0
M  V30 4918 H 475.987 1.6092 3.41152 0
M  V30 4919 H 478.374 0.79778 2.84112 0
M  V30 4920 H 478.455 2.02229 1.56643 0
M  V30 4921 H 478.099 3.84161 3.32239 0
M  V30 4922 H 478.029 2.58795 4.5862 0
M  V30 4923 H 480.52 2.19803 3.074 0
M  V30 4924 H 480.833 4.98884 5.90199 0
M  V30 4925 H 479.178 4.48129 5.3123 0
M  V30 4926 H 482.369 2.79077 3.75811 0
M  V30 4927 H 482.542 4.06322 5.04783 0
M  V30 4928 N 475.948 -1.35272 0.808662 0
M  V30 4929 C 477.194 -1.99003 0.390581 0
M  V30 4930 C 477.527 -1.63999 -1.0401 0
M  V30 4931 O 476.802 -0.904368 -1.72196 0
M  V30 4932 C 477.085 -3.55454 0.576566 0
M  V30 4933 C 476.938 -4.00249 2.05233 0
M  V30 4934 C 478.257 -4.401 0.00354277 0
M  V30 4935 H 475.376 -0.722917 0.143388 0
M  V30 4936 H 478.018 -1.6039 1.01858 0
M  V30 4937 H 476.168 -3.88477 0.0419766 0
M  V30 4938 H 477.84 -3.77626 2.64946 0
M  V30 4939 H 476.083 -3.51082 2.54801 0
M  V30 4940 H 476.754 -5.0911 2.13333 0
M  V30 4941 H 479.23 -4.13548 0.460117 0
M  V30 4942 H 478.106 -5.48656 0.163575 0
M  V30 4943 H 478.367 -4.28444 -1.09032 0
M  V30 4944 N 477.426 -0.562348 -1.47226 0
M  V30 4945 C 478.654 -0.0452275 -2.06851 0
M  V30 4946 C 479.069 1.25078 -1.41424 0
M  V30 4947 O 478.426 1.75156 -0.512513 0
M  V30 4948 C 478.477 0.148674 -3.61194 0
M  V30 4949 O 478.198 -1.09602 -4.24169 0
M  V30 4950 C 479.699 0.702488 -4.37699 0
M  V30 4951 H 476.919 -0.0481775 -0.669268 0
M  V30 4952 H 479.463 -0.777223 -1.89155 0
M  V30 4953 H 477.618 0.830817 -3.78386 0
M  V30 4954 H 478.032 -0.896982 -5.16773 0
M  V30 4955 H 479.506 0.78743 -5.46355 0
M  V30 4956 H 479.983 1.71493 -4.04335 0
M  V30 4957 H 480.589 0.0558772 -4.25263 0
M  V30 4958 N 478.904 1.54736 -0.299062 0
M  V30 4959 C 480.32 1.59507 0.0543849 0
M  V30 4960 C 480.52 1.31606 1.52585 0
M  V30 4961 O 479.576 1.08853 2.27832 0
M  V30 4962 C 480.889 2.98751 -0.34181 0
M  V30 4963 C 482.437 3.1165 -0.290414 0
M  V30 4964 C 482.912 4.53199 -0.661402 0
M  V30 4965 N 484.403 4.59114 -0.613863 0
M  V30 4966 C 485.138 5.66709 -0.873417 0
M  V30 4967 N 484.634 6.82349 -1.19884 0
M  V30 4968 N 486.427 5.56369 -0.800608 0
M  V30 4969 H 478.578 1.71133 -1.25806 0
M  V30 4970 H 480.841 0.799186 -0.509908 0
M  V30 4971 H 480.547 3.24085 -1.36608 0
M  V30 4972 H 480.421 3.75961 0.305508 0
M  V30 4973 H 482.808 2.86066 0.724605 0
M  V30 4974 H 482.889 2.366 -0.972327 0
M  V30 4975 H 482.533 4.79513 -1.67422 0
M  V30 4976 H 482.463 5.26583 0.0425612 0
M  V30 4977 H 484.954 3.76053 -0.3732 0
M  V30 4978 H 485.267 7.60326 -1.38291 0
M  V30 4979 H 483.612 6.83906 -1.23685 0
M  V30 4980 H 486.803 4.64904 -0.546045 0
M  V30 4981 H 486.976 6.40139 -1.00626 0
M  V30 4982 N 480.382 0.0267497 1.57577 0
M  V30 4983 C 481.61 -0.662661 1.96001 0
M  V30 4984 C 482.025 -1.65799 0.903117 0
M  V30 4985 O 481.382 -1.82135 -0.115317 0
M  V30 4986 C 481.433 -1.37112 3.34488 0
M  V30 4987 O 481.154 -0.415683 4.36123 0
M  V30 4988 C 482.655 -2.15257 3.8753 0
M  V30 4989 H 479.875 -0.18287 0.6456 0
M  V30 4990 H 482.419 0.0858116 2.0432 0
M  V30 4991 H 480.574 -2.07101 3.27395 0
M  V30 4992 H 480.988 -0.918496 5.16395 0
M  V30 4993 H 482.462 -2.60285 4.86781 0
M  V30 4994 H 482.939 -2.99063 3.21649 0
M  V30 4995 H 483.545 -1.50231 3.97883 0
M  V30 4996 N 481.861 -1.55662 -0.24637 0
M  V30 4997 C 482.824 -1.89558 -1.28842 0
M  V30 4998 C 483.824 -0.772082 -1.41052 0
M  V30 4999 O 485.014 -1.04007 -1.39743 0
M  V30 5000 C 482.146 -2.12449 -2.66605 0
M  V30 5001 H 483.339 -2.82735 -1.00004 0
M  V30 5002 H 480.892 -1.48562 -0.485684 0
M  V30 5003 H 481.627 -1.21742 -3.00582 0
M  V30 5004 H 481.412 -2.94273 -2.59125 0
M  V30 5005 H 482.902 -2.39854 -3.41847 0
M  V30 5006 N 483.339 0.512053 -1.4905 0
M  V30 5007 C 484.588 1.26343 -1.57227 0
M  V30 5008 C 484.901 1.93876 -0.259155 0
M  V30 5009 O 486.107 2.70612 -0.219358 0
M  V30 5010 C 484.563 2.29343 -2.77362 0
M  V30 5011 C 484.171 1.67799 -4.15388 0
M  V30 5012 C 485.915 3.05378 -2.94864 0
M  V30 5013 C 483.822 2.68845 -5.2676 0
M  V30 5014 H 482.752 0.475231 -0.585382 0
M  V30 5015 H 485.403 0.53862 -1.75417 0
M  V30 5016 H 483.785 3.04938 -2.52643 0
M  V30 5017 H 484.959 0.982715 -4.50199 0
M  V30 5018 H 483.274 1.04194 -4.03153 0
M  V30 5019 H 485.871 3.80921 -3.75238 0
M  V30 5020 H 486.214 3.62327 -2.05 0
M  V30 5021 H 486.747 2.36898 -3.19569 0
M  V30 5022 H 483.486 2.16692 -6.18647 0
M  V30 5023 H 483.006 3.36647 -4.96416 0
M  V30 5024 H 484.685 3.31487 -5.5563 0
M  V30 5025 N 484.817 1.37938 0.762283 0
M  V30 5026 C 485.78 1.34279 1.85747 0
M  V30 5027 C 486.78 0.244969 1.58923 0
M  V30 5028 O 487.97 0.501365 1.66829 0
M  V30 5029 C 485.102 1.08833 3.23061 0
M  V30 5030 H 486.295 2.31705 1.90401 0
M  V30 5031 H 483.848 1.23105 0.963057 0
M  V30 5032 H 484.583 0.119767 3.24079 0
M  V30 5033 H 484.368 1.88306 3.43923 0
M  V30 5034 H 485.858 1.08946 4.03138 0
M  V30 5035 N 486.295 -0.989507 1.22664 0
M  V30 5036 C 487.544 -1.72375 1.04737 0
M  V30 5037 C 487.857 -1.91096 -0.417316 0
M  V30 5038 O 489.063 -2.6188 -0.716334 0
M  V30 5039 C 487.519 -3.10161 1.82561 0
M  V30 5040 C 487.127 -2.99358 3.333 0
M  V30 5041 C 488.871 -3.87607 1.73093 0
M  V30 5042 C 486.778 -4.32319 4.03552 0
M  V30 5043 H 485.708 -0.646326 0.388302 0
M  V30 5044 H 488.359 -1.10437 1.46546 0
M  V30 5045 H 486.741 -3.728 1.33552 0
M  V30 5046 H 487.915 -2.45863 3.89728 0
M  V30 5047 H 486.23 -2.35392 3.43481 0
M  V30 5048 H 488.827 -4.86025 2.22899 0
M  V30 5049 H 489.17 -4.10509 0.691976 0
M  V30 5050 H 489.703 -3.31652 2.19663 0
M  V30 5051 H 486.442 -4.14616 5.07714 0
M  V30 5052 H 485.962 -4.85714 3.51911 0
M  V30 5053 H 487.641 -5.01051 4.09337 0
M  V30 5054 N 487.773 -1.03688 -1.18687 0
M  V30 5055 C 489.013 -0.746858 -1.90267 0
M  V30 5056 C 489.377 0.712075 -1.78307 0
M  V30 5057 O 490.578 1.11553 -2.44559 0
M  V30 5058 C 488.849 -1.19543 -3.36815 0
M  V30 5059 S 490.408 -1.03047 -4.26529 0
M  V30 5060 H 487.226 -0.271663 -0.657054 0
M  V30 5061 H 489.828 -1.32838 -1.43437 0
M  V30 5062 H 488.532 -2.2527 -3.43047 0
M  V30 5063 H 488.063 -0.607533 -3.88681 0
M  V30 5064 H 490.078 0.0543232 -4.9617 0
M  V30 5065 N 489.251 1.34841 -0.815825 0
M  V30 5066 C 490.181 2.32187 -0.247298 0
M  V30 5067 C 491.162 1.5791 0.632344 0
M  V30 5068 O 492.347 1.8593 0.560698 0
M  V30 5069 C 489.477 3.42122 0.597466 0
M  V30 5070 C 488.431 4.27602 -0.184446 0
M  V30 5071 C 487.757 5.28942 0.782609 0
M  V30 5072 C 489.057 5.03502 -1.38865 0
M  V30 5073 H 490.751 2.79985 -1.06061 0
M  V30 5074 H 488.297 1.34611 -0.511461 0
M  V30 5075 H 490.25 4.09232 1.00533 0
M  V30 5076 H 488.974 2.92956 1.44376 0
M  V30 5077 H 487.633 3.62085 -0.573592 0
M  V30 5078 H 487.281 4.7604 1.62466 0
M  V30 5079 H 486.981 5.87008 0.263695 0
M  V30 5080 H 488.505 5.98922 1.18848 0
M  V30 5081 H 489.919 5.63506 -1.05518 0
M  V30 5082 H 488.316 5.71108 -1.8427 0
M  V30 5083 H 489.386 4.33608 -2.17054 0
M  V30 5084 N 490.729 0.570148 1.46925 0
M  V30 5085 C 491.975 0.0510284 2.02736 0
M  V30 5086 C 492.308 -1.3006 1.44215 0
M  V30 5087 O 491.583 -1.84932 0.602521 0
M  V30 5088 C 491.866 -0.028215 3.60089 0
M  V30 5089 C 491.719 1.35142 4.29018 0
M  V30 5090 C 493.038 -0.735181 4.33916 0
M  V30 5091 H 490.157 0.0200178 0.736728 0
M  V30 5092 H 492.799 0.73493 1.75211 0
M  V30 5093 H 490.949 -0.610648 3.83671 0
M  V30 5094 H 492.621 1.97806 4.16738 0
M  V30 5095 H 490.864 1.9226 3.88868 0
M  V30 5096 H 491.535 1.24857 5.37694 0
M  V30 5097 H 494.011 -0.240519 4.15404 0
M  V30 5098 H 492.887 -0.759622 5.43618 0
M  V30 5099 H 493.148 -1.79397 4.04066 0
M  V30 5100 N 492.207 -1.54576 0.307264 0
M  V30 5101 C 493.454 -2.00263 -0.300167 0
M  V30 5102 C 493.782 -1.19561 -1.53413 0
M  V30 5103 O 493.037 -0.261487 -1.93945 0
M  V30 5104 C 493.336 -3.50572 -0.695253 0
M  V30 5105 C 493.002 -4.48771 0.437679 0
M  V30 5106 C 491.664 -4.7534 0.748681 0
M  V30 5107 C 494.016 -5.0721 1.19949 0
M  V30 5108 C 491.344 -5.5761 1.8245 0
M  V30 5109 C 493.696 -5.90651 2.26527 0
M  V30 5110 C 492.36 -6.15528 2.58227 0
M  V30 5111 H 491.63 -0.732814 -0.109839 0
M  V30 5112 H 494.277 -1.86664 0.427661 0
M  V30 5113 H 492.582 -3.61814 -1.50326 0
M  V30 5114 H 494.279 -3.83352 -1.17653 0
M  V30 5115 H 490.869 -4.282 0.185187 0
M  V30 5116 H 495.053 -4.86679 0.972474 0
M  V30 5117 H 490.309 -5.75121 2.07476 0
M  V30 5118 H 494.483 -6.34957 2.86011 0
M  V30 5119 H 492.11 -6.79066 3.4172 0
M  V30 5120 N 493.685 -0.035106 -1.57561 0
M  V30 5121 C 494.932 0.642229 -1.92046 0
M  V30 5122 C 495.26 1.7179 -0.91206 0
M  V30 5123 O 494.515 1.95544 0.0781153 0
M  V30 5124 C 494.814 1.29149 -3.3325 0
M  V30 5125 C 494.48 0.345604 -4.49574 0
M  V30 5126 C 493.142 0.0852775 -4.81124 0
M  V30 5127 C 495.494 -0.303569 -5.20315 0
M  V30 5128 C 492.822 -0.831927 -5.80772 0
M  V30 5129 C 495.174 -1.20886 -6.20942 0
M  V30 5130 C 493.838 -1.47802 -6.50931 0
M  V30 5131 H 493.108 0.235008 -0.702746 0
M  V30 5132 H 495.755 -0.0981529 -1.91248 0
M  V30 5133 H 494.06 2.10676 -3.30337 0
M  V30 5134 H 495.757 1.82223 -3.57205 0
M  V30 5135 H 492.347 0.558683 -4.24943 0
M  V30 5136 H 496.531 -0.115515 -4.96166 0
M  V30 5137 H 491.787 -1.0481 -6.02349 0
M  V30 5138 H 495.961 -1.71804 -6.74875 0
M  V30 5139 H 493.588 -2.19039 -7.2796 0
M  V30 5140 N 495.163 1.55791 0.238111 0
M  V30 5141 C 496.409 1.78297 0.966337 0
M  V30 5142 C 496.742 0.601903 1.84637 0
M  V30 5143 O 496.017 -0.399499 1.90353 0
M  V30 5144 C 496.3 3.10758 1.81939 0
M  V30 5145 C 496.153 4.39283 0.966958 0
M  V30 5146 C 497.472 3.39519 2.80027 0
M  V30 5147 H 494.591 0.648654 0.349882 0
M  V30 5148 H 497.233 1.88525 0.236253 0
M  V30 5149 H 495.383 3.02168 2.44185 0
M  V30 5150 H 497.055 4.59873 0.362514 0
M  V30 5151 H 495.298 4.32948 0.271669 0
M  V30 5152 H 495.969 5.28368 1.59784 0
M  V30 5153 H 498.445 3.48128 2.27917 0
M  V30 5154 H 497.321 4.33402 3.36829 0
M  V30 5155 H 497.582 2.60864 3.56934 0
M  V30 5156 N 496.642 -0.504142 1.49319 0
M  V30 5157 C 497.882 -1.26867 1.60263 0
M  V30 5158 C 498.246 -1.89924 0.281578 0
M  V30 5159 O 499.447 -2.67479 0.266176 0
M  V30 5160 C 497.718 -2.30956 2.72753 0
M  V30 5161 S 499.277 -3.1679 3.03628 0
M  V30 5162 H 496.095 -0.431198 0.565322 0
M  V30 5163 H 498.697 -0.571407 1.86963 0
M  V30 5164 H 497.401 -1.83156 3.67263 0
M  V30 5165 H 496.932 -3.05356 2.48035 0
M  V30 5166 H 498.947 -4.31549 2.44908 0
M  V30 5167 N 498.12 -1.38341 -0.754957 0
M  V30 5168 C 499.366 -1.35678 -1.51536 0
M  V30 5169 C 499.721 0.0533985 -1.92326 0
M  V30 5170 O 499.014 1.01573 -1.6246 0
M  V30 5171 C 499.208 -2.2452 -2.78075 0
M  V30 5172 C 499.037 -3.74035 -2.49655 0
M  V30 5173 C 497.807 -4.43066 -2.42942 0
M  V30 5174 C 500.005 -4.665 -2.16523 0
M  V30 5175 N 497.987 -5.78026 -2.06783 0
M  V30 5176 C 499.358 -5.89962 -1.90644 0
M  V30 5177 C 501.413 -4.54718 -2.02821 0
M  V30 5178 C 500.116 -7.0296 -1.52444 0
M  V30 5179 C 502.142 -5.67618 -1.66023 0
M  V30 5180 C 501.504 -6.90141 -1.41015 0
M  V30 5181 H 497.603 -0.551764 -0.554148 0
M  V30 5182 H 500.187 -1.73716 -0.879258 0
M  V30 5183 H 498.358 -1.88673 -3.39496 0
M  V30 5184 H 500.09 -2.12993 -3.44116 0
M  V30 5185 H 496.845 -3.96264 -2.59367 0
M  V30 5186 H 497.269 -6.49394 -1.91353 0
M  V30 5187 H 501.911 -3.60546 -2.20831 0
M  V30 5188 H 499.629 -7.97051 -1.33174 0
M  V30 5189 H 503.215 -5.6048 -1.56055 0
M  V30 5190 H 502.095 -7.76021 -1.12965 0
M  V30 5191 N 499.598 0.982988 -1.23187 0
M  V30 5192 C 500.561 2.05649 -1.01198 0
M  V30 5193 C 501.561 1.6078 0.0252464 0
M  V30 5194 O 502.751 1.72878 -0.214243 0
M  V30 5195 C 499.883 3.36744 -0.530656 0
M  V30 5196 H 501.076 2.2659 -1.96461 0
M  V30 5197 H 498.629 1.15602 -1.05195 0
M  V30 5198 H 499.364 3.21492 0.425873 0
M  V30 5199 H 499.149 3.7065 -1.2791 0
M  V30 5200 H 500.639 4.15705 -0.397366 0
M  V30 5201 N 501.076 1.04316 1.18135 0
M  V30 5202 C 502.487 0.775505 1.69832 0
M  V30 5203 C 502.838 -0.703348 1.8316 0
M  V30 5204 O 501.963 -1.54729 1.51287 0
M  V30 5205 C 502.558 1.40112 3.0847 0
M  V30 5206 C 501.117 1.18172 3.57368 0
M  V30 5207 C 500.264 1.49022 2.33854 0
M  V30 5208 H 503.215 1.20925 1.02775 0
M  V30 5209 H 503.236 0.805672 3.71873 0
M  V30 5210 H 502.748 2.47744 2.98738 0
M  V30 5211 H 500.849 0.124258 3.72393 0
M  V30 5212 H 500.962 1.8805 4.40652 0
M  V30 5213 H 499.326 0.909995 2.37889 0
M  V30 5214 H 500.109 2.57768 2.26738 0
M  V30 5215 N 502.554 -1.34406 0.822964 0
M  V30 5216 C 503.784 -2.02214 0.423424 0
M  V30 5217 C 504.192 -1.62124 -0.975322 0
M  V30 5218 O 503.535 -0.822452 -1.6426 0
M  V30 5219 C 503.597 -3.56721 0.446107 0
M  V30 5220 C 503.261 -4.20136 1.79819 0
M  V30 5221 C 504.258 -4.4065 2.75904 0
M  V30 5222 C 501.943 -4.56906 2.08669 0
M  V30 5223 C 503.937 -4.9706 3.99012 0
M  V30 5224 C 501.624 -5.13026 3.32036 0
M  V30 5225 C 502.622 -5.33047 4.27024 0
M  V30 5226 O 502.31 -5.87979 5.48211 0
M  V30 5227 H 502.042 -0.654748 0.168169 0
M  V30 5228 H 504.596 -1.72659 1.11257 0
M  V30 5229 H 502.826 -3.85537 -0.299734 0
M  V30 5230 H 504.515 -4.05845 0.0666114 0
M  V30 5231 H 505.281 -4.12607 2.54912 0
M  V30 5232 H 501.16 -4.40626 1.35535 0
M  V30 5233 H 504.704 -5.12603 4.73164 0
M  V30 5234 H 500.601 -5.40498 3.52891 0
M  V30 5235 H 501.369 -6.06413 5.49732 0
M  V30 5236 N 504.032 -0.577932 -1.46621 0
M  V30 5237 C 505.262 -0.0670668 -2.06491 0
M  V30 5238 C 505.67 1.24119 -1.42798 0
M  V30 5239 O 505.013 1.76016 -0.525759 0
M  V30 5240 C 505.075 0.177995 -3.59059 0
M  V30 5241 C 504.739 -1.04394 -4.44917 0
M  V30 5242 C 505.736 -1.95479 -4.81751 0
M  V30 5243 C 503.421 -1.26444 -4.86125 0
M  V30 5244 C 505.415 -3.06965 -5.58615 0
M  V30 5245 C 503.102 -2.38237 -5.62749 0
M  V30 5246 C 504.1 -3.28327 -5.98908 0
M  V30 5247 O 503.788 -4.38179 -6.73984 0
M  V30 5248 H 503.52 -0.0523159 -0.673973 0
M  V30 5249 H 506.074 -0.796966 -1.89308 0
M  V30 5250 H 504.304 0.962451 -3.74531 0
M  V30 5251 H 505.993 0.636782 -4.00874 0
M  V30 5252 H 506.759 -1.79657 -4.50498 0
M  V30 5253 H 502.638 -0.572316 -4.57434 0
M  V30 5254 H 506.182 -3.77309 -5.86757 0
M  V30 5255 H 502.079 -2.54023 -5.93416 0
M  V30 5256 H 502.847 -4.36486 -6.92403 0
M  V30 5257 N 505.51 1.54411 -0.315457 0
M  V30 5258 C 506.756 2.00716 0.289972 0
M  V30 5259 C 507.089 1.2034 1.5242 0
M  V30 5260 O 506.364 0.283579 1.92422 0
M  V30 5261 C 506.647 3.54507 0.632196 0
M  V30 5262 C 506.5 4.45615 -0.61218 0
M  V30 5263 C 507.819 4.15421 1.45305 0
M  V30 5264 H 504.938 0.729637 0.10392 0
M  V30 5265 H 507.58 1.8506 -0.430427 0
M  V30 5266 H 505.73 3.67979 1.24595 0
M  V30 5267 H 507.402 4.44026 -1.25053 0
M  V30 5268 H 505.645 4.15621 -1.24264 0
M  V30 5269 H 506.316 5.51022 -0.328379 0
M  V30 5270 H 508.792 4.05474 0.934331 0
M  V30 5271 H 507.668 5.23157 1.66127 0
M  V30 5272 H 507.929 3.68223 2.44671 0
M  V30 5273 N 506.988 0.0434614 1.5754 0
M  V30 5274 C 507.918 -0.931651 2.14109 0
M  V30 5275 C 508.899 -1.32971 1.06079 0
M  V30 5276 O 510.084 -1.40579 1.33982 0
M  V30 5277 C 507.214 -2.20914 2.67982 0
M  V30 5278 C 506.168 -1.95139 3.80926 0
M  V30 5279 C 505.494 -3.29276 4.21285 0
M  V30 5280 C 506.794 -1.27913 5.06395 0
M  V30 5281 H 508.488 -0.460497 2.95837 0
M  V30 5282 H 506.034 -0.220058 1.42309 0
M  V30 5283 H 507.987 -2.89522 3.06194 0
M  V30 5284 H 506.711 -2.70221 1.83434 0
M  V30 5285 H 505.37 -1.28945 3.43175 0
M  V30 5286 H 505.018 -3.76369 3.33699 0
M  V30 5287 H 504.718 -3.12831 4.97404 0
M  V30 5288 H 506.242 -3.99129 4.62091 0
M  V30 5289 H 507.656 -1.86544 5.42102 0
M  V30 5290 H 506.053 -1.2182 5.87605 0
M  V30 5291 H 507.123 -0.254066 4.84234 0
M  V30 5292 N 508.466 -1.55915 -0.229846 0
M  V30 5293 C 509.398 -1.88209 -1.30805 0
M  V30 5294 C 510.411 -0.769672 -1.43457 0
M  V30 5295 O 511.6 -1.04792 -1.44502 0
M  V30 5296 C 508.7 -2.06829 -2.68468 0
M  V30 5297 C 507.873 -3.37798 -2.77869 0
M  V30 5298 C 506.932 -3.45952 -3.96489 0
M  V30 5299 O 505.958 -4.19043 -3.85216 0
M  V30 5300 N 507.16 -2.76488 -5.10426 0
M  V30 5301 H 509.925 -2.81286 -1.03431 0
M  V30 5302 H 507.486 -1.5636 -0.41991 0
M  V30 5303 H 509.478 -2.09608 -3.46189 0
M  V30 5304 H 508.048 -1.20416 -2.88477 0
M  V30 5305 H 507.268 -3.4719 -1.86689 0
M  V30 5306 H 508.556 -4.24091 -2.81113 0
M  V30 5307 H 507.954 -2.16868 -5.2248 0
M  V30 5308 H 506.511 -2.84938 -5.8622 0
M  V30 5309 N 509.944 0.496216 -1.49584 0
M  V30 5310 C 510.874 1.60576 -1.69521 0
M  V30 5311 C 511.855 1.61169 -0.543933 0
M  V30 5312 O 513.04 1.77834 -0.78031 0
M  V30 5313 C 510.17 2.99038 -1.76616 0
M  V30 5314 C 509.124 3.13312 -2.91581 0
M  V30 5315 C 508.45 4.53172 -2.83794 0
M  V30 5316 C 509.75 2.92886 -4.32452 0
M  V30 5317 H 511.444 1.44146 -2.62416 0
M  V30 5318 H 508.99 0.692024 -1.26282 0
M  V30 5319 H 510.943 3.76564 -1.8915 0
M  V30 5320 H 509.667 3.16568 -0.80324 0
M  V30 5321 H 508.326 2.38213 -2.78658 0
M  V30 5322 H 507.974 4.67585 -1.854 0
M  V30 5323 H 507.674 4.63662 -3.60958 0
M  V30 5324 H 509.198 5.32752 -2.98342 0
M  V30 5325 H 510.612 3.60178 -4.46032 0
M  V30 5326 H 509.009 3.14844 -5.10875 0
M  V30 5327 H 510.079 1.88966 -4.46565 0
M  V30 5328 N 511.423 1.38739 0.74761 0
M  V30 5329 C 512.651 1.38521 1.53686 0
M  V30 5330 C 513.066 -0.0235129 1.88785 0
M  V30 5331 O 512.423 -0.991662 1.53207 0
M  V30 5332 C 512.474 2.24641 2.83229 0
M  V30 5333 O 512.195 3.60026 2.49625 0
M  V30 5334 C 513.696 2.32669 3.77333 0
M  V30 5335 H 510.916 0.473589 0.475347 0
M  V30 5336 H 513.46 1.82395 0.924786 0
M  V30 5337 H 511.615 1.84213 3.40799 0
M  V30 5338 H 512.029 4.05435 3.3275 0
M  V30 5339 H 513.503 2.97201 4.65162 0
M  V30 5340 H 513.98 1.3421 4.18192 0
M  V30 5341 H 514.586 2.73512 3.25685 0
M  V30 5342 N 512.901 -0.976442 1.23707 0
M  V30 5343 C 513.833 -2.07212 0.979574 0
M  V30 5344 C 514.846 -1.6273 -0.0478528 0
M  V30 5345 O 516.035 -1.77506 0.18815 0
M  V30 5346 C 513.135 -3.35835 0.45479 0
M  V30 5347 C 512.308 -4.09268 1.54331 0
M  V30 5348 C 511.367 -5.16166 1.02271 0
M  V30 5349 O 510.393 -5.42827 1.71254 0
M  V30 5350 N 511.595 -5.80313 -0.147419 0
M  V30 5351 H 514.36 -2.29878 1.92292 0
M  V30 5352 H 511.921 -1.14343 1.14618 0
M  V30 5353 H 513.913 -4.04597 0.0914631 0
M  V30 5354 H 512.483 -3.10106 -0.394068 0
M  V30 5355 H 511.703 -3.34906 2.07923 0
M  V30 5356 H 512.991 -4.55095 2.27522 0
M  V30 5357 H 512.389 -5.61043 -0.724353 0
M  V30 5358 H 510.946 -6.50231 -0.451972 0
M  V30 5359 N 514.379 -1.04941 -1.1758 0
M  V30 5360 C 515.309 -0.669172 -2.23706 0
M  V30 5361 C 516.29 0.331835 -1.66832 0
M  V30 5362 O 517.475 0.209988 -1.93061 0
M  V30 5363 C 514.605 -0.0404889 -3.47276 0
M  V30 5364 C 513.559 -0.965983 -4.16957 0
M  V30 5365 C 512.885 -0.201312 -5.34321 0
M  V30 5366 C 514.185 -2.28902 -4.69469 0
M  V30 5367 H 515.879 -1.55639 -2.55767 0
M  V30 5368 H 513.425 -0.749793 -1.22939 0
M  V30 5369 H 515.378 0.237298 -4.20731 0
M  V30 5370 H 514.102 0.881658 -3.14475 0
M  V30 5371 H 512.761 -1.22829 -3.45411 0
M  V30 5372 H 512.409 0.723519 -4.97769 0
M  V30 5373 H 512.109 -0.817968 -5.81879 0
M  V30 5374 H 513.633 0.0692499 -6.10561 0
M  V30 5375 H 515.047 -2.07132 -5.34574 0
M  V30 5376 H 513.444 -2.85942 -5.27596 0
M  V30 5377 H 514.514 -2.92937 -3.86414 0
M  V30 5378 N 515.857 1.33968 -0.830081 0
M  V30 5379 C 517.082 2.02813 -0.433796 0
M  V30 5380 C 517.507 1.62076 0.954614 0
M  V30 5381 O 516.865 0.808955 1.62252 0
M  V30 5382 C 516.913 3.56348 -0.552115 0
M  V30 5383 O 516.017 4.10202 0.425191 0
M  V30 5384 H 515.358 0.639817 -0.177567 0
M  V30 5385 H 517.888 1.7106 -1.12248 0
M  V30 5386 H 517.898 4.05722 -0.430513 0
M  V30 5387 H 516.573 3.85344 -1.56471 0
M  V30 5388 H 515.15 3.71979 0.261878 0
M  V30 5389 N 517.335 0.585699 1.46312 0
M  V30 5390 C 518.584 0.0701192 2.01578 0
M  V30 5391 C 518.897 -1.29889 1.46247 0
M  V30 5392 O 520.103 -1.90598 1.93351 0
M  V30 5393 C 518.559 0.0747499 3.59822 0
M  V30 5394 C 518.167 1.44226 4.24149 0
M  V30 5395 C 519.911 -0.38673 4.22735 0
M  V30 5396 C 517.818 1.40446 5.74481 0
M  V30 5397 H 516.748 0.0224441 0.753666 0
M  V30 5398 H 519.399 0.737789 1.68015 0
M  V30 5399 H 517.781 -0.659144 3.90476 0
M  V30 5400 H 518.955 2.19612 4.05101 0
M  V30 5401 H 517.27 1.84401 3.73343 0
M  V30 5402 H 519.867 -0.433853 5.32937 0
M  V30 5403 H 520.21 -1.40489 3.91878 0
M  V30 5404 H 520.743 0.293195 3.96718 0
M  V30 5405 H 517.482 2.39952 6.10003 0
M  V30 5406 H 517.002 0.692845 5.95785 0
M  V30 5407 H 518.681 1.11865 6.37256 0
M  V30 5408 N 518.813 -1.54241 0.323641 0
M  V30 5409 C 520.038 -2.05452 -0.283605 0
M  V30 5410 C 520.463 -1.19823 -1.44997 0
M  V30 5411 O 519.821 -0.207358 -1.8011 0
M  V30 5412 C 519.869 -3.53823 -0.695795 0
M  V30 5413 O 518.973 -3.71134 -1.79815 0
M  V30 5414 H 518.314 -0.662024 -0.0511917 0
M  V30 5415 H 520.844 -1.99079 0.472073 0
M  V30 5416 H 520.854 -3.96094 -0.978434 0
M  V30 5417 H 519.529 -4.15602 0.157287 0
M  V30 5418 H 518.106 -3.40768 -1.51431 0
M  V30 5419 N 520.291 -0.0518155 -1.57515 0
M  V30 5420 C 521.707 0.304735 -1.56664 0
M  V30 5421 C 521.907 1.71395 -1.05953 0
M  V30 5422 O 520.963 2.42123 -0.716414 0
M  V30 5423 C 522.276 0.132614 -3.00407 0
M  V30 5424 C 523.824 0.20367 -3.12337 0
M  V30 5425 C 524.299 0.0600706 -4.57961 0
M  V30 5426 N 525.79 0.116326 -4.63054 0
M  V30 5427 C 526.525 0.0293363 -5.73392 0
M  V30 5428 N 526.021 -0.110038 -6.92713 0
M  V30 5429 N 527.814 0.0849651 -5.62036 0
M  V30 5430 H 519.965 -0.973056 -1.888 0
M  V30 5431 H 522.228 -0.377781 -0.869474 0
M  V30 5432 H 521.934 -0.839019 -3.41546 0
M  V30 5433 H 521.808 0.893376 -3.66468 0
M  V30 5434 H 524.195 1.16578 -2.71097 0
M  V30 5435 H 524.276 -0.587857 -2.48954 0
M  V30 5436 H 523.92 -0.898715 -4.99886 0
M  V30 5437 H 523.85 0.87075 -5.19351 0
M  V30 5438 H 526.341 0.22327 -3.7724 0
M  V30 5439 H 526.654 -0.169104 -7.72615 0
M  V30 5440 H 524.999 -0.145132 -6.94848 0
M  V30 5441 H 528.19 0.192411 -4.67704 0
M  V30 5442 H 528.363 0.0137131 -6.47999 0
M  V30 5443 N 521.769 1.56035 0.221574 0
M  V30 5444 C 523.18 1.69229 0.788567 0
M  V30 5445 C 523.531 0.653814 1.84986 0
M  V30 5446 O 522.656 -0.195065 2.15519 0
M  V30 5447 C 523.251 3.06809 1.43713 0
M  V30 5448 C 521.81 3.21858 1.95152 0
M  V30 5449 C 520.957 2.65155 0.811685 0
M  V30 5450 H 523.908 1.587 -0.00307894 0
M  V30 5451 H 523.929 3.02666 2.30594 0
M  V30 5452 H 523.441 3.82369 0.664475 0
M  V30 5453 H 521.542 2.51167 2.7522 0
M  V30 5454 H 521.655 4.29073 2.1315 0
M  V30 5455 H 520.019 2.23635 1.21899 0
M  V30 5456 H 520.802 3.43261 0.0516987 0
M  V30 5457 N 523.247 -0.488276 1.49845 0
M  V30 5458 C 524.475 -1.26527 1.63702 0
M  V30 5459 C 524.89 -1.8618 0.313447 0
M  V30 5460 O 524.247 -1.68432 -0.702624 0
M  V30 5461 C 524.298 -2.3864 2.71538 0
M  V30 5462 O 524.019 -1.81437 3.98763 0
M  V30 5463 C 525.52 -3.29805 2.96215 0
M  V30 5464 H 522.74 -0.383295 0.55075 0
M  V30 5465 H 525.284 -0.584779 1.95961 0
M  V30 5466 H 523.439 -3.02496 2.42023 0
M  V30 5467 H 523.853 -2.55135 4.58265 0
M  V30 5468 H 525.327 -4.04722 3.75372 0
M  V30 5469 H 525.804 -3.87563 2.06619 0
M  V30 5470 H 526.41 -2.71703 3.27196 0
M  V30 5471 N 524.725 -1.39134 -0.740242 0
M  V30 5472 C 525.655 -1.40165 -1.86751 0
M  V30 5473 C 526.636 -0.265708 -1.68012 0
M  V30 5474 O 527.821 -0.47076 -1.88408 0
M  V30 5475 C 524.951 -1.2392 -3.2444 0
M  V30 5476 C 523.905 -2.34858 -3.57807 0
M  V30 5477 C 523.231 -2.03707 -4.94376 0
M  V30 5478 C 524.531 -3.77159 -3.61315 0
M  V30 5479 H 526.225 -2.345 -1.86145 0
M  V30 5480 H 523.771 -1.12875 -0.89416 0
M  V30 5481 H 525.724 -1.23263 -4.02969 0
M  V30 5482 H 524.448 -0.26051 -3.25559 0
M  V30 5483 H 523.107 -2.34723 -2.81604 0
M  V30 5484 H 522.755 -1.04289 -4.9207 0
M  V30 5485 H 522.455 -2.78016 -5.17669 0
M  V30 5486 H 523.979 -2.04691 -5.75268 0
M  V30 5487 H 525.393 -3.79252 -4.29931 0
M  V30 5488 H 523.79 -4.50784 -3.96124 0
M  V30 5489 H 524.86 -4.08513 -2.61238 0
M  V30 5490 N 526.204 0.969867 -1.24223 0
M  V30 5491 C 527.432 1.74756 -1.10761 0
M  V30 5492 C 527.847 1.85713 0.340041 0
M  V30 5493 O 527.204 1.34389 1.23474 0
M  V30 5494 C 527.255 3.16915 -1.73917 0
M  V30 5495 O 526.976 3.06511 -3.13021 0
M  V30 5496 C 528.477 4.11032 -1.66036 0
M  V30 5497 H 525.697 0.548092 -0.387087 0
M  V30 5498 H 528.241 1.2178 -1.64286 0
M  V30 5499 H 526.396 3.66884 -1.244 0
M  V30 5500 H 526.81 3.96079 -3.43834 0
M  V30 5501 H 528.284 5.08446 -2.14911 0
M  V30 5502 H 528.761 4.34785 -0.621159 0
M  V30 5503 H 529.367 3.66972 -2.14969 0
M  V30 5504 N 527.682 1.05563 1.17022 0
M  V30 5505 C 528.929 0.767937 1.87374 0
M  V30 5506 C 529.257 -0.705224 1.81265 0
M  V30 5507 O 528.512 -1.5318 1.21796 0
M  V30 5508 C 528.811 1.19849 3.36706 0
M  V30 5509 C 528.477 2.6745 3.63017 0
M  V30 5510 C 527.139 3.0777 3.69907 0
M  V30 5511 C 529.491 3.62811 3.74189 0
M  V30 5512 C 526.819 4.42307 3.85463 0
M  V30 5513 C 529.171 4.97087 3.91264 0
M  V30 5514 C 527.835 5.37055 3.96394 0
M  V30 5515 H 527.105 0.281008 0.68565 0
M  V30 5516 H 529.752 1.32339 1.38415 0
M  V30 5517 H 528.057 0.562096 3.87747 0
M  V30 5518 H 529.754 0.953038 3.8951 0
M  V30 5519 H 526.344 2.35228 3.58282 0
M  V30 5520 H 530.528 3.32798 3.68183 0
M  V30 5521 H 525.784 4.72769 3.87684 0
M  V30 5522 H 529.958 5.70869 3.9885 0
M  V30 5523 H 527.585 6.41308 4.082 0
M  V30 5524 N 529.16 -1.33526 0.837174 0
M  V30 5525 C 530.406 -1.9813 0.432704 0
M  V30 5526 C 530.739 -1.66168 -1.00508 0
M  V30 5527 O 530.014 -0.94069 -1.70239 0
M  V30 5528 C 530.297 -3.54151 0.651834 0
M  V30 5529 C 530.15 -3.95806 2.13676 0
M  V30 5530 C 531.469 -4.39993 0.0968937 0
M  V30 5531 H 528.588 -0.719713 0.15869 0
M  V30 5532 H 531.23 -1.58193 1.05237 0
M  V30 5533 H 529.38 -3.88301 0.124369 0
M  V30 5534 H 531.052 -3.71921 2.72896 0
M  V30 5535 H 529.295 -3.45599 2.62191 0
M  V30 5536 H 529.966 -5.0447 2.24084 0
M  V30 5537 H 532.442 -4.12479 0.547733 0
M  V30 5538 H 531.318 -5.48186 0.279917 0
M  V30 5539 H 531.579 -4.3066 -0.9992 0
M  V30 5540 N 530.638 -0.59345 -1.46 0
M  V30 5541 C 531.868 -0.0889642 -2.06408 0
M  V30 5542 C 532.276 1.22597 -1.44106 0
M  V30 5543 O 531.619 1.75448 -0.544398 0
M  V30 5544 C 531.681 0.139902 -3.59228 0
M  V30 5545 C 531.345 -1.09107 -4.43784 0
M  V30 5546 C 532.342 -2.00577 -4.79651 0
M  V30 5547 C 530.027 -1.31593 -4.84756 0
M  V30 5548 C 532.021 -3.12873 -5.55328 0
M  V30 5549 C 529.708 -2.44192 -5.60191 0
M  V30 5550 C 530.706 -3.34661 -5.95392 0
M  V30 5551 O 530.394 -4.45302 -6.69299 0
M  V30 5552 H 530.126 -0.0594613 -0.67338 0
M  V30 5553 H 532.68 -0.817 -1.88452 0
M  V30 5554 H 530.91 0.922672 -3.75531 0
M  V30 5555 H 532.599 0.594228 -4.01527 0
M  V30 5556 H 533.365 -1.84425 -4.48567 0
M  V30 5557 H 529.244 -0.620801 -4.56801 0
M  V30 5558 H 532.788 -3.83511 -5.82722 0
M  V30 5559 H 528.685 -2.60303 -5.90688 0
M  V30 5560 H 529.453 -4.43805 -6.87735 0
M  V30 5561 N 532.116 1.54067 -0.331816 0
M  V30 5562 C 533.046 2.27569 0.522932 0
M  V30 5563 C 534.027 1.28679 1.11247 0
M  V30 5564 O 535.212 1.57504 1.13605 0
M  V30 5565 C 532.342 3.0397 1.67987 0
M  V30 5566 C 531.296 4.10267 1.21924 0
M  V30 5567 C 530.622 4.74555 2.46377 0
M  V30 5568 C 531.922 5.21268 0.32815 0
M  V30 5569 H 533.616 2.99264 -0.0901977 0
M  V30 5570 H 531.162 1.4393 -0.044821 0
M  V30 5571 H 533.115 3.54123 2.28418 0
M  V30 5572 H 531.839 2.29906 2.31971 0
M  V30 5573 H 530.498 3.61009 0.637809 0
M  V30 5574 H 530.146 3.97098 3.08743 0
M  V30 5575 H 529.846 5.46363 2.16243 0
M  V30 5576 H 531.37 5.27487 3.07555 0
M  V30 5577 H 532.784 5.67128 0.838978 0
M  V30 5578 H 531.181 5.99982 0.119228 0
M  V30 5579 H 532.251 4.80673 -0.638839 0
M  V30 5580 N 533.594 0.0601682 1.57485 0
M  V30 5581 C 534.824 -0.620037 1.97076 0
M  V30 5582 C 535.232 -1.64381 0.936784 0
M  V30 5583 O 534.575 -1.83497 -0.0863377 0
M  V30 5584 C 534.637 -1.35617 3.32939 0
M  V30 5585 C 534.301 -0.487208 4.54396 0
M  V30 5586 C 535.298 0.250428 5.19297 0
M  V30 5587 C 532.983 -0.415494 5.00579 0
M  V30 5588 C 534.977 1.04812 6.28723 0
M  V30 5589 C 532.664 0.385879 6.0988 0
M  V30 5590 C 533.662 1.11637 6.73815 0
M  V30 5591 O 533.35 1.90454 7.81014 0
M  V30 5592 H 533.082 -0.173664 0.653312 0
M  V30 5593 H 535.636 0.1256 2.05016 0
M  V30 5594 H 533.866 -2.14763 3.2158 0
M  V30 5595 H 535.555 -1.92749 3.57215 0
M  V30 5596 H 536.321 0.204546 4.84568 0
M  V30 5597 H 532.2 -0.973679 4.506 0
M  V30 5598 H 535.744 1.6188 6.78558 0
M  V30 5599 H 531.641 0.433366 6.44044 0
M  V30 5600 H 532.409 1.82762 7.97835 0
M  V30 5601 N 535.072 -1.5615 -0.213296 0
M  V30 5602 C 536.02 -1.93953 -1.28394 0
M  V30 5603 C 537.014 -0.822592 -1.48087 0
M  V30 5604 O 538.22 -1.00748 -1.49164 0
M  V30 5605 H 534.595 -0.61648 -0.430646 0
M  V30 5606 H 536.566 -2.83275 -0.937977 0
M  V30 5607 C 535.315 -2.27969 -2.62537 0
M  V30 5608 H 534.638 -3.13432 -2.48194 0
M  V30 5609 H 536.078 -2.58297 -3.36242 0
M  V30 5610 C 534.537 -1.10775 -3.18167 0
M  V30 5611 O 535.067 -0.373201 -3.99963 0
M  V30 5612 N 533.273 -0.889377 -2.76656 0
M  V30 5613 H 532.82 -1.48843 -2.10246 0
M  V30 5614 H 532.778 -0.107 -3.14218 0
M  V30 5615 N 536.55 0.480323 -1.50102 0
M  V30 5616 C 537.513 1.56181 -1.6775 0
M  V30 5617 C 538.513 1.51156 -0.548503 0
M  V30 5618 O 539.703 1.5394 -0.815363 0
M  V30 5619 C 536.835 2.95823 -1.69415 0
M  V30 5620 H 538.028 1.41855 -2.6423 0
M  V30 5621 H 535.581 0.70605 -1.39444 0
M  V30 5622 H 536.316 3.15604 -0.745948 0
M  V30 5623 H 536.101 3.00878 -2.51425 0
M  V30 5624 H 537.591 3.74359 -1.85054 0
M  V30 5625 N 538.028 1.39524 0.732853 0
M  V30 5626 C 538.991 1.38189 1.82857 0
M  V30 5627 C 539.991 0.278624 1.58368 0
M  V30 5628 O 541.181 0.536639 1.65728 0
M  V30 5629 C 538.313 1.15661 3.2068 0
M  V30 5630 H 539.506 2.35692 1.85444 0
M  V30 5631 H 537.059 1.2512 0.936728 0
M  V30 5632 H 537.794 0.188482 3.23752 0
M  V30 5633 H 537.579 1.95559 3.39852 0
M  V30 5634 H 539.069 1.17472 4.00737 0
M  V30 5635 N 539.506 -0.963266 1.24736 0
M  V30 5636 C 540.755 -1.70115 1.08369 0
M  V30 5637 C 541.068 -1.91939 -0.376688 0
M  V30 5638 O 542.274 -2.6334 -0.660624 0
M  V30 5639 C 540.73 -3.06218 1.89099 0
M  V30 5640 C 540.338 -2.92221 3.39574 0
M  V30 5641 C 542.082 -3.83848 1.81275 0
M  V30 5642 C 539.989 -4.23662 4.12631 0
M  V30 5643 H 538.919 -0.637944 0.401924 0
M  V30 5644 H 541.57 -1.07304 1.48856 0
M  V30 5645 H 539.952 -3.69884 1.41429 0
M  V30 5646 H 541.126 -2.37541 3.94856 0
M  V30 5647 H 539.441 -2.28054 3.48397 0
M  V30 5648 H 542.038 -4.81188 2.33158 0
M  V30 5649 H 542.381 -4.08949 0.778895 0
M  V30 5650 H 542.914 -3.26918 2.26649 0
M  V30 5651 H 539.653 -4.03753 5.16395 0
M  V30 5652 H 539.173 -4.78141 3.62135 0
M  V30 5653 H 540.852 -4.92256 4.19873 0
M  V30 5654 N 540.985 -1.06182 -1.16461 0
M  V30 5655 C 542.21 -0.798599 -1.91408 0
M  V30 5656 C 542.635 0.640987 -1.76842 0
M  V30 5657 O 541.993 1.44652 -1.09296 0
M  V30 5658 C 542.041 -1.19665 -3.40165 0
M  V30 5659 O 541.145 -0.334768 -4.11039 0
M  V30 5660 H 540.486 -0.291961 -0.596368 0
M  V30 5661 H 543.016 -1.41732 -1.47557 0
M  V30 5662 H 543.026 -1.16772 -3.90933 0
M  V30 5663 H 541.701 -2.24526 -3.50087 0
M  V30 5664 H 540.278 -0.425168 -3.70468 0
M  V30 5665 N 542.463 1.3308 -0.844243 0
M  V30 5666 C 543.393 2.3161 -0.296493 0
M  V30 5667 C 544.374 1.59215 0.598707 0
M  V30 5668 O 545.559 1.87077 0.521134 0
M  V30 5669 C 542.689 3.43313 0.524762 0
M  V30 5670 C 541.643 4.27115 -0.275106 0
M  V30 5671 C 540.969 5.30483 0.670236 0
M  V30 5672 C 542.269 5.00443 -1.49514 0
M  V30 5673 H 543.963 2.77672 -1.11976 0
M  V30 5674 H 541.509 1.33496 -0.539899 0
M  V30 5675 H 543.462 4.11273 0.918298 0
M  V30 5676 H 542.186 2.95952 1.3813 0
M  V30 5677 H 540.845 3.60787 -0.650267 0
M  V30 5678 H 540.493 4.79379 1.52332 0
M  V30 5679 H 540.193 5.87435 0.139123 0
M  V30 5680 H 541.717 6.01308 1.06117 0
M  V30 5681 H 543.131 5.61141 -1.17447 0
M  V30 5682 H 541.528 5.67071 -1.96343 0
M  V30 5683 H 542.598 4.28906 -2.26202 0
M  V30 5684 N 543.941 0.601185 1.45683 0
M  V30 5685 C 545.189 0.0936957 2.01883 0
M  V30 5686 C 545.51 -1.2779 1.47291 0
M  V30 5687 O 544.78 -1.84279 0.664691 0
M  V30 5688 H 543.36 0.0316466 0.746329 0
M  V30 5689 H 546.022 0.781137 1.78562 0
M  V30 5690 H 545.118 0.0386297 3.12076 0
M  V30 5691 N 545.419 -1.53889 0.339982 0
M  V30 5692 C 546.649 -2.04973 -0.258738 0
M  V30 5693 C 547.057 -1.21485 -1.45045 0
M  V30 5694 O 546.4 -0.2422 -1.82096 0
M  V30 5695 C 546.462 -3.51783 -0.740853 0
M  V30 5696 C 546.126 -4.55802 0.330734 0
M  V30 5697 C 547.123 -5.06512 1.17226 0
M  V30 5698 C 544.808 -4.99966 0.483637 0
M  V30 5699 C 546.802 -5.99963 2.15227 0
M  V30 5700 C 544.489 -5.93229 1.46704 0
M  V30 5701 C 545.487 -6.43115 2.29981 0
M  V30 5702 O 545.175 -7.34545 3.26649 0
M  V30 5703 H 544.907 -0.673807 -0.0544037 0
M  V30 5704 H 547.461 -1.99492 0.489107 0
M  V30 5705 H 545.691 -3.54717 -1.53988 0
M  V30 5706 H 547.38 -3.85857 -1.25973 0
M  V30 5707 H 548.146 -4.73158 1.0652 0
M  V30 5708 H 544.025 -4.6074 -0.15471 0
M  V30 5709 H 547.569 -6.38825 2.80265 0
M  V30 5710 H 543.466 -6.25998 1.57468 0
M  V30 5711 H 544.234 -7.52468 3.22078 0
M  V30 5712 N 546.897 -0.0685191 -1.57451 0
M  V30 5713 C 547.86 0.885173 -2.11417 0
M  V30 5714 C 548.86 1.22853 -1.03748 0
M  V30 5715 O 550.05 1.16235 -1.2975 0
M  V30 5716 C 547.182 2.18964 -2.61281 0
M  V30 5717 H 548.375 0.417034 -2.96986 0
M  V30 5718 H 545.928 0.18014 -1.55258 0
M  V30 5719 H 546.663 2.70321 -1.79156 0
M  V30 5720 H 546.448 1.9534 -3.39977 0
M  V30 5721 H 547.938 2.87242 -3.0312 0
M  V30 5722 N 548.375 1.56261 0.205012 0
M  V30 5723 C 549.323 1.94631 1.27364 0
M  V30 5724 C 550.317 0.830434 1.47649 0
M  V30 5725 O 551.523 1.01538 1.48627 0
M  V30 5726 H 547.898 0.618755 0.427371 0
M  V30 5727 H 549.869 2.83768 0.922941 0
M  V30 5728 C 548.618 2.29358 2.61324 0
M  V30 5729 H 547.941 3.14744 2.46528 0
M  V30 5730 H 549.381 2.60076 3.34868 0
M  V30 5731 C 547.84 1.12461 3.17575 0
M  V30 5732 O 548.37 0.394407 3.99759 0
M  V30 5733 N 546.576 0.904036 2.7618 0
M  V30 5734 H 546.123 1.49956 2.09454 0
M  V30 5735 H 546.081 0.123662 3.14157 0
M  V30 5736 N 549.853 -0.472356 1.50355 0
M  V30 5737 C 551.078 -1.25251 1.65309 0
M  V30 5738 C 551.503 -1.85081 0.335643 0
M  V30 5739 O 550.861 -1.67227 -0.700335 0
M  V30 5740 C 550.909 -2.3379 2.74544 0
M  V30 5741 O 550.013 -3.38401 2.35709 0
M  V30 5742 H 549.354 -0.368539 0.552336 0
M  V30 5743 H 551.884 -0.562271 1.96722 0
M  V30 5744 H 551.894 -2.79121 2.97583 0
M  V30 5745 H 550.569 -1.89614 3.70161 0
M  V30 5746 H 549.146 -2.9879 2.23112 0
M  V30 5747 N 551.331 -1.39911 -0.725443 0
M  V30 5748 C 552.571 -1.39096 -1.49772 0
M  V30 5749 C 552.935 0.0106452 -1.91997 0
M  V30 5750 O 554.136 0.143859 -2.68415 0
M  V30 5751 C 552.407 -2.34441 -2.69764 0
M  V30 5752 S 553.966 -2.51898 -3.59295 0
M  V30 5753 H 550.784 -0.49314 -0.512186 0
M  V30 5754 H 553.386 -1.76093 -0.849197 0
M  V30 5755 H 552.09 -3.35123 -2.36898 0
M  V30 5756 H 551.621 -1.98692 -3.39537 0
M  V30 5757 H 553.636 -1.76402 -4.63785 0
M  V30 5758 N 552.809 0.956637 -1.25245 0
M  V30 5759 C 553.739 2.07058 -1.07931 0
M  V30 5760 C 554.72 1.70096 0.0110361 0
M  V30 5761 O 555.905 1.93555 -0.158121 0
M  V30 5762 C 553.035 3.40272 -0.695124 0
M  V30 5763 C 551.989 3.91235 -1.73549 0
M  V30 5764 C 551.315 5.20921 -1.20604 0
M  V30 5765 C 552.615 4.17837 -3.13385 0
M  V30 5766 H 554.309 2.218 -2.01109 0
M  V30 5767 H 551.855 1.06581 -0.968326 0
M  V30 5768 H 553.808 4.1765 -0.560949 0
M  V30 5769 H 552.532 3.25462 0.272355 0
M  V30 5770 H 551.191 3.16025 -1.85807 0
M  V30 5771 H 550.839 5.02479 -0.228846 0
M  V30 5772 H 550.539 5.55987 -1.90136 0
M  V30 5773 H 552.063 6.00897 -1.08421 0
M  V30 5774 H 553.477 4.8588 -3.04292 0
M  V30 5775 H 551.874 4.64154 -3.80369 0
M  V30 5776 H 552.944 3.2419 -3.60595 0
M  V30 5777 N 554.287 1.06798 1.15896 0
M  V30 5778 C 555.235 0.677525 2.22514 0
M  V30 5779 C 556.229 -0.308994 1.66558 0
M  V30 5780 O 557.435 -0.173308 1.79164 0
M  V30 5781 H 553.81 0.200994 0.724642 0
M  V30 5782 H 555.781 1.5865 2.52731 0
M  V30 5783 C 554.53 0.0854153 3.47595 0
M  V30 5784 H 553.853 0.835645 3.90969 0
M  V30 5785 H 555.293 -0.150199 4.23734 0
M  V30 5786 C 553.752 -1.1724 3.15843 0
M  V30 5787 O 554.282 -2.25965 3.32119 0
M  V30 5788 N 552.488 -1.07636 2.69931 0
M  V30 5789 H 552.035 -0.191559 2.56887 0
M  V30 5790 H 551.993 -1.91876 2.4906 0
M  V30 5791 N 555.766 -1.3263 0.851289 0
M  V30 5792 C 557.177 -1.79653 0.5081 0
M  V30 5793 C 557.528 -1.70327 -0.973815 0
M  V30 5794 O 556.653 -1.25986 -1.75944 0
M  V30 5795 C 557.248 -3.26196 0.915515 0
M  V30 5796 C 555.807 -3.71187 0.624277 0
M  V30 5797 C 554.954 -2.53804 1.11709 0
M  V30 5798 H 557.905 -1.19976 1.03882 0
M  V30 5799 H 557.926 -3.79801 0.230535 0
M  V30 5800 H 557.438 -3.32952 1.99411 0
M  V30 5801 H 555.539 -3.69948 -0.443737 0
M  V30 5802 H 555.652 -4.64132 1.18821 0
M  V30 5803 H 554.016 -2.48964 0.537484 0
M  V30 5804 H 554.799 -2.63315 2.20272 0
M  V30 5805 N 557.244 -0.608902 -1.45362 0
M  V30 5806 C 558.491 -0.104607 -2.0223 0
M  V30 5807 C 558.819 1.26534 -1.47714 0
M  V30 5808 O 558.074 1.84855 -0.642435 0
M  V30 5809 C 558.373 -0.0167296 -3.57396 0
M  V30 5810 C 558.039 -1.32251 -4.31069 0
M  V30 5811 C 556.701 -1.68019 -4.50914 0
M  V30 5812 C 559.053 -2.18542 -4.73169 0
M  V30 5813 C 556.381 -2.89828 -5.10114 0
M  V30 5814 C 558.733 -3.39602 -5.33717 0
M  V30 5815 C 557.397 -3.7562 -5.51784 0
M  V30 5816 H 556.667 -0.0382785 -0.740011 0
M  V30 5817 H 559.314 -0.790782 -1.7441 0
M  V30 5818 H 557.619 0.752715 -3.84502 0
M  V30 5819 H 559.316 0.389634 -3.99103 0
M  V30 5820 H 555.906 -1.03411 -4.15938 0
M  V30 5821 H 560.09 -1.92208 -4.5757 0
M  V30 5822 H 555.346 -3.17839 -5.22291 0
M  V30 5823 H 559.52 -4.06716 -5.65292 0
M  V30 5824 H 557.147 -4.70093 -5.97425 0
M  V30 5825 N 558.722 1.53707 -0.348139 0
M  V30 5826 C 559.968 2.01286 0.247332 0
M  V30 5827 C 560.301 1.23546 1.49834 0
M  V30 5828 O 559.576 0.324331 1.91777 0
M  V30 5829 C 559.859 3.55768 0.556858 0
M  V30 5830 C 559.712 4.44216 -0.706564 0
M  V30 5831 C 561.031 4.1841 1.3646 0
M  V30 5832 H 558.15 0.731677 0.0884201 0
M  V30 5833 H 560.792 1.84106 -0.469584 0
M  V30 5834 H 558.942 3.70539 1.16761 0
M  V30 5835 H 560.614 4.41274 -1.34444 0
M  V30 5836 H 558.857 4.12892 -1.33052 0
M  V30 5837 H 559.528 5.50202 -0.445186 0
M  V30 5838 H 562.004 4.07365 0.848113 0
M  V30 5839 H 560.88 5.26563 1.54992 0
M  V30 5840 H 561.141 3.7333 2.36805 0
M  V30 5841 N 560.2 0.0768682 1.57412 0
M  V30 5842 C 561.43 -0.5991 1.97723 0
M  V30 5843 C 561.838 -1.63378 0.954166 0
M  V30 5844 O 561.181 -1.83578 -0.0668706 0
M  V30 5845 C 561.243 -1.32078 3.34358 0
M  V30 5846 C 560.907 -0.438985 4.54887 0
M  V30 5847 C 561.904 0.305492 5.19002 0
M  V30 5848 C 559.589 -0.362378 5.00991 0
M  V30 5849 C 561.583 1.11475 6.27576 0
M  V30 5850 C 559.27 0.450543 6.09437 0
M  V30 5851 C 560.268 1.18777 6.72593 0
M  V30 5852 O 559.956 1.98727 7.7895 0
M  V30 5853 H 559.688 -0.166725 0.655117 0
M  V30 5854 H 562.242 0.147337 2.04871 0
M  V30 5855 H 560.472 -2.1134 3.2384 0
M  V30 5856 H 562.161 -1.88949 3.5924 0
M  V30 5857 H 562.927 0.25593 4.84324 0
M  V30 5858 H 558.806 -0.925832 4.51608 0
M  V30 5859 H 562.35 1.69068 6.76803 0
M  V30 5860 H 558.247 0.501651 6.43548 0
M  V30 5861 H 559.015 1.91214 7.95851 0
M  V30 5862 N 561.678 -1.56367 -0.196722 0
M  V30 5863 C 562.927 -1.79724 -0.915539 0
M  V30 5864 C 563.24 -0.649804 -1.84491 0
M  V30 5865 O 564.446 -0.767631 -2.60422 0
M  V30 5866 C 562.902 -3.18369 -1.67836 0
M  V30 5867 C 562.51 -4.4091 -0.793897 0
M  V30 5868 C 564.254 -3.51037 -2.38691 0
M  V30 5869 C 562.161 -5.70577 -1.55549 0
M  V30 5870 H 561.091 -0.67013 -0.345604 0
M  V30 5871 H 563.742 -1.82721 -0.168856 0
M  V30 5872 H 562.124 -3.09617 -2.46887 0
M  V30 5873 H 563.298 -4.60781 -0.042163 0
M  V30 5874 H 561.613 -4.15937 -0.19626 0
M  V30 5875 H 564.21 -4.4515 -2.96219 0
M  V30 5876 H 564.553 -2.74704 -3.12799 0
M  V30 5877 H 565.086 -3.61229 -1.66608 0
M  V30 5878 H 561.825 -6.49871 -0.857226 0
M  V30 5879 H 561.345 -5.54726 -2.2812 0
M  V30 5880 H 563.024 -6.11637 -2.10971 0
M  V30 5881 N 563.156 0.464375 -1.50603 0
M  V30 5882 C 564.402 1.21776 -1.62168 0
M  V30 5883 C 564.735 1.91476 -0.324154 0
M  V30 5884 O 564.01 1.8242 0.674782 0
M  V30 5885 C 564.293 2.25614 -2.80661 0
M  V30 5886 C 564.146 1.60175 -4.20314 0
M  V30 5887 C 565.465 3.26862 -2.94702 0
M  V30 5888 H 562.584 0.44137 -0.590222 0
M  V30 5889 H 565.226 0.510623 -1.8301 0
M  V30 5890 H 563.376 2.85923 -2.63021 0
M  V30 5891 H 565.048 1.03411 -4.4956 0
M  V30 5892 H 563.291 0.904697 -4.24261 0
M  V30 5893 H 563.962 2.35665 -4.99165 0
M  V30 5894 H 566.438 2.76582 -3.10872 0
M  V30 5895 H 565.314 3.96839 -3.79223 0
M  V30 5896 H 565.575 3.91382 -2.05603 0
M  V30 5897 N 564.634 1.40294 0.718013 0
M  V30 5898 C 565.564 1.43118 1.84498 0
M  V30 5899 C 566.545 0.292403 1.67568 0
M  V30 5900 O 567.73 0.500675 1.87635 0
M  V30 5901 C 564.86 1.29065 3.22427 0
M  V30 5902 C 563.814 2.40521 3.54025 0
M  V30 5903 C 563.14 2.11546 4.91073 0
M  V30 5904 C 564.44 3.82859 3.55269 0
M  V30 5905 H 566.134 2.37432 1.82391 0
M  V30 5906 H 563.68 1.14283 0.87609 0
M  V30 5907 H 565.633 1.29658 4.00957 0
M  V30 5908 H 564.357 0.312271 3.25104 0
M  V30 5909 H 563.016 2.39173 2.77834 0
M  V30 5910 H 562.664 1.12104 4.90348 0
M  V30 5911 H 562.364 2.86216 5.1318 0
M  V30 5912 H 563.888 2.13817 5.71939 0
M  V30 5913 H 565.302 3.86044 4.23843 0
M  V30 5914 H 563.699 4.57029 3.88902 0
M  V30 5915 H 564.769 4.12617 2.54706 0
M  V30 5916 N 566.112 -0.949982 1.2575 0
M  V30 5917 C 567.352 -1.70994 1.11984 0
M  V30 5918 C 567.716 -1.89095 -0.332746 0
M  V30 5919 O 568.917 -2.62192 -0.592331 0
M  V30 5920 C 567.188 -3.05286 1.85837 0
M  V30 5921 S 568.747 -3.96477 1.88019 0
M  V30 5922 H 565.565 -0.587689 0.400178 0
M  V30 5923 H 568.167 -1.13271 1.59342 0
M  V30 5924 H 566.871 -2.89785 2.90608 0
M  V30 5925 H 566.402 -3.68069 1.38885 0
M  V30 5926 H 568.417 -4.86814 0.96057 0
M  V30 5927 N 567.59 -1.07411 -1.15328 0
M  V30 5928 C 568.5 -0.706438 -2.23711 0
M  V30 5929 C 569.516 0.282586 -1.7169 0
M  V30 5930 O 570.692 0.129066 -2.00986 0
M  V30 5931 C 567.757 -0.11048 -3.46524 0
M  V30 5932 C 566.818 -1.15282 -4.13532 0
M  V30 5933 C 566.051 -0.585205 -5.30482 0
M  V30 5934 O 566.274 0.598549 -5.67251 0
M  V30 5935 O 565.208 -1.33039 -5.87013 0
M  V30 5936 H 569.034 -1.61031 -2.57493 0
M  V30 5937 H 566.619 -0.847113 -1.23062 0
M  V30 5938 H 568.501 0.21957 -4.20828 0
M  V30 5939 H 567.176 0.766703 -3.14489 0
M  V30 5940 H 566.083 -1.53523 -3.41147 0
M  V30 5941 H 567.416 -2.00192 -4.49649 0
M  V30 5942 N 569.068 1.32177 -0.85831 0
M  V30 5943 C 570.296 2.01313 -0.477582 0
M  V30 5944 C 570.711 1.6449 0.926736 0
M  V30 5945 O 570.068 0.868096 1.60531 0
M  V30 5946 C 570.119 3.56293 -0.611337 0
M  V30 5947 O 569.84 3.91794 -1.96034 0
M  V30 5948 C 571.341 4.42702 -0.230093 0
M  V30 5949 H 568.561 0.644323 -0.187322 0
M  V30 5950 H 571.105 1.68674 -1.15626 0
M  V30 5951 H 569.26 3.87395 0.0196494 0
M  V30 5952 H 569.674 4.86513 -1.95973 0
M  V30 5953 H 571.148 5.50727 -0.374674 0
M  V30 5954 H 571.625 4.3129 0.829779 0
M  V30 5955 H 572.231 4.16997 -0.836302 0
M  V30 5956 N 570.547 0.616602 1.45037 0
M  V30 5957 C 571.794 0.115331 2.02171 0
M  V30 5958 C 572.122 -1.25748 1.48383 0
M  V30 5959 O 571.377 -1.84511 0.652229 0
M  V30 5960 C 571.676 0.0356829 3.57382 0
M  V30 5961 C 571.342 1.34535 4.30362 0
M  V30 5962 C 570.004 1.70408 4.50016 0
M  V30 5963 C 572.356 2.21049 4.72003 0
M  V30 5964 C 569.684 2.92529 5.0857 0
M  V30 5965 C 572.036 3.42427 5.31908 0
M  V30 5966 C 570.7 3.78541 5.49784 0
M  V30 5967 H 569.97 0.0422024 0.739797 0
M  V30 5968 H 572.617 0.80002 1.73988 0
M  V30 5969 H 570.922 -0.732314 3.84895 0
M  V30 5970 H 572.619 -0.368463 3.99304 0
M  V30 5971 H 569.209 1.05615 4.15383 0
M  V30 5972 H 573.393 1.94632 4.56544 0
M  V30 5973 H 568.649 3.20605 5.20598 0
M  V30 5974 H 572.823 4.09709 5.63127 0
M  V30 5975 H 570.45 4.73255 5.94923 0
M  V30 5976 N 572.025 -1.5352 0.356285 0
M  V30 5977 C 573.441 -1.59599 0.00485267 0
M  V30 5978 C 573.641 -1.37179 -1.47595 0
M  V30 5979 O 572.697 -1.17234 -2.23635 0
M  V30 5980 C 574.01 -2.97277 0.452454 0
M  V30 5981 C 575.558 -3.10357 0.405881 0
M  V30 5982 C 576.033 -4.50432 0.829148 0
M  V30 5983 N 577.524 -4.5652 0.783838 0
M  V30 5984 C 578.259 -5.63077 1.08315 0
M  V30 5985 N 577.755 -6.77429 1.45126 0
M  V30 5986 N 579.548 -5.53014 1.00655 0
M  V30 5987 H 571.699 -1.66346 1.32071 0
M  V30 5988 H 573.962 -0.77971 0.539218 0
M  V30 5989 H 573.668 -3.18792 1.48542 0
M  V30 5990 H 573.542 -3.76836 -0.165762 0
M  V30 5991 H 575.929 -2.88558 -0.617934 0
M  V30 5992 H 576.01 -2.32828 1.05947 0
M  V30 5993 H 575.654 -4.72968 1.85103 0
M  V30 5994 H 575.584 -5.26378 0.152906 0
M  V30 5995 H 578.075 -3.74408 0.512513 0
M  V30 5996 H 578.388 -7.54669 1.66415 0
M  V30 5997 H 576.733 -6.78844 1.48983 0
M  V30 5998 H 579.924 -4.62557 0.718215 0
M  V30 5999 H 580.097 -6.35964 1.24315 0
M  V30 6000 N 573.503 -0.0852151 -1.57369 0
M  V30 6001 C 574.45 0.877268 -2.13478 0
M  V30 6002 C 575.42 1.28642 -1.05073 0
M  V30 6003 O 576.605 1.36992 -1.32808 0
M  V30 6004 C 573.745 2.13464 -2.71159 0
M  V30 6005 C 572.858 1.77691 -3.93764 0
M  V30 6006 C 571.993 2.98139 -4.39643 0
M  V30 6007 C 571.032 2.58447 -5.54862 0
M  V30 6008 N 570.169 3.71698 -5.95639 0
M  V30 6009 H 575.009 0.391933 -2.95411 0
M  V30 6010 H 572.546 0.181796 -1.45972 0
M  V30 6011 H 574.504 2.87086 -3.02717 0
M  V30 6012 H 573.134 2.59514 -1.91969 0
M  V30 6013 H 572.186 0.940768 -3.68583 0
M  V30 6014 H 573.498 1.44497 -4.77412 0
M  V30 6015 H 572.652 3.80026 -4.72933 0
M  V30 6016 H 571.391 3.34536 -3.54876 0
M  V30 6017 H 570.396 1.74984 -5.21211 0
M  V30 6018 H 571.621 2.23205 -6.41371 0
M  V30 6019 H 569.567 4.07831 -5.13819 0
M  V30 6020 H 569.484 3.42317 -6.74059 0
M  V30 6021 H 570.752 4.54123 -6.33555 0
M  V30 6022 N 574.981 1.5647 0.188427 0
M  V30 6023 C 576.397 1.50204 0.539532 0
M  V30 6024 C 576.597 0.78644 1.85519 0
M  V30 6025 O 575.653 0.339714 2.50204 0
M  V30 6026 C 576.966 2.94893 0.588103 0
M  V30 6027 C 578.514 3.05602 0.67648 0
M  V30 6028 C 578.989 4.51716 0.756101 0
M  V30 6029 N 580.48 4.55894 0.819451 0
M  V30 6030 C 581.215 5.66272 0.90134 0
M  V30 6031 N 580.711 6.86323 0.945118 0
M  V30 6032 N 582.504 5.54201 0.939043 0
M  V30 6033 H 574.655 2.01406 -0.674493 0
M  V30 6034 H 576.918 0.916828 -0.241103 0
M  V30 6035 H 576.624 3.50334 -0.309633 0
M  V30 6036 H 576.498 3.4861 1.44051 0
M  V30 6037 H 578.885 2.50206 1.56465 0
M  V30 6038 H 578.966 2.54999 -0.202262 0
M  V30 6039 H 578.61 5.07739 -0.12774 0
M  V30 6040 H 578.54 5.00058 1.65074 0
M  V30 6041 H 581.031 3.69452 0.794594 0
M  V30 6042 H 581.344 7.66194 1.0083 0
M  V30 6043 H 579.689 6.88968 0.913683 0
M  V30 6044 H 582.88 4.59333 0.901725 0
M  V30 6045 H 583.053 6.40247 0.999402 0
M  V30 6046 N 576.459 -0.456382 1.50847 0
M  V30 6047 C 577.389 -1.56025 1.73719 0
M  V30 6048 C 578.37 -1.5967 0.586473 0
M  V30 6049 O 579.555 -1.75702 0.827185 0
M  V30 6050 C 576.685 -2.94251 1.84483 0
M  V30 6051 C 575.639 -3.05471 2.99786 0
M  V30 6052 C 574.965 -4.45489 2.95709 0
M  V30 6053 C 576.265 -2.81318 4.40065 0
M  V30 6054 H 577.959 -1.37138 2.66146 0
M  V30 6055 H 575.505 -0.658299 1.28072 0
M  V30 6056 H 577.458 -3.71417 1.99067 0
M  V30 6057 H 576.182 -3.14328 0.886891 0
M  V30 6058 H 574.841 -2.30741 2.84876 0
M  V30 6059 H 574.489 -4.62505 1.97732 0
M  V30 6060 H 574.189 -4.53929 3.73125 0
M  V30 6061 H 575.713 -5.24655 3.12362 0
M  V30 6062 H 577.127 -3.48226 4.55425 0
M  V30 6063 H 575.524 -3.01188 5.19043 0
M  V30 6064 H 576.594 -1.7706 4.51418 0
M  V30 6065 N 577.937 -1.40673 -0.710563 0
M  V30 6066 C 579.183 -1.39428 -1.47267 0
M  V30 6067 C 579.516 0.00182129 -1.942 0
M  V30 6068 O 578.791 0.971387 -1.68506 0
M  V30 6069 C 579.074 -2.38812 -2.6952 0
M  V30 6070 C 578.927 -3.87467 -2.28449 0
M  V30 6071 C 580.246 -2.3566 -3.71689 0
M  V30 6072 H 577.365 -0.507768 -0.534173 0
M  V30 6073 H 580.007 -1.71843 -0.810547 0
M  V30 6074 H 578.157 -2.113 -3.26013 0
M  V30 6075 H 579.829 -4.25825 -1.77399 0
M  V30 6076 H 578.072 -4.03058 -1.60395 0
M  V30 6077 H 578.743 -4.5253 -3.16103 0
M  V30 6078 H 581.219 -2.6004 -3.24836 0
M  V30 6079 H 580.095 -3.07237 -4.54859 0
M  V30 6080 H 580.356 -1.36996 -4.20339 0
M  V30 6081 N 579.415 0.9433 -1.26252 0
M  V30 6082 C 580.345 2.05902 -1.10122 0
M  V30 6083 C 581.326 1.70099 -0.00700552 0
M  V30 6084 O 582.511 1.93377 -0.178641 0
M  V30 6085 C 579.641 3.39516 -0.731175 0
M  V30 6086 C 578.595 3.89372 -1.77688 0
M  V30 6087 C 577.921 5.19613 -1.26122 0
M  V30 6088 C 579.221 4.14489 -3.17799 0
M  V30 6089 H 580.915 2.19655 -2.03451 0
M  V30 6090 H 578.461 1.05548 -0.979576 0
M  V30 6091 H 580.414 4.17031 -0.605215 0
M  V30 6092 H 579.138 3.25733 0.23782 0
M  V30 6093 H 577.797 3.14036 -1.89148 0
M  V30 6094 H 577.445 5.02208 -0.282128 0
M  V30 6095 H 577.145 5.53939 -1.96023 0
M  V30 6096 H 578.669 5.99713 -1.14789 0
M  V30 6097 H 580.083 4.82625 -3.09428 0
M  V30 6098 H 578.48 4.60094 -3.85271 0
M  V30 6099 H 579.55 3.20347 -3.64014 0
M  V30 6100 N 580.893 1.08022 1.14757 0
M  V30 6101 C 582.118 0.82895 1.90114 0
M  V30 6102 C 582.543 -0.612772 1.77839 0
M  V30 6103 O 581.901 -1.42895 1.11583 0
M  V30 6104 C 581.949 1.25062 3.38219 0
M  V30 6105 O 581.053 0.400119 4.10454 0
M  V30 6106 H 580.394 0.301412 0.591648 0
M  V30 6107 H 582.924 1.44062 1.45284 0
M  V30 6108 H 582.934 1.22977 3.89025 0
M  V30 6109 H 581.609 2.30067 3.46471 0
M  V30 6110 H 580.186 0.484052 3.69745 0
M  V30 6111 N 582.371 -1.3172 0.865308 0
M  V30 6112 C 583.617 -1.97168 0.474633 0
M  V30 6113 C 583.95 -1.68263 -0.969604 0
M  V30 6114 O 583.225 -0.976588 -1.68205 0
M  V30 6115 C 583.508 -3.52689 0.726808 0
M  V30 6116 C 583.361 -3.91185 2.22024 0
M  V30 6117 C 584.68 -4.39689 0.190201 0
M  V30 6118 H 581.799 -0.716185 0.17392 0
M  V30 6119 H 584.441 -1.55925 1.08569 0
M  V30 6120 H 582.591 -3.8795 0.206705 0
M  V30 6121 H 584.263 -3.66049 2.80724 0
M  V30 6122 H 582.506 -3.3996 2.69462 0
M  V30 6123 H 583.177 -4.99604 2.34735 0
M  V30 6124 H 585.653 -4.11225 0.635103 0
M  V30 6125 H 584.529 -5.47469 0.396132 0
M  V30 6126 H 584.79 -4.32683 -0.907625 0
M  V30 6127 N 583.85 -0.624285 -1.44708 0
M  V30 6128 C 584.797 0.0847135 -2.30644 0
M  V30 6129 C 585.767 0.843575 -1.43084 0
M  V30 6130 O 586.952 0.825982 -1.71995 0
M  V30 6131 C 584.091 1.06495 -3.28257 0
M  V30 6132 C 583.205 0.305224 -4.3092 0
M  V30 6133 C 582.34 1.27667 -5.1563 0
M  V30 6134 C 581.379 0.505706 -6.10007 0
M  V30 6135 N 580.516 1.42727 -6.8744 0
M  V30 6136 H 585.356 -0.654068 -2.90733 0
M  V30 6137 H 582.893 -0.334334 -1.4325 0
M  V30 6138 H 584.851 1.64658 -3.83332 0
M  V30 6139 H 583.481 1.77094 -2.69884 0
M  V30 6140 H 582.533 -0.392207 -3.78373 0
M  V30 6141 H 583.845 -0.295553 -4.97924 0
M  V30 6142 H 582.999 1.92984 -5.75189 0
M  V30 6143 H 581.738 1.91137 -4.48685 0
M  V30 6144 H 580.743 -0.160999 -5.49564 0
M  V30 6145 H 581.968 -0.124183 -6.78986 0
M  V30 6146 H 579.913 2.04931 -6.23169 0
M  V30 6147 H 579.831 0.880345 -7.50857 0
M  V30 6148 H 581.099 2.0695 -7.51526 0
M  V30 6149 N 585.328 1.53329 -0.364422 0
M  V30 6150 C 586.739 1.86345 0.115039 0
M  V30 6151 C 587.09 1.28505 1.4826 0
M  V30 6152 O 586.215 0.606639 2.07723 0
M  V30 6153 C 586.81 3.38114 0.215522 0
M  V30 6154 C 585.369 3.70932 0.639237 0
M  V30 6155 C 584.516 2.76471 -0.214261 0
M  V30 6156 H 587.467 1.47593 -0.583258 0
M  V30 6157 H 587.488 3.66031 1.0393 0
M  V30 6158 H 587 3.80182 -0.779948 0
M  V30 6159 H 585.101 3.3442 1.64298 0
M  V30 6160 H 585.214 4.77302 0.41465 0
M  V30 6161 H 583.578 2.52724 0.316678 0
M  V30 6162 H 584.361 3.21373 -1.20725 0
M  V30 6163 N 586.806 0.0935595 1.57322 0
M  V30 6164 C 587.769 -0.851426 2.12799 0
M  V30 6165 C 588.769 -1.21187 1.0569 0
M  V30 6166 O 589.959 -1.14156 1.31583 0
M  V30 6167 C 587.091 -2.14779 2.64731 0
M  V30 6168 H 588.284 -0.369733 2.97612 0
M  V30 6169 H 585.837 -0.155417 1.55525 0
M  V30 6170 H 586.572 -2.67437 1.83434 0
M  V30 6171 H 586.357 -1.89907 3.43042 0
M  V30 6172 H 587.847 -2.82383 3.07651 0
M  V30 6173 N 588.284 -1.56567 -0.180126 0
M  V30 6174 C 589.247 -1.94852 -1.20686 0
M  V30 6175 C 590.247 -0.831212 -1.3765 0
M  V30 6176 O 591.437 -1.09841 -1.35206 0
M  V30 6177 C 588.569 -2.23565 -2.57355 0
M  V30 6178 H 589.762 -2.86722 -0.879225 0
M  V30 6179 H 587.315 -1.50489 -0.422237 0
M  V30 6180 H 588.05 -1.34381 -2.95148 0
M  V30 6181 H 587.835 -3.04999 -2.46411 0
M  V30 6182 H 589.325 -2.54137 -3.31367 0
M  V30 6183 N 589.762 0.448376 -1.51087 0
M  V30 6184 C 590.694 1.56146 -1.67783 0
M  V30 6185 C 591.707 1.52913 -0.55871 0
M  V30 6186 O 592.896 1.57889 -0.83267 0
M  V30 6187 C 589.996 2.95057 -1.66716 0
M  V30 6188 C 589.169 3.22915 -2.95033 0
M  V30 6189 C 588.228 4.41495 -2.86302 0
M  V30 6190 O 587.254 4.40688 -3.60254 0
M  V30 6191 N 588.456 5.44443 -2.014 0
M  V30 6192 H 591.221 1.42232 -2.638 0
M  V30 6193 H 588.782 0.637153 -1.48835 0
M  V30 6194 H 590.774 3.72388 -1.58458 0
M  V30 6195 H 589.344 3.02624 -0.783403 0
M  V30 6196 H 588.564 2.33985 -3.17245 0
M  V30 6197 H 589.852 3.38349 -3.79996 0
M  V30 6198 H 589.25 5.4793 -1.40674 0
M  V30 6199 H 587.807 6.2067 -1.99029 0
M  V30 6200 N 591.24 1.41047 0.703093 0
M  V30 6201 C 592.488 1.39723 1.4602 0
M  V30 6202 C 592.809 0.00461257 1.94999 0
M  V30 6203 O 592.079 -0.952292 1.71196 0
M  V30 6204 H 590.659 0.514281 0.541779 0
M  V30 6205 H 593.321 1.76217 0.832678 0
M  V30 6206 H 592.417 2.07982 2.32701 0
M  V30 6207 N 592.718 -0.936591 1.26751 0
M  V30 6208 C 593.65 -2.03991 1.045 0
M  V30 6209 C 594.663 -1.628 0.00394261 0
M  V30 6210 O 595.852 -1.76817 0.244526 0
M  V30 6211 C 592.952 -3.34218 0.561403 0
M  V30 6212 C 592.125 -4.04151 1.67274 0
M  V30 6213 C 591.184 -5.12651 1.1864 0
M  V30 6214 O 590.21 -5.37104 1.88437 0
M  V30 6215 N 591.412 -5.80488 0.037278 0
M  V30 6216 H 594.177 -2.23644 1.99508 0
M  V30 6217 H 591.738 -1.10638 1.18198 0
M  V30 6218 H 593.73 -4.04101 0.220136 0
M  V30 6219 H 592.3 -3.11203 -0.295211 0
M  V30 6220 H 591.52 -3.28121 2.18472 0
M  V30 6221 H 592.808 -4.47626 2.41885 0
M  V30 6222 H 592.206 -5.63064 -0.545494 0
M  V30 6223 H 590.763 -6.5134 -0.244877 0
M  V30 6224 N 594.196 -1.08629 -1.14182 0
M  V30 6225 C 595.126 -0.740003 -2.21464 0
M  V30 6226 C 596.107 0.278591 -1.67803 0
M  V30 6227 O 597.292 0.148461 -1.93632 0
M  V30 6228 C 594.422 -0.150952 -3.46972 0
M  V30 6229 C 593.376 -1.09815 -4.13672 0
M  V30 6230 C 592.702 -0.3712 -5.3341 0
M  V30 6231 C 594.002 -2.43722 -4.61949 0
M  V30 6232 H 595.696 -1.63697 -2.50686 0
M  V30 6233 H 593.242 -0.788526 -1.20492 0
M  V30 6234 H 595.195 0.103325 -4.21273 0
M  V30 6235 H 593.919 0.781164 -3.1712 0
M  V30 6236 H 592.578 -1.33756 -3.41328 0
M  V30 6237 H 592.226 0.564792 -4.99819 0
M  V30 6238 H 591.926 -1.00267 -5.78982 0
M  V30 6239 H 593.45 -0.12503 -6.10472 0
M  V30 6240 H 594.864 -2.24034 -5.27714 0
M  V30 6241 H 593.261 -3.02582 -5.18232 0
M  V30 6242 H 594.331 -3.05082 -3.76899 0
M  V30 6243 N 595.674 1.31259 -0.872281 0
M  V30 6244 C 597.09 1.49283 -0.564521 0
M  V30 6245 C 597.29 1.80243 0.900807 0
M  V30 6246 O 596.346 1.88246 1.68284 0
M  V30 6247 C 597.659 2.62503 -1.46673 0
M  V30 6248 C 599.207 2.76386 -1.46901 0
M  V30 6249 C 599.682 3.92705 -2.35684 0
M  V30 6250 N 601.173 3.99995 -2.33577 0
M  V30 6251 C 601.908 4.89276 -2.98992 0
M  V30 6252 N 601.404 5.83443 -3.73585 0
M  V30 6253 N 603.197 4.82541 -2.88289 0
M  V30 6254 H 595.348 1.09432 -1.82039 0
M  V30 6255 H 597.611 0.540949 -0.77851 0
M  V30 6256 H 597.317 2.46407 -2.50951 0
M  V30 6257 H 597.191 3.58695 -1.16696 0
M  V30 6258 H 599.578 2.91894 -0.433796 0
M  V30 6259 H 599.659 1.80853 -1.80903 0
M  V30 6260 H 599.303 3.77954 -3.39283 0
M  V30 6261 H 599.233 4.87549 -1.99006 0
M  V30 6262 H 601.724 3.32624 -1.7936 0
M  V30 6263 H 602.037 6.48303 -4.20622 0
M  V30 6264 H 600.382 5.83415 -3.77694 0
M  V30 6265 H 603.573 4.07951 -2.2955 0
M  V30 6266 H 603.746 5.51916 -3.39549 0
M  V30 6267 N 597.152 0.631951 1.44375 0
M  V30 6268 C 598.115 -0.0628142 2.29114 0
M  V30 6269 C 599.115 -0.771494 1.41084 0
M  V30 6270 O 600.305 -0.615959 1.62947 0
M  V30 6271 C 597.437 -1.09953 3.22681 0
M  V30 6272 H 598.63 0.682509 2.92031 0
M  V30 6273 H 596.183 0.392128 1.51301 0
M  V30 6274 H 596.918 -1.87481 2.64616 0
M  V30 6275 H 596.703 -0.595286 3.87555 0
M  V30 6276 H 598.193 -1.58538 3.86336 0
M  V30 6277 N 598.631 -1.53133 0.372548 0
M  V30 6278 C 599.877 -2.01654 -0.215277 0
M  V30 6279 C 600.21 -1.25914 -1.47849 0
M  V30 6280 O 599.485 -0.3548 -1.91237 0
M  V30 6281 C 599.768 -3.56609 -0.500187 0
M  V30 6282 C 599.621 -4.43036 0.777145 0
M  V30 6283 C 600.94 -4.20528 -1.29786 0
M  V30 6284 H 598.059 -0.732991 -0.0767686 0
M  V30 6285 H 600.701 -1.83335 0.498814 0
M  V30 6286 H 598.851 -3.7235 -1.10852 0
M  V30 6287 H 600.523 -4.39079 1.41447 0
M  V30 6288 H 598.766 -4.10723 1.39604 0
M  V30 6289 H 599.437 -5.49424 0.532662 0
M  V30 6290 H 601.913 -4.08663 -0.783198 0
M  V30 6291 H 600.789 -5.28962 -1.46596 0
M  V30 6292 H 601.05 -3.77051 -2.30836 0
M  V30 6293 N 600.109 -0.101901 -1.5727 0
M  V30 6294 C 601.334 0.571759 -1.99363 0
M  V30 6295 C 601.759 1.60507 -0.980768 0
M  V30 6296 O 601.117 1.81231 0.0498517 0
M  V30 6297 C 601.165 1.18996 -3.404 0
M  V30 6298 O 600.269 2.30572 -3.41922 0
M  V30 6299 H 599.61 0.144449 -0.648098 0
M  V30 6300 H 602.14 -0.185325 -2.03759 0
M  V30 6301 H 602.15 1.52962 -3.78241 0
M  V30 6302 H 600.825 0.432984 -4.1364 0
M  V30 6303 H 599.402 1.98173 -3.15883 0
M  V30 6304 N 601.587 1.56661 0.17182 0
M  V30 6305 C 602.535 1.97289 1.23207 0
M  V30 6306 C 603.529 0.861566 1.45854 0
M  V30 6307 O 604.735 1.04668 1.4644 0
M  V30 6308 H 601.11 0.627681 0.41415 0
M  V30 6309 H 603.081 2.85662 0.862542 0
M  V30 6310 C 601.83 2.34849 2.564 0
M  V30 6311 H 601.153 3.19903 2.39797 0
M  V30 6312 H 602.593 2.67121 3.29276 0
M  V30 6313 C 601.052 1.19172 3.15119 0
M  V30 6314 O 601.582 0.479113 3.98833 0
M  V30 6315 N 599.788 0.962415 2.74201 0
M  V30 6316 H 599.335 1.54365 2.06226 0
M  V30 6317 H 599.293 0.190272 3.13824 0
M  V30 6318 N 603.065 -0.440357 1.51323 0
M  V30 6319 C 604.028 -1.51679 1.71832 0
M  V30 6320 C 605.028 -1.49648 0.588386 0
M  V30 6321 O 606.218 -1.51724 0.855891 0
M  V30 6322 C 603.35 -2.91228 1.77199 0
M  V30 6323 H 604.543 -1.34799 2.67898 0
M  V30 6324 H 602.096 -0.66883 1.41267 0
M  V30 6325 H 602.831 -3.13516 0.829363 0
M  V30 6326 H 602.616 -2.94107 2.59314 0
M  V30 6327 H 604.106 -3.69321 1.94915 0
M  V30 6328 N 604.543 -1.41418 -0.695603 0
M  V30 6329 C 605.475 -1.39195 -1.82092 0
M  V30 6330 C 606.488 -0.294132 -1.60121 0
M  V30 6331 O 607.677 -0.555854 -1.69625 0
M  V30 6332 C 604.777 -1.14828 -3.18854 0
M  V30 6333 C 603.95 -2.36649 -3.67853 0
M  V30 6334 C 603.009 -2.08139 -4.83285 0
M  V30 6335 O 602.035 -2.81177 -4.94902 0
M  V30 6336 N 603.237 -1.07162 -5.70523 0
M  V30 6337 H 606.002 -2.36185 -1.84491 0
M  V30 6338 H 603.563 -1.3603 -0.877923 0
M  V30 6339 H 605.555 -0.937075 -3.93702 0
M  V30 6340 H 604.125 -0.264358 -3.1148 0
M  V30 6341 H 603.345 -2.73472 -2.83913 0
M  V30 6342 H 604.633 -3.17816 -3.97329 0
M  V30 6343 H 604.031 -0.467124 -5.63768 0
M  V30 6344 H 602.588 -0.920311 -6.4527 0
M  V30 6345 N 606.021 0.929856 -1.27246 0
M  V30 6346 C 607.249 1.71144 -1.16265 0
M  V30 6347 C 607.664 1.867 0.280786 0
M  V30 6348 O 607.021 1.38249 1.19136 0
M  V30 6349 C 607.072 3.11222 -1.83911 0
M  V30 6350 O 606.793 2.96398 -3.22614 0
M  V30 6351 C 608.294 4.05541 -1.79028 0
M  V30 6352 H 605.514 0.535499 -0.404328 0
M  V30 6353 H 608.058 1.16492 -1.68077 0
M  V30 6354 H 606.213 3.6274 -1.36009 0
M  V30 6355 H 606.627 3.8494 -3.56261 0
M  V30 6356 H 608.101 5.01351 -2.30978 0
M  V30 6357 H 608.578 4.32589 -0.759168 0
M  V30 6358 H 609.184 3.59947 -2.26535 0
M  V30 6359 N 607.499 1.09233 1.13605 0
M  V30 6360 C 608.462 0.733553 2.17144 0
M  V30 6361 C 609.462 -0.235873 1.59061 0
M  V30 6362 O 610.652 -0.0143167 1.74194 0
M  V30 6363 C 607.784 0.084471 3.40795 0
M  V30 6364 H 608.977 1.65049 2.50397 0
M  V30 6365 H 606.53 0.891264 1.28399 0
M  V30 6366 H 607.265 -0.843795 3.1313 0
M  V30 6367 H 607.05 0.781985 3.84223 0
M  V30 6368 H 608.54 -0.151216 4.17326 0
M  V30 6369 N 608.977 -1.30795 0.87923 0
M  V30 6370 C 610.254 -1.91145 0.415086 0
M  V30 6371 C 610.634 -1.7995 -1.10368 0
M  V30 6372 O 609.982 -1.21305 -1.93642 0
M  V30 6373 C 610.192 -3.37014 0.906778 0
M  V30 6374 C 611.54 -4.14101 0.938358 0
M  V30 6375 O 612.564 -3.45834 0.853053 0
M  V30 6376 O 611.423 -5.36054 1.06342 0
M  V30 6377 H 608.517 -0.81736 0.125905 0
M  V30 6378 H 611.063 -1.39401 0.967753 0
M  V30 6379 H 609.835 -3.3922 1.95053 0
M  V30 6380 H 609.458 -3.96204 0.332948 0
M  V30 6381 N 610.455 -0.639598 -1.44038 0
M  V30 6382 C 611.365 0.0612377 -2.3452 0
M  V30 6383 C 612.381 0.826717 -1.53106 0
M  V30 6384 O 613.557 0.777059 -1.85806 0
M  V30 6385 C 610.622 1.02492 -3.31204 0
M  V30 6386 C 609.683 0.25788 -4.28525 0
M  V30 6387 C 608.916 1.17566 -5.2059 0
M  V30 6388 O 609.139 2.41461 -5.16771 0
M  V30 6389 O 608.073 0.655407 -5.98321 0
M  V30 6390 H 611.899 -0.68318 -2.95916 0
M  V30 6391 H 609.484 -0.399784 -1.43952 0
M  V30 6392 H 611.366 1.57911 -3.90694 0
M  V30 6393 H 610.041 1.7498 -2.7233 0
M  V30 6394 H 608.948 -0.339566 -3.72556 0
M  V30 6395 H 610.281 -0.427154 -4.90343 0
M  V30 6396 N 611.933 1.52934 -0.380664 0
M  V30 6397 C 612.843 2.29921 0.466192 0
M  V30 6398 C 613.859 1.36488 1.07922 0
M  V30 6399 O 615.035 1.69553 1.0869 0
M  V30 6400 C 612.1 3.08468 1.58266 0
M  V30 6401 C 611.161 4.17595 0.995627 0
M  V30 6402 C 610.394 4.92387 2.05889 0
M  V30 6403 O 610.617 4.67184 3.27254 0
M  V30 6404 O 609.551 5.77949 1.68102 0
M  V30 6405 H 613.377 3.03274 -0.160735 0
M  V30 6406 H 610.962 1.48698 -0.144617 0
M  V30 6407 H 612.844 3.57469 2.23145 0
M  V30 6408 H 611.519 2.37937 2.19471 0
M  V30 6409 H 610.426 3.72811 0.310332 0
M  V30 6410 H 611.759 4.90336 0.427918 0
M  V30 6411 N 613.412 0.11024 1.57214 0
M  V30 6412 C 614.828 -0.24638 1.57687 0
M  V30 6413 C 615.028 -1.67344 1.12241 0
M  V30 6414 O 614.084 -2.39298 0.805783 0
M  V30 6415 C 615.397 -0.0210288 3.00693 0
M  V30 6416 C 616.945 -0.0876077 3.12877 0
M  V30 6417 C 617.42 0.10994 4.57868 0
M  V30 6418 N 618.911 0.0556135 4.63167 0
M  V30 6419 C 619.646 0.183495 5.73106 0
M  V30 6420 N 619.142 0.367058 6.91827 0
M  V30 6421 N 620.935 0.123689 5.61964 0
M  V30 6422 H 613.086 1.04246 1.85058 0
M  V30 6423 H 615.349 0.40979 0.854854 0
M  V30 6424 H 615.055 0.965203 3.38196 0
M  V30 6425 H 614.929 -0.756748 3.69531 0
M  V30 6426 H 617.316 -1.06436 2.75237 0
M  V30 6427 H 617.397 0.67985 2.466 0
M  V30 6428 H 617.041 1.08362 4.96206 0
M  V30 6429 H 616.971 -0.677397 5.22225 0
M  V30 6430 H 619.462 -0.0831062 3.77809 0
M  V30 6431 H 619.775 0.455739 7.71455 0
M  V30 6432 H 618.12 0.40292 6.93831 0
M  V30 6433 H 621.311 -0.0186928 4.68096 0
M  V30 6434 H 621.484 0.226797 6.47603 0
M  V30 6435 N 614.89 -1.56749 -0.16351 0
M  V30 6436 C 616.118 -1.86577 -0.894233 0
M  V30 6437 C 616.533 -0.696543 -1.75481 0
M  V30 6438 O 615.89 0.334161 -1.79415 0
M  V30 6439 C 615.941 -3.15508 -1.76456 0
M  V30 6440 O 615.662 -4.27926 -0.938685 0
M  V30 6441 C 617.163 -3.58737 -2.60428 0
M  V30 6442 H 614.383 -0.618829 -0.259405 0
M  V30 6443 H 616.927 -2.03863 -0.161259 0
M  V30 6444 H 615.082 -3.00025 -2.45079 0
M  V30 6445 H 615.496 -5.01546 -1.53465 0
M  V30 6446 H 616.97 -4.51832 -3.17099 0
M  V30 6447 H 617.447 -2.83229 -3.35675 0
M  V30 6448 H 618.053 -3.76858 -1.97125 0
M  V30 6449 N 616.368 0.432326 -1.51554 0
M  V30 6450 C 617.278 1.55023 -1.76082 0
M  V30 6451 C 618.294 1.61593 -0.645265 0
M  V30 6452 O 619.47 1.78742 -0.928086 0
M  V30 6453 C 616.535 2.90964 -1.88523 0
M  V30 6454 C 615.596 2.9447 -3.12388 0
M  V30 6455 C 614.829 4.23926 -3.24225 0
M  V30 6456 O 615.052 5.16576 -2.4188 0
M  V30 6457 O 613.986 4.33818 -4.17235 0
M  V30 6458 H 617.812 1.37238 -2.70923 0
M  V30 6459 H 615.397 0.615845 -1.36117 0
M  V30 6460 H 617.279 3.71633 -1.98662 0
M  V30 6461 H 615.954 3.08865 -0.9687 0
M  V30 6462 H 614.861 2.12737 -3.07723 0
M  V30 6463 H 616.194 2.81514 -4.03746 0
M  V30 6464 N 617.846 1.41785 0.688094 0
M  V30 6465 C 619.071 1.45117 1.48175 0
M  V30 6466 C 619.496 0.060129 1.88004 0
M  V30 6467 O 618.854 -0.938385 1.55126 0
M  V30 6468 C 618.902 2.37224 2.71583 0
M  V30 6469 O 618.006 1.83443 3.69354 0
M  V30 6470 H 617.347 0.492208 0.445676 0
M  V30 6471 H 619.877 1.86329 0.845145 0
M  V30 6472 H 619.887 2.53353 3.19806 0
M  V30 6473 H 618.562 3.38293 2.41931 0
M  V30 6474 H 617.139 1.76802 3.28322 0
M  V30 6475 N 619.324 -0.923095 1.27737 0
M  V30 6476 C 620.271 -2.02432 1.1086 0
M  V30 6477 C 621.241 -1.66098 0.00835195 0
M  V30 6478 O 622.426 -1.90027 0.171542 0
M  V30 6479 C 619.566 -3.36476 0.766671 0
M  V30 6480 C 618.679 -3.85737 1.94501 0
M  V30 6481 C 617.814 -5.08249 1.54455 0
M  V30 6482 C 616.853 -5.49818 2.6901 0
M  V30 6483 N 615.99 -6.63524 2.29521 0
M  V30 6484 H 620.83 -2.16201 2.05089 0
M  V30 6485 H 618.367 -1.05909 1.02087 0
M  V30 6486 H 620.325 -4.13569 0.549223 0
M  V30 6487 H 618.955 -3.22502 -0.13867 0
M  V30 6488 H 618.007 -3.04883 2.27487 0
M  V30 6489 H 619.319 -4.12513 2.80419 0
M  V30 6490 H 618.473 -5.92857 1.28862 0
M  V30 6491 H 617.212 -4.83261 0.656534 0
M  V30 6492 H 616.217 -4.63757 2.95313 0
M  V30 6493 H 617.442 -5.76799 3.5844 0
M  V30 6494 H 615.388 -6.40185 1.43177 0
M  V30 6495 H 615.305 -6.89978 3.08977 0
M  V30 6496 H 616.573 -7.51461 2.07187 0
M  V30 6497 N 620.802 -1.09834 -1.13024 0
M  V30 6498 C 622.05 -0.835297 -1.8403 0
M  V30 6499 C 622.371 0.640944 -1.84165 0
M  V30 6500 O 621.641 1.46517 -1.30037 0
M  V30 6501 H 620.221 -0.306018 -0.681441 0
M  V30 6502 H 622.883 -1.38734 -1.36891 0
M  V30 6503 H 621.979 -1.19258 -2.88416 0
M  V30 6504 N 622.28 1.30327 -0.886154 0
M  V30 6505 C 623.508 2.00254 -0.520176 0
M  V30 6506 C 623.923 1.66419 0.891637 0
M  V30 6507 O 623.28 0.901951 1.58654 0
M  V30 6508 C 623.331 3.54916 -0.686775 0
M  V30 6509 O 623.052 3.87547 -2.04301 0
M  V30 6510 C 624.553 4.42115 -0.323945 0
M  V30 6511 H 621.773 0.640204 -0.200947 0
M  V30 6512 H 624.317 1.66183 -1.19178 0
M  V30 6513 H 622.472 3.8735 -0.0625273 0
M  V30 6514 H 622.886 4.82247 -2.06249 0
M  V30 6515 H 624.36 5.49808 -0.491407 0
M  V30 6516 H 624.837 4.32953 0.73811 0
M  V30 6517 H 625.443 4.15129 -0.924565 0
M  V30 6518 O 623.797 0.786908 1.41032 0
M  V30 6519 H 624.488 0.356185 1.90397 0
M  V30 END ATOM
M  V30 BEGIN BOND
M  V30 END BOND
M  V30 END CTAB
M  END
$$$$
