drugbank_target|Q96IY4 Carboxypeptidase B2 (DB05712; DB11311)
 OpenBabel12092120313D

  0  0  0     0  0            999 V3000
M  V30 BEGIN CTAB
M  V30 COUNTS 6777 6870 0 0 0
M  V30 BEGIN ATOM
M  V30 1 H -0.908 1.98254 -0.117106 0
M  V30 2 N 0 1.576 0 0
M  V30 3 C 0.933 2.03868 1.02534 0
M  V30 4 C 1.911 0.928543 1.3348 0
M  V30 5 O 3.095 1.19667 1.45644 0
M  V30 6 C 0.222 2.43627 2.35294 0
M  V30 7 C -0.732 3.65373 2.2001 0
M  V30 8 S 0.101 5.13292 1.52614 0
M  V30 9 C 1.257 5.56322 2.86805 0
M  V30 10 H 1.49 2.90518 0.631377 0
M  V30 11 H -0.977 1.52953 0.210867 0
M  V30 12 H 0.981 2.67203 3.11629 0
M  V30 13 H -0.358 1.57376 2.7183 0
M  V30 14 H -1.165 3.90944 3.18086 0
M  V30 15 H -1.563 3.418 1.51819 0
M  V30 16 H 0.729 5.58782 3.83104 0
M  V30 17 H 1.672 6.56266 2.65933 0
M  V30 18 H 2.08 4.83886 2.90714 0
M  V30 19 N 1.4781 -0.272755 1.55222 0
M  V30 20 C 2.4251 -1.33716 1.88119 0
M  V30 21 C 3.3951 -1.49066 0.73271 0
M  V30 22 O 4.5801 -1.63469 0.984002 0
M  V30 23 C 1.7201 -2.69238 2.15882 0
M  V30 24 C 0.8331 -2.62108 3.43399 0
M  V30 25 C -0.0319 -3.89811 3.60861 0
M  V30 26 C -0.9929 -3.77193 4.8207 0
M  V30 27 N -1.8559 -4.9673 4.96189 0
M  V30 28 H 2.9841 -1.04962 2.78903 0
M  V30 29 H 0.5211 -0.507088 1.38083 0
M  V30 30 H 2.4791 -3.48089 2.29978 0
M  V30 31 H 1.1091 -2.96194 1.28331 0
M  V30 32 H 0.1611 -1.74967 3.37773 0
M  V30 33 H 1.4731 -2.48685 4.32386 0
M  V30 34 H 0.6271 -4.77103 3.74777 0
M  V30 35 H -0.6339 -4.06102 2.7006 0
M  V30 36 H -1.6289 -2.88284 4.68159 0
M  V30 37 H -0.4039 -3.62421 5.74307 0
M  V30 38 H -2.4579 -5.13431 4.08319 0
M  V30 39 H -2.5409 -4.85839 5.79221 0
M  V30 40 H -1.2729 -5.85594 5.1449 0
M  V30 41 N 2.9562 -1.48159 -0.537278 0
M  V30 42 C 3.8862 -1.65029 -1.6519 0
M  V30 43 C 4.8672 -0.499281 -1.62607 0
M  V30 44 O 6.0522 -0.730972 -1.79918 0
M  V30 45 C 3.1822 -1.68303 -3.03795 0
M  V30 46 C 2.1362 -2.8283 -3.21234 0
M  V30 47 C 1.4622 -2.71189 -4.60826 0
M  V30 48 C 2.7622 -4.24211 -3.04701 0
M  V30 49 H 4.4562 -2.58341 -1.51328 0
M  V30 50 H 2.0022 -1.24325 -0.726585 0
M  V30 51 H 3.9552 -1.78693 -3.81637 0
M  V30 52 H 2.6792 -0.715635 -3.18663 0
M  V30 53 H 1.3382 -2.71983 -2.45807 0
M  V30 54 H 0.9862 -1.72435 -4.7252 0
M  V30 55 H 0.6862 -3.48035 -4.7344 0
M  V30 56 H 2.2102 -2.83537 -5.40777 0
M  V30 57 H 3.6242 -4.3593 -3.72341 0
M  V30 58 H 2.0212 -5.01998 -3.28813 0
M  V30 59 H 3.0912 -4.41184 -2.01209 0
M  V30 60 N 4.4343 0.785586 -1.36625 0
M  V30 61 C 5.6743 1.55678 -1.32453 0
M  V30 62 C 6.0383 1.91769 0.0941089 0
M  V30 63 O 7.2393 2.67536 0.26042 0
M  V30 64 C 5.5103 2.79701 -2.22491 0
M  V30 65 S 7.0693 3.69907 -2.36038 0
M  V30 66 H 3.8873 0.533141 -0.470405 0
M  V30 67 H 6.4893 0.924953 -1.72235 0
M  V30 68 H 5.1933 2.51244 -3.24507 0
M  V30 69 H 4.7243 3.47854 -1.83742 0
M  V30 70 H 6.7393 4.71016 -1.56072 0
M  V30 71 N 5.9124 1.20967 1.01018 0
M  V30 72 C 7.1374 1.0503 1.78839 0
M  V30 73 C 7.5624 -0.395752 1.8389 0
M  V30 74 O 6.9204 -1.28529 1.27867 0
M  V30 75 C 6.9684 1.64602 3.2084 0
M  V30 76 O 6.0724 0.887988 4.02726 0
M  V30 77 H 5.4134 0.369987 0.551367 0
M  V30 78 H 7.9434 1.60399 1.27018 0
M  V30 79 H 7.9534 1.68607 3.71532 0
M  V30 80 H 6.6284 2.69841 3.16479 0
M  V30 81 H 5.2054 0.922648 3.61305 0
M  V30 82 N 7.3905 -1.2043 1.01659 0
M  V30 83 C 8.3205 -2.25466 0.607226 0
M  V30 84 C 9.3015 -1.65853 -0.377716 0
M  V30 85 O 10.4865 -1.92409 -0.263149 0
M  V30 86 C 7.6165 -3.47256 -0.0552949 0
M  V30 87 C 6.5705 -4.19462 0.850632 0
M  V30 88 C 5.8965 -5.34673 0.0538859 0
M  V30 89 C 7.1965 -4.75603 2.15868 0
M  V30 90 H 8.8905 -2.59962 1.48526 0
M  V30 91 H 6.4365 -1.2496 0.715605 0
M  V30 92 H 8.3895 -4.19917 -0.353233 0
M  V30 93 H 7.1135 -3.11924 -0.968045 0
M  V30 94 H 5.7725 -3.48667 1.13257 0
M  V30 95 H 5.4205 -4.95585 -0.860514 0
M  V30 96 H 5.1205 -5.83913 0.657192 0
M  V30 97 H 6.6445 -6.10138 -0.237598 0
M  V30 98 H 8.0585 -5.40083 1.92311 0
M  V30 99 H 6.4555 -5.3528 2.71284 0
M  V30 100 H 7.5255 -3.94346 2.82169 0
M  V30 101 N 8.8686 -0.792821 -1.36206 0
M  V30 102 C 9.8316 -0.199459 -2.2833 0
M  V30 103 C 10.8316 0.605189 -1.48977 0
M  V30 104 O 12.0216 0.425685 -1.68919 0
M  V30 105 C 9.1536 0.723523 -3.33134 0
M  V30 106 H 10.3466 -1.01181 -2.82316 0
M  V30 107 H 7.8996 -0.562485 -1.45828 0
M  V30 108 H 8.6346 1.56008 -2.84309 0
M  V30 109 H 8.4196 0.148436 -3.91819 0
M  V30 110 H 9.9096 1.13344 -4.01924 0
M  V30 111 N 10.3467 1.47872 -0.545128 0
M  V30 112 C 11.5927 2.02793 -0.0166104 0
M  V30 113 C 11.9257 1.41987 1.32489 0
M  V30 114 O 11.2007 0.571045 1.85928 0
M  V30 115 C 11.4837 3.59989 0.0893294 0
M  V30 116 C 11.3367 4.3125 -1.27841 0
M  V30 117 C 12.6557 4.32606 0.808724 0
M  V30 118 H 9.7747 0.736962 -0.00751035 0
M  V30 119 H 12.4167 1.76433 -0.705085 0
M  V30 120 H 10.5667 3.82579 0.675681 0
M  V30 121 H 12.2387 4.20035 -1.90704 0
M  V30 122 H 10.4817 3.92076 -1.85632 0
M  V30 123 H 11.1527 5.39736 -1.15713 0
M  V30 124 H 13.6287 4.14936 0.310992 0
M  V30 125 H 12.5047 5.42251 0.851782 0
M  V30 126 H 12.7657 4.00963 1.86229 0
M  V30 127 N 11.8248 0.280983 1.55075 0
M  V30 128 C 12.7548 -0.597469 2.25727 0
M  V30 129 C 13.7358 -1.15417 1.24952 0
M  V30 130 O 14.9208 -1.18722 1.53684 0
M  V30 131 C 12.0508 -1.7789 2.98283 0
M  V30 132 C 11.0048 -1.35347 4.06036 0
M  V30 133 C 10.3308 -2.61846 4.66198 0
M  V30 134 C 11.6308 -0.499354 5.19907 0
M  V30 135 H 13.3248 -0.00824265 2.99399 0
M  V30 136 H 10.8708 -0.0025244 1.44 0
M  V30 137 H 12.8238 -2.39937 3.46422 0
M  V30 138 H 11.5478 -2.39405 2.22155 0
M  V30 139 H 10.2068 -0.756156 3.58717 0
M  V30 140 H 9.8548 -3.21632 3.86732 0
M  V30 141 H 9.5548 -2.3409 5.38958 0
M  V30 142 H 11.0788 -3.24732 5.1709 0
M  V30 143 H 12.4928 -1.02498 5.64063 0
M  V30 144 H 10.8898 -0.316424 5.99265 0
M  V30 145 H 11.9598 0.480459 4.82514 0
M  V30 146 N 13.3029 -1.57598 0.00835791 0
M  V30 147 C 14.5489 -1.91211 -0.675732 0
M  V30 148 C 14.8819 -0.883139 -1.72958 0
M  V30 149 O 14.1569 0.097016 -1.94258 0
M  V30 150 C 14.4399 -3.35379 -1.31123 0
M  V30 151 C 14.2929 -4.48999 -0.268356 0
M  V30 152 C 15.6119 -3.7912 -2.23508 0
M  V30 153 H 12.7309 -0.695374 -0.244179 0
M  V30 154 H 15.3729 -1.89901 0.0613655 0
M  V30 155 H 13.5229 -3.36626 -1.93946 0
M  V30 156 H 15.1949 -4.59887 0.360844 0
M  V30 157 H 13.4379 -4.31873 0.408482 0
M  V30 158 H 14.1089 -5.46851 -0.752218 0
M  V30 159 H 16.5849 -3.79477 -1.70693 0
M  V30 160 H 15.4609 -4.80729 -2.64936 0
M  V30 161 H 15.7219 -3.13455 -3.11766 0
M  V30 162 N 14.781 0.264519 -1.55364 0
M  V30 163 C 16.192 0.834936 -1.6699 0
M  V30 164 C 16.543 1.86718 -0.602552 0
M  V30 165 O 15.668 2.14899 0.254425 0
M  V30 166 C 16.263 1.5212 -3.02729 0
M  V30 167 C 14.822 2.03954 -3.16354 0
M  V30 168 C 13.969 0.884498 -2.62815 0
M  V30 169 H 16.92 0.0406869 -1.58648 0
M  V30 170 H 16.941 2.38853 -2.96191 0
M  V30 171 H 16.453 0.769668 -3.80392 0
M  V30 172 H 14.554 2.82041 -2.43482 0
M  V30 173 H 14.667 2.24902 -4.23032 0
M  V30 174 H 13.031 1.2802 -2.20188 0
M  V30 175 H 13.814 0.14634 -3.42988 0
M  V30 176 N 16.2591 1.48442 0.529413 0
M  V30 177 C 17.5081 1.55742 1.28169 0
M  V30 178 C 17.8211 0.236511 1.94165 0
M  V30 179 O 19.0271 0.187761 2.7085 0
M  V30 180 C 17.4831 2.74667 2.32564 0
M  V30 181 C 17.0911 4.13402 1.72636 0
M  V30 182 C 18.8351 2.9128 3.08798 0
M  V30 183 C 16.7421 5.23587 2.74975 0
M  V30 184 H 15.6721 0.579796 0.48203 0
M  V30 185 H 18.3231 1.74776 0.559056 0
M  V30 186 H 16.7051 2.49067 3.07866 0
M  V30 187 H 17.8791 4.49022 1.03519 0
M  V30 188 H 16.1941 4.0191 1.08892 0
M  V30 189 H 18.7911 3.70767 3.85274 0
M  V30 190 H 19.1341 2.00757 3.64695 0
M  V30 191 H 19.6671 3.16782 2.40611 0
M  V30 192 H 16.4061 6.16076 2.23897 0
M  V30 193 H 15.9261 4.92454 3.42417 0
M  V30 194 H 17.6051 5.51724 3.37949 0
M  V30 195 N 17.7372 -0.778329 1.37039 0
M  V30 196 C 18.9832 -1.53892 1.32079 0
M  V30 197 C 19.3162 -1.9396 -0.0965386 0
M  V30 198 O 18.5912 -1.63568 -1.05242 0
M  V30 199 C 18.8742 -2.80847 2.25382 0
M  V30 200 C 18.7272 -2.47076 3.75864 0
M  V30 201 C 20.0462 -3.82741 2.1725 0
M  V30 202 H 17.1652 -0.558303 0.48111 0
M  V30 203 H 19.8072 -0.893397 1.67685 0
M  V30 204 H 17.9572 -3.35931 1.95148 0
M  V30 205 H 19.6292 -1.97957 4.16666 0
M  V30 206 H 17.8722 -1.79863 3.94755 0
M  V30 207 H 18.5432 -3.37798 4.36574 0
M  V30 208 H 21.0192 -3.37133 2.43887 0
M  V30 209 H 19.8952 -4.69303 2.84686 0
M  V30 210 H 20.1562 -4.2652 1.16331 0
M  V30 211 N 19.2153 -1.21501 -1.00376 0
M  V30 212 C 20.1453 -0.999478 -2.11028 0
M  V30 213 C 21.1263 0.0759671 -1.6993 0
M  V30 214 O 22.3113 -0.0841106 -1.94018 0
M  V30 215 C 19.4413 -0.564709 -3.42678 0
M  V30 216 C 18.3953 -1.58486 -3.97576 0
M  V30 217 C 17.7213 -1.00628 -5.25146 0
M  V30 218 C 19.0213 -2.97204 -4.29496 0
M  V30 219 H 20.7153 -1.92495 -2.29317 0
M  V30 220 H 18.2613 -0.92693 -1.102 0
M  V30 221 H 20.2143 -0.401091 -4.19487 0
M  V30 222 H 18.9383 0.396411 -3.24185 0
M  V30 223 H 17.5973 -1.73606 -3.22888 0
M  V30 224 H 17.2453 -0.0368439 -5.02987 0
M  V30 225 H 16.9453 -1.68771 -5.62841 0
M  V30 226 H 18.4693 -0.854015 -6.04598 0
M  V30 227 H 19.8833 -2.8552 -4.97143 0
M  V30 228 H 18.2803 -3.62372 -4.78338 0
M  V30 229 H 19.3503 -3.47956 -3.3772 0
M  V30 230 N 20.6934 1.19889 -1.02296 0
M  V30 231 C 21.9404 1.8942 -0.715972 0
M  V30 232 C 22.2684 1.79251 0.754944 0
M  V30 233 O 21.5234 1.17526 1.56481 0
M  V30 234 C 21.8224 3.39883 -1.10518 0
M  V30 235 C 21.4884 3.70254 -2.57337 0
M  V30 236 C 20.1504 3.78254 -2.97452 0
M  V30 237 C 22.5024 3.84052 -3.52354 0
M  V30 238 C 19.8304 3.97514 -4.31509 0
M  V30 239 C 22.1824 4.04824 -4.86108 0
M  V30 240 C 20.8464 4.11054 -5.25919 0
M  V30 241 H 20.1164 0.693138 -0.261993 0
M  V30 242 H 22.7634 1.42012 -1.28472 0
M  V30 243 H 21.0684 3.8915 -0.454953 0
M  V30 244 H 22.7654 3.9199 -0.845261 0
M  V30 245 H 19.3554 3.64632 -2.25258 0
M  V30 246 H 23.5394 3.77221 -3.22518 0
M  V30 247 H 18.7954 4.00574 -4.61898 0
M  V30 248 H 22.9694 4.14442 -5.59653 0
M  V30 249 H 20.5964 4.2573 -6.29808 0
M  V30 250 N 22.1715 0.800033 1.35784 0
M  V30 251 C 23.4115 0.382891 2.00782 0
M  V30 252 C 23.7755 -1.02891 1.62103 0
M  V30 253 O 24.9765 -1.54771 2.19771 0
M  V30 254 C 23.2475 0.553299 3.53091 0
M  V30 255 S 24.8065 0.225608 4.3822 0
M  V30 256 H 21.6245 0.145737 0.695904 0
M  V30 257 H 24.2265 1.04085 1.65489 0
M  V30 258 H 22.9305 1.58091 3.78729 0
M  V30 259 H 22.4615 -0.120214 3.93216 0
M  V30 260 H 24.4765 -0.969074 4.86645 0
M  V30 261 N 23.6496 -1.47581 0.552962 0
M  V30 262 C 24.5596 -2.33743 -0.200353 0
M  V30 263 C 25.5756 -1.47928 -0.916151 0
M  V30 264 O 26.7516 -1.80865 -0.885993 0
M  V30 265 C 23.8166 -3.24536 -1.21973 0
M  V30 266 C 22.8776 -4.26238 -0.511819 0
M  V30 267 C 22.1106 -5.12693 -1.48263 0
M  V30 268 O 22.3336 -5.01525 -2.71714 0
M  V30 269 O 21.2676 -5.93375 -1.00945 0
M  V30 270 H 25.0936 -2.9945 0.506304 0
M  V30 271 H 22.6786 -1.46071 0.313622 0
M  V30 272 H 24.5606 -3.80631 -1.80827 0
M  V30 273 H 23.2356 -2.61462 -1.90839 0
M  V30 274 H 22.1426 -3.73914 0.117799 0
M  V30 275 H 23.4756 -4.92014 0.135308 0
M  V30 276 N 25.1277 -0.289203 -1.54924 0
M  V30 277 C 26.0597 0.625583 -2.20497 0
M  V30 278 C 27.0727 1.10667 -1.19402 0
M  V30 279 O 28.2617 1.02615 -1.46056 0
M  V30 280 C 25.3617 1.86702 -2.82835 0
M  V30 281 C 24.5347 1.5304 -4.09753 0
M  V30 282 C 23.5937 2.62576 -4.56005 0
M  V30 283 O 22.6197 2.28167 -5.21468 0
M  V30 284 N 23.8217 3.92901 -4.27328 0
M  V30 285 H 26.5867 0.0642801 -2.99631 0
M  V30 286 H 24.1477 -0.110896 -1.6152 0
M  V30 287 H 26.1397 2.59304 -3.10715 0
M  V30 288 H 24.7097 2.33702 -2.07611 0
M  V30 289 H 23.9297 0.637564 -3.8901 0
M  V30 290 H 25.2177 1.28072 -4.92418 0
M  V30 291 H 24.6157 4.23671 -3.74859 0
M  V30 292 H 23.1727 4.61837 -4.59946 0
M  V30 293 N 26.6058 1.57591 -0.0167156 0
M  V30 294 C 27.5558 2.05953 0.978137 0
M  V30 295 C 28.5398 0.957532 1.29306 0
M  V30 296 O 29.7318 1.22119 1.28125 0
M  V30 297 C 26.8608 2.58006 2.26468 0
M  V30 298 C 25.9468 3.75113 1.97867 0
M  V30 299 N 26.3378 4.86187 1.39486 0
M  V30 300 C 24.6358 3.83363 2.27924 0
M  V30 301 C 25.3368 5.67502 1.27735 0
M  V30 302 N 24.3128 5.14023 1.76866 0
M  V30 303 H 28.1148 2.89236 0.521522 0
M  V30 304 H 25.6288 1.61301 0.188596 0
M  V30 305 H 27.6258 2.90937 2.98599 0
M  V30 306 H 26.2858 1.76148 2.72767 0
M  V30 307 H 27.2968 5.06695 1.07147 0
M  V30 308 H 23.9738 3.1239 2.76982 0
M  V30 309 H 25.3638 6.66791 0.826978 0
M  V30 310 N 28.0839 -0.256276 1.55502 0
M  V30 311 C 29.3299 -0.987079 1.77157 0
M  V30 312 C 29.6629 -1.85327 0.580315 0
M  V30 313 O 28.9379 -1.89874 -0.421686 0
M  V30 314 C 29.2209 -1.85553 3.08613 0
M  V30 315 C 29.0739 -1.01816 4.38125 0
M  V30 316 C 30.3929 -2.8397 3.36228 0
M  V30 317 H 27.5119 -0.357428 0.644526 0
M  V30 318 H 30.1539 -0.258239 1.88237 0
M  V30 319 H 28.3039 -2.47695 2.99298 0
M  V30 320 H 29.9759 -0.416159 4.59419 0
M  V30 321 H 28.2189 -0.322178 4.32602 0
M  V30 322 H 28.8899 -1.65939 5.26468 0
M  V30 323 H 31.3659 -2.31964 3.45445 0
M  V30 324 H 30.2419 -3.41864 4.29442 0
M  V30 325 H 30.5029 -3.59955 2.56681 0
M  V30 326 N 29.562 -1.4872 -0.521534 0
M  V30 327 C 30.809 -1.57168 -1.27689 0
M  V30 328 C 31.137 -0.249275 -1.92896 0
M  V30 329 O 30.392 0.761162 -1.80291 0
M  V30 330 C 30.691 -2.66497 -2.38148 0
M  V30 331 C 30.357 -4.08664 -1.90538 0
M  V30 332 C 29.019 -4.47357 -1.77271 0
M  V30 333 C 31.371 -4.97724 -1.54663 0
M  V30 334 C 28.699 -5.72905 -1.26478 0
M  V30 335 C 31.051 -6.2377 -1.05329 0
M  V30 336 C 29.715 -6.61311 -0.906861 0
M  V30 337 H 28.985 -0.575117 -0.467249 0
M  V30 338 H 31.632 -1.82472 -0.581051 0
M  V30 339 H 29.937 -2.35085 -3.13437 0
M  V30 340 H 31.634 -2.70246 -2.96257 0
M  V30 341 H 28.224 -3.78111 -2.01816 0
M  V30 342 H 32.408 -4.68501 -1.63768 0
M  V30 343 H 27.664 -6.00709 -1.13835 0
M  V30 344 H 31.838 -6.9217 -0.76644 0
M  V30 345 H 29.465 -7.5848 -0.511083 0
M  V30 346 N 31.0401 0.771051 -1.3745 0
M  V30 347 C 32.0031 1.86598 -1.33093 0
M  V30 348 C 33.0031 1.59076 -0.234845 0
M  V30 349 O 34.1931 1.67145 -0.490732 0
M  V30 350 C 31.3251 3.23747 -1.06773 0
M  V30 351 H 32.5181 1.91873 -2.30488 0
M  V30 352 H 30.0711 0.970876 -1.2249 0
M  V30 353 H 30.8061 3.24148 -0.099129 0
M  V30 354 H 30.5911 3.45115 -1.86112 0
M  V30 355 H 32.0811 4.03824 -1.06377 0
M  V30 356 N 32.5182 1.22032 0.997298 0
M  V30 357 C 33.7652 1.04222 1.73621 0
M  V30 358 C 34.0932 -0.423264 1.89839 0
M  V30 359 O 33.3482 -1.3302 1.43542 0
M  V30 360 C 33.6472 1.69345 3.14733 0
M  V30 361 C 33.3132 3.19226 3.18442 0
M  V30 362 C 31.9752 3.60124 3.19161 0
M  V30 363 C 34.3272 4.15181 3.15078 0
M  V30 364 C 31.6552 4.95467 3.14212 0
M  V30 365 C 34.0072 5.50495 3.1167 0
M  V30 366 C 32.6712 5.90779 3.10703 0
M  V30 367 H 31.9412 0.381374 0.635323 0
M  V30 368 H 34.5882 1.51732 1.16831 0
M  V30 369 H 32.8932 1.14147 3.74803 0
M  V30 370 H 34.5902 1.53059 3.7064 0
M  V30 371 H 31.1802 2.86659 3.18629 0
M  V30 372 H 35.3642 3.84605 3.13676 0
M  V30 373 H 30.6202 5.25916 3.11805 0
M  V30 374 H 34.7942 6.24576 3.08022 0
M  V30 375 H 32.4212 6.9562 3.06622 0
M  V30 376 N 33.9963 -1.19345 1.0293 0
M  V30 377 C 34.9283 -2.22036 0.56857 0
M  V30 378 C 35.9413 -1.58865 -0.355779 0
M  V30 379 O 37.1303 -1.77851 -0.152103 0
M  V30 380 C 34.2303 -3.38363 -0.190752 0
M  V30 381 C 33.4033 -4.31118 0.738643 0
M  V30 382 C 32.4623 -5.26194 0.0246497 0
M  V30 383 O 31.4883 -5.65461 0.651354 0
M  V30 384 N 32.6903 -5.66971 -1.24594 0
M  V30 385 H 35.4553 -2.6219 1.45177 0
M  V30 386 H 33.0163 -1.34015 0.908381 0
M  V30 387 H 35.0083 -3.98981 -0.677961 0
M  V30 388 H 33.5783 -2.96994 -0.975366 0
M  V30 389 H 32.7983 -3.68276 1.40593 0
M  V30 390 H 34.0863 -4.90001 1.37029 0
M  V30 391 H 33.4843 -5.37104 -1.77583 0
M  V30 392 H 32.0413 -6.2984 -1.67764 0
M  V30 393 N 35.4744 -0.807222 -1.35358 0
M  V30 394 C 36.6994 -0.399309 -2.0352 0
M  V30 395 C 37.1244 0.981986 -1.60433 0
M  V30 396 O 36.4824 1.63601 -0.781299 0
M  V30 397 C 36.5304 -0.491552 -3.57234 0
M  V30 398 O 35.6344 0.494754 -4.09421 0
M  V30 399 H 34.9754 -0.166682 -0.642739 0
M  V30 400 H 37.5054 -1.09328 -1.72941 0
M  V30 401 H 37.5154 -0.361588 -4.06395 0
M  V30 402 H 36.1904 -1.49907 -3.87944 0
M  V30 403 H 34.7674 0.324977 -3.71481 0
M  V30 404 N 36.9525 1.47285 -0.560781 0
M  V30 405 C 38.2005 2.02064 -0.0379868 0
M  V30 406 C 38.5215 1.43711 1.31803 0
M  V30 407 O 37.7915 0.61362 1.86042 0
M  V30 408 H 36.3715 0.746918 -0.0110531 0
M  V30 409 H 39.0335 1.80648 -0.731598 0
M  V30 410 H 38.1295 3.12064 0.0474463 0
M  V30 411 N 38.4306 0.297415 1.54768 0
M  V30 412 C 39.3626 -0.613881 2.20826 0
M  V30 413 C 40.3756 -1.10032 1.19987 0
M  V30 414 O 41.5646 -1.01839 1.46598 0
M  V30 415 C 38.6646 -1.852 2.83821 0
M  V30 416 C 37.8376 -1.50865 4.10559 0
M  V30 417 C 36.8966 -2.60154 4.57391 0
M  V30 418 O 35.9226 -2.25398 5.2267 0
M  V30 419 N 37.1246 -3.90629 4.29406 0
M  V30 420 H 39.8896 -0.048389 2.99661 0
M  V30 421 H 37.4506 0.11946 1.61459 0
M  V30 422 H 39.4426 -2.57652 3.12086 0
M  V30 423 H 38.0126 -2.32597 2.08847 0
M  V30 424 H 37.2326 -0.616925 3.89343 0
M  V30 425 H 38.5206 -1.25458 4.9309 0
M  V30 426 H 37.9186 -4.21677 3.77101 0
M  V30 427 H 36.4756 -4.59391 4.62388 0
M  V30 428 N 39.9087 -1.5758 0.0250728 0
M  V30 429 C 41.1547 -1.91917 -0.655413 0
M  V30 430 C 41.4877 -0.901433 -1.72011 0
M  V30 431 O 40.7627 0.0764069 -1.9435 0
M  V30 432 C 41.0457 -3.36751 -1.27558 0
M  V30 433 C 40.8987 -4.49258 -0.220719 0
M  V30 434 C 42.2177 -3.81469 -2.19475 0
M  V30 435 H 39.3367 -0.697925 -0.23679 0
M  V30 436 H 41.9787 -1.89825 0.0815036 0
M  V30 437 H 40.1287 -3.38664 -1.90365 0
M  V30 438 H 41.8007 -4.59478 0.409601 0
M  V30 439 H 40.0437 -4.31415 0.454264 0
M  V30 440 H 40.7147 -5.47618 -0.694175 0
M  V30 441 H 43.1907 -3.81266 -1.66659 0
M  V30 442 H 42.0667 -4.83512 -2.59822 0
M  V30 443 H 42.3277 -3.16744 -3.08424 0
M  V30 444 N 41.3868 0.248026 -1.55636 0
M  V30 445 C 42.3168 1.31079 -1.93237 0
M  V30 446 C 43.2978 1.50264 -0.797174 0
M  V30 447 O 44.4828 1.62891 -1.05737 0
M  V30 448 C 41.6128 2.66575 -2.22609 0
M  V30 449 C 40.5668 2.62087 -3.3837 0
M  V30 450 C 39.8928 4.01369 -3.53281 0
M  V30 451 C 41.1928 2.19171 -4.7409 0
M  V30 452 H 42.8868 0.998556 -2.82257 0
M  V30 453 H 40.4328 0.47891 -1.35803 0
M  V30 454 H 42.3858 3.41057 -2.47503 0
M  V30 455 H 41.1098 2.99432 -1.30414 0
M  V30 456 H 39.7688 1.90063 -3.13483 0
M  V30 457 H 39.4168 4.31489 -2.58508 0
M  V30 458 H 39.1168 3.99254 -4.31127 0
M  V30 459 H 40.6408 4.77552 -3.80495 0
M  V30 460 H 42.0548 2.83384 -4.98363 0
M  V30 461 H 40.4518 2.2817 -5.5503 0
M  V30 462 H 41.5218 1.14336 -4.71227 0
M  V30 463 N 42.8649 1.48995 0.513639 0
M  V30 464 C 43.8279 1.64229 1.59879 0
M  V30 465 C 44.8279 0.514696 1.5234 0
M  V30 466 O 46.0179 0.78087 1.55718 0
M  V30 467 C 43.1499 1.62783 2.99524 0
M  V30 468 H 44.3429 2.61004 1.47705 0
M  V30 469 H 41.8959 1.37837 0.736936 0
M  V30 470 H 42.6309 0.675461 3.17188 0
M  V30 471 H 42.4159 2.4466 3.06404 0
M  V30 472 H 43.9059 1.76669 3.78388 0
M  V30 473 N 44.343 -0.763751 1.37857 0
M  V30 474 C 45.306 -1.85889 1.34081 0
M  V30 475 C 46.306 -1.58949 0.243277 0
M  V30 476 O 47.496 -1.66882 0.499589 0
M  V30 477 C 44.628 -3.23176 1.08489 0
M  V30 478 H 45.821 -1.90648 2.31502 0
M  V30 479 H 43.374 -0.964367 1.23003 0
M  V30 480 H 44.109 -3.24091 0.116318 0
M  V30 481 H 43.894 -3.44124 1.8794 0
M  V30 482 H 45.384 -4.03254 1.08517 0
M  V30 483 N 45.8211 -1.22559 -0.990812 0
M  V30 484 C 46.7511 -1.0218 -2.09956 0
M  V30 485 C 47.7321 0.0579394 -1.70001 0
M  V30 486 O 48.9171 -0.104684 -1.93918 0
M  V30 487 C 46.0471 -0.601023 -3.4206 0
M  V30 488 C 45.0011 -1.62694 -3.95872 0
M  V30 489 C 44.3271 -1.06193 -5.24049 0
M  V30 490 C 45.6271 -3.01743 -4.2632 0
M  V30 491 H 47.3211 -1.94916 -2.27262 0
M  V30 492 H 44.8671 -0.938566 -1.09211 0
M  V30 493 H 46.8201 -0.445561 -4.19038 0
M  V30 494 H 45.5441 0.362005 -3.24588 0
M  V30 495 H 44.2031 -1.77021 -3.21028 0
M  V30 496 H 43.8511 -0.0901903 -5.02919 0
M  V30 497 H 43.5511 -1.74732 -5.61019 0
M  V30 498 H 45.0751 -0.918092 -6.03658 0
M  V30 499 H 46.4891 -2.90777 -4.94087 0
M  V30 500 H 44.8861 -3.67425 -4.74467 0
M  V30 501 H 45.9561 -3.51518 -3.34011 0
M  V30 502 N 47.2992 1.18797 -1.03562 0
M  V30 503 C 48.7102 1.70322 -0.764676 0
M  V30 504 C 49.0612 1.82708 0.714996 0
M  V30 505 O 48.1862 1.50299 1.55689 0
M  V30 506 C 48.7812 3.09356 -1.38145 0
M  V30 507 C 47.3402 3.58114 -1.15895 0
M  V30 508 C 46.4872 2.34798 -1.4753 0
M  V30 509 H 49.4382 1.03543 -1.20268 0
M  V30 510 H 49.4592 3.72378 -0.781977 0
M  V30 511 H 48.9712 3.00309 -2.45837 0
M  V30 512 H 47.0722 3.72464 -0.100544 0
M  V30 513 H 47.1852 4.4184 -1.8524 0
M  V30 514 H 45.5492 2.38464 -0.894829 0
M  V30 515 H 46.3322 2.28375 -2.56319 0
M  V30 516 N 48.7773 0.814389 1.34928 0
M  V30 517 C 50.1933 0.499084 1.51596 0
M  V30 518 C 50.3933 -0.978319 1.76157 0
M  V30 519 O 49.4493 -1.76309 1.80752 0
M  V30 520 C 50.7623 1.35121 2.68631 0
M  V30 521 C 52.3103 1.34746 2.82511 0
M  V30 522 C 52.7853 2.18388 4.0258 0
M  V30 523 N 54.2763 2.15966 4.09772 0
M  V30 524 C 55.0113 2.77437 5.01813 0
M  V30 525 N 54.5073 3.47866 5.99134 0
M  V30 526 N 56.3003 2.67037 4.94619 0
M  V30 527 H 48.4513 1.7711 1.17243 0
M  V30 528 H 50.7143 0.754256 0.574284 0
M  V30 529 H 50.4203 2.40001 2.57085 0
M  V30 530 H 50.2943 1.00991 3.63429 0
M  V30 531 H 52.6813 0.30648 2.93504 0
M  V30 532 H 52.7623 1.72869 1.88547 0
M  V30 533 H 52.4063 3.2253 3.92347 0
M  V30 534 H 52.3363 1.77621 4.9574 0
M  V30 535 H 54.8273 1.64729 3.40107 0
M  V30 536 H 55.1403 3.92038 6.65977 0
M  V30 537 H 53.4853 3.51972 5.99284 0
M  V30 538 H 56.6763 2.11597 4.17546 0
M  V30 539 H 56.8493 3.15232 5.66156 0
M  V30 540 N 50.2554 -1.46986 0.568584 0
M  V30 541 C 51.4834 -2.0683 0.0539956 0
M  V30 542 C 51.8984 -1.41953 -1.24478 0
M  V30 543 O 51.2554 -0.519933 -1.74937 0
M  V30 544 C 51.3064 -3.61254 -0.133362 0
M  V30 545 O 51.0274 -4.237 1.11399 0
M  V30 546 C 52.5284 -4.37992 -0.683927 0
M  V30 547 H 49.7484 -0.669058 0.0510141 0
M  V30 548 H 52.2924 -1.88824 0.785234 0
M  V30 549 H 50.4474 -3.78735 -0.81477 0
M  V30 550 H 50.8614 -5.16388 0.91888 0
M  V30 551 H 52.3354 -5.46684 -0.764263 0
M  V30 552 H 52.8124 -4.05058 -1.69778 0
M  V30 553 H 53.4184 -4.25283 -0.0378494 0
M  V30 554 N 51.7335 -0.305618 -1.54608 0
M  V30 555 C 52.9585 0.307562 -2.05107 0
M  V30 556 C 53.3835 1.46385 -1.18123 0
M  V30 557 O 52.7415 1.8034 -0.186324 0
M  V30 558 C 52.7895 0.73704 -3.52987 0
M  V30 559 O 51.8935 1.84134 -3.6901 0
M  V30 560 H 51.2345 0.0589143 -0.661381 0
M  V30 561 H 53.7645 -0.448807 -1.99617 0
M  V30 562 H 53.7745 1.02459 -3.94925 0
M  V30 563 H 52.4495 -0.108773 -4.15758 0
M  V30 564 H 51.0265 1.55398 -3.38978 0
M  V30 565 N 53.2116 1.57565 -0.0334293 0
M  V30 566 C 54.6276 1.56297 0.322997 0
M  V30 567 C 54.8276 1.03945 1.7262 0
M  V30 568 O 53.8836 0.688109 2.42943 0
M  V30 569 C 55.1966 3.00232 0.167664 0
M  V30 570 C 56.7446 3.12078 0.240107 0
M  V30 571 C 57.2196 4.57859 0.113513 0
M  V30 572 N 58.7106 4.62887 0.170359 0
M  V30 573 C 59.4456 5.73319 0.0962517 0
M  V30 574 N 58.9416 6.92794 -0.0291881 0
M  V30 575 N 60.7346 5.61898 0.150551 0
M  V30 576 H 52.8856 1.89923 -0.950956 0
M  V30 577 H 55.1486 0.873824 -0.367608 0
M  V30 578 H 54.8546 3.42501 -0.799102 0
M  V30 579 H 54.7286 3.654 0.936083 0
M  V30 580 H 57.1156 2.69718 1.19733 0
M  V30 581 H 57.1966 2.49623 -0.558763 0
M  V30 582 H 56.8406 5.009 -0.840314 0
M  V30 583 H 56.7706 5.18299 0.931302 0
M  V30 584 H 59.2616 3.76954 0.26728 0
M  V30 585 H 59.5746 7.7276 -0.0789252 0
M  V30 586 H 57.9196 6.94971 -0.0640299 0
M  V30 587 H 61.1106 4.67448 0.246981 0
M  V30 588 H 61.2836 6.47938 0.0893365 0
M  V30 589 N 54.6897 -0.239769 1.55765 0
M  V30 590 C 55.6217 -1.32001 1.87372 0
M  V30 591 C 56.6347 -1.43944 0.760522 0
M  V30 592 O 57.8237 -1.45167 1.0387 0
M  V30 593 C 54.9237 -2.69779 2.05115 0
M  V30 594 C 54.0967 -2.80014 3.36022 0
M  V30 595 C 53.1557 -3.98684 3.4342 0
M  V30 596 O 52.1817 -3.87877 4.16582 0
M  V30 597 N 53.3837 -5.12176 2.73232 0
M  V30 598 H 56.1487 -1.0522 2.80622 0
M  V30 599 H 53.7097 -0.429857 1.56089 0
M  V30 600 H 55.7017 -3.47517 2.07399 0
M  V30 601 H 54.2717 -2.89237 1.18577 0
M  V30 602 H 53.4917 -1.88896 3.45994 0
M  V30 603 H 54.7797 -2.83808 4.22292 0
M  V30 604 H 54.1777 -5.2385 2.13536 0
M  V30 605 H 52.7347 -5.88022 2.81199 0
M  V30 606 N 56.1678 -1.49265 -0.50573 0
M  V30 607 C 57.4138 -1.58748 -1.26202 0
M  V30 608 C 57.7468 -0.271227 -1.92297 0
M  V30 609 O 57.0218 0.724831 -1.80489 0
M  V30 610 C 57.3048 -2.74332 -2.33268 0
M  V30 611 C 57.1578 -4.15737 -1.71705 0
M  V30 612 C 58.4768 -2.85576 -3.34865 0
M  V30 613 H 55.5958 -0.577826 -0.457478 0
M  V30 614 H 58.2378 -1.81532 -0.560897 0
M  V30 615 H 56.3878 -2.55036 -2.93068 0
M  V30 616 H 58.0598 -4.46537 -1.15769 0
M  V30 617 H 56.3028 -4.21605 -1.02135 0
M  V30 618 H 56.9738 -4.92477 -2.49341 0
M  V30 619 H 59.4498 -3.03127 -2.8505 0
M  V30 620 H 58.3258 -3.68135 -4.07146 0
M  V30 621 H 58.5868 -1.94732 -3.96903 0
M  V30 622 N 57.6459 0.756429 -1.3826 0
M  V30 623 C 58.5779 1.87971 -1.31147 0
M  V30 624 C 59.5909 1.61248 -0.224239 0
M  V30 625 O 60.7799 1.71881 -0.481581 0
M  V30 626 C 57.8799 3.23545 -1.00857 0
M  V30 627 C 57.0529 3.77794 -2.20432 0
M  V30 628 C 56.1119 4.91877 -1.86931 0
M  V30 629 O 55.1379 5.06659 -2.59395 0
M  V30 630 N 56.3399 5.74643 -0.822568 0
M  V30 631 H 59.1049 1.94585 -2.2794 0
M  V30 632 H 56.6659 0.936234 -1.32084 0
M  V30 633 H 58.6579 3.97403 -0.765021 0
M  V30 634 H 57.2279 3.12335 -0.128687 0
M  V30 635 H 56.4479 2.95534 -2.6087 0
M  V30 636 H 57.7359 4.10771 -3.00241 0
M  V30 637 H 57.1339 5.65266 -0.221575 0
M  V30 638 H 55.6909 6.48661 -0.638899 0
M  V30 639 N 59.124 1.23083 0.984299 0
M  V30 640 C 60.37 1.06214 1.72761 0
M  V30 641 C 60.703 -0.400584 1.90024 0
M  V30 642 O 59.978 -1.29672 1.44967 0
M  V30 643 C 60.261 1.78375 3.12817 0
M  V30 644 C 60.114 3.32296 3.03149 0
M  V30 645 C 61.433 1.54309 4.12161 0
M  V30 646 H 58.552 0.387251 0.627061 0
M  V30 647 H 61.194 1.51536 1.14616 0
M  V30 648 H 59.344 1.39848 3.62457 0
M  V30 649 H 61.016 3.8032 2.61064 0
M  V30 650 H 59.259 3.6153 2.39747 0
M  V30 651 H 59.93 3.77972 4.02295 0
M  V30 652 H 62.406 1.87791 3.71314 0
M  V30 653 H 61.282 2.07281 5.08258 0
M  V30 654 H 61.543 0.477572 4.39513 0
M  V30 655 N 60.6021 -1.18246 1.0419 0
M  V30 656 C 61.5321 -2.24127 0.654914 0
M  V30 657 C 62.5131 -1.66617 -0.342451 0
M  V30 658 O 63.6981 -1.92924 -0.222277 0
M  V30 659 C 60.8281 -3.47295 0.0183757 0
M  V30 660 C 59.7821 -4.17563 0.939414 0
M  V30 661 C 59.1081 -5.34438 0.167286 0
M  V30 662 C 60.4081 -4.70917 2.25908 0
M  V30 663 H 62.1021 -2.56753 1.54007 0
M  V30 664 H 59.6481 -1.23414 0.74195 0
M  V30 665 H 61.6011 -4.20572 -0.264082 0
M  V30 666 H 60.3251 -3.13907 -0.901664 0
M  V30 667 H 58.9841 -3.46186 1.20628 0
M  V30 668 H 58.6321 -4.97298 -0.7552 0
M  V30 669 H 58.3321 -5.82388 0.780901 0
M  V30 670 H 59.8561 -6.10504 -0.108125 0
M  V30 671 H 61.2701 -5.35882 2.03724 0
M  V30 672 H 59.6671 -5.29406 2.82577 0
M  V30 673 H 60.7371 -3.88272 2.9047 0
M  V30 674 N 62.0802 -0.821533 -1.34494 0
M  V30 675 C 63.0122 -0.199946 -2.28326 0
M  V30 676 C 64.0252 0.609377 -1.50965 0
M  V30 677 O 65.2142 0.439285 -1.7301 0
M  V30 678 C 62.3142 0.738431 -3.30757 0
M  V30 679 C 61.4872 -0.0277632 -4.37391 0
M  V30 680 C 60.5462 0.831332 -5.19591 0
M  V30 681 O 59.5722 0.276822 -5.68526 0
M  V30 682 N 60.7742 2.15132 -5.39165 0
M  V30 683 H 63.5392 -1.00609 -2.82308 0
M  V30 684 H 61.1002 -0.678366 -1.47003 0
M  V30 685 H 63.0922 1.31773 -3.82646 0
M  V30 686 H 61.6622 1.44533 -2.7718 0
M  V30 687 H 60.8822 -0.788359 -3.86236 0
M  V30 688 H 62.1702 -0.555251 -5.05761 0
M  V30 689 H 61.5682 2.62559 -5.01078 0
M  V30 690 H 60.1252 2.6795 -5.94177 0
M  V30 691 N 63.5583 1.46682 -0.576371 0
M  V30 692 C 64.5063 2.31953 0.17335 0
M  V30 693 C 65.5003 1.44098 0.89062 0
M  V30 694 O 66.7063 1.60759 0.809728 0
M  V30 695 H 63.0813 0.748273 0.0747727 0
M  V30 696 H 65.0523 2.93007 -0.564738 0
M  V30 697 C 63.8013 3.27142 1.17786 0
M  V30 698 H 63.1243 3.94719 0.635361 0
M  V30 699 H 64.5643 3.896 1.67296 0
M  V30 700 C 63.0233 2.52036 2.23561 0
M  V30 701 O 63.5533 2.27877 3.3081 0
M  V30 702 N 61.7593 2.12709 1.97998 0
M  V30 703 H 61.3063 2.32557 1.10792 0
M  V30 704 H 61.2643 1.62776 2.68982 0
M  V30 705 N 65.0364 0.313813 1.54444 0
M  V30 706 C 65.9664 -0.549454 2.26943 0
M  V30 707 C 66.9474 -1.12741 1.27372 0
M  V30 708 O 68.1324 -1.15436 1.56167 0
M  V30 709 C 65.2624 -1.71523 3.01989 0
M  V30 710 C 64.2164 -1.26703 4.08816 0
M  V30 711 C 63.5424 -2.51898 4.71647 0
M  V30 712 C 64.8424 -0.388962 5.2085 0
M  V30 713 H 66.5364 0.0552661 2.99349 0
M  V30 714 H 64.0824 0.0280207 1.43973 0
M  V30 715 H 66.0354 -2.32535 3.51433 0
M  V30 716 H 64.7594 -2.34639 2.27183 0
M  V30 717 H 63.4184 -0.679896 3.6024 0
M  V30 718 H 63.0664 -3.13356 3.93468 0
M  V30 719 H 62.7664 -2.22605 5.43802 0
M  V30 720 H 64.2904 -3.1369 5.23861 0
M  V30 721 H 65.7044 -0.905107 5.6611 0
M  V30 722 H 64.1014 -0.18924 5.99802 0
M  V30 723 H 65.1714 0.582699 4.81386 0
M  V30 724 N 66.5145 -1.57545 0.0417849 0
M  V30 725 C 67.7425 -1.96624 -0.643928 0
M  V30 726 C 68.1575 -0.918897 -1.64929 0
M  V30 727 O 67.5145 0.0979323 -1.82237 0
M  V30 728 C 67.5655 -3.35781 -1.33914 0
M  V30 729 O 67.2865 -4.365 -0.374048 0
M  V30 730 C 68.7875 -3.89566 -2.1155 0
M  V30 731 H 66.0075 -0.647316 -0.176702 0
M  V30 732 H 68.5515 -2.04229 0.105304 0
M  V30 733 H 66.7065 -3.29357 -2.03968 0
M  V30 734 H 67.1205 -5.17248 -0.869179 0
M  V30 735 H 68.5945 -4.89242 -2.55628 0
M  V30 736 H 69.0715 -3.24488 -2.9598 0
M  V30 737 H 69.6775 -3.99298 -1.46427 0
M  V30 738 N 67.9926 0.231505 -1.5589 0
M  V30 739 C 69.2206 0.974505 -1.82513 0
M  V30 740 C 69.6356 1.78344 -0.619591 0
M  V30 741 O 68.9926 1.77792 0.411848 0
M  V30 742 C 69.0436 1.90007 -3.07538 0
M  V30 743 O 68.7646 1.12385 -4.2344 0
M  V30 744 C 70.2656 2.75779 -3.47075 0
M  V30 745 H 67.4856 0.286065 -0.606966 0
M  V30 746 H 70.0296 0.249739 -2.02969 0
M  V30 747 H 68.1846 2.57891 -2.89086 0
M  V30 748 H 68.5986 1.75125 -4.944 0
M  V30 749 H 70.0726 3.36443 -4.37619 0
M  V30 750 H 70.5496 3.47672 -2.68367 0
M  V30 751 H 71.1556 2.13323 -3.67931 0
M  V30 752 N 69.4707 1.49531 0.497807 0
M  V30 753 C 70.6987 1.62893 1.27567 0
M  V30 754 C 71.1137 0.301585 1.86376 0
M  V30 755 O 70.4707 -0.713335 1.67982 0
M  V30 756 C 70.5217 2.70013 2.40364 0
M  V30 757 O 70.2427 3.976 1.83972 0
M  V30 758 C 71.7437 2.94109 3.31685 0
M  V30 759 H 68.9637 0.548298 0.386794 0
M  V30 760 H 71.5077 1.95584 0.597245 0
M  V30 761 H 69.6627 2.40092 3.04031 0
M  V30 762 H 70.0767 4.56631 2.58047 0
M  V30 763 H 71.5507 3.72788 4.07104 0
M  V30 764 H 72.0277 2.04147 3.88871 0
M  V30 765 H 72.6337 3.2546 2.73781 0
M  V30 766 N 70.9488 -0.749086 1.3866 0
M  V30 767 C 72.1788 -1.53611 1.38157 0
M  V30 768 C 72.5868 -1.89177 -0.0293595 0
M  V30 769 O 71.9298 -1.53606 -1.00752 0
M  V30 770 C 71.9918 -2.86087 2.17702 0
M  V30 771 C 71.6558 -2.73034 3.66472 0
M  V30 772 C 72.6528 -2.42526 4.59866 0
M  V30 773 C 70.3378 -2.90345 4.09884 0
M  V30 774 C 72.3318 -2.29492 5.94653 0
M  V30 775 C 70.0188 -2.7693 5.4475 0
M  V30 776 C 71.0168 -2.46547 6.36949 0
M  V30 777 O 70.7048 -2.33199 7.69333 0
M  V30 778 H 70.4368 -0.481773 0.474205 0
M  V30 779 H 72.9908 -0.934465 1.82912 0
M  V30 780 H 71.2208 -3.48458 1.67672 0
M  V30 781 H 72.9098 -3.47625 2.09551 0
M  V30 782 H 73.6758 -2.28816 4.27631 0
M  V30 783 H 69.5548 -3.1299 3.38464 0
M  V30 784 H 73.0988 -2.05698 6.66584 0
M  V30 785 H 68.9958 -2.90215 5.76581 0
M  V30 786 H 69.7638 -2.48376 7.79905 0
M  V30 787 N 72.4269 -1.23603 -0.977757 0
M  V30 788 C 73.3369 -1.03632 -2.1047 0
M  V30 789 C 74.3529 0.0199435 -1.73989 0
M  V30 790 O 75.5289 -0.176076 -2.00629 0
M  V30 791 C 72.5939 -0.63276 -3.40877 0
M  V30 792 C 71.6549 -1.76437 -3.91367 0
M  V30 793 C 70.8879 -1.37997 -5.15551 0
M  V30 794 O 71.1109 -0.265357 -5.69782 0
M  V30 795 O 70.0449 -2.20201 -5.60174 0
M  V30 796 H 73.8709 -1.98086 -2.30208 0
M  V30 797 H 71.4559 -1.02332 -1.08851 0
M  V30 798 H 73.3379 -0.418761 -4.19314 0
M  V30 799 H 72.0129 0.282754 -3.22463 0
M  V30 800 H 70.9199 -2.03304 -3.14036 0
M  V30 801 H 72.2529 -2.6583 -4.14241 0
M  V30 802 N 73.905 1.17692 -1.04816 0
M  V30 803 C 75.154 1.87192 -0.751132 0
M  V30 804 C 75.467 1.8169 0.724441 0
M  V30 805 O 76.673 2.46625 1.13527 0
M  V30 806 C 75.129 3.35857 -1.29338 0
M  V30 807 C 74.737 3.4987 -2.79812 0
M  V30 808 C 76.481 4.10709 -1.07322 0
M  V30 809 C 74.388 4.92536 -3.27356 0
M  V30 810 H 73.318 0.701162 -0.277288 0
M  V30 811 H 75.969 1.32932 -1.26496 0
M  V30 812 H 74.351 3.89631 -0.707376 0
M  V30 813 H 75.525 3.06332 -3.44235 0
M  V30 814 H 73.84 2.88433 -3.00325 0
M  V30 815 H 76.437 5.15952 -1.4035 0
M  V30 816 H 76.78 4.16299 -0.0108001 0
M  V30 817 H 77.313 3.6313 -1.62423 0
M  V30 818 H 74.052 4.92119 -4.33012 0
M  V30 819 H 73.572 5.3676 -2.67673 0
M  V30 820 H 75.251 5.61288 -3.21815 0
M  V30 821 N 75.3831 0.828654 1.34056 0
M  V30 822 C 76.6291 0.42008 1.98402 0
M  V30 823 C 76.9621 -1.01564 1.65525 0
M  V30 824 O 76.2371 -1.70834 0.929831 0
M  V30 825 C 76.5201 0.62927 3.54559 0
M  V30 826 C 76.3731 2.11152 3.97159 0
M  V30 827 C 77.6921 0.0688756 4.40046 0
M  V30 828 H 74.8111 0.154104 0.720709 0
M  V30 829 H 77.4531 1.04228 1.5886 0
M  V30 830 H 75.6031 0.0996418 3.88372 0
M  V30 831 H 77.2751 2.70522 3.73651 0
M  V30 832 H 75.5181 2.59985 3.47261 0
M  V30 833 H 76.1891 2.20868 5.05887 0
M  V30 834 H 78.6651 0.521458 4.1282 0
M  V30 835 H 77.5411 0.245006 5.48353 0
M  V30 836 H 77.8021 -1.0266 4.30015 0
M  V30 837 N 76.8612 -1.46375 0.584142 0
M  V30 838 C 77.7912 -2.33103 -0.136037 0
M  V30 839 C 78.7722 -1.45431 -0.882255 0
M  V30 840 O 79.9572 -1.74246 -0.857434 0
M  V30 841 C 77.0872 -3.27731 -1.14933 0
M  V30 842 C 76.0412 -4.24855 -0.517862 0
M  V30 843 C 75.3672 -5.09001 -1.63773 0
M  V30 844 C 76.6672 -5.19439 0.545886 0
M  V30 845 H 78.3612 -2.93568 0.588086 0
M  V30 846 H 75.9072 -1.41166 0.284259 0
M  V30 847 H 77.8602 -3.87261 -1.66153 0
M  V30 848 H 76.5842 -2.65377 -1.90375 0
M  V30 849 H 75.2432 -3.6659 -0.0267361 0
M  V30 850 H 74.8912 -4.43031 -2.38185 0
M  V30 851 H 74.5912 -5.74777 -1.22085 0
M  V30 852 H 76.1152 -5.71396 -2.15266 0
M  V30 853 H 77.5292 -5.73177 0.118704 0
M  V30 854 H 75.9262 -5.93566 0.88317 0
M  V30 855 H 76.9962 -4.63285 1.43162 0
M  V30 856 N 78.3393 -0.321999 -1.54275 0
M  V30 857 C 79.5853 0.274234 -2.01543 0
M  V30 858 C 79.9403 1.499 -1.20614 0
M  V30 859 O 79.2333 1.89546 -0.279804 0
M  V30 860 C 79.4273 0.661769 -3.5122 0
M  V30 861 C 79.2563 -0.523892 -4.46638 0
M  V30 862 C 78.0263 -1.02251 -4.94846 0
M  V30 863 C 80.2243 -1.37558 -4.95563 0
M  V30 864 N 78.2063 -2.17274 -5.74165 0
M  V30 865 C 79.5773 -2.37301 -5.7279 0
M  V30 866 C 81.6323 -1.40353 -4.77709 0
M  V30 867 C 80.3353 -3.3964 -6.34064 0
M  V30 868 C 82.3613 -2.41562 -5.39817 0
M  V30 869 C 81.7233 -3.40031 -6.16894 0
M  V30 870 H 77.8223 0.0642367 -0.779357 0
M  V30 871 H 80.4063 -0.456683 -1.89268 0
M  V30 872 H 78.5773 1.36182 -3.63743 0
M  V30 873 H 80.3093 1.23934 -3.85256 0
M  V30 874 H 77.0643 -0.594046 -4.6986 0
M  V30 875 H 77.4883 -2.75289 -6.18502 0
M  V30 876 H 82.1303 -0.655907 -4.17681 0
M  V30 877 H 79.8483 -4.15309 -6.93213 0
M  V30 878 H 83.4343 -2.44524 -5.2792 0
M  V30 879 H 82.3143 -4.17063 -6.64099 0
M  V30 880 N 79.8174 1.5752 -0.0501392 0
M  V30 881 C 80.7494 2.08413 0.95376 0
M  V30 882 C 81.7624 1.01175 1.27544 0
M  V30 883 O 82.9514 1.28744 1.23641 0
M  V30 884 C 80.0514 2.51138 2.27559 0
M  V30 885 C 79.2244 3.817 2.13598 0
M  V30 886 C 78.2834 4.10749 3.28895 0
M  V30 887 O 77.3094 4.80685 3.04845 0
M  V30 888 N 78.5114 3.62579 4.5334 0
M  V30 889 H 81.2764 2.95165 0.519383 0
M  V30 890 H 78.8374 1.61327 0.136127 0
M  V30 891 H 80.8294 2.67648 3.03557 0
M  V30 892 H 79.3994 1.6964 2.62567 0
M  V30 893 H 78.6194 3.74782 1.22197 0
M  V30 894 H 79.9074 4.67201 2.01496 0
M  V30 895 H 79.3054 3.06039 4.75769 0
M  V30 896 H 77.8624 3.84329 5.26436 0
M  V30 897 N 81.2955 -0.223234 1.56011 0
M  V30 898 C 82.7065 -0.790368 1.69145 0
M  V30 899 C 83.0575 -1.85055 0.651845 0
M  V30 900 O 82.1825 -2.15498 -0.197359 0
M  V30 901 C 82.7775 -1.4404 3.06656 0
M  V30 902 C 81.3365 -1.95494 3.2165 0
M  V30 903 C 80.4835 -0.814506 2.65068 0
M  V30 904 H 83.4345 0.00139011 1.587 0
M  V30 905 H 83.4555 -2.30916 3.0242 0
M  V30 906 H 82.9675 -0.668543 3.82298 0
M  V30 907 H 81.0685 -2.75487 2.50874 0
M  V30 908 H 81.1815 -2.13607 4.28846 0
M  V30 909 H 79.5455 -1.22137 2.23505 0
M  V30 910 H 80.3285 -0.0553515 3.43255 0
M  V30 911 N 82.7736 -1.49793 -0.48987 0
M  V30 912 C 84.0196 -1.60078 -1.24511 0
M  V30 913 C 84.3526 -0.291608 -1.91998 0
M  V30 914 O 83.6276 0.705647 -1.81248 0
M  V30 915 C 83.9106 -2.76791 -2.30345 0
M  V30 916 C 83.7636 -4.17535 -1.67286 0
M  V30 917 C 85.0826 -2.89111 -3.31817 0
M  V30 918 H 82.2016 -0.582645 -0.451324 0
M  V30 919 H 84.8436 -1.82117 -0.541612 0
M  V30 920 H 82.9936 -2.5813 -2.90346 0
M  V30 921 H 84.6656 -4.4774 -1.11026 0
M  V30 922 H 82.9086 -4.22665 -0.976577 0
M  V30 923 H 83.5796 -4.95094 -2.44103 0
M  V30 924 H 86.0556 -3.06133 -2.81819 0
M  V30 925 H 84.9316 -3.72433 -4.03219 0
M  V30 926 H 85.1926 -1.9893 -3.94815 0
M  V30 927 N 84.2517 0.741722 -1.39055 0
M  V30 928 C 85.4797 1.53098 -1.39171 0
M  V30 929 C 85.8947 1.88794 0.0155099 0
M  V30 930 O 85.2517 1.53626 0.985159 0
M  V30 931 C 85.3027 2.82274 -2.2584 0
M  V30 932 O 85.0237 2.48097 -3.61081 0
M  V30 933 C 86.5247 3.76343 -2.34266 0
M  V30 934 H 83.7447 0.473335 -0.4756 0
M  V30 935 H 86.2887 0.917045 -1.82785 0
M  V30 936 H 84.4437 3.40015 -1.85656 0
M  V30 937 H 84.8577 3.31029 -4.06842 0
M  V30 938 H 86.3317 4.63898 -2.9917 0
M  V30 939 H 86.8087 4.17619 -1.35982 0
M  V30 940 H 87.4147 3.24523 -2.74891 0
M  V30 941 N 85.7298 1.2412 0.971189 0
M  V30 942 C 86.6928 1.03156 2.04674 0
M  V30 943 C 87.6928 -0.00990322 1.60797 0
M  V30 944 O 88.8828 0.230729 1.72665 0
M  V30 945 C 86.0148 0.562765 3.36223 0
M  V30 946 H 87.2078 1.98614 2.24705 0
M  V30 947 H 84.7608 1.06293 1.14593 0
M  V30 948 H 85.4958 -0.395176 3.21883 0
M  V30 949 H 85.2808 1.31441 3.69413 0
M  V30 950 H 86.7708 0.437015 4.15307 0
M  V30 951 N 87.2079 -1.17134 1.05439 0
M  V30 952 C 88.4849 -1.83411 0.679699 0
M  V30 953 C 88.8649 -1.9368 -0.839726 0
M  V30 954 O 88.2129 -1.47325 -1.74664 0
M  V30 955 C 88.4229 -3.20918 1.37159 0
M  V30 956 C 89.7709 -3.96796 1.51123 0
M  V30 957 O 90.7949 -3.30406 1.3308 0
M  V30 958 O 89.6539 -5.15778 1.80651 0
M  V30 959 H 86.7479 -0.79154 0.239569 0
M  V30 960 H 89.2939 -1.24411 1.15413 0
M  V30 961 H 88.0659 -3.08428 2.40807 0
M  V30 962 H 87.6889 -3.87587 0.886674 0
M  V30 963 N 88.686 -0.835752 -1.33615 0
M  V30 964 C 89.616 -0.281739 -2.31794 0
M  V30 965 C 90.597 0.608833 -1.58831 0
M  V30 966 O 91.782 0.533035 -1.86741 0
M  V30 967 C 88.912 0.546612 -3.42971 0
M  V30 968 C 87.866 -0.247904 -4.27281 0
M  V30 969 C 87.192 0.704001 -5.30045 0
M  V30 970 C 88.492 -1.46324 -5.01385 0
M  V30 971 H 90.186 -1.10206 -2.78379 0
M  V30 972 H 87.732 -0.531388 -1.33837 0
M  V30 973 H 89.685 0.944467 -4.1068 0
M  V30 974 H 88.409 1.40011 -2.95067 0
M  V30 975 H 87.068 -0.627281 -3.61194 0
M  V30 976 H 86.716 1.55381 -4.78399 0
M  V30 977 H 86.416 0.176524 -5.87335 0
M  V30 978 H 87.94 1.09944 -6.0062 0
M  V30 979 H 89.354 -1.13871 -5.61877 0
M  V30 980 H 87.751 -1.92728 -5.6831 0
M  V30 981 H 88.821 -2.23467 -4.30338 0
M  V30 982 N 90.1641 1.46063 -0.591896 0
M  V30 983 C 91.4131 2.01547 -0.0786637 0
M  V30 984 C 91.7261 1.46796 1.29268 0
M  V30 985 O 92.9321 1.94157 1.89777 0
M  V30 986 C 91.3881 3.59787 -0.0900024 0
M  V30 987 C 90.9961 4.23534 -1.46023 0
M  V30 988 C 92.7401 4.22895 0.368806 0
M  V30 989 C 90.6471 5.73881 -1.4288 0
M  V30 990 H 89.5771 0.753564 -0.0256388 0
M  V30 991 H 92.2281 1.677 -0.744905 0
M  V30 992 H 90.6101 3.90752 0.642586 0
M  V30 993 H 91.7841 4.04167 -2.21328 0
M  V30 994 H 90.0991 3.72558 -1.85982 0
M  V30 995 H 92.6961 5.33116 0.411258 0
M  V30 996 H 93.0391 3.9247 1.38827 0
M  V30 997 H 93.5721 3.9659 -0.31001 0
M  V30 998 H 90.3111 6.0898 -2.42536 0
M  V30 999 H 89.8311 5.95486 -0.718095 0
M  V30 1000 H 91.5101 6.36776 -1.14565 0
M  V30 1001 N 91.6422 0.330177 1.54103 0
M  V30 1002 C 92.8882 -0.270806 2.00984 0
M  V30 1003 C 93.2212 -1.51265 1.21789 0
M  V30 1004 O 92.4962 -1.92142 0.301927 0
M  V30 1005 C 92.7792 -0.598339 3.55094 0
M  V30 1006 C 92.6322 0.654674 4.4501 0
M  V30 1007 C 93.9512 -1.41334 4.16789 0
M  V30 1008 H 91.0702 -0.0969531 0.730595 0
M  V30 1009 H 93.7122 0.448066 1.84641 0
M  V30 1010 H 91.8622 -1.21078 3.69151 0
M  V30 1011 H 93.5342 1.29285 4.42813 0
M  V30 1012 H 91.7772 1.28224 4.14416 0
M  V30 1013 H 92.4482 0.380944 5.50684 0
M  V30 1014 H 94.9242 -0.895597 4.06347 0
M  V30 1015 H 93.8002 -1.61127 5.24718 0
M  V30 1016 H 94.0612 -2.41146 3.70541 0
M  V30 1017 N 93.1203 -1.57491 0.0584922 0
M  V30 1018 C 94.0673 -2.11958 -0.913376 0
M  V30 1019 C 95.0373 -1.02875 -1.30407 0
M  V30 1020 O 96.2223 -1.30464 -1.39226 0
M  V30 1021 C 93.3623 -2.67497 -2.18035 0
M  V30 1022 C 92.4753 -3.90691 -1.84349 0
M  V30 1023 C 91.6103 -4.3452 -3.05559 0
M  V30 1024 C 90.6493 -5.50395 -2.67827 0
M  V30 1025 N 89.7863 -5.89244 -3.81754 0
M  V30 1026 H 94.6263 -2.94704 -0.442017 0
M  V30 1027 H 92.1633 -1.45643 -0.206545 0
M  V30 1028 H 94.1213 -2.978 -2.92183 0
M  V30 1029 H 92.7513 -1.87537 -2.62735 0
M  V30 1030 H 91.8033 -3.66934 -1.00319 0
M  V30 1031 H 93.1153 -4.7489 -1.5258 0
M  V30 1032 H 92.2693 -4.66414 -3.87998 0
M  V30 1033 H 91.0083 -3.49147 -3.40511 0
M  V30 1034 H 90.0133 -5.18165 -1.83806 0
M  V30 1035 H 91.2383 -6.3749 -2.34059 0
M  V30 1036 H 89.1843 -5.06823 -4.16493 0
M  V30 1037 H 89.1013 -6.68151 -3.53708 0
M  V30 1038 H 90.3693 -6.25756 -4.64811 0
M  V30 1039 N 94.5984 0.214957 -1.56127 0
M  V30 1040 C 95.5454 1.26642 -1.92952 0
M  V30 1041 C 96.5154 1.46244 -0.78753 0
M  V30 1042 O 97.7004 1.59704 -1.04399 0
M  V30 1043 C 94.8404 2.6104 -2.25726 0
M  V30 1044 C 93.9534 2.49183 -3.52891 0
M  V30 1045 C 93.0884 3.76149 -3.7508 0
M  V30 1046 C 92.1274 3.59041 -4.95738 0
M  V30 1047 N 91.2644 4.77972 -5.14283 0
M  V30 1048 H 96.1044 0.945384 -2.82607 0
M  V30 1049 H 93.6414 0.455489 -1.3987 0
M  V30 1050 H 95.5994 3.39313 -2.42739 0
M  V30 1051 H 94.2294 2.91227 -1.39236 0
M  V30 1052 H 93.2814 1.6231 -3.44034 0
M  V30 1053 H 94.5934 2.32466 -4.41318 0
M  V30 1054 H 93.7474 4.62865 -3.92226 0
M  V30 1055 H 92.4864 3.95799 -2.84947 0
M  V30 1056 H 91.4914 2.7071 -4.78535 0
M  V30 1057 H 92.7164 3.40856 -5.87362 0
M  V30 1058 H 90.6624 4.97923 -4.27093 0
M  V30 1059 H 90.5794 4.64006 -5.96853 0
M  V30 1060 H 91.8474 5.66096 -5.35869 0
M  V30 1061 N 96.0765 1.50051 0.48192 0
M  V30 1062 C 97.0235 1.68122 1.58125 0
M  V30 1063 C 97.9935 0.522545 1.57666 0
M  V30 1064 O 99.1785 0.751844 1.75362 0
M  V30 1065 C 96.3185 1.77142 2.96167 0
M  V30 1066 C 95.4315 3.0444 3.06497 0
M  V30 1067 C 94.5665 3.04321 4.35387 0
M  V30 1068 C 93.6055 4.26118 4.3942 0
M  V30 1069 N 92.7425 4.238 5.59766 0
M  V30 1070 H 97.5825 2.6198 1.42022 0
M  V30 1071 H 95.1195 1.29877 0.690687 0
M  V30 1072 H 97.0775 1.80352 3.76203 0
M  V30 1073 H 95.7075 0.867329 3.1093 0
M  V30 1074 H 94.7595 3.10752 2.19402 0
M  V30 1075 H 96.0715 3.94426 3.05336 0
M  V30 1076 H 95.2255 3.062 5.23762 0
M  V30 1077 H 93.9645 2.12147 4.39141 0
M  V30 1078 H 92.9695 4.24463 3.49444 0
M  V30 1079 H 94.1945 5.19507 4.37366 0
M  V30 1080 H 92.1405 3.34474 5.64326 0
M  V30 1081 H 92.0575 5.07542 5.60301 0
M  V30 1082 H 93.3255 4.2981 6.50295 0
M  V30 1083 N 97.5546 -0.734337 1.39446 0
M  V30 1084 C 98.4866 -1.85861 1.34121 0
M  V30 1085 C 99.4996 -1.60871 0.249864 0
M  V30 1086 O 100.689 -1.71093 0.508865 0
M  V30 1087 C 97.7886 -3.21899 1.05991 0
M  V30 1088 C 96.9616 -3.74239 2.26415 0
M  V30 1089 C 96.0206 -4.88841 1.94733 0
M  V30 1090 O 95.0466 -5.02468 2.67422 0
M  V30 1091 N 96.2486 -5.73261 0.913884 0
M  V30 1092 H 99.0136 -1.90934 2.31007 0
M  V30 1093 H 96.5746 -0.915102 1.33557 0
M  V30 1094 H 98.5666 -3.96136 0.828147 0
M  V30 1095 H 97.1366 -3.12091 0.178361 0
M  V30 1096 H 96.3566 -2.91347 2.65539 0
M  V30 1097 H 97.6446 -4.05942 3.06738 0
M  V30 1098 H 97.0426 -5.64842 0.311476 0
M  V30 1099 H 95.5996 -6.47563 0.742015 0
M  V30 1100 N 99.0327 -1.24633 -0.964593 0
M  V30 1101 C 100.279 -1.08949 -1.71049 0
M  V30 1102 C 100.612 0.370302 -1.90637 0
M  V30 1103 O 99.8867 1.27349 -1.47011 0
M  V30 1104 C 100.17 -1.83329 -3.0994 0
M  V30 1105 C 100.023 -3.37077 -2.97824 0
M  V30 1106 C 101.342 -1.60846 -4.09654 0
M  V30 1107 H 98.4607 -0.397178 -0.620821 0
M  V30 1108 H 101.103 -1.5334 -1.12191 0
M  V30 1109 H 99.2527 -1.45597 -3.60186 0
M  V30 1110 H 100.925 -3.84425 -2.5498 0
M  V30 1111 H 99.1677 -3.65298 -2.33965 0
M  V30 1112 H 99.8387 -3.84324 -3.96231 0
M  V30 1113 H 102.315 -1.93674 -3.68279 0
M  V30 1114 H 101.191 -2.1534 -5.04896 0
M  V30 1115 H 101.452 -0.547434 -4.38698 0
M  V30 1116 N 100.511 1.16574 -1.06058 0
M  V30 1117 C 101.461 2.18854 -0.63929 0
M  V30 1118 C 102.445 1.57505 0.328798 0
M  V30 1119 O 103.637 1.76408 0.144623 0
M  V30 1120 C 100.766 3.43291 -0.0247203 0
M  V30 1121 C 99.8518 4.11722 -1.01716 0
M  V30 1122 N 100.243 4.55841 -2.19186 0
M  V30 1123 C 98.5408 4.37872 -0.847569 0
M  V30 1124 C 99.2418 5.08751 -2.82042 0
M  V30 1125 N 98.2178 5.01489 -2.09784 0
M  V30 1126 H 102.02 2.5068 -1.53417 0
M  V30 1127 H 99.5338 1.32999 -0.931935 0
M  V30 1128 H 101.531 4.15856 0.294915 0
M  V30 1129 H 100.191 3.12954 0.865448 0
M  V30 1130 H 101.202 4.49649 -2.56975 0
M  V30 1131 H 97.8788 4.17499 -0.00918848 0
M  V30 1132 H 99.2688 5.52944 -3.81709 0
M  V30 1133 N 101.989 0.842826 1.3317 0
M  V30 1134 C 103.236 0.440447 1.97652 0
M  V30 1135 C 103.564 -1.00123 1.6675 0
M  V30 1136 O 102.819 -1.7155 0.941761 0
M  V30 1137 C 103.118 0.612607 3.52111 0
M  V30 1138 C 102.784 2.02297 4.02972 0
M  V30 1139 C 101.446 2.40874 4.16573 0
M  V30 1140 C 103.798 2.94402 4.30089 0
M  V30 1141 C 101.126 3.70852 4.54627 0
M  V30 1142 C 103.478 4.23865 4.69597 0
M  V30 1143 C 102.142 4.62392 4.81404 0
M  V30 1144 H 101.412 0.161171 0.72326 0
M  V30 1145 H 104.059 1.07061 1.58777 0
M  V30 1146 H 102.364 -0.100849 3.9167 0
M  V30 1147 H 104.061 0.2815 4.00011 0
M  V30 1148 H 100.651 1.71338 3.92863 0
M  V30 1149 H 104.835 2.65835 4.19101 0
M  V30 1150 H 100.091 4.00501 4.61962 0
M  V30 1151 H 104.265 4.95306 4.89536 0
M  V30 1152 H 101.892 5.63154 5.10648 0
M  V30 1153 N 103.467 -1.45747 0.599634 0
M  V30 1154 C 104.714 -2.02292 0.0917284 0
M  V30 1155 C 105.042 -1.46906 -1.27472 0
M  V30 1156 O 104.297 -0.630652 -1.8526 0
M  V30 1157 C 104.596 -3.57399 -0.00602758 0
M  V30 1158 C 104.262 -4.31902 1.29503 0
M  V30 1159 C 102.924 -4.51974 1.65144 0
M  V30 1160 C 105.276 -4.74551 2.15525 0
M  V30 1161 C 102.604 -5.11949 2.86574 0
M  V30 1162 C 104.956 -5.35868 3.36196 0
M  V30 1163 C 103.62 -5.54165 3.72099 0
M  V30 1164 H 102.89 -0.740239 0.0335658 0
M  V30 1165 H 105.537 -1.7491 0.779661 0
M  V30 1166 H 103.842 -3.84014 -0.777183 0
M  V30 1167 H 105.539 -3.98846 -0.415038 0
M  V30 1168 H 102.129 -4.16588 1.00761 0
M  V30 1169 H 106.313 -4.58784 1.8929 0
M  V30 1170 H 101.569 -5.24305 3.14507 0
M  V30 1171 H 105.743 -5.6787 4.03109 0
M  V30 1172 H 103.37 -6.00406 4.6628 0
M  V30 1173 N 104.945 -0.338344 -1.53925 0
M  V30 1174 C 106.191 0.260143 -2.01125 0
M  V30 1175 C 106.524 1.50617 -1.22589 0
M  V30 1176 O 105.799 1.91979 -0.312113 0
M  V30 1177 C 106.082 0.579499 -3.55407 0
M  V30 1178 C 105.935 -0.678264 -4.44657 0
M  V30 1179 C 107.254 1.39122 -4.17532 0
M  V30 1180 H 104.373 0.0930772 -0.731099 0
M  V30 1181 H 107.015 -0.457852 -1.84401 0
M  V30 1182 H 105.165 1.19118 -3.69788 0
M  V30 1183 H 106.837 -1.31631 -4.42121 0
M  V30 1184 H 105.08 -1.3042 -4.13731 0
M  V30 1185 H 105.751 -0.410143 -5.50474 0
M  V30 1186 H 108.227 0.874035 -4.06817 0
M  V30 1187 H 107.103 1.58342 -5.25565 0
M  V30 1188 H 107.364 2.39178 -3.71815 0
M  V30 1189 N 106.423 1.57458 -0.0668435 0
M  V30 1190 C 107.371 2.13639 0.919851 0
M  V30 1191 C 108.365 1.07204 1.31163 0
M  V30 1192 O 109.571 1.25591 1.28945 0
M  V30 1193 H 105.946 0.683048 0.314562 0
M  V30 1194 H 107.917 2.95415 0.421047 0
M  V30 1195 C 106.666 2.70892 2.17975 0
M  V30 1196 H 105.989 3.5246 1.88711 0
M  V30 1197 H 107.429 3.13803 2.85138 0
M  V30 1198 C 105.888 1.65414 2.93496 0
M  V30 1199 O 106.418 1.07619 3.87015 0
M  V30 1200 N 104.624 1.36564 2.56512 0
M  V30 1201 H 104.171 1.83751 1.80536 0
M  V30 1202 H 104.129 0.66223 3.07347 0
M  V30 1203 N 107.901 -0.206675 1.56239 0
M  V30 1204 C 108.864 -1.23976 1.92776 0
M  V30 1205 C 109.864 -1.39041 0.807729 0
M  V30 1206 O 111.054 -1.37051 1.0753 0
M  V30 1207 C 108.186 -2.61112 2.19165 0
M  V30 1208 H 109.379 -0.927764 2.85189 0
M  V30 1209 H 106.932 -0.447718 1.4975 0
M  V30 1210 H 107.667 -2.97386 1.29352 0
M  V30 1211 H 107.452 -2.51552 3.00772 0
M  V30 1212 H 108.942 -3.35633 2.48476 0
M  V30 1213 N 109.379 -1.50304 -0.473955 0
M  V30 1214 C 110.604 -1.65175 -1.25427 0
M  V30 1215 C 111.029 -0.333673 -1.85117 0
M  V30 1216 O 110.387 0.702114 -1.67153 0
M  V30 1217 C 110.435 -2.74295 -2.34082 0
M  V30 1218 O 109.539 -2.35349 -3.38651 0
M  V30 1219 H 108.88 -0.551944 -0.369126 0
M  V30 1220 H 111.41 -1.96662 -0.564364 0
M  V30 1221 H 111.42 -2.97285 -2.79438 0
M  V30 1222 H 110.095 -3.69959 -1.90008 0
M  V30 1223 H 108.672 -2.22794 -2.99027 0
M  V30 1224 N 110.857 0.726932 -1.39834 0
M  V30 1225 C 112.134 1.47902 -1.28001 0
M  V30 1226 C 112.514 2.1083 0.106789 0
M  V30 1227 O 111.862 1.99242 1.11869 0
M  V30 1228 C 112.072 2.52392 -2.41038 0
M  V30 1229 C 113.42 3.18546 -2.80737 0
M  V30 1230 O 114.444 2.62708 -2.40547 0
M  V30 1231 O 113.303 4.19604 -3.50135 0
M  V30 1232 H 110.397 0.657163 -0.502062 0
M  V30 1233 H 112.943 0.760071 -1.51727 0
M  V30 1234 H 111.715 2.04329 -3.33715 0
M  V30 1235 H 111.338 3.31837 -2.19021 0
M  V30 1236 N 112.336 1.25143 0.95797 0
M  V30 1237 C 113.582 1.09855 1.70469 0
M  V30 1238 C 113.915 -0.360187 1.90831 0
M  V30 1239 O 113.19 -1.26568 1.47685 0
M  V30 1240 C 113.473 1.8497 3.08963 0
M  V30 1241 C 113.326 3.38652 2.96032 0
M  V30 1242 C 114.645 1.63016 4.08795 0
M  V30 1243 H 111.764 0.400465 0.618706 0
M  V30 1244 H 114.406 1.53933 1.11376 0
M  V30 1245 H 112.556 1.47505 3.59409 0
M  V30 1246 H 114.228 3.85772 2.52938 0
M  V30 1247 H 112.471 3.66534 2.32025 0
M  V30 1248 H 113.142 3.8642 3.94187 0
M  V30 1249 H 115.618 1.95625 3.67247 0
M  V30 1250 H 114.494 2.18015 5.03747 0
M  V30 1251 H 114.755 0.570692 4.38401 0
M  V30 1252 N 113.814 -1.1601 1.06675 0
M  V30 1253 C 115.091 -1.82679 0.699114 0
M  V30 1254 C 115.471 -1.94559 -0.819137 0
M  V30 1255 O 114.819 -1.49169 -1.73092 0
M  V30 1256 C 115.029 -3.19445 1.40555 0
M  V30 1257 C 116.377 -3.95171 1.55323 0
M  V30 1258 O 117.401 -3.28976 1.36577 0
M  V30 1259 O 116.26 -5.13833 1.86112 0
M  V30 1260 H 113.354 -0.788954 0.247951 0
M  V30 1261 H 115.9 -1.23179 1.16726 0
M  V30 1262 H 114.672 -3.05856 2.44065 0
M  V30 1263 H 114.295 -3.86625 0.927733 0
M  V30 1264 N 115.292 -0.849877 -1.32721 0
M  V30 1265 C 116.24 -0.279745 -2.30912 0
M  V30 1266 C 117.234 0.594278 -1.58634 0
M  V30 1267 O 118.44 0.482613 -1.73409 0
M  V30 1268 H 114.815 -0.0717521 -0.748569 0
M  V30 1269 H 116.786 -1.12222 -2.76494 0
M  V30 1270 C 115.535 0.521108 -3.43773 0
M  V30 1271 H 114.858 -0.142141 -3.99547 0
M  V30 1272 H 116.298 0.885693 -4.14646 0
M  V30 1273 C 114.757 1.70442 -2.90605 0
M  V30 1274 O 115.287 2.8034 -2.87702 0
M  V30 1275 N 113.493 1.52991 -2.47067 0
M  V30 1276 H 113.04 0.635914 -2.49628 0
M  V30 1277 H 112.998 2.32311 -2.11847 0
M  V30 1278 N 116.77 1.45427 -0.607355 0
M  V30 1279 C 118.016 2.0254 -0.102607 0
M  V30 1280 C 118.349 1.47478 1.26348 0
M  V30 1281 O 117.624 0.64939 1.83339 0
M  V30 1282 C 117.907 3.60044 -0.0634347 0
M  V30 1283 C 117.76 4.2544 -1.46017 0
M  V30 1284 C 119.079 4.35646 0.624514 0
M  V30 1285 H 116.198 0.73598 -0.0387607 0
M  V30 1286 H 118.84 1.73284 -0.779282 0
M  V30 1287 H 116.99 3.85101 0.512808 0
M  V30 1288 H 118.662 4.11569 -2.08347 0
M  V30 1289 H 116.905 3.83849 -2.02094 0
M  V30 1290 H 117.576 5.34342 -1.385 0
M  V30 1291 H 120.052 4.15882 0.134723 0
M  V30 1292 H 118.928 5.45376 0.621028 0
M  V30 1293 H 119.189 4.08501 1.69055 0
M  V30 1294 N 118.248 0.346503 1.53744 0
M  V30 1295 C 119.195 -0.508914 2.25119 0
M  V30 1296 C 120.165 -1.09315 1.25058 0
M  V30 1297 O 121.35 -1.12921 1.53797 0
M  V30 1298 C 118.49 -1.65246 3.02965 0
M  V30 1299 C 117.603 -1.09525 4.17886 0
M  V30 1300 C 116.738 -2.20634 4.83212 0
M  V30 1301 C 115.777 -1.62279 5.90196 0
M  V30 1302 N 114.914 -2.67143 6.49291 0
M  V30 1303 H 119.754 0.106283 2.9781 0
M  V30 1304 H 117.291 0.0642227 1.4696 0
M  V30 1305 H 119.249 -2.32574 3.4636 0
M  V30 1306 H 117.879 -2.2386 2.32565 0
M  V30 1307 H 116.931 -0.312818 3.79112 0
M  V30 1308 H 118.243 -0.628444 4.94825 0
M  V30 1309 H 117.397 -2.95821 5.29693 0
M  V30 1310 H 116.136 -2.70659 4.05703 0
M  V30 1311 H 115.141 -0.855989 5.43096 0
M  V30 1312 H 116.366 -1.13102 6.69615 0
M  V30 1313 H 114.312 -3.16417 5.74645 0
M  V30 1314 H 114.229 -2.25093 7.21713 0
M  V30 1315 H 115.497 -3.4209 7.00425 0
M  V30 1316 N 119.726 -1.57421 0.075193 0
M  V30 1317 C 120.689 -2.11791 -0.876203 0
M  V30 1318 C 121.689 -1.04268 -1.22412 0
M  V30 1319 O 122.879 -1.30242 -1.15684 0
M  V30 1320 C 120.011 -2.62207 -2.17854 0
M  V30 1321 H 121.204 -2.9716 -0.40444 0
M  V30 1322 H 118.757 -1.55333 -0.173557 0
M  V30 1323 H 119.492 -1.803 -2.6956 0
M  V30 1324 H 119.277 -3.40802 -1.93897 0
M  V30 1325 H 120.767 -3.04335 -2.85955 0
M  V30 1326 N 121.204 0.198386 -1.56346 0
M  V30 1327 C 122.154 1.2499 -1.90687 0
M  V30 1328 C 123.138 1.41158 -0.772217 0
M  V30 1329 O 124.33 1.43584 -1.03502 0
M  V30 1330 C 121.459 2.59542 -2.24706 0
M  V30 1331 C 120.545 2.47181 -3.44619 0
M  V30 1332 N 120.936 2.04495 -4.62618 0
M  V30 1333 C 119.234 2.78082 -3.48692 0
M  V30 1334 C 119.935 2.03945 -5.44776 0
M  V30 1335 N 118.911 2.45323 -4.85095 0
M  V30 1336 H 122.713 0.911149 -2.7942 0
M  V30 1337 H 120.227 0.40684 -1.57221 0
M  V30 1338 H 122.224 3.3549 -2.47491 0
M  V30 1339 H 120.884 2.94244 -1.37298 0
M  V30 1340 H 121.895 1.75256 -4.87345 0
M  V30 1341 H 118.572 3.17002 -2.71691 0
M  V30 1342 H 119.962 1.72872 -6.4928 0
M  V30 1343 N 122.682 1.50554 0.465978 0
M  V30 1344 C 123.612 1.72722 1.57128 0
M  V30 1345 C 124.593 0.576294 1.6004 0
M  V30 1346 O 125.778 0.81598 1.76225 0
M  V30 1347 C 122.908 1.82605 2.95419 0
M  V30 1348 C 121.862 2.97835 3.07373 0
M  V30 1349 C 121.188 2.92867 4.47363 0
M  V30 1350 C 122.488 4.38265 2.84114 0
M  V30 1351 H 124.182 2.65267 1.38829 0
M  V30 1352 H 121.728 1.2765 0.666441 0
M  V30 1353 H 123.681 1.96698 3.72677 0
M  V30 1354 H 122.405 0.866858 3.14886 0
M  V30 1355 H 121.064 2.83401 2.3255 0
M  V30 1356 H 120.712 1.94783 4.63755 0
M  V30 1357 H 120.412 3.70227 4.56296 0
M  V30 1358 H 121.936 3.09015 5.26633 0
M  V30 1359 H 123.35 4.53198 3.51118 0
M  V30 1360 H 121.747 5.17115 3.04487 0
M  V30 1361 H 122.817 4.50281 1.7993 0
M  V30 1362 N 124.16 -0.719506 1.40217 0
M  V30 1363 C 125.108 -1.85493 1.40339 0
M  V30 1364 C 126.102 -1.66995 0.284415 0
M  V30 1365 O 127.308 -1.74148 0.455252 0
M  V30 1366 H 123.683 -0.610857 0.438586 0
M  V30 1367 H 125.654 -1.82506 2.36081 0
M  V30 1368 C 124.403 -3.23321 1.27901 0
M  V30 1369 H 123.726 -3.38159 2.1328 0
M  V30 1370 H 125.166 -4.02914 1.32045 0
M  V30 1371 C 123.625 -3.36898 -0.0111355 0
M  V30 1372 O 124.155 -3.89674 -0.975538 0
M  V30 1373 N 122.361 -2.90492 -0.0793393 0
M  V30 1374 H 121.908 -2.47731 0.706183 0
M  V30 1375 H 121.866 -2.99955 -0.942038 0
M  V30 1376 N 125.638 -1.25649 -0.95132 0
M  V30 1377 C 126.884 -1.10757 -1.69884 0
M  V30 1378 C 127.217 0.350061 -1.91019 0
M  V30 1379 O 126.492 1.25783 -1.48354 0
M  V30 1380 C 126.775 -1.86606 -3.07978 0
M  V30 1381 C 126.628 -3.40217 -2.94232 0
M  V30 1382 C 127.947 -1.65182 -4.07925 0
M  V30 1383 H 125.066 -0.40374 -0.616574 0
M  V30 1384 H 127.708 -1.54521 -1.10558 0
M  V30 1385 H 125.858 -1.49409 -3.58621 0
M  V30 1386 H 127.53 -3.87108 -2.50889 0
M  V30 1387 H 125.773 -3.67759 -2.30078 0
M  V30 1388 H 126.444 -3.88505 -3.92133 0
M  V30 1389 H 128.92 -1.9757 -3.66204 0
M  V30 1390 H 127.796 -2.20683 -5.02583 0
M  V30 1391 H 128.057 -0.593933 -4.38092 0
M  V30 1392 N 127.117 1.15442 -1.07289 0
M  V30 1393 C 128.342 1.90638 -0.816828 0
M  V30 1394 C 128.767 1.77445 0.624083 0
M  V30 1395 O 128.125 1.10671 1.43602 0
M  V30 1396 C 128.173 3.39008 -1.22906 0
M  V30 1397 O 127.277 4.10701 -0.373975 0
M  V30 1398 H 126.618 0.593555 -0.297638 0
M  V30 1399 H 129.148 1.46198 -1.43134 0
M  V30 1400 H 129.158 3.89801 -1.20497 0
M  V30 1401 H 127.833 3.47929 -2.27856 0
M  V30 1402 H 126.41 3.70046 -0.460499 0
M  V30 1403 N 128.595 0.856903 1.32268 0
M  V30 1404 C 129.843 0.460474 1.96784 0
M  V30 1405 C 130.164 -0.987701 1.68135 0
M  V30 1406 O 129.434 -1.69058 0.989765 0
M  V30 1407 H 128.014 0.167289 0.728027 0
M  V30 1408 H 130.676 1.09383 1.61312 0
M  V30 1409 H 129.772 0.60739 3.06133 0
M  V30 1410 N 130.073 -1.45103 0.615059 0
M  V30 1411 C 131.322 -2.01396 0.110718 0
M  V30 1412 C 131.635 -1.48834 -1.26916 0
M  V30 1413 O 132.841 -1.97152 -1.86664 0
M  V30 1414 C 131.297 -3.59599 0.14723 0
M  V30 1415 C 130.905 -4.21158 1.52743 0
M  V30 1416 C 132.649 -4.23428 -0.30148 0
M  V30 1417 C 130.556 -5.71535 1.51992 0
M  V30 1418 H 129.486 -0.753061 0.0376241 0
M  V30 1419 H 132.137 -1.66494 0.77149 0
M  V30 1420 H 130.519 -3.91724 -0.580339 0
M  V30 1421 H 131.693 -4.00594 2.2773 0
M  V30 1422 H 130.008 -3.69552 1.91886 0
M  V30 1423 H 132.605 -5.33703 -0.326392 0
M  V30 1424 H 132.948 -3.94629 -1.32565 0
M  V30 1425 H 133.481 -3.96047 0.373065 0
M  V30 1426 H 130.22 -6.05044 2.52193 0
M  V30 1427 H 129.74 -5.94268 0.81274 0
M  V30 1428 H 131.419 -6.34873 1.24681 0
M  V30 1429 N 131.551 -0.354651 -1.53558 0
M  V30 1430 C 132.962 0.126902 -1.86268 0
M  V30 1431 C 133.313 1.49075 -1.27558 0
M  V30 1432 O 132.438 2.08105 -0.5934 0
M  V30 1433 C 133.033 0.237046 -3.3797 0
M  V30 1434 C 131.592 0.662842 -3.70518 0
M  V30 1435 C 130.739 -0.196652 -2.76602 0
M  V30 1436 H 133.69 -0.573849 -1.47962 0
M  V30 1437 H 133.711 1.06259 -3.65362 0
M  V30 1438 H 133.223 -0.755725 -3.80671 0
M  V30 1439 H 131.324 1.66424 -3.33367 0
M  V30 1440 H 131.437 0.445034 -4.77029 0
M  V30 1441 H 129.801 0.332763 -2.52517 0
M  V30 1442 H 130.584 -1.18676 -3.22135 0
M  V30 1443 N 133.029 1.57378 -0.0835403 0
M  V30 1444 C 134.269 1.95808 0.586381 0
M  V30 1445 C 134.633 0.963706 1.66062 0
M  V30 1446 O 135.834 1.23608 2.38693 0
M  V30 1447 C 134.105 3.38808 1.13771 0
M  V30 1448 S 135.664 3.99225 1.82112 0
M  V30 1449 H 132.482 0.684675 0.191679 0
M  V30 1450 H 135.084 1.94843 -0.160194 0
M  V30 1451 H 133.788 4.08954 0.344197 0
M  V30 1452 H 133.319 3.43344 1.92038 0
M  V30 1453 H 135.334 3.87087 3.10449 0
M  V30 1454 N 134.507 -0.190092 1.56449 0
M  V30 1455 C 135.732 -0.929864 1.85387 0
M  V30 1456 C 136.157 -1.7585 0.667704 0
M  V30 1457 O 135.515 -1.77198 -0.383459 0
M  V30 1458 C 135.563 -1.79773 3.12593 0
M  V30 1459 O 134.667 -2.89713 2.93496 0
M  V30 1460 H 134.008 -0.261574 0.610307 0
M  V30 1461 H 136.538 -0.193896 2.03679 0
M  V30 1462 H 136.548 -2.20139 3.43515 0
M  V30 1463 H 135.223 -1.18892 3.98544 0
M  V30 1464 H 133.8 -2.53065 2.73884 0
M  V30 1465 N 135.985 -1.50799 -0.457987 0
M  V30 1466 C 137.231 -1.62683 -1.21088 0
M  V30 1467 C 137.564 -0.332268 -1.91336 0
M  V30 1468 O 136.839 0.667043 -1.82704 0
M  V30 1469 C 137.122 -2.81615 -2.24422 0
M  V30 1470 C 136.975 -4.20989 -1.58392 0
M  V30 1471 C 138.294 -2.96085 -3.2561 0
M  V30 1472 H 135.413 -0.592087 -0.438864 0
M  V30 1473 H 138.055 -1.83225 -0.50286 0
M  V30 1474 H 136.205 -2.64231 -2.84806 0
M  V30 1475 H 137.877 -4.49994 -1.01504 0
M  V30 1476 H 136.12 -4.24641 -0.886704 0
M  V30 1477 H 136.791 -5.0016 -2.33547 0
M  V30 1478 H 139.267 -3.12042 -2.75262 0
M  V30 1479 H 138.143 -3.80902 -3.95228 0
M  V30 1480 H 138.404 -2.0726 -3.90507 0
M  V30 1481 N 137.463 0.71206 -1.40597 0
M  V30 1482 C 138.393 1.83889 -1.43899 0
M  V30 1483 C 139.374 1.67442 -0.299504 0
M  V30 1484 O 140.559 1.87421 -0.508624 0
M  V30 1485 C 137.689 3.21877 -1.30431 0
M  V30 1486 C 136.643 3.53002 -2.42019 0
M  V30 1487 C 135.969 4.90172 -2.13626 0
M  V30 1488 C 137.269 3.53643 -3.84362 0
M  V30 1489 H 138.963 1.81383 -2.38203 0
M  V30 1490 H 136.509 0.871237 -1.14654 0
M  V30 1491 H 138.462 4.00404 -1.31357 0
M  V30 1492 H 137.186 3.24968 -0.326049 0
M  V30 1493 H 135.845 2.76818 -2.40349 0
M  V30 1494 H 135.493 4.89869 -1.14182 0
M  V30 1495 H 135.193 5.11962 -2.88389 0
M  V30 1496 H 136.717 5.71028 -2.1624 0
M  V30 1497 H 138.131 4.22203 -3.87837 0
M  V30 1498 H 136.528 3.86961 -4.58673 0
M  V30 1499 H 137.598 2.52954 -4.13693 0
M  V30 1500 N 138.941 1.26152 0.944643 0
M  V30 1501 C 139.871 1.09902 2.06019 0
M  V30 1502 C 140.852 0.00519538 1.70099 0
M  V30 1503 O 142.037 0.176583 1.93396 0
M  V30 1504 C 139.167 0.727562 3.39594 0
M  V30 1505 C 138.121 1.77274 3.89561 0
M  V30 1506 C 137.447 1.25569 5.19747 0
M  V30 1507 C 138.747 3.17357 4.14827 0
M  V30 1508 H 140.441 2.03217 2.19871 0
M  V30 1509 H 137.987 0.978452 1.05652 0
M  V30 1510 H 139.94 0.600777 4.17095 0
M  V30 1511 H 138.664 -0.241287 3.25707 0
M  V30 1512 H 137.323 1.88814 3.14237 0
M  V30 1513 H 136.971 0.276783 5.02238 0
M  V30 1514 H 136.671 1.95433 5.54148 0
M  V30 1515 H 138.195 1.1415 5.99835 0
M  V30 1516 H 139.609 3.08914 4.82954 0
M  V30 1517 H 138.006 3.84781 4.60504 0
M  V30 1518 H 139.076 3.63673 3.20734 0
M  V30 1519 N 140.419 -1.14872 1.07899 0
M  V30 1520 C 141.382 -2.17986 0.708161 0
M  V30 1521 C 142.382 -1.58775 -0.25442 0
M  V30 1522 O 143.572 -1.74166 -0.034645 0
M  V30 1523 C 140.704 -3.40871 0.0446929 0
M  V30 1524 H 141.897 -2.52306 1.62116 0
M  V30 1525 H 139.45 -1.2943 0.876218 0
M  V30 1526 H 140.185 -3.12124 -0.880281 0
M  V30 1527 H 139.97 -3.8511 0.737091 0
M  V30 1528 H 141.46 -4.17121 -0.19991 0
M  V30 1529 N 141.898 -0.863906 -1.31812 0
M  V30 1530 C 143.175 -0.39275 -1.91616 0
M  V30 1531 C 143.555 1.12461 -1.7865 0
M  V30 1532 O 142.903 1.95045 -1.19037 0
M  V30 1533 C 143.113 -0.867385 -3.38049 0
M  V30 1534 C 144.461 -0.889966 -4.15168 0
M  V30 1535 O 145.485 -0.812635 -3.46806 0
M  V30 1536 O 144.344 -1.00079 -5.37258 0
M  V30 1537 H 141.438 -0.116358 -0.818773 0
M  V30 1538 H 143.984 -0.951418 -1.40521 0
M  V30 1539 H 142.756 -1.91081 -3.41473 0
M  V30 1540 H 142.379 -0.286687 -3.96565 0
M  V30 1541 N 143.376 1.44774 -0.622745 0
M  V30 1542 C 144.622 2.0242 -0.124083 0
M  V30 1543 C 144.955 1.4881 1.24777 0
M  V30 1544 O 144.23 0.668799 1.8264 0
M  V30 1545 C 144.513 3.59957 -0.101619 0
M  V30 1546 C 144.366 4.23867 -1.50521 0
M  V30 1547 C 145.685 4.36284 0.578272 0
M  V30 1548 H 142.804 0.735528 -0.0465645 0
M  V30 1549 H 145.446 1.72447 -0.797617 0
M  V30 1550 H 143.596 3.85623 0.471934 0
M  V30 1551 H 145.268 4.09336 -2.12701 0
M  V30 1552 H 143.511 3.81684 -2.06154 0
M  V30 1553 H 144.182 5.32843 -1.4416 0
M  V30 1554 H 146.658 4.16001 0.0906057 0
M  V30 1555 H 145.534 5.46004 0.563149 0
M  V30 1556 H 145.795 4.10271 1.64713 0
M  V30 1557 N 144.854 0.36279 1.53368 0
M  V30 1558 C 145.764 -0.492994 2.29362 0
M  V30 1559 C 146.78 -1.09507 1.35219 0
M  V30 1560 O 147.956 -1.10662 1.68273 0
M  V30 1561 C 145.021 -1.61855 3.066 0
M  V30 1562 C 144.082 -1.04429 4.16405 0
M  V30 1563 C 143.315 -2.11621 4.89951 0
M  V30 1564 O 143.538 -3.32684 4.63333 0
M  V30 1565 O 142.472 -1.74835 5.75948 0
M  V30 1566 H 146.298 0.125331 3.03441 0
M  V30 1567 H 143.883 0.127253 1.48857 0
M  V30 1568 H 145.765 -2.27302 3.54841 0
M  V30 1569 H 144.44 -2.22233 2.3536 0
M  V30 1570 H 143.347 -0.353819 3.72423 0
M  V30 1571 H 144.68 -0.485113 4.89804 0
M  V30 1572 N 146.332 -1.57332 0.0918853 0
M  V30 1573 C 147.609 -1.85691 -0.614668 0
M  V30 1574 C 147.989 -0.988146 -1.86545 0
M  V30 1575 O 147.337 -0.0597055 -2.28422 0
M  V30 1576 C 147.547 -3.36294 -0.933126 0
M  V30 1577 C 148.895 -4.04275 -1.29796 0
M  V30 1578 O 149.919 -3.41157 -1.02424 0
M  V30 1579 O 148.778 -5.1564 -1.81047 0
M  V30 1580 H 145.872 -0.767802 -0.307261 0
M  V30 1581 H 148.418 -1.69244 0.12434 0
M  V30 1582 H 147.19 -3.91273 -0.0456404 0
M  V30 1583 H 146.813 -3.58076 -1.72822 0
M  V30 1584 N 147.81 0.181792 -1.56548 0
M  V30 1585 C 148.74 1.22765 -1.98623 0
M  V30 1586 C 149.721 1.46747 -0.860189 0
M  V30 1587 O 150.906 1.58259 -1.12551 0
M  V30 1588 C 148.036 2.56894 -2.33715 0
M  V30 1589 C 146.99 2.475 -3.49182 0
M  V30 1590 C 146.316 3.86023 -3.69986 0
M  V30 1591 C 147.616 1.98866 -4.82959 0
M  V30 1592 H 149.31 0.877942 -2.86239 0
M  V30 1593 H 146.856 0.42088 -1.37712 0
M  V30 1594 H 148.809 3.30253 -2.61746 0
M  V30 1595 H 147.533 2.93632 -1.42997 0
M  V30 1596 H 146.192 1.76596 -3.21262 0
M  V30 1597 H 145.84 4.20136 -2.76576 0
M  V30 1598 H 145.54 3.80609 -4.47672 0
M  V30 1599 H 147.064 4.60984 -4.00407 0
M  V30 1600 H 148.478 2.61992 -5.09934 0
M  V30 1601 H 146.875 2.04424 -5.64208 0
M  V30 1602 H 147.945 0.942465 -4.75653 0
M  V30 1603 N 149.288 1.51039 0.449983 0
M  V30 1604 C 150.537 1.62317 1.19733 0
M  V30 1605 C 150.85 0.339101 1.92638 0
M  V30 1606 O 152.056 0.331069 2.69474 0
M  V30 1607 C 150.512 2.86608 2.17678 0
M  V30 1608 C 150.12 4.21972 1.50479 0
M  V30 1609 C 151.864 3.07239 2.92924 0
M  V30 1610 C 149.771 5.37426 2.46834 0
M  V30 1611 H 148.701 0.604532 0.450619 0
M  V30 1612 H 151.352 1.77494 0.465625 0
M  V30 1613 H 149.734 2.65037 2.94231 0
M  V30 1614 H 150.908 4.53878 0.795716 0
M  V30 1615 H 149.223 4.07117 0.874344 0
M  V30 1616 H 151.82 3.90668 3.65079 0
M  V30 1617 H 152.163 2.19807 3.5354 0
M  V30 1618 H 152.696 3.29091 2.23481 0
M  V30 1619 H 149.435 6.27079 1.90926 0
M  V30 1620 H 148.955 5.09912 3.15832 0
M  V30 1621 H 150.634 5.68862 3.08228 0
M  V30 1622 N 150.766 -0.704594 1.40972 0
M  V30 1623 C 151.698 -1.82974 1.38033 0
M  V30 1624 C 152.711 -1.60305 0.283931 0
M  V30 1625 O 153.9 -1.69975 0.545042 0
M  V30 1626 C 151 -3.19578 1.12795 0
M  V30 1627 C 150.173 -3.69352 2.34302 0
M  V30 1628 C 149.232 -4.84601 2.05058 0
M  V30 1629 O 148.258 -4.96682 2.7802 0
M  V30 1630 N 149.46 -5.71194 1.03528 0
M  V30 1631 H 152.225 -1.85991 2.35005 0
M  V30 1632 H 149.786 -0.886567 1.35468 0
M  V30 1633 H 151.778 -3.9429 0.911987 0
M  V30 1634 H 150.348 -3.11642 0.24452 0
M  V30 1635 H 149.568 -2.85649 2.71659 0
M  V30 1636 H 150.856 -3.99345 3.1528 0
M  V30 1637 H 150.254 -5.64054 0.431217 0
M  V30 1638 H 148.811 -6.45843 0.879205 0
M  V30 1639 N 152.244 -1.26651 -0.937939 0
M  V30 1640 C 153.176 -1.04283 -2.04102 0
M  V30 1641 C 154.189 -0.00221014 -1.628 0
M  V30 1642 O 155.378 -0.242645 -1.76843 0
M  V30 1643 C 152.478 -0.557846 -3.34277 0
M  V30 1644 C 151.651 -1.66843 -4.04329 0
M  V30 1645 C 150.71 -1.18095 -5.12777 0
M  V30 1646 O 149.736 -1.87865 -5.37304 0
M  V30 1647 N 150.938 -0.0311006 -5.80492 0
M  V30 1648 H 153.703 -1.9927 -2.23856 0
M  V30 1649 H 151.264 -1.1808 -1.10764 0
M  V30 1650 H 153.256 -0.215836 -4.04124 0
M  V30 1651 H 151.826 0.298523 -3.11171 0
M  V30 1652 H 151.046 -2.18123 -3.28353 0
M  V30 1653 H 152.334 -2.41408 -4.47883 0
M  V30 1654 H 151.732 0.551486 -5.63005 0
M  V30 1655 H 150.289 0.251809 -6.51313 0
M  V30 1656 N 153.722 1.14298 -1.08507 0
M  V30 1657 C 154.654 2.1907 -0.673859 0
M  V30 1658 C 155.667 1.60381 0.279577 0
M  V30 1659 O 156.856 1.78374 0.0670754 0
M  V30 1660 C 153.956 3.38888 0.0290979 0
M  V30 1661 C 153.129 4.27103 -0.943494 0
M  V30 1662 C 152.188 5.25477 -0.275676 0
M  V30 1663 O 151.214 5.61709 -0.920401 0
M  V30 1664 N 152.416 5.7227 0.974013 0
M  V30 1665 H 155.181 2.54965 -1.57521 0
M  V30 1666 H 152.742 1.29528 -0.971287 0
M  V30 1667 H 154.734 4.01761 0.48683 0
M  V30 1668 H 153.304 3.01309 0.832555 0
M  V30 1669 H 152.524 3.61149 -1.58004 0
M  V30 1670 H 153.812 4.82905 -1.60251 0
M  V30 1671 H 153.21 5.44965 1.51755 0
M  V30 1672 H 151.767 6.37127 1.37522 0
M  V30 1673 N 155.201 0.870884 1.31352 0
M  V30 1674 C 156.45 0.478408 1.95944 0
M  V30 1675 C 156.763 -0.974493 1.69597 0
M  V30 1676 O 157.969 -1.47316 2.28058 0
M  V30 1677 C 156.425 0.804609 3.50791 0
M  V30 1678 C 156.033 2.27433 3.85977 0
M  V30 1679 C 157.777 0.480648 4.2177 0
M  V30 1680 C 155.684 2.5429 5.33939 0
M  V30 1681 H 154.614 0.175175 0.733369 0
M  V30 1682 H 157.265 1.06391 1.4951 0
M  V30 1683 H 155.647 0.148347 3.95722 0
M  V30 1684 H 156.821 2.97373 3.52002 0
M  V30 1685 H 155.136 2.56442 3.28065 0
M  V30 1686 H 157.733 0.658519 5.30629 0
M  V30 1687 H 158.076 -0.578979 4.12254 0
M  V30 1688 H 158.609 1.09349 3.82476 0
M  V30 1689 H 155.348 3.58939 5.48491 0
M  V30 1690 H 154.868 1.88945 5.69263 0
M  V30 1691 H 156.547 2.39066 6.01212 0
M  V30 1692 N 156.679 -1.44442 0.630414 0
M  V30 1693 C 157.904 -2.06927 0.139944 0
M  V30 1694 C 158.329 -1.46795 -1.17613 0
M  V30 1695 O 157.687 -0.569144 -1.72135 0
M  V30 1696 C 157.735 -3.6058 0.0379581 0
M  V30 1697 O 156.839 -3.99937 -1.0062 0
M  V30 1698 H 156.18 -0.658608 0.0844483 0
M  V30 1699 H 158.71 -1.85327 0.866891 0
M  V30 1700 H 158.72 -4.07714 -0.152856 0
M  V30 1701 H 157.395 -4.03728 0.998809 0
M  V30 1702 H 155.972 -3.64436 -0.79001 0
M  V30 1703 N 158.157 -0.370918 -1.53173 0
M  V30 1704 C 159.105 0.488101 -2.27421 0
M  V30 1705 C 160.099 1.07884 -1.30604 0
M  V30 1706 O 161.305 1.02143 -1.48212 0
M  V30 1707 H 157.68 0.176134 -0.731082 0
M  V30 1708 H 159.651 -0.159815 -2.97972 0
M  V30 1709 C 158.4 1.61306 -3.08019 0
M  V30 1710 H 157.723 1.1678 -3.82364 0
M  V30 1711 H 159.163 2.18872 -3.63141 0
M  V30 1712 C 157.622 2.55848 -2.19188 0
M  V30 1713 O 158.152 3.58799 -1.80626 0
M  V30 1714 N 156.358 2.2516 -1.83715 0
M  V30 1715 H 155.905 1.41476 -2.15273 0
M  V30 1716 H 155.863 2.8867 -1.24567 0
M  V30 1717 N 159.635 1.57281 -0.100228 0
M  V30 1718 C 160.912 1.86014 0.604812 0
M  V30 1719 C 161.292 0.998025 1.86018 0
M  V30 1720 O 160.64 0.0718184 2.28387 0
M  V30 1721 C 160.85 3.36784 0.915278 0
M  V30 1722 C 162.198 4.04957 1.27651 0
M  V30 1723 O 163.222 3.41695 1.00613 0
M  V30 1724 O 162.081 5.16593 1.7831 0
M  V30 1725 H 159.175 0.76942 0.303185 0
M  V30 1726 H 161.721 1.69176 -0.133313 0
M  V30 1727 H 160.493 3.91292 0.0248896 0
M  V30 1728 H 160.116 3.58987 1.70921 0
M  V30 1729 N 161.113 -0.173488 1.56642 0
M  V30 1730 C 162.341 -0.906095 1.86004 0
M  V30 1731 C 162.756 -1.75921 0.685355 0
M  V30 1732 O 162.113 -1.79198 -0.345578 0
M  V30 1733 C 162.164 -1.78462 3.14378 0
M  V30 1734 O 161.885 -0.965914 4.27319 0
M  V30 1735 C 163.386 -2.62707 3.57071 0
M  V30 1736 H 160.606 -0.263341 0.617165 0
M  V30 1737 H 163.15 -0.174236 2.03756 0
M  V30 1738 H 161.305 -2.46984 2.98459 0
M  V30 1739 H 161.719 -1.56655 5.00559 0
M  V30 1740 H 163.193 -3.19969 4.49804 0
M  V30 1741 H 163.67 -3.37472 2.81086 0
M  V30 1742 H 164.276 -1.99521 3.75595 0
M  V30 1743 N 162.591 -1.51276 -0.441967 0
M  V30 1744 C 163.837 -1.63958 -1.19355 0
M  V30 1745 C 164.17 -0.352543 -1.90973 0
M  V30 1746 O 163.445 0.647627 -1.83401 0
M  V30 1747 C 163.728 -2.83979 -2.21422 0
M  V30 1748 C 163.581 -4.22646 -1.53918 0
M  V30 1749 C 164.9 -2.99521 -3.22451 0
M  V30 1750 H 162.019 -0.596709 -0.432559 0
M  V30 1751 H 164.661 -1.83748 -0.483398 0
M  V30 1752 H 162.811 -2.67237 -2.81987 0
M  V30 1753 H 164.483 -4.51045 -0.967256 0
M  V30 1754 H 162.726 -4.25558 -0.841615 0
M  V30 1755 H 163.397 -5.02609 -2.28229 0
M  V30 1756 H 165.873 -3.14944 -2.71937 0
M  V30 1757 H 164.749 -3.85072 -3.91166 0
M  V30 1758 H 165.01 -2.11391 -3.88287 0
M  V30 1759 N 164.069 0.697108 -1.41344 0
M  V30 1760 C 165.294 1.49096 -1.44171 0
M  V30 1761 C 165.719 1.88038 -0.0481568 0
M  V30 1762 O 165.077 1.54525 0.948243 0
M  V30 1763 C 165.125 2.73088 -2.3549 0
M  V30 1764 O 164.229 3.70514 -1.81088 0
M  V30 1765 H 163.57 0.448801 -0.489361 0
M  V30 1766 H 166.1 0.856992 -1.85787 0
M  V30 1767 H 166.11 3.21413 -2.51312 0
M  V30 1768 H 164.785 2.44081 -3.36745 0
M  V30 1769 H 163.362 3.29441 -1.74708 0
M  V30 1770 N 165.547 1.27147 0.931209 0
M  V30 1771 C 166.958 1.12044 1.49342 0
M  V30 1772 C 167.309 -0.295795 1.93957 0
M  V30 1773 O 166.434 -1.18835 1.80852 0
M  V30 1774 C 167.029 2.02781 2.71414 0
M  V30 1775 C 165.588 1.91794 3.2387 0
M  V30 1776 C 164.735 1.95543 1.96617 0
M  V30 1777 H 167.686 1.40091 0.745672 0
M  V30 1778 H 167.707 1.58156 3.46074 0
M  V30 1779 H 167.219 3.05848 2.38911 0
M  V30 1780 H 165.32 0.916992 3.6114 0
M  V30 1781 H 165.433 2.77852 3.90302 0
M  V30 1782 H 163.797 1.39722 2.12955 0
M  V30 1783 H 164.58 3.00259 1.66432 0
M  V30 1784 N 167.025 -1.13721 1.09112 0
M  V30 1785 C 168.441 -1.36914 0.820174 0
M  V30 1786 C 168.641 -1.93356 -0.567079 0
M  V30 1787 O 167.697 -2.15093 -1.32255 0
M  V30 1788 C 169.01 -2.3235 1.90877 0
M  V30 1789 C 170.558 -2.45973 1.93562 0
M  V30 1790 C 171.033 -3.44714 3.01556 0
M  V30 1791 N 172.524 -3.52263 3.00775 0
M  V30 1792 C 173.259 -4.28536 3.80978 0
M  V30 1793 N 172.755 -5.07991 4.71081 0
M  V30 1794 N 174.548 -4.23804 3.69251 0
M  V30 1795 H 166.699 -0.754348 1.98553 0
M  V30 1796 H 168.962 -0.3944 0.862063 0
M  V30 1797 H 168.668 -1.98027 2.90651 0
M  V30 1798 H 168.542 -3.32332 1.78424 0
M  V30 1799 H 170.929 -2.79584 0.944286 0
M  V30 1800 H 171.01 -1.45926 2.10093 0
M  V30 1801 H 170.654 -3.11835 4.00901 0
M  V30 1802 H 170.584 -4.44558 2.82269 0
M  V30 1803 H 173.075 -2.95567 2.35475 0
M  V30 1804 H 173.388 -5.63487 5.28869 0
M  V30 1805 H 171.733 -5.07235 4.75119 0
M  V30 1806 H 174.924 -3.60806 2.98222 0
M  V30 1807 H 175.097 -4.82995 4.31995 0
M  V30 1808 N 168.503 -0.877838 -1.30888 0
M  V30 1809 C 169.466 -0.344265 -2.266 0
M  V30 1810 C 170.466 0.50922 -1.52524 0
M  V30 1811 O 171.656 0.317398 -1.71284 0
M  V30 1812 C 168.788 0.510198 -3.37061 0
M  V30 1813 H 169.981 -1.1893 -2.7531 0
M  V30 1814 H 167.534 -0.654088 -1.41956 0
M  V30 1815 H 168.269 1.37612 -2.93655 0
M  V30 1816 H 168.054 -0.101047 -3.9197 0
M  V30 1817 H 169.544 0.875537 -4.08319 0
M  V30 1818 N 169.982 1.44106 -0.638065 0
M  V30 1819 C 171.207 2.0685 -0.150916 0
M  V30 1820 C 171.632 1.47417 1.16833 0
M  V30 1821 O 170.99 0.578264 1.71831 0
M  V30 1822 C 171.038 3.60555 -0.05708 0
M  V30 1823 O 170.142 4.00465 0.984972 0
M  V30 1824 H 169.483 0.658151 -0.0879399 0
M  V30 1825 H 172.013 1.84865 -0.876707 0
M  V30 1826 H 172.023 4.07789 0.131232 0
M  V30 1827 H 170.698 4.03193 -1.02021 0
M  V30 1828 H 169.275 3.64849 0.770672 0
M  V30 1829 N 171.46 0.379036 1.52974 0
M  V30 1830 C 172.423 -0.448865 2.24762 0
M  V30 1831 C 173.423 -0.998689 1.26027 0
M  V30 1832 O 174.613 -0.882313 1.50203 0
M  V30 1833 C 171.745 -1.62872 2.99476 0
M  V30 1834 H 172.938 0.179491 2.99362 0
M  V30 1835 H 170.491 0.13096 1.5575 0
M  V30 1836 H 171.226 -2.29479 2.29151 0
M  V30 1837 H 171.011 -1.24128 3.71934 0
M  V30 1838 H 172.501 -2.2151 3.5401 0
M  V30 1839 N 172.938 -1.57226 0.108567 0
M  V30 1840 C 174.163 -1.99604 -0.563303 0
M  V30 1841 C 174.588 -0.987563 -1.6009 0
M  V30 1842 O 173.946 0.0421687 -1.81251 0
M  V30 1843 C 173.994 -3.40902 -1.17552 0
M  V30 1844 O 173.098 -3.42896 -2.2912 0
M  V30 1845 H 172.439 -0.648704 -0.1417 0
M  V30 1846 H 174.969 -2.03679 0.193961 0
M  V30 1847 H 174.979 -3.78886 -1.51357 0
M  V30 1848 H 173.654 -4.1382 -0.415445 0
M  V30 1849 H 172.231 -3.1672 -1.96832 0
M  V30 1850 N 174.416 0.165178 -1.56732 0
M  V30 1851 C 175.646 0.894919 -1.86212 0
M  V30 1852 C 176.054 1.76066 -0.692627 0
M  V30 1853 O 175.397 1.80387 0.347303 0
M  V30 1854 C 175.459 1.8174 -3.10179 0
M  V30 1855 C 175.123 1.13064 -4.42793 0
M  V30 1856 C 176.12 0.493169 -5.17556 0
M  V30 1857 C 173.805 1.12556 -4.89527 0
M  V30 1858 C 175.799 -0.140209 -6.37246 0
M  V30 1859 C 173.486 0.488366 -6.09145 0
M  V30 1860 C 174.484 -0.143411 -6.82849 0
M  V30 1861 O 174.172 -0.77055 -8.00199 0
M  V30 1862 H 173.904 0.265114 -0.621844 0
M  V30 1863 H 176.458 0.168242 -2.0471 0
M  V30 1864 H 174.688 2.58455 -2.87642 0
M  V30 1865 H 176.377 2.4175 -3.26055 0
M  V30 1866 H 177.143 0.489023 -4.82528 0
M  V30 1867 H 173.022 1.60672 -4.32094 0
M  V30 1868 H 176.566 -0.633932 -6.94714 0
M  V30 1869 H 172.463 0.490116 -6.43637 0
M  V30 1870 H 173.231 -0.670408 -8.1575 0
M  V30 1871 N 175.894 1.51508 0.433938 0
M  V30 1872 C 177.124 1.67914 1.20369 0
M  V30 1873 C 177.532 0.377461 1.85397 0
M  V30 1874 O 176.875 -0.654255 1.71654 0
M  V30 1875 C 176.937 2.74045 2.32679 0
M  V30 1876 C 176.601 4.16543 1.87991 0
M  V30 1877 C 177.598 5.01211 1.38145 0
M  V30 1878 C 175.283 4.6266 1.95579 0
M  V30 1879 C 177.277 6.30056 0.964774 0
M  V30 1880 C 174.964 5.91501 1.53523 0
M  V30 1881 C 175.962 6.75027 1.04055 0
M  V30 1882 O 175.65 8.01459 0.625964 0
M  V30 1883 H 175.382 0.566578 0.368735 0
M  V30 1884 H 177.936 1.98709 0.51999 0
M  V30 1885 H 176.166 2.38572 3.04336 0
M  V30 1886 H 177.855 2.79295 2.94532 0
M  V30 1887 H 178.621 4.66783 1.31675 0
M  V30 1888 H 174.5 3.97767 2.33029 0
M  V30 1889 H 178.044 6.95202 0.57796 0
M  V30 1890 H 173.941 6.25442 1.59665 0
M  V30 1891 H 174.709 8.15043 0.751509 0
M  V30 1892 N 177.372 -0.689602 1.41712 0
M  V30 1893 C 178.282 -1.83314 1.46401 0
M  V30 1894 C 179.298 -1.7036 0.35405 0
M  V30 1895 O 180.474 -1.92171 0.602692 0
M  V30 1896 C 177.539 -3.19344 1.34982 0
M  V30 1897 C 176.6 -3.44363 2.56344 0
M  V30 1898 C 175.833 -4.73904 2.45461 0
M  V30 1899 O 176.056 -5.508 1.48241 0
M  V30 1900 O 174.99 -4.99839 3.35328 0
M  V30 1901 H 178.816 -1.82314 2.42889 0
M  V30 1902 H 176.401 -0.843438 1.23315 0
M  V30 1903 H 178.283 -4.00547 1.3092 0
M  V30 1904 H 176.958 -3.21014 0.41612 0
M  V30 1905 H 175.865 -2.63067 2.65982 0
M  V30 1906 H 177.198 -3.47512 3.48563 0
M  V30 1907 N 178.85 -1.27639 -0.924453 0
M  V30 1908 C 179.782 -1.06442 -2.02985 0
M  V30 1909 C 180.795 -0.0194771 -1.62788 0
M  V30 1910 O 181.984 -0.261388 -1.76576 0
M  V30 1911 C 179.084 -0.59327 -3.33667 0
M  V30 1912 C 178.257 -1.71123 -4.02537 0
M  V30 1913 C 177.316 -1.23527 -5.11495 0
M  V30 1914 O 176.342 -1.93553 -5.35281 0
M  V30 1915 N 177.544 -0.0926678 -5.80426 0
M  V30 1916 H 180.309 -2.01633 -2.2173 0
M  V30 1917 H 177.87 -1.19248 -1.09505 0
M  V30 1918 H 179.862 -0.258686 -4.03872 0
M  V30 1919 H 178.432 0.265502 -3.1147 0
M  V30 1920 H 177.652 -2.21593 -3.26022 0
M  V30 1921 H 178.94 -2.46145 -4.45298 0
M  V30 1922 H 178.338 0.491741 -5.63559 0
M  V30 1923 H 176.895 0.182714 -6.51544 0
M  V30 1924 N 180.328 1.1314 -1.09713 0
M  V30 1925 C 181.558 1.88048 -0.855656 0
M  V30 1926 C 181.966 1.79537 0.596919 0
M  V30 1927 O 181.309 1.16196 1.42282 0
M  V30 1928 C 181.371 3.38314 -1.21589 0
M  V30 1929 C 181.035 3.70605 -2.67397 0
M  V30 1930 C 182.032 3.69596 -3.65643 0
M  V30 1931 C 179.717 4.0017 -3.03593 0
M  V30 1932 C 181.711 3.977 -4.9811 0
M  V30 1933 C 179.398 4.27935 -4.36251 0
M  V30 1934 C 180.396 4.26685 -5.33318 0
M  V30 1935 O 180.084 4.53767 -6.63589 0
M  V30 1936 H 179.816 0.60208 -0.307368 0
M  V30 1937 H 182.37 1.44128 -1.46343 0
M  V30 1938 H 180.6 3.82752 -0.551177 0
M  V30 1939 H 182.289 3.94552 -0.953083 0
M  V30 1940 H 183.055 3.46826 -3.39023 0
M  V30 1941 H 178.934 4.00289 -2.2867 0
M  V30 1942 H 182.478 3.9664 -5.73866 0
M  V30 1943 H 178.375 4.50178 -4.62613 0
M  V30 1944 H 179.143 4.71422 -6.69107 0
M  V30 1945 N 181.806 0.884767 1.30421 0
M  V30 1946 C 182.756 0.322846 2.25703 0
M  V30 1947 C 183.74 -0.548582 1.51259 0
M  V30 1948 O 184.932 -0.39304 1.72581 0
M  V30 1949 C 182.061 -0.461787 3.4018 0
M  V30 1950 C 181.147 0.423717 4.21978 0
M  V30 1951 N 181.538 1.52408 4.82292 0
M  V30 1952 C 179.836 0.218795 4.45463 0
M  V30 1953 C 180.537 2.07136 5.43571 0
M  V30 1954 N 179.513 1.36635 5.26148 0
M  V30 1955 H 183.315 1.16363 2.69883 0
M  V30 1956 H 180.829 0.73415 1.44859 0
M  V30 1957 H 182.826 -0.880985 4.07485 0
M  V30 1958 H 181.486 -1.30001 2.9754 0
M  V30 1959 H 182.497 1.90693 4.81515 0
M  V30 1960 H 179.174 -0.582275 4.1342 0
M  V30 1961 H 180.564 2.99538 6.01437 0
M  V30 1962 N 183.284 -1.43765 0.645699 0
M  V30 1963 C 184.509 -2.06767 0.161883 0
M  V30 1964 C 184.934 -1.48034 -1.16049 0
M  V30 1965 O 184.292 -0.587369 -1.71522 0
M  V30 1966 C 184.34 -3.60519 0.0762003 0
M  V30 1967 O 183.444 -4.00982 -0.963721 0
M  V30 1968 H 182.785 -0.657675 0.091429 0
M  V30 1969 H 185.315 -1.84397 0.886499 0
M  V30 1970 H 185.325 -4.07853 -0.109604 0
M  V30 1971 H 184 -4.02646 1.04157 0
M  V30 1972 H 182.577 -3.65253 -0.751312 0
M  V30 1973 N 184.763 -0.387143 -1.52771 0
M  V30 1974 C 185.693 0.440551 -2.29306 0
M  V30 1975 C 186.674 1.06535 -1.32606 0
M  V30 1976 O 187.859 1.07853 -1.61497 0
M  V30 1977 C 184.989 1.56919 -3.09829 0
M  V30 1978 C 183.943 1.07054 -4.14395 0
M  V30 1979 C 183.269 2.29109 -4.83129 0
M  V30 1980 C 184.569 0.140015 -5.22112 0
M  V30 1981 H 186.263 -0.198026 -2.98744 0
M  V30 1982 H 183.809 -0.09668 -1.43675 0
M  V30 1983 H 185.762 2.15503 -3.62128 0
M  V30 1984 H 184.486 2.23532 -2.3812 0
M  V30 1985 H 183.145 0.507247 -3.63074 0
M  V30 1986 H 182.793 2.94227 -4.0797 0
M  V30 1987 H 182.493 1.96406 -5.53804 0
M  V30 1988 H 184.017 2.88339 -5.38231 0
M  V30 1989 H 185.431 0.633978 -5.69784 0
M  V30 1990 H 183.828 -0.0971485 -6.00021 0
M  V30 1991 H 184.898 -0.811711 -4.78058 0
M  V30 1992 N 186.241 1.57166 -0.116904 0
M  V30 1993 C 187.189 2.16457 0.851418 0
M  V30 1994 C 188.183 1.11323 1.27686 0
M  V30 1995 O 189.389 1.2963 1.24884 0
M  V30 1996 H 185.764 0.69271 0.292672 0
M  V30 1997 H 187.735 2.96605 0.32685 0
M  V30 1998 C 186.484 2.77689 2.09246 0
M  V30 1999 H 185.807 3.58285 1.77402 0
M  V30 2000 H 187.247 3.22716 2.7501 0
M  V30 2001 C 185.706 1.74667 2.88085 0
M  V30 2002 O 186.236 1.19877 3.83396 0
M  V30 2003 N 184.442 1.44656 2.52038 0
M  V30 2004 H 183.989 1.89402 1.74599 0
M  V30 2005 H 183.947 0.759675 3.05084 0
M  V30 2006 N 187.719 -0.156864 1.56817 0
M  V30 2007 C 188.629 -1.2136 2.00771 0
M  V30 2008 C 189.645 -1.47598 0.921459 0
M  V30 2009 O 190.821 -1.59462 1.2302 0
M  V30 2010 C 187.886 -2.52943 2.37109 0
M  V30 2011 C 186.947 -2.34439 3.59634 0
M  V30 2012 C 186.18 -3.59748 3.94229 0
M  V30 2013 O 186.403 -4.65526 3.29609 0
M  V30 2014 O 185.337 -3.52998 4.8752 0
M  V30 2015 H 189.163 -0.870468 2.90958 0
M  V30 2016 H 186.748 -0.36484 1.44877 0
M  V30 2017 H 188.63 -3.30538 2.61386 0
M  V30 2018 H 187.305 -2.86806 1.5008 0
M  V30 2019 H 186.212 -1.54828 3.40557 0
M  V30 2020 H 187.545 -2.05496 4.4725 0
M  V30 2021 N 189.197 -1.51736 -0.425897 0
M  V30 2022 C 190.446 -1.64201 -1.17136 0
M  V30 2023 C 190.759 -0.369705 -1.92074 0
M  V30 2024 O 191.965 -0.373898 -2.68913 0
M  V30 2025 C 190.421 -2.90035 -2.13091 0
M  V30 2026 C 190.029 -4.24312 -1.43747 0
M  V30 2027 C 191.773 -3.1186 -2.87999 0
M  V30 2028 C 189.68 -5.41285 -2.38253 0
M  V30 2029 H 188.61 -0.611624 -0.440944 0
M  V30 2030 H 191.261 -1.78212 -0.437328 0
M  V30 2031 H 189.643 -2.69684 -2.89977 0
M  V30 2032 H 190.817 -4.55086 -0.723408 0
M  V30 2033 H 189.132 -4.08456 -0.809465 0
M  V30 2034 H 191.729 -3.96427 -3.58817 0
M  V30 2035 H 192.072 -2.25403 -3.49999 0
M  V30 2036 H 192.605 -3.32605 -2.18217 0
M  V30 2037 H 189.344 -6.30037 -1.80925 0
M  V30 2038 H 188.864 -5.14872 -3.0768 0
M  V30 2039 H 190.543 -5.73694 -2.99139 0
M  V30 2040 N 190.675 0.682077 -1.42076 0
M  V30 2041 C 191.905 1.46844 -1.45329 0
M  V30 2042 C 192.313 1.89102 -0.0609328 0
M  V30 2043 O 191.656 1.58238 0.933082 0
M  V30 2044 C 191.718 2.75375 -2.31104 0
M  V30 2045 C 191.382 2.55238 -3.79081 0
M  V30 2046 C 192.379 2.20309 -4.70914 0
M  V30 2047 C 190.064 2.70459 -4.2327 0
M  V30 2048 C 192.058 2.00859 -6.04925 0
M  V30 2049 C 189.745 2.50624 -5.57343 0
M  V30 2050 C 190.743 2.15876 -6.47986 0
M  V30 2051 O 190.431 1.96227 -7.79583 0
M  V30 2052 H 190.163 0.4586 -0.496651 0
M  V30 2053 H 192.717 0.846131 -1.87162 0
M  V30 2054 H 190.947 3.40061 -1.84107 0
M  V30 2055 H 192.636 3.37231 -2.25898 0
M  V30 2056 H 193.402 2.08153 -4.38061 0
M  V30 2057 H 189.281 2.96485 -3.53012 0
M  V30 2058 H 192.825 1.7366 -6.75639 0
M  V30 2059 H 188.722 2.62375 -5.89771 0
M  V30 2060 H 189.49 2.10883 -7.90867 0
M  V30 2061 N 192.153 1.28127 0.917671 0
M  V30 2062 C 193.378 1.18007 1.70555 0
M  V30 2063 C 193.803 -0.258257 1.86319 0
M  V30 2064 O 193.161 -1.1869 1.37049 0
M  V30 2065 C 193.209 1.87948 3.07746 0
M  V30 2066 O 192.313 1.18427 3.9503 0
M  V30 2067 H 191.654 0.409867 0.522403 0
M  V30 2068 H 194.184 1.69379 1.1477 0
M  V30 2069 H 194.194 1.95701 3.58001 0
M  V30 2070 H 192.869 2.92573 2.95591 0
M  V30 2071 H 191.446 1.18811 3.53466 0
M  V30 2072 N 193.631 -1.12557 1.10312 0
M  V30 2073 C 194.877 -1.84515 0.855901 0
M  V30 2074 C 195.232 -1.82409 -0.611936 0
M  V30 2075 O 194.525 -1.25778 -1.44535 0
M  V30 2076 C 194.719 -3.31462 1.33669 0
M  V30 2077 C 194.548 -3.47879 2.84974 0
M  V30 2078 C 193.318 -3.61589 3.52961 0
M  V30 2079 C 195.516 -3.43152 3.83081 0
M  V30 2080 N 193.498 -3.66359 4.926 0
M  V30 2081 C 194.869 -3.54401 5.08724 0
M  V30 2082 C 196.924 -3.2661 3.75807 0
M  V30 2083 C 195.627 -3.50815 6.2795 0
M  V30 2084 C 197.653 -3.24335 4.94531 0
M  V30 2085 C 197.015 -3.36144 6.19021 0
M  V30 2086 H 193.114 -0.690967 0.366182 0
M  V30 2087 H 195.698 -1.34763 1.40524 0
M  V30 2088 H 193.869 -3.7976 0.814686 0
M  V30 2089 H 195.601 -3.91272 1.03385 0
M  V30 2090 H 192.356 -3.63652 3.03404 0
M  V30 2091 H 192.78 -3.72411 5.65366 0
M  V30 2092 H 197.422 -3.16375 2.80476 0
M  V30 2093 H 195.14 -3.5982 7.23571 0
M  V30 2094 H 198.726 -3.12719 4.9061 0
M  V30 2095 H 197.606 -3.34357 7.09348 0
M  V30 2096 N 195.109 -0.891671 -1.2995 0
M  V30 2097 C 196.358 -0.509521 -1.95158 0
M  V30 2098 C 196.671 0.947388 -1.71125 0
M  V30 2099 O 197.877 1.43669 -2.30372 0
M  V30 2100 C 196.333 -0.860315 -3.49466 0
M  V30 2101 C 195.941 -2.33545 -3.8231 0
M  V30 2102 C 197.685 -0.547687 -4.20952 0
M  V30 2103 C 195.592 -2.62752 -5.29826 0
M  V30 2104 H 194.522 -0.18682 -0.730489 0
M  V30 2105 H 197.173 -1.08756 -1.47798 0
M  V30 2106 H 195.555 -0.211285 -3.95436 0
M  V30 2107 H 196.729 -3.02936 -3.47227 0
M  V30 2108 H 195.044 -2.61629 -3.23944 0
M  V30 2109 H 197.641 -0.742854 -5.29515 0
M  V30 2110 H 197.984 0.51332 -4.13123 0
M  V30 2111 H 198.517 -1.1542 -3.80688 0
M  V30 2112 H 195.256 -3.6762 -5.42712 0
M  V30 2113 H 194.776 -1.97977 -5.66185 0
M  V30 2114 H 196.455 -2.48601 -5.97333 0
M  V30 2115 N 196.587 1.43421 -0.653314 0
M  V30 2116 C 197.497 2.34568 0.0388565 0
M  V30 2117 C 198.513 1.53888 0.81207 0
M  V30 2118 O 199.689 1.86539 0.759294 0
M  V30 2119 C 196.754 3.32167 0.993269 0
M  V30 2120 C 195.815 4.28751 0.216977 0
M  V30 2121 C 195.048 5.21688 1.12593 0
M  V30 2122 O 195.271 5.19052 2.36519 0
M  V30 2123 O 194.205 5.98919 0.598284 0
M  V30 2124 H 198.031 2.95251 -0.711386 0
M  V30 2125 H 195.616 1.43564 -0.413502 0
M  V30 2126 H 197.498 3.92183 1.54176 0
M  V30 2127 H 196.173 2.73987 1.72374 0
M  V30 2128 H 195.08 3.72215 -0.375101 0
M  V30 2129 H 196.413 4.89913 -0.473924 0
M  V30 2130 N 198.065 0.39524 1.52563 0
M  V30 2131 C 199.312 -0.185044 2.01653 0
M  V30 2132 C 199.64 -1.46317 1.28146 0
M  V30 2133 O 198.895 -1.9213 0.372074 0
M  V30 2134 C 199.194 -0.493444 3.53977 0
M  V30 2135 C 198.86 0.69384 4.4553 0
M  V30 2136 C 197.522 1.01954 4.70275 0
M  V30 2137 C 199.874 1.48785 4.99512 0
M  V30 2138 C 197.202 2.14069 5.46252 0
M  V30 2139 C 199.554 2.59965 5.76716 0
M  V30 2140 C 198.218 2.93037 5.99738 0
M  V30 2141 H 197.488 -0.0677123 0.7379 0
M  V30 2142 H 200.135 0.533807 1.8391 0
M  V30 2143 H 198.44 -1.29369 3.69825 0
M  V30 2144 H 200.137 -0.955163 3.89458 0
M  V30 2145 H 196.727 0.429987 4.26438 0
M  V30 2146 H 200.911 1.24946 4.80315 0
M  V30 2147 H 196.167 2.40056 5.62302 0
M  V30 2148 H 200.341 3.21887 6.17545 0
M  V30 2149 H 197.968 3.8003 6.58393 0
M  V30 2150 N 199.544 -1.57102 0.125237 0
M  V30 2151 C 200.793 -1.94582 -0.531095 0
M  V30 2152 C 201.106 -1.01126 -1.6743 0
M  V30 2153 O 202.312 -1.28097 -2.39381 0
M  V30 2154 C 200.768 -3.45839 -0.996164 0
M  V30 2155 C 200.376 -4.47842 0.118926 0
M  V30 2156 C 202.12 -3.92227 -1.62352 0
M  V30 2157 C 200.027 -5.90284 -0.363192 0
M  V30 2158 H 198.957 -0.726391 -0.20217 0
M  V30 2159 H 201.608 -1.82339 0.206092 0
M  V30 2160 H 199.99 -3.53338 -1.78796 0
M  V30 2161 H 201.164 -4.52018 0.895358 0
M  V30 2162 H 199.479 -4.11243 0.653324 0
M  V30 2163 H 202.076 -4.96069 -1.99548 0
M  V30 2164 H 202.419 -3.32552 -2.50429 0
M  V30 2165 H 202.952 -3.87554 -0.897019 0
M  V30 2166 H 199.691 -6.53728 0.481679 0
M  V30 2167 H 199.211 -5.89515 -1.10597 0
M  V30 2168 H 200.89 -6.41752 -0.822377 0
M  V30 2169 N 201.022 0.148545 -1.56898 0
M  V30 2170 C 202.25 0.876389 -1.87422 0
M  V30 2171 C 202.665 1.74809 -0.713256 0
M  V30 2172 O 202.022 1.79725 0.317025 0
M  V30 2173 C 202.073 1.73438 -3.17178 0
M  V30 2174 O 201.794 0.897809 -4.28802 0
M  V30 2175 C 203.295 2.56993 -3.61205 0
M  V30 2176 H 200.515 0.253489 -0.621277 0
M  V30 2177 H 203.059 0.141798 -2.04008 0
M  V30 2178 H 201.214 2.42205 -3.0235 0
M  V30 2179 H 201.628 1.48672 -5.02988 0
M  V30 2180 H 203.102 3.12773 -4.54838 0
M  V30 2181 H 203.579 3.32958 -2.86419 0
M  V30 2182 H 204.185 1.9352 -3.78722 0
M  V30 2183 N 202.5 1.5196 0.417844 0
M  V30 2184 C 203.41 1.77554 1.53336 0
M  V30 2185 C 204.426 0.660655 1.6097 0
M  V30 2186 O 205.602 0.945099 1.77848 0
M  V30 2187 C 202.667 1.91291 2.89152 0
M  V30 2188 C 201.728 3.15183 2.91475 0
M  V30 2189 C 200.961 3.28256 4.20813 0
M  V30 2190 O 201.184 2.46798 5.14244 0
M  V30 2191 O 200.118 4.21356 4.29817 0
M  V30 2192 H 203.944 2.7222 1.34647 0
M  V30 2193 H 201.529 1.36698 0.602828 0
M  V30 2194 H 203.411 2.02199 3.69721 0
M  V30 2195 H 202.086 0.998129 3.07927 0
M  V30 2196 H 200.993 3.09739 2.09791 0
M  V30 2197 H 202.326 4.06414 2.77648 0
M  V30 2198 N 203.978 -0.674533 1.42435 0
M  V30 2199 C 205.394 -0.98769 1.25367 0
M  V30 2200 C 205.594 -2.00879 0.158044 0
M  V30 2201 O 204.65 -2.48075 -0.470633 0
M  V30 2202 C 205.963 -1.49224 2.6106 0
M  V30 2203 C 207.511 -1.61 2.68417 0
M  V30 2204 C 207.986 -2.14852 4.04478 0
M  V30 2205 N 209.477 -2.22185 4.06434 0
M  V30 2206 C 210.212 -2.64928 5.08528 0
M  V30 2207 N 209.708 -3.07121 6.21006 0
M  V30 2208 N 211.501 -2.64679 4.95885 0
M  V30 2209 H 203.652 0.00152503 2.124 0
M  V30 2210 H 205.915 -0.0618434 0.945981 0
M  V30 2211 H 205.621 -0.816453 3.42092 0
M  V30 2212 H 205.495 -2.47094 2.84999 0
M  V30 2213 H 207.882 -2.27686 1.87732 0
M  V30 2214 H 207.963 -0.616195 2.48267 0
M  V30 2215 H 207.607 -1.48775 4.85622 0
M  V30 2216 H 207.537 -3.15024 4.2198 0
M  V30 2217 H 210.028 -1.92435 3.25234 0
M  V30 2218 H 210.341 -3.38423 6.94759 0
M  V30 2219 H 208.686 -3.04978 6.24511 0
M  V30 2220 H 211.877 -2.31078 4.07088 0
M  V30 2221 H 212.05 -2.9767 5.75584 0
M  V30 2222 N 205.456 -1.28612 -0.910864 0
M  V30 2223 C 206.406 -1.09423 -2.00026 0
M  V30 2224 C 207.39 -0.0170079 -1.60891 0
M  V30 2225 O 208.582 -0.237472 -1.754 0
M  V30 2226 C 205.711 -0.76114 -3.34756 0
M  V30 2227 C 204.797 -1.87735 -3.80285 0
M  V30 2228 N 205.188 -3.11938 -3.98156 0
M  V30 2229 C 203.486 -1.76786 -4.09467 0
M  V30 2230 C 204.187 -3.84687 -4.36338 0
M  V30 2231 N 203.163 -3.12555 -4.44759 0
M  V30 2232 H 206.965 -2.03658 -2.11898 0
M  V30 2233 H 204.479 -1.19573 -1.09891 0
M  V30 2234 H 206.476 -0.604743 -4.12491 0
M  V30 2235 H 205.136 0.173403 -3.24237 0
M  V30 2236 H 206.147 -3.47516 -3.83996 0
M  V30 2237 H 202.824 -0.905284 -4.07567 0
M  V30 2238 H 204.214 -4.91518 -4.58104 0
M  V30 2239 N 206.934 1.1197 -1.10907 0
M  V30 2240 C 208.345 1.65114 -0.871446 0
M  V30 2241 C 208.696 1.86885 0.597353 0
M  V30 2242 O 207.821 1.59896 1.45816 0
M  V30 2243 C 208.416 2.99944 -1.5754 0
M  V30 2244 C 206.975 3.50018 -1.38435 0
M  V30 2245 C 206.122 2.24941 -1.62164 0
M  V30 2246 H 209.073 0.956851 -1.2661 0
M  V30 2247 H 209.094 3.66651 -1.01721 0
M  V30 2248 H 208.606 2.84067 -2.64438 0
M  V30 2249 H 206.707 3.71071 -0.337214 0
M  V30 2250 H 206.82 4.29165 -2.12965 0
M  V30 2251 H 205.184 2.3229 -1.04467 0
M  V30 2252 H 205.967 2.11612 -2.70324 0
M  V30 2253 N 208.412 0.89855 1.29475 0
M  V30 2254 C 209.689 0.443416 1.90508 0
M  V30 2255 C 210.069 -1.07685 1.81569 0
M  V30 2256 O 209.417 -1.9182 1.24166 0
M  V30 2257 C 209.627 0.956708 3.35631 0
M  V30 2258 C 210.975 0.999728 4.12663 0
M  V30 2259 O 211.999 0.904299 3.4453 0
M  V30 2260 O 210.858 1.14289 5.34416 0
M  V30 2261 H 207.952 0.138025 0.815401 0
M  V30 2262 H 210.498 0.98834 1.37949 0
M  V30 2263 H 209.27 2.00067 3.36287 0
M  V30 2264 H 208.893 0.391728 3.95666 0
M  V30 2265 N 209.89 -1.43072 0.660911 0
M  V30 2266 C 210.823 -2.28074 -0.0758862 0
M  V30 2267 C 211.801 -1.40271 -0.822362 0
M  V30 2268 O 212.985 -1.69713 -0.820352 0
M  V30 2269 C 210.112 -3.19843 -1.11437 0
M  V30 2270 C 209.158 -4.23957 -0.465069 0
M  V30 2271 S 209.991 -5.29978 0.767078 0
M  V30 2272 C 211.147 -6.25314 -0.270682 0
M  V30 2273 H 211.38 -2.90216 0.645139 0
M  V30 2274 H 208.913 -1.47697 0.449995 0
M  V30 2275 H 210.871 -3.73257 -1.70849 0
M  V30 2276 H 209.532 -2.56863 -1.80776 0
M  V30 2277 H 208.725 -4.88299 -1.24819 0
M  V30 2278 H 208.327 -3.73959 0.0551242 0
M  V30 2279 H 210.619 -6.67932 -1.13459 0
M  V30 2280 H 211.562 -7.07293 0.337916 0
M  V30 2281 H 211.97 -5.61195 -0.609937 0
M  V30 2282 N 211.368 -0.403325 -1.52352 0
M  V30 2283 C 212.298 0.416205 -2.29761 0
M  V30 2284 C 213.279 1.05123 -1.33728 0
M  V30 2285 O 214.464 1.06134 -1.62632 0
M  V30 2286 C 211.594 1.53624 -3.11475 0
M  V30 2287 C 210.548 1.02653 -4.15507 0
M  V30 2288 C 209.874 2.23971 -4.85532 0
M  V30 2289 C 211.174 0.08463 -5.22231 0
M  V30 2290 H 212.868 -0.229701 -2.98518 0
M  V30 2291 H 210.414 -0.111913 -1.43564 0
M  V30 2292 H 212.367 2.1165 -3.64393 0
M  V30 2293 H 211.091 2.20994 -2.40477 0
M  V30 2294 H 209.75 0.46871 -3.63591 0
M  V30 2295 H 209.398 2.89883 -4.11068 0
M  V30 2296 H 209.098 1.90521 -5.55856 0
M  V30 2297 H 210.622 2.82614 -5.41259 0
M  V30 2298 H 212.036 0.573509 -5.70424 0
M  V30 2299 H 210.433 -0.160783 -5.99885 0
M  V30 2300 H 211.503 -0.86237 -4.7717 0
M  V30 2301 N 212.846 1.57033 -0.133567 0
M  V30 2302 C 214.074 2.00044 0.528195 0
M  V30 2303 C 214.489 1.01349 1.59291 0
M  V30 2304 O 213.846 0.00848369 1.82498 0
M  V30 2305 C 213.897 3.43018 1.1411 0
M  V30 2306 O 213.618 4.37939 0.11892 0
M  V30 2307 C 215.119 4.01237 1.88477 0
M  V30 2308 H 212.339 0.656517 0.138661 0
M  V30 2309 H 214.883 2.03267 -0.224196 0
M  V30 2310 H 213.038 3.40688 1.84418 0
M  V30 2311 H 213.452 5.21436 0.56613 0
M  V30 2312 H 214.926 5.03314 2.26669 0
M  V30 2313 H 215.403 3.41193 2.76558 0
M  V30 2314 H 216.009 4.07156 1.22898 0
M  V30 2315 N 214.325 -0.140222 1.56975 0
M  V30 2316 C 215.272 -1.17292 1.98774 0
M  V30 2317 C 216.242 -1.4232 0.856408 0
M  V30 2318 O 217.427 -1.54541 1.119 0
M  V30 2319 C 214.567 -2.49973 2.37923 0
M  V30 2320 C 213.68 -2.32062 3.64378 0
M  V30 2321 C 212.815 -3.57825 3.926 0
M  V30 2322 C 211.854 -3.3498 5.12303 0
M  V30 2323 N 210.991 -4.52891 5.36502 0
M  V30 2324 H 215.831 -0.809472 2.86795 0
M  V30 2325 H 213.368 -0.388237 1.41884 0
M  V30 2326 H 215.326 -3.27346 2.58652 0
M  V30 2327 H 213.956 -2.84252 1.52972 0
M  V30 2328 H 213.008 -1.45711 3.51387 0
M  V30 2329 H 214.32 -2.11145 4.51906 0
M  V30 2330 H 213.474 -4.43624 4.13863 0
M  V30 2331 H 212.213 -3.81753 3.03506 0
M  V30 2332 H 211.218 -2.4757 4.90906 0
M  V30 2333 H 212.443 -3.12444 6.02956 0
M  V30 2334 H 210.389 -4.76979 4.50363 0
M  V30 2335 H 210.306 -4.35001 6.18312 0
M  V30 2336 H 211.574 -5.39884 5.62268 0
M  V30 2337 N 215.803 -1.52179 -0.40978 0
M  V30 2338 C 217.052 -1.65434 -1.15388 0
M  V30 2339 C 217.365 -0.390056 -1.91671 0
M  V30 2340 O 218.571 -0.402399 -2.68501 0
M  V30 2341 C 217.027 -2.92279 -2.10003 0
M  V30 2342 C 216.635 -4.25813 -1.39239 0
M  V30 2343 C 218.379 -3.14897 -2.84675 0
M  V30 2344 C 216.286 -5.43782 -2.32498 0
M  V30 2345 H 215.216 -0.616267 -0.434432 0
M  V30 2346 H 217.867 -1.78666 -0.418401 0
M  V30 2347 H 216.249 -2.72744 -2.871 0
M  V30 2348 H 217.423 -4.55828 -0.675099 0
M  V30 2349 H 215.738 -4.09292 -0.766097 0
M  V30 2350 H 218.335 -4.0021 -3.54593 0
M  V30 2351 H 218.678 -2.29103 -3.47588 0
M  V30 2352 H 219.211 -3.34901 -2.14677 0
M  V30 2353 H 215.95 -6.3192 -1.74233 0
M  V30 2354 H 215.47 -5.18106 -3.02201 0
M  V30 2355 H 217.149 -5.76834 -2.93038 0
M  V30 2356 N 217.281 0.66697 -1.42791 0
M  V30 2357 C 218.231 1.77313 -1.43332 0
M  V30 2358 C 219.215 1.5801 -0.303586 0
M  V30 2359 O 220.407 1.68356 -0.546385 0
M  V30 2360 C 217.536 3.15822 -1.34578 0
M  V30 2361 C 216.622 3.40721 -2.52528 0
M  V30 2362 N 217.013 3.36162 -3.77927 0
M  V30 2363 C 215.311 3.71387 -2.46956 0
M  V30 2364 C 216.012 3.60762 -4.56318 0
M  V30 2365 N 214.988 3.81908 -3.86843 0
M  V30 2366 H 218.79 1.72193 -2.38174 0
M  V30 2367 H 216.304 0.868114 -1.3725 0
M  V30 2368 H 218.301 3.951 -1.33048 0
M  V30 2369 H 216.961 3.22133 -0.407453 0
M  V30 2370 H 217.972 3.15885 -4.10411 0
M  V30 2371 H 214.649 3.84897 -1.61743 0
M  V30 2372 H 216.039 3.63132 -5.65318 0
M  V30 2373 N 218.759 1.29093 0.90403 0
M  V30 2374 C 220.008 1.16187 1.64874 0
M  V30 2375 C 220.321 -0.286742 1.93487 0
M  V30 2376 O 221.527 -0.537062 2.66135 0
M  V30 2377 C 219.983 2.03177 2.97064 0
M  V30 2378 C 219.591 3.52836 2.76062 0
M  V30 2379 C 221.335 1.98984 3.74974 0
M  V30 2380 C 219.242 4.31945 4.03952 0
M  V30 2381 H 218.172 0.431246 0.618501 0
M  V30 2382 H 220.823 1.53699 1.00243 0
M  V30 2383 H 219.205 1.5853 3.62883 0
M  V30 2384 H 220.379 4.05507 2.18863 0
M  V30 2385 H 218.694 3.58656 2.11553 0
M  V30 2386 H 221.291 2.55351 4.69787 0
M  V30 2387 H 221.634 0.968815 4.0487 0
M  V30 2388 H 222.167 2.41652 3.15989 0
M  V30 2389 H 218.906 5.34667 3.79225 0
M  V30 2390 H 218.426 3.84045 4.60727 0
M  V30 2391 H 220.105 4.42379 4.72133 0
M  V30 2392 N 220.237 -1.11381 1.11499 0
M  V30 2393 C 221.485 -1.8277 0.862524 0
M  V30 2394 C 221.806 -1.85097 -0.613534 0
M  V30 2395 O 221.076 -1.32198 -1.4457 0
M  V30 2396 H 219.656 -0.676823 0.316101 0
M  V30 2397 H 222.318 -1.34816 1.4075 0
M  V30 2398 H 221.414 -2.86614 1.23527 0
M  V30 2399 N 221.715 -0.905404 -1.28997 0
M  V30 2400 C 222.94 -0.549175 -1.99997 0
M  V30 2401 C 223.365 0.860276 -1.67275 0
M  V30 2402 O 222.723 1.57355 -0.900502 0
M  V30 2403 C 222.771 -0.755185 -3.52604 0
M  V30 2404 O 221.875 0.189692 -4.11964 0
M  V30 2405 H 221.216 -0.213899 -0.628604 0
M  V30 2406 H 223.746 -1.21856 -1.64354 0
M  V30 2407 H 223.756 -0.662045 -4.02593 0
M  V30 2408 H 222.431 -1.78271 -3.75755 0
M  V30 2409 H 221.008 0.0485257 -3.72868 0
M  V30 2410 N 223.193 1.4272 -0.668489 0
M  V30 2411 C 224.418 2.06484 -0.194758 0
M  V30 2412 C 224.843 1.49862 1.13679 0
M  V30 2413 O 224.201 0.614582 1.70565 0
M  V30 2414 C 224.249 3.60353 -0.133546 0
M  V30 2415 O 223.353 4.02464 0.899806 0
M  V30 2416 H 222.694 0.656137 -0.10188 0
M  V30 2417 H 225.224 1.82964 -0.915722 0
M  V30 2418 H 225.234 4.07976 0.0447041 0
M  V30 2419 H 223.909 4.00938 -1.1055 0
M  V30 2420 H 222.486 3.66402 0.693109 0
M  V30 2421 N 224.671 0.411399 1.52136 0
M  V30 2422 C 225.918 -0.163645 2.01838 0
M  V30 2423 C 226.246 -1.4495 1.29691 0
M  V30 2424 O 225.501 -1.91725 0.392431 0
M  V30 2425 C 225.8 -0.455872 3.54481 0
M  V30 2426 C 225.466 0.741055 4.44769 0
M  V30 2427 C 224.128 1.06936 4.69167 0
M  V30 2428 C 226.48 1.54075 4.97906 0
M  V30 2429 C 223.808 2.19851 5.43951 0
M  V30 2430 C 226.16 2.66067 5.73926 0
M  V30 2431 C 224.824 2.99381 5.96596 0
M  V30 2432 H 224.094 -0.0598821 0.738576 0
M  V30 2433 H 226.741 0.553283 1.83333 0
M  V30 2434 H 225.046 -1.2544 3.71177 0
M  V30 2435 H 226.743 -0.913802 3.90449 0
M  V30 2436 H 223.333 0.475192 4.25958 0
M  V30 2437 H 227.517 1.30033 4.78963 0
M  V30 2438 H 222.773 2.46006 5.59724 0
M  V30 2439 H 226.947 3.28419 6.14096 0
M  V30 2440 H 224.574 3.86992 6.54325 0
M  V30 2441 N 226.149 -1.5696 0.141893 0
M  V30 2442 C 227.059 -2.20066 -0.812905 0
M  V30 2443 C 228.075 -1.18344 -1.27557 0
M  V30 2444 O 229.251 -1.50902 -1.33381 0
M  V30 2445 C 226.316 -2.80583 -2.03652 0
M  V30 2446 C 225.377 -3.97414 -1.62359 0
M  V30 2447 C 224.61 -4.55036 -2.78887 0
M  V30 2448 O 224.833 -4.11538 -3.94959 0
M  V30 2449 O 223.767 -5.45376 -2.54653 0
M  V30 2450 H 227.593 -3.02157 -0.305746 0
M  V30 2451 H 225.178 -1.49159 -0.0848799 0
M  V30 2452 H 227.06 -3.19067 -2.75272 0
M  V30 2453 H 225.735 -2.01508 -2.5333 0
M  V30 2454 H 224.642 -3.63656 -0.877775 0
M  V30 2455 H 225.975 -4.77994 -1.17401 0
M  V30 2456 N 227.627 0.131896 -1.57047 0
M  V30 2457 C 228.574 1.16236 -1.99393 0
M  V30 2458 C 229.544 1.41863 -0.863943 0
M  V30 2459 O 230.729 1.53946 -1.12718 0
M  V30 2460 C 227.869 2.48708 -2.39245 0
M  V30 2461 C 226.982 2.30127 -3.65603 0
M  V30 2462 C 226.117 3.55738 -3.94492 0
M  V30 2463 C 225.156 3.32259 -5.14073 0
M  V30 2464 N 224.293 4.50039 -5.38896 0
M  V30 2465 H 229.133 0.794251 -2.87221 0
M  V30 2466 H 226.67 0.380707 -1.42088 0
M  V30 2467 H 228.628 3.25969 -2.60384 0
M  V30 2468 H 227.258 2.83437 -1.54478 0
M  V30 2469 H 226.31 1.43845 -3.52154 0
M  V30 2470 H 227.622 2.08746 -4.5302 0
M  V30 2471 H 226.776 4.41423 -4.1621 0
M  V30 2472 H 225.515 3.80138 -3.05526 0
M  V30 2473 H 224.52 2.44963 -4.92212 0
M  V30 2474 H 225.745 3.09242 -6.04604 0
M  V30 2475 H 223.691 4.74584 -4.52886 0
M  V30 2476 H 223.608 4.31716 -6.2061 0
M  V30 2477 H 224.876 5.36895 -5.65123 0
M  V30 2478 N 229.106 1.52395 0.401703 0
M  V30 2479 C 230.336 1.70429 1.1678 0
M  V30 2480 C 230.744 0.416702 1.84554 0
M  V30 2481 O 230.087 -0.617697 1.73003 0
M  V30 2482 C 230.149 2.78919 2.26814 0
M  V30 2483 C 229.813 4.20437 1.79113 0
M  V30 2484 C 230.81 5.04028 1.27482 0
M  V30 2485 C 228.495 4.66704 1.85722 0
M  V30 2486 C 230.489 6.31961 0.830913 0
M  V30 2487 C 228.176 5.94625 1.40942 0
M  V30 2488 C 229.174 6.77082 0.897128 0
M  V30 2489 O 228.862 8.02607 0.455822 0
M  V30 2490 H 228.594 0.574272 0.356634 0
M  V30 2491 H 231.148 1.99767 0.477724 0
M  V30 2492 H 229.378 2.44973 2.99207 0
M  V30 2493 H 231.067 2.8548 2.88541 0
M  V30 2494 H 231.833 4.69471 1.21744 0
M  V30 2495 H 227.712 4.0262 2.24539 0
M  V30 2496 H 231.256 6.96271 0.430368 0
M  V30 2497 H 227.153 6.28688 1.46362 0
M  V30 2498 H 227.921 8.16453 0.578457 0
M  V30 2499 N 230.584 -0.659388 1.43143 0
M  V30 2500 C 231.995 -1.24041 1.39537 0
M  V30 2501 C 232.346 -1.95963 0.0963364 0
M  V30 2502 O 231.471 -2.00892 -0.804438 0
M  V30 2503 C 232.066 -2.25601 2.52764 0
M  V30 2504 C 230.625 -2.79195 2.52443 0
M  V30 2505 C 229.772 -1.53743 2.30778 0
M  V30 2506 H 232.723 -0.451792 1.52133 0
M  V30 2507 H 232.744 -3.07651 2.23899 0
M  V30 2508 H 232.256 -1.73226 3.47296 0
M  V30 2509 H 230.357 -3.35649 1.61773 0
M  V30 2510 H 230.47 -3.2716 3.50004 0
M  V30 2511 H 228.834 -1.80869 1.79328 0
M  V30 2512 H 229.617 -1.03312 3.27386 0
M  V30 2513 N 232.062 -1.29571 -0.897171 0
M  V30 2514 C 232.992 -1.17473 -2.01798 0
M  V30 2515 C 233.973 -0.068323 -1.69963 0
M  V30 2516 O 235.158 -0.248239 -1.92607 0
M  V30 2517 C 232.288 -0.853099 -3.36659 0
M  V30 2518 C 231.242 -1.9161 -3.82713 0
M  V30 2519 C 230.568 -1.44773 -5.14728 0
M  V30 2520 C 231.868 -3.32535 -4.02763 0
M  V30 2521 H 233.562 -2.11237 -2.12177 0
M  V30 2522 H 231.108 -1.01699 -1.01948 0
M  V30 2523 H 233.061 -0.755165 -4.14578 0
M  V30 2524 H 231.785 0.120236 -3.26379 0
M  V30 2525 H 230.444 -2.00346 -3.07013 0
M  V30 2526 H 230.092 -0.462995 -5.00865 0
M  V30 2527 H 229.792 -2.15865 -5.46513 0
M  V30 2528 H 231.316 -1.36334 -5.95185 0
M  V30 2529 H 232.73 -3.26626 -4.71156 0
M  V30 2530 H 231.127 -4.01607 -4.45905 0
M  V30 2531 H 232.197 -3.75326 -3.07016 0
M  V30 2532 N 233.54 1.10788 -1.12088 0
M  V30 2533 C 234.77 1.86191 -0.895351 0
M  V30 2534 C 235.178 1.80763 0.558702 0
M  V30 2535 O 234.521 1.19188 1.39785 0
M  V30 2536 C 234.583 3.35659 -1.28737 0
M  V30 2537 C 234.247 3.64849 -2.75198 0
M  V30 2538 C 235.244 3.61757 -3.734 0
M  V30 2539 C 232.929 3.93641 -3.12013 0
M  V30 2540 C 234.923 3.87045 -5.06434 0
M  V30 2541 C 232.61 4.18585 -4.4523 0
M  V30 2542 C 233.608 4.15277 -5.42249 0
M  V30 2543 O 233.296 4.3959 -6.73065 0
M  V30 2544 H 233.028 0.595425 -0.32007 0
M  V30 2545 H 235.582 1.40992 -1.49367 0
M  V30 2546 H 233.812 3.81497 -0.63224 0
M  V30 2547 H 235.501 3.92441 -1.03656 0
M  V30 2548 H 236.267 3.39557 -3.46303 0
M  V30 2549 H 232.146 3.95348 -2.37109 0
M  V30 2550 H 235.69 3.84378 -5.82151 0
M  V30 2551 H 231.587 4.40264 -4.72057 0
M  V30 2552 H 232.355 4.57123 -6.78956 0
M  V30 2553 N 235.018 0.912232 1.28515 0
M  V30 2554 C 236.264 0.545405 1.95328 0
M  V30 2555 C 236.597 -0.908313 1.71649 0
M  V30 2556 O 235.872 -1.64575 1.03659 0
M  V30 2557 C 236.155 0.853483 3.4984 0
M  V30 2558 C 236.008 2.35982 3.82926 0
M  V30 2559 C 237.327 0.348589 4.38717 0
M  V30 2560 H 234.446 0.199626 0.709449 0
M  V30 2561 H 237.088 1.1412 1.5191 0
M  V30 2562 H 235.238 0.34643 3.86952 0
M  V30 2563 H 236.91 2.93738 3.55691 0
M  V30 2564 H 235.153 2.81543 3.30024 0
M  V30 2565 H 235.824 2.52593 4.90816 0
M  V30 2566 H 238.3 0.78294 4.08668 0
M  V30 2567 H 237.176 0.593242 5.45685 0
M  V30 2568 H 237.437 -0.751049 4.35674 0
M  V30 2569 N 236.496 -1.42363 0.676048 0
M  V30 2570 C 237.426 -2.33497 0.0124832 0
M  V30 2571 C 238.407 -1.50748 -0.787981 0
M  V30 2572 O 239.592 -1.79346 -0.744884 0
M  V30 2573 C 236.722 -3.34377 -0.938582 0
M  V30 2574 C 235.676 -4.27289 -0.246622 0
M  V30 2575 C 235.002 -5.18386 -1.31071 0
M  V30 2576 C 236.302 -5.14916 0.875125 0
M  V30 2577 H 237.996 -2.89233 0.773593 0
M  V30 2578 H 235.542 -1.39073 0.37346 0
M  V30 2579 H 237.495 -3.97044 -1.41188 0
M  V30 2580 H 236.219 -2.76947 -1.73113 0
M  V30 2581 H 234.878 -3.66018 0.206456 0
M  V30 2582 H 234.526 -4.57282 -2.09528 0
M  V30 2583 H 234.226 -5.81378 -0.852839 0
M  V30 2584 H 235.75 -5.83929 -1.78492 0
M  V30 2585 H 237.164 -5.71262 0.482983 0
M  V30 2586 H 235.561 -5.86747 1.25887 0
M  V30 2587 H 236.631 -4.53242 1.72335 0
M  V30 2588 N 237.974 -0.419461 -1.51915 0
M  V30 2589 C 238.921 0.400927 -2.27291 0
M  V30 2590 C 239.891 1.03224 -1.30131 0
M  V30 2591 O 241.076 1.05455 -1.59009 0
M  V30 2592 C 238.216 1.50603 -3.10504 0
M  V30 2593 C 237.329 0.89462 -4.22635 0
M  V30 2594 C 236.464 1.97328 -4.93189 0
M  V30 2595 C 235.503 1.33935 -5.97267 0
M  V30 2596 N 234.64 2.3586 -6.61298 0
M  V30 2597 H 239.48 -0.248251 -2.96964 0
M  V30 2598 H 237.017 -0.134266 -1.46486 0
M  V30 2599 H 238.975 2.15783 -3.57062 0
M  V30 2600 H 237.605 2.12509 -2.42981 0
M  V30 2601 H 236.657 0.131583 -3.80172 0
M  V30 2602 H 237.969 0.391641 -4.9726 0
M  V30 2603 H 237.123 2.70211 -5.43204 0
M  V30 2604 H 235.862 2.50994 -4.18155 0
M  V30 2605 H 234.867 0.595896 -5.46561 0
M  V30 2606 H 236.092 0.810252 -6.74249 0
M  V30 2607 H 234.038 2.88639 -5.89087 0
M  V30 2608 H 233.955 1.90403 -7.3163 0
M  V30 2609 H 235.223 3.08282 -7.15949 0
M  V30 2610 N 239.452 1.56882 -0.150215 0
M  V30 2611 C 240.698 1.96518 0.500834 0
M  V30 2612 C 241.031 1.03527 1.64304 0
M  V30 2613 O 240.306 0.0782751 1.94342 0
M  V30 2614 C 240.589 3.45822 1.00395 0
M  V30 2615 C 240.442 4.49591 -0.136983 0
M  V30 2616 C 241.761 3.97704 1.88467 0
M  V30 2617 H 238.88 0.714535 0.18058 0
M  V30 2618 H 241.522 1.88577 -0.232091 0
M  V30 2619 H 239.672 3.5272 1.62851 0
M  V30 2620 H 241.344 4.5477 -0.77343 0
M  V30 2621 H 239.587 4.26441 -0.795652 0
M  V30 2622 H 240.258 5.51402 0.256815 0
M  V30 2623 H 242.734 3.93304 1.35834 0
M  V30 2624 H 241.61 5.0263 2.20578 0
M  V30 2625 H 241.871 3.40252 2.82279 0
M  V30 2626 N 240.93 -0.123565 1.57115 0
M  V30 2627 C 242.155 -0.850398 1.89164 0
M  V30 2628 C 242.58 -1.7286 0.741688 0
M  V30 2629 O 241.938 -1.78665 -0.307958 0
M  V30 2630 C 241.986 -1.66353 3.19936 0
M  V30 2631 O 241.09 -2.77004 3.0552 0
M  V30 2632 H 240.431 -0.235454 0.620852 0
M  V30 2633 H 242.961 -0.107335 2.04318 0
M  V30 2634 H 242.971 -2.05372 3.52543 0
M  V30 2635 H 241.646 -1.01881 4.03228 0
M  V30 2636 H 240.223 -2.41221 2.84371 0
M  V30 2637 N 242.408 -1.52605 -0.393616 0
M  V30 2638 C 243.656 -1.67093 -1.13685 0
M  V30 2639 C 243.977 -0.411011 -1.90619 0
M  V30 2640 O 243.247 0.574491 -1.87287 0
M  V30 2641 H 241.827 -0.615923 -0.422668 0
M  V30 2642 H 244.489 -1.89704 -0.447039 0
M  V30 2643 H 243.585 -2.51922 -1.84232 0
M  V30 2644 N 243.887 0.651787 -1.4349 0
M  V30 2645 C 244.834 1.76462 -1.4876 0
M  V30 2646 C 245.804 1.62641 -0.337189 0
M  V30 2647 O 246.989 1.82864 -0.544544 0
M  V30 2648 C 244.129 3.14623 -1.41796 0
M  V30 2649 C 243.242 3.39568 -2.67053 0
M  V30 2650 C 242.377 4.67585 -2.52068 0
M  V30 2651 C 241.416 4.85639 -3.72587 0
M  V30 2652 N 240.553 6.04915 -3.56402 0
M  V30 2653 H 245.393 1.71293 -2.43849 0
M  V30 2654 H 242.93 0.835889 -1.21043 0
M  V30 2655 H 244.888 3.94496 -1.35753 0
M  V30 2656 H 243.518 3.18859 -0.50288 0
M  V30 2657 H 242.57 2.53783 -2.8337 0
M  V30 2658 H 243.882 3.48795 -3.56572 0
M  V30 2659 H 243.036 5.55586 -2.4374 0
M  V30 2660 H 241.775 4.60681 -1.60075 0
M  V30 2661 H 240.78 3.96073 -3.81321 0
M  V30 2662 H 242.005 4.94372 -4.65589 0
M  V30 2663 H 239.951 5.9914 -2.67146 0
M  V30 2664 H 239.868 6.15106 -4.39524 0
M  V30 2665 H 241.136 6.95533 -3.51929 0
M  V30 2666 N 245.365 1.30045 0.890287 0
M  V30 2667 C 246.275 1.17885 2.02831 0
M  V30 2668 C 247.291 0.0999609 1.73713 0
M  V30 2669 O 248.467 0.313867 1.98939 0
M  V30 2670 C 245.532 0.866079 3.35708 0
M  V30 2671 C 244.593 2.02979 3.78283 0
M  V30 2672 C 243.826 1.73184 5.0482 0
M  V30 2673 O 244.049 0.657237 5.66601 0
M  V30 2674 O 242.983 2.58267 5.43674 0
M  V30 2675 H 246.809 2.13474 2.16015 0
M  V30 2676 H 244.394 1.09587 1.01543 0
M  V30 2677 H 246.276 0.706623 4.15433 0
M  V30 2678 H 244.951 -0.0599443 3.23644 0
M  V30 2679 H 243.858 2.24454 2.99285 0
M  V30 2680 H 245.191 2.93734 3.94944 0
M  V30 2681 N 246.843 -1.10192 1.12674 0
M  V30 2682 C 247.775 -2.16418 0.754701 0
M  V30 2683 C 248.788 -1.61309 -0.21986 0
M  V30 2684 O 249.977 -1.785 -0.000826841 0
M  V30 2685 C 247.077 -3.38762 0.096698 0
M  V30 2686 C 246.25 -4.23307 1.10136 0
M  V30 2687 C 245.309 -5.24092 0.470513 0
M  V30 2688 O 244.335 -5.57906 1.12824 0
M  V30 2689 N 245.537 -5.75491 -0.760948 0
M  V30 2690 H 248.302 -2.48943 1.66875 0
M  V30 2691 H 245.863 -1.25834 1.01869 0
M  V30 2692 H 247.855 -4.03291 -0.337384 0
M  V30 2693 H 246.425 -3.04192 -0.720153 0
M  V30 2694 H 245.645 -3.55036 1.71299 0
M  V30 2695 H 246.933 -4.76624 1.78064 0
M  V30 2696 H 246.331 -5.50222 -1.31424 0
M  V30 2697 H 244.888 -6.41792 -1.13781 0
M  V30 2698 N 248.321 -0.919034 -1.28029 0
M  V30 2699 C 249.284 -0.416182 -2.2539 0
M  V30 2700 C 250.284 0.460438 -1.54067 0
M  V30 2701 O 251.474 0.262744 -1.72207 0
M  V30 2702 C 248.606 0.402707 -3.38513 0
M  V30 2703 H 249.799 -1.27629 -2.71387 0
M  V30 2704 H 247.352 -0.698919 -1.39803 0
M  V30 2705 H 248.087 1.282 -2.97885 0
M  V30 2706 H 247.872 -0.225698 -3.9145 0
M  V30 2707 H 249.362 0.745191 -4.10897 0
M  V30 2708 N 249.799 1.42003 -0.683588 0
M  V30 2709 C 250.762 2.29191 -0.0198243 0
M  V30 2710 C 251.762 1.43773 0.72013 0
M  V30 2711 O 252.952 1.65061 0.556815 0
M  V30 2712 C 250.084 3.26435 0.982487 0
M  V30 2713 H 251.277 2.8938 -0.787345 0
M  V30 2714 H 248.83 1.49789 -0.446418 0
M  V30 2715 H 249.565 2.71203 1.77819 0
M  V30 2716 H 249.35 3.89449 0.455182 0
M  V30 2717 H 250.84 3.918 1.44508 0
M  V30 2718 N 251.277 0.427512 1.51691 0
M  V30 2719 C 252.224 -0.388867 2.275 0
M  V30 2720 C 253.194 -1.02532 1.30677 0
M  V30 2721 O 254.379 -1.0461 1.59566 0
M  V30 2722 C 251.519 -1.48954 3.11298 0
M  V30 2723 C 250.632 -0.872194 4.23104 0
M  V30 2724 C 249.767 -1.94709 4.94228 0
M  V30 2725 C 248.806 -1.30766 5.97969 0
M  V30 2726 N 247.943 -2.32349 6.62539 0
M  V30 2727 H 252.783 0.263997 2.96828 0
M  V30 2728 H 250.32 0.142033 1.46413 0
M  V30 2729 H 252.278 -2.13887 3.58201 0
M  V30 2730 H 250.908 -2.11217 2.44105 0
M  V30 2731 H 249.96 -0.111419 3.80237 0
M  V30 2732 H 251.272 -0.365264 4.97461 0
M  V30 2733 H 250.426 -2.67327 5.44629 0
M  V30 2734 H 249.165 -2.48773 4.1948 0
M  V30 2735 H 248.17 -0.566902 5.4687 0
M  V30 2736 H 249.395 -0.774483 6.74669 0
M  V30 2737 H 247.341 -2.85511 5.90609 0
M  V30 2738 H 247.258 -1.8652 7.3263 0
M  V30 2739 H 248.526 -3.04481 7.17574 0
M  V30 2740 N 252.755 -1.56801 0.158532 0
M  V30 2741 C 253.703 -2.18638 -0.793729 0
M  V30 2742 C 254.697 -1.14669 -1.24689 0
M  V30 2743 O 255.903 -1.32895 -1.21403 0
M  V30 2744 H 252.278 -0.700226 -0.274204 0
M  V30 2745 H 254.249 -2.97367 -0.248095 0
M  V30 2746 C 252.998 -2.83139 -2.0181 0
M  V30 2747 H 252.321 -3.62863 -1.67841 0
M  V30 2748 H 253.761 -3.29894 -2.66357 0
M  V30 2749 C 252.22 -1.82244 -2.83353 0
M  V30 2750 O 252.75 -1.3 -3.80083 0
M  V30 2751 N 250.956 -1.51288 -2.48114 0
M  V30 2752 H 250.503 -1.93964 -1.69516 0
M  V30 2753 H 250.461 -0.840296 -3.02963 0
M  V30 2754 N 254.233 0.115231 -1.57178 0
M  V30 2755 C 255.196 1.12526 -1.99676 0
M  V30 2756 C 256.196 1.34095 -0.88742 0
M  V30 2757 O 257.386 1.30548 -1.15337 0
M  V30 2758 C 254.518 2.4789 -2.34015 0
M  V30 2759 H 255.711 0.759912 -2.90113 0
M  V30 2760 H 253.264 0.359648 -1.52106 0
M  V30 2761 H 253.999 2.89339 -1.4647 0
M  V30 2762 H 253.784 2.33588 -3.14927 0
M  V30 2763 H 255.274 3.20575 -2.67622 0
M  V30 2764 N 255.711 1.52812 0.385517 0
M  V30 2765 C 256.96 1.67249 1.12741 0
M  V30 2766 C 257.273 0.4205 1.91027 0
M  V30 2767 O 258.479 0.445064 2.67827 0
M  V30 2768 C 256.935 2.95583 2.05326 0
M  V30 2769 C 256.543 4.27974 1.32447 0
M  V30 2770 C 258.287 3.19386 2.7963 0
M  V30 2771 C 256.194 5.47412 2.23818 0
M  V30 2772 H 255.124 0.6231 0.424573 0
M  V30 2773 H 257.775 1.79309 0.389924 0
M  V30 2774 H 256.157 2.77277 2.82725 0
M  V30 2775 H 257.331 4.56844 0.602495 0
M  V30 2776 H 255.646 4.10459 0.700885 0
M  V30 2777 H 258.243 4.05801 3.48181 0
M  V30 2778 H 258.586 2.34604 3.43899 0
M  V30 2779 H 259.119 3.38274 2.09322 0
M  V30 2780 H 255.858 6.34612 1.64157 0
M  V30 2781 H 255.378 5.22849 2.93921 0
M  V30 2782 H 257.057 5.81423 2.83824 0
M  V30 2783 N 257.189 -0.644168 1.43834 0
M  V30 2784 C 258.435 -1.40431 1.47141 0
M  V30 2785 C 258.79 -1.92153 0.0975577 0
M  V30 2786 O 258.083 -1.69924 -0.885232 0
M  V30 2787 C 258.277 -2.59615 2.45631 0
M  V30 2788 C 258.106 -2.1956 3.92458 0
M  V30 2789 C 256.876 -2.07456 4.60749 0
M  V30 2790 C 259.074 -1.79281 4.8204 0
M  V30 2791 N 257.056 -1.60827 5.92459 0
M  V30 2792 C 258.427 -1.43801 6.03093 0
M  V30 2793 C 260.482 -1.66545 4.6922 0
M  V30 2794 C 259.185 -0.968599 7.12749 0
M  V30 2795 C 261.211 -1.21008 5.78888 0
M  V30 2796 C 260.573 -0.864711 6.99072 0
M  V30 2797 H 256.672 -0.509182 0.593513 0
M  V30 2798 H 259.256 -0.740351 1.80075 0
M  V30 2799 H 257.427 -3.23658 2.1471 0
M  V30 2800 H 259.159 -3.26357 2.39318 0
M  V30 2801 H 255.914 -2.275 4.1538 0
M  V30 2802 H 256.338 -1.39848 6.62398 0
M  V30 2803 H 260.98 -1.91883 3.7675 0
M  V30 2804 H 258.698 -0.702715 8.05039 0
M  V30 2805 H 262.284 -1.11631 5.7099 0
M  V30 2806 H 261.164 -0.517736 7.82489 0
M  V30 2807 N 258.668 -1.30515 -0.883378 0
M  V30 2808 C 259.917 -1.18795 -1.63005 0
M  V30 2809 C 260.23 0.255923 -1.93919 0
M  V30 2810 O 261.436 0.494654 -2.66956 0
M  V30 2811 C 259.892 -2.07878 -2.93794 0
M  V30 2812 C 259.5 -3.57184 -2.70414 0
M  V30 2813 C 261.244 -2.04924 -3.71761 0
M  V30 2814 C 259.151 -4.38317 -3.97029 0
M  V30 2815 H 258.081 -0.441031 -0.611562 0
M  V30 2816 H 260.732 -1.55275 -0.977854 0
M  V30 2817 H 259.114 -1.64283 -3.60315 0
M  V30 2818 H 260.288 -4.08937 -2.12384 0
M  V30 2819 H 258.603 -3.61976 -2.0582 0
M  V30 2820 H 261.2 -2.62792 -4.65665 0
M  V30 2821 H 261.543 -1.0331 -4.03277 0
M  V30 2822 H 262.076 -2.46649 -3.12104 0
M  V30 2823 H 258.815 -5.40632 -3.70671 0
M  V30 2824 H 258.335 -3.91326 -4.54559 0
M  V30 2825 H 260.014 -4.49834 -4.65036 0
M  V30 2826 N 260.146 1.09593 -1.13257 0
M  V30 2827 C 261.423 1.78293 -0.804432 0
M  V30 2828 C 261.803 1.99004 0.70431 0
M  V30 2829 O 261.151 1.59007 1.641 0
M  V30 2830 C 261.361 3.10707 -1.5894 0
M  V30 2831 C 262.709 3.85443 -1.78099 0
M  V30 2832 O 263.733 3.20454 -1.55525 0
M  V30 2833 O 262.592 5.02108 -2.15753 0
M  V30 2834 H 259.686 0.773156 -0.293528 0
M  V30 2835 H 262.232 1.16164 -1.23709 0
M  V30 2836 H 261.004 2.91106 -2.61482 0
M  V30 2837 H 260.627 3.80558 -1.15157 0
M  V30 2838 N 261.624 0.925811 1.2754 0
M  V30 2839 C 262.864 0.572521 1.96218 0
M  V30 2840 C 263.228 -0.869719 1.71172 0
M  V30 2841 O 264.429 -1.33119 2.33523 0
M  V30 2842 C 262.7 0.887325 3.4621 0
M  V30 2843 S 264.259 0.642266 4.34074 0
M  V30 2844 H 261.077 0.211403 0.678845 0
M  V30 2845 H 263.679 1.19384 1.54815 0
M  V30 2846 H 262.383 1.93469 3.61936 0
M  V30 2847 H 261.914 0.255123 3.92572 0
M  V30 2848 H 263.929 -0.500822 4.93666 0
M  V30 2849 N 263.102 -1.41638 0.69111 0
M  V30 2850 C 264.35 -2.00902 0.219758 0
M  V30 2851 C 264.671 -1.54994 -1.18329 0
M  V30 2852 O 263.941 -0.778628 -1.79762 0
M  V30 2853 H 262.521 -0.74289 0.0782558 0
M  V30 2854 H 265.183 -1.73327 0.891271 0
M  V30 2855 H 264.279 -3.11224 0.233708 0
M  V30 2856 N 264.58 -0.43555 -1.51462 0
M  V30 2857 C 265.829 0.133007 -2.01261 0
M  V30 2858 C 266.142 1.43942 -1.32439 0
M  V30 2859 O 267.348 2.09081 -1.73198 0
M  V30 2860 C 265.804 0.287581 -3.58749 0
M  V30 2861 C 265.412 -1.00829 -4.36506 0
M  V30 2862 C 267.156 0.810004 -4.167 0
M  V30 2863 C 265.063 -0.819454 -5.85695 0
M  V30 2864 H 263.993 0.0534822 -0.752101 0
M  V30 2865 H 266.644 -0.565038 -1.74584 0
M  V30 2866 H 265.026 1.04859 -3.81865 0
M  V30 2867 H 266.2 -1.77749 -4.25138 0
M  V30 2868 H 264.515 -1.45911 -3.89999 0
M  V30 2869 H 267.112 0.967743 -5.2587 0
M  V30 2870 H 267.455 1.79196 -3.75758 0
M  V30 2871 H 267.988 0.107357 -3.97655 0
M  V30 2872 H 264.727 -1.77374 -6.31046 0
M  V30 2873 H 264.247 -0.0900208 -5.99732 0
M  V30 2874 H 265.926 -0.471949 -6.45276 0
M  V30 2875 N 266.058 1.56714 -0.166846 0
M  V30 2876 C 267.008 2.14338 0.777382 0
M  V30 2877 C 267.992 1.07642 1.19591 0
M  V30 2878 O 269.184 1.33775 1.15902 0
M  V30 2879 C 266.313 2.78417 2.00846 0
M  V30 2880 C 265.399 3.92264 1.61212 0
M  V30 2881 N 265.79 4.97268 0.925104 0
M  V30 2882 C 264.088 4.03342 1.90346 0
M  V30 2883 C 264.789 5.77093 0.730627 0
M  V30 2884 N 263.765 5.2854 1.27067 0
M  V30 2885 H 267.567 2.9289 0.243466 0
M  V30 2886 H 265.081 1.62364 0.0339954 0
M  V30 2887 H 267.078 3.18073 2.69509 0
M  V30 2888 H 265.738 2.01344 2.54736 0
M  V30 2889 H 266.749 5.14601 0.583646 0
M  V30 2890 H 263.426 3.37368 2.45946 0
M  V30 2891 H 264.816 6.71638 0.187668 0
M  V30 2892 N 267.536 -0.106894 1.57237 0
M  V30 2893 C 268.499 -1.11466 2.0027 0
M  V30 2894 C 269.499 -1.33623 0.894519 0
M  V30 2895 O 270.689 -1.29935 1.16028 0
M  V30 2896 C 267.821 -2.46646 2.35327 0
M  V30 2897 H 269.014 -0.744516 2.90512 0
M  V30 2898 H 266.567 -0.351576 1.52295 0
M  V30 2899 H 267.302 -2.88558 1.48003 0
M  V30 2900 H 267.087 -2.31915 3.16161 0
M  V30 2901 H 268.577 -3.19151 2.69318 0
M  V30 2902 N 269.014 -1.53014 -0.377408 0
M  V30 2903 C 270.43 -1.42523 -0.718281 0
M  V30 2904 C 270.63 -0.55487 -1.9371 0
M  V30 2905 O 269.686 -0.0327593 -2.52479 0
M  V30 2906 C 270.999 -2.85546 -0.942539 0
M  V30 2907 C 272.547 -2.95101 -1.04329 0
M  V30 2908 C 273.022 -4.3916 -1.3001 0
M  V30 2909 N 274.513 -4.42536 -1.36806 0
M  V30 2910 C 275.248 -5.51097 -1.58364 0
M  V30 2911 N 274.744 -6.69724 -1.77317 0
M  V30 2912 N 276.537 -5.38657 -1.60638 0
M  V30 2913 H 268.688 -2.08116 0.424426 0
M  V30 2914 H 270.951 -0.939352 0.127759 0
M  V30 2915 H 270.657 -3.51499 -0.118929 0
M  V30 2916 H 270.531 -3.28493 -1.85397 0
M  V30 2917 H 272.918 -2.29309 -1.85745 0
M  V30 2918 H 272.999 -2.55566 -0.109505 0
M  V30 2919 H 272.643 -5.05521 -0.490991 0
M  V30 2920 H 272.573 -4.76258 -2.24691 0
M  V30 2921 H 275.064 -3.57039 -1.23821 0
M  V30 2922 H 275.377 -7.48233 -1.93306 0
M  V30 2923 H 273.722 -6.72732 -1.74518 0
M  V30 2924 H 276.913 -4.44948 -1.45391 0
M  V30 2925 H 277.086 -6.2333 -1.77098 0
M  V30 2926 N 270.492 0.636531 -1.44174 0
M  V30 2927 C 271.402 1.77754 -1.53103 0
M  V30 2928 C 272.418 1.68928 -0.417034 0
M  V30 2929 O 273.594 1.89801 -0.6736 0
M  V30 2930 C 270.659 3.14115 -1.46741 0
M  V30 2931 C 269.72 3.34612 -2.68948 0
M  V30 2932 C 268.953 4.64467 -2.6288 0
M  V30 2933 O 269.176 5.44919 -1.68581 0
M  V30 2934 O 268.11 4.87049 -3.53648 0
M  V30 2935 H 271.936 1.73174 -2.49489 0
M  V30 2936 H 269.521 0.79709 -1.2636 0
M  V30 2937 H 271.403 3.95412 -1.45696 0
M  V30 2938 H 270.078 3.19249 -0.534975 0
M  V30 2939 H 268.985 2.53014 -2.75562 0
M  V30 2940 H 270.318 3.34336 -3.61221 0
M  V30 2941 N 271.97 1.30982 0.876444 0
M  V30 2942 C 273.216 1.21484 1.63136 0
M  V30 2943 C 273.571 -0.226339 1.91064 0
M  V30 2944 O 272.864 -1.15788 1.52656 0
M  V30 2945 C 273.058 1.98572 2.9716 0
M  V30 2946 C 272.887 3.50039 2.82317 0
M  V30 2947 C 271.657 4.19393 2.81847 0
M  V30 2948 C 273.855 4.45111 2.57644 0
M  V30 2949 N 271.837 5.57061 2.57985 0
M  V30 2950 C 273.208 5.70402 2.42986 0
M  V30 2951 C 275.263 4.3461 2.42937 0
M  V30 2952 C 273.966 6.8638 2.15115 0
M  V30 2953 C 275.992 5.50365 2.16454 0
M  V30 2954 C 275.354 6.74642 2.02578 0
M  V30 2955 H 271.453 0.499632 0.601575 0
M  V30 2956 H 274.037 1.65094 1.03209 0
M  V30 2957 H 272.208 1.5734 3.55104 0
M  V30 2958 H 273.94 1.81146 3.61895 0
M  V30 2959 H 270.695 3.71303 2.93991 0
M  V30 2960 H 271.119 6.29529 2.49043 0
M  V30 2961 H 275.761 3.39199 2.52396 0
M  V30 2962 H 273.479 7.81824 2.04394 0
M  V30 2963 H 277.065 5.44154 2.05884 0
M  V30 2964 H 275.945 7.62699 1.82374 0
M  V30 2965 N 273.449 -1.08991 1.13837 0
M  V30 2966 C 274.698 -1.80631 0.897509 0
M  V30 2967 C 275.011 -1.86872 -0.57777 0
M  V30 2968 O 276.217 -2.54866 -0.935701 0
M  V30 2969 C 274.673 -3.24517 1.55618 0
M  V30 2970 C 274.281 -3.26529 3.0673 0
M  V30 2971 C 276.025 -4.00882 1.3962 0
M  V30 2972 C 273.932 -4.64965 3.65461 0
M  V30 2973 H 272.862 -0.67691 0.332129 0
M  V30 2974 H 275.513 -1.2246 1.3666 0
M  V30 2975 H 273.895 -3.82778 1.01476 0
M  V30 2976 H 275.069 -2.78008 3.67489 0
M  V30 2977 H 273.384 -2.63656 3.22296 0
M  V30 2978 H 275.981 -5.03167 1.80906 0
M  V30 2979 H 276.324 -4.14896 0.341578 0
M  V30 2980 H 276.857 -3.49075 1.90766 0
M  V30 2981 H 273.596 -4.56153 4.70749 0
M  V30 2982 H 273.116 -5.13792 3.09481 0
M  V30 2983 H 274.795 -5.3394 3.654 0
M  V30 2984 N 274.927 -0.932562 -1.27047 0
M  V30 2985 C 276.152 -0.591474 -1.98787 0
M  V30 2986 C 276.577 0.824601 -1.69062 0
M  V30 2987 O 275.935 1.5541 -0.933677 0
M  V30 2988 C 275.983 -0.829808 -3.50922 0
M  V30 2989 O 275.087 0.102266 -4.12273 0
M  V30 2990 H 274.428 -0.227185 -0.623926 0
M  V30 2991 H 276.958 -1.25314 -1.61733 0
M  V30 2992 H 276.968 -0.747292 -4.01098 0
M  V30 2993 H 275.643 -1.86201 -3.7189 0
M  V30 2994 H 274.22 -0.0305761 -3.72887 0
M  V30 2995 N 276.405 1.4127 -0.698611 0
M  V30 2996 C 277.816 1.84187 -0.305289 0
M  V30 2997 C 278.167 1.58449 1.15708 0
M  V30 2998 O 277.292 1.05651 1.88856 0
M  V30 2999 C 277.887 3.3435 -0.547314 0
M  V30 3000 C 276.446 3.75826 -0.207878 0
M  V30 3001 C 275.593 2.64647 -0.828099 0
M  V30 3002 H 278.544 1.30778 -0.89904 0
M  V30 3003 H 278.565 3.8001 0.192998 0
M  V30 3004 H 278.077 3.53051 -1.61172 0
M  V30 3005 H 276.178 3.62725 0.852143 0
M  V30 3006 H 276.291 4.74462 -0.665021 0
M  V30 3007 H 274.655 2.53395 -0.257458 0
M  V30 3008 H 275.438 2.86165 -1.89643 0
M  V30 3009 N 277.883 0.443576 1.51229 0
M  V30 3010 C 278.846 -0.353132 2.26463 0
M  V30 3011 C 279.846 -0.944338 1.3015 0
M  V30 3012 O 281.036 -0.817813 1.5381 0
M  V30 3013 C 278.168 -1.50023 3.06114 0
M  V30 3014 H 279.361 0.3063 2.98332 0
M  V30 3015 H 276.914 0.196902 1.55055 0
M  V30 3016 H 277.649 -2.19553 2.38677 0
M  V30 3017 H 277.434 -1.08241 3.76864 0
M  V30 3018 H 278.924 -2.06296 3.63087 0
M  V30 3019 N 279.361 -1.56624 0.175154 0
M  V30 3020 C 280.608 -1.96999 -0.468811 0
M  V30 3021 C 280.936 -1.06129 -1.62994 0
M  V30 3022 O 280.191 -0.0961771 -1.95464 0
M  V30 3023 C 280.49 -3.43419 -0.989864 0
M  V30 3024 C 280.156 -4.50866 0.0557687 0
M  V30 3025 C 278.818 -4.79975 0.343134 0
M  V30 3026 C 281.17 -5.15551 0.765308 0
M  V30 3027 C 278.498 -5.71066 1.34536 0
M  V30 3028 C 280.85 -6.07724 1.75654 0
M  V30 3029 C 279.514 -6.35199 2.05132 0
M  V30 3030 H 278.784 -0.720869 -0.17155 0
M  V30 3031 H 281.431 -1.89616 0.267924 0
M  V30 3032 H 279.736 -3.47772 -1.80449 0
M  V30 3033 H 281.433 -3.72002 -1.49719 0
M  V30 3034 H 278.023 -4.28229 -0.178381 0
M  V30 3035 H 282.207 -4.9317 0.556513 0
M  V30 3036 H 277.463 -5.90635 1.57988 0
M  V30 3037 H 281.637 -6.56912 2.31169 0
M  V30 3038 H 279.264 -7.05584 2.8294 0
M  V30 3039 N 280.839 0.0985539 -1.57292 0
M  V30 3040 C 282.079 0.808332 -1.87737 0
M  V30 3041 C 282.443 1.7607 -0.76572 0
M  V30 3042 O 283.644 2.51358 -0.952499 0
M  V30 3043 C 281.915 1.52093 -3.23423 0
M  V30 3044 S 283.474 2.26947 -3.75554 0
M  V30 3045 H 280.292 0.269377 -0.657995 0
M  V30 3046 H 282.894 0.0656269 -1.9539 0
M  V30 3047 H 281.598 0.81363 -4.02254 0
M  V30 3048 H 281.129 2.30361 -3.189 0
M  V30 3049 H 283.144 3.53027 -3.48692 0
M  V30 3050 N 282.317 1.53212 0.369288 0
M  V30 3051 C 283.247 1.82365 1.45826 0
M  V30 3052 C 284.228 0.676907 1.56051 0
M  V30 3053 O 285.413 0.926401 1.70679 0
M  V30 3054 C 282.543 2.01023 2.83208 0
M  V30 3055 C 281.497 3.1678 2.8781 0
M  V30 3056 C 280.823 3.20724 4.27832 0
M  V30 3057 C 282.123 4.55447 2.55667 0
M  V30 3058 H 283.817 2.73559 1.21678 0
M  V30 3059 H 281.363 1.3163 0.583911 0
M  V30 3060 H 283.316 2.20001 3.59413 0
M  V30 3061 H 282.04 1.06536 3.08736 0
M  V30 3062 H 280.699 2.97616 2.14056 0
M  V30 3063 H 280.347 2.23882 4.50429 0
M  V30 3064 H 280.047 3.98496 4.31827 0
M  V30 3065 H 281.571 3.41881 5.05915 0
M  V30 3066 H 282.985 4.74611 3.21586 0
M  V30 3067 H 281.382 5.35432 2.70984 0
M  V30 3068 H 282.452 4.60812 1.5093 0
M  V30 3069 N 283.795 -0.628877 1.44509 0
M  V30 3070 C 285.041 -1.38863 1.48623 0
M  V30 3071 C 285.396 -1.92038 0.117933 0
M  V30 3072 O 284.689 -1.70853 -0.86716 0
M  V30 3073 C 284.883 -2.56995 2.48371 0
M  V30 3074 C 284.712 -2.15385 3.94765 0
M  V30 3075 C 283.482 -2.02558 4.62924 0
M  V30 3076 C 285.68 -1.74158 4.83915 0
M  V30 3077 N 283.662 -1.54534 5.94132 0
M  V30 3078 C 285.033 -1.37396 6.04584 0
M  V30 3079 C 287.088 -1.61559 4.7096 0
M  V30 3080 C 285.791 -0.892948 7.13736 0
M  V30 3081 C 287.817 -1.14862 5.80139 0
M  V30 3082 C 287.179 -0.790516 6.9995 0
M  V30 3083 H 283.278 -0.502858 0.59888 0
M  V30 3084 H 285.862 -0.72121 1.8085 0
M  V30 3085 H 284.033 -3.21362 2.1813 0
M  V30 3086 H 285.765 -3.23801 2.42766 0
M  V30 3087 H 282.52 -2.23082 4.1777 0
M  V30 3088 H 282.944 -1.32815 6.63844 0
M  V30 3089 H 287.586 -1.87876 3.78764 0
M  V30 3090 H 285.304 -0.617291 8.05739 0
M  V30 3091 H 288.89 -1.05569 5.72142 0
M  V30 3092 H 287.77 -0.434713 7.82994 0
M  V30 3093 N 285.273 -1.31445 -0.869486 0
M  V30 3094 C 286.52 -1.21158 -1.62256 0
M  V30 3095 C 286.848 0.230155 -1.93133 0
M  V30 3096 O 286.103 1.17906 -1.56194 0
M  V30 3097 C 286.402 -2.00145 -2.96102 0
M  V30 3098 C 286.068 -3.4964 -2.84715 0
M  V30 3099 C 284.73 -3.90403 -2.81317 0
M  V30 3100 C 287.082 -4.44769 -2.71716 0
M  V30 3101 C 284.41 -5.24561 -2.62778 0
M  V30 3102 C 286.762 -5.79054 -2.54714 0
M  V30 3103 C 285.426 -6.19037 -2.49699 0
M  V30 3104 H 284.696 -0.443348 -0.593737 0
M  V30 3105 H 287.343 -1.62715 -1.00976 0
M  V30 3106 H 285.648 -1.5127 -3.6142 0
M  V30 3107 H 287.345 -1.89566 -3.53363 0
M  V30 3108 H 283.935 -3.17256 -2.88178 0
M  V30 3109 H 288.119 -4.14208 -2.73397 0
M  V30 3110 H 283.375 -5.54613 -2.57321 0
M  V30 3111 H 287.549 -6.52393 -2.43632 0
M  V30 3112 H 285.176 -7.22935 -2.35093 0
M  V30 3113 N 286.751 1.08385 -1.14413 0
M  V30 3114 C 288 1.80153 -0.907076 0
M  V30 3115 C 288.313 1.87176 0.567851 0
M  V30 3116 O 289.519 2.55359 0.922172 0
M  V30 3117 C 287.975 3.23687 -1.57336 0
M  V30 3118 C 287.583 3.24897 -3.08457 0
M  V30 3119 C 289.327 4.00136 -1.41744 0
M  V30 3120 C 287.234 4.6302 -3.67921 0
M  V30 3121 H 286.164 0.675139 -0.335714 0
M  V30 3122 H 288.815 1.21733 -1.37307 0
M  V30 3123 H 287.197 3.82234 -1.03505 0
M  V30 3124 H 288.371 2.76055 -3.68958 0
M  V30 3125 H 286.686 2.61943 -3.2369 0
M  V30 3126 H 289.283 5.02201 -1.83572 0
M  V30 3127 H 289.626 4.14709 -0.363576 0
M  V30 3128 H 290.159 3.48058 -1.92614 0
M  V30 3129 H 286.898 4.5365 -4.73161 0
M  V30 3130 H 286.418 5.12143 -3.12201 0
M  V30 3131 H 288.097 5.31994 -3.68227 0
M  V30 3132 N 288.23 0.939286 1.26551 0
M  V30 3133 C 289.478 0.58469 1.93457 0
M  V30 3134 C 289.799 -0.878774 1.74076 0
M  V30 3135 O 289.069 -1.62421 1.09528 0
M  V30 3136 H 287.649 0.21325 0.715914 0
M  V30 3137 H 290.311 1.1942 1.54029 0
M  V30 3138 H 289.407 0.800849 3.0165 0
M  V30 3139 N 289.708 -1.40897 0.706093 0
M  V30 3140 C 290.658 -2.27987 0.0240746 0
M  V30 3141 C 291.642 -1.42759 -0.742204 0
M  V30 3142 O 292.834 -1.65936 -0.615966 0
M  V30 3143 C 289.963 -3.31186 -0.903907 0
M  V30 3144 C 289.049 -4.2389 -0.133318 0
M  V30 3145 N 289.44 -4.98113 0.878444 0
M  V30 3146 C 287.738 -4.44485 -0.367269 0
M  V30 3147 C 288.439 -5.6604 1.34064 0
M  V30 3148 N 287.415 -5.39522 0.664565 0
M  V30 3149 H 291.217 -2.82812 0.799658 0
M  V30 3150 H 288.731 -1.53235 0.537845 0
M  V30 3151 H 290.728 -3.92413 -1.40775 0
M  V30 3152 H 289.388 -2.77922 -1.67897 0
M  V30 3153 H 290.399 -5.02364 1.25901 0
M  V30 3154 H 287.076 -4.02213 -1.1194 0
M  V30 3155 H 288.466 -6.35524 2.1808 0
M  V30 3156 N 291.186 -0.45159 -1.50991 0
M  V30 3157 C 292.435 0.111653 -2.01391 0
M  V30 3158 C 292.748 1.42529 -1.33959 0
M  V30 3159 O 293.954 2.07232 -1.75405 0
M  V30 3160 C 292.41 0.249514 -3.59034 0
M  V30 3161 C 292.018 -1.05453 -4.35412 0
M  V30 3162 C 293.762 0.765762 -4.17536 0
M  V30 3163 C 291.669 -0.881529 -5.84793 0
M  V30 3164 H 290.599 0.0455022 -0.752626 0
M  V30 3165 H 293.25 -0.583524 -1.73975 0
M  V30 3166 H 291.632 1.00803 -3.82955 0
M  V30 3167 H 292.806 -1.82248 -4.23229 0
M  V30 3168 H 291.121 -1.50039 -3.88429 0
M  V30 3169 H 293.718 0.911913 -5.26866 0
M  V30 3170 H 294.061 1.75201 -3.77638 0
M  V30 3171 H 294.594 0.0651744 -3.97747 0
M  V30 3172 H 291.333 -1.84057 -6.29129 0
M  V30 3173 H 290.853 -0.153625 -5.99603 0
M  V30 3174 H 292.532 -0.540363 -6.4474 0
M  V30 3175 N 292.664 1.56529 -0.183458 0
M  V30 3176 C 293.892 2.01623 0.464285 0
M  V30 3177 C 294.307 1.06366 1.55986 0
M  V30 3178 O 293.664 0.0665398 1.82379 0
M  V30 3179 C 293.715 3.46475 1.03139 0
M  V30 3180 O 293.436 4.38095 -0.0204675 0
M  V30 3181 C 294.937 4.0703 1.75617 0
M  V30 3182 H 292.157 0.660596 0.117704 0
M  V30 3183 H 294.701 2.02451 -0.288751 0
M  V30 3184 H 292.856 3.46383 1.73486 0
M  V30 3185 H 293.27 5.22973 0.399952 0
M  V30 3186 H 294.744 5.10271 2.10542 0
M  V30 3187 H 295.221 3.49819 2.65563 0
M  V30 3188 H 295.827 4.1086 1.09882 0
M  V30 3189 N 294.142 -0.090211 1.57342 0
M  V30 3190 C 295.074 -1.13541 1.99101 0
M  V30 3191 C 296.087 -1.3604 0.894258 0
M  V30 3192 O 297.276 -1.34606 1.17233 0
M  V30 3193 C 294.376 -2.49001 2.29895 0
M  V30 3194 C 293.549 -2.46712 3.61182 0
M  V30 3195 C 292.608 -3.64136 3.79857 0
M  V30 3196 O 291.634 -3.46405 4.51655 0
M  V30 3197 N 292.836 -4.83802 3.20806 0
M  V30 3198 H 295.601 -0.779942 2.89373 0
M  V30 3199 H 293.162 -0.279125 1.59476 0
M  V30 3200 H 295.154 -3.26166 2.39578 0
M  V30 3201 H 293.724 -2.76619 1.45605 0
M  V30 3202 H 292.944 -1.55058 3.62423 0
M  V30 3203 H 294.232 -2.42265 4.4742 0
M  V30 3204 H 293.63 -5.01112 2.62494 0
M  V30 3205 H 292.187 -5.58543 3.35966 0
M  V30 3206 N 295.62 -1.53406 -0.361157 0
M  V30 3207 C 296.867 -1.69802 -1.10333 0
M  V30 3208 C 297.195 -0.452087 -1.89173 0
M  V30 3209 O 296.45 0.566017 -1.87336 0
M  V30 3210 C 296.749 -2.90211 -2.08596 0
M  V30 3211 C 296.415 -4.26539 -1.46203 0
M  V30 3212 C 295.077 -4.6361 -1.28915 0
M  V30 3213 C 297.429 -5.113 -1.01101 0
M  V30 3214 C 294.757 -5.83075 -0.651157 0
M  V30 3215 C 297.109 -6.31415 -0.387007 0
M  V30 3216 C 295.773 -6.67195 -0.201657 0
M  V30 3217 H 295.043 -0.621351 -0.403737 0
M  V30 3218 H 297.69 -1.87598 -0.384609 0
M  V30 3219 H 295.995 -2.66946 -2.86788 0
M  V30 3220 H 297.692 -3.00091 -2.65982 0
M  V30 3221 H 294.282 -3.97352 -1.60653 0
M  V30 3222 H 298.466 -4.83206 -1.13249 0
M  V30 3223 H 293.722 -6.09385 -0.496006 0
M  V30 3224 H 297.896 -6.96394 -0.0293563 0
M  V30 3225 H 295.523 -7.59628 0.294766 0
M  V30 3226 N 297.098 0.621204 -1.44841 0
M  V30 3227 C 298.328 1.40548 -1.51426 0
M  V30 3228 C 298.736 1.88673 -0.141083 0
M  V30 3229 O 298.079 1.62053 0.865128 0
M  V30 3230 C 298.141 2.65325 -2.42576 0
M  V30 3231 C 297.805 2.3893 -3.89566 0
M  V30 3232 C 298.802 2.00138 -4.79834 0
M  V30 3233 C 296.487 2.52263 -4.3436 0
M  V30 3234 C 298.481 1.75021 -6.129 0
M  V30 3235 C 296.168 2.2676 -5.67471 0
M  V30 3236 C 297.166 1.88199 -6.56559 0
M  V30 3237 O 296.854 1.62986 -7.87204 0
M  V30 3238 H 296.586 0.437122 -0.515655 0
M  V30 3239 H 299.14 0.765987 -1.90583 0
M  V30 3240 H 297.37 3.31947 -1.98364 0
M  V30 3241 H 299.059 3.27347 -2.39998 0
M  V30 3242 H 299.825 1.89386 -4.46495 0
M  V30 3243 H 295.704 2.81246 -3.65269 0
M  V30 3244 H 299.248 1.44848 -6.82396 0
M  V30 3245 H 295.145 2.37125 -6.00368 0
M  V30 3246 H 295.913 1.7715 -7.991 0
M  V30 3247 N 298.576 1.31904 0.862503 0
M  V30 3248 C 299.824 1.21776 1.61292 0
M  V30 3249 C 300.145 -0.222413 1.93727 0
M  V30 3250 O 299.415 -1.1451 1.58947 0
M  V30 3251 H 297.995 0.447717 0.597962 0
M  V30 3252 H 300.657 1.65326 1.03215 0
M  V30 3253 H 299.753 1.7948 2.5533 0
M  V30 3254 N 300.054 -1.07777 1.14986 0
M  V30 3255 C 301.303 -1.79669 0.916617 0
M  V30 3256 C 301.616 -1.87474 -0.557917 0
M  V30 3257 O 302.822 -2.55845 -0.908617 0
M  V30 3258 C 301.278 -3.22848 1.59051 0
M  V30 3259 C 300.886 -3.23257 3.10176 0
M  V30 3260 C 302.63 -3.99379 1.43864 0
M  V30 3261 C 300.537 -4.61063 3.70372 0
M  V30 3262 H 299.467 -0.673349 0.33929 0
M  V30 3263 H 302.118 -1.21003 1.37951 0
M  V30 3264 H 300.5 -3.8168 1.0553 0
M  V30 3265 H 301.674 -2.74095 3.70417 0
M  V30 3266 H 299.989 -2.60222 3.25074 0
M  V30 3267 H 302.586 -5.0122 1.86232 0
M  V30 3268 H 302.929 -4.14511 0.385564 0
M  V30 3269 H 303.462 -3.47032 1.94457 0
M  V30 3270 H 300.201 -4.51135 4.7556 0
M  V30 3271 H 299.721 -5.1048 3.14913 0
M  V30 3272 H 301.4 -5.30034 3.71043 0
M  V30 3273 N 301.532 -0.945985 -1.26051 0
M  V30 3274 C 302.781 -0.591836 -1.92822 0
M  V30 3275 C 303.094 0.873956 -1.7499 0
M  V30 3276 O 304.3 1.33769 -2.36259 0
M  V30 3277 C 302.756 -1.00776 -3.45503 0
M  V30 3278 C 302.364 -2.4955 -3.7206 0
M  V30 3279 C 304.108 -0.725735 -4.1825 0
M  V30 3280 C 302.015 -2.84988 -5.18205 0
M  V30 3281 H 300.945 -0.217635 -0.721908 0
M  V30 3282 H 303.596 -1.14927 -1.43052 0
M  V30 3283 H 301.978 -0.378812 -3.94184 0
M  V30 3284 H 303.152 -3.1739 -3.34066 0
M  V30 3285 H 301.467 -2.75133 -3.12555 0
M  V30 3286 H 304.064 -0.966771 -5.25887 0
M  V30 3287 H 304.407 0.337639 -4.14929 0
M  V30 3288 H 304.94 -1.31463 -3.7545 0
M  V30 3289 H 301.679 -3.90307 -5.26631 0
M  V30 3290 H 301.199 -2.21813 -5.57278 0
M  V30 3291 H 302.878 -2.73712 -5.86252 0
M  V30 3292 N 303.011 1.40521 -0.713556 0
M  V30 3293 C 304.259 2.00527 -0.251692 0
M  V30 3294 C 304.58 1.56857 1.15848 0
M  V30 3295 O 303.85 0.807127 1.785 0
M  V30 3296 H 302.43 0.741551 -0.0900646 0
M  V30 3297 H 305.092 1.71887 -0.918733 0
M  V30 3298 H 304.188 3.10813 -0.283192 0
M  V30 3299 N 304.489 0.459591 1.5075 0
M  V30 3300 C 305.421 -0.37665 2.26084 0
M  V30 3301 C 306.434 -0.967109 1.30961 0
M  V30 3302 O 307.623 -0.857468 1.56556 0
M  V30 3303 C 304.723 -1.54112 3.01832 0
M  V30 3304 C 303.896 -1.06553 4.24223 0
M  V30 3305 C 302.955 -2.1027 4.82362 0
M  V30 3306 O 301.981 -1.68798 5.43595 0
M  V30 3307 N 303.183 -3.42974 4.68347 0
M  V30 3308 H 305.948 0.269124 2.98489 0
M  V30 3309 H 303.509 0.28972 1.59287 0
M  V30 3310 H 305.501 -2.23165 3.37608 0
M  V30 3311 H 304.071 -2.0918 2.32298 0
M  V30 3312 H 303.291 -0.201274 3.93686 0
M  V30 3313 H 304.579 -0.725516 5.03601 0
M  V30 3314 H 303.977 -3.79385 4.19623 0
M  V30 3315 H 302.534 -4.07858 5.08424 0
M  V30 3316 N 305.967 -1.56429 0.191757 0
M  V30 3317 C 307.197 -2.01574 -0.452928 0
M  V30 3318 C 307.605 -1.07107 -1.55964 0
M  V30 3319 O 306.948 -0.067534 -1.83576 0
M  V30 3320 C 307.01 -3.43121 -1.07278 0
M  V30 3321 C 306.674 -4.56879 -0.105214 0
M  V30 3322 C 307.671 -5.15379 0.684149 0
M  V30 3323 C 305.356 -5.023 0.00489824 0
M  V30 3324 C 307.35 -6.17746 1.57062 0
M  V30 3325 C 305.037 -6.04511 0.894935 0
M  V30 3326 C 306.035 -6.62108 1.67637 0
M  V30 3327 O 305.723 -7.62335 2.55149 0
M  V30 3328 H 305.455 -0.665554 -0.118379 0
M  V30 3329 H 308.009 -2.03245 0.296737 0
M  V30 3330 H 306.239 -3.38425 -1.87097 0
M  V30 3331 H 307.928 -3.72093 -1.62177 0
M  V30 3332 H 308.694 -4.81157 0.609365 0
M  V30 3333 H 304.573 -4.57168 -0.593156 0
M  V30 3334 H 308.117 -6.6263 2.181 0
M  V30 3335 H 304.014 -6.38157 0.970847 0
M  V30 3336 H 304.782 -7.79741 2.48892 0
M  V30 3337 N 307.445 0.0818655 -1.57387 0
M  V30 3338 C 308.673 0.796108 -1.9097 0
M  V30 3339 C 309.088 1.71626 -0.786757 0
M  V30 3340 O 308.445 1.80908 0.240513 0
M  V30 3341 C 308.496 1.59829 -3.24248 0
M  V30 3342 O 308.217 0.715131 -4.32224 0
M  V30 3343 C 309.718 2.41442 -3.7178 0
M  V30 3344 H 306.938 0.22691 -0.631469 0
M  V30 3345 H 309.482 0.0551439 -2.04426 0
M  V30 3346 H 307.637 2.29163 -3.12351 0
M  V30 3347 H 308.051 1.27205 -5.08841 0
M  V30 3348 H 309.525 2.932 -4.67694 0
M  V30 3349 H 310.002 3.2051 -3.00283 0
M  V30 3350 H 310.608 1.77283 -3.86589 0
M  V30 3351 N 308.923 1.53595 0.353017 0
M  V30 3352 C 309.871 1.81605 1.45335 0
M  V30 3353 C 310.865 0.685923 1.54892 0
M  V30 3354 O 312.071 0.869095 1.57628 0
M  V30 3355 H 308.446 0.575204 0.484401 0
M  V30 3356 H 310.417 2.73679 1.18921 0
M  V30 3357 C 309.166 2.03406 2.81995 0
M  V30 3358 H 308.489 2.89814 2.75405 0
M  V30 3359 H 309.929 2.26975 3.58132 0
M  V30 3360 C 308.388 0.816794 3.26849 0
M  V30 3361 O 308.918 0.0115856 4.01698 0
M  V30 3362 N 307.124 0.636682 2.8354 0
M  V30 3363 H 306.671 1.2931 2.22793 0
M  V30 3364 H 306.629 -0.176336 3.13905 0
M  V30 3365 N 310.401 -0.613514 1.45168 0
M  V30 3366 C 311.331 -1.7354 1.56225 0
M  V30 3367 C 312.312 -1.64981 0.41414 0
M  V30 3368 O 313.497 -1.83472 0.636526 0
M  V30 3369 C 310.627 -3.12128 1.52295 0
M  V30 3370 C 309.581 -3.35491 2.65762 0
M  V30 3371 C 308.907 -4.74291 2.46885 0
M  V30 3372 C 310.207 -3.26325 4.0781 0
M  V30 3373 H 311.901 -1.64543 2.50132 0
M  V30 3374 H 309.447 -0.790185 1.20383 0
M  V30 3375 H 311.4 -3.90404 1.58628 0
M  V30 3376 H 310.124 -3.2195 0.549139 0
M  V30 3377 H 308.783 -2.59603 2.58847 0
M  V30 3378 H 308.431 -4.80839 1.47657 0
M  V30 3379 H 308.131 -4.9088 3.22972 0
M  V30 3380 H 309.655 -5.54775 2.55063 0
M  V30 3381 H 311.069 -3.94483 4.16 0
M  V30 3382 H 309.466 -3.54445 4.8424 0
M  V30 3383 H 310.536 -2.23855 4.30136 0
M  V30 3384 N 311.879 -1.3236 -0.855495 0
M  V30 3385 C 312.809 -1.23833 -1.97958 0
M  V30 3386 C 313.79 -0.122361 -1.69659 0
M  V30 3387 O 314.975 -0.30939 -1.9172 0
M  V30 3388 C 312.105 -0.959772 -3.33775 0
M  V30 3389 C 311.059 -2.03689 -3.76424 0
M  V30 3390 C 310.385 -1.61075 -5.09862 0
M  V30 3391 C 311.685 -3.4518 -3.9198 0
M  V30 3392 H 313.379 -2.1788 -2.0535 0
M  V30 3393 H 310.925 -1.04891 -0.986605 0
M  V30 3394 H 312.878 -0.886678 -4.11966 0
M  V30 3395 H 311.602 0.0163404 -3.26596 0
M  V30 3396 H 310.261 -2.10012 -3.00484 0
M  V30 3397 H 309.909 -0.622107 -4.99138 0
M  V30 3398 H 309.609 -2.33143 -5.39368 0
M  V30 3399 H 311.133 -1.55201 -5.90546 0
M  V30 3400 H 312.547 -3.4145 -4.60526 0
M  V30 3401 H 310.944 -4.1559 -4.32903 0
M  V30 3402 H 312.014 -3.84903 -2.94919 0
M  V30 3403 N 313.357 1.07166 -1.15556 0
M  V30 3404 C 314.773 1.31899 -0.898603 0
M  V30 3405 C 314.973 1.96333 0.453383 0
M  V30 3406 O 314.029 2.22438 1.19489 0
M  V30 3407 C 315.342 2.20826 -2.04099 0
M  V30 3408 C 316.89 2.34269 -2.07574 0
M  V30 3409 C 317.365 3.26546 -3.21141 0
M  V30 3410 N 318.856 3.34127 -3.20801 0
M  V30 3411 C 319.591 4.05595 -4.05315 0
M  V30 3412 N 319.087 4.79661 -4.99897 0
M  V30 3413 N 320.88 4.01555 -3.93332 0
M  V30 3414 H 313.031 0.637302 -2.02613 0
M  V30 3415 H 315.294 0.343468 -0.883591 0
M  V30 3416 H 315 1.80744 -3.01703 0
M  V30 3417 H 314.874 3.21364 -1.97496 0
M  V30 3418 H 317.261 2.73603 -1.10568 0
M  V30 3419 H 317.342 1.33429 -2.18244 0
M  V30 3420 H 316.986 2.87931 -4.184 0
M  V30 3421 H 316.916 4.27345 -3.07708 0
M  V30 3422 H 319.407 2.81336 -2.52306 0
M  V30 3423 H 319.72 5.31694 -5.60822 0
M  V30 3424 H 318.065 4.78671 -5.03884 0
M  V30 3425 H 321.256 3.42806 -3.18751 0
M  V30 3426 H 321.429 4.56987 -4.5942 0
M  V30 3427 N 314.835 0.952656 1.25548 0
M  V30 3428 C 315.765 0.489287 2.28316 0
M  V30 3429 C 316.746 -0.463359 1.63667 0
M  V30 3430 O 317.931 -0.36274 1.90782 0
M  V30 3431 C 315.061 -0.235603 3.465 0
M  V30 3432 C 314.015 0.631593 4.23314 0
M  V30 3433 C 313.341 -0.223923 5.34231 0
M  V30 3434 C 314.641 1.90871 4.86174 0
M  V30 3435 H 316.335 1.34822 2.67326 0
M  V30 3436 H 313.881 0.649728 1.28509 0
M  V30 3437 H 315.834 -0.570882 4.17515 0
M  V30 3438 H 314.558 -1.12877 3.06474 0
M  V30 3439 H 313.217 0.949929 3.54079 0
M  V30 3440 H 312.865 -1.11678 4.90446 0
M  V30 3441 H 312.565 0.35299 5.86539 0
M  V30 3442 H 314.089 -0.554214 6.0808 0
M  V30 3443 H 315.503 1.63997 5.49343 0
M  V30 3444 H 313.9 2.43112 5.4865 0
M  V30 3445 H 314.97 2.61304 4.08471 0
M  V30 3446 N 316.313 -1.40141 0.720998 0
M  V30 3447 C 317.559 -2.01084 0.263231 0
M  V30 3448 C 317.892 -1.57052 -1.14229 0
M  V30 3449 O 317.167 -0.793027 -1.77599 0
M  V30 3450 C 317.45 -3.58401 0.349344 0
M  V30 3451 C 317.303 -4.12491 1.79363 0
M  V30 3452 C 318.622 -4.39231 -0.276351 0
M  V30 3453 H 315.741 -0.730572 0.0971228 0
M  V30 3454 H 318.383 -1.66543 0.914518 0
M  V30 3455 H 316.533 -3.87958 -0.205165 0
M  V30 3456 H 318.205 -3.93711 2.40394 0
M  V30 3457 H 316.448 -3.66576 2.31958 0
M  V30 3458 H 317.119 -5.21646 1.80524 0
M  V30 3459 H 319.595 -4.15637 0.196184 0
M  V30 3460 H 318.471 -5.48586 -0.185681 0
M  V30 3461 H 318.732 -4.20643 -1.36059 0
M  V30 3462 N 317.792 -0.46758 -1.50504 0
M  V30 3463 C 319.069 0.15003 -1.95024 0
M  V30 3464 C 319.449 1.57304 -1.40779 0
M  V30 3465 O 318.797 2.20281 -0.607319 0
M  V30 3466 C 319.007 0.0969324 -3.48865 0
M  V30 3467 C 320.355 0.287565 -4.23625 0
M  V30 3468 O 321.379 0.173678 -3.55776 0
M  V30 3469 O 320.238 0.517186 -5.44047 0
M  V30 3470 H 317.332 0.113582 -0.819163 0
M  V30 3471 H 319.878 -0.52773 -1.61286 0
M  V30 3472 H 318.65 -0.896732 -3.80886 0
M  V30 3473 H 318.273 0.816303 -3.8913 0
M  V30 3474 N 319.27 1.56325 -0.20005 0
M  V30 3475 C 320.517 1.97719 0.437411 0
M  V30 3476 C 320.845 1.08709 1.61284 0
M  V30 3477 O 320.1 0.127261 1.95286 0
M  V30 3478 C 320.399 3.4495 0.935103 0
M  V30 3479 C 320.065 4.5072 -0.12749 0
M  V30 3480 C 318.727 4.79368 -0.419451 0
M  V30 3481 C 321.079 5.14268 -0.847231 0
M  V30 3482 C 318.407 5.68854 -1.43604 0
M  V30 3483 C 320.759 6.04852 -1.85301 0
M  V30 3484 C 319.423 6.31855 -2.15211 0
M  V30 3485 H 318.693 0.723507 0.16006 0
M  V30 3486 H 321.34 1.89166 -0.298056 0
M  V30 3487 H 319.645 3.50599 1.74894 0
M  V30 3488 H 321.342 3.74337 1.43781 0
M  V30 3489 H 317.932 4.28458 0.11023 0
M  V30 3490 H 322.116 4.92222 -0.634901 0
M  V30 3491 H 317.372 5.88047 -1.67364 0
M  V30 3492 H 321.546 6.53152 -2.41591 0
M  V30 3493 H 319.173 7.00994 -2.94129 0
M  V30 3494 N 320.748 -0.0735177 1.57428 0
M  V30 3495 C 321.978 -0.78483 1.91112 0
M  V30 3496 C 322.386 -1.71729 0.7941 0
M  V30 3497 O 321.729 -1.82105 -0.241542 0
M  V30 3498 C 321.791 -1.63346 3.20247 0
M  V30 3499 C 321.455 -0.870557 4.48632 0
M  V30 3500 C 322.452 -0.19058 5.19551 0
M  V30 3501 C 320.137 -0.838242 4.95256 0
M  V30 3502 C 322.131 0.511503 6.35344 0
M  V30 3503 C 319.818 -0.132386 6.10957 0
M  V30 3504 C 320.816 0.541288 6.80852 0
M  V30 3505 O 320.504 1.23578 7.94345 0
M  V30 3506 H 320.236 -0.228408 0.636244 0
M  V30 3507 H 322.79 -0.0486039 2.05342 0
M  V30 3508 H 321.02 -2.41245 3.02222 0
M  V30 3509 H 322.709 -2.22329 3.39595 0
M  V30 3510 H 323.475 -0.206864 4.84559 0
M  V30 3511 H 319.354 -1.35206 4.40727 0
M  V30 3512 H 322.898 1.03789 6.89836 0
M  V30 3513 H 318.795 -0.114023 6.45399 0
M  V30 3514 H 319.563 1.14487 8.10454 0
M  V30 3515 N 322.226 -1.5378 -0.344866 0
M  V30 3516 C 323.472 -1.71216 -1.08687 0
M  V30 3517 C 323.805 -0.473281 -1.88345 0
M  V30 3518 O 323.08 0.52968 -1.87149 0
M  V30 3519 C 323.363 -2.97486 -2.02914 0
M  V30 3520 C 323.216 -4.31579 -1.26727 0
M  V30 3521 C 324.535 -3.19422 -3.0275 0
M  V30 3522 H 321.654 -0.62301 -0.393735 0
M  V30 3523 H 324.296 -1.8645 -0.365563 0
M  V30 3524 H 322.446 -2.84629 -2.64421 0
M  V30 3525 H 324.118 -4.56284 -0.67845 0
M  V30 3526 H 322.361 -4.30049 -0.569273 0
M  V30 3527 H 323.032 -5.16106 -1.95803 0
M  V30 3528 H 325.508 -3.316 -2.51357 0
M  V30 3529 H 324.384 -4.09169 -3.65885 0
M  V30 3530 H 324.645 -2.35656 -3.74057 0
M  V30 3531 N 323.704 0.605807 -1.45491 0
M  V30 3532 C 324.637 1.73022 -1.48791 0
M  V30 3533 C 325.615 1.58917 -0.344112 0
M  V30 3534 O 326.799 1.80453 -0.544876 0
M  V30 3535 C 323.926 3.10865 -1.34463 0
M  V30 3536 C 322.972 3.43554 -2.5273 0
M  V30 3537 S 323.805 3.38196 -4.15191 0
M  V30 3538 C 324.961 4.78616 -4.03333 0
M  V30 3539 H 325.194 1.69961 -2.43928 0
M  V30 3540 H 322.727 0.782611 -1.33096 0
M  V30 3541 H 324.685 3.90398 -1.26884 0
M  V30 3542 H 323.346 3.1144 -0.40794 0
M  V30 3543 H 322.539 4.43924 -2.38637 0
M  V30 3544 H 322.141 2.71541 -2.5718 0
M  V30 3545 H 324.433 5.68463 -3.68587 0
M  V30 3546 H 325.376 4.97767 -5.03621 0
M  V30 3547 H 325.784 4.54381 -3.34959 0
M  V30 3548 N 325.182 1.32811 0.848464 0
M  V30 3549 C 326.593 1.21315 1.41914 0
M  V30 3550 C 326.944 -0.171847 1.95446 0
M  V30 3551 O 326.069 -1.07093 1.88043 0
M  V30 3552 C 326.664 2.19631 2.57968 0
M  V30 3553 C 325.223 2.12003 3.11017 0
M  V30 3554 C 324.37 2.07651 1.83783 0
M  V30 3555 H 327.321 1.44549 0.655071 0
M  V30 3556 H 327.342 1.79845 3.35315 0
M  V30 3557 H 326.854 3.20423 2.18976 0
M  V30 3558 H 324.955 1.14481 3.54577 0
M  V30 3559 H 325.068 3.02111 3.71841 0
M  V30 3560 H 323.432 1.52983 2.03638 0
M  V30 3561 H 324.215 3.10235 1.47 0
M  V30 3562 N 326.66 -1.06551 1.16123 0
M  V30 3563 C 327.906 -1.79567 0.94252 0
M  V30 3564 C 328.239 -1.86869 -0.528547 0
M  V30 3565 O 327.514 -1.35838 -1.39206 0
M  V30 3566 C 327.797 -3.24195 1.56747 0
M  V30 3567 C 327.65 -3.24989 3.10969 0
M  V30 3568 C 328.969 -4.21678 1.25998 0
M  V30 3569 H 326.088 -0.651883 0.343828 0
M  V30 3570 H 328.73 -1.2463 1.43413 0
M  V30 3571 H 326.88 -3.71107 1.14942 0
M  V30 3572 H 328.552 -2.86258 3.61737 0
M  V30 3573 H 326.795 -2.63716 3.44436 0
M  V30 3574 H 327.466 -4.27005 3.49815 0
M  V30 3575 H 329.942 -3.83196 1.62174 0
M  V30 3576 H 328.818 -5.21146 1.7233 0
M  V30 3577 H 329.079 -4.4174 0.178367 0
M  V30 3578 N 328.138 -0.959301 -1.25041 0
M  V30 3579 C 329.384 -0.617525 -1.9317 0
M  V30 3580 C 329.717 0.843981 -1.74902 0
M  V30 3581 O 328.992 1.60615 -1.09696 0
M  V30 3582 C 329.275 -0.982736 -3.46431 0
M  V30 3583 C 329.128 -2.50032 -3.73904 0
M  V30 3584 C 330.447 -0.511176 -4.37121 0
M  V30 3585 H 327.566 -0.22582 -0.701552 0
M  V30 3586 H 330.208 -1.19679 -1.4757 0
M  V30 3587 H 328.358 -0.489806 -3.854 0
M  V30 3588 H 330.03 -3.06737 -3.44544 0
M  V30 3589 H 328.273 -2.93598 -3.19348 0
M  V30 3590 H 328.944 -2.70635 -4.81103 0
M  V30 3591 H 331.42 -0.934075 -4.0548 0
M  V30 3592 H 330.296 -0.795361 -5.43107 0
M  V30 3593 H 330.557 0.588834 -4.38161 0
M  V30 3594 N 329.616 1.39756 -0.72842 0
M  V30 3595 C 330.564 2.32485 -0.0731849 0
M  V30 3596 C 331.558 1.52717 0.733063 0
M  V30 3597 O 332.764 1.68428 0.634988 0
M  V30 3598 H 329.139 0.751984 -0.00486469 0
M  V30 3599 H 331.11 2.85382 -0.871761 0
M  V30 3600 C 329.859 3.37773 0.824908 0
M  V30 3601 H 329.182 3.99227 0.213915 0
M  V30 3602 H 330.622 4.05121 1.25111 0
M  V30 3603 C 329.081 2.74287 1.95622 0
M  V30 3604 O 329.611 2.61618 3.04826 0
M  V30 3605 N 327.817 2.32475 1.74367 0
M  V30 3606 H 327.364 2.4298 0.855494 0
M  V30 3607 H 327.322 1.90337 2.50238 0
M  V30 3608 N 331.094 0.475555 1.50254 0
M  V30 3609 C 332.34 -0.0780073 2.0265 0
M  V30 3610 C 332.673 -1.38968 1.35652 0
M  V30 3611 O 331.948 -1.8839 0.483691 0
M  V30 3612 C 332.231 -0.257161 3.59181 0
M  V30 3613 C 332.084 1.07585 4.36744 0
M  V30 3614 C 333.403 -1.00965 4.28362 0
M  V30 3615 H 330.522 -0.0268758 0.73651 0
M  V30 3616 H 333.164 0.622015 1.7953 0
M  V30 3617 H 331.314 -0.853412 3.79011 0
M  V30 3618 H 332.986 1.70902 4.28474 0
M  V30 3619 H 331.229 1.6714 4.00308 0
M  V30 3620 H 331.9 0.904088 5.44546 0
M  V30 3621 H 334.376 -0.504214 4.13034 0
M  V30 3622 H 333.252 -1.10381 5.37687 0
M  V30 3623 H 333.513 -2.04731 3.91839 0
M  V30 3624 N 332.573 -1.56217 0.208337 0
M  V30 3625 C 333.85 -1.89739 -0.475234 0
M  V30 3626 C 334.23 -1.1238 -1.78701 0
M  V30 3627 O 333.578 -0.228979 -2.2735 0
M  V30 3628 C 333.788 -3.42289 -0.681101 0
M  V30 3629 C 335.136 -4.12789 -0.994507 0
M  V30 3630 O 336.16 -3.47814 -0.768357 0
M  V30 3631 O 335.019 -5.27649 -1.42299 0
M  V30 3632 H 332.113 -0.788478 -0.249461 0
M  V30 3633 H 334.659 -1.67855 0.249538 0
M  V30 3634 H 333.431 -3.90534 0.244722 0
M  V30 3635 H 333.054 -3.69909 -1.45785 0
M  V30 3636 N 334.051 0.0651679 -1.57465 0
M  V30 3637 C 335.299 0.761555 -1.87202 0
M  V30 3638 C 335.62 1.77778 -0.801243 0
M  V30 3639 O 334.89 1.95166 0.16937 0
M  V30 3640 H 333.47 0.284251 -0.690804 0
M  V30 3641 H 336.132 0.0396827 -1.9486 0
M  V30 3642 H 335.228 1.27365 -2.84929 0
M  V30 3643 N 335.529 1.53961 0.336706 0
M  V30 3644 C 336.759 1.75229 1.09446 0
M  V30 3645 C 337.167 0.494602 1.82621 0
M  V30 3646 O 336.51 -0.543764 1.75468 0
M  V30 3647 C 336.572 2.88288 2.1478 0
M  V30 3648 C 336.236 4.27656 1.6112 0
M  V30 3649 C 337.233 5.08981 1.0599 0
M  V30 3650 C 334.918 4.74161 1.6576 0
M  V30 3651 C 336.912 6.34916 0.562129 0
M  V30 3652 C 334.599 6.00067 1.15595 0
M  V30 3653 C 335.597 6.80278 0.609147 0
M  V30 3654 O 335.285 8.03818 0.114999 0
M  V30 3655 H 335.017 0.588881 0.331956 0
M  V30 3656 H 337.571 2.01614 0.392566 0
M  V30 3657 H 335.801 2.57443 2.88548 0
M  V30 3658 H 337.49 2.97461 2.76174 0
M  V30 3659 H 338.256 4.74213 1.01722 0
M  V30 3660 H 334.135 4.11781 2.07261 0
M  V30 3661 H 337.679 6.9747 0.134668 0
M  V30 3662 H 333.576 6.3433 1.19566 0
M  V30 3663 H 334.344 8.18172 0.231651 0
M  V30 3664 N 337.007 -0.598083 1.45811 0
M  V30 3665 C 338.284 -1.35777 1.40797 0
M  V30 3666 C 338.664 -2.10935 0.083462 0
M  V30 3667 O 338.012 -2.08505 -0.934763 0
M  V30 3668 C 338.222 -2.29666 2.62783 0
M  V30 3669 C 339.57 -2.91977 3.08277 0
M  V30 3670 O 340.594 -2.39984 2.63223 0
M  V30 3671 O 339.453 -3.86376 3.86491 0
M  V30 3672 H 336.547 -0.609291 0.55919 0
M  V30 3673 H 339.093 -0.620379 1.57954 0
M  V30 3674 H 337.865 -1.73454 3.50756 0
M  V30 3675 H 337.488 -3.1077 2.48008 0
M  V30 3676 N 338.485 -1.33259 -0.841409 0
M  V30 3677 C 339.715 -1.2742 -1.62628 0
M  V30 3678 C 340.123 0.157604 -1.88542 0
M  V30 3679 O 339.466 1.10938 -1.46419 0
M  V30 3680 C 339.528 -1.97797 -3.00194 0
M  V30 3681 C 339.192 -3.47109 -2.97261 0
M  V30 3682 C 340.189 -4.42358 -2.73159 0
M  V30 3683 C 337.874 -3.89247 -3.17478 0
M  V30 3684 C 339.868 -5.77718 -2.69296 0
M  V30 3685 C 337.555 -5.24713 -3.13241 0
M  V30 3686 C 338.553 -6.1876 -2.89181 0
M  V30 3687 O 338.241 -7.51745 -2.84843 0
M  V30 3688 H 337.973 -0.440436 -0.512827 0
M  V30 3689 H 340.527 -1.76153 -1.05638 0
M  V30 3690 H 338.757 -1.43652 -3.59028 0
M  V30 3691 H 340.446 -1.8549 -3.61038 0
M  V30 3692 H 341.212 -4.11127 -2.57294 0
M  V30 3693 H 337.091 -3.16456 -3.35226 0
M  V30 3694 H 340.635 -6.51097 -2.50436 0
M  V30 3695 H 336.532 -5.55569 -3.28654 0
M  V30 3696 H 337.3 -7.61262 -3.00702 0
M  V30 3697 N 339.963 1.05934 -1.16686 0
M  V30 3698 C 341.188 1.83029 -0.975455 0
M  V30 3699 C 341.613 1.82096 0.471452 0
M  V30 3700 O 340.971 1.22443 1.33706 0
M  V30 3701 C 341.019 3.27372 -1.51195 0
M  V30 3702 O 340.123 4.06054 -0.720701 0
M  V30 3703 H 339.464 0.566194 -0.346872 0
M  V30 3704 H 341.994 1.33541 -1.55009 0
M  V30 3705 H 342.004 3.78186 -1.53099 0
M  V30 3706 H 340.679 3.27366 -2.56523 0
M  V30 3707 H 339.256 3.64812 -0.772458 0
M  V30 3708 N 341.441 0.965919 1.2453 0
M  V30 3709 C 342.687 0.637349 1.93156 0
M  V30 3710 C 343.042 -0.818261 1.74133 0
M  V30 3711 O 342.335 -1.58079 1.08266 0
M  V30 3712 C 342.529 0.945428 3.44669 0
M  V30 3713 C 342.358 2.42944 3.78429 0
M  V30 3714 C 341.128 3.08895 3.9989 0
M  V30 3715 C 343.326 3.40941 3.8505 0
M  V30 3716 N 341.308 4.47052 4.20735 0
M  V30 3717 C 342.679 4.64448 4.10717 0
M  V30 3718 C 344.734 3.35624 3.67779 0
M  V30 3719 C 343.437 5.83292 4.20907 0
M  V30 3720 C 345.463 4.53818 3.79214 0
M  V30 3721 C 344.825 5.76114 4.05304 0
M  V30 3722 H 340.924 0.284034 0.728594 0
M  V30 3723 H 343.508 1.24041 1.50073 0
M  V30 3724 H 341.679 0.371193 3.86622 0
M  V30 3725 H 343.411 0.575613 4.00586 0
M  V30 3726 H 340.166 2.59432 3.96222 0
M  V30 3727 H 340.59 5.18634 4.35141 0
M  V30 3728 H 345.232 2.4211 3.46616 0
M  V30 3729 H 342.95 6.77236 4.40883 0
M  V30 3730 H 346.536 4.51263 3.67224 0
M  V30 3731 H 345.416 6.66045 4.13949 0
M  V30 3732 N 342.919 -1.39368 0.735821 0
M  V30 3733 C 343.866 -2.30599 0.0963825 0
M  V30 3734 C 344.836 -1.49257 -0.728794 0
M  V30 3735 O 346.021 -1.77941 -0.688588 0
M  V30 3736 C 343.161 -3.35596 -0.804305 0
M  V30 3737 C 342.274 -4.31987 0.0335761 0
M  V30 3738 C 341.409 -5.24053 -0.868461 0
M  V30 3739 C 340.448 -6.12095 -0.0258776 0
M  V30 3740 N 339.585 -6.96514 -0.883893 0
M  V30 3741 H 344.425 -2.8471 0.880002 0
M  V30 3742 H 341.962 -1.40188 0.445619 0
M  V30 3743 H 343.92 -3.95062 -1.34096 0
M  V30 3744 H 342.55 -2.82938 -1.55389 0
M  V30 3745 H 341.602 -3.74133 0.68766 0
M  V30 3746 H 342.914 -4.94074 0.685036 0
M  V30 3747 H 342.068 -5.88549 -1.47293 0
M  V30 3748 H 340.807 -4.62289 -1.5537 0
M  V30 3749 H 339.812 -5.4661 0.591386 0
M  V30 3750 H 341.037 -6.75923 0.656156 0
M  V30 3751 H 338.983 -6.37318 -1.55441 0
M  V30 3752 H 338.9 -7.55448 -0.288931 0
M  V30 3753 H 340.168 -7.65439 -1.4739 0
M  V30 3754 N 344.397 -0.483516 -1.5 0
M  V30 3755 C 345.344 0.304164 -2.28787 0
M  V30 3756 C 346.314 0.976114 -1.34392 0
M  V30 3757 O 347.499 0.986156 -1.63339 0
M  V30 3758 C 344.639 1.37298 -3.16612 0
M  V30 3759 C 343.752 0.714561 -4.26049 0
M  V30 3760 C 342.887 1.76232 -5.01114 0
M  V30 3761 C 341.926 1.08483 -6.0241 0
M  V30 3762 N 341.063 2.076 -6.70706 0
M  V30 3763 H 345.903 -0.373981 -2.95644 0
M  V30 3764 H 343.44 -0.196275 -1.45785 0
M  V30 3765 H 345.398 2.00445 -3.65893 0
M  V30 3766 H 344.028 2.02012 -2.51776 0
M  V30 3767 H 343.08 -0.0297798 -3.80388 0
M  V30 3768 H 344.392 0.180383 -4.98474 0
M  V30 3769 H 343.546 2.46929 -5.54176 0
M  V30 3770 H 342.285 2.33033 -4.28424 0
M  V30 3771 H 341.29 0.363545 -5.48597 0
M  V30 3772 H 342.515 0.523551 -6.77079 0
M  V30 3773 H 340.461 2.63394 -6.00799 0
M  V30 3774 H 340.378 1.59201 -7.39047 0
M  V30 3775 H 341.646 2.77639 -7.2838 0
M  V30 3776 N 345.875 1.56104 -0.216619 0
M  V30 3777 C 346.823 2.21434 0.712036 0
M  V30 3778 C 347.817 1.19218 1.20348 0
M  V30 3779 O 349.023 1.3731 1.16387 0
M  V30 3780 H 345.398 0.70992 0.248026 0
M  V30 3781 H 347.369 2.98083 0.137558 0
M  V30 3782 C 346.118 2.90434 1.91163 0
M  V30 3783 H 345.441 3.68842 1.54258 0
M  V30 3784 H 346.881 3.39552 2.5393 0
M  V30 3785 C 345.34 1.92635 2.76394 0
M  V30 3786 O 345.87 1.44017 3.74996 0
M  V30 3787 N 344.076 1.60392 2.42328 0
M  V30 3788 H 343.623 2.00122 1.622 0
M  V30 3789 H 343.581 0.952159 2.99635 0
M  V30 3790 N 347.353 -0.0568162 1.57498 0
M  V30 3791 C 348.769 -0.411933 1.54192 0
M  V30 3792 C 348.969 -1.78287 0.938942 0
M  V30 3793 O 348.025 -2.46483 0.547919 0
M  V30 3794 C 349.338 -0.339244 2.9878 0
M  V30 3795 C 350.886 -0.418348 3.10192 0
M  V30 3796 C 351.361 -0.375407 4.56459 0
M  V30 3797 N 352.852 -0.435038 4.61153 0
M  V30 3798 C 353.587 -0.424265 5.71828 0
M  V30 3799 N 353.083 -0.367418 6.91825 0
M  V30 3800 N 354.876 -0.471938 5.60115 0
M  V30 3801 H 347.027 0.840684 1.95055 0
M  V30 3802 H 349.29 0.316987 0.893433 0
M  V30 3803 H 348.996 0.601742 3.46514 0
M  V30 3804 H 348.87 -1.14371 3.59443 0
M  V30 3805 H 351.257 -1.34976 2.62422 0
M  V30 3806 H 351.338 0.414962 2.52412 0
M  V30 3807 H 350.982 0.552219 5.04889 0
M  V30 3808 H 350.912 -1.22645 5.12119 0
M  V30 3809 H 353.403 -0.482612 3.74806 0
M  V30 3810 H 353.716 -0.363535 7.71944 0
M  V30 3811 H 352.061 -0.333879 6.94198 0
M  V30 3812 H 355.252 -0.514145 4.65268 0
M  V30 3813 H 355.425 -0.460073 6.46365 0
M  V30 3814 N 348.832 -1.54138 -0.328536 0
M  V30 3815 C 349.765 -1.78014 -1.4278 0
M  V30 3816 C 350.743 -0.629889 -1.49904 0
M  V30 3817 O 351.927 -0.866763 -1.6739 0
M  V30 3818 C 349.054 -1.89225 -2.80912 0
M  V30 3819 C 348.1 -3.11483 -2.91343 0
M  V30 3820 S 348.933 -4.70201 -2.56263 0
M  V30 3821 C 350.089 -4.84312 -3.96476 0
M  V30 3822 H 350.322 -2.70974 -1.22313 0
M  V30 3823 H 347.855 -1.45197 -0.525084 0
M  V30 3824 H 349.813 -1.9637 -3.60485 0
M  V30 3825 H 348.474 -0.972518 -2.98665 0
M  V30 3826 H 347.667 -3.16046 -3.92595 0
M  V30 3827 H 347.269 -3.02642 -2.19736 0
M  V30 3828 H 349.561 -4.66643 -4.91173 0
M  V30 3829 H 350.504 -5.86411 -3.96898 0
M  V30 3830 H 350.912 -4.12652 -3.85199 0
M  V30 3831 N 350.31 0.590341 -1.46126 0
M  V30 3832 C 351.556 1.34874 -1.52252 0
M  V30 3833 C 351.911 1.91658 -0.168807 0
M  V30 3834 O 351.204 1.73093 0.821556 0
M  V30 3835 C 351.398 2.5032 -2.55097 0
M  V30 3836 C 351.227 2.04843 -4.00337 0
M  V30 3837 C 349.997 1.90213 -4.68132 0
M  V30 3838 C 352.195 1.61267 -4.88362 0
M  V30 3839 N 350.177 1.38727 -5.9802 0
M  V30 3840 C 351.548 1.21319 -6.08015 0
M  V30 3841 C 353.603 1.49015 -4.75078 0
M  V30 3842 C 352.306 0.7034 -7.15852 0
M  V30 3843 C 354.332 0.994401 -5.8298 0
M  V30 3844 C 353.694 0.604659 -7.018 0
M  V30 3845 H 349.793 0.486803 -0.612002 0
M  V30 3846 H 352.377 0.673007 -1.82698 0
M  V30 3847 H 350.548 3.15466 -2.26574 0
M  V30 3848 H 352.28 3.1725 -2.51266 0
M  V30 3849 H 349.035 2.11927 -4.23537 0
M  V30 3850 H 349.459 1.15168 -6.67132 0
M  V30 3851 H 354.101 1.77768 -3.83612 0
M  V30 3852 H 351.819 0.403446 -8.07092 0
M  V30 3853 H 355.405 0.903621 -5.7474 0
M  V30 3854 H 354.285 0.226963 -7.83871 0
M  V30 3855 N 351.788 1.33704 0.83433 0
M  V30 3856 C 353.204 1.13137 1.12571 0
M  V30 3857 C 353.404 -0.0747261 2.01361 0
M  V30 3858 O 352.46 -0.753647 2.4099 0
M  V30 3859 C 353.773 2.42105 1.78342 0
M  V30 3860 C 355.321 2.48054 1.90888 0
M  V30 3861 C 355.796 3.76995 2.60075 0
M  V30 3862 N 357.287 3.78092 2.67584 0
M  V30 3863 C 358.022 4.74574 3.21818 0
M  V30 3864 N 357.518 5.81434 3.76705 0
M  V30 3865 N 359.311 4.62044 3.20112 0
M  V30 3866 H 351.462 2.11 0.243489 0
M  V30 3867 H 353.725 0.932532 0.17055 0
M  V30 3868 H 353.431 3.30391 1.20561 0
M  V30 3869 H 353.305 2.54594 2.7832 0
M  V30 3870 H 355.692 1.60215 2.47821 0
M  V30 3871 H 355.773 2.39502 0.898459 0
M  V30 3872 H 355.417 4.65219 2.03799 0
M  V30 3873 H 355.347 3.82825 3.61597 0
M  V30 3874 H 357.838 3.00865 2.28667 0
M  V30 3875 H 358.151 6.51084 4.16305 0
M  V30 3876 H 356.496 5.85163 3.7498 0
M  V30 3877 H 359.687 3.77716 2.76493 0
M  V30 3878 H 359.86 5.37406 3.62076 0
M  V30 3879 N 353.266 -1.05314 1.17247 0
M  V30 3880 C 354.213 -2.13031 0.888058 0
M  V30 3881 C 355.183 -1.65253 -0.167537 0
M  V30 3882 O 356.368 -1.90775 -0.0305974 0
M  V30 3883 C 353.508 -3.42702 0.406147 0
M  V30 3884 C 352.621 -4.04161 1.52572 0
M  V30 3885 C 351.756 -5.21744 0.997808 0
M  V30 3886 C 350.795 -5.75207 2.09291 0
M  V30 3887 N 349.932 -6.84094 1.57986 0
M  V30 3888 H 354.772 -2.36698 1.81048 0
M  V30 3889 H 352.309 -1.16121 0.903013 0
M  V30 3890 H 354.267 -4.17059 0.108305 0
M  V30 3891 H 352.897 -3.19222 -0.479313 0
M  V30 3892 H 351.949 -3.27253 1.93931 0
M  V30 3893 H 353.261 -4.39881 2.35172 0
M  V30 3894 H 352.415 -6.03168 0.653739 0
M  V30 3895 H 351.154 -4.87495 0.141232 0
M  V30 3896 H 350.159 -4.92414 2.44557 0
M  V30 3897 H 351.384 -6.11505 2.95362 0
M  V30 3898 H 349.33 -6.51745 0.74598 0
M  V30 3899 H 349.247 -7.18811 2.34195 0
M  V30 3900 H 350.515 -7.69172 1.26468 0
M  V30 3901 N 354.744 -0.972509 -1.24016 0
M  V30 3902 C 355.692 -0.498562 -2.27194 0
M  V30 3903 C 356.686 0.440372 -1.63576 0
M  V30 3904 O 357.892 0.315133 -1.7722 0
M  V30 3905 H 354.267 -0.142775 -0.738322 0
M  V30 3906 H 356.238 -1.38065 -2.64539 0
M  V30 3907 C 354.987 0.191072 -3.47175 0
M  V30 3908 H 354.31 -0.522318 -3.96373 0
M  V30 3909 H 355.75 0.486445 -4.212 0
M  V30 3910 C 354.209 1.41967 -3.05527 0
M  V30 3911 O 354.739 2.51642 -3.13112 0
M  V30 3912 N 352.945 1.28746 -2.60524 0
M  V30 3913 H 352.492 0.395089 -2.54552 0
M  V30 3914 H 352.45 2.11061 -2.33025 0
M  V30 3915 N 356.222 1.38976 -0.743202 0
M  V30 3916 C 357.638 1.53984 -0.419664 0
M  V30 3917 C 357.838 1.70837 1.0685 0
M  V30 3918 O 356.894 1.7135 1.8546 0
M  V30 3919 C 358.207 2.75287 -1.20985 0
M  V30 3920 C 359.755 2.89129 -1.19889 0
M  V30 3921 C 360.23 4.13381 -1.97181 0
M  V30 3922 N 361.721 4.20437 -1.94389 0
M  V30 3923 C 362.456 5.15547 -2.50996 0
M  V30 3924 N 361.952 6.16395 -3.16274 0
M  V30 3925 N 363.745 5.07822 -2.40984 0
M  V30 3926 H 355.896 1.26285 -1.7078 0
M  V30 3927 H 358.159 0.612689 -0.723406 0
M  V30 3928 H 357.865 2.69204 -2.26323 0
M  V30 3929 H 357.739 3.68184 -0.819759 0
M  V30 3930 H 360.126 2.947 -0.153606 0
M  V30 3931 H 360.207 1.97272 -1.62841 0
M  V30 3932 H 359.851 4.08572 -3.01714 0
M  V30 3933 H 359.781 5.04298 -1.51629 0
M  V30 3934 H 362.272 3.48205 -1.46839 0
M  V30 3935 H 362.585 6.85443 -3.56915 0
M  V30 3936 H 360.93 6.16758 -3.20367 0
M  V30 3937 H 364.121 4.27973 -1.89622 0
M  V30 3938 H 364.294 5.81767 -2.85397 0
M  V30 3939 N 357.7 0.491464 1.49741 0
M  V30 3940 C 358.925 -0.0557177 2.07325 0
M  V30 3941 C 359.35 -1.30925 1.35056 0
M  V30 3942 O 358.708 -1.76733 0.404365 0
M  V30 3943 C 358.756 -0.302074 3.59333 0
M  V30 3944 O 357.86 -1.37868 3.88672 0
M  V30 3945 H 357.201 0.0219956 0.663636 0
M  V30 3946 H 359.731 0.688352 1.92673 0
M  V30 3947 H 359.741 -0.536464 4.04458 0
M  V30 3948 H 358.416 0.61383 4.11345 0
M  V30 3949 H 356.993 -1.12999 3.55367 0
M  V30 3950 N 359.178 -1.55987 0.224894 0
M  V30 3951 C 360.425 -1.9839 -0.4059 0
M  V30 3952 C 360.753 -1.11261 -1.59535 0
M  V30 3953 O 360.008 -0.158314 -1.95059 0
M  V30 3954 C 360.307 -3.46394 -0.880106 0
M  V30 3955 C 359.973 -4.5046 0.19918 0
M  V30 3956 C 358.635 -4.7864 0.495661 0
M  V30 3957 C 360.987 -5.12855 0.928939 0
M  V30 3958 C 358.315 -5.66497 1.52636 0
M  V30 3959 C 360.667 -6.01828 1.949 0
M  V30 3960 C 359.331 -6.28351 2.25236 0
M  V30 3961 H 358.601 -0.725961 -0.148529 0
M  V30 3962 H 361.248 -1.88668 0.328113 0
M  V30 3963 H 359.553 -3.53337 -1.69294 0
M  V30 3964 H 361.25 -3.76577 -1.37808 0
M  V30 3965 H 357.84 -4.28579 -0.0420526 0
M  V30 3966 H 362.024 -4.9115 0.713129 0
M  V30 3967 H 357.28 -5.8531 1.76698 0
M  V30 3968 H 361.454 -6.49225 2.51951 0
M  V30 3969 H 359.081 -6.96226 3.05244 0
M  V30 3970 N 360.656 0.0484629 -1.57525 0
M  V30 3971 C 361.886 0.754326 -1.92337 0
M  V30 3972 C 362.294 1.70443 -0.82132 0
M  V30 3973 O 361.637 1.82466 0.21254 0
M  V30 3974 C 361.699 1.58231 -3.22805 0
M  V30 3975 C 361.363 0.799074 -4.4996 0
M  V30 3976 C 362.36 0.1079 -5.19788 0
M  V30 3977 C 360.045 0.759345 -4.96527 0
M  V30 3978 C 362.039 -0.612516 -6.3445 0
M  V30 3979 C 359.726 0.0351713 -6.1109 0
M  V30 3980 C 360.724 -0.649537 -6.79904 0
M  V30 3981 O 360.412 -1.36199 -7.92278 0
M  V30 3982 H 360.144 0.218257 -0.639797 0
M  V30 3983 H 362.698 0.0159295 -2.05394 0
M  V30 3984 H 360.928 2.36406 -3.06021 0
M  V30 3985 H 362.617 2.16898 -3.43089 0
M  V30 3986 H 363.383 0.129748 -4.84826 0
M  V30 3987 H 359.262 1.28177 -4.42822 0
M  V30 3988 H 362.806 -1.14751 -6.88097 0
M  V30 3989 H 358.703 0.0113314 -6.45499 0
M  V30 3990 H 359.471 -1.27366 -8.0853 0
M  V30 3991 N 362.134 1.5431 0.320358 0
M  V30 3992 C 363.097 1.83195 1.3774 0
M  V30 3993 C 364.097 0.703906 1.44575 0
M  V30 3994 O 365.287 0.972214 1.44546 0
M  V30 3995 C 362.419 1.99487 2.76438 0
M  V30 3996 H 363.612 2.77642 1.1338 0
M  V30 3997 H 361.165 1.46076 0.556012 0
M  V30 3998 H 361.9 1.07262 3.06048 0
M  V30 3999 H 361.685 2.81575 2.7287 0
M  V30 4000 H 363.175 2.23271 3.52902 0
M  V30 4001 N 363.613 -0.582584 1.46437 0
M  V30 4002 C 364.561 -1.71272 1.5738 0
M  V30 4003 C 365.555 -1.63524 0.44229 0
M  V30 4004 O 366.761 -1.69016 0.619166 0
M  V30 4005 H 363.136 -0.566273 0.494813 0
M  V30 4006 H 365.107 -1.59174 2.52401 0
M  V30 4007 C 363.856 -3.09658 1.58136 0
M  V30 4008 H 363.179 -3.16291 2.44541 0
M  V30 4009 H 364.619 -3.88494 1.69847 0
M  V30 4010 C 363.078 -3.3547 0.310026 0
M  V30 4011 O 363.608 -3.97199 -0.599683 0
M  V30 4012 N 361.814 -2.89925 0.197901 0
M  V30 4013 H 361.361 -2.39873 0.93909 0
M  V30 4014 H 361.319 -3.07568 -0.65185 0
M  V30 4015 N 365.091 -1.34144 -0.827227 0
M  V30 4016 C 366.039 -1.25364 -1.95925 0
M  V30 4017 C 367.033 -0.152608 -1.68711 0
M  V30 4018 O 368.239 -0.317311 -1.77181 0
M  V30 4019 H 364.614 -0.389342 -0.643364 0
M  V30 4020 H 366.585 -2.21045 -2.00454 0
M  V30 4021 C 365.334 -1.02158 -3.32354 0
M  V30 4022 H 364.657 -1.86111 -3.5384 0
M  V30 4023 H 366.097 -1.00048 -4.12027 0
M  V30 4024 C 364.556 0.275244 -3.35774 0
M  V30 4025 O 365.086 1.27806 -3.80826 0
M  V30 4026 N 363.292 0.306853 -2.88975 0
M  V30 4027 H 362.839 -0.509777 -2.52506 0
M  V30 4028 H 362.797 1.17432 -2.91646 0
M  V30 4029 N 366.569 1.04691 -1.17803 0
M  V30 4030 C 367.519 2.10856 -0.867391 0
M  V30 4031 C 368.503 1.601 0.160206 0
M  V30 4032 O 369.695 1.76948 -0.042947 0
M  V30 4033 C 366.824 3.411 -0.388012 0
M  V30 4034 C 365.91 3.9864 -1.44732 0
M  V30 4035 N 366.301 4.30075 -2.66212 0
M  V30 4036 C 364.599 4.26439 -1.30637 0
M  V30 4037 C 365.3 4.76033 -3.34317 0
M  V30 4038 N 364.276 4.76462 -2.61696 0
M  V30 4039 H 368.078 2.33029 -1.79094 0
M  V30 4040 H 365.592 1.22386 -1.0675 0
M  V30 4041 H 367.589 4.16641 -0.146994 0
M  V30 4042 H 366.249 3.20357 0.529271 0
M  V30 4043 H 367.26 4.19917 -3.03134 0
M  V30 4044 H 363.937 4.15056 -0.451129 0
M  V30 4045 H 365.327 5.09427 -4.38103 0
M  V30 4046 N 368.047 0.979072 1.23499 0
M  V30 4047 C 369.287 0.655228 1.93613 0
M  V30 4048 C 369.651 -0.796336 1.74707 0
M  V30 4049 O 370.852 -1.23094 2.38959 0
M  V30 4050 C 369.123 1.03337 3.42135 0
M  V30 4051 S 370.682 0.825793 4.3096 0
M  V30 4052 H 367.5 0.240004 0.669267 0
M  V30 4053 H 370.102 1.25843 1.49612 0
M  V30 4054 H 368.806 2.08646 3.53405 0
M  V30 4055 H 368.337 0.421397 3.91137 0
M  V30 4056 H 370.352 -0.290991 4.95346 0
M  V30 4057 N 369.525 -1.3858 0.750561 0
M  V30 4058 C 370.774 -1.99424 0.302172 0
M  V30 4059 C 371.087 -1.60254 -1.12152 0
M  V30 4060 O 372.293 -2.14046 -1.67023 0
M  V30 4061 C 370.749 -3.56558 0.489307 0
M  V30 4062 C 370.357 -4.04682 1.92189 0
M  V30 4063 C 372.101 -4.24374 0.103478 0
M  V30 4064 C 370.008 -5.54446 2.05775 0
M  V30 4065 H 368.938 -0.746046 0.10923 0
M  V30 4066 H 371.589 -1.58383 0.92667 0
M  V30 4067 H 369.971 -3.95472 -0.204329 0
M  V30 4068 H 371.145 -3.77065 2.64875 0
M  V30 4069 H 369.46 -3.4958 2.26236 0
M  V30 4070 H 372.057 -5.34384 0.183787 0
M  V30 4071 H 372.4 -4.05468 -0.943481 0
M  V30 4072 H 372.933 -3.90688 0.748854 0
M  V30 4073 H 369.672 -5.78252 3.08714 0
M  V30 4074 H 369.192 -5.83816 1.37546 0
M  V30 4075 H 370.871 -6.20099 1.84626 0
M  V30 4076 N 371.003 -0.499398 -1.49478 0
M  V30 4077 C 372.251 0.0455996 -2.02049 0
M  V30 4078 C 372.572 1.37633 -1.38138 0
M  V30 4079 O 371.842 1.8842 -0.536166 0
M  V30 4080 H 370.422 0.0198416 -0.746736 0
M  V30 4081 H 373.084 -0.656274 -1.83519 0
M  V30 4082 H 372.18 0.176445 -3.11601 0
M  V30 4083 N 372.481 1.55866 -0.233164 0
M  V30 4084 C 373.709 2.02998 0.399905 0
M  V30 4085 C 374.124 1.11274 1.52524 0
M  V30 4086 O 373.481 0.124528 1.82075 0
M  V30 4087 C 373.532 3.4958 0.920639 0
M  V30 4088 O 373.253 4.37808 -0.159834 0
M  V30 4089 C 374.754 4.12411 1.62578 0
M  V30 4090 H 371.974 0.664006 0.0966281 0
M  V30 4091 H 374.518 2.0143 -0.353013 0
M  V30 4092 H 372.673 3.51727 1.62379 0
M  V30 4093 H 373.087 5.23981 0.23337 0
M  V30 4094 H 374.561 5.16711 1.94201 0
M  V30 4095 H 375.038 3.5809 2.54299 0
M  V30 4096 H 375.644 4.14148 0.967553 0
M  V30 4097 N 373.959 -0.0401083 1.57549 0
M  V30 4098 C 375.236 -0.767917 1.79896 0
M  V30 4099 C 375.616 -1.9416 0.82856 0
M  V30 4100 O 374.964 -2.2812 -0.131671 0
M  V30 4101 C 375.174 -1.2113 3.27305 0
M  V30 4102 C 376.522 -1.63175 3.91994 0
M  V30 4103 O 377.546 -1.30616 3.31388 0
M  V30 4104 O 376.405 -2.23565 4.98679 0
M  V30 4105 H 373.499 -0.370441 0.739393 0
M  V30 4106 H 376.045 -0.017737 1.69691 0
M  V30 4107 H 374.817 -0.372937 3.89519 0
M  V30 4108 H 374.44 -2.02183 3.42356 0
M  V30 4109 N 375.437 -1.54477 -0.31217 0
M  V30 4110 C 376.367 -1.87652 -1.38957 0
M  V30 4111 C 377.348 -0.734358 -1.53431 0
M  V30 4112 O 378.533 -0.98911 -1.67123 0
M  V30 4113 C 375.663 -2.11396 -2.75552 0
M  V30 4114 C 374.617 -3.27243 -2.75855 0
M  V30 4115 C 373.943 -3.36382 -4.15633 0
M  V30 4116 C 375.243 -4.64622 -2.38587 0
M  V30 4117 H 376.937 -2.77887 -1.11442 0
M  V30 4118 H 374.483 -1.33707 -0.534655 0
M  V30 4119 H 376.436 -2.33189 -3.51 0
M  V30 4120 H 375.16 -1.17921 -3.04569 0
M  V30 4121 H 373.819 -3.05356 -2.02863 0
M  V30 4122 H 373.467 -2.40445 -4.41809 0
M  V30 4123 H 373.167 -4.14249 -4.1674 0
M  V30 4124 H 374.691 -3.60422 -4.92877 0
M  V30 4125 H 376.105 -4.86219 -3.03749 0
M  V30 4126 H 374.502 -5.45121 -2.50925 0
M  V30 4127 H 375.572 -4.66097 -1.33723 0
M  V30 4128 N 376.915 0.57481 -1.46744 0
M  V30 4129 C 377.863 1.70435 -1.58286 0
M  V30 4130 C 378.857 1.63287 -0.450956 0
M  V30 4131 O 380.063 1.68685 -0.628121 0
M  V30 4132 H 376.438 0.56364 -0.497809 0
M  V30 4133 H 378.409 1.57833 -2.53242 0
M  V30 4134 C 377.158 3.08815 -1.59776 0
M  V30 4135 H 376.481 3.1499 -2.46214 0
M  V30 4136 H 377.921 3.87588 -1.71905 0
M  V30 4137 C 376.38 3.35301 -0.327812 0
M  V30 4138 O 376.91 3.97511 0.57861 0
M  V30 4139 N 375.116 2.89816 -0.213274 0
M  V30 4140 H 374.663 2.39371 -0.951798 0
M  V30 4141 H 374.621 3.0791 0.63553 0
M  V30 4142 N 378.394 1.34581 0.820102 0
M  V30 4143 C 379.81 1.14325 1.11364 0
M  V30 4144 C 380.01 -0.0533648 2.01429 0
M  V30 4145 O 379.066 -0.728044 2.41776 0
M  V30 4146 C 380.379 2.43983 1.75764 0
M  V30 4147 C 381.927 2.50065 1.88246 0
M  V30 4148 C 382.402 3.79732 2.56061 0
M  V30 4149 N 383.893 3.80908 2.63558 0
M  V30 4150 C 384.628 4.77961 3.16766 0
M  V30 4151 N 384.124 5.85397 3.70517 0
M  V30 4152 N 385.917 4.65413 3.15194 0
M  V30 4153 H 378.068 2.11246 0.221096 0
M  V30 4154 H 380.331 0.934289 0.160649 0
M  V30 4155 H 380.037 3.31651 1.1705 0
M  V30 4156 H 379.911 2.57531 2.75604 0
M  V30 4157 H 382.298 1.62834 2.46108 0
M  V30 4158 H 382.379 2.40442 0.873006 0
M  V30 4159 H 382.023 4.67354 1.98853 0
M  V30 4160 H 381.953 3.86639 3.57516 0
M  V30 4161 H 384.444 3.03274 2.25463 0
M  V30 4162 H 384.757 6.55463 4.09376 0
M  V30 4163 H 383.102 5.89107 3.68752 0
M  V30 4164 H 386.293 3.80627 2.72471 0
M  V30 4165 H 386.466 5.41216 3.56356 0
M  V30 4166 N 379.872 -1.04064 1.18357 0
M  V30 4167 C 380.82 -2.14187 0.907007 0
M  V30 4168 C 381.814 -1.68879 -0.132725 0
M  V30 4169 O 383.02 -1.79993 0.0154248 0
M  V30 4170 H 379.395 -0.699585 0.275835 0
M  V30 4171 H 381.366 -2.34711 1.84264 0
M  V30 4172 C 380.115 -3.44785 0.449254 0
M  V30 4173 H 379.438 -3.80058 1.24081 0
M  V30 4174 H 380.878 -4.22974 0.294737 0
M  V30 4175 C 379.337 -3.26391 -0.834909 0
M  V30 4176 O 379.867 -3.53973 -1.89911 0
M  V30 4177 N 378.073 -2.79726 -0.787523 0
M  V30 4178 H 377.62 -2.5748 0.0787347 0
M  V30 4179 H 377.578 -2.67798 -1.64716 0
M  V30 4180 N 381.35 -0.985608 -1.22978 0
M  V30 4181 C 382.597 -0.657386 -1.91532 0
M  V30 4182 C 382.925 0.809707 -1.76845 0
M  V30 4183 O 382.18 1.60021 -1.12658 0
M  V30 4184 C 382.479 -1.00014 -3.43121 0
M  V30 4185 C 382.145 -2.4583 -3.77993 0
M  V30 4186 C 380.807 -2.85679 -3.87222 0
M  V30 4187 C 383.159 -3.40378 -3.94705 0
M  V30 4188 C 380.487 -4.19081 -4.10595 0
M  V30 4189 C 382.839 -4.73429 -4.1958 0
M  V30 4190 C 381.503 -5.1303 -4.27032 0
M  V30 4191 H 380.773 -0.240555 -0.700867 0
M  V30 4192 H 383.42 -1.24044 -1.45895 0
M  V30 4193 H 381.725 -0.335072 -3.90365 0
M  V30 4194 H 383.422 -0.724322 -3.94404 0
M  V30 4195 H 380.012 -2.13939 -3.71387 0
M  V30 4196 H 384.196 -3.10766 -3.8696 0
M  V30 4197 H 379.452 -4.49362 -4.14589 0
M  V30 4198 H 383.626 -5.46644 -4.31455 0
M  V30 4199 H 381.253 -6.16418 -4.44896 0
M  V30 4200 N 382.828 1.3818 -0.7579 0
M  V30 4201 C 383.791 2.28764 -0.141286 0
M  V30 4202 C 384.791 1.47388 0.642907 0
M  V30 4203 O 385.981 1.67781 0.468536 0
M  V30 4204 C 383.113 3.31184 0.808069 0
M  V30 4205 H 384.306 2.848 -0.939633 0
M  V30 4206 H 381.859 1.47212 -0.525191 0
M  V30 4207 H 382.594 2.80247 1.63193 0
M  V30 4208 H 382.379 3.91314 0.248104 0
M  V30 4209 H 383.869 3.98909 1.23536 0
M  V30 4210 N 384.306 0.507319 1.49211 0
M  V30 4211 C 385.531 -0.033725 2.07373 0
M  V30 4212 C 385.956 -1.29485 1.36437 0
M  V30 4213 O 385.314 -1.76294 0.423087 0
M  V30 4214 C 385.362 -0.263945 3.59633 0
M  V30 4215 O 384.466 -1.33737 3.90113 0
M  V30 4216 H 383.807 0.0290331 0.663365 0
M  V30 4217 H 386.337 0.708749 1.91932 0
M  V30 4218 H 386.347 -0.493536 4.05004 0
M  V30 4219 H 385.022 0.657424 4.10671 0
M  V30 4220 H 383.599 -1.09224 3.56545 0
M  V30 4221 N 385.784 -1.5574 0.241426 0
M  V30 4222 C 386.731 -2.21149 -0.660432 0
M  V30 4223 C 387.701 -1.17356 -1.17545 0
M  V30 4224 O 388.886 -1.45784 -1.23093 0
M  V30 4225 C 386.026 -2.91059 -1.85414 0
M  V30 4226 C 385.139 -4.09495 -1.37616 0
M  V30 4227 C 384.274 -4.67135 -2.529 0
M  V30 4228 C 383.313 -5.77831 -2.01936 0
M  V30 4229 N 382.45 -6.29677 -3.10566 0
M  V30 4230 H 387.29 -2.97845 -0.095955 0
M  V30 4231 H 384.827 -1.47057 -0.0356024 0
M  V30 4232 H 386.785 -3.29788 -2.5553 0
M  V30 4233 H 385.415 -2.16846 -2.39118 0
M  V30 4234 H 384.467 -3.76117 -0.569235 0
M  V30 4235 H 385.779 -4.89423 -0.962618 0
M  V30 4236 H 384.933 -5.08409 -3.31067 0
M  V30 4237 H 383.672 -3.86411 -2.97553 0
M  V30 4238 H 382.677 -5.36039 -1.22238 0
M  V30 4239 H 383.902 -6.60402 -1.58259 0
M  V30 4240 H 381.848 -5.5186 -3.54664 0
M  V30 4241 H 381.765 -7.04783 -2.73526 0
M  V30 4242 H 383.033 -6.75609 -3.88809 0
M  V30 4243 N 387.262 0.0317525 -1.57568 0
M  V30 4244 C 388.212 1.04101 -2.02847 0
M  V30 4245 C 389.196 1.3219 -0.917317 0
M  V30 4246 O 390.388 1.31819 -1.18121 0
M  V30 4247 C 387.517 2.34295 -2.5092 0
M  V30 4248 C 386.603 2.09308 -3.68851 0
M  V30 4249 N 386.994 1.5437 -4.81667 0
M  V30 4250 C 385.292 2.39604 -3.76172 0
M  V30 4251 C 385.993 1.45126 -5.63306 0
M  V30 4252 N 384.969 1.92589 -5.08341 0
M  V30 4253 H 388.771 0.610217 -2.87495 0
M  V30 4254 H 386.285 0.238108 -1.60645 0
M  V30 4255 H 388.282 3.07404 -2.81617 0
M  V30 4256 H 386.942 2.78055 -1.67677 0
M  V30 4257 H 387.953 1.22678 -5.03161 0
M  V30 4258 H 384.63 2.86457 -3.03724 0
M  V30 4259 H 386.02 1.03163 -6.63933 0
M  V30 4260 N 388.74 1.54641 0.303973 0
M  V30 4261 C 389.986 1.74969 1.03718 0
M  V30 4262 C 390.341 0.527461 1.85029 0
M  V30 4263 O 389.634 -0.480143 1.85486 0
M  V30 4264 C 389.828 2.97753 1.97681 0
M  V30 4265 C 389.657 4.318 1.25613 0
M  V30 4266 C 388.427 4.95616 0.984518 0
M  V30 4267 C 390.625 5.10021 0.662081 0
M  V30 4268 N 388.607 6.13455 0.233794 0
M  V30 4269 C 389.978 6.19984 0.0439736 0
M  V30 4270 C 392.033 4.94663 0.566835 0
M  V30 4271 C 390.736 7.16264 -0.66016 0
M  V30 4272 C 392.762 5.91271 -0.123637 0
M  V30 4273 C 392.124 7.00601 -0.730608 0
M  V30 4274 H 388.223 0.692873 0.362562 0
M  V30 4275 H 390.807 1.92116 0.316135 0
M  V30 4276 H 388.978 2.82036 2.6704 0
M  V30 4277 H 390.71 3.06621 2.64132 0
M  V30 4278 H 387.465 4.55921 1.28191 0
M  V30 4279 H 387.889 6.76879 -0.127996 0
M  V30 4280 H 392.531 4.10267 1.02181 0
M  V30 4281 H 390.249 8.00204 -1.12691 0
M  V30 4282 H 393.835 5.81466 -0.197236 0
M  V30 4283 H 392.715 7.7407 -1.2564 0
M  V30 4284 N 390.218 -0.567019 1.47046 0
M  V30 4285 C 391.458 -1.3355 1.54738 0
M  V30 4286 C 391.822 -1.90947 0.200772 0
M  V30 4287 O 393.023 -2.68367 0.152489 0
M  V30 4288 C 391.294 -2.42317 2.62712 0
M  V30 4289 S 392.853 -3.29383 2.89918 0
M  V30 4290 H 389.671 -0.454788 0.546525 0
M  V30 4291 H 392.273 -0.650191 1.84371 0
M  V30 4292 H 390.977 -1.98568 3.59164 0
M  V30 4293 H 390.508 -3.15601 2.34861 0
M  V30 4294 H 392.523 -4.41548 2.26384 0
M  V30 4295 N 391.696 -1.35014 -0.812953 0
M  V30 4296 C 392.606 -1.2951 -1.95613 0
M  V30 4297 C 393.622 -0.20107 -1.72834 0
M  V30 4298 O 394.798 -0.42932 -1.96771 0
M  V30 4299 C 391.863 -1.06033 -3.30088 0
M  V30 4300 C 390.924 -2.24688 -3.65805 0
M  V30 4301 C 390.157 -2.02322 -4.93864 0
M  V30 4302 O 390.38 -0.986464 -5.61805 0
M  V30 4303 O 389.314 -2.89525 -5.27692 0
M  V30 4304 H 393.14 -2.25705 -2.03202 0
M  V30 4305 H 390.725 -1.15321 -0.949811 0
M  V30 4306 H 392.607 -0.94763 -4.10607 0
M  V30 4307 H 391.282 -0.128852 -3.23443 0
M  V30 4308 H 390.189 -2.41521 -2.85689 0
M  V30 4309 H 391.522 -3.16261 -3.77147 0
M  V30 4310 N 393.175 1.03435 -1.18907 0
M  V30 4311 C 394.085 2.15075 -0.937015 0
M  V30 4312 C 395.101 1.73706 0.101085 0
M  V30 4313 O 396.277 2.01232 -0.0822948 0
M  V30 4314 C 393.342 3.43458 -0.473057 0
M  V30 4315 C 392.403 3.99172 -1.57989 0
M  V30 4316 C 391.636 5.21427 -1.13797 0
M  V30 4317 O 391.859 5.704 0.000725941 0
M  V30 4318 O 390.793 5.69837 -1.9383 0
M  V30 4319 H 394.619 2.39198 -1.87131 0
M  V30 4320 H 392.204 1.13506 -0.971427 0
M  V30 4321 H 394.086 4.20811 -0.222702 0
M  V30 4322 H 392.761 3.20793 0.432869 0
M  V30 4323 H 391.668 3.23178 -1.88433 0
M  V30 4324 H 393.001 4.2619 -2.46217 0
M  V30 4325 N 394.653 0.992116 1.22453 0
M  V30 4326 C 395.901 0.666215 1.90804 0
M  V30 4327 C 396.222 -0.804152 1.77647 0
M  V30 4328 O 395.492 -1.57629 1.16318 0
M  V30 4329 H 394.072 0.243423 0.706225 0
M  V30 4330 H 396.734 1.25845 1.48825 0
M  V30 4331 H 395.83 0.928069 2.97982 0
M  V30 4332 N 396.131 -1.37776 0.765217 0
M  V30 4333 C 397.094 -2.28686 0.153416 0
M  V30 4334 C 398.094 -1.47727 -0.635081 0
M  V30 4335 O 399.284 -1.68027 -0.459632 0
M  V30 4336 C 396.416 -3.31608 -0.790495 0
M  V30 4337 H 397.609 -2.84297 0.954723 0
M  V30 4338 H 395.162 -1.46932 0.53299 0
M  V30 4339 H 395.897 -2.81109 -1.61705 0
M  V30 4340 H 395.682 -3.9144 -0.227348 0
M  V30 4341 H 397.172 -3.99559 -1.21419 0
M  V30 4342 N 397.609 -0.515225 -1.4894 0
M  V30 4343 C 398.834 0.022727 -2.07388 0
M  V30 4344 C 399.259 1.2876 -1.37122 0
M  V30 4345 O 398.617 1.76067 -0.432431 0
M  V30 4346 C 398.665 0.244869 -3.59768 0
M  V30 4347 O 397.769 1.31667 -3.90817 0
M  V30 4348 H 397.11 -0.0325506 -0.663202 0
M  V30 4349 H 399.64 -0.718918 -1.91553 0
M  V30 4350 H 399.65 0.47205 -4.0526 0
M  V30 4351 H 398.325 -0.679194 -4.10317 0
M  V30 4352 H 396.902 1.07331 -3.5712 0
M  V30 4353 N 399.087 1.5561 -0.249682 0
M  V30 4354 C 400.312 2.03865 0.381305 0
M  V30 4355 C 400.737 1.12769 1.50548 0
M  V30 4356 O 400.095 0.121189 1.80895 0
M  V30 4357 C 400.143 3.50101 0.863816 0
M  V30 4358 O 399.247 3.62132 1.97318 0
M  V30 4359 H 398.588 0.658827 0.0827194 0
M  V30 4360 H 401.118 2.01105 -0.376552 0
M  V30 4361 H 401.128 3.90975 1.1663 0
M  V30 4362 H 399.803 4.1588 0.0411816 0
M  V30 4363 H 398.38 3.33155 1.67517 0
M  V30 4364 N 400.565 -0.0233959 1.57583 0
M  V30 4365 C 401.79 -0.728376 1.94189 0
M  V30 4366 C 402.215 -1.67793 0.850119 0
M  V30 4367 O 401.573 -1.80262 -0.19371 0
M  V30 4368 C 401.621 -1.45669 3.29868 0
M  V30 4369 O 400.725 -2.57013 3.22518 0
M  V30 4370 H 400.066 -0.195493 0.63457 0
M  V30 4371 H 402.596 0.0228214 2.04587 0
M  V30 4372 H 402.606 -1.82535 3.6489 0
M  V30 4373 H 401.281 -0.760314 4.08891 0
M  V30 4374 H 399.858 -2.22648 2.99136 0
M  V30 4375 N 402.043 -1.548 -0.295768 0
M  V30 4376 C 403.268 -1.78653 -1.05346 0
M  V30 4377 C 403.693 -0.546894 -1.79974 0
M  V30 4378 O 403.051 0.502763 -1.7419 0
M  V30 4379 C 403.099 -2.99679 -2.00561 0
M  V30 4380 O 402.203 -2.7317 -3.08953 0
M  V30 4381 H 401.544 -0.59116 -0.302367 0
M  V30 4382 H 404.074 -2.01895 -0.331598 0
M  V30 4383 H 404.084 -3.27793 -2.42932 0
M  V30 4384 H 402.759 -3.89562 -1.4565 0
M  V30 4385 H 401.336 -2.56089 -2.71059 0
M  V30 4386 N 403.521 0.559213 -1.47345 0
M  V30 4387 C 404.761 1.32728 -1.55444 0
M  V30 4388 C 405.125 1.90838 -0.210895 0
M  V30 4389 O 406.326 2.68282 -0.166719 0
M  V30 4390 C 404.597 2.4092 -2.63993 0
M  V30 4391 S 406.156 3.2784 -2.91661 0
M  V30 4392 H 402.974 0.451883 -0.548929 0
M  V30 4393 H 405.576 0.640404 -1.84714 0
M  V30 4394 H 404.28 1.9666 -3.60212 0
M  V30 4395 H 403.811 3.14351 -2.36531 0
M  V30 4396 H 405.826 4.40341 -2.28722 0
M  V30 4397 N 404.999 1.35443 0.805782 0
M  V30 4398 C 406.224 1.32037 1.59941 0
M  V30 4399 C 406.649 -0.0994215 1.87837 0
M  V30 4400 O 406.007 -1.06648 1.46615 0
M  V30 4401 C 406.055 2.13354 2.90711 0
M  V30 4402 O 405.159 1.5148 3.83572 0
M  V30 4403 H 404.5 0.452666 0.485787 0
M  V30 4404 H 407.03 1.78496 1.00002 0
M  V30 4405 H 407.04 2.25338 3.40128 0
M  V30 4406 H 405.715 3.16572 2.69732 0
M  V30 4407 H 404.292 1.4834 3.42125 0
M  V30 4408 N 406.477 -1.02803 1.19454 0
M  V30 4409 C 407.387 -2.14575 0.948408 0
M  V30 4410 C 408.403 -1.73757 -0.091871 0
M  V30 4411 O 409.579 -2.01185 0.0929654 0
M  V30 4412 C 406.644 -3.43202 0.491265 0
M  V30 4413 C 405.705 -3.98328 1.60103 0
M  V30 4414 C 404.938 -5.20816 1.16561 0
M  V30 4415 O 405.161 -5.70392 0.0295238 0
M  V30 4416 O 404.095 -5.68801 1.96849 0
M  V30 4417 H 407.921 -2.38202 1.88397 0
M  V30 4418 H 405.506 -1.12989 0.977433 0
M  V30 4419 H 407.388 -4.20687 0.245015 0
M  V30 4420 H 406.063 -3.21018 -0.415851 0
M  V30 4421 H 404.97 -3.22174 1.90144 0
M  V30 4422 H 406.303 -4.24879 2.48473 0
M  V30 4423 N 407.956 -0.998596 -1.21925 0
M  V30 4424 C 409.184 -0.696286 -1.94832 0
M  V30 4425 C 409.599 0.740032 -1.73692 0
M  V30 4426 O 408.956 1.5 -1.03953 0
M  V30 4427 C 409.007 -0.999833 -3.47398 0
M  V30 4428 O 408.728 -2.37972 -3.67833 0
M  V30 4429 C 410.229 -0.716025 -4.37479 0
M  V30 4430 H 407.449 -0.257111 -0.619786 0
M  V30 4431 H 409.993 -1.33491 -1.54921 0
M  V30 4432 H 408.148 -0.406918 -3.85257 0
M  V30 4433 H 408.562 -2.48338 -4.61983 0
M  V30 4434 H 410.036 -0.978642 -5.43256 0
M  V30 4435 H 410.513 0.349968 -4.37803 0
M  V30 4436 H 411.119 -1.29025 -4.05256 0
M  V30 4437 N 409.434 1.37368 -0.772513 0
M  V30 4438 C 410.664 2.03647 -0.348082 0
M  V30 4439 C 411.072 1.58392 1.03482 0
M  V30 4440 O 410.415 0.760921 1.672 0
M  V30 4441 C 410.477 3.58131 -0.313404 0
M  V30 4442 C 410.141 4.2652 -1.64102 0
M  V30 4443 C 411.138 4.50587 -2.5936 0
M  V30 4444 C 408.823 4.64335 -1.91567 0
M  V30 4445 C 410.817 5.11526 -3.80289 0
M  V30 4446 C 408.504 5.24996 -3.12766 0
M  V30 4447 C 409.502 5.48529 -4.06946 0
M  V30 4448 O 409.19 6.07921 -5.26011 0
M  V30 4449 H 408.922 0.660538 -0.143753 0
M  V30 4450 H 411.476 1.76669 -1.04772 0
M  V30 4451 H 409.706 3.84159 0.442617 0
M  V30 4452 H 411.395 4.05813 0.0840613 0
M  V30 4453 H 412.161 4.21784 -2.39423 0
M  V30 4454 H 408.04 4.45353 -1.19088 0
M  V30 4455 H 411.584 5.29811 -4.53813 0
M  V30 4456 H 407.481 5.53223 -3.32588 0
M  V30 4457 H 408.249 6.26398 -5.26847 0
M  V30 4458 N 410.912 0.523116 1.48665 0
M  V30 4459 C 412.152 -0.0115588 2.04397 0
M  V30 4460 C 412.516 -1.32225 1.39214 0
M  V30 4461 O 413.717 -1.94253 1.85793 0
M  V30 4462 C 411.988 -0.138119 3.57133 0
M  V30 4463 S 413.547 -0.623849 4.34343 0
M  V30 4464 H 410.365 0.00877706 0.710946 0
M  V30 4465 H 412.967 0.702116 1.82457 0
M  V30 4466 H 411.671 0.820748 4.02109 0
M  V30 4467 H 411.202 -0.876377 3.83514 0
M  V30 4468 H 413.217 -1.8895 4.58816 0
M  V30 4469 N 412.39 -1.55475 0.257931 0
M  V30 4470 C 413.638 -1.98813 -0.363009 0
M  V30 4471 C 413.959 -1.14757 -1.57657 0
M  V30 4472 O 413.229 -0.232956 -1.9451 0
M  V30 4473 H 411.809 -0.734308 -0.137113 0
M  V30 4474 H 414.471 -1.9156 0.359281 0
M  V30 4475 H 413.567 -3.04941 -0.664634 0
M  V30 4476 N 413.868 0.0150385 -1.57593 0
M  V30 4477 C 414.798 1.01047 -2.10503 0
M  V30 4478 C 415.779 1.36816 -1.01071 0
M  V30 4479 O 416.964 1.45455 -1.28672 0
M  V30 4480 C 414.094 2.30708 -2.59598 0
M  V30 4481 C 413.048 2.09142 -3.73421 0
M  V30 4482 C 412.374 3.44685 -4.08774 0
M  V30 4483 C 413.674 1.46619 -5.01298 0
M  V30 4484 H 415.368 0.569978 -2.93925 0
M  V30 4485 H 412.914 0.272724 -1.41394 0
M  V30 4486 H 414.867 3.00687 -2.95238 0
M  V30 4487 H 413.591 2.76843 -1.73279 0
M  V30 4488 H 412.25 1.41592 -3.38153 0
M  V30 4489 H 411.898 3.88495 -3.195 0
M  V30 4490 H 411.598 3.31077 -4.8545 0
M  V30 4491 H 413.122 4.16004 -4.4696 0
M  V30 4492 H 414.536 2.06535 -5.34805 0
M  V30 4493 H 412.933 1.43544 -5.82679 0
M  V30 4494 H 414.003 0.433611 -4.82957 0
M  V30 4495 N 415.346 1.54954 0.287554 0
M  V30 4496 C 416.576 1.78622 1.03816 0
M  V30 4497 C 416.984 0.552451 1.80955 0
M  V30 4498 O 416.327 -0.487665 1.77109 0
M  V30 4499 C 416.389 2.94975 2.055 0
M  V30 4500 C 416.053 4.32565 1.47433 0
M  V30 4501 C 417.05 5.12096 0.897436 0
M  V30 4502 C 414.735 4.79195 1.50591 0
M  V30 4503 C 416.729 6.36383 0.359851 0
M  V30 4504 C 414.416 6.03441 0.964459 0
M  V30 4505 C 415.414 6.81872 0.392413 0
M  V30 4506 O 415.102 8.03777 -0.140788 0
M  V30 4507 H 414.834 0.599144 0.313053 0
M  V30 4508 H 417.388 2.02761 0.328225 0
M  V30 4509 H 415.618 2.66493 2.80211 0
M  V30 4510 H 417.307 3.06097 2.6657 0
M  V30 4511 H 418.073 4.77209 0.865841 0
M  V30 4512 H 413.952 4.18167 1.94055 0
M  V30 4513 H 417.496 6.97545 -0.0872951 0
M  V30 4514 H 413.393 6.37813 0.993246 0
M  V30 4515 H 414.161 8.18495 -0.0287617 0
M  V30 4516 N 416.824 -0.551391 1.4764 0
M  V30 4517 C 418.235 -1.13349 1.48354 0
M  V30 4518 C 418.586 -1.94709 0.241432 0
M  V30 4519 O 417.711 -2.06306 -0.653205 0
M  V30 4520 C 418.306 -2.0623 2.68802 0
M  V30 4521 C 416.865 -2.597 2.72457 0
M  V30 4522 C 416.012 -1.36201 2.41546 0
M  V30 4523 H 418.963 -0.337698 1.55065 0
M  V30 4524 H 418.984 -2.90196 2.46103 0
M  V30 4525 H 418.496 -1.46987 3.59188 0
M  V30 4526 H 416.597 -3.22724 1.86225 0
M  V30 4527 H 416.71 -3.00296 3.73308 0
M  V30 4528 H 415.074 -1.67068 1.9225 0
M  V30 4529 H 415.857 -0.787425 3.34147 0
M  V30 4530 N 418.302 -1.35869 -0.798587 0
M  V30 4531 C 419.212 -1.31578 -1.94228 0
M  V30 4532 C 420.228 -0.21939 -1.72611 0
M  V30 4533 O 421.404 -0.450167 -1.96305 0
M  V30 4534 C 418.469 -1.09528 -3.28944 0
M  V30 4535 C 417.53 -2.28556 -3.63402 0
M  V30 4536 C 416.763 -2.07549 -4.9169 0
M  V30 4537 O 416.986 -1.046 -5.60727 0
M  V30 4538 O 415.92 -2.95106 -5.24591 0
M  V30 4539 H 419.746 -2.27847 -2.00796 0
M  V30 4540 H 417.331 -1.16322 -0.937526 0
M  V30 4541 H 419.213 -0.991127 -4.09579 0
M  V30 4542 H 417.888 -0.16315 -3.23289 0
M  V30 4543 H 416.795 -2.44538 -2.83112 0
M  V30 4544 H 418.128 -3.20244 -3.73771 0
M  V30 4545 N 419.78 1.02168 -1.19998 0
M  V30 4546 C 421.005 1.79833 -1.03319 0
M  V30 4547 C 421.43 1.83504 0.413281 0
M  V30 4548 O 420.788 1.26635 1.29743 0
M  V30 4549 C 420.836 3.22396 -1.61533 0
M  V30 4550 O 419.94 4.03555 -0.849519 0
M  V30 4551 H 419.281 0.554872 -0.364709 0
M  V30 4552 H 421.811 1.28542 -1.59179 0
M  V30 4553 H 421.821 3.73124 -1.65054 0
M  V30 4554 H 420.496 3.19039 -2.66809 0
M  V30 4555 H 419.073 3.62169 -0.888129 0
M  V30 4556 N 421.258 1.00505 1.21394 0
M  V30 4557 C 422.168 0.574806 2.27449 0
M  V30 4558 C 423.184 -0.382206 1.6975 0
M  V30 4559 O 424.36 -0.246027 1.99892 0
M  V30 4560 C 421.425 -0.0917414 3.46579 0
M  V30 4561 C 420.486 0.909758 4.1955 0
M  V30 4562 C 419.719 0.274924 5.32991 0
M  V30 4563 O 419.942 -0.928254 5.62796 0
M  V30 4564 O 418.876 0.985877 5.93771 0
M  V30 4565 H 422.702 1.45744 2.66444 0
M  V30 4566 H 420.287 0.773923 1.27792 0
M  V30 4567 H 422.169 -0.464551 4.18832 0
M  V30 4568 H 420.844 -0.948755 3.09484 0
M  V30 4569 H 419.751 1.33372 3.49518 0
M  V30 4570 H 421.084 1.73636 4.60555 0
M  V30 4571 N 422.737 -1.36956 0.779787 0
M  V30 4572 C 424.148 -1.82094 0.412156 0
M  V30 4573 C 424.499 -1.64926 -1.06273 0
M  V30 4574 O 423.624 -1.16483 -1.82375 0
M  V30 4575 C 424.219 -3.3059 0.741319 0
M  V30 4576 C 422.778 -3.73974 0.426641 0
M  V30 4577 C 421.925 -2.59368 0.980987 0
M  V30 4578 H 424.876 -1.25314 0.973758 0
M  V30 4579 H 424.897 -3.80489 0.028887 0
M  V30 4580 H 424.409 -3.43054 1.81482 0
M  V30 4581 H 422.51 -3.67076 -0.639215 0
M  V30 4582 H 422.623 -4.69778 0.940515 0
M  V30 4583 H 420.987 -2.51463 0.404757 0
M  V30 4584 H 421.77 -2.74621 2.06005 0
M  V30 4585 N 424.215 -0.530993 -1.48385 0
M  V30 4586 C 425.125 0.23503 -2.3342 0
M  V30 4587 C 426.141 0.93801 -1.46552 0
M  V30 4588 O 427.317 0.912745 -1.7953 0
M  V30 4589 C 424.382 1.26778 -3.22689 0
M  V30 4590 C 423.443 0.575038 -4.25431 0
M  V30 4591 C 422.676 1.55858 -5.10435 0
M  V30 4592 O 422.899 2.79129 -4.97437 0
M  V30 4593 O 421.833 1.09742 -5.91811 0
M  V30 4594 H 425.659 -0.461794 -3.00169 0
M  V30 4595 H 423.244 -0.291903 -1.46521 0
M  V30 4596 H 425.126 1.86457 -3.77904 0
M  V30 4597 H 423.801 1.94699 -2.586 0
M  V30 4598 H 422.708 -0.0622782 -3.74048 0
M  V30 4599 H 424.041 -0.062253 -4.92161 0
M  V30 4600 N 425.693 1.55336 -0.266172 0
M  V30 4601 C 426.939 1.99692 0.353681 0
M  V30 4602 C 427.272 1.1543 1.56172 0
M  V30 4603 O 426.547 0.222218 1.93226 0
M  V30 4604 C 426.83 3.52316 0.74466 0
M  V30 4605 C 426.683 4.47337 -0.470101 0
M  V30 4606 C 428.002 4.10588 1.58447 0
M  V30 4607 H 425.121 0.725961 0.12708 0
M  V30 4608 H 427.763 1.86336 -0.371333 0
M  V30 4609 H 425.913 3.63829 1.36239 0
M  V30 4610 H 427.585 4.4778 -1.10864 0
M  V30 4611 H 425.828 4.19364 -1.10978 0
M  V30 4612 H 426.499 5.51788 -0.15291 0
M  V30 4613 H 428.975 4.02297 1.06286 0
M  V30 4614 H 427.851 5.17607 1.82686 0
M  V30 4615 H 428.112 3.60253 2.56262 0
M  V30 4616 N 427.171 -0.0066808 1.57599 0
M  V30 4617 C 428.118 -1.00024 2.08 0
M  V30 4618 C 429.088 -1.34549 0.973943 0
M  V30 4619 O 430.273 -1.44502 1.24595 0
M  V30 4620 C 427.413 -2.2891 2.58252 0
M  V30 4621 C 426.526 -2.00346 3.82734 0
M  V30 4622 C 425.661 -3.23265 4.21513 0
M  V30 4623 C 424.7 -2.90357 5.3885 0
M  V30 4624 N 423.837 -4.05793 5.72954 0
M  V30 4625 H 428.677 -0.563499 2.92624 0
M  V30 4626 H 426.214 -0.266592 1.44664 0
M  V30 4627 H 428.172 -3.04247 2.85464 0
M  V30 4628 H 426.802 -2.70265 1.76512 0
M  V30 4629 H 425.854 -1.15406 3.62471 0
M  V30 4630 H 427.166 -1.72086 4.68175 0
M  V30 4631 H 426.32 -4.06953 4.49971 0
M  V30 4632 H 425.059 -3.54657 3.34768 0
M  V30 4633 H 424.064 -2.05075 5.10122 0
M  V30 4634 H 425.289 -2.60219 6.27266 0
M  V30 4635 H 423.235 -4.37094 4.89167 0
M  V30 4636 H 423.152 -3.81034 6.52954 0
M  V30 4637 H 424.42 -4.90289 6.06001 0
M  V30 4638 N 428.649 -1.55105 -0.279332 0
M  V30 4639 C 429.612 -1.86783 -1.32834 0
M  V30 4640 C 430.612 -0.74199 -1.42657 0
M  V30 4641 O 431.802 -1.0102 -1.41918 0
M  V30 4642 C 428.934 -2.06746 -2.71052 0
M  V30 4643 H 430.127 -2.8055 -1.05979 0
M  V30 4644 H 427.68 -1.47499 -0.517087 0
M  V30 4645 H 428.415 -1.15339 -3.03097 0
M  V30 4646 H 428.2 -2.88711 -2.65309 0
M  V30 4647 H 429.69 -2.32549 -3.46858 0
M  V30 4648 N 430.127 0.543554 -1.4793 0
M  V30 4649 C 431.373 1.30201 -1.55485 0
M  V30 4650 C 431.706 1.92925 -0.222201 0
M  V30 4651 O 430.981 1.78586 0.77053 0
M  V30 4652 C 431.264 2.40174 -2.68307 0
M  V30 4653 C 431.117 1.8223 -4.11233 0
M  V30 4654 C 432.436 3.42024 -2.76961 0
M  V30 4655 H 429.555 0.472036 -0.565996 0
M  V30 4656 H 432.197 0.606914 -1.80046 0
M  V30 4657 H 430.347 2.99463 -2.47495 0
M  V30 4658 H 432.019 1.27096 -4.43446 0
M  V30 4659 H 430.262 1.12832 -4.18869 0
M  V30 4660 H 430.933 2.61793 -4.85972 0
M  V30 4661 H 433.409 2.92672 -2.95774 0
M  V30 4662 H 432.285 4.16383 -3.57654 0
M  V30 4663 H 432.546 4.0173 -1.84568 0
M  V30 4664 N 431.605 1.3629 0.791371 0
M  V30 4665 C 432.568 1.30309 1.88553 0
M  V30 4666 C 433.568 0.211204 1.59407 0
M  V30 4667 O 434.758 0.465865 1.67855 0
M  V30 4668 C 431.89 1.01956 3.25297 0
M  V30 4669 H 433.083 2.27614 1.95273 0
M  V30 4670 H 430.636 1.21035 0.988953 0
M  V30 4671 H 431.371 0.050998 3.2426 0
M  V30 4672 H 431.156 1.80968 3.4784 0
M  V30 4673 H 432.646 1.0037 4.05359 0
M  V30 4674 N 433.083 -1.0153 1.20538 0
M  V30 4675 C 434.308 -1.79283 1.04271 0
M  V30 4676 C 434.733 -1.8372 -0.403544 0
M  V30 4677 O 434.091 -1.27321 -1.2907 0
M  V30 4678 C 434.139 -3.21535 1.63241 0
M  V30 4679 O 433.243 -4.03099 0.870908 0
M  V30 4680 H 432.584 -0.55293 0.367647 0
M  V30 4681 H 435.114 -1.27696 1.59859 0
M  V30 4682 H 435.124 -3.72243 1.6703 0
M  V30 4683 H 433.799 -3.1762 2.68497 0
M  V30 4684 H 432.376 -3.61693 0.907323 0
M  V30 4685 N 434.561 -1.01147 -1.20859 0
M  V30 4686 C 435.808 -0.697865 -1.90095 0
M  V30 4687 C 436.136 0.772014 -1.78522 0
M  V30 4688 O 435.391 1.57595 -1.16027 0
M  V30 4689 C 435.69 -1.0727 -3.40922 0
M  V30 4690 C 435.356 -2.53792 -3.72693 0
M  V30 4691 C 434.018 -2.93829 -3.81075 0
M  V30 4692 C 436.37 -3.48674 -3.87397 0
M  V30 4693 C 433.698 -4.27696 -4.01613 0
M  V30 4694 C 436.05 -4.82223 -4.09444 0
M  V30 4695 C 434.714 -5.21973 -4.16054 0
M  V30 4696 H 433.984 -0.255367 -0.695607 0
M  V30 4697 H 436.631 -1.27111 -1.43231 0
M  V30 4698 H 434.936 -0.417799 -3.89566 0
M  V30 4699 H 436.633 -0.807818 -3.92779 0
M  V30 4700 H 433.223 -2.21768 -3.66765 0
M  V30 4701 H 437.407 -3.18904 -3.80281 0
M  V30 4702 H 432.663 -4.58055 -4.04964 0
M  V30 4703 H 436.837 -5.55672 -4.19763 0
M  V30 4704 H 434.464 -6.25717 -4.31721 0
M  V30 4705 N 436.039 1.36541 -0.78704 0
M  V30 4706 C 436.969 2.32659 -0.197992 0
M  V30 4707 C 437.95 1.56533 0.665697 0
M  V30 4708 O 439.135 1.84698 0.60001 0
M  V30 4709 C 436.265 3.40778 0.669901 0
M  V30 4710 C 435.219 4.27897 -0.0937039 0
M  V30 4711 C 434.545 5.27163 0.894629 0
M  V30 4712 C 435.845 5.06334 -1.28154 0
M  V30 4713 H 437.539 2.82171 -1.00099 0
M  V30 4714 H 435.085 1.35665 -0.482793 0
M  V30 4715 H 437.038 4.07008 1.09191 0
M  V30 4716 H 435.762 2.89827 1.50558 0
M  V30 4717 H 434.421 3.6322 -0.49666 0
M  V30 4718 H 434.069 4.72486 1.72527 0
M  V30 4719 H 433.769 5.86317 0.388149 0
M  V30 4720 H 435.293 5.96266 1.31525 0
M  V30 4721 H 436.707 5.65617 -0.93541 0
M  V30 4722 H 435.104 5.74888 -1.72115 0
M  V30 4723 H 436.174 4.38114 -2.07807 0
M  V30 4724 N 437.518 0.538854 1.48102 0
M  V30 4725 C 438.934 0.19732 1.58376 0
M  V30 4726 C 439.134 -1.29971 1.5398 0
M  V30 4727 O 438.19 -2.07861 1.43352 0
M  V30 4728 C 439.503 0.807716 2.89649 0
M  V30 4729 C 441.051 0.77726 3.03196 0
M  V30 4730 C 441.526 1.36639 4.37143 0
M  V30 4731 N 443.017 1.32875 4.43732 0
M  V30 4732 C 443.752 1.7544 5.45901 0
M  V30 4733 N 443.248 2.25776 6.54979 0
M  V30 4734 N 445.041 1.66623 5.36836 0
M  V30 4735 H 437.192 1.5117 1.49202 0
M  V30 4736 H 439.455 0.629327 0.708979 0
M  V30 4737 H 439.161 1.85909 2.98548 0
M  V30 4738 H 439.035 0.289975 3.76084 0
M  V30 4739 H 441.422 -0.265374 2.93904 0
M  V30 4740 H 441.503 1.33256 2.18349 0
M  V30 4741 H 441.147 2.408 4.47189 0
M  V30 4742 H 441.077 0.786689 5.20691 0
M  V30 4743 H 443.568 0.96037 3.65493 0
M  V30 4744 H 443.881 2.56226 7.29087 0
M  V30 4745 H 442.226 2.29775 6.55918 0
M  V30 4746 H 445.417 1.27089 4.50517 0
M  V30 4747 H 445.59 2.00115 6.16326 0
M  V30 4748 N 438.996 -1.55193 0.274407 0
M  V30 4749 C 440.412 -1.59401 -0.0797543 0
M  V30 4750 C 440.612 -1.29162 -1.54659 0
M  V30 4751 O 439.668 -1.05215 -2.29534 0
M  V30 4752 C 440.981 -2.99257 0.294238 0
M  V30 4753 C 442.529 -3.12072 0.240796 0
M  V30 4754 C 443.004 -4.54194 0.589218 0
M  V30 4755 N 444.495 -4.60033 0.540744 0
M  V30 4756 C 445.23 -5.68027 0.783147 0
M  V30 4757 N 444.726 -6.8417 1.09013 0
M  V30 4758 N 446.519 -5.57572 0.711993 0
M  V30 4759 H 438.67 -1.73113 1.23067 0
M  V30 4760 H 440.933 -0.807197 0.497129 0
M  V30 4761 H 440.639 -3.26217 1.31435 0
M  V30 4762 H 440.513 -3.75427 -0.365281 0
M  V30 4763 H 442.9 -2.84877 -0.770024 0
M  V30 4764 H 442.981 -2.38117 0.934563 0
M  V30 4765 H 442.625 -4.82115 1.59772 0
M  V30 4766 H 442.555 -5.26448 -0.126331 0
M  V30 4767 H 445.046 -3.76599 0.313327 0
M  V30 4768 H 445.359 -7.6243 1.26178 0
M  V30 4769 H 443.704 -6.85787 1.12789 0
M  V30 4770 H 446.895 -4.65714 0.472014 0
M  V30 4771 H 447.068 -6.41659 0.90429 0
M  V30 4772 N 440.474 -0.00167713 -1.576 0
M  V30 4773 C 441.422 1.0074 -2.09652 0
M  V30 4774 C 442.416 1.35483 -1.01689 0
M  V30 4775 O 443.622 1.34028 -1.20152 0
M  V30 4776 H 439.997 0.342537 -0.669457 0
M  V30 4777 H 441.968 0.542841 -2.93421 0
M  V30 4778 C 440.717 2.2899 -2.61647 0
M  V30 4779 H 440.04 2.03124 -3.44355 0
M  V30 4780 H 441.48 2.9787 -3.01744 0
M  V30 4781 C 439.939 3.00085 -1.53136 0
M  V30 4782 O 440.469 3.91135 -0.91524 0
M  V30 4783 N 438.675 2.6194 -1.25841 0
M  V30 4784 H 438.222 1.8798 -1.76129 0
M  V30 4785 H 438.18 3.09822 -0.534576 0
M  V30 4786 N 441.952 1.55251 0.271103 0
M  V30 4787 C 443.201 1.75151 1.00025 0
M  V30 4788 C 443.514 0.561041 1.87381 0
M  V30 4789 O 444.72 0.642506 2.63788 0
M  V30 4790 C 443.176 3.09999 1.82835 0
M  V30 4791 C 442.784 4.3662 1.00336 0
M  V30 4792 C 444.528 3.39249 2.55168 0
M  V30 4793 C 442.435 5.62506 1.82595 0
M  V30 4794 H 441.365 0.652877 0.377183 0
M  V30 4795 H 444.016 1.81708 0.255843 0
M  V30 4796 H 442.398 2.97485 2.61378 0
M  V30 4797 H 443.572 4.60055 0.261959 0
M  V30 4798 H 441.887 4.14527 0.394486 0
M  V30 4799 H 444.484 4.3051 3.1712 0
M  V30 4800 H 444.827 2.59467 3.2555 0
M  V30 4801 H 445.36 3.52869 1.83653 0
M  V30 4802 H 442.099 6.45041 1.16631 0
M  V30 4803 H 441.619 5.43211 2.54327 0
M  V30 4804 H 443.298 6.00875 2.39913 0
M  V30 4805 N 443.43 -0.535701 1.48216 0
M  V30 4806 C 444.378 -1.66179 1.62749 0
M  V30 4807 C 445.372 -1.62034 0.49409 0
M  V30 4808 O 446.578 -1.6696 0.672624 0
M  V30 4809 H 442.953 -0.550244 0.512578 0
M  V30 4810 H 444.924 -1.51063 2.57337 0
M  V30 4811 C 443.673 -3.04471 1.67907 0
M  V30 4812 H 442.996 -3.08351 2.54479 0
M  V30 4813 H 444.436 -3.82894 1.82121 0
M  V30 4814 C 442.895 -3.34314 0.416596 0
M  V30 4815 O 443.425 -3.98905 -0.473014 0
M  V30 4816 N 441.631 -2.89149 0.290038 0
M  V30 4817 H 441.178 -2.36764 1.01493 0
M  V30 4818 H 441.136 -3.09486 -0.55367 0
M  V30 4819 N 444.908 -1.36708 -0.784132 0
M  V30 4820 C 445.84 -1.27333 -1.90575 0
M  V30 4821 C 446.853 -0.191706 -1.61667 0
M  V30 4822 O 448.042 -0.446854 -1.72816 0
M  V30 4823 C 445.142 -0.943177 -3.25511 0
M  V30 4824 C 444.315 -2.12776 -3.82158 0
M  V30 4825 C 443.374 -1.76983 -4.95544 0
M  V30 4826 O 442.4 -2.49134 -5.11782 0
M  V30 4827 N 443.602 -0.706624 -5.76183 0
M  V30 4828 H 446.367 -2.23974 -1.99138 0
M  V30 4829 H 443.928 -1.30171 -0.962656 0
M  V30 4830 H 445.92 -0.684799 -3.98864 0
M  V30 4831 H 444.49 -0.0657333 -3.12531 0
M  V30 4832 H 443.71 -2.54863 -3.0073 0
M  V30 4833 H 444.998 -2.91904 -4.16737 0
M  V30 4834 H 444.396 -0.107643 -5.65598 0
M  V30 4835 H 442.953 -0.50808 -6.49817 0
M  V30 4836 N 446.386 1.0089 -1.21074 0
M  V30 4837 C 447.635 1.74019 -1.01981 0
M  V30 4838 C 447.948 1.90408 0.447665 0
M  V30 4839 O 449.154 2.60707 0.757906 0
M  V30 4840 C 447.61 3.13026 -1.77603 0
M  V30 4841 C 447.218 3.04623 -3.28495 0
M  V30 4842 C 448.962 3.90312 -1.66904 0
M  V30 4843 C 446.869 4.38685 -3.96623 0
M  V30 4844 H 445.799 0.652422 -0.377971 0
M  V30 4845 H 448.45 1.12755 -1.44771 0
M  V30 4846 H 446.832 3.74878 -1.27604 0
M  V30 4847 H 448.006 2.52032 -3.85767 0
M  V30 4848 H 446.321 2.40827 -3.39693 0
M  V30 4849 H 448.918 4.8951 -2.15138 0
M  V30 4850 H 449.261 4.11558 -0.62658 0
M  V30 4851 H 449.794 3.35104 -2.14359 0
M  V30 4852 H 446.533 4.22641 -5.01054 0
M  V30 4853 H 446.053 4.91252 -3.4414 0
M  V30 4854 H 447.732 5.075 -4.01314 0
M  V30 4855 N 447.864 1.01787 1.20321 0
M  V30 4856 C 448.811 0.589197 2.23153 0
M  V30 4857 C 449.781 -0.391367 1.61423 0
M  V30 4858 O 450.966 -0.290518 1.88575 0
M  V30 4859 C 448.106 -0.0650747 3.45039 0
M  V30 4860 C 447.219 0.960207 4.21194 0
M  V30 4861 C 446.354 0.276854 5.30478 0
M  V30 4862 C 445.393 1.2888 5.98378 0
M  V30 4863 N 444.53 0.632031 6.99249 0
M  V30 4864 H 449.37 1.47071 2.59179 0
M  V30 4865 H 446.907 0.736192 1.27352 0
M  V30 4866 H 448.865 -0.461552 4.14639 0
M  V30 4867 H 447.495 -0.910233 3.09701 0
M  V30 4868 H 446.547 1.47484 3.50646 0
M  V30 4869 H 447.859 1.72977 4.67847 0
M  V30 4870 H 447.013 -0.175056 6.06447 0
M  V30 4871 H 445.752 -0.525004 4.84866 0
M  V30 4872 H 444.757 1.75109 5.21169 0
M  V30 4873 H 445.982 2.09196 6.46076 0
M  V30 4874 H 443.928 -0.149935 6.55829 0
M  V30 4875 H 443.845 1.33964 7.44036 0
M  V30 4876 H 445.113 0.203755 7.79234 0
M  V30 4877 N 449.342 -1.36122 0.79427 0
M  V30 4878 C 450.305 -2.28309 0.201889 0
M  V30 4879 C 451.305 -1.49041 -0.603603 0
M  V30 4880 O 452.495 -1.68964 -0.423888 0
M  V30 4881 C 449.627 -3.3321 -0.719978 0
M  V30 4882 H 450.82 -2.82208 1.01481 0
M  V30 4883 H 448.373 -1.45768 0.564037 0
M  V30 4884 H 449.108 -2.84475 -1.55706 0
M  V30 4885 H 448.893 -3.91835 -0.144266 0
M  V30 4886 H 450.383 -4.02044 -1.12916 0
M  V30 4887 N 450.82 -0.546701 -1.47814 0
M  V30 4888 C 452.05 -0.0232519 -2.06587 0
M  V30 4889 C 452.458 1.2712 -1.40133 0
M  V30 4890 O 451.801 1.77091 -0.488305 0
M  V30 4891 C 451.863 0.254117 -3.58601 0
M  V30 4892 C 451.527 -0.949331 -4.47031 0
M  V30 4893 C 452.524 -1.85216 -4.85789 0
M  V30 4894 C 450.209 -1.16104 -4.88697 0
M  V30 4895 C 452.203 -2.95047 -5.65001 0
M  V30 4896 C 449.89 -2.26247 -5.67676 0
M  V30 4897 C 450.888 -3.1555 -6.05737 0
M  V30 4898 O 450.576 -4.23784 -6.83127 0
M  V30 4899 H 450.308 -0.0380082 -0.674931 0
M  V30 4900 H 452.862 -0.756631 -1.90956 0
M  V30 4901 H 451.092 1.04168 -3.72406 0
M  V30 4902 H 452.781 0.72167 -3.99433 0
M  V30 4903 H 453.547 -1.70061 -4.54207 0
M  V30 4904 H 449.426 -0.475159 -4.58545 0
M  V30 4905 H 452.97 -3.64778 -5.94628 0
M  V30 4906 H 448.867 -2.41379 -5.98671 0
M  V30 4907 H 449.635 -4.21701 -7.01506 0
M  V30 4908 N 452.299 1.55045 -0.282633 0
M  V30 4909 C 453.548 1.98938 0.332667 0
M  V30 4910 C 453.861 1.17455 1.56409 0
M  V30 4911 O 455.067 1.51527 2.25282 0
M  V30 4912 C 453.523 3.54105 0.643226 0
M  V30 4913 C 453.131 4.44374 -0.568814 0
M  V30 4914 C 454.875 4.06569 1.22074 0
M  V30 4915 C 452.782 5.90943 -0.232426 0
M  V30 4916 H 451.712 0.743043 0.128075 0
M  V30 4917 H 454.363 1.79341 -0.388464 0
M  V30 4918 H 452.745 3.69532 1.42346 0
M  V30 4919 H 453.919 4.40718 -1.34551 0
M  V30 4920 H 452.234 4.02585 -1.06369 0
M  V30 4921 H 454.831 5.13626 1.48635 0
M  V30 4922 H 455.174 3.56057 2.15707 0
M  V30 4923 H 455.707 3.94612 0.502621 0
M  V30 4924 H 452.446 6.45567 -1.13683 0
M  V30 4925 H 451.966 5.9765 0.507357 0
M  V30 4926 H 453.645 6.4677 0.172657 0
M  V30 4927 N 453.777 0.010035 1.57597 0
M  V30 4928 C 455.002 -0.687021 1.95691 0
M  V30 4929 C 455.427 -1.65952 0.885519 0
M  V30 4930 O 454.785 -1.80633 -0.15543 0
M  V30 4931 C 454.833 -1.3864 3.32884 0
M  V30 4932 O 453.937 -2.50115 3.27897 0
M  V30 4933 H 453.278 -0.181989 0.638573 0
M  V30 4934 H 455.808 0.0662122 2.04493 0
M  V30 4935 H 455.818 -1.74754 3.6868 0
M  V30 4936 H 454.493 -0.673411 4.10412 0
M  V30 4937 H 453.07 -2.16253 3.03791 0
M  V30 4938 N 455.255 -1.55392 -0.262866 0
M  V30 4939 C 456.188 -1.8391 -1.35101 0
M  V30 4940 C 457.166 -0.692901 -1.47097 0
M  V30 4941 O 458.35 -0.936979 -1.63563 0
M  V30 4942 C 455.477 -2.00969 -2.72634 0
M  V30 4943 C 454.523 -3.23559 -2.7787 0
M  V30 4944 S 455.356 -4.80647 -2.3609 0
M  V30 4945 C 456.512 -5.00692 -3.75578 0
M  V30 4946 H 456.745 -2.75918 -1.1071 0
M  V30 4947 H 454.278 -1.47294 -0.463029 0
M  V30 4948 H 456.236 -2.11482 -3.51832 0
M  V30 4949 H 454.897 -1.09832 -2.94272 0
M  V30 4950 H 454.09 -3.32413 -3.78837 0
M  V30 4951 H 453.692 -3.11689 -2.06702 0
M  V30 4952 H 455.984 -4.87055 -4.70939 0
M  V30 4953 H 456.927 -6.02717 -3.71669 0
M  V30 4954 H 457.335 -4.28619 -3.6735 0
M  V30 4955 N 456.733 0.527833 -1.48498 0
M  V30 4956 C 457.683 1.62844 -1.5958 0
M  V30 4957 C 458.667 1.54397 -0.452809 0
M  V30 4958 O 459.859 1.62381 -0.704364 0
M  V30 4959 C 456.988 3.01557 -1.64067 0
M  V30 4960 C 456.074 3.151 -2.83853 0
M  V30 4961 N 456.465 2.9861 -4.08247 0
M  V30 4962 C 454.763 3.46158 -2.8123 0
M  V30 4963 C 455.464 3.15626 -4.88626 0
M  V30 4964 N 454.44 3.43298 -4.21483 0
M  V30 4965 H 458.242 1.48708 -2.53502 0
M  V30 4966 H 455.756 0.733343 -1.44899 0
M  V30 4967 H 457.753 3.8062 -1.70101 0
M  V30 4968 H 456.413 3.16783 -0.712636 0
M  V30 4969 H 457.424 2.75329 -4.3865 0
M  V30 4970 H 454.101 3.67728 -1.97692 0
M  V30 4971 H 455.491 3.07596 -5.97356 0
M  V30 4972 N 458.211 1.37122 0.776871 0
M  V30 4973 C 459.436 1.354 1.57104 0
M  V30 4974 C 459.861 -0.0595562 1.88006 0
M  V30 4975 O 459.219 -1.03514 1.48844 0
M  V30 4976 C 459.267 2.19472 2.8612 0
M  V30 4977 O 458.371 1.59582 3.80273 0
M  V30 4978 H 457.712 0.462869 0.476076 0
M  V30 4979 H 460.242 1.80577 0.961932 0
M  V30 4980 H 460.252 2.32502 3.35271 0
M  V30 4981 H 458.927 3.22222 2.62956 0
M  V30 4982 H 457.504 1.55564 3.38902 0
M  V30 4983 N 459.689 -1.00246 1.21608 0
M  V30 4984 C 460.919 -1.77373 1.05935 0
M  V30 4985 C 461.327 -1.85059 -0.393686 0
M  V30 4986 O 460.67 -1.31289 -1.28487 0
M  V30 4987 C 460.732 -3.22705 1.58435 0
M  V30 4988 C 460.396 -3.38591 3.06929 0
M  V30 4989 C 461.393 -3.2667 4.04454 0
M  V30 4990 C 459.078 -3.6395 3.46187 0
M  V30 4991 C 461.072 -3.39877 5.39224 0
M  V30 4992 C 458.759 -3.768 4.81108 0
M  V30 4993 C 459.757 -3.6477 5.77436 0
M  V30 4994 O 459.445 -3.77206 7.09909 0
M  V30 4995 H 459.177 -0.56419 0.372378 0
M  V30 4996 H 461.731 -1.26971 1.61454 0
M  V30 4997 H 459.961 -3.74255 0.973147 0
M  V30 4998 H 461.65 -3.81515 1.38568 0
M  V30 4999 H 462.416 -3.06999 3.75468 0
M  V30 5000 H 458.295 -3.72395 2.71741 0
M  V30 5001 H 461.839 -3.30404 6.14393 0
M  V30 5002 H 457.736 -3.95975 5.09779 0
M  V30 5003 H 458.504 -3.94138 7.17355 0
M  V30 5004 N 461.167 -1.02423 -1.1978 0
M  V30 5005 C 462.392 -0.7373 -1.93852 0
M  V30 5006 C 462.817 0.696923 -1.74713 0
M  V30 5007 O 462.175 1.48056 -1.04638 0
M  V30 5008 C 462.223 -1.08783 -3.438 0
M  V30 5009 O 461.327 -0.20383 -4.11896 0
M  V30 5010 H 460.668 -0.27284 -0.605355 0
M  V30 5011 H 463.198 -1.36966 -1.51992 0
M  V30 5012 H 463.208 -1.04276 -3.9445 0
M  V30 5013 H 461.883 -2.13274 -3.57053 0
M  V30 5014 H 460.46 -0.307091 -3.71633 0
M  V30 5015 N 462.645 1.35699 -0.801477 0
M  V30 5016 C 463.577 2.28598 -0.166028 0
M  V30 5017 C 464.59 1.50044 0.631721 0
M  V30 5018 O 465.779 1.72339 0.464921 0
M  V30 5019 C 462.879 3.29625 0.787451 0
M  V30 5020 C 462.052 4.37384 0.037171 0
M  V30 5021 C 461.111 5.183 0.908375 0
M  V30 5022 O 460.137 5.68053 0.361189 0
M  V30 5023 N 461.339 5.35912 2.23112 0
M  V30 5024 H 464.104 2.83771 -0.964071 0
M  V30 5025 H 461.665 1.47994 -0.656469 0
M  V30 5026 H 463.657 3.80648 1.37439 0
M  V30 5027 H 462.227 2.75004 1.48632 0
M  V30 5028 H 461.447 3.87364 -0.730935 0
M  V30 5029 H 462.735 5.0653 -0.480109 0
M  V30 5030 H 462.133 4.97125 2.69968 0
M  V30 5031 H 460.69 5.90133 2.76741 0
M  V30 5032 N 464.123 0.554532 1.47522 0
M  V30 5033 C 465.073 -0.215008 2.26984 0
M  V30 5034 C 466.057 -0.88774 1.34194 0
M  V30 5035 O 467.249 -0.786489 1.58567 0
M  V30 5036 C 464.378 -1.24604 3.19889 0
M  V30 5037 C 463.464 -0.576857 4.20159 0
M  V30 5038 N 463.855 0.351541 5.04577 0
M  V30 5039 C 462.153 -0.831104 4.38188 0
M  V30 5040 C 462.854 0.739995 5.76974 0
M  V30 5041 N 461.83 0.0954407 5.43516 0
M  V30 5042 H 465.632 0.498843 2.89636 0
M  V30 5043 H 463.146 0.374279 1.58028 0
M  V30 5044 H 465.143 -1.81128 3.75498 0
M  V30 5045 H 463.803 -1.96101 2.58794 0
M  V30 5046 H 464.814 0.725556 5.12792 0
M  V30 5047 H 461.491 -1.53479 3.88266 0
M  V30 5048 H 462.881 1.50271 6.5488 0
M  V30 5049 N 465.601 -1.54893 0.290851 0
M  V30 5050 C 466.85 -1.99111 -0.322113 0
M  V30 5051 C 467.163 -1.18283 -1.55784 0
M  V30 5052 O 468.369 -1.5272 -2.24475 0
M  V30 5053 C 466.825 -3.54442 -0.624438 0
M  V30 5054 C 466.433 -4.44066 0.592373 0
M  V30 5055 C 468.177 -4.07211 -1.19916 0
M  V30 5056 C 466.084 -5.90812 0.263762 0
M  V30 5057 H 465.014 -0.743712 -0.124133 0
M  V30 5058 H 467.665 -1.79132 0.39797 0
M  V30 5059 H 466.047 -3.70281 -1.40384 0
M  V30 5060 H 467.221 -4.39999 1.36886 0
M  V30 5061 H 465.536 -4.02015 1.08502 0
M  V30 5062 H 468.133 -5.14407 -1.45909 0
M  V30 5063 H 468.476 -3.57196 -2.13815 0
M  V30 5064 H 469.009 -3.94873 -0.481687 0
M  V30 5065 H 465.748 -6.44955 1.17105 0
M  V30 5066 H 465.268 -5.97911 -0.475655 0
M  V30 5067 H 466.947 -6.46852 -0.138354 0
M  V30 5068 N 467.08 -0.0183926 -1.57589 0
M  V30 5069 C 468.326 0.663543 -1.91638 0
M  V30 5070 C 468.659 1.72392 -0.894134 0
M  V30 5071 O 467.934 1.94316 0.0846449 0
M  V30 5072 C 468.217 1.28984 -3.36207 0
M  V30 5073 C 468.07 0.239761 -4.49161 0
M  V30 5074 C 469.389 2.2109 -3.80536 0
M  V30 5075 H 466.508 0.239746 -0.696915 0
M  V30 5076 H 469.15 -0.073456 -1.89858 0
M  V30 5077 H 467.3 1.91799 -3.37854 0
M  V30 5078 H 468.972 -0.390119 -4.59647 0
M  V30 5079 H 467.215 -0.435972 -4.31604 0
M  V30 5080 H 467.886 0.717383 -5.47319 0
M  V30 5081 H 470.362 1.68273 -3.80557 0
M  V30 5082 H 469.238 2.61869 -4.82406 0
M  V30 5083 H 469.499 3.09764 -3.15434 0
M  V30 5084 N 468.558 1.5553 0.254621 0
M  V30 5085 C 469.805 1.77 0.983736 0
M  V30 5086 C 470.133 0.58133 1.85609 0
M  V30 5087 O 469.388 -0.435621 1.9079 0
M  V30 5088 C 469.687 3.03891 1.88109 0
M  V30 5089 C 469.353 4.35597 1.16472 0
M  V30 5090 C 468.015 4.7139 0.966714 0
M  V30 5091 C 470.367 5.1705 0.656387 0
M  V30 5092 C 467.695 5.86176 0.247942 0
M  V30 5093 C 470.047 6.32581 -0.0488807 0
M  V30 5094 C 468.711 6.67 -0.258438 0
M  V30 5095 H 467.981 0.647688 0.359974 0
M  V30 5096 H 470.628 1.89802 0.254463 0
M  V30 5097 H 468.933 2.86068 2.67717 0
M  V30 5098 H 470.63 3.17701 2.44677 0
M  V30 5099 H 467.22 4.07475 1.32899 0
M  V30 5100 H 471.404 4.8986 0.796933 0
M  V30 5101 H 466.66 6.11354 0.075035 0
M  V30 5102 H 470.834 6.94942 -0.450444 0
M  V30 5103 H 468.461 7.55793 -0.817358 0
M  V30 5104 N 470.036 -0.519951 1.48776 0
M  V30 5105 C 471.447 -1.10177 1.50725 0
M  V30 5106 C 471.798 -1.94153 0.282678 0
M  V30 5107 O 470.923 -2.07645 -0.609298 0
M  V30 5108 C 471.518 -2.00482 2.73116 0
M  V30 5109 C 470.077 -2.53862 2.77905 0
M  V30 5110 C 469.224 -1.31047 2.44381 0
M  V30 5111 H 472.175 -0.30473 1.55747 0
M  V30 5112 H 472.196 -2.8491 2.52203 0
M  V30 5113 H 471.708 -1.39335 3.62225 0
M  V30 5114 H 469.809 -3.18702 1.93029 0
M  V30 5115 H 469.922 -2.9231 3.79594 0
M  V30 5116 H 468.286 -1.62953 1.95751 0
M  V30 5117 H 469.069 -0.71637 3.35743 0
M  V30 5118 N 471.514 -1.37532 -0.769588 0
M  V30 5119 C 472.744 -1.35861 -1.55645 0
M  V30 5120 C 473.152 0.0574398 -1.89113 0
M  V30 5121 O 472.495 1.03021 -1.52093 0
M  V30 5122 C 472.557 -2.13431 -2.89288 0
M  V30 5123 C 472.221 -3.62378 -2.78444 0
M  V30 5124 C 473.218 -4.56215 -2.49326 0
M  V30 5125 C 470.903 -4.05529 -2.96398 0
M  V30 5126 C 472.897 -5.91181 -2.38294 0
M  V30 5127 C 470.584 -5.40579 -2.84987 0
M  V30 5128 C 471.582 -6.33218 -2.55975 0
M  V30 5129 O 471.27 -7.65787 -2.44594 0
M  V30 5130 H 471.002 -0.467001 -0.48876 0
M  V30 5131 H 473.556 -1.81505 -0.961515 0
M  V30 5132 H 471.786 -1.62481 -3.50909 0
M  V30 5133 H 473.475 -2.04368 -3.50697 0
M  V30 5134 H 474.241 -4.24187 -2.35139 0
M  V30 5135 H 470.12 -3.33781 -3.1798 0
M  V30 5136 H 473.664 -6.63457 -2.15571 0
M  V30 5137 H 469.561 -5.72209 -2.98743 0
M  V30 5138 H 470.329 -7.76132 -2.59927 0
M  V30 5139 N 472.992 0.995999 -1.22138 0
M  V30 5140 C 474.217 1.77601 -1.0711 0
M  V30 5141 C 474.642 1.84339 0.374264 0
M  V30 5142 O 474 1.29359 1.27028 0
M  V30 5143 C 474.048 3.18897 -1.68336 0
M  V30 5144 O 473.152 4.01663 -0.934928 0
M  V30 5145 H 472.493 0.547011 -0.376397 0
M  V30 5146 H 475.023 1.25137 -1.6187 0
M  V30 5147 H 475.033 3.69539 -1.72931 0
M  V30 5148 H 473.708 3.13308 -2.73516 0
M  V30 5149 H 472.285 3.60204 -0.964751 0
M  V30 5150 N 474.47 1.03057 1.19235 0
M  V30 5151 C 475.7 0.746613 1.92638 0
M  V30 5152 C 476.108 -0.698708 1.75826 0
M  V30 5153 O 475.451 -1.487 1.07861 0
M  V30 5154 C 475.513 1.02024 3.44719 0
M  V30 5155 C 475.177 2.45745 3.85303 0
M  V30 5156 C 476.174 3.43887 3.8992 0
M  V30 5157 C 473.859 2.8019 4.16892 0
M  V30 5158 C 475.853 4.74529 4.2556 0
M  V30 5159 C 473.54 4.1104 4.52205 0
M  V30 5160 C 474.538 5.0802 4.56513 0
M  V30 5161 O 474.226 6.36527 4.91008 0
M  V30 5162 H 473.958 0.272401 0.618687 0
M  V30 5163 H 476.512 1.37853 1.52269 0
M  V30 5164 H 474.742 0.331184 3.85279 0
M  V30 5165 H 476.431 0.725677 3.9936 0
M  V30 5166 H 477.197 3.18614 3.65664 0
M  V30 5167 H 473.076 2.05382 4.12722 0
M  V30 5168 H 476.62 5.50222 4.28838 0
M  V30 5169 H 472.517 4.36086 4.7592 0
M  V30 5170 H 473.285 6.41025 5.08949 0
M  V30 5171 N 475.948 -1.35272 0.808662 0
M  V30 5172 C 477.176 -2.02946 0.402537 0
M  V30 5173 C 477.591 -1.60937 -0.987147 0
M  V30 5174 O 476.948 -0.807917 -1.63643 0
M  V30 5175 C 476.999 -3.58317 0.47868 0
M  V30 5176 O 476.72 -3.98799 1.81358 0
M  V30 5177 C 478.221 -4.43251 0.0656281 0
M  V30 5178 H 475.441 -0.650831 0.163279 0
M  V30 5179 H 477.985 -1.72849 1.09286 0
M  V30 5180 H 476.14 -3.87055 -0.163415 0
M  V30 5181 H 476.554 -4.93451 1.77781 0
M  V30 5182 H 478.028 -5.51738 0.170017 0
M  V30 5183 H 478.505 -4.27913 -0.989278 0
M  V30 5184 H 479.111 -4.19813 0.68096 0
M  V30 5185 N 477.426 -0.562348 -1.47226 0
M  V30 5186 C 478.842 -0.222492 -1.58042 0
M  V30 5187 C 479.042 1.27505 -1.56028 0
M  V30 5188 O 478.098 2.05555 -1.46641 0
M  V30 5189 C 479.411 -0.853694 -2.88327 0
M  V30 5190 C 480.959 -0.825397 -3.01921 0
M  V30 5191 C 481.434 -1.43576 -4.34914 0
M  V30 5192 N 482.925 -1.39918 -4.41562 0
M  V30 5193 C 483.66 -1.84103 -5.43041 0
M  V30 5194 N 483.156 -2.36167 -6.51304 0
M  V30 5195 N 484.949 -1.75142 -5.34118 0
M  V30 5196 H 477.1 -1.53525 -1.46778 0
M  V30 5197 H 479.363 -0.640527 -0.698877 0
M  V30 5198 H 479.069 -1.90635 -2.95552 0
M  V30 5199 H 478.943 -0.34977 -3.75575 0
M  V30 5200 H 481.33 0.218583 -2.94289 0
M  V30 5201 H 481.411 -1.36713 -2.16202 0
M  V30 5202 H 481.055 -2.47884 -4.43301 0
M  V30 5203 H 480.985 -0.869427 -5.19373 0
M  V30 5204 H 483.476 -1.0184 -3.63919 0
M  V30 5205 H 483.789 -2.67793 -7.24919 0
M  V30 5206 H 482.134 -2.40181 -6.52179 0
M  V30 5207 H 485.325 -1.34241 -4.48439 0
M  V30 5208 H 485.498 -2.09895 -6.13065 0
M  V30 5209 N 478.904 1.54736 -0.299062 0
M  V30 5210 C 480.129 2.04975 0.316254 0
M  V30 5211 C 480.554 1.17501 1.46885 0
M  V30 5212 O 479.912 0.178678 1.80417 0
M  V30 5213 C 479.96 3.52672 0.751997 0
M  V30 5214 O 479.064 3.68226 1.85697 0
M  V30 5215 H 478.405 0.661126 0.0617175 0
M  V30 5216 H 480.935 1.99805 -0.440341 0
M  V30 5217 H 480.945 3.94488 1.04133 0
M  V30 5218 H 479.62 4.158 -0.0911482 0
M  V30 5219 H 478.197 3.38316 1.56834 0
M  V30 5220 N 480.382 0.0267497 1.57577 0
M  V30 5221 C 481.329 -0.955894 2.10075 0
M  V30 5222 C 482.299 -1.32453 1.00226 0
M  V30 5223 O 483.484 -1.41826 1.27632 0
M  V30 5224 C 480.624 -2.2338 2.6305 0
M  V30 5225 C 479.737 -1.92183 3.86898 0
M  V30 5226 C 478.872 -3.14251 4.28275 0
M  V30 5227 C 477.911 -2.78862 5.44888 0
M  V30 5228 N 477.048 -3.93548 5.81433 0
M  V30 5229 H 481.888 -0.501303 2.93753 0
M  V30 5230 H 479.425 -0.235847 1.45197 0
M  V30 5231 H 481.383 -2.98124 2.91853 0
M  V30 5232 H 480.013 -2.6646 1.82205 0
M  V30 5233 H 479.065 -1.07692 3.64838 0
M  V30 5234 H 480.377 -1.62117 4.7172 0
M  V30 5235 H 479.531 -3.97317 4.58502 0
M  V30 5236 H 478.27 -3.47476 3.42215 0
M  V30 5237 H 477.275 -1.94208 5.14357 0
M  V30 5238 H 478.5 -2.46855 6.32645 0
M  V30 5239 H 476.446 -4.2662 4.98328 0
M  V30 5240 H 476.363 -3.67098 6.6089 0
M  V30 5241 H 477.631 -4.77325 6.16264 0
M  V30 5242 N 481.861 -1.55662 -0.24637 0
M  V30 5243 C 483.086 -1.81914 -0.996093 0
M  V30 5244 C 483.511 -0.603875 -1.78143 0
M  V30 5245 O 482.869 0.447091 -1.75701 0
M  V30 5246 C 482.917 -3.05908 -1.90925 0
M  V30 5247 O 482.021 -2.82861 -3.00105 0
M  V30 5248 H 481.362 -0.600481 -0.283406 0
M  V30 5249 H 483.892 -2.02848 -0.267199 0
M  V30 5250 H 483.902 -3.35356 -2.3238 0
M  V30 5251 H 482.577 -3.93999 -1.33183 0
M  V30 5252 H 481.154 -2.64583 -2.62775 0
M  V30 5253 N 483.339 0.512053 -1.4905 0
M  V30 5254 C 484.286 1.6148 -1.64902 0
M  V30 5255 C 485.256 1.58687 -0.490673 0
M  V30 5256 O 486.441 1.76842 -0.71636 0
M  V30 5257 C 483.581 2.99676 -1.71139 0
M  V30 5258 C 482.694 3.12568 -2.98203 0
M  V30 5259 C 481.829 4.4143 -2.95487 0
M  V30 5260 C 480.868 4.47916 -4.17179 0
M  V30 5261 N 480.005 5.68191 -4.12437 0
M  V30 5262 H 484.845 1.47271 -2.59066 0
M  V30 5263 H 482.382 0.716713 -1.28459 0
M  V30 5264 H 484.34 3.79761 -1.72736 0
M  V30 5265 H 482.97 3.12614 -0.804508 0
M  V30 5266 H 482.022 2.25618 -3.06269 0
M  V30 5267 H 483.334 3.1322 -3.88194 0
M  V30 5268 H 482.488 5.29825 -2.95585 0
M  V30 5269 H 481.227 4.43326 -2.03256 0
M  V30 5270 H 480.232 3.57925 -4.17337 0
M  V30 5271 H 481.457 4.47744 -5.1059 0
M  V30 5272 H 479.403 5.7095 -3.23036 0
M  V30 5273 H 479.32 5.70413 -4.96151 0
M  V30 5274 H 480.588 6.58823 -4.16621 0
M  V30 5275 N 484.817 1.37938 0.762283 0
M  V30 5276 C 486.094 1.24196 1.51112 0
M  V30 5277 C 486.474 -0.160409 2.1049 0
M  V30 5278 O 485.822 -1.16904 1.96331 0
M  V30 5279 C 486.032 2.34537 2.58445 0
M  V30 5280 C 487.38 2.7254 3.25588 0
M  V30 5281 O 488.404 2.33783 2.68745 0
M  V30 5282 O 487.263 3.39343 4.28379 0
M  V30 5283 H 484.357 0.485175 0.669727 0
M  V30 5284 H 486.903 1.49743 0.798438 0
M  V30 5285 H 485.675 3.28406 2.12756 0
M  V30 5286 H 485.298 2.10505 3.37303 0
M  V30 5287 N 486.295 -0.989507 1.22664 0
M  V30 5288 C 487.245 -2.06478 0.967005 0
M  V30 5289 C 488.229 -1.60682 -0.0836374 0
M  V30 5290 O 489.421 -1.76541 0.127322 0
M  V30 5291 C 486.55 -3.38861 0.550313 0
M  V30 5292 C 485.636 -3.9128 1.63587 0
M  V30 5293 N 486.027 -4.16884 2.86429 0
M  V30 5294 C 484.325 -4.1972 1.50834 0
M  V30 5295 C 485.026 -4.5954 3.56648 0
M  V30 5296 N 484.002 -4.63434 2.84131 0
M  V30 5297 H 487.804 -2.24219 1.90008 0
M  V30 5298 H 485.318 -1.17153 1.12467 0
M  V30 5299 H 487.315 -4.15465 0.345612 0
M  V30 5300 H 485.975 -3.22518 -0.375822 0
M  V30 5301 H 486.986 -4.04976 3.22823 0
M  V30 5302 H 483.663 -4.1243 0.648643 0
M  V30 5303 H 485.053 -4.87944 4.61909 0
M  V30 5304 N 487.773 -1.03688 -1.18687 0
M  V30 5305 C 488.683 -0.634908 -2.25845 0
M  V30 5306 C 489.699 0.337065 -1.70704 0
M  V30 5307 O 490.875 0.192943 -2.00474 0
M  V30 5308 C 487.94 -0.000180054 -3.467 0
M  V30 5309 C 487.001 -1.02067 -4.1699 0
M  V30 5310 C 486.234 -0.41614 -5.32075 0
M  V30 5311 O 486.457 0.778712 -5.65059 0
M  V30 5312 O 485.391 -1.14296 -5.90948 0
M  V30 5313 H 489.217 -1.52757 -2.62486 0
M  V30 5314 H 486.802 -0.807533 -1.25695 0
M  V30 5315 H 488.684 0.353342 -4.19916 0
M  V30 5316 H 487.359 0.866367 -3.11891 0
M  V30 5317 H 486.266 -1.42592 -3.45859 0
M  V30 5318 H 487.599 -1.85786 -4.5579 0
M  V30 5319 N 489.251 1.34841 -0.815825 0
M  V30 5320 C 490.161 2.33425 -0.234462 0
M  V30 5321 C 491.177 1.62295 0.627413 0
M  V30 5322 O 492.353 1.94109 0.536987 0
M  V30 5323 C 489.418 3.41471 0.599849 0
M  V30 5324 C 488.479 4.28362 -0.283596 0
M  V30 5325 C 487.712 5.31248 0.51099 0
M  V30 5326 O 487.935 5.43056 1.7449 0
M  V30 5327 O 486.869 6.01812 -0.10297 0
M  V30 5328 H 490.695 2.84962 -1.05024 0
M  V30 5329 H 488.28 1.37774 -0.577809 0
M  V30 5330 H 490.162 4.07464 1.07475 0
M  V30 5331 H 488.837 2.9219 1.39308 0
M  V30 5332 H 487.744 3.65318 -0.805836 0
M  V30 5333 H 489.077 4.81066 -1.041 0
M  V30 5334 N 490.729 0.570148 1.46925 0
M  V30 5335 C 491.659 -0.158274 2.32963 0
M  V30 5336 C 492.64 -0.896093 1.44583 0
M  V30 5337 O 493.825 -0.874022 1.7342 0
M  V30 5338 C 490.955 -1.18055 3.26619 0
M  V30 5339 C 489.909 -0.558379 4.24342 0
M  V30 5340 C 489.235 -1.68623 5.07415 0
M  V30 5341 C 490.535 0.496295 5.19937 0
M  V30 5342 H 492.229 0.560046 2.94115 0
M  V30 5343 H 489.775 0.270775 1.41431 0
M  V30 5344 H 491.728 -1.69841 3.85658 0
M  V30 5345 H 490.452 -1.92899 2.63548 0
M  V30 5346 H 489.111 -0.0617157 3.66548 0
M  V30 5347 H 488.759 -2.42402 4.40738 0
M  V30 5348 H 488.459 -1.27564 5.73586 0
M  V30 5349 H 489.983 -2.20709 5.69315 0
M  V30 5350 H 491.397 0.0640052 5.73264 0
M  V30 5351 H 489.794 0.82649 5.94381 0
M  V30 5352 H 490.864 1.38735 4.6463 0
M  V30 5353 N 492.207 -1.54576 0.307264 0
M  V30 5354 C 493.432 -2.05139 -0.305379 0
M  V30 5355 C 493.857 -1.18278 -1.46259 0
M  V30 5356 O 493.215 -0.188243 -1.8032 0
M  V30 5357 C 493.263 -3.53066 -0.733283 0
M  V30 5358 O 492.367 -3.69206 -1.83741 0
M  V30 5359 H 491.708 -0.661444 -0.0582105 0
M  V30 5360 H 494.238 -1.99569 0.450931 0
M  V30 5361 H 494.248 -3.95034 -1.02039 0
M  V30 5362 H 492.923 -4.15746 0.113198 0
M  V30 5363 H 491.5 -3.39143 -1.55037 0
M  V30 5364 N 493.685 -0.035106 -1.57561 0
M  V30 5365 C 494.615 0.942993 -2.13612 0
M  V30 5366 C 495.596 1.33531 -1.05373 0
M  V30 5367 O 496.781 1.41287 -1.33235 0
M  V30 5368 C 493.911 2.22332 -2.66807 0
M  V30 5369 C 492.865 1.97156 -3.79886 0
M  V30 5370 C 492.191 3.31506 -4.19533 0
M  V30 5371 C 493.491 1.30596 -5.05709 0
M  V30 5372 H 495.185 0.476179 -2.95589 0
M  V30 5373 H 492.731 0.227602 -1.4219 0
M  V30 5374 H 494.684 2.91142 -3.04654 0
M  V30 5375 H 493.408 2.7119 -1.81999 0
M  V30 5376 H 492.067 1.30763 -3.42486 0
M  V30 5377 H 491.715 3.78134 -3.31698 0
M  V30 5378 H 491.415 3.15465 -4.95738 0
M  V30 5379 H 492.939 4.01574 -4.59968 0
M  V30 5380 H 494.353 1.89416 -5.41105 0
M  V30 5381 H 492.75 1.24934 -5.86951 0
M  V30 5382 H 493.82 0.279742 -4.84092 0
M  V30 5383 N 495.163 1.55791 0.238111 0
M  V30 5384 C 496.409 1.78297 0.966337 0
M  V30 5385 C 496.742 0.601903 1.84637 0
M  V30 5386 O 496.017 -0.399499 1.90353 0
M  V30 5387 C 496.3 3.10758 1.81939 0
M  V30 5388 C 496.153 4.39283 0.966958 0
M  V30 5389 C 497.472 3.39519 2.80027 0
M  V30 5390 H 494.591 0.648654 0.349882 0
M  V30 5391 H 497.233 1.88525 0.236253 0
M  V30 5392 H 495.383 3.02168 2.44185 0
M  V30 5393 H 497.055 4.59873 0.362514 0
M  V30 5394 H 495.298 4.32948 0.271669 0
M  V30 5395 H 495.969 5.28368 1.59784 0
M  V30 5396 H 498.445 3.48128 2.27917 0
M  V30 5397 H 497.321 4.33402 3.36829 0
M  V30 5398 H 497.582 2.60864 3.56934 0
M  V30 5399 N 496.642 -0.504142 1.49319 0
M  V30 5400 C 497.605 -1.5883 1.65244 0
M  V30 5401 C 498.605 -1.52009 0.524386 0
M  V30 5402 O 499.795 -1.55218 0.79077 0
M  V30 5403 C 496.927 -2.98481 1.64687 0
M  V30 5404 H 498.12 -1.4604 2.61939 0
M  V30 5405 H 495.673 -0.728144 1.38303 0
M  V30 5406 H 496.408 -3.16751 0.695644 0
M  V30 5407 H 496.193 -3.0484 2.46607 0
M  V30 5408 H 497.683 -3.77256 1.79075 0
M  V30 5409 N 498.12 -1.38341 -0.754957 0
M  V30 5410 C 499.345 -1.37882 -1.5493 0
M  V30 5411 C 499.77 0.0296385 -1.88077 0
M  V30 5412 O 499.128 1.01133 -1.50472 0
M  V30 5413 C 499.176 -2.23996 -2.82592 0
M  V30 5414 O 498.28 -1.65612 -3.77686 0
M  V30 5415 H 497.621 -0.470384 -0.468652 0
M  V30 5416 H 500.151 -1.82084 -0.933082 0
M  V30 5417 H 500.161 -2.37806 -3.3153 0
M  V30 5418 H 498.836 -3.26365 -2.57796 0
M  V30 5419 H 497.413 -1.60936 -3.36384 0
M  V30 5420 N 499.598 0.982988 -1.23187 0
M  V30 5421 C 500.508 2.10907 -1.02739 0
M  V30 5422 C 501.524 1.73979 0.0273188 0
M  V30 5423 O 502.7 2.00702 -0.16757 0
M  V30 5424 C 499.765 3.41142 -0.618304 0
M  V30 5425 C 498.826 3.92112 -1.74777 0
M  V30 5426 C 498.059 5.16131 -1.3581 0
M  V30 5427 O 498.282 5.6989 -0.241201 0
M  V30 5428 O 497.216 5.61103 -2.17824 0
M  V30 5429 H 501.042 2.31046 -1.97108 0
M  V30 5430 H 498.627 1.09284 -1.01869 0
M  V30 5431 H 500.509 4.19488 -0.400982 0
M  V30 5432 H 499.184 3.2234 0.296421 0
M  V30 5433 H 498.091 3.14895 -2.0197 0
M  V30 5434 H 499.424 4.15364 -2.64071 0
M  V30 5435 N 501.076 1.04316 1.18135 0
M  V30 5436 C 502.039 0.640794 2.2006 0
M  V30 5437 C 503.039 -0.303124 1.57917 0
M  V30 5438 O 504.229 -0.0881855 1.73977 0
M  V30 5439 C 501.361 -0.060148 3.40847 0
M  V30 5440 H 502.554 1.54281 2.57172 0
M  V30 5441 H 500.107 0.836004 1.32063 0
M  V30 5442 H 500.842 -0.975845 3.0927 0
M  V30 5443 H 500.627 0.618319 3.87194 0
M  V30 5444 H 502.117 -0.328082 4.16309 0
M  V30 5445 N 502.554 -1.34406 0.822964 0
M  V30 5446 C 503.8 -1.98578 0.411666 0
M  V30 5447 C 504.133 -1.65093 -1.02264 0
M  V30 5448 O 503.408 -0.92258 -1.71227 0
M  V30 5449 C 503.691 -3.54823 0.614235 0
M  V30 5450 C 503.544 -3.9805 2.09466 0
M  V30 5451 C 504.863 -4.40071 0.050221 0
M  V30 5452 H 501.982 -0.721355 0.151047 0
M  V30 5453 H 504.624 -1.59301 1.03554 0
M  V30 5454 H 502.774 -3.88411 0.0831774 0
M  V30 5455 H 504.446 -3.74795 2.68936 0
M  V30 5456 H 502.689 -3.4836 2.5851 0
M  V30 5457 H 503.36 -5.06819 2.18721 0
M  V30 5458 H 505.836 -4.13037 0.503953 0
M  V30 5459 H 504.712 -5.48452 0.221759 0
M  V30 5460 H 504.973 -4.29576 -1.04482 0
M  V30 5461 N 504.032 -0.577932 -1.46621 0
M  V30 5462 C 505.448 -0.239242 -1.57797 0
M  V30 5463 C 505.648 1.25843 -1.57371 0
M  V30 5464 O 504.704 2.03988 -1.48813 0
M  V30 5465 C 506.017 -0.884227 -2.87405 0
M  V30 5466 C 507.565 -0.857373 -3.01028 0
M  V30 5467 C 508.04 -1.48181 -4.33366 0
M  V30 5468 N 509.531 -1.44593 -4.40053 0
M  V30 5469 C 510.266 -1.89852 -5.41058 0
M  V30 5470 N 509.762 -2.43062 -6.48762 0
M  V30 5471 N 511.555 -1.80797 -5.3223 0
M  V30 5472 H 503.706 -1.55073 -1.45142 0
M  V30 5473 H 505.969 -0.647903 -0.692044 0
M  V30 5474 H 505.675 -1.93759 -2.93514 0
M  V30 5475 H 505.549 -0.389585 -3.75183 0
M  V30 5476 H 507.936 0.187357 -2.94505 0
M  V30 5477 H 508.017 -1.38999 -2.14739 0
M  V30 5478 H 507.661 -2.52572 -4.40647 0
M  V30 5479 H 507.591 -0.924464 -5.18422 0
M  V30 5480 H 510.082 -1.05694 -3.62819 0
M  V30 5481 H 510.395 -2.75466 -7.22038 0
M  V30 5482 H 508.74 -2.47085 -6.49595 0
M  V30 5483 H 511.931 -1.38989 -4.46989 0
M  V30 5484 H 512.104 -2.16385 -6.10804 0
M  V30 5485 N 505.51 1.54411 -0.315457 0
M  V30 5486 C 506.473 2.22713 0.54142 0
M  V30 5487 C 507.473 1.2179 1.04995 0
M  V30 5488 O 508.663 1.46426 0.943667 0
M  V30 5489 C 505.795 2.92485 1.75116 0
M  V30 5490 H 506.988 2.99849 -0.0555508 0
M  V30 5491 H 504.541 1.56159 -0.0664453 0
M  V30 5492 H 505.276 2.19466 2.38758 0
M  V30 5493 H 505.061 3.66483 1.39401 0
M  V30 5494 H 506.551 3.44548 2.35959 0
M  V30 5495 N 506.988 0.0434614 1.5754 0
M  V30 5496 C 508.237 -0.631454 1.91561 0
M  V30 5497 C 508.55 -1.72457 0.92292 0
M  V30 5498 O 509.756 -2.45712 1.15489 0
M  V30 5499 C 508.212 -1.17447 3.40197 0
M  V30 5500 C 507.82 -0.113867 4.47855 0
M  V30 5501 C 509.564 -1.82507 3.83264 0
M  V30 5502 C 507.471 -0.669326 5.876 0
M  V30 5503 H 506.401 -0.239629 0.714908 0
M  V30 5504 H 509.052 0.111097 1.83163 0
M  V30 5505 H 507.434 -1.96909 3.43574 0
M  V30 5506 H 508.608 0.659348 4.56058 0
M  V30 5507 H 506.923 0.438821 4.14081 0
M  V30 5508 H 509.52 -2.25047 4.85034 0
M  V30 5509 H 509.863 -2.67365 3.19095 0
M  V30 5510 H 510.396 -1.09712 3.82372 0
M  V30 5511 H 507.135 0.141449 6.55347 0
M  V30 5512 H 506.655 -1.4107 5.82974 0
M  V30 5513 H 508.334 -1.15463 6.36614 0
M  V30 5514 N 508.466 -1.55915 -0.229846 0
M  V30 5515 C 509.376 -1.94891 -1.30593 0
M  V30 5516 C 510.392 -0.851604 -1.51736 0
M  V30 5517 O 511.568 -1.15447 -1.65027 0
M  V30 5518 C 508.633 -2.25052 -2.63728 0
M  V30 5519 C 507.694 -3.48306 -2.5096 0
M  V30 5520 C 506.927 -3.77019 -3.77747 0
M  V30 5521 O 507.15 -3.07534 -4.80395 0
M  V30 5522 O 506.084 -4.70523 -3.75356 0
M  V30 5523 H 509.91 -2.86581 -1.00525 0
M  V30 5524 H 507.495 -1.43017 -0.432025 0
M  V30 5525 H 509.377 -2.45682 -3.42372 0
M  V30 5526 H 508.052 -1.36538 -2.93495 0
M  V30 5527 H 506.959 -3.32964 -1.70546 0
M  V30 5528 H 508.292 -4.37177 -2.26136 0
M  V30 5529 N 509.944 0.496216 -1.49584 0
M  V30 5530 C 510.891 1.59722 -1.66606 0
M  V30 5531 C 511.861 1.58158 -0.507477 0
M  V30 5532 O 513.046 1.76072 -0.735076 0
M  V30 5533 C 510.186 2.97844 -1.74308 0
M  V30 5534 C 509.299 3.09388 -3.01502 0
M  V30 5535 C 508.434 4.38271 -3.00153 0
M  V30 5536 C 507.473 4.43466 -4.21906 0
M  V30 5537 N 506.61 5.63784 -4.1844 0
M  V30 5538 H 511.45 1.44515 -2.60613 0
M  V30 5539 H 508.987 0.703048 -1.29212 0
M  V30 5540 H 510.945 3.77907 -1.76754 0
M  V30 5541 H 509.575 3.11743 -0.837619 0
M  V30 5542 H 508.627 2.22357 -3.08645 0
M  V30 5543 H 509.939 3.09085 -3.91494 0
M  V30 5544 H 509.093 5.2666 -3.01188 0
M  V30 5545 H 507.832 4.41146 -2.07947 0
M  V30 5546 H 506.837 3.53478 -4.21109 0
M  V30 5547 H 508.062 4.42303 -5.1531 0
M  V30 5548 H 506.008 5.67491 -3.29074 0
M  V30 5549 H 505.925 5.65118 -5.02173 0
M  V30 5550 H 507.193 6.54367 -4.23585 0
M  V30 5551 N 511.423 1.38739 0.74761 0
M  V30 5552 C 512.672 1.3459 1.50228 0
M  V30 5553 C 512.985 -0.0595592 1.95509 0
M  V30 5554 O 514.191 -0.22361 2.70578 0
M  V30 5555 C 512.647 2.36377 2.71393 0
M  V30 5556 C 512.255 3.82573 2.33113 0
M  V30 5557 C 513.999 2.41281 3.49262 0
M  V30 5558 C 511.906 4.76032 3.50924 0
M  V30 5559 H 510.836 0.500312 0.564096 0
M  V30 5560 H 513.487 1.64324 0.8167 0
M  V30 5561 H 511.869 1.99694 3.41962 0
M  V30 5562 H 513.043 4.28227 1.70171 0
M  V30 5563 H 511.358 3.80844 1.68365 0
M  V30 5564 H 513.955 3.08301 4.36869 0
M  V30 5565 H 514.298 1.43353 3.9084 0
M  V30 5566 H 514.831 2.76793 2.85711 0
M  V30 5567 H 511.57 5.75177 3.14408 0
M  V30 5568 H 511.09 4.35066 4.12889 0
M  V30 5569 H 512.769 4.94331 4.17427 0
M  V30 5570 N 512.901 -0.976442 1.23707 0
M  V30 5571 C 514.126 -1.75875 1.09922 0
M  V30 5572 C 514.551 -1.84911 -0.34489 0
M  V30 5573 O 513.909 -1.31363 -1.24954 0
M  V30 5574 C 513.957 -3.16179 1.73388 0
M  V30 5575 O 513.061 -4.00124 0.99871 0
M  V30 5576 H 512.402 -0.540954 0.385052 0
M  V30 5577 H 514.932 -1.22546 1.6384 0
M  V30 5578 H 514.942 -3.66741 1.78788 0
M  V30 5579 H 513.617 -3.08917 2.78466 0
M  V30 5580 H 512.194 -3.58624 1.02193 0
M  V30 5581 N 514.379 -1.04941 -1.1758 0
M  V30 5582 C 515.326 -0.648155 -2.21512 0
M  V30 5583 C 516.296 0.348431 -1.62404 0
M  V30 5584 O 517.481 0.240419 -1.89279 0
M  V30 5585 C 514.621 -0.0264291 -3.4509 0
M  V30 5586 C 513.734 -1.07154 -4.185 0
M  V30 5587 C 512.869 -0.417403 -5.29558 0
M  V30 5588 C 511.908 -1.447 -5.94751 0
M  V30 5589 N 511.045 -0.817203 -6.97328 0
M  V30 5590 H 515.885 -1.53891 -2.55189 0
M  V30 5591 H 513.422 -0.769699 -1.25356 0
M  V30 5592 H 515.38 0.351456 -4.15717 0
M  V30 5593 H 514.01 0.827802 -3.12005 0
M  V30 5594 H 513.062 -1.56728 -3.46613 0
M  V30 5595 H 514.374 -1.8532 -4.63096 0
M  V30 5596 H 513.528 0.0142061 -6.06698 0
M  V30 5597 H 512.267 0.396265 -4.86087 0
M  V30 5598 H 511.272 -1.88865 -5.16343 0
M  V30 5599 H 512.497 -2.26252 -6.40302 0
M  V30 5600 H 510.443 -0.0239995 -6.55996 0
M  V30 5601 H 510.36 -1.53644 -7.40223 0
M  V30 5602 H 511.628 -0.410283 -7.7842 0
M  V30 5603 N 515.857 1.33968 -0.830081 0
M  V30 5604 C 516.805 2.31301 -0.245435 0
M  V30 5605 C 517.799 1.57734 0.617762 0
M  V30 5606 O 519.005 1.72674 0.508303 0
M  V30 5607 H 515.38 0.749552 -0.0606316 0
M  V30 5608 H 517.351 2.78129 -1.08105 0
M  V30 5609 C 516.1 3.42961 0.572084 0
M  V30 5610 H 515.423 3.99714 -0.0828118 0
M  V30 5611 H 516.863 4.13286 0.94715 0
M  V30 5612 C 515.322 2.88043 1.74737 0
M  V30 5613 O 515.852 2.83508 2.8458 0
M  V30 5614 N 514.058 2.44768 1.56642 0
M  V30 5615 H 513.605 2.48656 0.672901 0
M  V30 5616 H 513.563 2.08375 2.3543 0
M  V30 5617 N 517.335 0.585699 1.46312 0
M  V30 5618 C 518.563 0.0781299 2.06752 0
M  V30 5619 C 518.978 -1.22812 1.43396 0
M  V30 5620 O 518.335 -1.74318 0.540314 0
M  V30 5621 C 518.386 -0.0911927 3.61385 0
M  V30 5622 O 518.107 1.16336 4.22371 0
M  V30 5623 C 519.608 -0.632765 4.38761 0
M  V30 5624 H 516.828 0.0588188 0.668417 0
M  V30 5625 H 519.372 0.807218 1.87894 0
M  V30 5626 H 517.527 -0.770514 3.7966 0
M  V30 5627 H 517.941 0.979082 5.15281 0
M  V30 5628 H 519.415 -0.70041 5.47538 0
M  V30 5629 H 519.892 -1.65039 4.07012 0
M  V30 5630 H 520.498 0.0117856 4.25298 0
M  V30 5631 N 518.813 -1.54241 0.323641 0
M  V30 5632 C 520.229 -1.59574 -0.0290018 0
M  V30 5633 C 520.429 -1.34017 -1.50472 0
M  V30 5634 O 519.485 -1.12464 -2.26071 0
M  V30 5635 C 520.798 -2.98169 0.389295 0
M  V30 5636 C 522.346 -3.11148 0.339958 0
M  V30 5637 C 522.821 -4.5209 0.733418 0
M  V30 5638 N 524.312 -4.5808 0.686827 0
M  V30 5639 C 525.047 -5.65248 0.963464 0
M  V30 5640 N 524.543 -6.80355 1.30724 0
M  V30 5641 N 526.336 -5.55025 0.88902 0
M  V30 5642 H 518.487 -1.6911 1.28512 0
M  V30 5643 H 520.75 -0.790972 0.522558 0
M  V30 5644 H 520.456 -3.21871 1.41746 0
M  V30 5645 H 520.33 -3.76399 -0.245657 0
M  V30 5646 H 522.717 -2.87182 -0.679002 0
M  V30 5647 H 522.798 -2.35023 1.00985 0
M  V30 5648 H 522.442 -4.76788 1.75029 0
M  V30 5649 H 522.372 -5.26584 0.0412189 0
M  V30 5650 H 524.863 -3.75411 0.43298 0
M  V30 5651 H 525.176 -7.58029 1.5037 0
M  V30 5652 H 523.521 -6.81851 1.3455 0
M  V30 5653 H 526.712 -4.63977 0.619939 0
M  V30 5654 H 526.885 -6.38458 1.10797 0
M  V30 5655 N 520.291 -0.0518155 -1.57515 0
M  V30 5656 C 521.521 0.63048 -1.96745 0
M  V30 5657 C 521.929 1.64875 -0.928054 0
M  V30 5658 O 521.272 1.83449 0.0960678 0
M  V30 5659 C 521.334 1.37381 -3.32215 0
M  V30 5660 C 520.998 0.511298 -4.54131 0
M  V30 5661 C 521.995 -0.222884 -5.19422 0
M  V30 5662 C 519.68 0.442035 -5.00351 0
M  V30 5663 C 521.674 -1.01476 -6.2927 0
M  V30 5664 C 519.361 -0.35353 -6.10077 0
M  V30 5665 C 520.359 -1.08062 -6.74397 0
M  V30 5666 O 520.047 -1.8631 -7.82013 0
M  V30 5667 H 519.779 0.177126 -0.652382 0
M  V30 5668 H 522.333 -0.114726 -2.05079 0
M  V30 5669 H 520.563 2.16466 -3.20436 0
M  V30 5670 H 522.252 1.9464 -3.56188 0
M  V30 5671 H 523.018 -0.178846 -4.8467 0
M  V30 5672 H 518.897 0.997562 -4.50077 0
M  V30 5673 H 522.441 -1.58279 -6.79407 0
M  V30 5674 H 518.338 -0.399205 -6.44264 0
M  V30 5675 H 519.106 -1.78528 -7.98793 0
M  V30 5676 N 521.769 1.56035 0.221574 0
M  V30 5677 C 522.997 1.8313 0.962864 0
M  V30 5678 C 523.412 0.630934 1.77946 0
M  V30 5679 O 522.769 -0.400519 1.78051 0
M  V30 5680 C 522.82 3.08742 1.88045 0
M  V30 5681 O 522.541 4.24147 1.09686 0
M  V30 5682 C 524.042 3.48824 2.73563 0
M  V30 5683 H 521.262 0.608775 0.282194 0
M  V30 5684 H 523.806 2.03124 0.23681 0
M  V30 5685 H 521.961 2.90723 2.56045 0
M  V30 5686 H 522.375 4.95505 1.71974 0
M  V30 5687 H 523.849 4.39752 3.3365 0
M  V30 5688 H 524.326 2.70575 3.45956 0
M  V30 5689 H 524.932 3.69282 2.10976 0
M  V30 5690 N 523.247 -0.488276 1.49845 0
M  V30 5691 C 524.197 -1.58556 1.63842 0
M  V30 5692 C 525.181 -1.53142 0.493586 0
M  V30 5693 O 526.373 -1.60457 0.747169 0
M  V30 5694 C 523.502 -2.97101 1.72005 0
M  V30 5695 C 522.588 -3.07463 2.92108 0
M  V30 5696 N 522.979 -2.87681 4.16021 0
M  V30 5697 C 521.277 -3.3858 2.90309 0
M  V30 5698 C 521.978 -3.0256 4.96822 0
M  V30 5699 N 520.954 -3.32002 4.30437 0
M  V30 5700 H 524.756 -1.41935 2.57355 0
M  V30 5701 H 522.27 -0.694668 1.46793 0
M  V30 5702 H 524.267 -3.75976 1.80132 0
M  V30 5703 H 522.927 -3.14782 0.796375 0
M  V30 5704 H 523.938 -2.63603 4.45796 0
M  V30 5705 H 520.615 -3.62357 2.07372 0
M  V30 5706 H 522.005 -2.9165 6.05301 0
M  V30 5707 N 524.725 -1.39134 -0.740242 0
M  V30 5708 C 525.973 -1.35803 -1.49673 0
M  V30 5709 C 526.294 0.0470897 -1.94943 0
M  V30 5710 O 525.564 0.997347 -1.68611 0
M  V30 5711 H 524.144 -0.499736 -0.555224 0
M  V30 5712 H 526.806 -1.73947 -0.879107 0
M  V30 5713 H 525.902 -2.0174 -2.38133 0
M  V30 5714 N 526.204 0.969867 -1.24223 0
M  V30 5715 C 527.154 2.04913 -0.999732 0
M  V30 5716 C 528.138 1.60795 0.0580636 0
M  V30 5717 O 529.33 1.76317 -0.155392 0
M  V30 5718 C 526.459 3.37942 -0.604154 0
M  V30 5719 C 525.545 3.88628 -1.69791 0
M  V30 5720 N 525.936 4.12274 -2.93025 0
M  V30 5721 C 524.234 4.17268 -1.57492 0
M  V30 5722 C 524.935 4.53808 -3.63914 0
M  V30 5723 N 523.911 4.58855 -2.91468 0
M  V30 5724 H 527.713 2.21168 -1.93551 0
M  V30 5725 H 525.227 1.15349 -1.14317 0
M  V30 5726 H 527.224 4.14863 -0.411665 0
M  V30 5727 H 525.884 3.23075 0.324465 0
M  V30 5728 H 526.895 3.99789 -3.29225 0
M  V30 5729 H 523.572 4.11346 -0.714175 0
M  V30 5730 H 524.962 4.80534 -4.69614 0
M  V30 5731 N 527.682 1.05563 1.17022 0
M  V30 5732 C 528.93 0.76642 1.87004 0
M  V30 5733 C 529.251 -0.708854 1.8166 0
M  V30 5734 O 528.521 -1.51242 1.2451 0
M  V30 5735 H 527.101 0.280516 0.692329 0
M  V30 5736 H 529.763 1.33557 1.41945 0
M  V30 5737 H 528.859 1.08472 2.92644 0
M  V30 5738 N 529.16 -1.33526 0.837174 0
M  V30 5739 C 530.385 -2.0258 0.444545 0
M  V30 5740 C 530.81 -1.6258 -0.946006 0
M  V30 5741 O 530.168 -0.817548 -1.6182 0
M  V30 5742 C 530.216 -3.5605 0.571006 0
M  V30 5743 O 529.32 -4.10422 -0.403431 0
M  V30 5744 H 528.661 -0.638866 0.180958 0
M  V30 5745 H 531.191 -1.70462 1.13154 0
M  V30 5746 H 531.201 -4.05488 0.452024 0
M  V30 5747 H 529.876 -3.84509 1.58512 0
M  V30 5748 H 528.453 -3.72113 -0.242147 0
M  V30 5749 N 530.638 -0.59345 -1.46 0
M  V30 5750 C 531.548 0.135817 -2.34207 0
M  V30 5751 C 532.564 0.875008 -1.50398 0
M  V30 5752 O 533.74 0.835778 -1.83239 0
M  V30 5753 C 530.805 1.12977 -3.27776 0
M  V30 5754 C 529.866 0.394081 -4.27487 0
M  V30 5755 C 529.099 1.34068 -5.16586 0
M  V30 5756 O 529.322 2.5778 -5.08828 0
M  V30 5757 O 528.256 0.845426 -5.95933 0
M  V30 5758 H 532.082 -0.588691 -2.9794 0
M  V30 5759 H 529.667 -0.353784 -1.45151 0
M  V30 5760 H 531.549 1.70261 -3.85473 0
M  V30 5761 H 530.224 1.83556 -2.66625 0
M  V30 5762 H 529.131 -0.220869 -3.73447 0
M  V30 5763 H 530.464 -0.270939 -4.91454 0
M  V30 5764 N 532.116 1.54067 -0.331816 0
M  V30 5765 C 533.344 2.05131 0.269996 0
M  V30 5766 C 533.759 1.20749 1.45138 0
M  V30 5767 O 533.116 0.240069 1.80914 0
M  V30 5768 C 533.167 3.54728 0.696456 0
M  V30 5769 O 532.888 4.35906 -0.43794 0
M  V30 5770 C 534.389 4.21916 1.36021 0
M  V30 5771 H 531.609 0.668807 0.0542042 0
M  V30 5772 H 534.153 1.98777 -0.4804 0
M  V30 5773 H 532.308 3.61342 1.39681 0
M  V30 5774 H 532.722 5.24404 -0.100334 0
M  V30 5775 H 534.196 5.28015 1.60947 0
M  V30 5776 H 534.673 3.73538 2.31011 0
M  V30 5777 H 535.279 4.19463 0.702212 0
M  V30 5778 N 533.594 0.0601682 1.57485 0
M  V30 5779 C 534.524 -0.90889 2.15085 0
M  V30 5780 C 535.505 -1.31838 1.07484 0
M  V30 5781 O 536.69 -1.3915 1.35466 0
M  V30 5782 C 533.82 -2.18059 2.7031 0
M  V30 5783 C 532.774 -1.91088 3.82974 0
M  V30 5784 C 532.1 -3.24789 4.24754 0
M  V30 5785 C 533.4 -1.22535 5.07723 0
M  V30 5786 H 535.094 -0.429093 2.96309 0
M  V30 5787 H 532.64 -0.204952 1.42534 0
M  V30 5788 H 534.593 -2.86258 3.09248 0
M  V30 5789 H 533.317 -2.6826 1.8629 0
M  V30 5790 H 531.976 -1.25297 3.44523 0
M  V30 5791 H 531.624 -3.72809 3.37672 0
M  V30 5792 H 531.324 -3.07538 5.00694 0
M  V30 5793 H 532.848 -3.94205 4.66299 0
M  V30 5794 H 534.262 -1.80783 5.4405 0
M  V30 5795 H 532.659 -1.1558 5.88864 0
M  V30 5796 H 533.729 -0.202692 4.84476 0
M  V30 5797 N 535.072 -1.5615 -0.213296 0
M  V30 5798 C 536.302 -1.83372 -0.951757 0
M  V30 5799 C 536.71 -0.638158 -1.78113 0
M  V30 5800 O 536.053 0.402609 -1.79234 0
M  V30 5801 C 536.115 -3.04444 -1.91192 0
M  V30 5802 C 535.779 -4.39107 -1.26627 0
M  V30 5803 C 536.776 -5.15794 -0.652087 0
M  V30 5804 C 534.461 -4.85834 -1.27556 0
M  V30 5805 C 536.455 -6.37376 -0.055814 0
M  V30 5806 C 534.142 -6.07356 -0.675451 0
M  V30 5807 C 535.14 -6.82967 -0.0666367 0
M  V30 5808 O 534.828 -8.0219 0.524119 0
M  V30 5809 H 534.56 -0.613398 -0.284111 0
M  V30 5810 H 537.114 -2.04096 -0.231112 0
M  V30 5811 H 535.344 -2.79559 -2.67178 0
M  V30 5812 H 537.033 -3.18466 -2.51662 0
M  V30 5813 H 537.799 -4.80796 -0.637172 0
M  V30 5814 H 533.678 -4.26949 -1.73883 0
M  V30 5815 H 537.222 -6.96334 0.420004 0
M  V30 5816 H 533.119 -6.41825 -0.687806 0
M  V30 5817 H 533.887 -8.17426 0.419243 0
M  V30 5818 N 536.55 0.480323 -1.50102 0
M  V30 5819 C 537.48 1.58769 -1.71215 0
M  V30 5820 C 538.461 1.60583 -0.560997 0
M  V30 5821 O 539.646 1.76996 -0.799127 0
M  V30 5822 C 536.776 2.97148 -1.79778 0
M  V30 5823 C 535.73 3.10201 -2.94888 0
M  V30 5824 C 535.056 4.50137 -2.88584 0
M  V30 5825 C 536.356 2.88283 -4.35534 0
M  V30 5826 H 538.05 1.41354 -2.6393 0
M  V30 5827 H 535.596 0.678591 -1.27008 0
M  V30 5828 H 537.549 3.74536 -1.93133 0
M  V30 5829 H 536.273 3.15699 -0.836772 0
M  V30 5830 H 534.932 2.35244 -2.81169 0
M  V30 5831 H 534.58 4.65593 -1.90349 0
M  V30 5832 H 534.28 4.59808 -3.65856 0
M  V30 5833 H 535.804 5.29558 -3.03976 0
M  V30 5834 H 537.218 3.55427 -4.49827 0
M  V30 5835 H 535.615 3.09408 -5.14186 0
M  V30 5836 H 536.685 1.84219 -4.48544 0
M  V30 5837 N 538.028 1.39524 0.732853 0
M  V30 5838 C 538.991 1.38189 1.82857 0
M  V30 5839 C 539.991 0.278624 1.58368 0
M  V30 5840 O 541.181 0.536639 1.65728 0
M  V30 5841 C 538.313 1.15661 3.2068 0
M  V30 5842 H 539.506 2.35692 1.85444 0
M  V30 5843 H 537.059 1.2512 0.936728 0
M  V30 5844 H 537.794 0.188482 3.23752 0
M  V30 5845 H 537.579 1.95559 3.39852 0
M  V30 5846 H 539.069 1.17472 4.00737 0
M  V30 5847 N 539.506 -0.963266 1.24736 0
M  V30 5848 C 540.917 -1.52145 1.08207 0
M  V30 5849 C 541.268 -1.93142 -0.345061 0
M  V30 5850 O 540.393 -1.77769 -1.23399 0
M  V30 5851 C 540.988 -2.76486 1.95808 0
M  V30 5852 C 539.547 -3.28646 1.8349 0
M  V30 5853 C 538.694 -2.01529 1.90476 0
M  V30 5854 H 541.645 -0.781083 1.38148 0
M  V30 5855 H 541.666 -3.49986 1.49297 0
M  V30 5856 H 541.178 -2.46617 2.99669 0
M  V30 5857 H 539.279 -3.63357 0.824787 0
M  V30 5858 H 539.392 -3.97246 2.67829 0
M  V30 5859 H 537.756 -2.16442 1.34258 0
M  V30 5860 H 538.539 -1.7402 2.95926 0
M  V30 5861 N 540.985 -1.06182 -1.16461 0
M  V30 5862 C 542.233 -0.776326 -1.86595 0
M  V30 5863 C 542.554 0.69921 -1.82033 0
M  V30 5864 O 541.824 1.50579 -1.2531 0
M  V30 5865 H 540.404 -0.284184 -0.690832 0
M  V30 5866 H 543.066 -1.34308 -1.41235 0
M  V30 5867 H 542.162 -1.10022 -2.92064 0
M  V30 5868 N 542.463 1.3308 -0.844243 0
M  V30 5869 C 543.711 1.97215 -0.441676 0
M  V30 5870 C 544.032 1.67185 1.0037 0
M  V30 5871 O 543.302 0.973588 1.69994 0
M  V30 5872 H 541.882 0.72959 -0.160335 0
M  V30 5873 H 544.544 1.62348 -1.07838 0
M  V30 5874 H 543.64 3.06698 -0.57815 0
M  V30 5875 N 543.941 0.601185 1.45683 0
M  V30 5876 C 545.189 0.0936957 2.01883 0
M  V30 5877 C 545.51 -1.2779 1.47291 0
M  V30 5878 O 544.78 -1.84279 0.664691 0
M  V30 5879 H 543.36 0.0316466 0.746329 0
M  V30 5880 H 546.022 0.781137 1.78562 0
M  V30 5881 H 545.118 0.0386297 3.12076 0
M  V30 5882 N 545.419 -1.53889 0.339982 0
M  V30 5883 C 546.696 -1.93084 -0.312719 0
M  V30 5884 C 547.076 -1.2712 -1.68534 0
M  V30 5885 O 546.424 -0.420835 -2.24591 0
M  V30 5886 C 546.634 -3.4683 -0.388558 0
M  V30 5887 C 547.982 -4.19732 -0.641088 0
M  V30 5888 O 549.006 -3.53075 -0.470818 0
M  V30 5889 O 547.865 -5.3781 -0.970685 0
M  V30 5890 H 544.959 -0.806784 -0.18174 0
M  V30 5891 H 547.505 -1.65137 0.390898 0
M  V30 5892 H 546.277 -3.87055 0.574821 0
M  V30 5893 H 545.9 -3.80933 -1.1391 0
M  V30 5894 N 546.897 -0.0685191 -1.57451 0
M  V30 5895 C 548.174 0.642167 -1.84758 0
M  V30 5896 C 548.554 1.87991 -0.960344 0
M  V30 5897 O 547.902 2.28485 -0.0257894 0
M  V30 5898 C 548.112 0.982946 -3.34872 0
M  V30 5899 C 549.46 1.35784 -4.02303 0
M  V30 5900 O 550.484 1.07477 -3.39598 0
M  V30 5901 O 549.343 1.88681 -5.12895 0
M  V30 5902 H 546.437 0.318625 -0.763156 0
M  V30 5903 H 548.983 -0.0992015 -1.6941 0
M  V30 5904 H 547.755 0.10372 -3.91163 0
M  V30 5905 H 547.378 1.78119 -3.55471 0
M  V30 5906 N 548.375 1.56261 0.205012 0
M  V30 5907 C 549.621 1.81211 0.923805 0
M  V30 5908 C 549.976 0.644065 1.813 0
M  V30 5909 O 549.269 -0.361208 1.88164 0
M  V30 5910 C 549.463 3.09722 1.78345 0
M  V30 5911 C 549.292 4.38915 0.978979 0
M  V30 5912 C 548.062 5.00874 0.667332 0
M  V30 5913 C 550.26 5.13199 0.336386 0
M  V30 5914 N 548.242 6.137 -0.156814 0
M  V30 5915 C 549.613 6.19009 -0.350402 0
M  V30 5916 C 551.668 4.97266 0.251101 0
M  V30 5917 C 550.371 7.10616 -1.11434 0
M  V30 5918 C 552.397 5.89288 -0.499413 0
M  V30 5919 C 551.759 6.94536 -1.17468 0
M  V30 5920 H 547.858 0.714528 0.317764 0
M  V30 5921 H 550.442 1.93738 0.193317 0
M  V30 5922 H 548.613 2.98448 2.48563 0
M  V30 5923 H 550.345 3.22798 2.44098 0
M  V30 5924 H 547.1 4.63151 0.989366 0
M  V30 5925 H 547.524 6.74695 -0.558206 0
M  V30 5926 H 552.166 4.15935 0.758823 0
M  V30 5927 H 549.884 7.91417 -1.63353 0
M  V30 5928 H 553.47 5.79034 -0.566627 0
M  V30 5929 H 552.35 7.64513 -1.74613 0
M  V30 5930 N 549.853 -0.472356 1.50355 0
M  V30 5931 C 551.102 -1.2213 1.60522 0
M  V30 5932 C 551.415 -1.9312 0.310466 0
M  V30 5933 O 552.621 -2.69936 0.291029 0
M  V30 5934 C 551.077 -2.21909 2.83345 0
M  V30 5935 C 550.685 -1.56727 4.19691 0
M  V30 5936 C 552.429 -2.97453 3.02856 0
M  V30 5937 C 550.336 -2.54785 5.33703 0
M  V30 5938 H 549.266 -0.459543 0.597776 0
M  V30 5939 H 551.917 -0.491922 1.76783 0
M  V30 5940 H 550.299 -2.98133 2.60639 0
M  V30 5941 H 551.473 -0.863007 4.52646 0
M  V30 5942 H 549.788 -0.934685 4.05774 0
M  V30 5943 H 552.385 -3.70838 3.85205 0
M  V30 5944 H 552.728 -3.56764 2.14534 0
M  V30 5945 H 553.261 -2.28342 3.25737 0
M  V30 5946 H 550 -2.00214 6.24175 0
M  V30 5947 H 549.52 -3.23367 5.05167 0
M  V30 5948 H 551.199 -3.16639 5.64224 0
M  V30 5949 N 551.331 -1.39911 -0.725443 0
M  V30 5950 C 552.561 -1.40744 -1.51244 0
M  V30 5951 C 552.969 -0.00275403 -1.892 0
M  V30 5952 O 552.312 0.981299 -1.55294 0
M  V30 5953 C 552.374 -2.22527 -2.82351 0
M  V30 5954 C 552.038 -3.71053 -2.66774 0
M  V30 5955 C 553.035 -4.63916 -2.34686 0
M  V30 5956 C 550.72 -4.14753 -2.83347 0
M  V30 5957 C 552.714 -5.98463 -2.19366 0
M  V30 5958 C 550.401 -5.49372 -2.67644 0
M  V30 5959 C 551.399 -6.41042 -2.357 0
M  V30 5960 O 551.087 -7.73181 -2.20107 0
M  V30 5961 H 550.819 -0.482314 -0.473655 0
M  V30 5962 H 553.373 -1.84472 -0.903284 0
M  V30 5963 H 551.603 -1.73563 -3.45562 0
M  V30 5964 H 553.292 -2.15421 -3.44018 0
M  V30 5965 H 554.058 -4.31453 -2.21525 0
M  V30 5966 H 549.937 -3.43728 -3.072 0
M  V30 5967 H 553.481 -6.69979 -1.94354 0
M  V30 5968 H 549.378 -5.81424 -2.80387 0
M  V30 5969 H 550.146 -7.84008 -2.35103 0
M  V30 5970 N 552.809 0.956637 -1.25245 0
M  V30 5971 C 554.086 1.67716 -1.00651 0
M  V30 5972 C 554.466 2.0585 0.467866 0
M  V30 5973 O 553.814 1.77029 1.44475 0
M  V30 5974 C 554.024 2.90093 -1.94028 0
M  V30 5975 C 555.372 3.6209 -2.21756 0
M  V30 5976 O 556.396 3.00171 -1.9177 0
M  V30 5977 O 555.255 4.7358 -2.72735 0
M  V30 5978 H 552.349 0.733731 -0.381533 0
M  V30 5979 H 554.895 1.00974 -1.3639 0
M  V30 5980 H 553.667 2.58689 -2.93591 0
M  V30 5981 H 553.29 3.64566 -1.58674 0
M  V30 5982 N 554.287 1.06798 1.15896 0
M  V30 5983 C 555.217 0.704677 2.22613 0
M  V30 5984 C 556.198 -0.305252 1.67339 0
M  V30 5985 O 557.383 -0.179247 1.93371 0
M  V30 5986 C 554.513 0.0957325 3.47168 0
M  V30 5987 C 553.467 1.0322 4.15367 0
M  V30 5988 C 552.793 0.286293 5.33933 0
M  V30 5989 C 554.093 2.36341 4.65768 0
M  V30 5990 H 555.787 1.59688 2.53259 0
M  V30 5991 H 553.333 0.769257 1.21731 0
M  V30 5992 H 555.286 -0.170333 4.21056 0
M  V30 5993 H 554.01 -0.831516 3.15838 0
M  V30 5994 H 552.669 1.28309 3.43413 0
M  V30 5995 H 552.317 -0.644237 4.98857 0
M  V30 5996 H 552.017 0.910436 5.80504 0
M  V30 5997 H 553.541 0.0278938 6.10594 0
M  V30 5998 H 554.955 2.1561 5.31211 0
M  V30 5999 H 553.352 2.94299 5.2298 0
M  V30 6000 H 554.422 2.99047 3.81705 0
M  V30 6001 N 555.766 -1.3263 0.851289 0
M  V30 6002 C 557.014 -1.96978 0.452128 0
M  V30 6003 C 557.335 -1.67715 -0.99482 0
M  V30 6004 O 556.605 -0.98259 -1.69476 0
M  V30 6005 H 555.185 -0.72873 0.164202 0
M  V30 6006 H 557.847 -1.61774 1.08698 0
M  V30 6007 H 556.943 -3.06387 0.594407 0
M  V30 6008 N 557.244 -0.608902 -1.45362 0
M  V30 6009 C 558.493 -0.10218 -2.01441 0
M  V30 6010 C 558.806 1.27546 -1.48295 0
M  V30 6011 O 560.012 1.87498 -1.96359 0
M  V30 6012 C 558.468 -0.131985 -3.59658 0
M  V30 6013 C 558.076 -1.50956 -4.21801 0
M  V30 6014 C 559.82 0.319427 -4.23296 0
M  V30 6015 C 557.727 -1.49568 -5.72174 0
M  V30 6016 H 556.657 -0.0344314 -0.753213 0
M  V30 6017 H 559.308 -0.764426 -1.6682 0
M  V30 6018 H 557.69 0.596939 -3.91475 0
M  V30 6019 H 558.864 -2.26029 -4.01556 0
M  V30 6020 H 557.179 -1.90318 -3.70362 0
M  V30 6021 H 559.776 0.349013 -5.3356 0
M  V30 6022 H 560.119 1.34237 -3.94064 0
M  V30 6023 H 560.652 -0.356273 -3.96201 0
M  V30 6024 H 557.391 -2.49626 -6.06108 0
M  V30 6025 H 556.911 -0.787542 -5.94607 0
M  V30 6026 H 558.59 -1.21989 -6.35396 0
M  V30 6027 N 558.722 1.53707 -0.348139 0
M  V30 6028 C 559.669 2.25173 0.506518 0
M  V30 6029 C 560.639 1.25174 1.09182 0
M  V30 6030 O 561.824 1.53917 1.12757 0
M  V30 6031 C 558.964 3.03141 1.64923 0
M  V30 6032 C 558.077 4.18002 1.0908 0
M  V30 6033 C 557.212 4.83447 2.20119 0
M  V30 6034 C 556.251 5.90369 1.61651 0
M  V30 6035 N 555.388 6.49575 2.66451 0
M  V30 6036 H 560.228 2.97799 -0.109452 0
M  V30 6037 H 557.765 1.46953 -0.0657866 0
M  V30 6038 H 559.723 3.46607 2.32205 0
M  V30 6039 H 558.353 2.32803 2.23612 0
M  V30 6040 H 557.405 3.79145 0.308783 0
M  V30 6041 H 558.717 4.94892 0.623178 0
M  V30 6042 H 557.871 5.30008 2.95257 0
M  V30 6043 H 556.61 4.05991 2.70227 0
M  V30 6044 H 555.615 5.43186 0.850209 0
M  V30 6045 H 556.84 6.69735 1.1239 0
M  V30 6046 H 554.786 5.74981 3.15805 0
M  V30 6047 H 554.703 7.21952 2.24325 0
M  V30 6048 H 555.971 7.00789 3.41344 0
M  V30 6049 N 560.2 0.0768682 1.57412 0
M  V30 6050 C 561.43 -0.5991 1.97723 0
M  V30 6051 C 561.838 -1.63378 0.954166 0
M  V30 6052 O 561.181 -1.83578 -0.0668706 0
M  V30 6053 C 561.243 -1.32078 3.34358 0
M  V30 6054 C 560.907 -0.438985 4.54887 0
M  V30 6055 C 561.904 0.305492 5.19002 0
M  V30 6056 C 559.589 -0.362378 5.00991 0
M  V30 6057 C 561.583 1.11475 6.27576 0
M  V30 6058 C 559.27 0.450543 6.09437 0
M  V30 6059 C 560.268 1.18777 6.72593 0
M  V30 6060 O 559.956 1.98727 7.7895 0
M  V30 6061 H 559.688 -0.166725 0.655117 0
M  V30 6062 H 562.242 0.147337 2.04871 0
M  V30 6063 H 560.472 -2.1134 3.2384 0
M  V30 6064 H 562.161 -1.88949 3.5924 0
M  V30 6065 H 562.927 0.25593 4.84324 0
M  V30 6066 H 558.806 -0.925832 4.51608 0
M  V30 6067 H 562.35 1.69068 6.76803 0
M  V30 6068 H 558.247 0.501651 6.43548 0
M  V30 6069 H 559.015 1.91214 7.95851 0
M  V30 6070 N 561.678 -1.56367 -0.196722 0
M  V30 6071 C 562.903 -1.84991 -0.937714 0
M  V30 6072 C 563.328 -0.660244 -1.76132 0
M  V30 6073 O 562.686 0.390967 -1.77034 0
M  V30 6074 C 562.734 -3.11828 -1.81096 0
M  V30 6075 O 561.838 -2.92266 -2.90955 0
M  V30 6076 H 561.179 -0.609193 -0.264159 0
M  V30 6077 H 563.709 -2.03595 -0.202529 0
M  V30 6078 H 563.719 -3.42579 -2.21594 0
M  V30 6079 H 562.394 -3.98037 -1.2058 0
M  V30 6080 H 560.971 -2.72809 -2.54224 0
M  V30 6081 N 563.156 0.464375 -1.50603 0
M  V30 6082 C 564.403 1.21596 -1.61928 0
M  V30 6083 C 564.731 1.91804 -0.322737 0
M  V30 6084 O 563.986 1.83065 0.691776 0
M  V30 6085 C 564.285 2.278 -2.75394 0
M  V30 6086 C 563.951 1.74797 -4.1564 0
M  V30 6087 C 562.613 1.60063 -4.53799 0
M  V30 6088 C 564.965 1.35548 -5.03266 0
M  V30 6089 C 562.293 1.04514 -5.77316 0
M  V30 6090 C 564.645 0.814381 -6.27336 0
M  V30 6091 C 563.309 0.653726 -6.64291 0
M  V30 6092 H 562.579 0.444951 -0.592536 0
M  V30 6093 H 565.226 0.510964 -1.84557 0
M  V30 6094 H 563.531 3.04233 -2.46879 0
M  V30 6095 H 565.228 2.85723 -2.81359 0
M  V30 6096 H 561.818 1.87234 -3.8554 0
M  V30 6097 H 566.002 1.45763 -4.74412 0
M  V30 6098 H 561.258 0.908186 -6.04617 0
M  V30 6099 H 565.432 0.501626 -6.94591 0
M  V30 6100 H 563.059 0.22114 -7.59878 0
M  V30 6101 N 564.634 1.40294 0.718013 0
M  V30 6102 C 565.862 1.4175 1.50714 0
M  V30 6103 C 566.277 0.0165366 1.88793 0
M  V30 6104 O 565.634 -0.958942 1.55276 0
M  V30 6105 C 565.685 2.30598 2.784 0
M  V30 6106 O 565.406 3.6524 2.41932 0
M  V30 6107 C 566.907 2.4062 3.72313 0
M  V30 6108 H 564.127 0.483565 0.465194 0
M  V30 6109 H 566.671 1.84316 0.885889 0
M  V30 6110 H 564.826 1.91401 3.36815 0
M  V30 6111 H 565.24 4.12402 3.24076 0
M  V30 6112 H 566.714 3.07001 4.58753 0
M  V30 6113 H 567.191 1.4305 4.15251 0
M  V30 6114 H 567.797 2.80359 3.19811 0
M  V30 6115 N 566.112 -0.949982 1.2575 0
M  V30 6116 C 567.361 -1.68956 1.10168 0
M  V30 6117 C 567.674 -1.92327 -0.356309 0
M  V30 6118 O 568.88 -2.64026 -0.632657 0
M  V30 6119 C 567.336 -3.04196 1.92336 0
M  V30 6120 C 566.944 -2.88603 3.42655 0
M  V30 6121 C 568.688 -3.81904 1.85336 0
M  V30 6122 C 566.595 -4.19262 4.17101 0
M  V30 6123 H 565.525 -0.633645 0.408668 0
M  V30 6124 H 568.176 -1.05719 1.49986 0
M  V30 6125 H 566.558 -3.68363 1.45344 0
M  V30 6126 H 567.732 -2.3334 3.97353 0
M  V30 6127 H 566.047 -2.24345 3.50796 0
M  V30 6128 H 568.644 -4.78688 2.38248 0
M  V30 6129 H 568.987 -4.08099 0.822226 0
M  V30 6130 H 569.52 -3.24495 2.30104 0
M  V30 6131 H 566.259 -3.98254 5.20648 0
M  V30 6132 H 565.779 -4.74273 3.67186 0
M  V30 6133 H 567.458 -4.87775 4.25071 0
M  V30 6134 N 567.59 -1.07411 -1.15328 0
M  V30 6135 C 568.5 -0.706438 -2.23711 0
M  V30 6136 C 569.516 0.282586 -1.7169 0
M  V30 6137 O 570.692 0.129066 -2.00986 0
M  V30 6138 C 567.757 -0.11048 -3.46524 0
M  V30 6139 C 566.818 -1.15282 -4.13532 0
M  V30 6140 C 566.051 -0.585205 -5.30482 0
M  V30 6141 O 566.274 0.598549 -5.67251 0
M  V30 6142 O 565.208 -1.33039 -5.87013 0
M  V30 6143 H 569.034 -1.61031 -2.57493 0
M  V30 6144 H 566.619 -0.847113 -1.23062 0
M  V30 6145 H 568.501 0.21957 -4.20828 0
M  V30 6146 H 567.176 0.766703 -3.14489 0
M  V30 6147 H 566.083 -1.53523 -3.41147 0
M  V30 6148 H 567.416 -2.00192 -4.49649 0
M  V30 6149 N 569.068 1.32177 -0.85831 0
M  V30 6150 C 569.998 2.31282 -0.321041 0
M  V30 6151 C 570.979 1.59841 0.581786 0
M  V30 6152 O 572.164 1.87619 0.501262 0
M  V30 6153 C 569.294 3.4385 0.48832 0
M  V30 6154 C 568.248 4.26799 -0.320391 0
M  V30 6155 C 567.574 5.31164 0.613934 0
M  V30 6156 C 568.874 4.98829 -1.54813 0
M  V30 6157 H 570.568 2.76469 -1.14915 0
M  V30 6158 H 568.114 1.32916 -0.554028 0
M  V30 6159 H 570.067 4.12224 0.874626 0
M  V30 6160 H 568.791 2.97401 1.34983 0
M  V30 6161 H 567.45 3.60077 -0.688497 0
M  V30 6162 H 567.098 4.80967 1.47239 0
M  V30 6163 H 566.798 5.8755 0.0768097 0
M  V30 6164 H 568.322 6.024 0.997336 0
M  V30 6165 H 569.736 5.59864 -1.23392 0
M  V30 6166 H 568.133 5.64957 -2.02346 0
M  V30 6167 H 569.203 4.26483 -2.30739 0
M  V30 6168 N 570.547 0.616602 1.45037 0
M  V30 6169 C 571.963 0.280994 1.57107 0
M  V30 6170 C 572.163 -1.21627 1.60653 0
M  V30 6171 O 571.219 -1.9997 1.54169 0
M  V30 6172 C 572.532 0.960116 2.8496 0
M  V30 6173 C 574.08 0.936884 2.98649 0
M  V30 6174 C 574.555 1.59619 4.29285 0
M  V30 6175 N 576.046 1.5621 4.36065 0
M  V30 6176 C 576.781 2.04131 5.35834 0
M  V30 6177 N 576.277 2.60177 6.4209 0
M  V30 6178 N 578.07 1.94845 5.27249 0
M  V30 6179 H 570.221 1.58867 1.40979 0
M  V30 6180 H 572.484 0.666024 0.674623 0
M  V30 6181 H 572.19 2.01473 2.88273 0
M  V30 6182 H 572.064 0.488921 3.74018 0
M  V30 6183 H 574.451 -0.109209 2.94898 0
M  V30 6184 H 574.532 1.44643 2.10979 0
M  V30 6185 H 574.176 2.64166 4.33796 0
M  V30 6186 H 574.106 1.06159 5.15789 0
M  V30 6187 H 576.597 1.15276 3.59889 0
M  V30 6188 H 576.91 2.94513 7.1448 0
M  V30 6189 H 575.255 2.64221 6.42816 0
M  V30 6190 H 578.446 1.50792 4.43147 0
M  V30 6191 H 578.619 2.32504 6.04852 0
M  V30 6192 N 572.025 -1.5352 0.356285 0
M  V30 6193 C 573.302 -1.93405 -0.292223 0
M  V30 6194 C 573.682 -1.28901 -1.67176 0
M  V30 6195 O 573.03 -0.444632 -2.24132 0
M  V30 6196 C 573.24 -3.47223 -0.35175 0
M  V30 6197 C 574.588 -4.20389 -0.596534 0
M  V30 6198 O 575.612 -3.53554 -0.433344 0
M  V30 6199 O 574.471 -5.3881 -0.913589 0
M  V30 6200 H 571.565 -0.808666 -0.173172 0
M  V30 6201 H 574.111 -1.64713 0.408391 0
M  V30 6202 H 572.883 -3.86423 0.615841 0
M  V30 6203 H 572.506 -3.8212 -1.09864 0
M  V30 6204 N 573.503 -0.0852151 -1.57369 0
M  V30 6205 C 574.731 0.58946 -1.98325 0
M  V30 6206 C 575.146 1.62333 -0.96403 0
M  V30 6207 O 574.503 1.82438 0.0476395 0
M  V30 6208 C 574.554 1.24604 -3.39347 0
M  V30 6209 O 574.275 0.253532 -4.37366 0
M  V30 6210 C 575.776 2.00726 -3.95252 0
M  V30 6211 H 572.996 0.158783 -0.651942 0
M  V30 6212 H 575.54 -0.161584 -2.03861 0
M  V30 6213 H 573.695 1.94808 -3.34856 0
M  V30 6214 H 574.109 0.726207 -5.19448 0
M  V30 6215 H 575.583 2.42039 -4.96106 0
M  V30 6216 H 576.06 2.86919 -3.32527 0
M  V30 6217 H 576.666 1.3536 -4.03185 0
M  V30 6218 N 574.981 1.5647 0.188427 0
M  V30 6219 C 576.229 1.80655 0.905986 0
M  V30 6220 C 576.55 0.659391 1.83513 0
M  V30 6221 O 575.82 -0.321868 1.93238 0
M  V30 6222 H 574.4 0.666391 0.337538 0
M  V30 6223 H 577.062 1.93949 0.192339 0
M  V30 6224 H 576.158 2.74066 1.49313 0
M  V30 6225 N 576.459 -0.456382 1.50847 0
M  V30 6226 C 577.687 -1.23026 1.66349 0
M  V30 6227 C 578.102 -1.85473 0.352868 0
M  V30 6228 O 577.459 -1.69885 -0.666739 0
M  V30 6229 C 577.51 -2.32827 2.76539 0
M  V30 6230 O 577.231 -1.72938 4.02522 0
M  V30 6231 C 578.732 -3.23448 3.03144 0
M  V30 6232 H 575.952 -0.371527 0.558756 0
M  V30 6233 H 578.496 -0.543082 1.97157 0
M  V30 6234 H 576.651 -2.97294 2.48384 0
M  V30 6235 H 577.065 -2.45357 4.63573 0
M  V30 6236 H 578.539 -3.96669 3.83872 0
M  V30 6237 H 579.016 -3.83094 2.14793 0
M  V30 6238 H 579.622 -2.64702 3.32886 0
M  V30 6239 N 577.937 -1.40673 -0.710563 0
M  V30 6240 C 579.167 -1.4234 -1.49742 0
M  V30 6241 C 579.575 -0.022821 -1.89186 0
M  V30 6242 O 578.918 0.964773 -1.56326 0
M  V30 6243 C 578.98 -2.25509 -2.79975 0
M  V30 6244 C 578.644 -3.73862 -2.62824 0
M  V30 6245 C 579.641 -4.66379 -2.29752 0
M  V30 6246 C 577.326 -4.17735 -2.78932 0
M  V30 6247 C 579.32 -6.00756 -2.13006 0
M  V30 6248 C 577.007 -5.5218 -2.61802 0
M  V30 6249 C 578.005 -6.43505 -2.28888 0
M  V30 6250 O 577.693 -7.75472 -2.11894 0
M  V30 6251 H 577.425 -0.487311 -0.468513 0
M  V30 6252 H 579.979 -1.8542 -0.883668 0
M  V30 6253 H 578.209 -1.77218 -3.43701 0
M  V30 6254 H 579.898 -2.19058 -3.41714 0
M  V30 6255 H 580.664 -4.33778 -2.16936 0
M  V30 6256 H 576.543 -3.46967 -3.03537 0
M  V30 6257 H 580.087 -6.72003 -1.87237 0
M  V30 6258 H 575.984 -5.84365 -2.74204 0
M  V30 6259 H 576.752 -7.86458 -2.26775 0
M  V30 6260 N 579.415 0.9433 -1.26252 0
M  V30 6261 C 580.663 1.68592 -1.11451 0
M  V30 6262 C 580.984 1.91957 0.343123 0
M  V30 6263 O 580.254 1.51475 1.24226 0
M  V30 6264 H 578.834 0.624789 -0.409448 0
M  V30 6265 H 581.496 1.13351 -1.58548 0
M  V30 6266 H 580.592 2.66054 -1.63162 0
M  V30 6267 N 580.893 1.08022 1.14757 0
M  V30 6268 C 582.14 0.807509 1.85703 0
M  V30 6269 C 582.468 -0.666617 1.8272 0
M  V30 6270 O 581.723 -1.50562 1.25018 0
M  V30 6271 C 582.022 1.26964 3.34088 0
M  V30 6272 C 581.688 2.7509 3.57262 0
M  V30 6273 C 580.35 3.15547 3.63296 0
M  V30 6274 C 582.702 3.70667 3.66409 0
M  V30 6275 C 580.03 4.50384 3.75994 0
M  V30 6276 C 582.382 5.05274 3.80632 0
M  V30 6277 C 581.046 5.45342 3.84913 0
M  V30 6278 H 580.316 0.295488 0.679535 0
M  V30 6279 H 582.963 1.35245 1.35577 0
M  V30 6280 H 581.268 0.644216 3.86467 0
M  V30 6281 H 582.965 1.03544 3.87401 0
M  V30 6282 H 579.555 2.42775 3.53212 0
M  V30 6283 H 583.739 3.40533 3.61041 0
M  V30 6284 H 578.995 4.80886 3.77569 0
M  V30 6285 H 583.169 5.79201 3.86652 0
M  V30 6286 H 580.796 6.49823 3.94505 0
M  V30 6287 N 582.371 -1.3172 0.865308 0
M  V30 6288 C 583.301 -2.31109 0.333302 0
M  V30 6289 C 584.282 -1.60148 -0.573301 0
M  V30 6290 O 585.467 -1.87882 -0.491305 0
M  V30 6291 C 582.597 -3.44104 -0.470078 0
M  V30 6292 C 581.551 -4.26623 0.343021 0
M  V30 6293 C 580.877 -5.31482 -0.585756 0
M  V30 6294 C 582.177 -4.98001 1.57456 0
M  V30 6295 H 583.871 -2.75855 1.1638 0
M  V30 6296 H 581.417 -1.3262 0.561069 0
M  V30 6297 H 583.37 -4.12682 -0.852752 0
M  V30 6298 H 582.094 -2.98112 -1.33404 0
M  V30 6299 H 580.753 -3.59707 0.707583 0
M  V30 6300 H 580.401 -4.81741 -1.44686 0
M  V30 6301 H 580.101 -5.87582 -0.0456494 0
M  V30 6302 H 581.625 -6.0292 -0.965375 0
M  V30 6303 H 583.039 -5.59201 1.26359 0
M  V30 6304 H 581.436 -5.63876 2.05339 0
M  V30 6305 H 582.506 -4.25253 2.32997 0
M  V30 6306 N 583.85 -0.624285 -1.44708 0
M  V30 6307 C 584.779 0.0717025 -2.3339 0
M  V30 6308 C 585.76 0.841814 -1.47809 0
M  V30 6309 O 586.946 0.809056 -1.76544 0
M  V30 6310 C 584.076 1.05852 -3.30776 0
M  V30 6311 C 583.029 0.400503 -4.26122 0
M  V30 6312 C 582.356 1.49674 -5.13324 0
M  V30 6313 C 583.656 -0.688924 -5.17737 0
M  V30 6314 H 585.35 -0.668819 -2.91834 0
M  V30 6315 H 582.896 -0.32308 -1.40329 0
M  V30 6316 H 584.849 1.5541 -3.91696 0
M  V30 6317 H 583.572 1.82984 -2.70526 0
M  V30 6318 H 582.231 -0.0743687 -3.66525 0
M  V30 6319 H 581.88 2.25877 -4.49431 0
M  V30 6320 H 581.58 1.06188 -5.77926 0
M  V30 6321 H 583.104 1.99427 -5.77115 0
M  V30 6322 H 584.518 -0.276724 -5.72632 0
M  V30 6323 H 582.915 -1.04652 -5.90904 0
M  V30 6324 H 583.985 -1.55884 -4.5916 0
M  V30 6325 N 585.328 1.53329 -0.364422 0
M  V30 6326 C 586.739 1.86345 0.115039 0
M  V30 6327 C 587.09 1.28505 1.4826 0
M  V30 6328 O 586.215 0.606639 2.07723 0
M  V30 6329 C 586.81 3.38114 0.215522 0
M  V30 6330 C 585.369 3.70932 0.639237 0
M  V30 6331 C 584.516 2.76471 -0.214261 0
M  V30 6332 H 587.467 1.47593 -0.583258 0
M  V30 6333 H 587.488 3.66031 1.0393 0
M  V30 6334 H 587 3.80182 -0.779948 0
M  V30 6335 H 585.101 3.3442 1.64298 0
M  V30 6336 H 585.214 4.77302 0.41465 0
M  V30 6337 H 583.578 2.52724 0.316678 0
M  V30 6338 H 584.361 3.21373 -1.20725 0
M  V30 6339 N 586.806 0.0935595 1.57322 0
M  V30 6340 C 587.716 -0.880192 2.17462 0
M  V30 6341 C 588.732 -1.31135 1.14366 0
M  V30 6342 O 589.908 -1.37958 1.46729 0
M  V30 6343 C 586.973 -2.12184 2.74188 0
M  V30 6344 C 586.034 -1.74503 3.92234 0
M  V30 6345 C 585.267 -2.92748 4.46245 0
M  V30 6346 O 585.49 -4.07427 3.99198 0
M  V30 6347 O 584.424 -2.71303 5.37288 0
M  V30 6348 H 588.25 -0.398516 3.01074 0
M  V30 6349 H 585.835 -0.130707 1.48827 0
M  V30 6350 H 587.717 -2.84953 3.10451 0
M  V30 6351 H 586.392 -2.59407 1.93623 0
M  V30 6352 H 585.299 -0.989186 3.60785 0
M  V30 6353 H 586.632 -1.32044 4.74157 0
M  V30 6354 N 588.284 -1.56567 -0.180126 0
M  V30 6355 C 589.7 -1.50488 -0.531559 0
M  V30 6356 C 589.9 -0.796267 -1.851 0
M  V30 6357 O 588.956 -0.352978 -2.50021 0
M  V30 6358 C 590.269 -2.95201 -0.572456 0
M  V30 6359 C 591.817 -3.05957 -0.660264 0
M  V30 6360 C 592.292 -4.5211 -0.732135 0
M  V30 6361 N 593.783 -4.56322 -0.795262 0
M  V30 6362 C 594.518 -5.66742 -0.871296 0
M  V30 6363 N 594.014 -6.86815 -0.908708 0
M  V30 6364 N 595.807 -5.54691 -0.909639 0
M  V30 6365 H 587.958 -2.01045 0.685165 0
M  V30 6366 H 590.221 -0.915536 0.245962 0
M  V30 6367 H 589.927 -3.50165 0.328208 0
M  V30 6368 H 589.801 -3.49369 -1.422 0
M  V30 6369 H 592.188 -2.51032 -1.55136 0
M  V30 6370 H 592.269 -2.54888 0.215783 0
M  V30 6371 H 591.913 -5.07664 0.154664 0
M  V30 6372 H 591.843 -5.00926 -1.6242 0
M  V30 6373 H 594.334 -3.69868 -0.77499 0
M  V30 6374 H 594.647 -7.66718 -0.967654 0
M  V30 6375 H 592.992 -6.89443 -0.877132 0
M  V30 6376 H 596.183 -4.59804 -0.877353 0
M  V30 6377 H 596.356 -6.40768 -0.965434 0
M  V30 6378 N 589.762 0.448376 -1.51087 0
M  V30 6379 C 590.992 1.21965 -1.66757 0
M  V30 6380 C 591.4 1.85748 -0.359753 0
M  V30 6381 O 590.743 1.71022 0.670604 0
M  V30 6382 C 590.805 2.35284 -2.71812 0
M  V30 6383 C 590.469 1.91957 -4.1473 0
M  V30 6384 C 591.466 1.42921 -4.9987 0
M  V30 6385 C 589.151 1.99985 -4.60772 0
M  V30 6386 C 591.145 1.02485 -6.29107 0
M  V30 6387 C 588.832 1.5916 -5.90009 0
M  V30 6388 C 589.83 1.10491 -6.74004 0
M  V30 6389 O 589.518 0.702413 -8.00825 0
M  V30 6390 H 589.25 0.374125 -0.563034 0
M  V30 6391 H 591.804 0.538927 -1.98204 0
M  V30 6392 H 590.034 3.06599 -2.35657 0
M  V30 6393 H 591.723 2.97184 -2.76472 0
M  V30 6394 H 592.489 1.36123 -4.65506 0
M  V30 6395 H 588.368 2.36814 -3.95525 0
M  V30 6396 H 591.912 0.644271 -6.94619 0
M  V30 6397 H 587.809 1.65626 -6.2389 0
M  V30 6398 H 588.577 0.829248 -8.14288 0
M  V30 6399 N 591.24 1.41047 0.703093 0
M  V30 6400 C 592.489 1.39301 1.4587 0
M  V30 6401 C 592.802 0.00267077 1.956 0
M  V30 6402 O 594.008 -0.137414 2.71152 0
M  V30 6403 C 592.464 2.44891 2.63735 0
M  V30 6404 C 592.072 3.89796 2.20824 0
M  V30 6405 C 593.816 2.5227 3.41409 0
M  V30 6406 C 591.723 4.86955 3.35602 0
M  V30 6407 H 590.653 0.518005 0.547893 0
M  V30 6408 H 593.304 1.66839 0.764009 0
M  V30 6409 H 591.686 2.10472 3.35436 0
M  V30 6410 H 592.86 4.33424 1.56461 0
M  V30 6411 H 591.175 3.86008 1.56163 0
M  V30 6412 H 593.772 3.22044 4.26839 0
M  V30 6413 H 594.115 1.55714 3.86081 0
M  V30 6414 H 594.648 2.85742 2.7676 0
M  V30 6415 H 591.387 5.84888 2.9595 0
M  V30 6416 H 590.907 4.47982 3.98839 0
M  V30 6417 H 592.586 5.07361 4.01489 0
M  V30 6418 N 592.718 -0.936591 1.26751 0
M  V30 6419 C 593.665 -2.03597 1.08706 0
M  V30 6420 C 594.635 -1.66097 -0.00926542 0
M  V30 6421 O 595.82 -1.90199 0.151377 0
M  V30 6422 C 592.96 -3.3727 0.73094 0
M  V30 6423 C 592.073 -3.87778 1.90399 0
M  V30 6424 C 591.208 -5.09859 1.49056 0
M  V30 6425 C 590.247 -5.5264 2.63164 0
M  V30 6426 N 589.384 -6.65921 2.22471 0
M  V30 6427 H 594.224 -2.18364 2.02784 0
M  V30 6428 H 591.761 -1.06985 1.00958 0
M  V30 6429 H 593.719 -4.14128 0.505328 0
M  V30 6430 H 592.349 -3.22337 -0.172868 0
M  V30 6431 H 591.401 -3.07279 2.2424 0
M  V30 6432 H 592.713 -4.15464 2.76028 0
M  V30 6433 H 591.867 -5.9419 1.22567 0
M  V30 6434 H 590.606 -4.8393 0.60524 0
M  V30 6435 H 589.611 -4.66863 2.90377 0
M  V30 6436 H 590.836 -5.80568 3.52303 0
M  V30 6437 H 588.782 -6.41667 1.36379 0
M  V30 6438 H 588.699 -6.93216 3.01641 0
M  V30 6439 H 589.967 -7.53616 1.99205 0
M  V30 6440 N 594.196 -1.08629 -1.14182 0
M  V30 6441 C 595.607 -0.838003 -1.66836 0
M  V30 6442 C 595.958 0.634885 -1.85644 0
M  V30 6443 O 595.083 1.49008 -1.56926 0
M  V30 6444 C 595.678 -1.51465 -3.03058 0
M  V30 6445 C 594.237 -1.31355 -3.52736 0
M  V30 6446 C 593.384 -1.57599 -2.28162 0
M  V30 6447 H 596.335 -1.24656 -0.982165 0
M  V30 6448 H 596.356 -0.943134 -3.68626 0
M  V30 6449 H 595.868 -2.58661 -2.89337 0
M  V30 6450 H 593.969 -0.262384 -3.71675 0
M  V30 6451 H 594.082 -2.04275 -4.33369 0
M  V30 6452 H 592.446 -0.997659 -2.34348 0
M  V30 6453 H 593.229 -2.66006 -2.17015 0
M  V30 6454 N 595.674 1.31259 -0.872281 0
M  V30 6455 C 596.902 2.00795 -0.498907 0
M  V30 6456 C 597.317 1.65464 0.909238 0
M  V30 6457 O 596.674 0.885073 1.59602 0
M  V30 6458 C 596.725 3.55625 -0.649092 0
M  V30 6459 O 596.446 3.89692 -2.00179 0
M  V30 6460 C 597.947 4.42434 -0.277034 0
M  V30 6461 H 595.167 0.642299 -0.194145 0
M  V30 6462 H 597.711 1.67438 -1.17408 0
M  V30 6463 H 595.866 3.87394 -0.0214402 0
M  V30 6464 H 596.28 4.84407 -2.01122 0
M  V30 6465 H 597.754 5.50299 -0.433064 0
M  V30 6466 H 598.231 4.32146 0.783989 0
M  V30 6467 H 598.837 4.16086 -0.880483 0
M  V30 6468 N 597.152 0.631951 1.44375 0
M  V30 6469 C 598.392 0.14009 2.03919 0
M  V30 6470 C 598.756 -1.21534 1.48639 0
M  V30 6471 O 599.957 -1.79936 1.99691 0
M  V30 6472 C 598.228 0.127174 3.57174 0
M  V30 6473 S 599.787 -0.299946 4.37774 0
M  V30 6474 H 596.605 0.0614891 0.708336 0
M  V30 6475 H 599.207 0.835524 1.76746 0
M  V30 6476 H 597.911 1.11676 3.94913 0
M  V30 6477 H 597.442 -0.589482 3.88958 0
M  V30 6478 H 599.457 -1.54396 4.71568 0
M  V30 6479 N 598.631 -1.53133 0.372548 0
M  V30 6480 C 600.047 -1.59585 0.02178 0
M  V30 6481 C 600.247 -1.38736 -1.46132 0
M  V30 6482 O 599.303 -1.19599 -2.22379 0
M  V30 6483 C 600.616 -2.9678 0.483959 0
M  V30 6484 C 602.164 -3.09909 0.438775 0
M  V30 6485 C 602.639 -4.49527 0.876876 0
M  V30 6486 N 604.13 -4.55663 0.832214 0
M  V30 6487 C 604.865 -5.61896 1.14281 0
M  V30 6488 N 604.361 -6.75852 1.52303 0
M  V30 6489 N 606.154 -5.51916 1.06515 0
M  V30 6490 H 598.305 -1.64936 1.33827 0
M  V30 6491 H 600.568 -0.773947 0.547458 0
M  V30 6492 H 600.274 -3.17198 1.51915 0
M  V30 6493 H 600.148 -3.7699 -0.125784 0
M  V30 6494 H 602.535 -2.89197 -0.587294 0
M  V30 6495 H 602.616 -2.31691 1.0841 0
M  V30 6496 H 602.26 -4.70979 1.90109 0
M  V30 6497 H 602.19 -5.26186 0.208727 0
M  V30 6498 H 604.681 -3.73844 0.552195 0
M  V30 6499 H 604.994 -7.52862 1.7441 0
M  V30 6500 H 603.339 -6.77226 1.56175 0
M  V30 6501 H 606.53 -4.6177 0.767235 0
M  V30 6502 H 606.703 -6.34609 1.31053 0
M  V30 6503 N 600.109 -0.101901 -1.5727 0
M  V30 6504 C 601.019 0.868647 -2.17926 0
M  V30 6505 C 602.035 1.30527 -1.1506 0
M  V30 6506 O 603.211 1.37178 -1.47459 0
M  V30 6507 C 600.276 2.10727 -2.75309 0
M  V30 6508 C 599.337 1.7242 -3.93154 0
M  V30 6509 C 598.57 2.90377 -4.47791 0
M  V30 6510 O 598.793 4.05305 -4.01353 0
M  V30 6511 O 597.727 2.6845 -5.38719 0
M  V30 6512 H 601.553 0.382544 -3.01281 0
M  V30 6513 H 599.138 0.122812 -1.48894 0
M  V30 6514 H 601.02 2.83303 -3.11958 0
M  V30 6515 H 599.695 2.58376 -1.94996 0
M  V30 6516 H 598.602 0.970039 -3.61305 0
M  V30 6517 H 599.935 1.29528 -4.74851 0
M  V30 6518 N 601.587 1.56661 0.17182 0
M  V30 6519 C 602.55 1.9549 1.19651 0
M  V30 6520 C 603.55 0.838501 1.37207 0
M  V30 6521 O 604.74 1.10556 1.34622 0
M  V30 6522 C 601.872 2.24927 2.56166 0
M  V30 6523 H 603.065 2.87184 0.864007 0
M  V30 6524 H 600.618 1.50711 0.41425 0
M  V30 6525 H 601.353 1.35944 2.94431 0
M  V30 6526 H 601.138 3.06301 2.4479 0
M  V30 6527 H 602.628 2.55891 3.30014 0
M  V30 6528 N 603.065 -0.440357 1.51323 0
M  V30 6529 C 604.312 -1.19004 1.63842 0
M  V30 6530 C 604.64 -1.91266 0.35321 0
M  V30 6531 O 603.895 -1.84143 -0.662565 0
M  V30 6532 C 604.194 -2.2339 2.78984 0
M  V30 6533 C 603.86 -1.68162 4.18369 0
M  V30 6534 C 602.522 -1.52823 4.56288 0
M  V30 6535 C 604.874 -1.27524 5.05358 0
M  V30 6536 C 602.202 -0.953157 5.78906 0
M  V30 6537 C 604.554 -0.714474 6.28552 0
M  V30 6538 C 603.218 -0.547961 6.65247 0
M  V30 6539 H 602.488 -0.435468 0.59954 0
M  V30 6540 H 605.135 -0.481538 1.85347 0
M  V30 6541 H 603.44 -3.00267 2.51688 0
M  V30 6542 H 605.137 -2.81211 2.85869 0
M  V30 6543 H 601.727 -1.81077 3.8847 0
M  V30 6544 H 605.911 -1.38197 4.76671 0
M  V30 6545 H 601.167 -0.811882 6.05986 0
M  V30 6546 H 605.341 -0.391059 6.95301 0
M  V30 6547 H 602.968 -0.100222 7.60134 0
M  V30 6548 N 604.543 -1.41418 -0.695603 0
M  V30 6549 C 605.506 -1.42988 -1.79129 0
M  V30 6550 C 606.506 -0.320514 -1.57573 0
M  V30 6551 O 607.696 -0.58039 -1.64247 0
M  V30 6552 C 604.828 -1.24122 -3.175 0
M  V30 6553 H 606.021 -2.40526 -1.7913 0
M  V30 6554 H 603.574 -1.2756 -0.903225 0
M  V30 6555 H 604.309 -0.274253 -3.23138 0
M  V30 6556 H 604.094 -2.045 -3.34547 0
M  V30 6557 H 605.584 -1.28056 -3.97481 0
M  V30 6558 N 606.021 0.929856 -1.27246 0
M  V30 6559 C 606.984 2.01172 -1.09829 0
M  V30 6560 C 607.984 1.60743 -0.0429687 0
M  V30 6561 O 609.174 1.71813 -0.287373 0
M  V30 6562 C 606.306 3.34191 -0.673003 0
M  V30 6563 H 607.499 2.18054 -2.05895 0
M  V30 6564 H 605.052 1.11036 -1.10003 0
M  V30 6565 H 605.787 3.23009 0.289134 0
M  V30 6566 H 605.572 3.64892 -1.43515 0
M  V30 6567 H 607.062 4.13646 -0.573323 0
M  V30 6568 N 607.499 1.09233 1.13605 0
M  V30 6569 C 608.745 0.828385 1.8511 0
M  V30 6570 C 609.078 -0.64437 1.83198 0
M  V30 6571 O 608.353 -1.47428 1.26867 0
M  V30 6572 C 608.636 1.36167 3.33363 0
M  V30 6573 C 608.489 2.90038 3.438 0
M  V30 6574 C 609.808 0.993819 4.28732 0
M  V30 6575 H 606.927 0.30239 0.672108 0
M  V30 6576 H 609.569 1.35339 1.33355 0
M  V30 6577 H 607.719 0.9151 3.77569 0
M  V30 6578 H 609.391 3.43128 3.08319 0
M  V30 6579 H 607.634 3.27271 2.84739 0
M  V30 6580 H 608.305 3.22428 4.48045 0
M  V30 6581 H 610.781 1.37893 3.92587 0
M  V30 6582 H 609.657 1.39403 5.30903 0
M  V30 6583 H 609.918 -0.0982206 4.41991 0
M  V30 6584 N 608.977 -1.30795 0.87923 0
M  V30 6585 C 610.202 -2.01063 0.508769 0
M  V30 6586 C 610.627 -1.65508 -0.893803 0
M  V30 6587 O 609.985 -0.868616 -1.59138 0
M  V30 6588 C 610.033 -3.54054 0.683991 0
M  V30 6589 O 609.137 -4.11498 -0.272654 0
M  V30 6590 H 608.478 -0.632786 0.201191 0
M  V30 6591 H 611.008 -1.66776 1.18519 0
M  V30 6592 H 611.018 -4.03845 0.580798 0
M  V30 6593 H 609.693 -3.79271 1.70665 0
M  V30 6594 H 608.27 -3.72695 -0.12364 0
M  V30 6595 N 610.455 -0.639598 -1.44038 0
M  V30 6596 C 611.402 0.0602458 -2.30721 0
M  V30 6597 C 612.372 0.828352 -1.43971 0
M  V30 6598 O 613.557 0.807693 -1.72861 0
M  V30 6599 C 610.697 1.03008 -3.29368 0
M  V30 6600 C 609.81 0.259502 -4.3122 0
M  V30 6601 C 608.945 1.22191 -5.16955 0
M  V30 6602 C 607.984 0.440978 -6.10509 0
M  V30 6603 N 607.121 1.35428 -6.88915 0
M  V30 6604 H 611.961 -0.684867 -2.90023 0
M  V30 6605 H 609.498 -0.349509 -1.42888 0
M  V30 6606 H 611.456 1.60583 -3.85057 0
M  V30 6607 H 610.086 1.74222 -2.71747 0
M  V30 6608 H 609.138 -0.432317 -3.77935 0
M  V30 6609 H 610.45 -0.348347 -4.97582 0
M  V30 6610 H 609.604 1.86873 -5.77203 0
M  V30 6611 H 608.343 1.86367 -4.50687 0
M  V30 6612 H 607.348 -0.219279 -5.49363 0
M  V30 6613 H 608.573 -0.196192 -6.78817 0
M  V30 6614 H 606.519 1.9831 -6.25307 0
M  V30 6615 H 606.436 0.800657 -7.51748 0
M  V30 6616 H 607.704 1.98967 -7.53679 0
M  V30 6617 N 611.933 1.52934 -0.380664 0
M  V30 6618 C 613.182 2.00651 0.205477 0
M  V30 6619 C 613.495 1.27164 1.48623 0
M  V30 6620 O 614.701 1.65547 2.15189 0
M  V30 6621 C 613.157 3.57479 0.416726 0
M  V30 6622 C 612.765 4.39857 -0.850268 0
M  V30 6623 C 614.509 4.13509 0.959702 0
M  V30 6624 C 612.416 5.88269 -0.607773 0
M  V30 6625 H 611.346 0.749684 0.0805614 0
M  V30 6626 H 613.997 1.76508 -0.501732 0
M  V30 6627 H 612.379 3.77836 1.18557 0
M  V30 6628 H 613.553 4.31269 -1.62307 0
M  V30 6629 H 611.868 3.95005 -1.31756 0
M  V30 6630 H 614.465 5.22039 1.15669 0
M  V30 6631 H 614.808 3.69054 1.92626 0
M  V30 6632 H 615.341 3.9701 0.250645 0
M  V30 6633 H 612.08 6.3703 -1.54509 0
M  V30 6634 H 611.6 5.99667 0.126247 0
M  V30 6635 H 613.279 6.46558 -0.239014 0
M  V30 6636 N 613.412 0.11024 1.57214 0
M  V30 6637 C 614.375 -0.828808 2.1369 0
M  V30 6638 C 615.375 -1.20059 1.06969 0
M  V30 6639 O 616.565 -1.12754 1.32786 0
M  V30 6640 C 613.697 -2.11959 2.66994 0
M  V30 6641 H 614.89 -0.338146 2.97988 0
M  V30 6642 H 612.443 -0.138913 1.55681 0
M  V30 6643 H 613.178 -2.65476 1.8626 0
M  V30 6644 H 612.963 -1.86258 3.45037 0
M  V30 6645 H 614.453 -2.79105 3.10629 0
M  V30 6646 N 614.89 -1.56749 -0.16351 0
M  V30 6647 C 616.136 -1.83597 -0.875436 0
M  V30 6648 C 616.491 -0.691907 -1.79528 0
M  V30 6649 O 615.784 0.311193 -1.89056 0
M  V30 6650 C 615.978 -3.14342 -1.70071 0
M  V30 6651 C 615.807 -4.41356 -0.862265 0
M  V30 6652 C 614.577 -5.02467 -0.534299 0
M  V30 6653 C 616.775 -5.1391 -0.200203 0
M  V30 6654 N 614.757 -6.13068 0.31947 0
M  V30 6655 C 616.128 -6.17862 0.514398 0
M  V30 6656 C 618.183 -4.97757 -0.119171 0
M  V30 6657 C 616.886 -7.07412 1.30236 0
M  V30 6658 C 618.912 -5.87756 0.655477 0
M  V30 6659 C 618.274 -6.91178 1.35842 0
M  V30 6660 H 614.373 -0.722702 -0.298708 0
M  V30 6661 H 616.957 -1.94182 -0.141883 0
M  V30 6662 H 615.128 -3.04933 -2.40562 0
M  V30 6663 H 616.86 -3.29156 -2.35453 0
M  V30 6664 H 613.615 -4.65611 -0.866222 0
M  V30 6665 H 614.039 -6.72978 0.736893 0
M  V30 6666 H 618.681 -4.178 -0.648278 0
M  V30 6667 H 616.399 -7.86808 1.84278 0
M  V30 6668 H 619.985 -5.77328 0.719948 0
M  V30 6669 H 618.865 -7.59614 1.94822 0
M  V30 6670 N 616.368 0.432326 -1.51554 0
M  V30 6671 C 617.318 1.52366 -1.69614 0
M  V30 6672 C 618.302 1.51205 -0.550083 0
M  V30 6673 O 619.494 1.57573 -0.806206 0
M  V30 6674 C 616.623 2.90513 -1.82913 0
M  V30 6675 C 615.709 2.9641 -3.03318 0
M  V30 6676 N 616.1 2.72043 -4.26411 0
M  V30 6677 C 614.398 3.27572 -3.02675 0
M  V30 6678 C 615.099 2.83912 -5.07709 0
M  V30 6679 N 614.075 3.15798 -4.42462 0
M  V30 6680 H 617.877 1.32285 -2.62446 0
M  V30 6681 H 615.391 0.639708 -1.4927 0
M  V30 6682 H 617.388 3.69032 -1.93962 0
M  V30 6683 H 616.048 3.1161 -0.912655 0
M  V30 6684 H 617.059 2.46876 -4.55272 0
M  V30 6685 H 613.736 3.54411 -2.20678 0
M  V30 6686 H 615.126 2.68984 -6.15709 0
M  V30 6687 N 617.846 1.41785 0.688094 0
M  V30 6688 C 619.092 1.41753 1.4503 0
M  V30 6689 C 619.425 0.0290745 1.94178 0
M  V30 6690 O 618.7 -0.944456 1.7003 0
M  V30 6691 C 618.983 2.43069 2.65686 0
M  V30 6692 C 618.836 3.91053 2.22256 0
M  V30 6693 C 620.155 2.41543 3.67893 0
M  V30 6694 H 617.274 0.516202 0.526027 0
M  V30 6695 H 619.916 1.73111 0.783105 0
M  V30 6696 H 618.066 2.1646 3.2261 0
M  V30 6697 H 619.738 4.28594 1.70602 0
M  V30 6698 H 617.981 4.05559 1.53963 0
M  V30 6699 H 618.652 4.57501 3.08863 0
M  V30 6700 H 621.128 2.65175 3.20658 0
M  V30 6701 H 620.004 3.14434 4.49914 0
M  V30 6702 H 620.265 1.43666 4.18106 0
M  V30 6703 N 619.324 -0.923095 1.27737 0
M  V30 6704 C 620.573 -1.66581 1.13727 0
M  V30 6705 C 620.886 -1.9304 -0.315433 0
M  V30 6706 O 622.092 -2.65309 -0.57651 0
M  V30 6707 C 620.548 -3.00047 1.98745 0
M  V30 6708 C 620.156 -2.8127 3.48699 0
M  V30 6709 C 621.9 -3.77887 1.93395 0
M  V30 6710 C 619.807 -4.1032 4.25901 0
M  V30 6711 H 618.737 -0.624834 0.422017 0
M  V30 6712 H 621.388 -1.02514 1.52194 0
M  V30 6713 H 619.77 -3.65197 1.53125 0
M  V30 6714 H 620.944 -2.24859 4.02213 0
M  V30 6715 H 619.259 -2.16854 3.55476 0
M  V30 6716 H 621.856 -4.73526 2.48348 0
M  V30 6717 H 622.199 -4.06264 0.908605 0
M  V30 6718 H 622.732 -3.19541 2.36935 0
M  V30 6719 H 619.471 -3.8712 5.28978 0
M  V30 6720 H 618.991 -4.66377 3.77163 0
M  V30 6721 H 620.67 -4.78648 4.35321 0
M  V30 6722 N 620.802 -1.09834 -1.13024 0
M  V30 6723 C 622.218 -0.828875 -1.36388 0
M  V30 6724 C 622.418 0.554756 -1.93713 0
M  V30 6725 O 621.474 1.30882 -2.15931 0
M  V30 6726 C 622.787 -1.92352 -2.3113 0
M  V30 6727 C 624.335 -1.95124 -2.44735 0
M  V30 6728 C 624.81 -3.03745 -3.42787 0
M  V30 6729 N 626.301 -3.03012 -3.5034 0
M  V30 6730 C 627.036 -3.83699 -4.26101 0
M  V30 6731 N 626.532 -4.74306 -5.04981 0
M  V30 6732 N 628.325 -3.71942 -4.21445 0
M  V30 6733 H 620.476 -1.99029 -0.74169 0
M  V30 6734 H 622.739 -0.864557 -0.388903 0
M  V30 6735 H 622.445 -2.91906 -1.96172 0
M  V30 6736 H 622.319 -1.80536 -3.3119 0
M  V30 6737 H 624.706 -0.962069 -2.78977 0
M  V30 6738 H 624.787 -2.11018 -1.44586 0
M  V30 6739 H 624.431 -4.02878 -3.09276 0
M  V30 6740 H 624.361 -2.85094 -4.42752 0
M  V30 6741 H 626.852 -2.37352 -2.94062 0
M  V30 6742 H 627.165 -5.32446 -5.60108 0
M  V30 6743 H 625.51 -4.78339 -5.04199 0
M  V30 6744 H 628.701 -3.00513 -3.589 0
M  V30 6745 H 628.874 -4.35062 -4.80235 0
M  V30 6746 N 622.28 1.30327 -0.886154 0
M  V30 6747 C 623.228 2.30052 -0.343317 0
M  V30 6748 C 624.222 1.60212 0.550305 0
M  V30 6749 O 625.428 1.74674 0.434609 0
M  V30 6750 H 621.803 0.746306 -0.0923681 0
M  V30 6751 H 623.774 2.73294 -1.19804 0
M  V30 6752 C 622.523 3.45079 0.426107 0
M  V30 6753 H 621.846 3.99003 -0.25227 0
M  V30 6754 H 623.286 4.16931 0.771009 0
M  V30 6755 C 621.745 2.95195 1.62363 0
M  V30 6756 O 622.275 2.95323 2.723 0
M  V30 6757 N 620.481 2.51192 1.4612 0
M  V30 6758 H 620.028 2.51286 0.566832 0
M  V30 6759 H 619.986 2.18173 2.2638 0
M  V30 6760 N 623.758 0.647228 1.43697 0
M  V30 6761 C 625.004 0.158422 2.0218 0
M  V30 6762 C 625.337 -1.22233 1.50907 0
M  V30 6763 O 624.612 -1.81478 0.699702 0
M  V30 6764 C 624.895 0.1627 3.59732 0
M  V30 6765 C 624.748 1.57694 4.21251 0
M  V30 6766 C 626.067 -0.504138 4.37203 0
M  V30 6767 H 623.186 0.059042 0.734631 0
M  V30 6768 H 625.828 0.826772 1.71069 0
M  V30 6769 H 623.978 -0.406414 3.86368 0
M  V30 6770 H 625.65 2.19618 4.05667 0
M  V30 6771 H 623.893 2.12603 3.7813 0
M  V30 6772 H 624.564 1.53183 5.3032 0
M  V30 6773 H 627.04 -0.0199841 4.16095 0
M  V30 6774 H 625.916 -0.470394 5.46881 0
M  V30 6775 H 626.177 -1.57726 4.13007 0
M  V30 6776 O 625.275 -1.52523 0.530952 0
M  V30 6777 H 625.966 -1.93688 0.0212942 0
M  V30 END ATOM
M  V30 BEGIN BOND
M  V30 END BOND
M  V30 END CTAB
M  END
$$$$
