drugbank_target|Q6UWM7 Lactase-like protein (DB02185; DB02379; DB02471; DB03430; DB08430)
 OpenBabel12092120473D

  0  0  0     0  0            999 V3000
M  V30 BEGIN CTAB
M  V30 COUNTS 9092 9232 0 0 0
M  V30 BEGIN ATOM
M  V30 1 H -0.908 1.98254 -0.117106 0
M  V30 2 N 0 1.576 0 0
M  V30 3 C 0.933 2.03868 1.02534 0
M  V30 4 C 1.911 0.928543 1.3348 0
M  V30 5 O 3.095 1.19667 1.45644 0
M  V30 6 C 0.222 2.43627 2.35294 0
M  V30 7 C -0.732 3.65373 2.2001 0
M  V30 8 S 0.101 5.13292 1.52614 0
M  V30 9 C 1.257 5.56322 2.86805 0
M  V30 10 H 1.49 2.90518 0.631377 0
M  V30 11 H -0.977 1.52953 0.210867 0
M  V30 12 H 0.981 2.67203 3.11629 0
M  V30 13 H -0.358 1.57376 2.7183 0
M  V30 14 H -1.165 3.90944 3.18086 0
M  V30 15 H -1.563 3.418 1.51819 0
M  V30 16 H 0.729 5.58782 3.83104 0
M  V30 17 H 1.672 6.56266 2.65933 0
M  V30 18 H 2.08 4.83886 2.90714 0
M  V30 19 N 1.4781 -0.272755 1.55222 0
M  V30 20 C 2.4251 -1.33716 1.88119 0
M  V30 21 C 3.3951 -1.49066 0.73271 0
M  V30 22 O 4.5801 -1.63469 0.984002 0
M  V30 23 C 1.7201 -2.69238 2.15882 0
M  V30 24 C 0.8331 -2.62108 3.43399 0
M  V30 25 C -0.0319 -3.89811 3.60861 0
M  V30 26 C -0.9929 -3.77193 4.8207 0
M  V30 27 N -1.8559 -4.9673 4.96189 0
M  V30 28 H 2.9841 -1.04962 2.78903 0
M  V30 29 H 0.5211 -0.507088 1.38083 0
M  V30 30 H 2.4791 -3.48089 2.29978 0
M  V30 31 H 1.1091 -2.96194 1.28331 0
M  V30 32 H 0.1611 -1.74967 3.37773 0
M  V30 33 H 1.4731 -2.48685 4.32386 0
M  V30 34 H 0.6271 -4.77103 3.74777 0
M  V30 35 H -0.6339 -4.06102 2.7006 0
M  V30 36 H -1.6289 -2.88284 4.68159 0
M  V30 37 H -0.4039 -3.62421 5.74307 0
M  V30 38 H -2.4579 -5.13431 4.08319 0
M  V30 39 H -2.5409 -4.85839 5.79221 0
M  V30 40 H -1.2729 -5.85594 5.1449 0
M  V30 41 N 2.9562 -1.48159 -0.537278 0
M  V30 42 C 4.3672 -1.49429 -1.11928 0
M  V30 43 C 4.7182 -0.26 -1.9447 0
M  V30 44 O 3.8432 0.633489 -2.0692 0
M  V30 45 C 4.4382 -2.70758 -2.03656 0
M  V30 46 C 2.9972 -2.74923 -2.57088 0
M  V30 47 C 2.1442 -2.42835 -1.3389 0
M  V30 48 H 5.0952 -1.55381 -0.322886 0
M  V30 49 H 5.1162 -2.48861 -2.87834 0
M  V30 50 H 4.6282 -3.60575 -1.43553 0
M  V30 51 H 2.7292 -1.89296 -3.20933 0
M  V30 52 H 2.8422 -3.76157 -2.9672 0
M  V30 53 H 1.2062 -1.93836 -1.65226 0
M  V30 54 H 1.9892 -3.34884 -0.755504 0
M  V30 55 N 4.4343 0.785586 -1.36625 0
M  V30 56 C 5.6803 1.54591 -1.31261 0
M  V30 57 C 6.0133 1.93906 0.106823 0
M  V30 58 O 5.2883 1.63007 1.06108 0
M  V30 59 C 5.5713 2.82038 -2.23889 0
M  V30 60 C 5.4243 2.49066 -3.74548 0
M  V30 61 C 6.7433 3.83887 -2.15217 0
M  V30 62 H 3.8623 0.560846 -0.478143 0
M  V30 63 H 6.5043 0.902278 -1.67209 0
M  V30 64 H 4.6543 3.36961 -1.93363 0
M  V30 65 H 6.3263 2.00164 -4.15611 0
M  V30 66 H 4.5693 1.81954 -3.93796 0
M  V30 67 H 5.2403 3.40109 -4.34776 0
M  V30 68 H 7.7163 3.38421 -2.42096 0
M  V30 69 H 6.5923 4.70806 -2.82193 0
M  V30 70 H 6.8533 4.27131 -1.14068 0
M  V30 71 N 5.9124 1.20967 1.01018 0
M  V30 72 C 7.1584 1.0353 1.7508 0
M  V30 73 C 7.5134 -0.42734 1.87594 0
M  V30 74 O 6.8064 -1.31298 1.3954 0
M  V30 75 C 7.0004 1.65997 3.16512 0
M  V30 76 C 6.8294 3.18184 3.17788 0
M  V30 77 C 5.5994 3.87198 3.24662 0
M  V30 78 C 7.7974 4.15334 3.03319 0
M  V30 79 N 5.7794 5.26618 3.15509 0
M  V30 80 C 7.1504 5.41472 3.02007 0
M  V30 81 C 9.2054 4.06449 2.87583 0
M  V30 82 C 7.9084 6.5975 2.86571 0
M  V30 83 C 9.9344 5.24357 2.73503 0
M  V30 84 C 9.2964 6.49404 2.72862 0
M  V30 85 H 5.3954 0.433137 0.651089 0
M  V30 86 H 7.9794 1.5324 1.20107 0
M  V30 87 H 6.1504 1.18863 3.69765 0
M  V30 88 H 7.8824 1.41816 3.79039 0
M  V30 89 H 4.6374 3.38093 3.31648 0
M  V30 90 H 5.0614 5.99626 3.14289 0
M  V30 91 H 9.7034 3.10573 2.86887 0
M  V30 92 H 7.4214 7.55792 2.86015 0
M  V30 93 H 11.0074 5.19299 2.62334 0
M  V30 94 H 9.8874 7.39105 2.62093 0
M  V30 95 N 7.3905 -1.2043 1.01659 0
M  V30 96 C 8.6365 -1.90079 0.706963 0
M  V30 97 C 8.9695 -1.78648 -0.761474 0
M  V30 98 O 8.2445 -1.17069 -1.55323 0
M  V30 99 C 8.5275 -3.41469 1.14327 0
M  V30 100 C 8.3805 -3.61833 2.67201 0
M  V30 101 C 9.6995 -4.34261 0.714529 0
M  V30 102 H 6.8185 -0.690254 0.2583 0
M  V30 103 H 9.4605 -1.41826 1.26433 0
M  V30 104 H 7.6105 -3.82696 0.669056 0
M  V30 105 H 9.2825 -3.2986 3.22475 0
M  V30 106 H 7.5255 -3.05304 3.08175 0
M  V30 107 H 8.1965 -4.67955 2.92783 0
M  V30 108 H 10.6725 -4.00682 1.12221 0
M  V30 109 H 9.5485 -5.38806 1.04784 0
M  V30 110 H 9.8095 -4.40431 -0.383799 0
M  V30 111 N 8.8686 -0.792821 -1.36206 0
M  V30 112 C 9.8316 -0.199459 -2.2833 0
M  V30 113 C 10.8316 0.605189 -1.48977 0
M  V30 114 O 12.0216 0.425685 -1.68919 0
M  V30 115 C 9.1536 0.723523 -3.33134 0
M  V30 116 H 10.3466 -1.01181 -2.82316 0
M  V30 117 H 7.8996 -0.562485 -1.45828 0
M  V30 118 H 8.6346 1.56008 -2.84309 0
M  V30 119 H 8.4196 0.148436 -3.91819 0
M  V30 120 H 9.9096 1.13344 -4.01924 0
M  V30 121 N 10.3467 1.47872 -0.545128 0
M  V30 122 C 11.5747 2.06889 -0.021084 0
M  V30 123 C 11.9897 1.39955 1.2672 0
M  V30 124 O 11.3467 0.492036 1.75742 0
M  V30 125 C 11.3977 3.60996 0.190817 0
M  V30 126 O 11.1187 4.25419 -1.04644 0
M  V30 127 C 12.6197 4.36849 0.753521 0
M  V30 128 H 9.8397 0.669785 -0.0403635 0
M  V30 129 H 12.3837 1.90049 -0.755095 0
M  V30 130 H 10.5387 3.77391 0.87492 0
M  V30 131 H 10.9527 5.17785 -0.836611 0
M  V30 132 H 12.4267 5.45399 0.851139 0
M  V30 133 H 12.9037 4.02306 1.762 0
M  V30 134 H 13.5097 4.25169 0.105503 0
M  V30 135 N 11.8248 0.280983 1.55075 0
M  V30 136 C 12.7548 -0.597469 2.25727 0
M  V30 137 C 13.7358 -1.15417 1.24952 0
M  V30 138 O 14.9208 -1.18722 1.53684 0
M  V30 139 C 12.0508 -1.7789 2.98283 0
M  V30 140 C 11.0048 -1.35347 4.06036 0
M  V30 141 C 10.3308 -2.61846 4.66198 0
M  V30 142 C 11.6308 -0.499354 5.19907 0
M  V30 143 H 13.3248 -0.00824265 2.99399 0
M  V30 144 H 10.8708 -0.0025244 1.44 0
M  V30 145 H 12.8238 -2.39937 3.46422 0
M  V30 146 H 11.5478 -2.39405 2.22155 0
M  V30 147 H 10.2068 -0.756156 3.58717 0
M  V30 148 H 9.8548 -3.21632 3.86732 0
M  V30 149 H 9.5548 -2.3409 5.38958 0
M  V30 150 H 11.0788 -3.24732 5.1709 0
M  V30 151 H 12.4928 -1.02498 5.64063 0
M  V30 152 H 10.8898 -0.316424 5.99265 0
M  V30 153 H 11.9598 0.480459 4.82514 0
M  V30 154 N 13.3029 -1.57598 0.00835791 0
M  V30 155 C 14.2329 -2.1198 -0.979113 0
M  V30 156 C 15.2139 -1.03091 -1.35301 0
M  V30 157 O 16.3989 -1.30818 -1.43528 0
M  V30 158 C 13.5289 -2.62995 -2.26828 0
M  V30 159 C 12.4829 -3.76485 -2.03576 0
M  V30 160 C 11.8089 -4.13846 -3.38579 0
M  V30 161 C 13.1089 -5.0342 -1.39161 0
M  V30 162 H 14.8029 -2.94738 -0.526281 0
M  V30 163 H 12.3489 -1.41783 -0.251704 0
M  V30 164 H 14.3019 -2.99669 -2.96271 0
M  V30 165 H 13.0259 -1.7737 -2.7424 0
M  V30 166 H 11.6849 -3.40217 -1.36557 0
M  V30 167 H 11.3329 -3.25232 -3.83709 0
M  V30 168 H 11.0329 -4.90312 -3.23834 0
M  V30 169 H 12.5569 -4.53086 -4.09323 0
M  V30 170 H 13.9709 -5.37812 -1.98573 0
M  V30 171 H 12.3679 -5.84746 -1.34878 0
M  V30 172 H 13.4379 -4.83548 -0.361868 0
M  V30 173 N 14.781 0.264519 -1.55364 0
M  V30 174 C 16.027 0.992314 -1.77552 0
M  V30 175 C 16.382 1.83626 -0.574379 0
M  V30 176 O 15.675 1.86648 0.432782 0
M  V30 177 C 15.869 1.9004 -3.02687 0
M  V30 178 C 15.698 1.14583 -4.34857 0
M  V30 179 C 14.468 0.858068 -4.97961 0
M  V30 180 C 16.666 0.532069 -5.1154 0
M  V30 181 N 14.648 0.0775974 -6.13851 0
M  V30 182 C 16.019 -0.113823 -6.19896 0
M  V30 183 C 18.074 0.440763 -4.95945 0
M  V30 184 C 16.777 -0.842231 -7.14352 0
M  V30 185 C 18.803 -0.274072 -5.90765 0
M  V30 186 C 18.165 -0.90867 -6.98515 0
M  V30 187 H 14.264 0.344811 -0.701875 0
M  V30 188 H 16.848 0.267141 -1.92859 0
M  V30 189 H 15.019 2.59775 -2.88741 0
M  V30 190 H 16.751 2.56243 -3.13243 0
M  V30 191 H 13.506 1.16547 -4.59036 0
M  V30 192 H 13.93 -0.300216 -6.76334 0
M  V30 193 H 18.572 0.917064 -4.12735 0
M  V30 194 H 16.29 -1.33019 -7.97077 0
M  V30 195 H 19.876 -0.345151 -5.80775 0
M  V30 196 H 18.756 -1.45299 -7.70622 0
M  V30 197 N 16.2591 1.48442 0.529413 0
M  V30 198 C 17.1921 1.57577 1.65059 0
M  V30 199 C 18.1701 0.426198 1.56915 0
M  V30 200 O 19.3541 0.637877 1.77379 0
M  V30 201 C 16.4811 1.5043 3.03461 0
M  V30 202 C 15.5271 2.70235 3.29962 0
M  V30 203 S 16.3601 4.32198 3.16172 0
M  V30 204 C 17.5161 4.2765 4.57019 0
M  V30 205 H 17.7491 2.52427 1.5706 0
M  V30 206 H 15.2821 1.36982 0.712417 0
M  V30 207 H 17.2401 1.46992 3.8328 0
M  V30 208 H 15.9011 0.569167 3.089 0
M  V30 209 H 15.0941 2.61374 4.30929 0
M  V30 210 H 14.6961 2.70938 2.57815 0
M  V30 211 H 16.9881 3.97618 5.48549 0
M  V30 212 H 17.9311 5.28797 4.70934 0
M  V30 213 H 18.3391 3.5811 4.36368 0
M  V30 214 N 17.7372 -0.778329 1.37039 0
M  V30 215 C 18.6672 -1.90546 1.34962 0
M  V30 216 C 19.6482 -1.68681 0.219274 0
M  V30 217 O 20.8332 -1.89634 0.418624 0
M  V30 218 C 17.9632 -3.27734 1.14925 0
M  V30 219 C 16.9172 -3.64147 2.24902 0
M  V30 220 C 16.2432 -4.99806 1.89996 0
M  V30 221 C 17.5432 -3.71579 3.67051 0
M  V30 222 H 19.2372 -1.92541 2.29277 0
M  V30 223 H 16.7832 -0.924948 1.10366 0
M  V30 224 H 18.7362 -4.06215 1.12104 0
M  V30 225 H 17.4602 -3.26154 0.170631 0
M  V30 226 H 16.1192 -2.8797 2.26868 0
M  V30 227 H 15.7672 -4.94759 0.906796 0
M  V30 228 H 15.4672 -5.25139 2.63634 0
M  V30 229 H 16.9912 -5.80694 1.88749 0
M  V30 230 H 18.4052 -4.40227 3.67251 0
M  V30 231 H 16.8022 -4.08405 4.39688 0
M  V30 232 H 17.8722 -2.72404 4.01154 0
M  V30 233 N 19.2153 -1.21501 -1.00376 0
M  V30 234 C 20.1453 -0.999478 -2.11028 0
M  V30 235 C 21.1263 0.0759671 -1.6993 0
M  V30 236 O 22.3113 -0.0841106 -1.94018 0
M  V30 237 C 19.4413 -0.564709 -3.42678 0
M  V30 238 C 18.3953 -1.58486 -3.97576 0
M  V30 239 C 17.7213 -1.00628 -5.25146 0
M  V30 240 C 19.0213 -2.97204 -4.29496 0
M  V30 241 H 20.7153 -1.92495 -2.29317 0
M  V30 242 H 18.2613 -0.92693 -1.102 0
M  V30 243 H 20.2143 -0.401091 -4.19487 0
M  V30 244 H 18.9383 0.396411 -3.24185 0
M  V30 245 H 17.5973 -1.73606 -3.22888 0
M  V30 246 H 17.2453 -0.0368439 -5.02987 0
M  V30 247 H 16.9453 -1.68771 -5.62841 0
M  V30 248 H 18.4693 -0.854015 -6.04598 0
M  V30 249 H 19.8833 -2.8552 -4.97143 0
M  V30 250 H 18.2803 -3.62372 -4.78338 0
M  V30 251 H 19.3503 -3.47956 -3.3772 0
M  V30 252 N 20.6934 1.19889 -1.02296 0
M  V30 253 C 21.6234 2.25141 -0.619174 0
M  V30 254 C 22.6044 1.66051 0.368915 0
M  V30 255 O 23.7894 1.92546 0.252941 0
M  V30 256 C 20.9194 3.4728 0.0368783 0
M  V30 257 C 19.8734 4.19005 -0.872865 0
M  V30 258 C 19.1994 5.34637 -0.0822402 0
M  V30 259 C 20.4994 4.74452 -2.18387 0
M  V30 260 H 22.1934 2.59171 -1.49903 0
M  V30 261 H 19.7394 1.24579 -0.722222 0
M  V30 262 H 21.6924 4.20098 0.330958 0
M  V30 263 H 20.4164 3.12433 0.95149 0
M  V30 264 H 19.0754 3.48061 -1.15105 0
M  V30 265 H 18.7234 4.96034 0.83422 0
M  V30 266 H 18.4234 5.83557 -0.688149 0
M  V30 267 H 19.9474 6.10255 0.205238 0
M  V30 268 H 21.3614 5.39055 -1.95172 0
M  V30 269 H 19.7584 5.33834 -2.74119 0
M  V30 270 H 20.8284 3.92844 -2.84257 0
M  V30 271 N 22.1715 0.800033 1.35784 0
M  V30 272 C 23.4175 0.377901 1.99248 0
M  V30 273 C 23.7505 -1.05052 1.63333 0
M  V30 274 O 23.0255 -1.72768 0.893385 0
M  V30 275 C 23.3085 0.553922 3.55814 0
M  V30 276 C 23.1615 2.0268 4.01548 0
M  V30 277 C 24.4805 -0.0244802 4.40093 0
M  V30 278 H 21.5995 0.138782 0.723815 0
M  V30 279 H 24.2415 1.00835 1.61035 0
M  V30 280 H 22.3915 0.0172398 3.88496 0
M  V30 281 H 24.0635 2.62536 3.79305 0
M  V30 282 H 22.3065 2.5256 3.52698 0
M  V30 283 H 22.9775 2.10087 5.10458 0
M  V30 284 H 25.4535 0.433775 4.13833 0
M  V30 285 H 24.3295 0.128637 5.48749 0
M  V30 286 H 24.5905 -1.11758 4.27741 0
M  V30 287 N 23.6496 -1.47581 0.552962 0
M  V30 288 C 25.0606 -1.86324 0.118463 0
M  V30 289 C 25.4116 -1.46006 -1.3106 0
M  V30 290 O 24.5366 -0.861182 -1.98526 0
M  V30 291 C 25.1316 -3.3816 0.20821 0
M  V30 292 C 23.6906 -3.7601 -0.171226 0
M  V30 293 C 22.8376 -2.71634 0.557686 0
M  V30 294 H 25.7886 -1.39159 0.762928 0
M  V30 295 H 25.8096 -3.76141 -0.574278 0
M  V30 296 H 25.3216 -3.67473 1.24841 0
M  V30 297 H 23.4226 -3.52313 -1.21269 0
M  V30 298 H 23.5356 -4.78745 0.184379 0
M  V30 299 H 21.8996 -2.547 0.00125792 0
M  V30 300 H 22.6826 -3.0379 1.59896 0
M  V30 301 N 25.1277 -0.289203 -1.54924 0
M  V30 302 C 26.5437 0.0645403 -1.59469 0
M  V30 303 C 26.7437 1.53419 -1.30632 0
M  V30 304 O 25.7997 2.2852 -1.074 0
M  V30 305 C 27.1127 -0.32278 -2.98963 0
M  V30 306 C 28.6607 -0.270564 -3.11828 0
M  V30 307 C 29.1357 -0.632532 -4.53611 0
M  V30 308 N 30.6267 -0.584617 -4.59496 0
M  V30 309 C 31.3617 -0.837314 -5.67254 0
M  V30 310 N 30.8577 -1.15536 -6.83098 0
M  V30 311 N 32.6507 -0.765166 -5.56868 0
M  V30 312 H 24.8017 -1.24714 -1.71931 0
M  V30 313 H 27.0647 -0.504809 -0.802416 0
M  V30 314 H 26.7707 -1.34541 -3.24948 0
M  V30 315 H 26.6447 0.32944 -3.75759 0
M  V30 316 H 29.0317 0.742805 -2.85598 0
M  V30 317 H 29.1127 -0.957242 -2.37214 0
M  V30 318 H 28.7567 -1.64365 -4.80569 0
M  V30 319 H 28.6867 0.07609 -5.26545 0
M  V30 320 H 31.1777 -0.349248 -3.76283 0
M  V30 321 H 31.4907 -1.33447 -7.61191 0
M  V30 322 H 29.8357 -1.19328 -6.84679 0
M  V30 323 H 33.0267 -0.516432 -4.65243 0
M  V30 324 H 33.1997 -0.965477 -6.40767 0
M  V30 325 N 26.6058 1.57591 -0.0167156 0
M  V30 326 C 27.5358 2.12496 0.967858 0
M  V30 327 C 28.5168 1.03807 1.34752 0
M  V30 328 O 29.7018 1.31577 1.42833 0
M  V30 329 C 26.8318 2.64194 2.25431 0
M  V30 330 C 25.7858 3.77559 2.01576 0
M  V30 331 C 25.1118 4.15636 3.36379 0
M  V30 332 C 26.4118 5.04151 1.36489 0
M  V30 333 H 28.1058 2.95013 0.510643 0
M  V30 334 H 25.6518 1.41915 0.244181 0
M  V30 335 H 27.6048 3.01236 2.94678 0
M  V30 336 H 26.3288 1.78821 2.73296 0
M  V30 337 H 24.9878 3.40937 1.34751 0
M  V30 338 H 24.6358 3.27263 3.81979 0
M  V30 339 H 24.3358 4.92022 3.21229 0
M  V30 340 H 25.8598 4.5525 4.06915 0
M  V30 341 H 27.2738 5.38857 1.95718 0
M  V30 342 H 25.6708 5.85453 1.31776 0
M  V30 343 H 26.7408 4.83733 0.336219 0
M  V30 344 N 28.0839 -0.256276 1.55502 0
M  V30 345 C 29.3319 -0.983672 1.76545 0
M  V30 346 C 29.6529 -1.86206 0.578982 0
M  V30 347 O 28.9229 -1.91656 -0.405577 0
M  V30 348 H 27.5029 -0.366191 0.651086 0
M  V30 349 H 30.1649 -0.276479 1.92929 0
M  V30 350 H 29.2609 -1.61087 2.67315 0
M  V30 351 N 29.562 -1.4872 -0.521534 0
M  V30 352 C 30.525 -1.63379 -1.60748 0
M  V30 353 C 31.525 -0.50661 -1.52611 0
M  V30 354 O 32.715 -0.772601 -1.5613 0
M  V30 355 C 29.847 -1.61192 -3.00383 0
M  V30 356 H 31.04 -2.60217 -1.49087 0
M  V30 357 H 28.593 -1.37444 -0.744235 0
M  V30 358 H 29.328 -0.65863 -3.17541 0
M  V30 359 H 29.113 -2.43032 -3.07698 0
M  V30 360 H 30.603 -1.7466 -3.7932 0
M  V30 361 N 31.0401 0.771051 -1.3745 0
M  V30 362 C 32.0031 1.86598 -1.33093 0
M  V30 363 C 33.0031 1.59076 -0.234845 0
M  V30 364 O 34.1931 1.67145 -0.490732 0
M  V30 365 C 31.3251 3.23747 -1.06773 0
M  V30 366 H 32.5181 1.91873 -2.30488 0
M  V30 367 H 30.0711 0.970876 -1.2249 0
M  V30 368 H 30.8061 3.24148 -0.099129 0
M  V30 369 H 30.5911 3.45115 -1.86112 0
M  V30 370 H 32.0811 4.03824 -1.06377 0
M  V30 371 N 32.5182 1.22032 0.997298 0
M  V30 372 C 33.9342 0.979326 1.26021 0
M  V30 373 C 34.1342 -0.32972 1.98784 0
M  V30 374 O 33.1902 -1.05345 2.29475 0
M  V30 375 C 34.5032 2.17509 2.07631 0
M  V30 376 C 36.0512 2.21817 2.2083 0
M  V30 377 C 36.5262 3.40933 3.05825 0
M  V30 378 N 38.0172 3.41067 3.13412 0
M  V30 379 C 38.7522 4.29885 3.79455 0
M  V30 380 N 38.2482 5.28914 4.47462 0
M  V30 381 N 40.0412 4.17673 3.76173 0
M  V30 382 H 32.1922 2.06202 0.509352 0
M  V30 383 H 34.4552 0.90334 0.287541 0
M  V30 384 H 34.1612 3.12415 1.61524 0
M  V30 385 H 34.0352 2.17206 3.08385 0
M  V30 386 H 36.4222 1.27462 2.66153 0
M  V30 387 H 36.5032 2.2616 1.1952 0
M  V30 388 H 36.1472 4.35586 2.61203 0
M  V30 389 H 36.0772 3.33829 4.07266 0
M  V30 390 H 38.5682 2.69406 2.65007 0
M  V30 391 H 38.8812 5.92973 4.95583 0
M  V30 392 H 37.2262 5.32831 4.46224 0
M  V30 393 H 40.4172 3.39564 3.22202 0
M  V30 394 H 40.5902 4.87098 4.27363 0
M  V30 395 N 33.9963 -1.19345 1.0293 0
M  V30 396 C 34.9433 -2.2258 0.610464 0
M  V30 397 C 35.9133 -1.6179 -0.375946 0
M  V30 398 O 37.0983 -1.88844 -0.272511 0
M  V30 399 C 34.2383 -3.45085 -0.0321473 0
M  V30 400 C 33.3513 -4.20258 1.00035 0
M  V30 401 C 32.4863 -5.3019 0.32746 0
M  V30 402 C 31.5253 -5.97121 1.34584 0
M  V30 403 N 30.6623 -6.98615 0.698726 0
M  V30 404 H 35.5023 -2.57764 1.49538 0
M  V30 405 H 33.0393 -1.26644 0.748311 0
M  V30 406 H 34.9973 -4.15061 -0.421966 0
M  V30 407 H 33.6273 -3.10555 -0.88064 0
M  V30 408 H 32.6793 -3.49223 1.50823 0
M  V30 409 H 33.9913 -4.66175 1.77433 0
M  V30 410 H 33.1453 -6.06587 -0.11718 0
M  V30 411 H 31.8843 -4.85345 -0.478713 0
M  V30 412 H 30.8893 -5.19474 1.80074 0
M  V30 413 H 32.1143 -6.4405 2.15352 0
M  V30 414 H 30.0603 -6.55942 -0.0873471 0
M  V30 415 H 29.9773 -7.42724 1.41058 0
M  V30 416 H 31.2453 -7.79004 0.278102 0
M  V30 417 N 35.4744 -0.807222 -1.35358 0
M  V30 418 C 36.7224 -0.387122 -1.98358 0
M  V30 419 C 37.0434 1.04942 -1.64354 0
M  V30 420 O 36.3134 1.72615 -0.926339 0
M  V30 421 H 34.8934 -0.140154 -0.733734 0
M  V30 422 H 37.5554 -1.0332 -1.6526 0
M  V30 423 H 36.6514 -0.493352 -3.08176 0
M  V30 424 N 36.9525 1.47285 -0.560781 0
M  V30 425 C 38.1775 2.07359 -0.0410566 0
M  V30 426 C 38.6025 1.41017 1.24483 0
M  V30 427 O 37.9605 0.486368 1.74654 0
M  V30 428 C 38.0085 3.6035 0.134123 0
M  V30 429 O 37.1125 3.94681 1.19587 0
M  V30 430 H 36.4535 0.661887 -0.0529291 0
M  V30 431 H 38.9835 1.89252 -0.777482 0
M  V30 432 H 38.9935 4.0652 0.347207 0
M  V30 433 H 37.6685 4.08034 -0.805047 0
M  V30 434 H 36.2455 3.60251 0.962987 0
M  V30 435 N 38.4306 0.297415 1.54768 0
M  V30 436 C 39.8416 -0.195947 1.85669 0
M  V30 437 C 40.1926 -1.53707 1.21937 0
M  V30 438 O 39.3176 -2.10164 0.515754 0
M  V30 439 C 39.9126 -0.362318 3.36857 0
M  V30 440 C 38.4716 -0.799901 3.67802 0
M  V30 441 C 37.6186 0.0938578 2.77141 0
M  V30 442 H 40.5696 0.518538 1.4999 0
M  V30 443 H 40.5906 -1.19745 3.61167 0
M  V30 444 H 40.1026 0.613921 3.83214 0
M  V30 445 H 38.2036 -1.78682 3.26961 0
M  V30 446 H 38.3166 -0.621773 4.75048 0
M  V30 447 H 36.6806 -0.426254 2.51108 0
M  V30 448 H 37.4636 1.06639 3.26318 0
M  V30 449 N 39.9087 -1.5758 0.0250728 0
M  V30 450 C 40.8187 -2.1343 -0.973905 0
M  V30 451 C 41.8347 -1.08556 -1.35984 0
M  V30 452 O 43.0107 -1.40592 -1.44207 0
M  V30 453 C 40.0757 -2.64703 -2.23904 0
M  V30 454 C 39.1367 -3.84276 -1.91391 0
M  V30 455 C 38.3697 -4.33095 -3.11873 0
M  V30 456 O 38.5927 -3.81107 -4.24398 0
M  V30 457 O 37.5267 -5.24984 -2.94406 0
M  V30 458 H 41.3527 -2.99057 -0.529036 0
M  V30 459 H 38.9377 -1.48118 -0.195288 0
M  V30 460 H 40.8197 -2.97769 -2.98181 0
M  V30 461 H 39.4947 -1.82161 -2.6758 0
M  V30 462 H 38.4017 -3.56143 -1.14511 0
M  V30 463 H 39.7347 -4.67968 -1.52534 0
M  V30 464 N 41.3868 0.248026 -1.55636 0
M  V30 465 C 42.2968 1.32859 -1.93354 0
M  V30 466 C 43.3128 1.52719 -0.833838 0
M  V30 467 O 44.4888 1.66363 -1.13513 0
M  V30 468 C 41.5538 2.66337 -2.21958 0
M  V30 469 C 40.6148 2.55008 -3.45354 0
M  V30 470 C 39.8478 3.82121 -3.72584 0
M  V30 471 O 40.0708 4.83951 -3.01907 0
M  V30 472 O 39.0048 3.80822 -4.6611 0
M  V30 473 H 42.8308 1.03862 -2.85388 0
M  V30 474 H 40.4158 0.448686 -1.42503 0
M  V30 475 H 42.2978 3.45216 -2.4167 0
M  V30 476 H 40.9728 2.95068 -1.33103 0
M  V30 477 H 39.8798 1.7442 -3.30951 0
M  V30 478 H 41.2128 2.31222 -4.34508 0
M  V30 479 N 42.8649 1.48995 0.513639 0
M  V30 480 C 43.8279 1.64229 1.59879 0
M  V30 481 C 44.8279 0.514696 1.5234 0
M  V30 482 O 46.0179 0.78087 1.55718 0
M  V30 483 C 43.1499 1.62783 2.99524 0
M  V30 484 H 44.3429 2.61004 1.47705 0
M  V30 485 H 41.8959 1.37837 0.736936 0
M  V30 486 H 42.6309 0.675461 3.17188 0
M  V30 487 H 42.4159 2.4466 3.06404 0
M  V30 488 H 43.9059 1.76669 3.78388 0
M  V30 489 N 44.343 -0.763751 1.37857 0
M  V30 490 C 45.568 -1.55805 1.36893 0
M  V30 491 C 45.993 -1.88054 -0.0416135 0
M  V30 492 O 45.351 -1.49825 -1.02089 0
M  V30 493 C 45.399 -2.84012 2.22192 0
M  V30 494 O 44.503 -3.78732 1.63204 0
M  V30 495 H 43.844 -0.471638 0.46739 0
M  V30 496 H 46.374 -0.944657 1.81487 0
M  V30 497 H 46.384 -3.33037 2.35691 0
M  V30 498 H 45.059 -2.59869 3.24716 0
M  V30 499 H 43.636 -3.37402 1.58791 0
M  V30 500 N 45.8211 -1.22559 -0.990812 0
M  V30 501 C 47.0681 -1.05141 -1.73065 0
M  V30 502 C 47.3961 0.413191 -1.9006 0
M  V30 503 O 46.6511 1.32257 -1.44245 0
M  V30 504 C 46.9501 -1.71011 -3.13831 0
M  V30 505 C 46.6161 -3.20911 -3.16745 0
M  V30 506 C 45.2781 -3.61812 -3.17247 0
M  V30 507 C 47.6301 -4.16846 -3.12872 0
M  V30 508 C 44.9581 -4.97127 -3.1158 0
M  V30 509 C 47.3101 -5.5214 -3.08746 0
M  V30 510 C 45.9741 -5.92419 -3.07565 0
M  V30 511 H 45.2441 -0.384738 -0.633291 0
M  V30 512 H 47.8911 -1.5235 -1.16025 0
M  V30 513 H 46.1961 -1.16133 -3.74193 0
M  V30 514 H 47.8931 -1.55023 -3.69823 0
M  V30 515 H 44.4831 -2.88344 -3.17105 0
M  V30 516 H 48.6671 -3.86263 -3.11632 0
M  V30 517 H 43.9231 -5.27562 -3.09012 0
M  V30 518 H 48.0971 -6.26201 -3.04705 0
M  V30 519 H 45.7241 -6.97236 -3.02929 0
M  V30 520 N 47.2992 1.18797 -1.03562 0
M  V30 521 C 48.5292 1.92319 -0.754773 0
M  V30 522 C 48.9372 1.7612 0.691248 0
M  V30 523 O 48.2802 1.08491 1.48241 0
M  V30 524 C 48.3422 3.44284 -1.03484 0
M  V30 525 C 48.0062 3.84258 -2.47376 0
M  V30 526 C 49.0032 3.88459 -3.45537 0
M  V30 527 C 46.6882 4.15701 -2.81954 0
M  V30 528 C 48.6822 4.23545 -4.76328 0
M  V30 529 C 46.3692 4.50458 -4.12954 0
M  V30 530 C 47.3672 4.54356 -5.09951 0
M  V30 531 O 47.0552 4.88305 -6.38603 0
M  V30 532 H 46.7872 0.617527 -0.275021 0
M  V30 533 H 49.3412 1.51683 -1.38497 0
M  V30 534 H 47.5712 3.85135 -0.347513 0
M  V30 535 H 49.2602 3.99049 -0.7426 0
M  V30 536 H 50.0262 3.6431 -3.20162 0
M  V30 537 H 45.9052 4.11847 -2.0713 0
M  V30 538 H 49.4492 4.26502 -5.52035 0
M  V30 539 H 45.3462 4.74067 -4.38099 0
M  V30 540 H 46.1142 5.06227 -6.43177 0
M  V30 541 N 48.7773 0.814389 1.34928 0
M  V30 542 C 50.0073 0.41054 2.0248 0
M  V30 543 C 50.4153 -0.985625 1.61499 0
M  V30 544 O 49.7583 -1.64781 0.811976 0
M  V30 545 C 49.8203 0.423384 3.56998 0
M  V30 546 C 49.4843 1.77141 4.21272 0
M  V30 547 C 50.4813 2.73093 4.42398 0
M  V30 548 C 48.1663 2.05755 4.58225 0
M  V30 549 C 50.1603 3.95838 4.9959 0
M  V30 550 C 47.8473 3.28762 5.1513 0
M  V30 551 C 48.8453 4.23621 5.35755 0
M  V30 552 O 48.5333 5.44456 5.91458 0
M  V30 553 H 48.2653 0.163997 0.655806 0
M  V30 554 H 50.8193 1.10155 1.73364 0
M  V30 555 H 49.0493 -0.324276 3.85338 0
M  V30 556 H 50.7383 0.0407683 4.0588 0
M  V30 557 H 51.5043 2.5228 4.14222 0
M  V30 558 H 47.3833 1.32727 4.4148 0
M  V30 559 H 50.9273 4.69891 5.15605 0
M  V30 560 H 46.8243 3.49443 5.42734 0
M  V30 561 H 47.5923 5.4586 6.09901 0
M  V30 562 N 50.2554 -1.46986 0.568584 0
M  V30 563 C 51.5034 -2.02041 0.0487022 0
M  V30 564 C 51.8244 -1.44408 -1.31039 0
M  V30 565 O 51.0944 -0.623477 -1.85714 0
M  V30 566 H 49.6744 -0.746849 0.015014 0
M  V30 567 H 52.3364 -1.80257 0.741168 0
M  V30 568 H 51.4324 -3.12085 -0.0308961 0
M  V30 569 N 51.7335 -0.305618 -1.54608 0
M  V30 570 C 52.9615 0.304775 -2.04643 0
M  V30 571 C 53.3765 1.47167 -1.18268 0
M  V30 572 O 52.7335 1.81296 -0.209328 0
M  V30 573 C 52.7845 0.756564 -3.53495 0
M  V30 574 O 52.5055 -0.36389 -4.36586 0
M  V30 575 C 54.0065 1.43163 -4.19546 0
M  V30 576 H 51.2265 0.0655481 -0.667791 0
M  V30 577 H 53.7705 -0.446592 -1.99564 0
M  V30 578 H 51.9255 1.45794 -3.58919 0
M  V30 579 H 52.3395 -0.0113121 -5.24499 0
M  V30 580 H 53.8135 1.69886 -5.25207 0
M  V30 581 H 54.2905 2.37318 -3.69563 0
M  V30 582 H 54.8965 0.773307 -4.18211 0
M  V30 583 N 53.2116 1.57565 -0.0334293 0
M  V30 584 C 54.4586 1.91978 0.644272 0
M  V30 585 C 54.7866 0.910231 1.71887 0
M  V30 586 O 54.0416 -0.0801961 1.95536 0
M  V30 587 C 54.3406 3.33112 1.29504 0
M  V30 588 C 54.0066 4.49537 0.350388 0
M  V30 589 C 52.6686 4.81115 0.0903974 0
M  V30 590 C 55.0206 5.20347 -0.298032 0
M  V30 591 C 52.3486 5.8086 -0.825746 0
M  V30 592 C 54.7006 6.2107 -1.20226 0
M  V30 593 C 53.3646 6.51088 -1.4711 0
M  V30 594 H 52.6346 0.702496 0.235756 0
M  V30 595 H 55.2816 1.91259 -0.0961176 0
M  V30 596 H 53.5866 3.30113 2.11028 0
M  V30 597 H 55.2836 3.57011 1.82603 0
M  V30 598 H 51.8736 4.24883 0.563205 0
M  V30 599 H 56.0576 4.96178 -0.110234 0
M  V30 600 H 51.3136 6.02461 -1.04169 0
M  V30 601 H 55.4876 6.75057 -1.71086 0
M  V30 602 H 53.1146 7.28193 -2.18264 0
M  V30 603 N 54.6897 -0.239769 1.55765 0
M  V30 604 C 56.1007 -0.808263 1.68297 0
M  V30 605 C 56.4517 -1.85736 0.632181 0
M  V30 606 O 55.5767 -2.15277 -0.220204 0
M  V30 607 C 56.1717 -1.47284 3.05111 0
M  V30 608 C 54.7307 -1.98895 3.19559 0
M  V30 609 C 53.8777 -0.842575 2.64189 0
M  V30 610 H 56.8287 -0.0154422 1.58692 0
M  V30 611 H 56.8497 -2.34111 2.99954 0
M  V30 612 H 56.3617 -0.709053 3.81568 0
M  V30 613 H 54.4627 -2.78132 2.47938 0
M  V30 614 H 54.5757 -2.18143 4.26556 0
M  V30 615 H 52.9397 -1.24501 2.22197 0
M  V30 616 H 53.7227 -0.0917552 3.43177 0
M  V30 617 N 56.1678 -1.49265 -0.50573 0
M  V30 618 C 57.0978 -1.68495 -1.61653 0
M  V30 619 C 58.0788 -0.53366 -1.61512 0
M  V30 620 O 59.2638 -0.76897 -1.78327 0
M  V30 621 C 56.3938 -1.74709 -3.00157 0
M  V30 622 C 55.3478 -2.89581 -3.15162 0
M  V30 623 C 54.6738 -2.80903 -4.5497 0
M  V30 624 C 55.9738 -4.30578 -2.95634 0
M  V30 625 H 57.6678 -2.61493 -1.45814 0
M  V30 626 H 55.2138 -1.25838 -0.70005 0
M  V30 627 H 57.1668 -1.86748 -3.77761 0
M  V30 628 H 55.8908 -0.783067 -3.17074 0
M  V30 629 H 54.5498 -2.77136 -2.39982 0
M  V30 630 H 54.1978 -1.82419 -4.68756 0
M  V30 631 H 53.8978 -3.57999 -4.65951 0
M  V30 632 H 55.4218 -2.94944 -5.34641 0
M  V30 633 H 56.8358 -4.4373 -3.63011 0
M  V30 634 H 55.2328 -5.0886 -3.18091 0
M  V30 635 H 56.3028 -4.45352 -1.91806 0
M  V30 636 N 57.6459 0.756429 -1.3826 0
M  V30 637 C 58.8939 1.51248 -1.34047 0
M  V30 638 C 59.2149 1.94875 0.0698372 0
M  V30 639 O 58.4849 1.67436 1.01696 0
M  V30 640 H 57.0649 0.561018 -0.493222 0
M  V30 641 H 59.7269 0.899347 -1.7291 0
M  V30 642 H 58.8229 2.40472 -1.98947 0
M  V30 643 N 59.124 1.23083 0.984299 0
M  V30 644 C 60.371 1.06057 1.72505 0
M  V30 645 C 60.699 -0.403105 1.90277 0
M  V30 646 O 59.954 -1.3149 1.44944 0
M  V30 647 C 60.253 1.72673 3.1292 0
M  V30 648 C 59.919 3.22586 3.15038 0
M  V30 649 C 58.581 3.63489 3.15324 0
M  V30 650 C 60.933 4.185 3.10657 0
M  V30 651 C 58.261 4.98772 3.08939 0
M  V30 652 C 60.613 5.53769 3.05814 0
M  V30 653 C 59.277 5.94041 3.04419 0
M  V30 654 H 58.547 0.388091 0.631242 0
M  V30 655 H 61.194 1.52963 1.15215 0
M  V30 656 H 59.499 1.18116 3.73572 0
M  V30 657 H 61.196 1.56982 3.68996 0
M  V30 658 H 57.786 2.90022 3.15571 0
M  V30 659 H 61.97 3.87911 3.09579 0
M  V30 660 H 57.226 5.29193 3.0621 0
M  V30 661 H 61.4 6.27808 3.0138 0
M  V30 662 H 59.027 6.98833 2.99227 0
M  V30 663 N 60.6021 -1.18246 1.0419 0
M  V30 664 C 61.8271 -1.92736 0.765996 0
M  V30 665 C 62.2521 -1.75728 -0.67091 0
M  V30 666 O 61.6101 -1.06825 -1.46486 0
M  V30 667 C 61.6581 -3.42148 1.13875 0
M  V30 668 O 60.7621 -4.11548 0.264954 0
M  V30 669 H 60.1031 -0.601238 0.281797 0
M  V30 670 H 62.6331 -1.49942 1.39207 0
M  V30 671 H 62.6431 -3.92858 1.1012 0
M  V30 672 H 61.3181 -3.53848 2.18551 0
M  V30 673 H 59.8951 -3.71137 0.362226 0
M  V30 674 N 62.0802 -0.821533 -1.34494 0
M  V30 675 C 63.3262 -0.418729 -1.99043 0
M  V30 676 C 63.6812 1.00672 -1.6396 0
M  V30 677 O 62.9742 1.69132 -0.900271 0
M  V30 678 C 63.1682 -0.556512 -3.53041 0
M  V30 679 C 62.9972 -1.9938 -4.03085 0
M  V30 680 C 61.7672 -2.62539 -4.31742 0
M  V30 681 C 63.9652 -2.96035 -4.20556 0
M  V30 682 N 61.9472 -3.97523 -4.67813 0
M  V30 683 C 63.3182 -4.15924 -4.59791 0
M  V30 684 C 65.3732 -2.9267 -4.02801 0
M  V30 685 C 64.0762 -5.32899 -4.83126 0
M  V30 686 C 66.1022 -4.08861 -4.27302 0
M  V30 687 C 65.4642 -5.275 -4.66822 0
M  V30 688 H 61.5632 -0.201299 -0.755647 0
M  V30 689 H 64.1472 -1.06594 -1.62929 0
M  V30 690 H 62.3182 0.0607924 -3.88352 0
M  V30 691 H 64.0502 -0.126842 -4.04501 0
M  V30 692 H 60.8052 -2.13789 -4.22601 0
M  V30 693 H 61.2292 -4.67061 -4.90085 0
M  V30 694 H 65.8712 -2.02088 -3.71376 0
M  V30 695 H 63.5892 -6.24041 -5.13418 0
M  V30 696 H 67.1752 -4.07654 -4.15101 0
M  V30 697 H 66.0552 -6.15913 -4.85408 0
M  V30 698 N 63.5583 1.46682 -0.576371 0
M  V30 699 C 64.8063 2.02013 -0.0594163 0
M  V30 700 C 65.1273 1.45101 1.30271 0
M  V30 701 O 64.3973 0.633317 1.8538 0
M  V30 702 H 62.9773 0.746759 -0.0189745 0
M  V30 703 H 65.6393 1.79862 -0.750717 0
M  V30 704 H 64.7353 3.12097 0.014345 0
M  V30 705 N 65.0364 0.313813 1.54444 0
M  V30 706 C 66.2824 -0.292108 2.00685 0
M  V30 707 C 66.6154 -1.52548 1.20177 0
M  V30 708 O 65.8904 -1.92452 0.281531 0
M  V30 709 C 66.1734 -0.635968 3.5444 0
M  V30 710 C 66.0264 0.607437 4.4568 0
M  V30 711 C 67.3454 -1.45747 4.15266 0
M  V30 712 H 64.4644 -0.104697 0.729526 0
M  V30 713 H 67.1064 0.428457 1.85106 0
M  V30 714 H 65.2564 -1.24986 3.67846 0
M  V30 715 H 66.9284 1.24581 4.44159 0
M  V30 716 H 65.1714 1.23822 4.15753 0
M  V30 717 H 65.8424 0.322515 5.51057 0
M  V30 718 H 68.3184 -0.938645 4.05375 0
M  V30 719 H 67.1944 -1.66683 5.2298 0
M  V30 720 H 67.4554 -2.45063 3.67963 0
M  V30 721 N 66.5145 -1.57545 0.0417849 0
M  V30 722 C 67.7625 -1.91937 -0.632829 0
M  V30 723 C 68.0835 -0.919978 -1.71934 0
M  V30 724 O 67.3535 0.0366064 -1.95866 0
M  V30 725 H 65.9335 -0.708493 -0.236742 0
M  V30 726 H 68.5955 -1.9468 0.0925745 0
M  V30 727 H 67.6915 -2.92912 -1.07746 0
M  V30 728 N 67.9926 0.231505 -1.5589 0
M  V30 729 C 69.2176 0.978689 -1.82856 0
M  V30 730 C 69.6426 1.77559 -0.620846 0
M  V30 731 O 69.0006 1.76119 0.430305 0
M  V30 732 C 69.0486 1.87997 -3.07716 0
M  V30 733 O 68.1526 2.97393 -2.85712 0
M  V30 734 H 67.4936 0.277663 -0.603158 0
M  V30 735 H 70.0236 0.24783 -2.03093 0
M  V30 736 H 70.0336 2.2917 -3.37558 0
M  V30 737 H 68.7086 1.29417 -3.95252 0
M  V30 738 H 67.2856 2.60238 -2.67078 0
M  V30 739 N 69.4707 1.49531 0.497807 0
M  V30 740 C 70.6957 1.63159 1.28039 0
M  V30 741 C 71.1207 0.30418 1.85624 0
M  V30 742 O 70.4787 -0.728618 1.66015 0
M  V30 743 C 70.5267 2.70537 2.38416 0
M  V30 744 O 69.6307 2.29931 3.42353 0
M  V30 745 H 68.9717 0.546001 0.377861 0
M  V30 746 H 71.5017 1.9574 0.59558 0
M  V30 747 H 71.5117 2.92802 2.84132 0
M  V30 748 H 70.1867 3.6689 1.95869 0
M  V30 749 H 68.7637 2.18009 3.02533 0
M  V30 750 N 70.9488 -0.749086 1.3866 0
M  V30 751 C 71.9118 -1.84457 1.36045 0
M  V30 752 C 72.9118 -1.58682 0.260122 0
M  V30 753 O 74.1018 -1.66343 0.517261 0
M  V30 754 C 71.2338 -3.22008 1.11911 0
M  V30 755 H 72.4268 -1.88182 2.33512 0
M  V30 756 H 69.9798 -0.951266 1.24019 0
M  V30 757 H 70.7148 -3.2395 0.150686 0
M  V30 758 H 70.4998 -3.42111 1.91579 0
M  V30 759 H 71.9898 -4.0208 1.12788 0
M  V30 760 N 72.4269 -1.23603 -0.977757 0
M  V30 761 C 73.6569 -1.09487 -1.75203 0
M  V30 762 C 74.0649 0.356321 -1.85814 0
M  V30 763 O 73.4079 1.25816 -1.33851 0
M  V30 764 C 73.4699 -1.64905 -3.19447 0
M  V30 765 C 73.1339 -3.13688 -3.32338 0
M  V30 766 C 74.1309 -4.10953 -3.18455 0
M  V30 767 C 71.8159 -3.53449 -3.56902 0
M  V30 768 C 73.8099 -5.45962 -3.28944 0
M  V30 769 C 71.4969 -4.88602 -3.6703 0
M  V30 770 C 72.4949 -5.84668 -3.53062 0
M  V30 771 O 72.1829 -7.17365 -3.62826 0
M  V30 772 H 71.9149 -0.38367 -0.556573 0
M  V30 773 H 74.4689 -1.6398 -1.23693 0
M  V30 774 H 72.6989 -1.04835 -3.72218 0
M  V30 775 H 74.3879 -1.46226 -3.78646 0
M  V30 776 H 75.1539 -3.81577 -2.99372 0
M  V30 777 H 71.0329 -2.79188 -3.66844 0
M  V30 778 H 74.5769 -6.20925 -3.17958 0
M  V30 779 H 70.4739 -5.17653 -3.85623 0
M  V30 780 H 71.2419 -7.2515 -3.79605 0
M  V30 781 N 73.905 1.17692 -1.04816 0
M  V30 782 C 74.837 2.21103 -0.603822 0
M  V30 783 C 75.85 1.59411 0.33046 0
M  V30 784 O 77.039 1.7807 0.12379 0
M  V30 785 C 74.139 3.38623 0.136898 0
M  V30 786 C 73.312 4.29888 -0.807137 0
M  V30 787 C 72.371 5.26088 -0.10836 0
M  V30 788 O 71.397 5.64353 -0.741232 0
M  V30 789 N 72.599 5.68882 1.15558 0
M  V30 790 H 75.364 2.59848 -1.49329 0
M  V30 791 H 72.925 1.32553 -0.929587 0
M  V30 792 H 74.917 4.00009 0.614401 0
M  V30 793 H 73.487 2.98508 0.927993 0
M  V30 794 H 72.707 3.65993 -1.46434 0
M  V30 795 H 73.995 4.87759 -1.44807 0
M  V30 796 H 73.393 5.39861 1.69015 0
M  V30 797 H 71.95 6.32429 1.57722 0
M  V30 798 N 75.3831 0.828654 1.34056 0
M  V30 799 C 76.6111 0.43262 2.02326 0
M  V30 800 C 77.0261 -0.963147 1.62385 0
M  V30 801 O 76.3831 -1.62425 0.832121 0
M  V30 802 C 76.4341 0.53182 3.57567 0
M  V30 803 O 76.1551 1.87258 3.96063 0
M  V30 804 C 77.6561 0.131422 4.43105 0
M  V30 805 H 74.8761 0.172923 0.648335 0
M  V30 806 H 77.4201 1.1184 1.71208 0
M  V30 807 H 75.5751 -0.105938 3.87255 0
M  V30 808 H 75.9891 1.85087 4.90758 0
M  V30 809 H 77.4631 0.251904 5.51425 0
M  V30 810 H 77.9401 -0.925645 4.29335 0
M  V30 811 H 78.5461 0.743207 4.18756 0
M  V30 812 N 76.8612 -1.46375 0.584142 0
M  V30 813 C 77.7712 -2.34115 -0.150728 0
M  V30 814 C 78.7872 -1.49838 -0.884567 0
M  V30 815 O 79.9632 -1.82704 -0.847429 0
M  V30 816 C 77.0282 -3.2705 -1.15062 0
M  V30 817 C 76.0892 -4.27228 -0.421293 0
M  V30 818 C 75.3222 -5.15722 -1.37355 0
M  V30 819 O 75.5452 -5.07176 -2.61014 0
M  V30 820 O 74.4792 -5.95383 -0.883355 0
M  V30 821 H 78.3052 -2.98309 0.569708 0
M  V30 822 H 75.8902 -1.45373 0.344535 0
M  V30 823 H 77.7722 -3.84381 -1.72712 0
M  V30 824 H 76.4472 -2.65451 -1.8525 0
M  V30 825 H 75.3542 -3.7358 0.197085 0
M  V30 826 H 76.6872 -4.91616 0.239641 0
M  V30 827 N 78.3393 -0.321999 -1.54275 0
M  V30 828 C 79.5873 0.280489 -2.00144 0
M  V30 829 C 79.9083 1.52777 -1.21178 0
M  V30 830 O 79.1783 1.9338 -0.313187 0
M  V30 831 H 77.7583 0.106632 -0.73935 0
M  V30 832 H 80.4203 -0.438184 -1.8991 0
M  V30 833 H 79.5163 0.537972 -3.07428 0
M  V30 834 N 79.8174 1.5752 -0.0501392 0
M  V30 835 C 80.7804 2.1037 0.909786 0
M  V30 836 C 81.7804 1.02308 1.24056 0
M  V30 837 O 82.9704 1.28385 1.17741 0
M  V30 838 C 80.1024 2.58708 2.21998 0
M  V30 839 H 81.2954 2.96479 0.451665 0
M  V30 840 H 78.8484 1.55038 0.198248 0
M  V30 841 H 79.5834 1.75989 2.72394 0
M  V30 842 H 79.3684 3.37675 1.99295 0
M  V30 843 H 80.8584 2.99747 2.9076 0
M  V30 844 N 81.2955 -0.223234 1.56011 0
M  V30 845 C 82.5415 -0.944891 1.8012 0
M  V30 846 C 82.8965 -1.82039 0.622862 0
M  V30 847 O 82.1895 -1.8773 -0.383143 0
M  V30 848 C 82.3835 -1.81948 3.0762 0
M  V30 849 C 82.2125 -1.03014 4.37742 0
M  V30 850 C 80.9825 -0.72574 5.00061 0
M  V30 851 C 83.1805 -0.396256 5.12771 0
M  V30 852 N 81.1625 0.0851816 6.13841 0
M  V30 853 C 82.5335 0.278137 6.19376 0
M  V30 854 C 84.5885 -0.309117 4.9694 0
M  V30 855 C 83.2915 1.03133 7.11868 0
M  V30 856 C 85.3175 0.430607 5.8983 0
M  V30 857 C 84.6795 1.09355 6.9586 0
M  V30 858 H 80.7785 -0.326081 0.710771 0
M  V30 859 H 83.3625 -0.215914 1.93499 0
M  V30 860 H 81.5335 -2.52029 2.95527 0
M  V30 861 H 83.2655 -2.47848 3.19927 0
M  V30 862 H 80.0205 -1.04335 4.61964 0
M  V30 863 H 80.4445 0.479428 6.753 0
M  V30 864 H 85.0865 -0.807313 4.15021 0
M  V30 865 H 82.8045 1.54105 7.9327 0
M  V30 866 H 86.3905 0.499012 5.79656 0
M  V30 867 H 85.2705 1.65679 7.66499 0
M  V30 868 N 82.7736 -1.49793 -0.48987 0
M  V30 869 C 84.0506 -1.50348 -1.25119 0
M  V30 870 C 84.4306 -0.237466 -2.0976 0
M  V30 871 O 83.7786 0.77981 -2.14782 0
M  V30 872 C 83.9886 -2.78872 -2.09837 0
M  V30 873 C 85.3366 -3.288 -2.68655 0
M  V30 874 O 86.3606 -2.80065 -2.20096 0
M  V30 875 O 85.2196 -4.13707 -3.57083 0
M  V30 876 H 82.3136 -0.602242 -0.566775 0
M  V30 877 H 84.8596 -1.62067 -0.503229 0
M  V30 878 H 83.6316 -3.62499 -1.47343 0
M  V30 879 H 83.2546 -2.70066 -2.91805 0
M  V30 880 N 84.2517 0.741722 -1.39055 0
M  V30 881 C 85.1837 1.8657 -1.33133 0
M  V30 882 C 86.1967 1.61001 -0.241329 0
M  V30 883 O 87.3857 1.7136 -0.499784 0
M  V30 884 C 84.4857 3.22457 -1.04283 0
M  V30 885 C 83.6587 3.75435 -2.24427 0
M  V30 886 C 82.7177 4.89867 -1.92138 0
M  V30 887 O 81.7437 5.03879 -2.64754 0
M  V30 888 N 82.9457 5.73738 -0.88347 0
M  V30 889 H 85.7107 1.92156 -2.29991 0
M  V30 890 H 83.2717 0.922172 -1.3307 0
M  V30 891 H 85.2637 3.9657 -0.807128 0
M  V30 892 H 83.8337 3.12181 -0.161807 0
M  V30 893 H 83.0537 2.92751 -2.6399 0
M  V30 894 H 84.3417 4.07563 -3.04581 0
M  V30 895 H 83.7397 5.64999 -0.281517 0
M  V30 896 H 82.2967 6.47947 -0.707662 0
M  V30 897 N 85.7298 1.2412 0.971189 0
M  V30 898 C 87.0068 0.986867 1.6888 0
M  V30 899 C 87.3868 -0.491857 2.0529 0
M  V30 900 O 86.7348 -1.46531 1.75331 0
M  V30 901 C 86.9448 1.9063 2.92338 0
M  V30 902 C 88.2928 2.17515 3.64654 0
M  V30 903 O 89.3168 1.88254 3.02388 0
M  V30 904 O 88.1758 2.6719 4.7673 0
M  V30 905 H 85.2698 0.372944 0.738134 0
M  V30 906 H 87.8158 1.35203 1.02559 0
M  V30 907 H 86.5878 2.90552 2.62097 0
M  V30 908 H 86.2108 1.54408 3.66393 0
M  V30 909 N 87.2079 -1.17134 1.05439 0
M  V30 910 C 88.4559 -1.87085 0.764429 0
M  V30 911 C 88.7769 -1.81584 -0.710787 0
M  V30 912 O 88.0469 -1.24349 -1.51374 0
M  V30 913 H 86.6269 -0.692627 0.279779 0
M  V30 914 H 89.2889 -1.42087 1.33406 0
M  V30 915 H 88.3849 -2.92759 1.0816 0
M  V30 916 N 88.686 -0.835752 -1.33615 0
M  V30 917 C 89.633 -0.26473 -2.29277 0
M  V30 918 C 90.603 0.617712 -1.54187 0
M  V30 919 O 91.788 0.556641 -1.825 0
M  V30 920 C 88.928 0.556777 -3.40579 0
M  V30 921 C 88.041 -0.349339 -4.30585 0
M  V30 922 C 87.176 0.482969 -5.29 0
M  V30 923 C 86.215 -0.421732 -6.10645 0
M  V30 924 N 85.352 0.372262 -7.01112 0
M  V30 925 H 90.192 -1.08582 -2.77514 0
M  V30 926 H 87.729 -0.546927 -1.36554 0
M  V30 927 H 89.687 1.04852 -4.03809 0
M  V30 928 H 88.317 1.34286 -2.93542 0
M  V30 929 H 87.369 -0.959372 -3.68104 0
M  V30 930 H 88.681 -1.04445 -4.87742 0
M  V30 931 H 87.835 1.03866 -5.97743 0
M  V30 932 H 86.574 1.21153 -4.72412 0
M  V30 933 H 85.579 -0.989464 -5.40823 0
M  V30 934 H 86.804 -1.14861 -6.69316 0
M  V30 935 H 84.75 1.08426 -6.46977 0
M  V30 936 H 84.667 -0.264198 -7.55538 0
M  V30 937 H 85.935 0.910293 -7.74167 0
M  V30 938 N 90.1641 1.46063 -0.591896 0
M  V30 939 C 91.4121 2.01938 -0.0808391 0
M  V30 940 C 91.7331 1.46475 1.28725 0
M  V30 941 O 91.0031 0.652944 1.84698 0
M  V30 942 H 89.5831 0.746516 -0.0268938 0
M  V30 943 H 92.2451 1.79055 -0.769752 0
M  V30 944 H 91.3411 3.12094 -0.0187578 0
M  V30 945 N 91.6422 0.330177 1.54103 0
M  V30 946 C 93.0532 -0.15652 1.86043 0
M  V30 947 C 93.4042 -1.51086 1.2517 0
M  V30 948 O 92.5292 -2.09023 0.560217 0
M  V30 949 C 93.1242 -0.290784 3.3755 0
M  V30 950 C 91.6832 -0.721705 3.69416 0
M  V30 951 C 90.8302 0.152622 2.7688 0
M  V30 952 H 93.7812 0.550237 1.48856 0
M  V30 953 H 93.8022 -1.12058 3.63625 0
M  V30 954 H 93.3142 0.695068 3.81825 0
M  V30 955 H 91.4152 -1.71706 3.30678 0
M  V30 956 H 91.5282 -0.520869 4.7626 0
M  V30 957 H 89.8922 -0.372894 2.51956 0
M  V30 958 H 90.6752 1.13536 3.23982 0
M  V30 959 N 93.1203 -1.57491 0.0584922 0
M  V30 960 C 94.3453 -1.97711 -0.62652 0
M  V30 961 C 94.7703 -0.936132 -1.63151 0
M  V30 962 O 94.1283 0.099811 -1.81025 0
M  V30 963 C 94.1763 -3.36989 -1.28338 0
M  V30 964 O 93.2803 -3.35433 -2.39913 0
M  V30 965 H 92.6213 -0.643868 -0.162266 0
M  V30 966 H 95.1513 -2.04193 0.129064 0
M  V30 967 H 95.1613 -3.73879 -1.63335 0
M  V30 968 H 93.8363 -4.12289 -0.546889 0
M  V30 969 H 92.4133 -3.10298 -2.06809 0
M  V30 970 N 94.5984 0.214957 -1.56127 0
M  V30 971 C 95.8474 0.936451 -1.78643 0
M  V30 972 C 96.1604 1.85237 -0.628229 0
M  V30 973 O 97.3664 2.613 -0.737186 0
M  V30 974 C 95.8224 1.7154 -3.16389 0
M  V30 975 C 95.4304 0.845299 -4.39953 0
M  V30 976 C 97.1744 2.42772 -3.48227 0
M  V30 977 C 95.0814 1.62198 -5.68723 0
M  V30 978 H 94.0114 0.353401 -0.666051 0
M  V30 979 H 96.6624 0.190169 -1.82512 0
M  V30 980 H 95.0444 2.50484 -3.06715 0
M  V30 981 H 96.2184 0.0959353 -4.607 0
M  V30 982 H 94.5334 0.244789 -4.1568 0
M  V30 983 H 97.1304 3.01394 -4.41663 0
M  V30 984 H 97.4734 3.15984 -2.71035 0
M  V30 985 H 98.0064 1.70813 -3.5926 0
M  V30 986 H 94.7454 0.933011 -6.48826 0
M  V30 987 H 94.2654 2.34579 -5.52026 0
M  V30 988 H 95.9444 2.18095 -6.09133 0
M  V30 989 N 96.0765 1.50051 0.48192 0
M  V30 990 C 97.3225 1.61706 1.2338 0
M  V30 991 C 97.6775 0.308488 1.89911 0
M  V30 992 O 96.9705 -0.692798 1.78636 0
M  V30 993 C 97.1645 2.72717 2.30998 0
M  V30 994 C 96.9935 4.14242 1.75024 0
M  V30 995 C 95.7635 4.80786 1.55476 0
M  V30 996 C 97.9615 4.98846 1.25128 0
M  V30 997 N 95.9435 6.06563 0.946311 0
M  V30 998 C 97.3145 6.15258 0.765382 0
M  V30 999 C 99.3695 4.84702 1.13881 0
M  V30 1000 C 98.0725 7.19079 0.178113 0
M  V30 1001 C 100.098 5.8869 0.565486 0
M  V30 1002 C 99.4605 7.04343 0.0899105 0
M  V30 1003 H 95.5595 0.645958 0.440753 0
M  V30 1004 H 98.1435 1.8713 0.537624 0
M  V30 1005 H 96.3145 2.49033 2.98055 0
M  V30 1006 H 98.0465 2.73789 2.9803 0
M  V30 1007 H 94.8015 4.37899 1.80392 0
M  V30 1008 H 95.2255 6.73767 0.660812 0
M  V30 1009 H 99.8675 3.95583 1.49244 0
M  V30 1010 H 97.5855 8.07882 -0.187749 0
M  V30 1011 H 101.171 5.79808 0.480974 0
M  V30 1012 H 100.051 7.83433 -0.346782 0
M  V30 1013 N 97.5546 -0.734337 1.39446 0
M  V30 1014 C 98.8316 -1.48579 1.27215 0
M  V30 1015 C 99.2116 -2.1077 -0.117968 0
M  V30 1016 O 98.5596 -1.98646 -1.12924 0
M  V30 1017 C 98.7696 -2.53667 2.39696 0
M  V30 1018 C 100.118 -3.20031 2.79044 0
M  V30 1019 O 101.142 -2.6398 2.39151 0
M  V30 1020 O 100.001 -4.21455 3.47905 0
M  V30 1021 H 97.0946 -0.659816 0.49857 0
M  V30 1022 H 99.6406 -0.768106 1.51322 0
M  V30 1023 H 98.4126 -2.06096 3.32626 0
M  V30 1024 H 98.0356 -3.32994 2.17258 0
M  V30 1025 N 99.0327 -1.24633 -0.964593 0
M  V30 1026 C 100.279 -1.08949 -1.71049 0
M  V30 1027 C 100.612 0.370302 -1.90637 0
M  V30 1028 O 99.8867 1.27349 -1.47011 0
M  V30 1029 C 100.17 -1.83329 -3.0994 0
M  V30 1030 C 100.023 -3.37077 -2.97824 0
M  V30 1031 C 101.342 -1.60846 -4.09654 0
M  V30 1032 H 98.4607 -0.397178 -0.620821 0
M  V30 1033 H 101.103 -1.5334 -1.12191 0
M  V30 1034 H 99.2527 -1.45597 -3.60186 0
M  V30 1035 H 100.925 -3.84425 -2.5498 0
M  V30 1036 H 99.1677 -3.65298 -2.33965 0
M  V30 1037 H 99.8387 -3.84324 -3.96231 0
M  V30 1038 H 102.315 -1.93674 -3.68279 0
M  V30 1039 H 101.191 -2.1534 -5.04896 0
M  V30 1040 H 101.452 -0.547434 -4.38698 0
M  V30 1041 N 100.511 1.16574 -1.06058 0
M  V30 1042 C 101.758 1.87047 -0.775873 0
M  V30 1043 C 102.086 1.81562 0.697534 0
M  V30 1044 O 101.341 1.22445 1.52662 0
M  V30 1045 C 101.64 3.36195 -1.21275 0
M  V30 1046 C 101.306 3.6188 -2.68986 0
M  V30 1047 C 99.9678 3.68599 -3.09335 0
M  V30 1048 C 102.32 3.72648 -3.64394 0
M  V30 1049 C 99.6478 3.83584 -4.43937 0
M  V30 1050 C 102 3.89154 -4.98741 0
M  V30 1051 C 100.664 3.94114 -5.3873 0
M  V30 1052 H 99.9338 0.684452 -0.283912 0
M  V30 1053 H 102.581 1.37853 -1.32925 0
M  V30 1054 H 100.886 3.87505 -0.578528 0
M  V30 1055 H 102.583 3.89103 -0.969542 0
M  V30 1056 H 99.1728 3.57281 -2.36744 0
M  V30 1057 H 103.357 3.66769 -3.34356 0
M  V30 1058 H 98.6128 3.85677 -4.74409 0
M  V30 1059 H 102.787 3.96427 -5.72554 0
M  V30 1060 H 100.414 4.05478 -6.43033 0
M  V30 1061 N 101.989 0.842826 1.3317 0
M  V30 1062 C 103.217 0.454055 2.01856 0
M  V30 1063 C 103.632 -0.94587 1.63397 0
M  V30 1064 O 102.989 -1.61534 0.849302 0
M  V30 1065 C 103.04 0.569715 3.56982 0
M  V30 1066 O 102.761 1.91448 3.94055 0
M  V30 1067 C 104.262 0.178412 4.42941 0
M  V30 1068 H 101.482 0.17979 0.646465 0
M  V30 1069 H 104.026 1.1365 1.70012 0
M  V30 1070 H 102.181 -0.0648587 3.87346 0
M  V30 1071 H 102.595 1.90282 4.88767 0
M  V30 1072 H 104.069 0.310376 5.51127 0
M  V30 1073 H 104.546 -0.880056 4.30293 0
M  V30 1074 H 105.152 0.787579 4.17944 0
M  V30 1075 N 103.467 -1.45747 0.599634 0
M  V30 1076 C 104.417 -2.27538 -0.145107 0
M  V30 1077 C 105.401 -1.3686 -0.846055 0
M  V30 1078 O 106.593 -1.6091 -0.737357 0
M  V30 1079 C 103.722 -3.23569 -1.14708 0
M  V30 1080 C 102.808 -4.21734 -0.447383 0
M  V30 1081 N 103.199 -5.03257 0.506535 0
M  V30 1082 C 101.497 -4.40536 -0.695966 0
M  V30 1083 C 102.198 -5.74426 0.917068 0
M  V30 1084 N 101.174 -5.42966 0.26253 0
M  V30 1085 H 104.976 -2.87965 0.587672 0
M  V30 1086 H 102.49 -1.56803 0.422697 0
M  V30 1087 H 104.487 -3.8089 -1.69495 0
M  V30 1088 H 103.147 -2.64702 -1.8805 0
M  V30 1089 H 104.158 -5.10319 0.882899 0
M  V30 1090 H 100.835 -3.92802 -1.41467 0
M  V30 1091 H 102.225 -6.4995 1.70338 0
M  V30 1092 N 104.945 -0.338344 -1.53925 0
M  V30 1093 C 106.17 0.263987 -2.05713 0
M  V30 1094 C 106.595 1.43847 -1.21201 0
M  V30 1095 O 105.953 1.79904 -0.224535 0
M  V30 1096 C 106.001 0.662 -3.54471 0
M  V30 1097 O 105.105 1.76265 -3.72833 0
M  V30 1098 H 104.446 0.0448722 -0.662482 0
M  V30 1099 H 106.976 -0.491048 -1.9862 0
M  V30 1100 H 106.986 0.940594 -3.9701 0
M  V30 1101 H 105.661 -0.196937 -4.15433 0
M  V30 1102 H 104.238 1.48173 -3.42198 0
M  V30 1103 N 106.423 1.57458 -0.0668435 0
M  V30 1104 C 107.671 1.92919 0.602214 0
M  V30 1105 C 107.992 0.947215 1.70449 0
M  V30 1106 O 107.262 -0.00544117 1.95899 0
M  V30 1107 H 105.842 0.71217 0.22544 0
M  V30 1108 H 108.504 1.94508 -0.123535 0
M  V30 1109 H 107.6 2.94589 1.03073 0
M  V30 1110 N 107.901 -0.206675 1.56239 0
M  V30 1111 C 108.848 -1.25617 1.93621 0
M  V30 1112 C 109.818 -1.45824 0.795274 0
M  V30 1113 O 111.003 -1.59148 1.05245 0
M  V30 1114 C 108.143 -2.59839 2.27107 0
M  V30 1115 C 107.256 -2.47308 3.54207 0
M  V30 1116 C 106.391 -3.74155 3.7707 0
M  V30 1117 C 105.43 -3.56407 4.97635 0
M  V30 1118 N 104.567 -4.75238 5.1681 0
M  V30 1119 H 109.407 -0.930383 2.83104 0
M  V30 1120 H 106.944 -0.448065 1.4011 0
M  V30 1121 H 108.902 -3.38021 2.44535 0
M  V30 1122 H 107.532 -2.90485 1.40778 0
M  V30 1123 H 106.584 -1.60483 3.4489 0
M  V30 1124 H 107.896 -2.30122 4.42544 0
M  V30 1125 H 107.05 -4.60778 3.94675 0
M  V30 1126 H 105.789 -3.94282 2.87042 0
M  V30 1127 H 104.794 -2.68168 4.79964 0
M  V30 1128 H 106.019 -3.37736 5.89161 0
M  V30 1129 H 103.965 -4.95651 4.29728 0
M  V30 1130 H 103.882 -4.60835 5.99306 0
M  V30 1131 H 105.15 -5.63246 5.38864 0
M  V30 1132 N 109.379 -1.50304 -0.473955 0
M  V30 1133 C 110.627 -1.60832 -1.22382 0
M  V30 1134 C 110.948 -0.30939 -1.9253 0
M  V30 1135 O 110.218 0.67296 -1.83978 0
M  V30 1136 H 108.798 -0.592652 -0.454723 0
M  V30 1137 H 111.46 -1.87068 -0.546968 0
M  V30 1138 H 110.556 -2.41803 -1.97327 0
M  V30 1139 N 110.857 0.726932 -1.39834 0
M  V30 1140 C 111.804 1.841 -1.39197 0
M  V30 1141 C 112.774 1.642 -0.250502 0
M  V30 1142 O 113.959 1.85494 -0.446846 0
M  V30 1143 C 111.099 3.21697 -1.24919 0
M  V30 1144 C 110.212 3.53247 -2.48678 0
M  V30 1145 C 109.347 4.80289 -2.26928 0
M  V30 1146 C 108.386 5.04707 -3.4632 0
M  V30 1147 N 107.523 6.22956 -3.23836 0
M  V30 1148 H 112.363 1.83979 -2.34427 0
M  V30 1149 H 109.9 0.898876 -1.16442 0
M  V30 1150 H 111.858 4.01137 -1.1465 0
M  V30 1151 H 110.488 3.21076 -0.333153 0
M  V30 1152 H 109.54 2.68447 -2.69519 0
M  V30 1153 H 110.852 3.67205 -3.37582 0
M  V30 1154 H 110.006 5.67725 -2.13947 0
M  V30 1155 H 108.745 4.68519 -1.35431 0
M  V30 1156 H 107.75 4.1573 -3.5979 0
M  V30 1157 H 108.975 5.18357 -4.38729 0
M  V30 1158 H 106.921 6.12459 -2.35011 0
M  V30 1159 H 106.838 6.37539 -4.063 0
M  V30 1160 H 108.106 7.1321 -3.14566 0
M  V30 1161 N 112.336 1.25143 0.95797 0
M  V30 1162 C 113.582 1.09855 1.70469 0
M  V30 1163 C 113.915 -0.360187 1.90831 0
M  V30 1164 O 113.19 -1.26568 1.47685 0
M  V30 1165 C 113.473 1.8497 3.08963 0
M  V30 1166 C 113.326 3.38652 2.96032 0
M  V30 1167 C 114.645 1.63016 4.08795 0
M  V30 1168 H 111.764 0.400465 0.618706 0
M  V30 1169 H 114.406 1.53933 1.11376 0
M  V30 1170 H 112.556 1.47505 3.59409 0
M  V30 1171 H 114.228 3.85772 2.52938 0
M  V30 1172 H 112.471 3.66534 2.32025 0
M  V30 1173 H 113.142 3.8642 3.94187 0
M  V30 1174 H 115.618 1.95625 3.67247 0
M  V30 1175 H 114.494 2.18015 5.03747 0
M  V30 1176 H 114.755 0.570692 4.38401 0
M  V30 1177 N 113.814 -1.1601 1.06675 0
M  V30 1178 C 114.744 -2.22688 0.702307 0
M  V30 1179 C 115.725 -1.67306 -0.307032 0
M  V30 1180 O 116.91 -1.93352 -0.181305 0
M  V30 1181 C 114.04 -3.47178 0.092038 0
M  V30 1182 C 112.994 -4.15477 1.02777 0
M  V30 1183 C 112.32 -5.33963 0.28061 0
M  V30 1184 C 113.62 -4.66019 2.35846 0
M  V30 1185 H 115.314 -2.53429 1.59419 0
M  V30 1186 H 112.86 -1.21813 0.767961 0
M  V30 1187 H 114.813 -4.21037 -0.174814 0
M  V30 1188 H 113.537 -3.15749 -0.834877 0
M  V30 1189 H 112.196 -3.43549 1.27944 0
M  V30 1190 H 111.844 -4.98788 -0.649545 0
M  V30 1191 H 111.544 -5.806 0.904258 0
M  V30 1192 H 113.068 -6.10596 0.021396 0
M  V30 1193 H 114.482 -5.3144 2.15045 0
M  V30 1194 H 112.879 -5.23293 2.93743 0
M  V30 1195 H 113.949 -3.82023 2.98641 0
M  V30 1196 N 115.292 -0.849877 -1.32721 0
M  V30 1197 C 116.54 -0.450032 -1.97026 0
M  V30 1198 C 116.861 0.996604 -1.67609 0
M  V30 1199 O 116.131 1.6958 -0.980786 0
M  V30 1200 H 114.711 -0.163426 -0.728904 0
M  V30 1201 H 117.373 -1.08526 -1.6189 0
M  V30 1202 H 116.469 -0.591146 -3.0645 0
M  V30 1203 N 116.77 1.45427 -0.607355 0
M  V30 1204 C 117.718 2.32269 0.12411 0
M  V30 1205 C 118.712 1.45955 0.859854 0
M  V30 1206 O 119.918 1.6244 0.775447 0
M  V30 1207 H 116.293 0.749691 0.0588839 0
M  V30 1208 H 118.264 2.91743 -0.626762 0
M  V30 1209 C 117.013 3.29567 1.1082 0
M  V30 1210 H 116.336 3.95978 0.551492 0
M  V30 1211 H 117.776 3.93061 1.58995 0
M  V30 1212 C 116.235 2.56722 2.18164 0
M  V30 1213 O 116.765 2.34842 3.25902 0
M  V30 1214 N 114.971 2.16861 1.93442 0
M  V30 1215 H 114.518 2.34855 1.05834 0
M  V30 1216 H 114.476 1.68444 2.65469 0
M  V30 1217 N 118.248 0.346503 1.53744 0
M  V30 1218 C 119.158 -0.517293 2.28826 0
M  V30 1219 C 120.174 -1.10935 1.3405 0
M  V30 1220 O 121.35 -1.1244 1.6709 0
M  V30 1221 C 118.415 -1.65098 3.04866 0
M  V30 1222 C 117.476 -1.0884 4.15274 0
M  V30 1223 C 116.709 -2.16806 4.87679 0
M  V30 1224 O 116.932 -3.3758 4.59778 0
M  V30 1225 O 115.866 -1.80934 5.74061 0
M  V30 1226 H 119.692 0.0931396 3.03557 0
M  V30 1227 H 117.277 0.111458 1.48984 0
M  V30 1228 H 119.159 -2.31053 3.5241 0
M  V30 1229 H 117.834 -2.24717 2.32989 0
M  V30 1230 H 116.741 -0.3933 3.72027 0
M  V30 1231 H 118.074 -0.537036 4.89261 0
M  V30 1232 N 119.726 -1.57421 0.075193 0
M  V30 1233 C 120.954 -1.97946 -0.602076 0
M  V30 1234 C 121.369 -0.953674 -1.62943 0
M  V30 1235 O 120.726 0.0592551 -1.82404 0
M  V30 1236 C 120.777 -3.38546 -1.26762 0
M  V30 1237 O 120.498 -4.37195 -0.281376 0
M  V30 1238 C 121.999 -3.93966 -2.03239 0
M  V30 1239 H 119.219 -0.650918 -0.162931 0
M  V30 1240 H 121.763 -2.03959 0.148601 0
M  V30 1241 H 119.918 -3.33609 -1.96936 0
M  V30 1242 H 120.332 -5.18975 -0.759267 0
M  V30 1243 H 121.806 -4.94555 -2.45193 0
M  V30 1244 H 122.283 -3.30693 -2.8903 0
M  V30 1245 H 122.889 -4.02315 -1.37924 0
M  V30 1246 N 121.204 0.198386 -1.56346 0
M  V30 1247 C 122.167 1.22952 -1.93431 0
M  V30 1248 C 123.167 1.38611 -0.815092 0
M  V30 1249 O 124.357 1.36479 -1.08255 0
M  V30 1250 C 121.489 2.59946 -2.20546 0
M  V30 1251 H 122.682 0.912626 -2.85677 0
M  V30 1252 H 120.235 0.43977 -1.49986 0
M  V30 1253 H 120.97 2.96696 -1.30927 0
M  V30 1254 H 120.755 2.49953 -3.02102 0
M  V30 1255 H 122.245 3.3431 -2.50253 0
M  V30 1256 N 122.682 1.50554 0.465978 0
M  V30 1257 C 123.959 1.5232 1.22712 0
M  V30 1258 C 124.339 0.270807 2.09356 0
M  V30 1259 O 123.687 -0.745541 2.15995 0
M  V30 1260 C 123.897 2.82175 2.05374 0
M  V30 1261 C 125.245 3.33033 2.6339 0
M  V30 1262 O 126.269 2.83531 2.15612 0
M  V30 1263 O 125.128 4.19336 3.50456 0
M  V30 1264 H 122.222 0.611183 0.557122 0
M  V30 1265 H 124.768 1.62847 0.477381 0
M  V30 1266 H 123.54 3.64797 1.41558 0
M  V30 1267 H 123.163 2.74675 2.87471 0
M  V30 1268 N 124.16 -0.719506 1.40217 0
M  V30 1269 C 125.406 -1.48152 1.38488 0
M  V30 1270 C 125.739 -1.94195 -0.0141867 0
M  V30 1271 O 125.014 -1.67884 -0.982096 0
M  V30 1272 C 125.297 -2.71035 2.37091 0
M  V30 1273 C 125.15 -2.30912 3.86005 0
M  V30 1274 C 126.469 -3.73182 2.33288 0
M  V30 1275 H 123.588 -0.537395 0.504357 0
M  V30 1276 H 126.23 -0.821472 1.71324 0
M  V30 1277 H 124.38 -3.27352 2.0922 0
M  V30 1278 H 126.052 -1.80107 4.24687 0
M  V30 1279 H 124.295 -1.62958 4.02029 0
M  V30 1280 H 124.966 -3.18978 4.50508 0
M  V30 1281 H 127.442 -3.26485 2.57966 0
M  V30 1282 H 126.318 -4.56806 3.04334 0
M  V30 1283 H 126.579 -4.21202 1.34317 0
M  V30 1284 N 125.638 -1.25649 -0.95132 0
M  V30 1285 C 126.601 -1.06399 -2.03007 0
M  V30 1286 C 127.601 -0.0156794 -1.60792 0
M  V30 1287 O 128.791 -0.25817 -1.72276 0
M  V30 1288 C 125.923 -0.616184 -3.35285 0
M  V30 1289 H 127.116 -2.02164 -2.21517 0
M  V30 1290 H 124.669 -1.08103 -1.12887 0
M  V30 1291 H 125.404 0.343917 -3.22471 0
M  V30 1292 H 125.189 -1.37301 -3.67275 0
M  V30 1293 H 126.679 -0.503032 -4.14559 0
M  V30 1294 N 127.117 1.15442 -1.07289 0
M  V30 1295 C 128.357 1.8788 -0.805012 0
M  V30 1296 C 128.721 1.80413 0.656907 0
M  V30 1297 O 129.922 2.47874 1.0398 0
M  V30 1298 C 128.193 3.3298 -1.29843 0
M  V30 1299 S 129.752 4.23158 -1.16114 0
M  V30 1300 H 126.57 0.64839 -0.291739 0
M  V30 1301 H 129.172 1.39285 -1.37186 0
M  V30 1302 H 127.876 3.35958 -2.35712 0
M  V30 1303 H 127.407 3.86629 -0.726767 0
M  V30 1304 H 129.422 4.96103 -0.0982778 0
M  V30 1305 N 128.595 0.856903 1.32268 0
M  V30 1306 C 129.872 0.382583 1.91822 0
M  V30 1307 C 130.252 -1.13407 1.78051 0
M  V30 1308 O 129.6 -1.95673 1.18001 0
M  V30 1309 C 129.81 0.849446 3.38505 0
M  V30 1310 C 131.158 0.867936 4.15634 0
M  V30 1311 O 132.182 0.794232 3.47232 0
M  V30 1312 O 131.041 0.972286 5.37781 0
M  V30 1313 H 128.135 0.112014 0.819379 0
M  V30 1314 H 130.681 0.943952 1.41024 0
M  V30 1315 H 129.453 1.89267 3.42482 0
M  V30 1316 H 129.076 0.265652 3.96712 0
M  V30 1317 N 130.073 -1.45103 0.615059 0
M  V30 1318 C 131.321 -2.01784 0.112955 0
M  V30 1319 C 131.642 -1.48504 -1.26378 0
M  V30 1320 O 130.912 -0.682245 -1.83636 0
M  V30 1321 H 129.492 -0.745993 0.0387668 0
M  V30 1322 H 132.154 -1.77808 0.798141 0
M  V30 1323 H 131.25 -3.12025 0.0684069 0
M  V30 1324 N 131.551 -0.354651 -1.53558 0
M  V30 1325 C 132.781 0.239167 -2.05211 0
M  V30 1326 C 133.189 1.43879 -1.22863 0
M  V30 1327 O 132.532 1.81857 -0.259565 0
M  V30 1328 C 132.594 0.707251 -3.52474 0
M  V30 1329 C 132.258 -0.374212 -4.55465 0
M  V30 1330 C 133.255 -1.22054 -5.0537 0
M  V30 1331 C 130.94 -0.531323 -4.99482 0
M  V30 1332 C 132.934 -2.20942 -5.97882 0
M  V30 1333 C 130.621 -1.52358 -5.91802 0
M  V30 1334 C 131.619 -2.36108 -6.40892 0
M  V30 1335 O 131.307 -3.33643 -7.31394 0
M  V30 1336 H 131.039 0.0479716 -0.674296 0
M  V30 1337 H 133.593 -0.508121 -1.99016 0
M  V30 1338 H 131.823 1.50596 -3.56171 0
M  V30 1339 H 133.512 1.22285 -3.87042 0
M  V30 1340 H 134.278 -1.1103 -4.7212 0
M  V30 1341 H 130.157 0.110738 -4.60867 0
M  V30 1342 H 133.701 -2.86348 -6.36121 0
M  V30 1343 H 129.598 -1.63434 -6.24467 0
M  V30 1344 H 130.366 -3.29244 -7.4936 0
M  V30 1345 N 133.029 1.57378 -0.0835403 0
M  V30 1346 C 134.259 1.97975 0.590713 0
M  V30 1347 C 134.667 0.961083 1.62972 0
M  V30 1348 O 134.01 -0.0590879 1.83605 0
M  V30 1349 C 134.072 3.34915 1.3066 0
M  V30 1350 C 133.736 4.55069 0.419698 0
M  V30 1351 C 134.733 5.18868 -0.32749 0
M  V30 1352 C 132.418 5.0114 0.341137 0
M  V30 1353 C 134.412 6.27098 -1.14134 0
M  V30 1354 C 132.099 6.0924 -0.476374 0
M  V30 1355 C 133.097 6.72083 -1.21627 0
M  V30 1356 O 132.785 7.781 -2.02028 0
M  V30 1357 H 132.517 0.655818 0.163947 0
M  V30 1358 H 135.071 2.04807 -0.156021 0
M  V30 1359 H 133.301 3.24733 2.09966 0
M  V30 1360 H 134.99 3.60037 1.87424 0
M  V30 1361 H 135.756 4.84211 -0.276459 0
M  V30 1362 H 131.635 4.51996 0.90668 0
M  V30 1363 H 135.179 6.7608 -1.71935 0
M  V30 1364 H 131.076 6.43329 -0.528927 0
M  V30 1365 H 131.844 7.95034 -1.94586 0
M  V30 1366 N 134.507 -0.190092 1.56449 0
M  V30 1367 C 135.454 -1.23557 1.94942 0
M  V30 1368 C 136.424 -1.44972 0.810696 0
M  V30 1369 O 137.609 -1.58023 1.06927 0
M  V30 1370 C 134.749 -2.57416 2.2985 0
M  V30 1371 C 133.862 -2.43537 3.5681 0
M  V30 1372 C 132.997 -3.70134 3.81017 0
M  V30 1373 C 132.036 -3.51109 5.01387 0
M  V30 1374 N 131.173 -4.6973 5.21822 0
M  V30 1375 H 136.013 -0.900304 2.84075 0
M  V30 1376 H 133.55 -0.43318 1.40577 0
M  V30 1377 H 135.508 -3.35409 2.48106 0
M  V30 1378 H 134.138 -2.88975 1.43852 0
M  V30 1379 H 133.19 -1.56816 3.46573 0
M  V30 1380 H 134.502 -2.25415 4.4496 0
M  V30 1381 H 133.656 -4.56566 3.9954 0
M  V30 1382 H 132.395 -3.91215 2.91207 0
M  V30 1383 H 131.4 -2.63063 4.82782 0
M  V30 1384 H 132.625 -3.31468 5.9271 0
M  V30 1385 H 130.571 -4.91065 4.34961 0
M  V30 1386 H 130.488 -4.54452 6.0416 0
M  V30 1387 H 131.756 -5.57499 5.44808 0
M  V30 1388 N 135.985 -1.50799 -0.457987 0
M  V30 1389 C 137.231 -1.62683 -1.21088 0
M  V30 1390 C 137.564 -0.332268 -1.91336 0
M  V30 1391 O 136.839 0.667043 -1.82704 0
M  V30 1392 C 137.122 -2.81615 -2.24422 0
M  V30 1393 C 136.975 -4.20989 -1.58392 0
M  V30 1394 C 138.294 -2.96085 -3.2561 0
M  V30 1395 H 135.413 -0.592087 -0.438864 0
M  V30 1396 H 138.055 -1.83225 -0.50286 0
M  V30 1397 H 136.205 -2.64231 -2.84806 0
M  V30 1398 H 137.877 -4.49994 -1.01504 0
M  V30 1399 H 136.12 -4.24641 -0.886704 0
M  V30 1400 H 136.791 -5.0016 -2.33547 0
M  V30 1401 H 139.267 -3.12042 -2.75262 0
M  V30 1402 H 138.143 -3.80902 -3.95228 0
M  V30 1403 H 138.404 -2.0726 -3.90507 0
M  V30 1404 N 137.463 0.71206 -1.40597 0
M  V30 1405 C 138.395 1.83704 -1.37061 0
M  V30 1406 C 139.408 1.60453 -0.275426 0
M  V30 1407 O 140.597 1.70262 -0.53602 0
M  V30 1408 C 137.697 3.20172 -1.11099 0
M  V30 1409 C 136.87 3.7059 -2.3234 0
M  V30 1410 C 135.929 4.85681 -2.02485 0
M  V30 1411 O 134.955 4.9815 -2.75382 0
M  V30 1412 N 136.157 5.71735 -1.00497 0
M  V30 1413 H 138.922 1.87235 -2.34016 0
M  V30 1414 H 136.483 0.893739 -1.34996 0
M  V30 1415 H 138.475 3.94768 -0.891064 0
M  V30 1416 H 137.045 3.11767 -0.227989 0
M  V30 1417 H 136.265 2.87085 -2.7014 0
M  V30 1418 H 137.553 4.01011 -3.13157 0
M  V30 1419 H 136.951 5.64275 -0.401298 0
M  V30 1420 H 135.508 6.463 -0.844942 0
M  V30 1421 N 138.941 1.26152 0.944643 0
M  V30 1422 C 139.851 1.09176 2.07648 0
M  V30 1423 C 140.867 0.0261935 1.7398 0
M  V30 1424 O 142.043 0.229208 2.00091 0
M  V30 1425 C 139.108 0.722915 3.39079 0
M  V30 1426 C 138.169 1.86752 3.86552 0
M  V30 1427 C 137.402 1.51617 5.11711 0
M  V30 1428 O 137.625 0.416331 5.68879 0
M  V30 1429 O 136.559 2.34975 5.54139 0
M  V30 1430 H 140.385 2.0412 2.24875 0
M  V30 1431 H 137.97 1.05182 1.061 0
M  V30 1432 H 139.852 0.529787 4.18056 0
M  V30 1433 H 138.527 -0.197159 3.23099 0
M  V30 1434 H 137.434 2.11558 3.08535 0
M  V30 1435 H 138.767 2.76719 4.07047 0
M  V30 1436 N 140.419 -1.14872 1.07899 0
M  V30 1437 C 141.696 -1.81928 0.71845 0
M  V30 1438 C 142.076 -1.95417 -0.798455 0
M  V30 1439 O 141.424 -1.50997 -1.715 0
M  V30 1440 C 141.634 -3.17937 1.43935 0
M  V30 1441 C 142.982 -3.93501 1.59506 0
M  V30 1442 O 144.006 -3.27509 1.40058 0
M  V30 1443 O 142.865 -5.1183 1.91551 0
M  V30 1444 H 139.959 -0.78628 0.256305 0
M  V30 1445 H 142.505 -1.21934 1.18026 0
M  V30 1446 H 141.277 -3.0325 2.47295 0
M  V30 1447 H 140.9 -3.85619 0.968687 0
M  V30 1448 N 141.898 -0.863906 -1.31812 0
M  V30 1449 C 143.147 -0.46801 -1.96195 0
M  V30 1450 C 143.46 0.983474 -1.69077 0
M  V30 1451 O 144.666 1.48523 -2.27273 0
M  V30 1452 C 143.122 -0.785995 -3.51212 0
M  V30 1453 C 142.73 -2.25383 -3.87178 0
M  V30 1454 C 144.474 -0.458274 -4.22019 0
M  V30 1455 C 142.381 -2.51455 -5.3528 0
M  V30 1456 H 141.311 -0.171283 -0.734287 0
M  V30 1457 H 143.962 -1.05597 -1.50072 0
M  V30 1458 H 142.344 -0.127359 -3.95795 0
M  V30 1459 H 143.518 -2.95502 -3.53575 0
M  V30 1460 H 141.833 -2.54698 -3.2942 0
M  V30 1461 H 144.43 -0.630369 -5.30971 0
M  V30 1462 H 144.773 0.600834 -4.11941 0
M  V30 1463 H 145.306 -1.07319 -3.8305 0
M  V30 1464 H 142.045 -3.56025 -5.50387 0
M  V30 1465 H 141.565 -1.85923 -5.70257 0
M  V30 1466 H 143.244 -2.35874 -6.02472 0
M  V30 1467 N 143.376 1.44774 -0.622745 0
M  V30 1468 C 144.625 2.01334 -0.121397 0
M  V30 1469 C 144.938 1.49505 1.26125 0
M  V30 1470 O 146.144 1.98139 1.85616 0
M  V30 1471 C 144.6 3.59516 -0.166298 0
M  V30 1472 C 144.208 4.20342 -1.54974 0
M  V30 1473 C 145.952 4.23582 0.279021 0
M  V30 1474 C 143.859 5.70721 -1.55021 0
M  V30 1475 H 142.789 0.752851 -0.0416172 0
M  V30 1476 H 145.44 1.66083 -0.780309 0
M  V30 1477 H 143.822 3.92027 0.559557 0
M  V30 1478 H 144.996 3.99381 -2.29851 0
M  V30 1479 H 143.311 3.68529 -1.93843 0
M  V30 1480 H 145.908 5.33868 0.298083 0
M  V30 1481 H 146.251 3.95327 1.30471 0
M  V30 1482 H 146.784 3.95843 -0.394063 0
M  V30 1483 H 143.523 6.03698 -2.55399 0
M  V30 1484 H 143.043 5.93829 -0.844245 0
M  V30 1485 H 144.722 6.34203 -1.28047 0
M  V30 1486 N 144.854 0.36279 1.53368 0
M  V30 1487 C 145.784 -0.476976 2.28576 0
M  V30 1488 C 146.765 -1.08631 1.30894 0
M  V30 1489 O 147.95 -1.10409 1.59761 0
M  V30 1490 C 145.08 -1.61828 3.07293 0
M  V30 1491 C 144.034 -1.13633 4.1264 0
M  V30 1492 C 143.36 -2.36766 4.79423 0
M  V30 1493 C 144.66 -0.223061 5.21823 0
M  V30 1494 H 146.354 0.150474 2.99022 0
M  V30 1495 H 143.9 0.0738103 1.43811 0
M  V30 1496 H 145.853 -2.21237 3.58653 0
M  V30 1497 H 144.577 -2.27292 2.34533 0
M  V30 1498 H 143.236 -0.564945 3.62221 0
M  V30 1499 H 142.884 -3.0068 4.03238 0
M  V30 1500 H 142.584 -2.05192 5.50609 0
M  V30 1501 H 144.108 -2.96865 5.33576 0
M  V30 1502 H 145.522 -0.724545 5.68703 0
M  V30 1503 H 143.919 0.001678 6.001 0
M  V30 1504 H 144.989 0.735553 4.79289 0
M  V30 1505 N 146.332 -1.57332 0.0918853 0
M  V30 1506 C 147.262 -2.16872 -0.865371 0
M  V30 1507 C 148.243 -1.10118 -1.29646 0
M  V30 1508 O 149.428 -1.38242 -1.36392 0
M  V30 1509 C 146.558 -2.74649 -2.12569 0
M  V30 1510 C 145.512 -3.86747 -1.83333 0
M  V30 1511 C 144.838 -4.31212 -3.16166 0
M  V30 1512 C 146.138 -5.10089 -1.1228 0
M  V30 1513 H 147.832 -2.97114 -0.369307 0
M  V30 1514 H 145.378 -1.42918 -0.176194 0
M  V30 1515 H 147.331 -3.14952 -2.7997 0
M  V30 1516 H 146.055 -1.91657 -2.64452 0
M  V30 1517 H 144.714 -3.46978 -1.18331 0
M  V30 1518 H 144.362 -3.45115 -3.6593 0
M  V30 1519 H 144.062 -5.06788 -2.97388 0
M  V30 1520 H 145.586 -4.74146 -3.84731 0
M  V30 1521 H 147 -5.47582 -1.69785 0
M  V30 1522 H 145.397 -5.91073 -1.03693 0
M  V30 1523 H 146.467 -4.84786 -0.105041 0
M  V30 1524 N 147.81 0.181792 -1.56548 0
M  V30 1525 C 149.226 0.53316 -1.50431 0
M  V30 1526 C 149.426 1.85184 -0.794297 0
M  V30 1527 O 148.482 2.50058 -0.350318 0
M  V30 1528 C 149.795 0.575597 -2.9514 0
M  V30 1529 C 151.343 0.663519 -3.05886 0
M  V30 1530 C 151.818 0.736946 -4.52032 0
M  V30 1531 N 153.309 0.800118 -4.56237 0
M  V30 1532 C 154.044 0.877327 -5.66649 0
M  V30 1533 N 153.54 0.916016 -6.86718 0
M  V30 1534 N 155.333 0.915542 -5.54594 0
M  V30 1535 H 147.484 -0.683025 -2.01118 0
M  V30 1536 H 149.747 -0.244988 -0.915797 0
M  V30 1537 H 149.453 -0.324482 -3.502 0
M  V30 1538 H 149.327 1.42572 -3.49218 0
M  V30 1539 H 151.714 1.55403 -2.50867 0
M  V30 1540 H 151.795 -0.21307 -2.54911 0
M  V30 1541 H 151.439 -0.149262 -5.07681 0
M  V30 1542 H 151.369 1.62953 -5.00753 0
M  V30 1543 H 153.86 0.778926 -3.69785 0
M  V30 1544 H 154.173 0.975813 -7.66614 0
M  V30 1545 H 152.518 0.884469 -6.89349 0
M  V30 1546 H 155.709 0.882245 -4.59711 0
M  V30 1547 H 155.882 0.972253 -6.40665 0
M  V30 1548 N 149.288 1.51039 0.449983 0
M  V30 1549 C 150.198 1.74261 1.57067 0
M  V30 1550 C 151.214 0.626363 1.62335 0
M  V30 1551 O 152.39 0.907162 1.79812 0
M  V30 1552 C 149.455 1.85114 2.93144 0
M  V30 1553 C 148.516 3.0893 2.98095 0
M  V30 1554 C 147.749 3.19256 4.27681 0
M  V30 1555 O 147.972 2.35835 5.19363 0
M  V30 1556 O 146.906 4.12144 4.38658 0
M  V30 1557 H 150.732 2.69303 1.40391 0
M  V30 1558 H 148.317 1.35389 0.631688 0
M  V30 1559 H 150.199 1.94311 3.73926 0
M  V30 1560 H 148.874 0.932588 3.09975 0
M  V30 1561 H 147.781 3.0522 2.16314 0
M  V30 1562 H 149.114 4.00433 2.86206 0
M  V30 1563 N 150.766 -0.704594 1.40972 0
M  V30 1564 C 151.696 -1.83124 1.44872 0
M  V30 1565 C 152.677 -1.67281 0.30838 0
M  V30 1566 O 153.862 -1.87149 0.518556 0
M  V30 1567 C 150.992 -3.21181 1.32136 0
M  V30 1568 C 149.946 -3.51714 2.43888 0
M  V30 1569 C 149.272 -4.89032 2.16222 0
M  V30 1570 C 150.572 -3.516 3.86232 0
M  V30 1571 H 152.266 -1.80117 2.39161 0
M  V30 1572 H 149.812 -0.865145 1.15114 0
M  V30 1573 H 151.765 -3.99702 1.33479 0
M  V30 1574 H 150.489 -3.24791 0.343279 0
M  V30 1575 H 149.148 -2.75539 2.41813 0
M  V30 1576 H 148.796 -4.89256 1.16778 0
M  V30 1577 H 148.496 -5.10426 2.911 0
M  V30 1578 H 150.02 -5.69873 2.19265 0
M  V30 1579 H 151.434 -4.2014 3.9007 0
M  V30 1580 H 149.831 -3.84523 4.60719 0
M  V30 1581 H 150.901 -2.50757 4.15029 0
M  V30 1582 N 152.244 -1.26651 -0.937939 0
M  V30 1583 C 153.194 -1.05156 -2.02302 0
M  V30 1584 C 154.178 0.0171233 -1.60891 0
M  V30 1585 O 155.37 -0.200213 -1.75864 0
M  V30 1586 C 152.499 -0.689962 -3.36295 0
M  V30 1587 C 151.585 -1.79626 -3.84181 0
M  V30 1588 N 151.976 -3.03422 -4.04684 0
M  V30 1589 C 150.274 -1.6806 -4.13124 0
M  V30 1590 C 150.975 -3.75345 -4.444 0
M  V30 1591 N 149.951 -3.03051 -4.51288 0
M  V30 1592 H 153.753 -1.99117 -2.1617 0
M  V30 1593 H 151.267 -1.17216 -1.12402 0
M  V30 1594 H 153.264 -0.517112 -4.13681 0
M  V30 1595 H 151.924 0.242139 -3.23796 0
M  V30 1596 H 152.935 -3.39293 -3.91281 0
M  V30 1597 H 149.612 -0.818629 -4.09396 0
M  V30 1598 H 151.002 -4.81691 -4.68427 0
M  V30 1599 N 153.722 1.14298 -1.08507 0
M  V30 1600 C 154.968 1.85633 -0.816581 0
M  V30 1601 C 155.301 1.82784 0.656021 0
M  V30 1602 O 154.576 1.25926 1.48233 0
M  V30 1603 C 154.859 3.34223 -1.34041 0
M  V30 1604 C 154.712 3.45639 -2.87843 0
M  V30 1605 C 156.031 4.29356 -0.9665 0
M  V30 1606 H 153.15 0.67402 -0.298104 0
M  V30 1607 H 155.792 1.34214 -1.34487 0
M  V30 1608 H 153.942 3.78144 -0.89104 0
M  V30 1609 H 155.614 3.10498 -3.41158 0
M  V30 1610 H 153.857 2.86817 -3.25451 0
M  V30 1611 H 154.528 4.50089 -3.19569 0
M  V30 1612 H 157.004 3.93457 -1.35391 0
M  V30 1613 H 155.88 5.3178 -1.3602 0
M  V30 1614 H 156.141 4.41919 0.126362 0
M  V30 1615 N 155.201 0.870884 1.31352 0
M  V30 1616 C 156.149 0.316445 2.30437 0
M  V30 1617 C 157.143 -0.568965 1.59559 0
M  V30 1618 O 158.349 -0.454964 1.74155 0
M  V30 1619 H 154.724 0.0836521 0.747333 0
M  V30 1620 H 156.695 1.16606 2.74673 0
M  V30 1621 C 155.444 -0.46635 3.44558 0
M  V30 1622 H 154.767 0.205687 3.99271 0
M  V30 1623 H 156.207 -0.819614 4.16003 0
M  V30 1624 C 154.666 -1.65797 2.9328 0
M  V30 1625 O 155.196 -2.75728 2.92125 0
M  V30 1626 N 153.402 -1.49041 2.4947 0
M  V30 1627 H 152.949 -0.59612 2.50608 0
M  V30 1628 H 152.907 -2.28911 2.15516 0
M  V30 1629 N 156.679 -1.44442 0.630414 0
M  V30 1630 C 157.629 -2.27794 -0.0968103 0
M  V30 1631 C 158.613 -1.38624 -0.816834 0
M  V30 1632 O 159.805 -1.62438 -0.70306 0
M  V30 1633 C 156.934 -3.25929 -1.07819 0
M  V30 1634 C 156.02 -4.22588 -0.357826 0
M  V30 1635 N 156.411 -5.0207 0.613169 0
M  V30 1636 C 154.709 -4.41914 -0.602365 0
M  V30 1637 C 155.41 -5.72351 1.03871 0
M  V30 1638 N 154.386 -5.42287 0.377642 0
M  V30 1639 H 158.188 -2.86653 0.648621 0
M  V30 1640 H 155.702 -1.55871 0.455862 0
M  V30 1641 H 157.699 -3.84399 -1.61378 0
M  V30 1642 H 156.359 -2.68631 -1.82393 0
M  V30 1643 H 157.37 -5.08331 0.990947 0
M  V30 1644 H 154.047 -3.95714 -1.33103 0
M  V30 1645 H 155.437 -6.4619 1.84086 0
M  V30 1646 N 158.157 -0.370918 -1.53173 0
M  V30 1647 C 159.387 0.217389 -2.05453 0
M  V30 1648 C 159.795 1.42568 -1.24382 0
M  V30 1649 O 159.138 1.81571 -0.278839 0
M  V30 1650 C 159.2 0.669827 -3.53205 0
M  V30 1651 C 158.864 -0.4225 -4.55043 0
M  V30 1652 C 159.861 -1.27407 -5.04047 0
M  V30 1653 C 157.546 -0.58427 -4.9889 0
M  V30 1654 C 159.54 -2.27271 -5.95505 0
M  V30 1655 C 157.227 -1.58627 -5.90153 0
M  V30 1656 C 158.225 -2.42892 -6.38351 0
M  V30 1657 O 157.913 -3.41382 -7.27814 0
M  V30 1658 H 157.645 0.0408171 -0.674767 0
M  V30 1659 H 160.199 -0.5292 -1.98466 0
M  V30 1660 H 158.429 1.4681 -3.57748 0
M  V30 1661 H 160.118 1.18173 -3.88317 0
M  V30 1662 H 160.884 -1.16031 -4.70916 0
M  V30 1663 H 156.763 0.061851 -4.60959 0
M  V30 1664 H 160.307 -2.93079 -6.33049 0
M  V30 1665 H 156.204 -1.70048 -6.22699 0
M  V30 1666 H 156.972 -3.37173 -7.45826 0
M  V30 1667 N 159.635 1.57281 -0.100228 0
M  V30 1668 C 161.051 1.57527 0.256416 0
M  V30 1669 C 161.251 1.11173 1.68056 0
M  V30 1670 O 160.307 0.79053 2.39806 0
M  V30 1671 C 161.62 3.00673 0.0401747 0
M  V30 1672 C 163.168 3.12815 0.107528 0
M  V30 1673 C 163.643 4.57929 -0.0807834 0
M  V30 1674 N 165.134 4.63193 -0.0261207 0
M  V30 1675 C 165.869 5.73212 -0.146999 0
M  V30 1676 N 165.365 6.92047 -0.322999 0
M  V30 1677 N 167.158 5.62031 -0.0879044 0
M  V30 1678 H 159.309 1.85718 -1.03065 0
M  V30 1679 H 161.572 0.857446 -0.404339 0
M  V30 1680 H 161.278 3.38804 -0.943649 0
M  V30 1681 H 161.152 3.69042 0.780262 0
M  V30 1682 H 163.539 2.74554 1.08186 0
M  V30 1683 H 163.62 2.47028 -0.664134 0
M  V30 1684 H 163.264 4.96886 -1.05201 0
M  V30 1685 H 163.194 5.21783 0.710635 0
M  V30 1686 H 165.685 3.77748 0.107161 0
M  V30 1687 H 165.998 7.7173 -0.406608 0
M  V30 1688 H 164.343 6.94074 -0.358733 0
M  V30 1689 H 167.534 4.68075 0.048498 0
M  V30 1690 H 167.707 6.47734 -0.185557 0
M  V30 1691 N 161.113 -0.173488 1.56642 0
M  V30 1692 C 162.36 -0.890465 1.81871 0
M  V30 1693 C 162.688 -1.82339 0.67696 0
M  V30 1694 O 161.943 -1.92795 -0.335926 0
M  V30 1695 C 162.242 -1.72069 3.13252 0
M  V30 1696 C 161.908 -0.936878 4.41059 0
M  V30 1697 C 160.57 -0.720545 4.75775 0
M  V30 1698 C 162.922 -0.386919 5.19762 0
M  V30 1699 C 160.25 0.0568829 5.86672 0
M  V30 1700 C 162.602 0.37741 6.31473 0
M  V30 1701 C 161.266 0.604563 6.64757 0
M  V30 1702 H 160.536 -0.325844 0.665512 0
M  V30 1703 H 163.183 -0.155527 1.90867 0
M  V30 1704 H 161.488 -2.52496 2.99588 0
M  V30 1705 H 163.185 -2.27844 3.29982 0
M  V30 1706 H 159.775 -1.11553 4.13828 0
M  V30 1707 H 163.959 -0.541398 4.93338 0
M  V30 1708 H 159.215 0.242635 6.10918 0
M  V30 1709 H 163.389 0.810825 6.91664 0
M  V30 1710 H 161.016 1.20885 7.50527 0
M  V30 1711 N 162.591 -1.51276 -0.441967 0
M  V30 1712 C 163.816 -1.67799 -1.21895 0
M  V30 1713 C 164.241 -0.372864 -1.84367 0
M  V30 1714 O 163.599 0.666501 -1.68604 0
M  V30 1715 C 163.647 -2.79199 -2.28211 0
M  V30 1716 O 162.751 -2.42479 -3.33583 0
M  V30 1717 H 162.092 -0.559649 -0.357336 0
M  V30 1718 H 164.622 -1.97815 -0.522522 0
M  V30 1719 H 164.632 -3.03146 -2.73069 0
M  V30 1720 H 163.307 -3.73906 -1.82118 0
M  V30 1721 H 161.884 -2.29087 -2.94234 0
M  V30 1722 N 164.069 0.697108 -1.41344 0
M  V30 1723 C 164.999 1.82353 -1.45841 0
M  V30 1724 C 165.98 1.67115 -0.317247 0
M  V30 1725 O 167.165 1.86871 -0.528474 0
M  V30 1726 C 164.295 3.20476 -1.33838 0
M  V30 1727 C 163.249 3.50415 -2.4575 0
M  V30 1728 C 162.575 4.87878 -2.18813 0
M  V30 1729 C 163.875 3.49546 -3.88091 0
M  V30 1730 H 165.569 1.78846 -2.40113 0
M  V30 1731 H 163.115 0.859028 -1.15571 0
M  V30 1732 H 165.068 3.98988 -1.35596 0
M  V30 1733 H 163.792 3.24604 -0.360498 0
M  V30 1734 H 162.451 2.74253 -2.43271 0
M  V30 1735 H 162.099 4.8863 -1.19371 0
M  V30 1736 H 161.799 5.08875 -2.93803 0
M  V30 1737 H 163.323 5.68702 -2.22284 0
M  V30 1738 H 164.737 4.18066 -3.92293 0
M  V30 1739 H 163.134 3.82075 -4.62751 0
M  V30 1740 H 164.204 2.48552 -4.16353 0
M  V30 1741 N 165.547 1.27147 0.931209 0
M  V30 1742 C 166.772 1.16191 1.71797 0
M  V30 1743 C 167.197 -0.278004 1.86034 0
M  V30 1744 O 166.555 -1.20137 1.35782 0
M  V30 1745 C 166.603 1.84673 3.09723 0
M  V30 1746 O 165.707 1.14231 3.96264 0
M  V30 1747 H 165.048 0.404303 0.526721 0
M  V30 1748 H 167.578 1.68152 1.1656 0
M  V30 1749 H 167.588 1.91893 3.60057 0
M  V30 1750 H 166.263 2.89421 2.98677 0
M  V30 1751 H 164.84 1.15056 3.54706 0
M  V30 1752 N 167.025 -1.13721 1.09112 0
M  V30 1753 C 168.271 -1.85413 0.836283 0
M  V30 1754 C 168.626 -1.8175 -0.631249 0
M  V30 1755 O 167.919 -1.24238 -1.45861 0
M  V30 1756 C 168.113 -3.32861 1.30146 0
M  V30 1757 C 167.942 -3.50882 2.81268 0
M  V30 1758 C 166.712 -3.65312 3.49106 0
M  V30 1759 C 168.91 -3.47196 3.7942 0
M  V30 1760 N 166.892 -3.71563 4.88686 0
M  V30 1761 C 168.263 -3.59777 5.04936 0
M  V30 1762 C 170.318 -3.30577 3.72321 0
M  V30 1763 C 169.021 -3.57455 6.24194 0
M  V30 1764 C 171.047 -3.29562 4.91063 0
M  V30 1765 C 170.409 -3.42691 6.15421 0
M  V30 1766 H 166.508 -0.694812 0.358832 0
M  V30 1767 H 169.092 -1.36246 1.39087 0
M  V30 1768 H 167.263 -3.80602 0.774361 0
M  V30 1769 H 168.995 -3.92346 0.99229 0
M  V30 1770 H 165.75 -3.6685 2.9953 0
M  V30 1771 H 166.174 -3.78387 5.61384 0
M  V30 1772 H 170.816 -3.19332 2.77105 0
M  V30 1773 H 168.534 -3.67475 7.19714 0
M  V30 1774 H 172.12 -3.17905 4.87266 0
M  V30 1775 H 171 -3.41862 7.05762 0
M  V30 1776 N 168.503 -0.877838 -1.30888 0
M  V30 1777 C 169.914 -0.544193 -1.78593 0
M  V30 1778 C 170.265 0.939301 -1.72254 0
M  V30 1779 O 169.39 1.7337 -1.29505 0
M  V30 1780 C 169.985 -0.98105 -3.24285 0
M  V30 1781 C 168.544 -0.698935 -3.69854 0
M  V30 1782 C 167.691 -1.168 -2.51502 0
M  V30 1783 H 170.642 -1.06278 -1.17859 0
M  V30 1784 H 170.663 -0.307009 -3.79259 0
M  V30 1785 H 170.175 -2.06079 -3.28866 0
M  V30 1786 H 168.276 0.369112 -3.70767 0
M  V30 1787 H 168.389 -1.28148 -4.61644 0
M  V30 1788 H 166.753 -0.587535 -2.47831 0
M  V30 1789 H 167.536 -2.25533 -2.58824 0
M  V30 1790 N 169.982 1.44106 -0.638065 0
M  V30 1791 C 171.398 1.56672 -0.304286 0
M  V30 1792 C 171.598 1.6244 1.19228 0
M  V30 1793 O 170.654 1.57121 1.9766 0
M  V30 1794 C 171.967 2.83503 -1.00231 0
M  V30 1795 C 173.515 2.97226 -0.981116 0
M  V30 1796 C 173.99 4.26868 -1.65974 0
M  V30 1797 N 175.481 4.33698 -1.62666 0
M  V30 1798 C 176.216 5.32745 -2.12063 0
M  V30 1799 N 175.712 6.38157 -2.6968 0
M  V30 1800 N 177.505 5.24299 -2.02651 0
M  V30 1801 H 169.656 1.38605 -1.60942 0
M  V30 1802 H 171.919 0.664661 -0.675965 0
M  V30 1803 H 171.625 2.85251 -2.0573 0
M  V30 1804 H 171.499 3.73251 -0.54439 0
M  V30 1805 H 173.886 2.95027 0.0654188 0
M  V30 1806 H 173.967 2.08808 -1.47759 0
M  V30 1807 H 173.611 4.29826 -2.70576 0
M  V30 1808 H 173.541 5.14156 -1.13804 0
M  V30 1809 H 176.032 3.58138 -1.20606 0
M  V30 1810 H 176.345 7.10029 -3.05087 0
M  V30 1811 H 174.69 6.38823 -2.73734 0
M  V30 1812 H 177.881 4.4086 -1.57353 0
M  V30 1813 H 178.054 6.01334 -2.41457 0
M  V30 1814 N 171.46 0.379036 1.52974 0
M  V30 1815 C 172.39 -0.452706 2.29069 0
M  V30 1816 C 173.371 -1.07237 1.32039 0
M  V30 1817 O 174.556 -1.08708 1.60923 0
M  V30 1818 C 171.686 -1.5856 3.08992 0
M  V30 1819 C 170.64 -1.0925 4.13822 0
M  V30 1820 C 169.966 -2.31668 4.81907 0
M  V30 1821 C 171.266 -0.167702 5.22031 0
M  V30 1822 H 172.96 0.182181 2.98845 0
M  V30 1823 H 170.506 0.0890592 1.43724 0
M  V30 1824 H 172.459 -2.1742 3.6098 0
M  V30 1825 H 171.183 -2.24792 2.36931 0
M  V30 1826 H 169.842 -0.526494 3.628 0
M  V30 1827 H 169.49 -2.96386 4.06404 0
M  V30 1828 H 169.19 -1.9934 5.52754 0
M  V30 1829 H 170.714 -2.91189 5.36695 0
M  V30 1830 H 172.128 -0.664186 5.6944 0
M  V30 1831 H 170.525 0.0653265 6.00064 0
M  V30 1832 H 171.595 0.786347 4.78482 0
M  V30 1833 N 172.938 -1.57226 0.108567 0
M  V30 1834 C 173.868 -2.17778 -0.84232 0
M  V30 1835 C 174.849 -1.11487 -1.2847 0
M  V30 1836 O 176.034 -1.39681 -1.34918 0
M  V30 1837 C 173.164 -2.76888 -2.09644 0
M  V30 1838 C 172.118 -3.88669 -1.79221 0
M  V30 1839 C 171.444 -4.34541 -3.11574 0
M  V30 1840 C 172.744 -5.11251 -1.06864 0
M  V30 1841 H 174.438 -2.97489 -0.337774 0
M  V30 1842 H 171.984 -1.43097 -0.161025 0
M  V30 1843 H 173.937 -3.17904 -2.76614 0
M  V30 1844 H 172.661 -1.94451 -2.62405 0
M  V30 1845 H 171.32 -3.48213 -1.14644 0
M  V30 1846 H 170.968 -3.48977 -3.62249 0
M  V30 1847 H 170.668 -5.09914 -2.91996 0
M  V30 1848 H 172.192 -4.782 -3.7968 0
M  V30 1849 H 173.606 -5.49352 -1.63968 0
M  V30 1850 H 172.003 -5.9214 -0.974178 0
M  V30 1851 H 173.073 -4.8487 -0.0536168 0
M  V30 1852 N 174.416 0.165178 -1.56732 0
M  V30 1853 C 175.827 0.727046 -1.71962 0
M  V30 1854 C 176.178 1.82508 -0.720078 0
M  V30 1855 O 175.303 2.16082 0.117242 0
M  V30 1856 C 175.898 1.32559 -3.11791 0
M  V30 1857 C 174.457 1.83422 -3.28684 0
M  V30 1858 C 173.604 0.715567 -2.67908 0
M  V30 1859 H 176.555 -0.0602896 -1.58585 0
M  V30 1860 H 176.576 2.19533 -3.10782 0
M  V30 1861 H 176.088 0.526195 -3.84516 0
M  V30 1862 H 174.189 2.65986 -2.60926 0
M  V30 1863 H 174.302 1.97543 -4.36478 0
M  V30 1864 H 172.666 1.13758 -2.27884 0
M  V30 1865 H 173.449 -0.0720836 -3.43224 0
M  V30 1866 N 175.894 1.51508 0.433938 0
M  V30 1867 C 177.122 1.68157 1.20543 0
M  V30 1868 C 177.537 0.380362 1.84929 0
M  V30 1869 O 176.894 -0.641446 1.70856 0
M  V30 1870 C 176.945 2.79965 2.28696 0
M  V30 1871 O 176.666 4.05045 1.66943 0
M  V30 1872 C 178.167 3.07912 3.18912 0
M  V30 1873 H 175.387 0.56421 0.363191 0
M  V30 1874 H 177.931 1.97941 0.513754 0
M  V30 1875 H 176.086 2.5277 2.93574 0
M  V30 1876 H 176.5 4.67165 2.38448 0
M  V30 1877 H 177.974 3.89719 3.90926 0
M  V30 1878 H 178.451 2.20456 3.79863 0
M  V30 1879 H 179.057 3.36779 2.59731 0
M  V30 1880 N 177.372 -0.689602 1.41712 0
M  V30 1881 C 178.62 -1.4468 1.4111 0
M  V30 1882 C 178.941 -1.94986 0.0232196 0
M  V30 1883 O 178.211 -1.72097 -0.935913 0
M  V30 1884 H 176.791 -0.536847 0.519427 0
M  V30 1885 H 179.453 -0.815825 1.77004 0
M  V30 1886 H 178.549 -2.30706 2.10193 0
M  V30 1887 N 178.85 -1.27639 -0.924453 0
M  V30 1888 C 180.099 -1.13549 -1.66702 0
M  V30 1889 C 180.412 0.317487 -1.93006 0
M  V30 1890 O 181.618 0.579333 -2.65247 0
M  V30 1891 C 180.074 -1.98426 -3.00259 0
M  V30 1892 C 179.682 -3.484 -2.81641 0
M  V30 1893 C 181.426 -1.92993 -3.78092 0
M  V30 1894 C 179.333 -4.25464 -4.10773 0
M  V30 1895 H 178.263 -0.421351 -0.625283 0
M  V30 1896 H 180.914 -1.52085 -1.02676 0
M  V30 1897 H 179.296 -1.52736 -3.6536 0
M  V30 1898 H 180.47 -4.01973 -2.25287 0
M  V30 1899 H 178.785 -3.55245 -2.17232 0
M  V30 1900 H 181.382 -2.47844 -4.7379 0
M  V30 1901 H 181.725 -0.904281 -4.0636 0
M  V30 1902 H 182.258 -2.36595 -3.19793 0
M  V30 1903 H 178.997 -5.28566 -3.87683 0
M  V30 1904 H 178.517 -3.76667 -4.66779 0
M  V30 1905 H 180.196 -4.34812 -4.79111 0
M  V30 1906 N 180.328 1.1314 -1.09713 0
M  V30 1907 C 181.744 1.36477 -0.827423 0
M  V30 1908 C 181.944 1.93654 0.556817 0
M  V30 1909 O 181 2.15791 1.31112 0
M  V30 1910 C 182.313 2.31334 -1.92106 0
M  V30 1911 C 183.861 2.44943 -1.94864 0
M  V30 1912 C 184.336 3.4311 -3.0338 0
M  V30 1913 N 185.827 3.50662 -3.02639 0
M  V30 1914 C 186.562 4.2651 -3.83246 0
M  V30 1915 N 186.058 5.05485 -4.73768 0
M  V30 1916 N 187.851 4.2184 -3.71493 0
M  V30 1917 H 180.002 0.743807 -1.9895 0
M  V30 1918 H 182.265 0.389823 -0.864143 0
M  V30 1919 H 181.971 1.96483 -2.91698 0
M  V30 1920 H 181.845 3.31381 -1.80184 0
M  V30 1921 H 184.232 2.79079 -0.959099 0
M  V30 1922 H 184.313 1.4481 -2.10864 0
M  V30 1923 H 183.957 3.09704 -4.02549 0
M  V30 1924 H 183.887 4.43055 -2.84622 0
M  V30 1925 H 186.378 2.94315 -2.37039 0
M  V30 1926 H 186.691 5.60675 -5.3185 0
M  V30 1927 H 185.036 5.04708 -4.77802 0
M  V30 1928 H 188.227 3.5922 -3.00131 0
M  V30 1929 H 188.4 4.80697 -4.3455 0
M  V30 1930 N 181.806 0.884767 1.30421 0
M  V30 1931 C 182.769 0.356277 2.26414 0
M  V30 1932 C 183.769 -0.501124 1.52792 0
M  V30 1933 O 184.959 -0.30831 1.7145 0
M  V30 1934 C 182.091 -0.492316 3.37326 0
M  V30 1935 H 183.284 1.20389 2.74675 0
M  V30 1936 H 180.837 0.661607 1.41607 0
M  V30 1937 H 181.572 -1.36052 2.94381 0
M  V30 1938 H 181.357 0.121832 3.91911 0
M  V30 1939 H 182.847 -0.853871 4.08777 0
M  V30 1940 N 183.284 -1.43765 0.645699 0
M  V30 1941 C 184.194 -2.34544 -0.0512957 0
M  V30 1942 C 185.21 -1.53455 -0.82022 0
M  V30 1943 O 186.386 -1.86133 -0.769176 0
M  V30 1944 C 183.451 -3.31636 -1.01087 0
M  V30 1945 C 182.512 -4.2863 -0.239712 0
M  V30 1946 C 181.745 -5.21084 -1.15358 0
M  V30 1947 O 181.968 -5.1779 -2.39269 0
M  V30 1948 O 180.902 -5.98593 -0.630038 0
M  V30 1949 H 184.728 -2.95624 0.695718 0
M  V30 1950 H 182.313 -1.43781 0.405882 0
M  V30 1951 H 184.195 -3.9136 -1.56254 0
M  V30 1952 H 182.87 -2.73069 -1.73824 0
M  V30 1953 H 181.777 -3.72408 0.355356 0
M  V30 1954 H 183.11 -4.90157 0.447936 0
M  V30 1955 N 184.763 -0.387143 -1.52771 0
M  V30 1956 C 185.695 0.484089 -2.2403 0
M  V30 1957 C 186.708 1.02849 -1.26198 0
M  V30 1958 O 187.897 0.931186 -1.52286 0
M  V30 1959 C 184.997 1.68337 -2.94136 0
M  V30 1960 C 184.17 1.26672 -4.18656 0
M  V30 1961 C 183.229 2.33045 -4.7178 0
M  V30 1962 O 182.255 1.94541 -5.34923 0
M  V30 1963 N 183.457 3.64929 -4.5145 0
M  V30 1964 H 186.222 -0.126404 -2.99433 0
M  V30 1965 H 183.783 -0.213392 -1.60488 0
M  V30 1966 H 185.775 2.39019 -3.26577 0
M  V30 1967 H 184.345 2.20025 -2.22053 0
M  V30 1968 H 183.565 0.388878 -3.92277 0
M  V30 1969 H 184.853 0.964964 -4.99566 0
M  V30 1970 H 184.251 3.98974 -4.01044 0
M  V30 1971 H 182.808 4.31651 -4.88386 0
M  V30 1972 N 186.241 1.57166 -0.116904 0
M  V30 1973 C 187.487 1.95412 0.542405 0
M  V30 1974 C 187.82 1.00019 1.66463 0
M  V30 1975 O 187.095 0.0370346 1.94465 0
M  V30 1976 C 187.378 3.43615 1.07708 0
M  V30 1977 C 187.231 4.49781 -0.0415868 0
M  V30 1978 C 188.55 3.93616 1.96861 0
M  V30 1979 H 185.669 0.710543 0.195696 0
M  V30 1980 H 188.311 1.89027 -0.192038 0
M  V30 1981 H 186.461 3.49187 1.70296 0
M  V30 1982 H 188.133 4.56308 -0.676793 0
M  V30 1983 H 186.376 4.28033 -0.705019 0
M  V30 1984 H 187.047 5.50733 0.373717 0
M  V30 1985 H 189.523 3.90335 1.44146 0
M  V30 1986 H 188.399 4.97838 2.3119 0
M  V30 1987 H 188.66 3.34188 2.89432 0
M  V30 1988 N 187.719 -0.156864 1.56817 0
M  V30 1989 C 188.667 -1.21319 1.98455 0
M  V30 1990 C 189.661 -1.45025 0.875444 0
M  V30 1991 O 190.867 -1.45435 1.0606 0
M  V30 1992 H 187.242 -0.408142 0.631605 0
M  V30 1993 H 189.213 -0.835244 2.86472 0
M  V30 1994 C 187.962 -2.54148 2.37285 0
M  V30 1995 H 187.285 -2.36733 3.22176 0
M  V30 1996 H 188.725 -3.26712 2.70251 0
M  V30 1997 C 187.184 -3.13967 1.22173 0
M  V30 1998 O 187.714 -3.98357 0.517149 0
M  V30 1999 N 185.92 -2.7327 0.988536 0
M  V30 2000 H 185.467 -2.04744 1.56326 0
M  V30 2001 H 185.425 -3.13628 0.220209 0
M  V30 2002 N 189.197 -1.51736 -0.425897 0
M  V30 2003 C 190.144 -1.73875 -1.51776 0
M  V30 2004 C 191.114 -0.580702 -1.55618 0
M  V30 2005 O 192.299 -0.81641 -1.72451 0
M  V30 2006 C 189.439 -1.88012 -2.89388 0
M  V30 2007 C 188.552 -3.15606 -2.94986 0
M  V30 2008 C 187.687 -3.20271 -4.23793 0
M  V30 2009 C 186.726 -4.42134 -4.23302 0
M  V30 2010 N 185.863 -4.44284 -5.43651 0
M  V30 2011 H 190.703 -2.67071 -1.32201 0
M  V30 2012 H 188.24 -1.32351 -0.642008 0
M  V30 2013 H 190.198 -1.9419 -3.69251 0
M  V30 2014 H 188.828 -0.98213 -3.07496 0
M  V30 2015 H 187.88 -3.18681 -2.07717 0
M  V30 2016 H 189.192 -4.05486 -2.90486 0
M  V30 2017 H 188.346 -3.25428 -5.12036 0
M  V30 2018 H 187.085 -2.28299 -4.30965 0
M  V30 2019 H 186.09 -4.3714 -3.3345 0
M  V30 2020 H 187.315 -5.35382 -4.17783 0
M  V30 2021 H 185.261 -3.55188 -5.51523 0
M  V30 2022 H 185.178 -5.27988 -5.41078 0
M  V30 2023 H 186.446 -4.53649 -6.33895 0
M  V30 2024 N 190.675 0.682077 -1.42076 0
M  V30 2025 C 191.622 1.79578 -1.44984 0
M  V30 2026 C 192.592 1.6332 -0.302614 0
M  V30 2027 O 193.777 1.83978 -0.505633 0
M  V30 2028 C 190.917 3.1756 -1.35091 0
M  V30 2029 C 190.03 3.45156 -2.59791 0
M  V30 2030 C 189.165 4.72826 -2.42093 0
M  V30 2031 C 188.204 4.93433 -3.62202 0
M  V30 2032 N 187.341 6.12338 -3.43491 0
M  V30 2033 H 192.181 1.76427 -2.40161 0
M  V30 2034 H 189.718 0.861376 -1.19242 0
M  V30 2035 H 191.676 3.97287 -1.27354 0
M  V30 2036 H 190.306 3.19854 -0.435133 0
M  V30 2037 H 189.358 2.59736 -2.77923 0
M  V30 2038 H 190.67 3.5628 -3.49094 0
M  V30 2039 H 189.824 5.60631 -2.319 0
M  V30 2040 H 188.563 4.63973 -1.50268 0
M  V30 2041 H 187.568 4.04073 -3.72834 0
M  V30 2042 H 188.793 5.04136 -4.54998 0
M  V30 2043 H 186.739 6.04672 -2.54377 0
M  V30 2044 H 186.656 6.2429 -4.26377 0
M  V30 2045 H 187.924 7.02841 -3.37097 0
M  V30 2046 N 192.153 1.28127 0.917671 0
M  V30 2047 C 193.401 1.14825 1.66312 0
M  V30 2048 C 193.722 -0.304379 1.9261 0
M  V30 2049 O 192.992 -1.21149 1.53947 0
M  V30 2050 H 191.572 0.421953 0.616413 0
M  V30 2051 H 194.234 1.608 1.10134 0
M  V30 2052 H 193.33 1.68489 2.62712 0
M  V30 2053 N 193.631 -1.12557 1.10312 0
M  V30 2054 C 194.88 -1.83395 0.839588 0
M  V30 2055 C 195.193 -1.84939 -0.636929 0
M  V30 2056 O 196.399 -2.51761 -1.01631 0
M  V30 2057 C 194.855 -3.29303 1.45215 0
M  V30 2058 C 194.463 -3.36122 2.96186 0
M  V30 2059 C 196.207 -4.05121 1.26796 0
M  V30 2060 C 194.114 -4.76357 3.50483 0
M  V30 2061 H 193.044 -0.687133 0.310425 0
M  V30 2062 H 195.695 -1.26746 1.32694 0
M  V30 2063 H 194.077 -3.85812 0.892469 0
M  V30 2064 H 195.251 -2.89559 3.58458 0
M  V30 2065 H 193.566 -2.73776 3.13745 0
M  V30 2066 H 196.163 -5.08668 1.64806 0
M  V30 2067 H 196.506 -4.15773 0.209409 0
M  V30 2068 H 197.039 -3.54967 1.79563 0
M  V30 2069 H 193.778 -4.70899 4.55998 0
M  V30 2070 H 193.298 -5.23377 2.92978 0
M  V30 2071 H 194.977 -5.45294 3.48228 0
M  V30 2072 N 195.109 -0.891671 -1.2995 0
M  V30 2073 C 196.019 -0.367691 -2.31701 0
M  V30 2074 C 197.035 0.533486 -1.6562 0
M  V30 2075 O 198.211 0.424997 -1.96865 0
M  V30 2076 C 195.276 0.403406 -3.44345 0
M  V30 2077 C 194.337 -0.528328 -4.26037 0
M  V30 2078 C 193.57 0.206063 -5.33302 0
M  V30 2079 O 193.793 1.43119 -5.52153 0
M  V30 2080 O 192.727 -0.447281 -6.00236 0
M  V30 2081 H 196.553 -1.21163 -2.78484 0
M  V30 2082 H 194.138 -0.655725 -1.34241 0
M  V30 2083 H 196.02 0.839753 -4.12948 0
M  V30 2084 H 194.695 1.22354 -2.99685 0
M  V30 2085 H 193.602 -1.01362 -3.60106 0
M  V30 2086 H 194.935 -1.31465 -4.74318 0
M  V30 2087 N 196.587 1.43421 -0.653314 0
M  V30 2088 C 197.834 2.01812 -0.166745 0
M  V30 2089 C 198.162 1.51535 1.21931 0
M  V30 2090 O 197.417 0.698975 1.82792 0
M  V30 2091 C 197.716 3.57176 -0.126623 0
M  V30 2092 C 197.382 4.26798 -1.45444 0
M  V30 2093 C 196.044 4.45534 -1.81805 0
M  V30 2094 C 198.396 4.66225 -2.32989 0
M  V30 2095 C 195.724 5.00961 -3.05377 0
M  V30 2096 C 198.076 5.23021 -3.55853 0
M  V30 2097 C 196.74 5.39973 -3.9241 0
M  V30 2098 H 196.01 0.738484 -0.0610162 0
M  V30 2099 H 198.657 1.71896 -0.84404 0
M  V30 2100 H 196.962 3.86634 0.634123 0
M  V30 2101 H 198.659 4.00112 0.266723 0
M  V30 2102 H 195.249 4.12561 -1.16153 0
M  V30 2103 H 199.433 4.51443 -2.06187 0
M  V30 2104 H 194.689 5.12271 -3.3375 0
M  V30 2105 H 198.863 5.52518 -4.23907 0
M  V30 2106 H 196.49 5.82687 -4.88242 0
M  V30 2107 N 198.065 0.39524 1.52563 0
M  V30 2108 C 199.295 -0.184675 2.05773 0
M  V30 2109 C 199.703 -1.40571 1.26635 0
M  V30 2110 O 199.046 -1.81105 0.30769 0
M  V30 2111 C 199.108 -0.613551 3.54226 0
M  V30 2112 C 198.772 0.49484 4.54313 0
M  V30 2113 C 199.769 1.3541 5.01956 0
M  V30 2114 C 197.454 0.663565 4.97898 0
M  V30 2115 C 199.448 2.36716 5.91814 0
M  V30 2116 C 197.135 1.67996 5.87555 0
M  V30 2117 C 198.133 2.53017 6.34406 0
M  V30 2118 O 197.821 3.52917 7.22291 0
M  V30 2119 H 197.553 -0.030077 0.675331 0
M  V30 2120 H 200.107 0.560708 1.97599 0
M  V30 2121 H 198.337 -1.411 3.60038 0
M  V30 2122 H 200.026 -1.11981 3.90148 0
M  V30 2123 H 200.792 1.23509 4.6901 0
M  V30 2124 H 196.671 0.0114913 4.60999 0
M  V30 2125 H 200.215 3.03113 6.28306 0
M  V30 2126 H 196.112 1.79933 6.19915 0
M  V30 2127 H 196.88 3.48996 7.40367 0
M  V30 2128 N 199.544 -1.57102 0.125237 0
M  V30 2129 C 200.769 -2.0019 -0.542101 0
M  V30 2130 C 201.194 -1.00449 -1.59034 0
M  V30 2131 O 200.552 0.0229423 -1.81285 0
M  V30 2132 C 200.6 -3.42129 -1.13929 0
M  V30 2133 O 199.704 -3.45307 -2.2547 0
M  V30 2134 H 199.045 -0.650171 -0.134812 0
M  V30 2135 H 201.575 -2.03461 0.215553 0
M  V30 2136 H 201.585 -3.80471 -1.4733 0
M  V30 2137 H 200.26 -4.14237 -0.371531 0
M  V30 2138 H 198.837 -3.1879 -1.93462 0
M  V30 2139 N 201.022 0.148545 -1.56898 0
M  V30 2140 C 202.299 0.890019 -1.74178 0
M  V30 2141 C 202.679 1.99407 -0.692839 0
M  V30 2142 O 202.027 2.26671 0.288505 0
M  V30 2143 C 202.237 1.43389 -3.18183 0
M  V30 2144 C 203.585 1.89791 -3.79822 0
M  V30 2145 O 204.609 1.53134 -3.21603 0
M  V30 2146 O 203.468 2.57387 -4.82093 0
M  V30 2147 H 200.562 0.420496 -0.712118 0
M  V30 2148 H 203.108 0.134591 -1.69165 0
M  V30 2149 H 201.88 0.640383 -3.86024 0
M  V30 2150 H 201.503 2.25287 -3.27615 0
M  V30 2151 N 202.5 1.5196 0.417844 0
M  V30 2152 C 203.43 1.77634 1.51554 0
M  V30 2153 C 204.411 0.626918 1.58126 0
M  V30 2154 O 205.596 0.871632 1.7354 0
M  V30 2155 C 202.726 1.91911 2.8946 0
M  V30 2156 C 201.68 3.07463 2.97743 0
M  V30 2157 C 201.006 3.06951 4.37819 0
M  V30 2158 C 202.306 4.47082 2.70027 0
M  V30 2159 H 204 2.6955 1.3032 0
M  V30 2160 H 201.546 1.29706 0.625492 0
M  V30 2161 H 203.499 2.08455 3.6623 0
M  V30 2162 H 202.223 0.966598 3.11969 0
M  V30 2163 H 200.882 2.90656 2.23416 0
M  V30 2164 H 200.53 2.09438 4.57323 0
M  V30 2165 H 200.23 3.84556 4.44286 0
M  V30 2166 H 201.754 3.25613 5.16535 0
M  V30 2167 H 203.168 4.6414 3.36522 0
M  V30 2168 H 201.565 5.2654 2.87881 0
M  V30 2169 H 202.635 4.55777 1.65514 0
M  V30 2170 N 203.978 -0.674533 1.42435 0
M  V30 2171 C 205.227 -1.43034 1.42212 0
M  V30 2172 C 205.54 -1.95555 0.0420788 0
M  V30 2173 O 206.746 -2.71374 -0.0827558 0
M  V30 2174 C 205.202 -2.58748 2.50155 0
M  V30 2175 C 204.81 -2.12925 3.94166 0
M  V30 2176 C 206.554 -3.36257 2.59098 0
M  V30 2177 C 204.461 -3.25723 4.93618 0
M  V30 2178 H 203.391 -0.537345 0.528939 0
M  V30 2179 H 206.042 -0.73024 1.68344 0
M  V30 2180 H 204.424 -3.31128 2.17188 0
M  V30 2181 H 205.598 -1.47697 4.36488 0
M  V30 2182 H 203.913 -1.48354 3.89076 0
M  V30 2183 H 206.51 -4.20264 3.30578 0
M  V30 2184 H 206.853 -3.82866 1.63461 0
M  V30 2185 H 207.386 -2.70947 2.9126 0
M  V30 2186 H 204.125 -2.84105 5.90732 0
M  V30 2187 H 203.645 -3.89732 4.55926 0
M  V30 2188 H 205.324 -3.91186 5.15347 0
M  V30 2189 N 205.456 -1.28612 -0.910864 0
M  V30 2190 C 206.733 -1.06632 -1.63979 0
M  V30 2191 C 207.113 0.393351 -2.07403 0
M  V30 2192 O 206.461 1.37999 -1.82122 0
M  V30 2193 C 206.671 -2.0436 -2.8291 0
M  V30 2194 C 208.019 -2.34666 -3.5386 0
M  V30 2195 O 209.043 -2.02467 -2.93062 0
M  V30 2196 O 207.902 -2.89631 -4.63439 0
M  V30 2197 H 204.996 -0.407737 -0.7195 0
M  V30 2198 H 207.542 -1.39942 -0.959914 0
M  V30 2199 H 206.314 -3.02727 -2.47936 0
M  V30 2200 H 205.937 -1.71714 -3.58609 0
M  V30 2201 N 206.934 1.1197 -1.10907 0
M  V30 2202 C 207.897 2.16031 -0.765707 0
M  V30 2203 C 208.897 1.59393 0.212235 0
M  V30 2204 O 210.087 1.74196 -0.0115441 0
M  V30 2205 C 207.219 3.40632 -0.135053 0
M  V30 2206 H 208.412 2.47919 -1.68748 0
M  V30 2207 H 205.965 1.27061 -0.910226 0
M  V30 2208 H 206.7 3.14348 0.797218 0
M  V30 2209 H 206.485 3.8302 -0.838937 0
M  V30 2210 H 207.975 4.17505 0.0892469 0
M  V30 2211 N 208.412 0.89855 1.29475 0
M  V30 2212 C 209.342 0.39201 2.30186 0
M  V30 2213 C 210.323 -0.532359 1.61555 0
M  V30 2214 O 211.508 -0.443331 1.89072 0
M  V30 2215 C 208.638 -0.382353 3.45189 0
M  V30 2216 C 207.592 0.451483 4.25612 0
M  V30 2217 C 206.918 -0.450307 5.328 0
M  V30 2218 C 208.218 1.70079 4.93832 0
M  V30 2219 H 209.912 1.23362 2.72804 0
M  V30 2220 H 207.458 0.594638 1.31149 0
M  V30 2221 H 209.411 -0.747451 4.14718 0
M  V30 2222 H 208.135 -1.25774 3.01411 0
M  V30 2223 H 206.794 0.798897 3.57789 0
M  V30 2224 H 206.442 -1.32379 4.85268 0
M  V30 2225 H 206.142 0.103902 5.87508 0
M  V30 2226 H 207.666 -0.811623 6.05182 0
M  V30 2227 H 209.08 1.40549 5.55805 0
M  V30 2228 H 207.477 2.19623 5.58467 0
M  V30 2229 H 208.547 2.43744 4.19186 0
M  V30 2230 N 209.89 -1.43072 0.660911 0
M  V30 2231 C 210.82 -2.33497 -0.0122829 0
M  V30 2232 C 211.801 -1.49903 -0.803925 0
M  V30 2233 O 212.986 -1.78546 -0.763864 0
M  V30 2234 C 210.116 -3.33363 -0.973994 0
M  V30 2235 C 209.07 -4.27003 -0.291928 0
M  V30 2236 C 208.396 -5.16967 -1.36562 0
M  V30 2237 C 209.696 -5.15816 0.820462 0
M  V30 2238 H 211.39 -2.90038 0.742873 0
M  V30 2239 H 208.936 -1.39461 0.358688 0
M  V30 2240 H 210.889 -3.95524 -1.45392 0
M  V30 2241 H 209.613 -2.75095 -1.7604 0
M  V30 2242 H 208.272 -3.66217 0.167623 0
M  V30 2243 H 207.92 -4.55034 -2.14366 0
M  V30 2244 H 207.62 -5.80441 -0.914454 0
M  V30 2245 H 209.144 -5.82003 -1.84675 0
M  V30 2246 H 210.558 -5.71742 0.422366 0
M  V30 2247 H 208.955 -5.8805 1.19656 0
M  V30 2248 H 210.025 -4.55045 1.67518 0
M  V30 2249 N 211.368 -0.403325 -1.52352 0
M  V30 2250 C 212.593 0.176499 -2.06648 0
M  V30 2251 C 213.018 1.38577 -1.27193 0
M  V30 2252 O 212.376 1.7879 -0.300637 0
M  V30 2253 C 212.424 0.511061 -3.5696 0
M  V30 2254 O 211.528 1.60294 -3.79973 0
M  V30 2255 H 210.869 0.0167337 -0.663789 0
M  V30 2256 H 213.399 -0.574848 -1.96359 0
M  V30 2257 H 213.409 0.771362 -4.00642 0
M  V30 2258 H 212.084 -0.37296 -4.14224 0
M  V30 2259 H 210.661 1.33526 -3.48174 0
M  V30 2260 N 212.846 1.57033 -0.133567 0
M  V30 2261 C 214.071 2.00475 0.531477 0
M  V30 2262 C 214.496 1.01291 1.58499 0
M  V30 2263 O 213.854 -0.0133279 1.81295 0
M  V30 2264 C 213.902 3.42729 1.12113 0
M  V30 2265 O 213.006 3.46498 2.23636 0
M  V30 2266 H 212.347 0.650876 0.131362 0
M  V30 2267 H 214.877 2.03344 -0.22634 0
M  V30 2268 H 214.887 3.81246 1.4531 0
M  V30 2269 H 213.562 4.14428 0.349557 0
M  V30 2270 H 212.139 3.19811 1.91769 0
M  V30 2271 N 214.325 -0.140222 1.56975 0
M  V30 2272 C 215.273 -1.19207 1.99731 0
M  V30 2273 C 216.267 -1.44089 0.890777 0
M  V30 2274 O 217.473 -1.44301 1.07597 0
M  V30 2275 H 213.848 -0.40142 0.635898 0
M  V30 2276 H 215.819 -0.804813 2.87342 0
M  V30 2277 C 214.568 -2.51617 2.39967 0
M  V30 2278 H 213.891 -2.33303 3.24669 0
M  V30 2279 H 215.331 -3.23827 2.73701 0
M  V30 2280 C 213.79 -3.12654 1.25496 0
M  V30 2281 O 214.32 -3.97786 0.559371 0
M  V30 2282 N 212.526 -2.72206 1.01746 0
M  V30 2283 H 212.073 -2.03074 1.58489 0
M  V30 2284 H 212.031 -3.13377 0.253461 0
M  V30 2285 N 215.803 -1.52179 -0.40978 0
M  V30 2286 C 217.052 -1.65434 -1.15388 0
M  V30 2287 C 217.365 -0.390056 -1.91671 0
M  V30 2288 O 218.571 -0.402399 -2.68501 0
M  V30 2289 C 217.027 -2.92279 -2.10003 0
M  V30 2290 C 216.635 -4.25813 -1.39239 0
M  V30 2291 C 218.379 -3.14897 -2.84675 0
M  V30 2292 C 216.286 -5.43782 -2.32498 0
M  V30 2293 H 215.216 -0.616267 -0.434432 0
M  V30 2294 H 217.867 -1.78666 -0.418401 0
M  V30 2295 H 216.249 -2.72744 -2.871 0
M  V30 2296 H 217.423 -4.55828 -0.675099 0
M  V30 2297 H 215.738 -4.09292 -0.766097 0
M  V30 2298 H 218.335 -4.0021 -3.54593 0
M  V30 2299 H 218.678 -2.29103 -3.47588 0
M  V30 2300 H 219.211 -3.34901 -2.14677 0
M  V30 2301 H 215.95 -6.3192 -1.74233 0
M  V30 2302 H 215.47 -5.18106 -3.02201 0
M  V30 2303 H 217.149 -5.76834 -2.93038 0
M  V30 2304 N 217.281 0.66697 -1.42791 0
M  V30 2305 C 218.509 1.45505 -1.47091 0
M  V30 2306 C 218.924 1.8861 -0.0845873 0
M  V30 2307 O 218.281 1.58632 0.90234 0
M  V30 2308 C 218.332 2.69906 -2.40485 0
M  V30 2309 O 218.053 2.28608 -3.73725 0
M  V30 2310 C 219.554 3.63396 -2.53886 0
M  V30 2311 H 216.774 0.447459 -0.500022 0
M  V30 2312 H 219.318 0.818866 -1.8739 0
M  V30 2313 H 217.473 3.29696 -2.03419 0
M  V30 2314 H 217.887 3.08997 -4.23817 0
M  V30 2315 H 219.361 4.47387 -3.2334 0
M  V30 2316 H 219.838 4.09824 -1.57927 0
M  V30 2317 H 220.444 3.09495 -2.91706 0
M  V30 2318 N 218.759 1.29093 0.90403 0
M  V30 2319 C 220.17 1.15186 1.46932 0
M  V30 2320 C 220.521 -0.254587 1.94541 0
M  V30 2321 O 219.646 -1.14972 1.83332 0
M  V30 2322 C 220.241 2.08492 2.67051 0
M  V30 2323 C 218.8 1.98621 3.19729 0
M  V30 2324 C 217.947 1.9967 1.92425 0
M  V30 2325 H 220.898 1.41641 0.715789 0
M  V30 2326 H 220.919 1.65461 3.42641 0
M  V30 2327 H 220.431 3.10847 2.3237 0
M  V30 2328 H 218.532 0.993389 3.59114 0
M  V30 2329 H 218.645 2.86068 3.8432 0
M  V30 2330 H 217.009 1.44208 2.09943 0
M  V30 2331 H 217.792 3.03721 1.60026 0
M  V30 2332 N 220.237 -1.11381 1.11499 0
M  V30 2333 C 221.486 -1.82494 0.858993 0
M  V30 2334 C 221.799 -1.85605 -0.617278 0
M  V30 2335 O 223.005 -2.52824 -0.989552 0
M  V30 2336 C 221.461 -3.27745 1.48699 0
M  V30 2337 C 221.069 -3.32961 2.99735 0
M  V30 2338 C 222.813 -4.03754 1.31085 0
M  V30 2339 C 220.72 -4.72612 3.55516 0
M  V30 2340 H 219.65 -0.683802 0.317696 0
M  V30 2341 H 222.301 -1.25331 1.34031 0
M  V30 2342 H 220.683 -3.84844 0.933339 0
M  V30 2343 H 221.857 -2.85741 3.61509 0
M  V30 2344 H 220.172 -2.70433 3.16631 0
M  V30 2345 H 222.769 -5.06891 1.70192 0
M  V30 2346 H 223.112 -4.15527 0.253496 0
M  V30 2347 H 223.645 -3.53043 1.83318 0
M  V30 2348 H 220.384 -4.66036 4.60967 0
M  V30 2349 H 219.904 -5.2024 2.98513 0
M  V30 2350 H 221.583 -5.4157 3.53992 0
M  V30 2351 N 221.715 -0.905404 -1.28997 0
M  V30 2352 C 222.961 -0.535039 -1.95615 0
M  V30 2353 C 223.294 0.917404 -1.71165 0
M  V30 2354 O 222.569 1.65123 -1.02785 0
M  V30 2355 C 222.852 -0.834918 -3.50287 0
M  V30 2356 C 222.705 -2.33948 -3.84172 0
M  V30 2357 C 224.024 -0.325318 -4.38896 0
M  V30 2358 H 221.143 -0.195861 -0.710498 0
M  V30 2359 H 223.785 -1.13313 -1.52513 0
M  V30 2360 H 221.935 -0.325904 -3.87131 0
M  V30 2361 H 223.607 -2.91847 -3.57243 0
M  V30 2362 H 221.85 -2.79789 -3.31513 0
M  V30 2363 H 222.521 -2.49987 -4.92149 0
M  V30 2364 H 224.997 -0.761256 -4.09077 0
M  V30 2365 H 223.873 -0.564295 -5.45992 0
M  V30 2366 H 224.134 0.774144 -4.35269 0
M  V30 2367 N 223.193 1.4272 -0.668489 0
M  V30 2368 C 224.421 2.05966 -0.196348 0
M  V30 2369 C 224.836 1.50191 1.14403 0
M  V30 2370 O 224.193 0.639208 1.7094 0
M  V30 2371 C 224.244 3.61314 -0.115815 0
M  V30 2372 O 223.965 4.1502 -1.40322 0
M  V30 2373 C 225.466 4.41663 0.380579 0
M  V30 2374 H 222.686 0.663954 -0.0969829 0
M  V30 2375 H 225.23 1.82966 -0.913446 0
M  V30 2376 H 223.385 3.83448 0.551931 0
M  V30 2377 H 223.799 5.08832 -1.27243 0
M  V30 2378 H 225.273 5.5065 0.385848 0
M  V30 2379 H 225.75 4.15792 1.41471 0
M  V30 2380 H 226.356 4.24534 -0.255209 0
M  V30 2381 N 224.671 0.411399 1.52136 0
M  V30 2382 C 225.601 -0.404015 2.29978 0
M  V30 2383 C 226.582 -1.04412 1.34284 0
M  V30 2384 O 227.767 -1.0527 1.63192 0
M  V30 2385 C 224.897 -1.5197 3.12286 0
M  V30 2386 C 223.851 -1.00448 4.16046 0
M  V30 2387 C 223.177 -2.21393 4.86712 0
M  V30 2388 C 224.477 -0.0569336 5.22269 0
M  V30 2389 H 226.171 0.245529 2.98392 0
M  V30 2390 H 223.717 0.119525 1.43503 0
M  V30 2391 H 225.67 -2.09715 3.6551 0
M  V30 2392 H 224.394 -2.19716 2.41646 0
M  V30 2393 H 223.053 -0.449421 3.63835 0
M  V30 2394 H 222.701 -2.87699 4.12599 0
M  V30 2395 H 222.401 -1.87571 5.56858 0
M  V30 2396 H 223.925 -2.7974 5.4275 0
M  V30 2397 H 225.339 -0.54325 5.7072 0
M  V30 2398 H 223.736 0.192594 5.99791 0
M  V30 2399 H 224.806 0.887663 4.76706 0
M  V30 2400 N 226.149 -1.5696 0.141893 0
M  V30 2401 C 227.099 -2.13074 -0.811383 0
M  V30 2402 C 228.083 -1.05726 -1.21288 0
M  V30 2403 O 229.275 -1.31914 -1.18015 0
M  V30 2404 C 226.404 -2.75186 -2.0525 0
M  V30 2405 C 225.49 -3.8965 -1.67432 0
M  V30 2406 N 225.881 -4.95733 -1.0041 0
M  V30 2407 C 224.179 -4.00262 -1.96739 0
M  V30 2408 C 224.88 -5.75858 -0.822345 0
M  V30 2409 N 223.856 -5.26452 -1.3546 0
M  V30 2410 H 227.658 -2.92465 -0.290031 0
M  V30 2411 H 225.172 -1.6229 -0.0598218 0
M  V30 2412 H 227.169 -3.13745 -2.74535 0
M  V30 2413 H 225.829 -1.97266 -2.57907 0
M  V30 2414 H 226.84 -5.13607 -0.665441 0
M  V30 2415 H 223.517 -3.33412 -2.51282 0
M  V30 2416 H 224.907 -6.71254 -0.294496 0
M  V30 2417 N 227.627 0.131896 -1.57047 0
M  V30 2418 C 228.577 1.1679 -1.95816 0
M  V30 2419 C 229.561 1.37756 -0.831393 0
M  V30 2420 O 230.753 1.39065 -1.09499 0
M  V30 2421 C 227.882 2.49778 -2.35512 0
M  V30 2422 C 226.968 2.32342 -3.54793 0
M  V30 2423 N 227.359 1.8469 -4.70875 0
M  V30 2424 C 225.657 2.63043 -3.60173 0
M  V30 2425 C 226.358 1.80656 -5.52936 0
M  V30 2426 N 225.334 2.24528 -4.95064 0
M  V30 2427 H 229.136 0.791818 -2.83033 0
M  V30 2428 H 226.65 0.339791 -1.58805 0
M  V30 2429 H 228.647 3.24692 -2.61498 0
M  V30 2430 H 227.307 2.88156 -1.49654 0
M  V30 2431 H 228.318 1.54429 -4.9434 0
M  V30 2432 H 224.995 3.05193 -2.84892 0
M  V30 2433 H 226.385 1.45178 -6.56028 0
M  V30 2434 N 229.106 1.52395 0.401703 0
M  V30 2435 C 230.352 1.68019 1.14635 0
M  V30 2436 C 230.707 0.408722 1.88009 0
M  V30 2437 O 230 -0.597133 1.82057 0
M  V30 2438 C 230.194 2.84578 2.16217 0
M  V30 2439 C 230.023 4.22938 1.5282 0
M  V30 2440 C 228.793 4.88352 1.29772 0
M  V30 2441 C 230.991 5.04778 0.985094 0
M  V30 2442 N 228.973 6.10726 0.623455 0
M  V30 2443 C 230.344 6.1845 0.438172 0
M  V30 2444 C 232.399 4.90057 0.880275 0
M  V30 2445 C 231.102 7.19013 -0.203306 0
M  V30 2446 C 233.128 5.9086 0.252639 0
M  V30 2447 C 232.49 7.03829 -0.283573 0
M  V30 2448 H 228.589 0.668413 0.405892 0
M  V30 2449 H 231.173 1.89717 0.437674 0
M  V30 2450 H 229.344 2.64483 2.84435 0
M  V30 2451 H 231.076 2.89202 2.83098 0
M  V30 2452 H 227.831 4.46846 1.56926 0
M  V30 2453 H 228.255 6.76323 0.302733 0
M  V30 2454 H 232.897 4.02938 1.28065 0
M  V30 2455 H 230.615 8.05751 -0.615726 0
M  V30 2456 H 234.201 5.81543 0.172954 0
M  V30 2457 H 233.081 7.80493 -0.761575 0
M  V30 2458 N 230.584 -0.659388 1.43143 0
M  V30 2459 C 231.861 -1.41627 1.34912 0
M  V30 2460 C 232.241 -2.11099 -0.00607785 0
M  V30 2461 O 231.589 -2.04353 -1.02236 0
M  V30 2462 C 231.799 -2.40604 2.52805 0
M  V30 2463 C 233.147 -3.04789 2.95616 0
M  V30 2464 O 234.171 -2.50932 2.52807 0
M  V30 2465 O 233.03 -4.02421 3.69756 0
M  V30 2466 H 230.124 -0.63246 0.532844 0
M  V30 2467 H 232.67 -0.686814 1.5518 0
M  V30 2468 H 231.442 -1.88174 3.43083 0
M  V30 2469 H 231.065 -3.21009 2.34604 0
M  V30 2470 N 232.062 -1.29571 -0.897171 0
M  V30 2471 C 232.992 -1.17473 -2.01798 0
M  V30 2472 C 233.973 -0.068323 -1.69963 0
M  V30 2473 O 235.158 -0.248239 -1.92607 0
M  V30 2474 C 232.288 -0.853099 -3.36659 0
M  V30 2475 C 231.242 -1.9161 -3.82713 0
M  V30 2476 C 230.568 -1.44773 -5.14728 0
M  V30 2477 C 231.868 -3.32535 -4.02763 0
M  V30 2478 H 233.562 -2.11237 -2.12177 0
M  V30 2479 H 231.108 -1.01699 -1.01948 0
M  V30 2480 H 233.061 -0.755165 -4.14578 0
M  V30 2481 H 231.785 0.120236 -3.26379 0
M  V30 2482 H 230.444 -2.00346 -3.07013 0
M  V30 2483 H 230.092 -0.462995 -5.00865 0
M  V30 2484 H 229.792 -2.15865 -5.46513 0
M  V30 2485 H 231.316 -1.36334 -5.95185 0
M  V30 2486 H 232.73 -3.26626 -4.71156 0
M  V30 2487 H 231.127 -4.01607 -4.45905 0
M  V30 2488 H 232.197 -3.75326 -3.07016 0
M  V30 2489 N 233.54 1.10788 -1.12088 0
M  V30 2490 C 234.951 1.64181 -0.88891 0
M  V30 2491 C 235.302 1.87508 0.577498 0
M  V30 2492 O 234.427 1.61434 1.44112 0
M  V30 2493 C 235.022 2.98257 -1.60712 0
M  V30 2494 C 233.581 3.4853 -1.42139 0
M  V30 2495 C 232.728 2.23208 -1.6454 0
M  V30 2496 H 235.679 0.943368 -1.27618 0
M  V30 2497 H 235.7 3.65552 -1.05604 0
M  V30 2498 H 235.212 2.81246 -2.67436 0
M  V30 2499 H 233.313 3.70692 -0.376552 0
M  V30 2500 H 233.426 4.26882 -2.17505 0
M  V30 2501 H 231.79 2.31169 -1.06925 0
M  V30 2502 H 232.573 2.08733 -2.72554 0
M  V30 2503 N 235.018 0.912232 1.28515 0
M  V30 2504 C 235.95 0.35676 2.26406 0
M  V30 2505 C 236.963 -0.503933 1.54804 0
M  V30 2506 O 238.152 -0.319059 1.75625 0
M  V30 2507 C 235.252 -0.508825 3.35058 0
M  V30 2508 C 234.425 0.329007 4.36161 0
M  V30 2509 C 233.484 -0.471422 5.24084 0
M  V30 2510 O 232.51 0.115482 5.69083 0
M  V30 2511 N 233.712 -1.77479 5.52704 0
M  V30 2512 H 236.477 1.19818 2.74707 0
M  V30 2513 H 234.038 0.778022 1.4198 0
M  V30 2514 H 236.03 -1.051 3.90815 0
M  V30 2515 H 234.6 -1.25095 2.86478 0
M  V30 2516 H 233.82 1.05256 3.79888 0
M  V30 2517 H 235.108 0.90234 5.00735 0
M  V30 2518 H 234.506 -2.27417 5.17975 0
M  V30 2519 H 233.063 -2.26382 6.11224 0
M  V30 2520 N 236.496 -1.42363 0.676048 0
M  V30 2521 C 237.426 -2.33497 0.0124832 0
M  V30 2522 C 238.407 -1.50748 -0.787981 0
M  V30 2523 O 239.592 -1.79346 -0.744884 0
M  V30 2524 C 236.722 -3.34377 -0.938582 0
M  V30 2525 C 235.676 -4.27289 -0.246622 0
M  V30 2526 C 235.002 -5.18386 -1.31071 0
M  V30 2527 C 236.302 -5.14916 0.875125 0
M  V30 2528 H 237.996 -2.89233 0.773593 0
M  V30 2529 H 235.542 -1.39073 0.37346 0
M  V30 2530 H 237.495 -3.97044 -1.41188 0
M  V30 2531 H 236.219 -2.76947 -1.73113 0
M  V30 2532 H 234.878 -3.66018 0.206456 0
M  V30 2533 H 234.526 -4.57282 -2.09528 0
M  V30 2534 H 234.226 -5.81378 -0.852839 0
M  V30 2535 H 235.75 -5.83929 -1.78492 0
M  V30 2536 H 237.164 -5.71262 0.482983 0
M  V30 2537 H 235.561 -5.86747 1.25887 0
M  V30 2538 H 236.631 -4.53242 1.72335 0
M  V30 2539 N 237.974 -0.419461 -1.51915 0
M  V30 2540 C 238.904 0.391813 -2.30189 0
M  V30 2541 C 239.885 1.03699 -1.34836 0
M  V30 2542 O 241.07 1.04403 -1.63748 0
M  V30 2543 C 238.2 1.50312 -3.13087 0
M  V30 2544 C 237.154 0.9824 -4.16573 0
M  V30 2545 C 236.48 2.18809 -4.8788 0
M  V30 2546 C 237.78 0.0292356 -5.22292 0
M  V30 2547 H 239.474 -0.26135 -2.98257 0
M  V30 2548 H 237.02 -0.127134 -1.43438 0
M  V30 2549 H 238.973 2.07773 -3.66617 0
M  V30 2550 H 237.697 2.18431 -2.42807 0
M  V30 2551 H 236.356 0.430119 -3.64068 0
M  V30 2552 H 236.004 2.85507 -4.14119 0
M  V30 2553 H 235.704 1.84615 -5.57845 0
M  V30 2554 H 237.228 2.76858 -5.44226 0
M  V30 2555 H 238.642 0.512976 -5.71 0
M  V30 2556 H 237.039 -0.2244 -5.9968 0
M  V30 2557 H 238.109 -0.912931 -4.76228 0
M  V30 2558 N 239.452 1.56882 -0.150215 0
M  V30 2559 C 240.384 2.14057 0.819286 0
M  V30 2560 C 241.397 1.09082 1.20851 0
M  V30 2561 O 242.586 1.36347 1.15203 0
M  V30 2562 C 239.686 2.65102 2.11127 0
M  V30 2563 C 238.859 3.94511 1.88891 0
M  V30 2564 C 237.918 4.30834 3.02107 0
M  V30 2565 O 236.944 4.99099 2.73659 0
M  V30 2566 N 238.146 3.90676 4.29363 0
M  V30 2567 H 240.911 2.97871 0.330618 0
M  V30 2568 H 238.472 1.61866 0.0332538 0
M  V30 2569 H 240.464 2.86411 2.85921 0
M  V30 2570 H 239.034 1.85994 2.51247 0
M  V30 2571 H 238.254 3.81795 0.981152 0
M  V30 2572 H 239.542 4.7907 1.71376 0
M  V30 2573 H 238.94 3.35677 4.55343 0
M  V30 2574 H 237.497 4.1703 5.00928 0
M  V30 2575 N 240.93 -0.123565 1.57115 0
M  V30 2576 C 242.176 -0.833386 1.84885 0
M  V30 2577 C 242.509 -1.79742 0.735292 0
M  V30 2578 O 241.784 -1.92764 -0.25925 0
M  V30 2579 C 242.067 -1.5873 3.23228 0
M  V30 2580 C 241.92 -0.643183 4.45178 0
M  V30 2581 C 243.239 -2.54453 3.59085 0
M  V30 2582 H 240.358 -0.301518 0.6725 0
M  V30 2583 H 243 -0.097778 1.89748 0
M  V30 2584 H 241.15 -2.21438 3.19214 0
M  V30 2585 H 242.822 -0.0253015 4.61293 0
M  V30 2586 H 241.065 0.0456139 4.33776 0
M  V30 2587 H 241.736 -1.20724 5.38637 0
M  V30 2588 H 244.212 -2.01853 3.63861 0
M  V30 2589 H 243.088 -3.04238 4.5687 0
M  V30 2590 H 243.349 -3.36906 2.86264 0
M  V30 2591 N 242.408 -1.52605 -0.393616 0
M  V30 2592 C 243.355 -1.77055 -1.48054 0
M  V30 2593 C 244.325 -0.61358 -1.54352 0
M  V30 2594 O 245.51 -0.852806 -1.70681 0
M  V30 2595 C 242.65 -1.94108 -2.85335 0
M  V30 2596 C 241.763 -3.21792 -2.88226 0
M  V30 2597 C 240.898 -3.29188 -4.16904 0
M  V30 2598 C 239.937 -4.51013 -4.13828 0
M  V30 2599 N 239.074 -4.55716 -5.34105 0
M  V30 2600 H 243.914 -2.69815 -1.26506 0
M  V30 2601 H 241.451 -1.33683 -0.61379 0
M  V30 2602 H 243.409 -2.01979 -3.65049 0
M  V30 2603 H 242.039 -1.04713 -3.05344 0
M  V30 2604 H 241.091 -3.23015 -2.00911 0
M  V30 2605 H 242.403 -4.11557 -2.8182 0
M  V30 2606 H 241.557 -3.36216 -5.05018 0
M  V30 2607 H 240.296 -2.37389 -4.26026 0
M  V30 2608 H 239.301 -4.44115 -3.24102 0
M  V30 2609 H 240.526 -5.44123 -4.06333 0
M  V30 2610 H 238.472 -3.66807 -5.43865 0
M  V30 2611 H 238.389 -5.39346 -5.29756 0
M  V30 2612 H 239.657 -4.66993 -6.2413 0
M  V30 2613 N 243.887 0.651787 -1.4349 0
M  V30 2614 C 245.117 1.43728 -1.48411 0
M  V30 2615 C 245.525 1.8893 -0.10103 0
M  V30 2616 O 244.868 1.60182 0.899307 0
M  V30 2617 C 244.93 2.70411 -2.36893 0
M  V30 2618 C 244.594 2.4714 -3.8441 0
M  V30 2619 C 245.591 2.10271 -4.75481 0
M  V30 2620 C 243.276 2.6142 -4.28912 0
M  V30 2621 C 245.27 1.87982 -6.0905 0
M  V30 2622 C 242.957 2.38746 -5.62533 0
M  V30 2623 C 243.955 2.02083 -6.5242 0
M  V30 2624 O 243.643 1.79647 -7.8357 0
M  V30 2625 H 243.375 0.447962 -0.506267 0
M  V30 2626 H 245.929 0.80624 -1.88915 0
M  V30 2627 H 244.159 3.36079 -1.91278 0
M  V30 2628 H 245.848 3.32364 -2.33 0
M  V30 2629 H 246.614 1.98814 -4.42378 0
M  V30 2630 H 242.493 2.88931 -3.59222 0
M  V30 2631 H 246.037 1.5929 -6.7917 0
M  V30 2632 H 241.934 2.49806 -5.95203 0
M  V30 2633 H 242.702 1.9406 -7.95162 0
M  V30 2634 N 245.365 1.30045 0.890287 0
M  V30 2635 C 246.613 1.18327 1.63839 0
M  V30 2636 C 246.934 -0.263455 1.93212 0
M  V30 2637 O 246.204 -1.17856 1.56482 0
M  V30 2638 H 244.784 0.434933 0.607324 0
M  V30 2639 H 247.446 1.631 1.06698 0
M  V30 2640 H 246.542 1.74024 2.59079 0
M  V30 2641 N 246.843 -1.10192 1.12674 0
M  V30 2642 C 248.091 -1.81845 0.881861 0
M  V30 2643 C 248.412 -1.85737 -0.593867 0
M  V30 2644 O 247.682 -1.33724 -1.4316 0
M  V30 2645 H 246.262 -0.673432 0.323261 0
M  V30 2646 H 248.924 -1.33316 1.42172 0
M  V30 2647 H 248.02 -2.85288 1.2656 0
M  V30 2648 N 248.321 -0.919034 -1.28029 0
M  V30 2649 C 249.567 -0.565221 -1.95389 0
M  V30 2650 C 249.922 0.882325 -1.70976 0
M  V30 2651 O 249.215 1.61988 -1.02325 0
M  V30 2652 C 249.409 -0.816855 -3.4794 0
M  V30 2653 C 249.238 -2.28731 -3.87185 0
M  V30 2654 C 248.008 -2.93841 -4.11079 0
M  V30 2655 C 250.206 -3.26415 -3.97439 0
M  V30 2656 N 248.188 -4.31129 -4.37037 0
M  V30 2657 C 249.559 -4.48884 -4.27672 0
M  V30 2658 C 251.614 -3.21742 -3.79982 0
M  V30 2659 C 250.317 -5.67268 -4.42266 0
M  V30 2660 C 252.343 -4.39431 -3.95796 0
M  V30 2661 C 251.705 -5.60675 -4.26407 0
M  V30 2662 H 247.804 -0.256797 -0.738633 0
M  V30 2663 H 250.388 -1.18386 -1.54573 0
M  V30 2664 H 248.559 -0.227445 -3.87733 0
M  V30 2665 H 250.291 -0.426542 -4.02446 0
M  V30 2666 H 247.046 -2.44547 -4.05578 0
M  V30 2667 H 247.47 -5.02127 -4.5409 0
M  V30 2668 H 252.112 -2.29079 -3.55363 0
M  V30 2669 H 249.83 -6.60406 -4.65714 0
M  V30 2670 H 253.416 -4.37323 -3.83719 0
M  V30 2671 H 252.296 -6.50223 -4.38383 0
M  V30 2672 N 249.799 1.42003 -0.683588 0
M  V30 2673 C 250.731 2.29183 0.0283068 0
M  V30 2674 C 251.744 1.4415 0.756611 0
M  V30 2675 O 252.933 1.67779 0.609306 0
M  V30 2676 C 250.033 3.21765 1.06398 0
M  V30 2677 C 249.206 4.35496 0.407723 0
M  V30 2678 C 248.265 5.08737 1.34437 0
M  V30 2679 O 247.291 5.62948 0.841318 0
M  V30 2680 N 248.493 5.15075 2.67728 0
M  V30 2681 H 251.258 2.9092 -0.720105 0
M  V30 2682 H 248.819 1.53025 -0.528682 0
M  V30 2683 H 250.811 3.6763 1.69204 0
M  V30 2684 H 249.381 2.61418 1.71404 0
M  V30 2685 H 248.601 3.92165 -0.400012 0
M  V30 2686 H 249.889 5.08776 -0.0490956 0
M  V30 2687 H 249.287 4.72457 3.11129 0
M  V30 2688 H 247.844 5.64556 3.2576 0
M  V30 2689 N 251.277 0.427512 1.51691 0
M  V30 2690 C 252.225 -0.403359 2.29076 0
M  V30 2691 C 253.219 -1.02962 1.34518 0
M  V30 2692 O 254.425 -0.965715 1.51901 0
M  V30 2693 H 250.8 -0.148879 0.737115 0
M  V30 2694 H 252.771 0.270295 2.97173 0
M  V30 2695 C 251.52 -1.49763 3.13794 0
M  V30 2696 H 250.843 -1.02508 3.86435 0
M  V30 2697 H 252.283 -2.05244 3.71014 0
M  V30 2698 C 250.742 -2.47536 2.28533 0
M  V30 2699 O 251.272 -3.51848 1.93819 0
M  V30 2700 N 249.478 -2.18187 1.91945 0
M  V30 2701 H 249.025 -1.33389 2.20375 0
M  V30 2702 H 248.983 -2.83848 1.35195 0
M  V30 2703 N 252.755 -1.56801 0.158532 0
M  V30 2704 C 254.001 -1.96781 -0.490405 0
M  V30 2705 C 254.334 -1.04397 -1.63753 0
M  V30 2706 O 253.609 -0.0885805 -1.94298 0
M  V30 2707 C 253.892 -3.4635 -0.985594 0
M  V30 2708 C 253.745 -4.49512 0.160824 0
M  V30 2709 C 255.064 -3.98697 -1.86355 0
M  V30 2710 H 252.183 -0.715482 -0.176788 0
M  V30 2711 H 254.825 -1.88451 0.242088 0
M  V30 2712 H 252.975 -3.53579 -1.60978 0
M  V30 2713 H 254.647 -4.54353 0.797537 0
M  V30 2714 H 252.89 -4.26013 0.818256 0
M  V30 2715 H 253.561 -5.51531 -0.227569 0
M  V30 2716 H 256.037 -3.94019 -1.33746 0
M  V30 2717 H 254.913 -5.03792 -2.17909 0
M  V30 2718 H 255.174 -3.41744 -2.8047 0
M  V30 2719 N 254.233 0.115231 -1.57178 0
M  V30 2720 C 255.458 0.840354 -1.89612 0
M  V30 2721 C 255.883 1.72464 -0.750845 0
M  V30 2722 O 255.241 1.78826 0.298478 0
M  V30 2723 C 255.289 1.64654 -3.20814 0
M  V30 2724 O 254.393 2.7538 -3.06985 0
M  V30 2725 H 253.734 0.232158 -0.622092 0
M  V30 2726 H 256.264 0.0964977 -2.04372 0
M  V30 2727 H 256.274 2.03499 -3.53627 0
M  V30 2728 H 254.949 0.997416 -4.03763 0
M  V30 2729 H 253.526 2.3971 -2.85646 0
M  V30 2730 N 255.711 1.52812 0.385517 0
M  V30 2731 C 256.644 1.72592 1.49289 0
M  V30 2732 C 257.622 0.573819 1.52138 0
M  V30 2733 O 258.806 0.80404 1.70492 0
M  V30 2734 C 255.933 1.78669 2.87741 0
M  V30 2735 C 254.979 3.00455 3.02703 0
M  V30 2736 S 255.812 4.60366 2.73538 0
M  V30 2737 C 256.968 4.69263 4.14177 0
M  V30 2738 H 257.201 2.66248 1.32285 0
M  V30 2739 H 254.734 1.43148 0.578611 0
M  V30 2740 H 256.692 1.82855 3.67524 0
M  V30 2741 H 255.353 0.861 3.02069 0
M  V30 2742 H 254.546 3.01258 4.04054 0
M  V30 2743 H 254.148 2.94278 2.30817 0
M  V30 2744 H 256.44 4.48092 5.08153 0
M  V30 2745 H 257.383 5.71276 4.18388 0
M  V30 2746 H 257.791 3.98072 4.00249 0
M  V30 2747 N 257.189 -0.644168 1.43834 0
M  V30 2748 C 258.152 -1.73857 1.49353 0
M  V30 2749 C 259.152 -1.56315 0.377112 0
M  V30 2750 O 260.342 -1.62048 0.639226 0
M  V30 2751 C 257.474 -3.12819 1.35488 0
M  V30 2752 H 258.667 -1.70342 2.46827 0
M  V30 2753 H 256.22 -0.856652 1.30733 0
M  V30 2754 H 256.955 -3.2194 0.390569 0
M  V30 2755 H 256.74 -3.26958 2.16428 0
M  V30 2756 H 258.23 -3.92606 1.42302 0
M  V30 2757 N 258.668 -1.30515 -0.883378 0
M  V30 2758 C 259.616 -1.16941 -2.01066 0
M  V30 2759 C 260.61 -0.0809148 -1.69207 0
M  V30 2760 O 261.816 -0.241877 -1.78367 0
M  V30 2761 H 258.191 -0.361705 -0.659298 0
M  V30 2762 H 260.162 -2.12344 -2.09649 0
M  V30 2763 C 258.911 -0.879694 -3.36388 0
M  V30 2764 H 258.234 -1.70936 -3.61415 0
M  V30 2765 H 259.674 -0.82483 -4.159 0
M  V30 2766 C 258.133 0.417409 -3.34304 0
M  V30 2767 O 258.663 1.43843 -3.75063 0
M  V30 2768 N 256.869 0.429141 -2.87414 0
M  V30 2769 H 256.416 -0.402222 -2.5444 0
M  V30 2770 H 256.374 1.29696 -2.86403 0
M  V30 2771 N 260.146 1.09593 -1.13257 0
M  V30 2772 C 261.376 1.85231 -0.915049 0
M  V30 2773 C 261.784 1.81345 0.539498 0
M  V30 2774 O 261.127 1.20664 1.38513 0
M  V30 2775 C 261.189 3.34275 -1.3229 0
M  V30 2776 C 260.853 3.6191 -2.79052 0
M  V30 2777 C 261.85 3.57777 -3.77216 0
M  V30 2778 C 259.535 3.90309 -3.16171 0
M  V30 2779 C 261.529 3.81652 -5.1051 0
M  V30 2780 C 259.216 4.13839 -4.49644 0
M  V30 2781 C 260.214 4.09502 -5.46623 0
M  V30 2782 O 259.902 4.32426 -6.77689 0
M  V30 2783 H 259.634 0.591997 -0.326367 0
M  V30 2784 H 262.188 1.394 -1.50854 0
M  V30 2785 H 260.418 3.80805 -0.672667 0
M  V30 2786 H 262.107 3.9132 -1.07812 0
M  V30 2787 H 262.873 3.35865 -3.49885 0
M  V30 2788 H 258.752 3.92811 -2.41289 0
M  V30 2789 H 262.296 3.78182 -5.86195 0
M  V30 2790 H 258.193 4.35232 -4.767 0
M  V30 2791 H 258.961 4.49896 -6.83766 0
M  V30 2792 N 261.624 0.925811 1.2754 0
M  V30 2793 C 262.871 0.565255 1.94451 0
M  V30 2794 C 263.199 -0.89316 1.7278 0
M  V30 2795 O 262.454 -1.65213 1.04895 0
M  V30 2796 C 262.753 0.835296 3.47502 0
M  V30 2797 C 262.419 2.27515 3.89291 0
M  V30 2798 C 261.081 2.66879 4.00411 0
M  V30 2799 C 263.433 3.21158 4.10496 0
M  V30 2800 C 260.761 3.99014 4.30122 0
M  V30 2801 C 263.113 4.52871 4.4169 0
M  V30 2802 C 261.777 4.92072 4.51023 0
M  V30 2803 H 261.047 0.206841 0.711546 0
M  V30 2804 H 263.694 1.16942 1.51647 0
M  V30 2805 H 261.999 0.148442 3.91519 0
M  V30 2806 H 263.696 0.535322 3.97411 0
M  V30 2807 H 260.286 1.95976 3.81171 0
M  V30 2808 H 264.47 2.9195 4.01346 0
M  V30 2809 H 259.726 4.2907 4.35556 0
M  V30 2810 H 263.9 5.25436 4.57045 0
M  V30 2811 H 261.527 5.9449 4.738 0
M  V30 2812 N 263.102 -1.41638 0.69111 0
M  V30 2813 C 264.518 -1.55435 0.362224 0
M  V30 2814 C 264.718 -1.66754 -1.13117 0
M  V30 2815 O 263.774 -1.64348 -1.91692 0
M  V30 2816 C 265.087 -2.79588 1.10684 0
M  V30 2817 C 266.635 -2.9338 1.09075 0
M  V30 2818 C 267.11 -4.20414 1.81703 0
M  V30 2819 N 268.601 -4.27362 1.7865 0
M  V30 2820 C 269.336 -5.24507 2.31689 0
M  V30 2821 N 268.832 -6.27708 2.93179 0
M  V30 2822 N 270.625 -5.16416 2.2197 0
M  V30 2823 H 262.776 -1.32536 1.65976 0
M  V30 2824 H 265.039 -0.639115 0.700168 0
M  V30 2825 H 264.745 -2.77419 2.16175 0
M  V30 2826 H 264.619 -3.70973 0.682545 0
M  V30 2827 H 267.006 -2.95067 0.0441238 0
M  V30 2828 H 267.087 -2.0318 1.55407 0
M  V30 2829 H 266.731 -4.19488 2.86343 0
M  V30 2830 H 266.661 -5.09578 1.32808 0
M  V30 2831 H 269.152 -3.53415 1.33815 0
M  V30 2832 H 269.465 -6.98217 3.31229 0
M  V30 2833 H 267.81 -6.28223 2.97255 0
M  V30 2834 H 271.001 -4.34716 1.73607 0
M  V30 2835 H 271.174 -5.91958 2.63609 0
M  V30 2836 N 264.58 -0.43555 -1.51462 0
M  V30 2837 C 265.857 0.191364 -1.94662 0
M  V30 2838 C 266.237 1.60254 -1.37411 0
M  V30 2839 O 265.585 2.2152 -0.560458 0
M  V30 2840 C 265.795 0.17091 -3.48581 0
M  V30 2841 C 267.143 0.377357 -4.2292 0
M  V30 2842 O 268.167 0.249104 -3.55328 0
M  V30 2843 O 267.026 0.63247 -5.42828 0
M  V30 2844 H 264.12 0.130932 -0.816569 0
M  V30 2845 H 266.666 -0.4934 -1.62369 0
M  V30 2846 H 265.438 -0.815738 -3.82703 0
M  V30 2847 H 265.061 0.898659 -3.87311 0
M  V30 2848 N 266.058 1.56714 -0.166846 0
M  V30 2849 C 267.288 2.00828 0.48494 0
M  V30 2850 C 267.696 1.04612 1.57648 0
M  V30 2851 O 267.039 0.0383201 1.8366 0
M  V30 2852 C 267.101 3.4137 1.12723 0
M  V30 2853 C 266.765 4.56654 0.177886 0
M  V30 2854 C 267.762 5.16402 -0.60207 0
M  V30 2855 C 265.447 5.02244 0.0750139 0
M  V30 2856 C 267.441 6.20167 -1.47215 0
M  V30 2857 C 265.128 6.05859 -0.798649 0
M  V30 2858 C 266.126 6.64691 -1.57082 0
M  V30 2859 O 265.814 7.66297 -2.42989 0
M  V30 2860 H 265.546 0.663587 0.128953 0
M  V30 2861 H 268.1 2.03692 -0.264365 0
M  V30 2862 H 266.33 3.35406 1.92457 0
M  V30 2863 H 268.019 3.69466 1.68076 0
M  V30 2864 H 268.785 4.82065 -0.53274 0
M  V30 2865 H 264.664 4.56167 0.665812 0
M  V30 2866 H 268.208 6.66016 -2.07531 0
M  V30 2867 H 264.105 6.39621 -0.869199 0
M  V30 2868 H 264.873 7.83601 -2.36455 0
M  V30 2869 N 267.536 -0.106894 1.57237 0
M  V30 2870 C 268.499 -1.11466 2.0027 0
M  V30 2871 C 269.499 -1.33623 0.894519 0
M  V30 2872 O 270.689 -1.29935 1.16028 0
M  V30 2873 C 267.821 -2.46646 2.35327 0
M  V30 2874 H 269.014 -0.744516 2.90512 0
M  V30 2875 H 266.567 -0.351576 1.52295 0
M  V30 2876 H 267.302 -2.88558 1.48003 0
M  V30 2877 H 267.087 -2.31915 3.16161 0
M  V30 2878 H 268.577 -3.19151 2.69318 0
M  V30 2879 N 269.014 -1.53014 -0.377408 0
M  V30 2880 C 269.962 -1.7927 -1.48206 0
M  V30 2881 C 270.956 -0.661195 -1.55963 0
M  V30 2882 O 272.162 -0.843908 -1.58991 0
M  V30 2883 H 268.537 -0.567425 -0.493491 0
M  V30 2884 H 270.508 -2.71753 -1.2326 0
M  V30 2885 C 269.257 -1.98894 -2.85196 0
M  V30 2886 H 268.58 -2.85395 -2.79981 0
M  V30 2887 H 270.02 -2.21249 -3.61698 0
M  V30 2888 C 268.479 -0.764691 -3.28107 0
M  V30 2889 O 269.009 0.0523226 -4.01666 0
M  V30 2890 N 267.215 -0.591493 -2.84517 0
M  V30 2891 H 266.762 -1.25749 -2.24822 0
M  V30 2892 H 266.72 0.226253 -3.13585 0
M  V30 2893 N 270.492 0.636531 -1.44174 0
M  V30 2894 C 271.422 1.76003 -1.53444 0
M  V30 2895 C 272.403 1.65619 -0.387841 0
M  V30 2896 O 273.588 1.84461 -0.607257 0
M  V30 2897 C 270.718 3.14511 -1.4731 0
M  V30 2898 C 269.672 3.39677 -2.60391 0
M  V30 2899 C 268.998 4.78159 -2.39308 0
M  V30 2900 C 270.298 3.32772 -4.02567 0
M  V30 2901 H 271.992 1.68501 -2.47483 0
M  V30 2902 H 269.538 0.809237 -1.19111 0
M  V30 2903 H 271.491 3.92878 -1.52397 0
M  V30 2904 H 270.215 3.22783 -0.49785 0
M  V30 2905 H 268.874 2.63688 -2.54684 0
M  V30 2906 H 268.522 4.83128 -1.39988 0
M  V30 2907 H 268.222 4.95956 -3.15122 0
M  V30 2908 H 269.746 5.58762 -2.46205 0
M  V30 2909 H 271.16 4.01051 -4.09672 0
M  V30 2910 H 269.557 3.62104 -4.7854 0
M  V30 2911 H 270.627 2.30669 -4.2652 0
M  V30 2912 N 271.97 1.30982 0.876444 0
M  V30 2913 C 273.21 1.21589 1.64303 0
M  V30 2914 C 273.574 -0.223962 1.90689 0
M  V30 2915 O 274.775 -0.44128 2.65153 0
M  V30 2916 C 273.046 2.03007 2.94148 0
M  V30 2917 S 274.605 2.10405 3.85065 0
M  V30 2918 H 271.423 0.433161 0.563819 0
M  V30 2919 H 274.025 1.65565 1.03964 0
M  V30 2920 H 272.729 3.06719 2.72675 0
M  V30 2921 H 272.26 1.59725 3.59515 0
M  V30 2922 H 274.275 1.23765 4.80517 0
M  V30 2923 N 273.449 -1.08991 1.13837 0
M  V30 2924 C 274.696 -1.81258 0.902882 0
M  V30 2925 C 275.024 -1.85936 -0.570803 0
M  V30 2926 O 274.279 -1.3267 -1.43865 0
M  V30 2927 C 274.578 -3.27042 1.44147 0
M  V30 2928 C 274.244 -3.4249 2.93276 0
M  V30 2929 C 272.906 -3.46414 3.33992 0
M  V30 2930 C 275.258 -3.4666 3.892 0
M  V30 2931 C 272.586 -3.52091 4.69307 0
M  V30 2932 C 274.938 -3.53872 5.24364 0
M  V30 2933 C 273.602 -3.56066 5.646 0
M  V30 2934 H 272.872 -0.663268 0.330388 0
M  V30 2935 H 275.519 -1.28368 1.42105 0
M  V30 2936 H 273.824 -3.82599 0.844097 0
M  V30 2937 H 275.521 -3.81499 1.23528 0
M  V30 2938 H 272.111 -3.40124 2.60794 0
M  V30 2939 H 276.295 -3.42865 3.58828 0
M  V30 2940 H 271.551 -3.52079 4.9985 0
M  V30 2941 H 275.725 -3.56043 5.98503 0
M  V30 2942 H 273.352 -3.60218 6.69438 0
M  V30 2943 N 274.927 -0.932562 -1.27047 0
M  V30 2944 C 275.837 -0.441219 -2.30414 0
M  V30 2945 C 276.853 0.480525 -1.67233 0
M  V30 2946 O 278.029 0.362151 -1.98117 0
M  V30 2947 C 275.094 0.293651 -3.45454 0
M  V30 2948 C 274.155 -0.663601 -4.2414 0
M  V30 2949 C 273.388 0.0362932 -5.33688 0
M  V30 2950 O 273.611 1.2548 -5.56427 0
M  V30 2951 O 272.545 -0.638015 -5.98509 0
M  V30 2952 H 276.371 -1.29962 -2.74488 0
M  V30 2953 H 273.956 -0.6981 -1.32087 0
M  V30 2954 H 275.838 0.707951 -4.15411 0
M  V30 2955 H 274.513 1.12758 -3.03426 0
M  V30 2956 H 273.42 -1.12768 -3.56699 0
M  V30 2957 H 274.753 -1.46489 -4.69896 0
M  V30 2958 N 276.405 1.4127 -0.698611 0
M  V30 2959 C 277.368 2.29158 -0.044132 0
M  V30 2960 C 278.368 1.44529 0.704841 0
M  V30 2961 O 279.558 1.65643 0.539276 0
M  V30 2962 C 276.69 3.27459 0.947809 0
M  V30 2963 H 277.883 2.88529 -0.817994 0
M  V30 2964 H 275.436 1.49307 -0.46228 0
M  V30 2965 H 276.171 2.73073 1.74933 0
M  V30 2966 H 275.956 3.8991 0.41385 0
M  V30 2967 H 277.446 3.93311 1.40344 0
M  V30 2968 N 277.883 0.443576 1.51229 0
M  V30 2969 C 279.13 -0.120796 2.02139 0
M  V30 2970 C 279.458 -1.42166 1.32736 0
M  V30 2971 O 278.713 -1.90849 0.43301 0
M  V30 2972 C 279.012 -0.380579 3.55368 0
M  V30 2973 C 278.678 0.83523 4.43097 0
M  V30 2974 C 277.34 1.16864 4.66794 0
M  V30 2975 C 279.692 1.64601 4.94526 0
M  V30 2976 C 277.02 2.31339 5.39165 0
M  V30 2977 C 279.372 2.78181 5.68153 0
M  V30 2978 C 278.036 3.11969 5.90112 0
M  V30 2979 H 277.306 -0.0442023 0.73968 0
M  V30 2980 H 279.953 0.592046 1.82118 0
M  V30 2981 H 278.258 -1.17538 3.73754 0
M  V30 2982 H 279.955 -0.830777 3.923 0
M  V30 2983 H 276.545 0.565437 4.24854 0
M  V30 2984 H 280.729 1.40163 4.76097 0
M  V30 2985 H 275.985 2.57823 5.5438 0
M  V30 2986 H 280.159 3.41371 6.06992 0
M  V30 2987 H 277.786 4.00784 6.45969 0
M  V30 2988 N 279.361 -1.56624 0.175154 0
M  V30 2989 C 280.609 -1.96609 -0.467885 0
M  V30 2990 C 280.93 -1.06238 -1.63519 0
M  V30 2991 O 280.2 -0.129523 -1.95471 0
M  V30 2992 H 278.78 -0.726008 -0.175845 0
M  V30 2993 H 281.442 -1.93195 0.257234 0
M  V30 2994 H 280.538 -3.00989 -0.825342 0
M  V30 2995 N 280.839 0.0985539 -1.57292 0
M  V30 2996 C 282.116 0.834155 -1.76921 0
M  V30 2997 C 282.496 1.97101 -0.755928 0
M  V30 2998 O 281.844 2.27474 0.216245 0
M  V30 2999 C 282.054 1.33194 -3.22584 0
M  V30 3000 C 283.402 1.77611 -3.85668 0
M  V30 3001 O 284.426 1.42825 -3.26312 0
M  V30 3002 O 283.285 2.4192 -4.90038 0
M  V30 3003 H 280.379 0.397628 -0.725135 0
M  V30 3004 H 282.925 0.0807044 -1.69508 0
M  V30 3005 H 281.697 0.517248 -3.87866 0
M  V30 3006 H 281.32 2.1475 -3.34616 0
M  V30 3007 N 282.317 1.53212 0.369288 0
M  V30 3008 C 283.733 1.42902 0.710712 0
M  V30 3009 C 283.933 0.565135 1.93413 0
M  V30 3010 O 282.989 0.0461484 2.52458 0
M  V30 3011 C 284.302 2.86042 0.927382 0
M  V30 3012 C 285.85 2.9565 1.02762 0
M  V30 3013 C 286.325 4.39843 1.27679 0
M  V30 3014 N 287.816 4.43256 1.34457 0
M  V30 3015 C 288.551 5.51929 1.55439 0
M  V30 3016 N 288.047 6.70655 1.73762 0
M  V30 3017 N 289.84 5.39502 1.57779 0
M  V30 3018 H 281.991 2.07888 -0.435457 0
M  V30 3019 H 284.254 0.938661 -0.132739 0
M  V30 3020 H 283.96 3.51557 0.100287 0
M  V30 3021 H 283.834 3.29472 1.83653 0
M  V30 3022 H 286.221 2.30291 1.84527 0
M  V30 3023 H 286.302 2.5562 0.0959504 0
M  V30 3024 H 285.946 5.05774 0.464175 0
M  V30 3025 H 285.876 4.77443 2.22162 0
M  V30 3026 H 288.367 3.5769 1.21926 0
M  V30 3027 H 288.68 7.49248 1.89335 0
M  V30 3028 H 287.025 6.73648 1.70948 0
M  V30 3029 H 290.216 4.45713 1.43029 0
M  V30 3030 H 290.389 6.2426 1.7379 0
M  V30 3031 N 283.795 -0.628877 1.44509 0
M  V30 3032 C 285.041 -1.39045 1.47629 0
M  V30 3033 C 285.374 -1.93892 0.109343 0
M  V30 3034 O 284.649 -1.7379 -0.87334 0
M  V30 3035 C 284.932 -2.55408 2.53848 0
M  V30 3036 C 284.785 -2.05896 3.99909 0
M  V30 3037 C 286.104 -3.5759 2.56549 0
M  V30 3038 H 283.223 -0.504232 0.537512 0
M  V30 3039 H 285.865 -0.710854 1.76201 0
M  V30 3040 H 284.015 -3.13384 2.29615 0
M  V30 3041 H 285.687 -1.52734 4.35282 0
M  V30 3042 H 283.93 -1.37061 4.11578 0
M  V30 3043 H 284.601 -2.89681 4.69882 0
M  V30 3044 H 287.077 -3.09419 2.78207 0
M  V30 3045 H 285.953 -4.36527 3.32769 0
M  V30 3046 H 286.214 -4.11808 1.60832 0
M  V30 3047 N 285.273 -1.31445 -0.869486 0
M  V30 3048 C 286.22 -1.19135 -1.97675 0
M  V30 3049 C 287.19 -0.0770266 -1.65921 0
M  V30 3050 O 288.375 -0.249972 -1.89155 0
M  V30 3051 C 285.515 -0.905149 -3.33018 0
M  V30 3052 C 284.628 -2.10285 -3.77365 0
M  V30 3053 C 283.763 -1.75339 -5.01427 0
M  V30 3054 C 282.802 -2.91515 -5.38224 0
M  V30 3055 N 281.939 -2.56762 -6.53466 0
M  V30 3056 H 286.779 -2.13853 -2.07535 0
M  V30 3057 H 284.316 -1.06379 -1.01597 0
M  V30 3058 H 286.274 -0.719765 -4.10944 0
M  V30 3059 H 284.904 0.00519624 -3.228 0
M  V30 3060 H 283.956 -2.39899 -2.95216 0
M  V30 3061 H 285.268 -2.97237 -4.00564 0
M  V30 3062 H 284.422 -1.53266 -5.87022 0
M  V30 3063 H 283.161 -0.855801 -4.80133 0
M  V30 3064 H 282.166 -3.14237 -4.51149 0
M  V30 3065 H 283.391 -3.81985 -5.61484 0
M  V30 3066 H 281.337 -1.69526 -6.33717 0
M  V30 3067 H 281.254 -3.37243 -6.76612 0
M  V30 3068 H 282.522 -2.38083 -7.42251 0
M  V30 3069 N 286.751 1.08385 -1.14413 0
M  V30 3070 C 287.701 2.13509 -0.79987 0
M  V30 3071 C 288.685 1.5951 0.211059 0
M  V30 3072 O 289.877 1.76995 0.0133694 0
M  V30 3073 C 287.006 3.42162 -0.279297 0
M  V30 3074 C 286.092 4.03042 -1.31976 0
M  V30 3075 N 286.483 4.38327 -2.52395 0
M  V30 3076 C 284.781 4.30379 -1.17004 0
M  V30 3077 C 285.482 4.86428 -3.19003 0
M  V30 3078 N 284.458 4.84547 -2.46405 0
M  V30 3079 H 288.26 2.38609 -1.7159 0
M  V30 3080 H 285.774 1.2572 -1.02802 0
M  V30 3081 H 287.771 4.16898 -0.0143688 0
M  V30 3082 H 286.431 3.18511 0.630923 0
M  V30 3083 H 287.442 4.29349 -2.89621 0
M  V30 3084 H 284.119 4.16281 -0.318854 0
M  V30 3085 H 285.509 5.23107 -4.21674 0
M  V30 3086 N 288.23 0.939286 1.26551 0
M  V30 3087 C 289.476 0.596234 1.94465 0
M  V30 3088 C 289.831 -0.855013 1.72358 0
M  V30 3089 O 289.124 -1.6034 1.04889 0
M  V30 3090 C 289.318 0.872106 3.46596 0
M  V30 3091 C 289.147 2.34862 3.83497 0
M  V30 3092 C 287.917 3.00344 4.06352 0
M  V30 3093 C 290.115 3.32697 3.92195 0
M  V30 3094 N 288.097 4.38027 4.30123 0
M  V30 3095 C 289.468 4.55631 4.20476 0
M  V30 3096 C 291.523 3.27747 3.74815 0
M  V30 3097 C 290.226 5.74233 4.33185 0
M  V30 3098 C 292.252 4.45672 3.88755 0
M  V30 3099 C 291.614 5.67388 4.17433 0
M  V30 3100 H 287.713 0.268515 0.734455 0
M  V30 3101 H 290.297 1.2083 1.5267 0
M  V30 3102 H 288.468 0.289102 3.87323 0
M  V30 3103 H 290.2 0.490513 4.01716 0
M  V30 3104 H 286.955 2.50969 4.01636 0
M  V30 3105 H 287.379 5.09288 4.46044 0
M  V30 3106 H 292.021 2.34703 3.51673 0
M  V30 3107 H 289.739 6.67731 4.55149 0
M  V30 3108 H 293.325 4.43372 3.76713 0
M  V30 3109 H 292.205 6.57115 4.27983 0
M  V30 3110 N 289.708 -1.40897 0.706093 0
M  V30 3111 C 290.957 -2.00284 0.238574 0
M  V30 3112 C 291.27 -1.56604 -1.17194 0
M  V30 3113 O 292.476 -2.08624 -1.73748 0
M  V30 3114 C 290.932 -3.57934 0.375623 0
M  V30 3115 C 290.54 -4.10591 1.79217 0
M  V30 3116 C 292.284 -4.24488 -0.0315857 0
M  V30 3117 C 290.191 -5.60712 1.88032 0
M  V30 3118 H 289.121 -0.749144 0.0854398 0
M  V30 3119 H 291.772 -1.61251 0.875813 0
M  V30 3120 H 290.154 -3.94622 -0.330042 0
M  V30 3121 H 291.328 -3.85301 2.52745 0
M  V30 3122 H 289.643 -3.56601 2.15 0
M  V30 3123 H 292.24 -5.34698 0.0136842 0
M  V30 3124 H 292.583 -4.02261 -1.072 0
M  V30 3125 H 293.116 -3.92873 0.624181 0
M  V30 3126 H 289.855 -5.87781 2.90161 0
M  V30 3127 H 289.375 -5.87896 1.18903 0
M  V30 3128 H 291.054 -6.25658 1.64805 0
M  V30 3129 N 291.186 -0.45159 -1.50991 0
M  V30 3130 C 292.414 0.108334 -2.06616 0
M  V30 3131 C 292.829 1.35224 -1.31757 0
M  V30 3132 O 292.186 1.78475 -0.381174 0
M  V30 3133 C 292.237 0.41619 -3.59096 0
M  V30 3134 O 291.958 -0.778361 -4.3113 0
M  V30 3135 C 293.459 1.02523 -4.31282 0
M  V30 3136 H 290.679 0.00159995 -0.670998 0
M  V30 3137 H 293.223 -0.634771 -1.94399 0
M  V30 3138 H 291.378 1.10921 -3.71181 0
M  V30 3139 H 291.792 -0.511181 -5.22003 0
M  V30 3140 H 293.266 1.19053 -5.39009 0
M  V30 3141 H 293.743 2.01013 -3.905 0
M  V30 3142 H 294.349 0.371173 -4.23677 0
M  V30 3143 N 292.664 1.56529 -0.183458 0
M  V30 3144 C 293.911 1.97244 0.458357 0
M  V30 3145 C 294.239 1.06992 1.62428 0
M  V30 3146 O 293.494 0.106542 1.9541 0
M  V30 3147 C 293.793 3.43939 0.971637 0
M  V30 3148 C 293.459 4.5083 -0.0796784 0
M  V30 3149 C 292.121 4.79786 -0.368584 0
M  V30 3150 C 294.473 5.15138 -0.792638 0
M  V30 3151 C 291.801 5.70345 -1.37563 0
M  V30 3152 C 294.153 6.06784 -1.78875 0
M  V30 3153 C 292.817 6.34102 -2.08497 0
M  V30 3154 H 292.087 0.721768 0.167725 0
M  V30 3155 H 294.734 1.89472 -0.277976 0
M  V30 3156 H 293.039 3.48724 1.78602 0
M  V30 3157 H 294.736 3.72791 1.47744 0
M  V30 3158 H 291.326 4.28317 0.155668 0
M  V30 3159 H 295.51 4.92868 -0.582659 0
M  V30 3160 H 290.766 5.89789 -1.61118 0
M  V30 3161 H 294.94 6.55677 -2.3465 0
M  V30 3162 H 292.567 7.04074 -2.86678 0
M  V30 3163 N 294.142 -0.090211 1.57342 0
M  V30 3164 C 295.367 -0.810082 1.90925 0
M  V30 3165 C 295.792 -1.71248 0.778187 0
M  V30 3166 O 295.15 -1.79278 -0.269991 0
M  V30 3167 C 295.198 -1.59529 3.23393 0
M  V30 3168 O 294.302 -2.70461 3.11327 0
M  V30 3169 H 293.643 -0.222231 0.625707 0
M  V30 3170 H 296.173 -0.0639716 2.045 0
M  V30 3171 H 296.183 -1.97847 3.5682 0
M  V30 3172 H 294.858 -0.933055 4.05299 0
M  V30 3173 H 293.435 -2.35135 2.89423 0
M  V30 3174 N 295.62 -1.53406 -0.361157 0
M  V30 3175 C 296.897 -1.60411 -1.11927 0
M  V30 3176 C 297.277 -0.414385 -2.06993 0
M  V30 3177 O 296.625 0.594976 -2.20618 0
M  V30 3178 C 296.835 -2.95652 -1.85448 0
M  V30 3179 C 298.183 -3.50386 -2.39823 0
M  V30 3180 O 299.207 -2.97711 -1.95568 0
M  V30 3181 O 298.066 -4.42482 -3.20737 0
M  V30 3182 H 295.16 -0.64811 -0.513695 0
M  V30 3183 H 297.706 -1.65749 -0.364065 0
M  V30 3184 H 296.478 -3.73682 -1.16091 0
M  V30 3185 H 296.101 -2.93825 -2.67866 0
M  V30 3186 N 297.098 0.621204 -1.44841 0
M  V30 3187 C 298.509 1.20298 -1.42777 0
M  V30 3188 C 298.86 1.95639 -0.148259 0
M  V30 3189 O 297.985 2.02955 0.750892 0
M  V30 3190 C 298.58 2.1882 -2.58657 0
M  V30 3191 C 297.139 2.72403 -2.59756 0
M  V30 3192 C 296.286 1.4757 -2.34773 0
M  V30 3193 H 299.237 0.411297 -1.53278 0
M  V30 3194 H 299.258 3.01607 -2.31977 0
M  V30 3195 H 298.77 1.63957 -3.51766 0
M  V30 3196 H 296.871 3.31242 -1.70615 0
M  V30 3197 H 296.984 3.17765 -3.58556 0
M  V30 3198 H 295.348 1.76051 -1.8406 0
M  V30 3199 H 296.131 0.945954 -3.3001 0
M  V30 3200 N 298.576 1.31904 0.862503 0
M  V30 3201 C 299.992 1.10724 1.14945 0
M  V30 3202 C 300.192 -0.117421 2.01158 0
M  V30 3203 O 299.248 -0.804595 2.39338 0
M  V30 3204 C 300.561 2.38267 1.83437 0
M  V30 3205 C 302.109 2.43949 1.96106 0
M  V30 3206 C 302.584 3.71394 2.68013 0
M  V30 3207 N 304.075 3.72331 2.75543 0
M  V30 3208 C 304.81 4.67641 3.31812 0
M  V30 3209 N 304.306 5.73313 3.88953 0
M  V30 3210 N 306.099 4.5515 3.29841 0
M  V30 3211 H 298.25 2.10436 0.288191 0
M  V30 3212 H 300.513 0.928705 0.190292 0
M  V30 3213 H 300.219 3.27759 1.27542 0
M  V30 3214 H 300.093 2.48633 2.83657 0
M  V30 3215 H 302.48 1.54922 2.51164 0
M  V30 3216 H 302.561 2.37543 0.949059 0
M  V30 3217 H 302.205 4.60791 2.13621 0
M  V30 3218 H 302.135 3.75069 3.69636 0
M  V30 3219 H 304.626 2.95947 2.34997 0
M  V30 3220 H 304.939 6.42107 4.30022 0
M  V30 3221 H 303.284 5.77077 3.87308 0
M  V30 3222 H 306.475 3.71766 2.84443 0
M  V30 3223 H 306.648 5.29604 3.73394 0
M  V30 3224 N 300.054 -1.07777 1.14986 0
M  V30 3225 C 301.017 -2.13041 0.845358 0
M  V30 3226 C 302.017 -1.60071 -0.152931 0
M  V30 3227 O 303.207 -1.74033 0.0761879 0
M  V30 3228 C 300.339 -3.39896 0.261383 0
M  V30 3229 H 301.532 -2.41485 1.77834 0
M  V30 3230 H 299.085 -1.23595 0.956757 0
M  V30 3231 H 299.82 -3.17091 -0.68 0
M  V30 3232 H 299.605 -3.79642 0.980514 0
M  V30 3233 H 301.095 -4.17548 0.0657687 0
M  V30 3234 N 301.532 -0.945985 -1.26051 0
M  V30 3235 C 302.465 -0.403619 -2.24602 0
M  V30 3236 C 303.443 0.510241 -1.54387 0
M  V30 3237 O 304.627 0.446593 -1.83133 0
M  V30 3238 C 301.754 0.419564 -3.36091 0
M  V30 3239 C 300.8 -0.433454 -4.24292 0
M  V30 3240 S 301.633 -1.86037 -5.02146 0
M  V30 3241 C 302.789 -1.04538 -6.17108 0
M  V30 3242 H 303.022 -1.23883 -2.7026 0
M  V30 3243 H 300.555 -0.749438 -1.34992 0
M  V30 3244 H 302.513 0.888595 -4.00767 0
M  V30 3245 H 301.174 1.22951 -2.89036 0
M  V30 3246 H 300.367 0.197486 -5.03613 0
M  V30 3247 H 299.969 -0.837357 -3.64506 0
M  V30 3248 H 302.261 -0.289923 -6.76879 0
M  V30 3249 H 303.204 -1.81222 -6.84518 0
M  V30 3250 H 303.612 -0.579319 -5.61519 0
M  V30 3251 N 303.011 1.40521 -0.713556 0
M  V30 3252 C 303.974 2.29098 -0.0684347 0
M  V30 3253 C 304.974 1.45268 0.689472 0
M  V30 3254 O 306.164 1.66205 0.521677 0
M  V30 3255 C 303.296 3.28446 0.913024 0
M  V30 3256 H 304.489 2.87645 -0.84855 0
M  V30 3257 H 302.042 1.48809 -0.47809 0
M  V30 3258 H 302.777 2.74913 1.72027 0
M  V30 3259 H 302.562 3.90327 0.372472 0
M  V30 3260 H 304.052 3.94777 1.36165 0
M  V30 3261 N 304.489 0.459591 1.5075 0
M  V30 3262 C 305.399 -0.34613 2.32033 0
M  V30 3263 C 306.415 -1.00686 1.41909 0
M  V30 3264 O 307.591 -0.997361 1.7497 0
M  V30 3265 C 304.656 -1.42029 3.16273 0
M  V30 3266 C 303.717 -0.777362 4.22203 0
M  V30 3267 C 302.95 -1.80034 5.02418 0
M  V30 3268 O 303.173 -3.02544 4.83553 0
M  V30 3269 O 302.107 -1.37853 5.85901 0
M  V30 3270 H 305.933 0.318054 3.0203 0
M  V30 3271 H 303.518 0.221663 1.47746 0
M  V30 3272 H 305.4 -2.04275 3.68578 0
M  V30 3273 H 304.075 -2.06815 2.49016 0
M  V30 3274 H 302.982 -0.116256 3.73919 0
M  V30 3275 H 304.315 -0.172634 4.91897 0
M  V30 3276 N 305.967 -1.56429 0.191757 0
M  V30 3277 C 306.914 -2.18936 -0.730454 0
M  V30 3278 C 307.884 -1.13557 -1.21219 0
M  V30 3279 O 309.069 -1.41794 -1.27668 0
M  V30 3280 C 306.209 -2.85013 -1.9458 0
M  V30 3281 C 305.322 -4.04909 -1.50574 0
M  V30 3282 C 304.457 -4.58853 -2.67634 0
M  V30 3283 C 303.496 -5.71114 -2.20217 0
M  V30 3284 N 302.633 -6.19478 -3.30442 0
M  V30 3285 H 307.473 -2.97389 -0.190664 0
M  V30 3286 H 305.01 -1.46869 -0.0823694 0
M  V30 3287 H 306.968 -3.21492 -2.65893 0
M  V30 3288 H 305.598 -2.09129 -2.45896 0
M  V30 3289 H 304.65 -3.74115 -0.688605 0
M  V30 3290 H 305.962 -4.86113 -1.11784 0
M  V30 3291 H 305.116 -4.97619 -3.47074 0
M  V30 3292 H 303.855 -3.76749 -3.09696 0
M  V30 3293 H 302.86 -5.31879 -1.3923 0
M  V30 3294 H 304.085 -6.55033 -1.79189 0
M  V30 3295 H 302.031 -5.40297 -3.72041 0
M  V30 3296 H 301.948 -6.95725 -2.9581 0
M  V30 3297 H 303.216 -6.62898 -4.10106 0
M  V30 3298 N 307.445 0.0818655 -1.57387 0
M  V30 3299 C 308.693 0.781368 -1.86384 0
M  V30 3300 C 309.014 1.78618 -0.782342 0
M  V30 3301 O 308.284 1.94976 0.190061 0
M  V30 3302 H 306.864 0.291562 -0.687751 0
M  V30 3303 H 309.526 0.060348 -1.94807 0
M  V30 3304 H 308.622 1.3038 -2.83562 0
M  V30 3305 N 308.923 1.53595 0.353017 0
M  V30 3306 C 310.153 1.74058 1.11299 0
M  V30 3307 C 310.561 0.475205 1.83135 0
M  V30 3308 O 309.904 -0.562344 1.74881 0
M  V30 3309 C 309.966 2.85994 2.17825 0
M  V30 3310 C 309.63 4.25923 1.65647 0
M  V30 3311 C 310.627 5.07829 1.11383 0
M  V30 3312 C 308.312 4.72377 1.7078 0
M  V30 3313 C 310.306 6.34285 0.629439 0
M  V30 3314 C 307.993 5.98808 1.21953 0
M  V30 3315 C 308.991 6.79594 0.681265 0
M  V30 3316 O 308.679 8.03651 0.200248 0
M  V30 3317 H 308.411 0.585327 0.338183 0
M  V30 3318 H 310.965 2.01186 0.413927 0
M  V30 3319 H 309.195 2.54368 2.91262 0
M  V30 3320 H 310.884 2.94515 2.79313 0
M  V30 3321 H 311.65 4.73107 1.06746 0
M  V30 3322 H 307.529 4.0956 2.11617 0
M  V30 3323 H 311.073 6.97288 0.208636 0
M  V30 3324 H 306.97 6.33026 1.26287 0
M  V30 3325 H 307.738 8.1788 0.318416 0
M  V30 3326 N 310.401 -0.613514 1.45168 0
M  V30 3327 C 311.311 -1.75296 1.55912 0
M  V30 3328 C 312.327 -1.68244 0.443856 0
M  V30 3329 O 313.503 -1.88706 0.70371 0
M  V30 3330 C 310.568 -3.1174 1.5172 0
M  V30 3331 C 309.629 -3.30291 2.74238 0
M  V30 3332 C 308.862 -4.60226 2.70236 0
M  V30 3333 O 309.085 -5.42168 1.77229 0
M  V30 3334 O 308.019 -4.81361 3.61352 0
M  V30 3335 H 311.845 -1.69183 2.52212 0
M  V30 3336 H 309.43 -0.776886 1.27612 0
M  V30 3337 H 311.312 -3.93044 1.51968 0
M  V30 3338 H 309.987 -3.18357 0.585697 0
M  V30 3339 H 308.894 -2.48598 2.79553 0
M  V30 3340 H 310.227 -3.28547 3.66494 0
M  V30 3341 N 311.879 -1.3236 -0.855495 0
M  V30 3342 C 313.107 -1.2587 -1.64208 0
M  V30 3343 C 313.522 0.173457 -1.88002 0
M  V30 3344 O 312.879 1.11027 -1.44842 0
M  V30 3345 C 312.93 -2.01424 -3.00184 0
M  V30 3346 O 312.651 -3.39051 -2.77445 0
M  V30 3347 C 314.152 -2.01948 -3.94629 0
M  V30 3348 H 311.372 -0.434318 -0.511477 0
M  V30 3349 H 313.916 -1.74469 -1.0668 0
M  V30 3350 H 312.071 -1.56549 -3.5436 0
M  V30 3351 H 312.485 -3.77711 -3.63916 0
M  V30 3352 H 313.959 -2.59297 -4.87308 0
M  V30 3353 H 314.436 -1.00554 -4.27534 0
M  V30 3354 H 315.042 -2.46767 -3.4639 0
M  V30 3355 N 313.357 1.07166 -1.15556 0
M  V30 3356 C 314.605 1.79443 -0.929764 0
M  V30 3357 C 314.926 1.87246 0.544414 0
M  V30 3358 O 314.196 1.37473 1.39564 0
M  V30 3359 H 312.776 0.664625 -0.341003 0
M  V30 3360 H 315.438 1.29499 -1.45657 0
M  V30 3361 H 314.534 2.81832 -1.34079 0
M  V30 3362 N 314.835 0.952656 1.25548 0
M  V30 3363 C 315.785 0.442033 2.23674 0
M  V30 3364 C 316.769 -0.467632 1.53955 0
M  V30 3365 O 317.961 -0.301006 1.74422 0
M  V30 3366 C 315.09 -0.280816 3.4215 0
M  V30 3367 C 314.176 0.646803 4.19139 0
M  V30 3368 N 314.567 1.77759 4.73535 0
M  V30 3369 C 312.865 0.454617 4.43677 0
M  V30 3370 C 313.566 2.35658 5.31827 0
M  V30 3371 N 312.542 1.64333 5.18166 0
M  V30 3372 H 316.344 1.30505 2.63336 0
M  V30 3373 H 313.858 0.809904 1.40763 0
M  V30 3374 H 315.855 -0.663747 4.11582 0
M  V30 3375 H 314.515 -1.14046 3.04012 0
M  V30 3376 H 315.526 2.15949 4.7073 0
M  V30 3377 H 312.203 -0.362312 4.15925 0
M  V30 3378 H 313.593 3.30998 5.84713 0
M  V30 3379 N 316.313 -1.40141 0.720998 0
M  V30 3380 C 317.263 -2.27949 0.0482544 0
M  V30 3381 C 318.247 -1.43538 -0.727021 0
M  V30 3382 O 319.439 -1.6658 -0.598332 0
M  V30 3383 C 316.568 -3.32126 -0.868729 0
M  V30 3384 C 315.654 -4.24008 -0.0883515 0
M  V30 3385 N 316.045 -4.97154 0.931226 0
M  V30 3386 C 314.343 -4.4485 -0.320105 0
M  V30 3387 C 315.044 -5.64587 1.4006 0
M  V30 3388 N 314.02 -5.38787 0.721752 0
M  V30 3389 H 317.822 -2.81948 0.829609 0
M  V30 3390 H 315.336 -1.52656 0.554067 0
M  V30 3391 H 317.333 -3.93884 -1.36605 0
M  V30 3392 H 315.993 -2.79687 -1.6494 0
M  V30 3393 H 317.004 -5.01 1.31222 0
M  V30 3394 H 313.681 -4.03378 -1.07668 0
M  V30 3395 H 315.071 -6.33175 2.24808 0
M  V30 3396 N 317.792 -0.46758 -1.50504 0
M  V30 3397 C 318.755 0.317059 -2.26996 0
M  V30 3398 C 319.755 0.923513 -1.31635 0
M  V30 3399 O 320.945 0.793239 -1.55091 0
M  V30 3400 C 318.077 1.45134 -3.08462 0
M  V30 3401 H 319.27 -0.353723 -2.97807 0
M  V30 3402 H 316.823 -0.221545 -1.54722 0
M  V30 3403 H 317.558 2.15728 -2.4214 0
M  V30 3404 H 317.343 1.02232 -3.78538 0
M  V30 3405 H 318.833 2.00493 -3.66323 0
M  V30 3406 N 319.27 1.56325 -0.20005 0
M  V30 3407 C 320.681 1.8408 0.31167 0
M  V30 3408 C 321.032 1.12087 1.61031 0
M  V30 3409 O 320.157 0.38332 2.12978 0
M  V30 3410 C 320.752 3.33932 0.57226 0
M  V30 3411 C 319.311 3.6208 1.02834 0
M  V30 3412 C 318.458 2.77186 0.079634 0
M  V30 3413 H 321.409 1.52939 -0.423729 0
M  V30 3414 H 321.43 3.52971 1.42096 0
M  V30 3415 H 320.942 3.86303 -0.37308 0
M  V30 3416 H 319.043 3.15147 1.98778 0
M  V30 3417 H 319.156 4.7023 0.917624 0
M  V30 3418 H 317.52 2.47951 0.582448 0
M  V30 3419 H 318.303 3.32347 -0.860238 0
M  V30 3420 N 320.748 -0.0735177 1.57428 0
M  V30 3421 C 321.996 -0.771472 1.86796 0
M  V30 3422 C 322.317 -1.78201 0.791804 0
M  V30 3423 O 321.587 -1.95074 -0.179718 0
M  V30 3424 H 320.167 -0.28791 0.689287 0
M  V30 3425 H 322.829 -0.0500161 1.94836 0
M  V30 3426 H 321.925 -1.28874 2.8425 0
M  V30 3427 N 322.226 -1.5378 -0.344866 0
M  V30 3428 C 323.156 -1.84662 -1.42906 0
M  V30 3429 C 324.137 -0.701648 -1.54955 0
M  V30 3430 O 325.322 -0.953438 -1.69184 0
M  V30 3431 C 322.452 -2.05503 -2.79974 0
M  V30 3432 C 321.406 -3.21318 -2.82734 0
M  V30 3433 C 320.732 -3.2749 -4.22675 0
M  V30 3434 C 322.032 -4.59456 -2.48389 0
M  V30 3435 H 323.726 -2.75461 -1.17311 0
M  V30 3436 H 321.272 -1.32542 -0.562896 0
M  V30 3437 H 323.225 -2.25691 -3.55867 0
M  V30 3438 H 321.949 -1.11434 -3.07002 0
M  V30 3439 H 320.608 -3.00984 -2.09294 0
M  V30 3440 H 320.256 -2.31019 -4.4681 0
M  V30 3441 H 319.956 -4.05316 -4.25433 0
M  V30 3442 H 321.48 -3.49887 -5.00412 0
M  V30 3443 H 322.894 -4.79667 -3.13995 0
M  V30 3444 H 321.291 -5.39675 -2.62432 0
M  V30 3445 H 322.361 -4.63155 -1.4358 0
M  V30 3446 N 323.704 0.605807 -1.45491 0
M  V30 3447 C 324.651 1.7164 -1.54299 0
M  V30 3448 C 325.621 1.61486 -0.388761 0
M  V30 3449 O 326.806 1.81039 -0.602445 0
M  V30 3450 C 323.946 3.09953 -1.51734 0
M  V30 3451 C 323.059 3.309 -2.77721 0
M  V30 3452 C 322.194 4.59329 -2.66816 0
M  V30 3453 C 321.233 4.7354 -3.87848 0
M  V30 3454 N 320.37 5.9327 -3.75467 0
M  V30 3455 H 325.21 1.63449 -2.49176 0
M  V30 3456 H 322.747 0.796957 -1.23641 0
M  V30 3457 H 324.705 3.89977 -1.48235 0
M  V30 3458 H 323.335 3.17098 -0.604068 0
M  V30 3459 H 322.387 2.44639 -2.913 0
M  V30 3460 H 323.699 3.37274 -3.67488 0
M  V30 3461 H 322.853 5.4755 -2.61292 0
M  V30 3462 H 321.592 4.55355 -1.74651 0
M  V30 3463 H 320.597 3.83741 -3.93729 0
M  V30 3464 H 321.822 4.79309 -4.81082 0
M  V30 3465 H 319.768 5.90338 -2.86072 0
M  V30 3466 H 319.685 6.00811 -4.5887 0
M  V30 3467 H 320.953 6.83984 -3.73879 0
M  V30 3468 N 325.182 1.32811 0.848464 0
M  V30 3469 C 326.112 1.24882 1.97299 0
M  V30 3470 C 327.093 0.131357 1.69592 0
M  V30 3471 O 328.278 0.319553 1.91553 0
M  V30 3472 C 325.408 0.97746 3.33261 0
M  V30 3473 C 324.362 2.05682 3.75338 0
M  V30 3474 C 323.688 1.63777 5.09 0
M  V30 3475 C 324.988 3.47254 3.90144 0
M  V30 3476 H 326.682 2.18966 2.04191 0
M  V30 3477 H 324.228 1.05413 0.981029 0
M  V30 3478 H 326.181 0.908513 4.1149 0
M  V30 3479 H 324.905 0.000980011 3.266 0
M  V30 3480 H 323.564 2.11603 2.99366 0
M  V30 3481 H 323.212 0.648569 4.98801 0
M  V30 3482 H 322.912 2.36 5.38124 0
M  V30 3483 H 324.436 1.5833 5.89715 0
M  V30 3484 H 325.85 3.43888 4.58709 0
M  V30 3485 H 324.247 4.1788 4.30693 0
M  V30 3486 H 325.317 3.86462 2.92874 0
M  V30 3487 N 326.66 -1.06551 1.16123 0
M  V30 3488 C 328.076 -1.3142 0.905585 0
M  V30 3489 C 328.276 -1.96571 -0.442964 0
M  V30 3490 O 327.332 -2.23068 -1.18308 0
M  V30 3491 C 328.645 -2.19741 2.05267 0
M  V30 3492 C 330.193 -2.33165 2.08813 0
M  V30 3493 C 330.668 -3.24838 3.22868 0
M  V30 3494 N 332.159 -3.32421 3.22568 0
M  V30 3495 C 332.894 -4.0344 4.0746 0
M  V30 3496 N 332.39 -4.77003 5.02434 0
M  V30 3497 N 334.183 -3.99464 3.95456 0
M  V30 3498 H 326.334 -0.626548 2.02949 0
M  V30 3499 H 328.597 -0.338777 0.8854 0
M  V30 3500 H 328.303 -1.79142 3.02657 0
M  V30 3501 H 328.177 -3.20313 1.99198 0
M  V30 3502 H 330.564 -2.73013 1.12018 0
M  V30 3503 H 330.645 -1.3227 2.18948 0
M  V30 3504 H 330.289 -2.85708 4.19921 0
M  V30 3505 H 330.219 -4.25707 3.0997 0
M  V30 3506 H 332.71 -2.79994 2.53795 0
M  V30 3507 H 333.023 -5.28712 5.63634 0
M  V30 3508 H 331.368 -4.75992 5.06415 0
M  V30 3509 H 334.559 -3.4111 3.20564 0
M  V30 3510 H 334.732 -4.54544 4.61837 0
M  V30 3511 N 328.138 -0.959301 -1.25041 0
M  V30 3512 C 329.386 -0.615393 -1.92503 0
M  V30 3513 C 329.707 0.850969 -1.75452 0
M  V30 3514 O 328.977 1.60658 -1.12098 0
M  V30 3515 H 327.557 -0.224613 -0.712431 0
M  V30 3516 H 330.219 -1.21855 -1.5211 0
M  V30 3517 H 329.315 -0.848738 -3.00338 0
M  V30 3518 N 329.616 1.39756 -0.72842 0
M  V30 3519 C 330.844 2.04948 -0.283528 0
M  V30 3520 C 331.259 1.54908 1.0793 0
M  V30 3521 O 330.616 0.711135 1.68075 0
M  V30 3522 C 330.667 3.60498 -0.268957 0
M  V30 3523 O 330.388 4.08695 -1.57798 0
M  V30 3524 C 331.889 4.4288 0.192912 0
M  V30 3525 H 329.109 0.659243 -0.125056 0
M  V30 3526 H 331.653 1.78927 -0.990226 0
M  V30 3527 H 329.808 3.85444 0.388801 0
M  V30 3528 H 330.222 5.02977 -1.48709 0
M  V30 3529 H 331.696 5.51791 0.151952 0
M  V30 3530 H 332.173 4.21418 1.23708 0
M  V30 3531 H 332.779 4.23069 -0.435039 0
M  V30 3532 N 331.094 0.475555 1.50254 0
M  V30 3533 C 332.342 -0.077738 2.0195 0
M  V30 3534 C 332.663 -1.39813 1.35931 0
M  V30 3535 O 331.933 -1.89249 0.506123 0
M  V30 3536 H 330.513 -0.031719 0.746326 0
M  V30 3537 H 333.175 0.626995 1.84539 0
M  V30 3538 H 332.271 -0.225995 3.11281 0
M  V30 3539 N 332.573 -1.56217 0.208337 0
M  V30 3540 C 333.503 -2.22694 -0.702116 0
M  V30 3541 C 334.484 -1.19432 -1.2112 0
M  V30 3542 O 335.669 -1.47978 -1.25762 0
M  V30 3543 C 332.799 -2.8966 -1.9161 0
M  V30 3544 C 331.753 -3.9928 -1.5414 0
M  V30 3545 C 331.079 -4.53476 -2.83308 0
M  V30 3546 C 332.379 -5.17012 -0.741339 0
M  V30 3547 H 334.073 -2.99034 -0.147898 0
M  V30 3548 H 331.619 -1.43831 -0.0696951 0
M  V30 3549 H 333.572 -3.34852 -2.55836 0
M  V30 3550 H 332.296 -2.10746 -2.49507 0
M  V30 3551 H 330.955 -3.54799 -0.922668 0
M  V30 3552 H 330.603 -3.71308 -3.39322 0
M  V30 3553 H 330.303 -5.27451 -2.58976 0
M  V30 3554 H 331.827 -5.01378 -3.485 0
M  V30 3555 H 333.241 -5.58667 -1.28699 0
M  V30 3556 H 331.638 -5.97137 -0.595627 0
M  V30 3557 H 332.708 -4.8423 0.254851 0
M  V30 3558 N 334.051 0.0651679 -1.57465 0
M  V30 3559 C 335.281 0.774683 -1.91526 0
M  V30 3560 C 335.689 1.71305 -0.803196 0
M  V30 3561 O 335.032 1.82231 0.231881 0
M  V30 3562 C 335.094 1.61645 -3.21109 0
M  V30 3563 C 334.758 0.846753 -4.49087 0
M  V30 3564 C 335.755 0.163024 -5.19644 0
M  V30 3565 C 333.44 0.811966 -4.95694 0
M  V30 3566 C 335.434 -0.54519 -6.35064 0
M  V30 3567 C 333.121 0.0999836 -6.11018 0
M  V30 3568 C 334.119 -0.577388 -6.80555 0
M  V30 3569 O 333.807 -1.27789 -7.93678 0
M  V30 3570 H 333.539 0.225031 -0.637446 0
M  V30 3571 H 336.093 0.0377134 -2.05365 0
M  V30 3572 H 334.323 2.39638 -3.03497 0
M  V30 3573 H 336.012 2.20525 -3.40769 0
M  V30 3574 H 336.778 0.181163 -4.84662 0
M  V30 3575 H 332.657 1.32867 -4.41438 0
M  V30 3576 H 336.201 -1.07446 -6.89276 0
M  V30 3577 H 332.098 0.0797945 -6.45451 0
M  V30 3578 H 332.866 -1.18784 -8.09835 0
M  V30 3579 N 335.529 1.53961 0.336706 0
M  V30 3580 C 336.476 1.82428 1.41381 0
M  V30 3581 C 337.446 0.670444 1.51968 0
M  V30 3582 O 338.631 0.915565 1.67398 0
M  V30 3583 C 335.771 2.04564 2.77934 0
M  V30 3584 C 334.884 3.32267 2.76084 0
M  V30 3585 C 334.019 3.44434 4.04399 0
M  V30 3586 C 333.058 4.66061 3.96804 0
M  V30 3587 N 332.195 4.75224 5.16823 0
M  V30 3588 H 337.035 2.74324 1.16405 0
M  V30 3589 H 334.572 1.35869 0.563752 0
M  V30 3590 H 336.53 2.15388 3.57301 0
M  V30 3591 H 335.16 1.15974 3.01247 0
M  V30 3592 H 334.212 3.3025 1.88784 0
M  V30 3593 H 335.524 4.21733 2.66351 0
M  V30 3594 H 334.678 3.54728 4.92192 0
M  V30 3595 H 333.417 2.53037 4.16921 0
M  V30 3596 H 332.422 4.55838 3.07396 0
M  V30 3597 H 333.647 5.58829 3.85858 0
M  V30 3598 H 331.593 3.86739 5.29876 0
M  V30 3599 H 331.51 5.58636 5.09374 0
M  V30 3600 H 332.778 4.89835 6.06367 0
M  V30 3601 N 337.007 -0.598083 1.45811 0
M  V30 3602 C 337.97 -1.69018 1.54808 0
M  V30 3603 C 338.97 -1.55037 0.426652 0
M  V30 3604 O 340.16 -1.59932 0.690456 0
M  V30 3605 C 337.292 -3.0835 1.45371 0
M  V30 3606 H 338.485 -1.62403 2.52121 0
M  V30 3607 H 336.038 -0.814626 1.33392 0
M  V30 3608 H 336.773 -3.20534 0.492793 0
M  V30 3609 H 336.558 -3.19907 2.26721 0
M  V30 3610 H 338.048 -3.8788 1.54721 0
M  V30 3611 N 338.485 -1.33259 -0.841409 0
M  V30 3612 C 339.448 -1.23221 -1.9326 0
M  V30 3613 C 340.448 -0.151895 -1.60081 0
M  V30 3614 O 341.638 -0.403246 -1.69468 0
M  V30 3615 C 338.77 -0.898123 -3.28856 0
M  V30 3616 H 339.963 -2.2021 -2.03587 0
M  V30 3617 H 337.516 -1.17281 -1.03319 0
M  V30 3618 H 338.251 0.0693841 -3.24226 0
M  V30 3619 H 338.036 -1.67934 -3.54317 0
M  V30 3620 H 339.526 -0.852563 -4.08805 0
M  V30 3621 N 339.963 1.05934 -1.16686 0
M  V30 3622 C 340.913 2.11764 -0.844978 0
M  V30 3623 C 341.897 1.59922 0.177178 0
M  V30 3624 O 343.089 1.76983 -0.0241768 0
M  V30 3625 C 340.218 3.41493 -0.351812 0
M  V30 3626 C 339.304 4.00152 -1.40496 0
M  V30 3627 N 339.695 4.32874 -2.61636 0
M  V30 3628 C 337.993 4.278 -1.26106 0
M  V30 3629 C 338.694 4.79552 -3.29249 0
M  V30 3630 N 337.67 4.79211 -2.56628 0
M  V30 3631 H 341.472 2.34916 -1.76612 0
M  V30 3632 H 338.986 1.23511 -1.05446 0
M  V30 3633 H 340.983 4.16773 -0.102796 0
M  V30 3634 H 339.643 3.19778 0.56322 0
M  V30 3635 H 340.654 4.23109 -2.98663 0
M  V30 3636 H 337.331 4.15511 -0.407081 0
M  V30 3637 H 338.721 5.14045 -4.32675 0
M  V30 3638 N 341.441 0.965919 1.2453 0
M  V30 3639 C 342.391 0.465731 2.23193 0
M  V30 3640 C 343.375 -0.451277 1.54442 0
M  V30 3641 O 344.567 -0.282489 1.74731 0
M  V30 3642 C 341.696 -0.244511 3.42428 0
M  V30 3643 C 340.782 0.691222 4.18429 0
M  V30 3644 N 341.173 1.82771 4.71623 0
M  V30 3645 C 339.471 0.501649 4.4317 0
M  V30 3646 C 340.172 2.41285 5.29298 0
M  V30 3647 N 339.148 1.69819 5.16394 0
M  V30 3648 H 342.95 1.33291 2.61937 0
M  V30 3649 H 340.464 0.824789 1.39896 0
M  V30 3650 H 342.461 -0.620056 4.12263 0
M  V30 3651 H 341.121 -1.10815 3.05205 0
M  V30 3652 H 342.132 2.20929 4.68413 0
M  V30 3653 H 338.809 -0.318177 4.16286 0
M  V30 3654 H 340.199 3.37181 5.8117 0
M  V30 3655 N 342.919 -1.39368 0.735821 0
M  V30 3656 C 344.168 -1.99733 0.281004 0
M  V30 3657 C 344.481 -1.59055 -1.13846 0
M  V30 3658 O 345.687 -2.12262 -1.69284 0
M  V30 3659 C 344.143 -3.57057 0.451462 0
M  V30 3660 C 343.751 -4.06697 1.87886 0
M  V30 3661 C 345.495 -4.2446 0.0584616 0
M  V30 3662 C 343.402 -5.56598 1.99883 0
M  V30 3663 H 342.332 -0.747163 0.101311 0
M  V30 3664 H 344.983 -1.59357 0.909819 0
M  V30 3665 H 343.365 -3.95234 -0.246263 0
M  V30 3666 H 344.539 -3.79853 2.60861 0
M  V30 3667 H 342.854 -3.5196 2.22515 0
M  V30 3668 H 345.451 -5.34549 0.127099 0
M  V30 3669 H 345.794 -4.04444 -0.986433 0
M  V30 3670 H 346.327 -3.9146 0.707374 0
M  V30 3671 H 343.066 -5.81494 3.02564 0
M  V30 3672 H 342.586 -5.85242 1.31346 0
M  V30 3673 H 344.265 -6.22022 1.78039 0
M  V30 3674 N 344.397 -0.483516 -1.5 0
M  V30 3675 C 345.646 0.0689102 -2.01582 0
M  V30 3676 C 345.959 1.39655 -1.36952 0
M  V30 3677 O 347.165 2.03465 -1.79762 0
M  V30 3678 C 345.621 0.173302 -3.59483 0
M  V30 3679 C 345.229 -1.14665 -4.33077 0
M  V30 3680 C 346.973 0.677024 -4.19066 0
M  V30 3681 C 344.88 -1.00537 -5.82792 0
M  V30 3682 H 343.81 0.0295277 -0.753422 0
M  V30 3683 H 346.461 -0.620295 -1.72698 0
M  V30 3684 H 344.843 0.926569 -3.85007 0
M  V30 3685 H 346.017 -1.91184 -4.19268 0
M  V30 3686 H 344.332 -1.58244 -3.85159 0
M  V30 3687 H 346.929 0.799952 -5.28682 0
M  V30 3688 H 347.272 1.67151 -3.81269 0
M  V30 3689 H 347.805 -0.0192083 -3.97795 0
M  V30 3690 H 344.544 -1.9736 -6.25083 0
M  V30 3691 H 344.064 -0.280776 -5.99142 0
M  V30 3692 H 345.743 -0.677 -6.43448 0
M  V30 3693 N 345.875 1.56104 -0.216619 0
M  V30 3694 C 346.822 2.2007 0.695531 0
M  V30 3695 C 347.792 1.15471 1.19397 0
M  V30 3696 O 348.977 1.43807 1.25396 0
M  V30 3697 C 346.117 2.88073 1.90021 0
M  V30 3698 C 345.23 4.07253 1.44113 0
M  V30 3699 C 344.365 4.63052 2.603 0
M  V30 3700 C 343.404 5.74545 2.11103 0
M  V30 3701 N 342.541 6.24656 3.20545 0
M  V30 3702 H 347.381 2.97655 0.143327 0
M  V30 3703 H 344.918 1.46982 0.0589934 0
M  V30 3704 H 346.876 3.25681 2.60745 0
M  V30 3705 H 345.506 2.13015 2.42538 0
M  V30 3706 H 344.558 3.75164 0.628999 0
M  V30 3707 H 345.87 4.8783 1.04036 0
M  V30 3708 H 345.024 5.03078 3.39113 0
M  V30 3709 H 343.763 3.81628 3.03663 0
M  V30 3710 H 342.768 5.34027 1.3075 0
M  V30 3711 H 343.993 6.57801 1.68746 0
M  V30 3712 H 341.939 5.46148 3.63399 0
M  V30 3713 H 341.856 7.00343 2.84704 0
M  V30 3714 H 343.124 6.69338 3.99508 0
M  V30 3715 N 347.353 -0.0568162 1.57498 0
M  V30 3716 C 348.316 -1.05038 2.03715 0
M  V30 3717 C 349.316 -1.30709 0.936577 0
M  V30 3718 O 350.506 -1.26178 1.20103 0
M  V30 3719 C 347.638 -2.39034 2.43055 0
M  V30 3720 H 348.831 -0.651715 2.92733 0
M  V30 3721 H 346.384 -0.302947 1.53336 0
M  V30 3722 H 347.119 -2.83703 1.57108 0
M  V30 3723 H 346.904 -2.21739 3.2338 0
M  V30 3724 H 348.394 -3.10421 2.79336 0
M  V30 3725 N 348.832 -1.54138 -0.328536 0
M  V30 3726 C 349.782 -1.79557 -1.4051 0
M  V30 3727 C 350.766 -0.651373 -1.47126 0
M  V30 3728 O 351.958 -0.911226 -1.51742 0
M  V30 3729 C 349.087 -2.02196 -2.77438 0
M  V30 3730 C 348.173 -3.22724 -2.75155 0
M  V30 3731 N 348.564 -4.43881 -2.42494 0
M  V30 3732 C 346.862 -3.24196 -3.06289 0
M  V30 3733 C 347.563 -5.25797 -2.48822 0
M  V30 3734 N 346.539 -4.62862 -2.8506 0
M  V30 3735 H 350.341 -2.70814 -1.1418 0
M  V30 3736 H 347.855 -1.53265 -0.536991 0
M  V30 3737 H 349.852 -2.18546 -3.55026 0
M  V30 3738 H 348.512 -1.12191 -3.04702 0
M  V30 3739 H 349.523 -4.70969 -2.15428 0
M  V30 3740 H 346.2 -2.44208 -3.38627 0
M  V30 3741 H 347.59 -6.32535 -2.26603 0
M  V30 3742 N 350.31 0.590341 -1.46126 0
M  V30 3743 C 351.273 1.68194 -1.55703 0
M  V30 3744 C 352.273 1.54808 -0.434868 0
M  V30 3745 O 353.463 1.59564 -0.698928 0
M  V30 3746 C 350.595 3.07575 -1.47005 0
M  V30 3747 H 351.788 1.61064 -2.52979 0
M  V30 3748 H 349.341 0.807541 -1.33823 0
M  V30 3749 H 350.076 3.20268 -0.509785 0
M  V30 3750 H 349.861 3.187 -2.28414 0
M  V30 3751 H 351.351 3.87055 -1.56776 0
M  V30 3752 N 351.788 1.33704 0.83433 0
M  V30 3753 C 352.735 1.24335 1.94447 0
M  V30 3754 C 353.705 0.120991 1.65659 0
M  V30 3755 O 354.89 0.300035 1.88426 0
M  V30 3756 C 352.03 0.993124 3.30501 0
M  V30 3757 C 351.143 2.20217 3.71657 0
M  V30 3758 C 350.278 1.88572 4.96602 0
M  V30 3759 C 349.317 3.05683 5.30306 0
M  V30 3760 N 348.454 2.73997 6.46429 0
M  V30 3761 H 353.294 2.1928 2.01792 0
M  V30 3762 H 350.831 1.09035 0.987404 0
M  V30 3763 H 352.789 0.828467 4.08892 0
M  V30 3764 H 351.419 0.0803902 3.227 0
M  V30 3765 H 350.471 2.47642 2.88752 0
M  V30 3766 H 351.783 3.07752 3.92543 0
M  V30 3767 H 350.937 1.68776 5.82752 0
M  V30 3768 H 349.676 0.982799 4.77695 0
M  V30 3769 H 348.681 3.26088 4.42659 0
M  V30 3770 H 349.906 3.96737 5.51159 0
M  V30 3771 H 347.852 1.86268 6.28999 0
M  V30 3772 H 347.769 3.55064 6.67432 0
M  V30 3773 H 349.037 2.57679 7.35678 0
M  V30 3774 N 353.266 -1.05314 1.17247 0
M  V30 3775 C 354.229 -2.112 0.890357 0
M  V30 3776 C 355.229 -1.60359 -0.118943 0
M  V30 3777 O 356.419 -1.73833 0.113086 0
M  V30 3778 C 353.551 -3.39266 0.333422 0
M  V30 3779 H 354.744 -2.37659 1.82916 0
M  V30 3780 H 352.297 -1.21538 0.982758 0
M  V30 3781 H 353.032 -3.18462 -0.612587 0
M  V30 3782 H 352.817 -3.77477 1.06082 0
M  V30 3783 H 354.307 -4.17315 0.154322 0
M  V30 3784 N 354.744 -0.972509 -1.24016 0
M  V30 3785 C 355.99 -0.647583 -1.92816 0
M  V30 3786 C 356.345 0.809015 -1.74564 0
M  V30 3787 O 355.638 1.57502 -1.09103 0
M  V30 3788 C 355.832 -0.963694 -3.44162 0
M  V30 3789 C 355.661 -2.44947 -3.77135 0
M  V30 3790 C 354.431 -3.11012 -3.98246 0
M  V30 3791 C 356.629 -3.42978 -3.83237 0
M  V30 3792 N 354.611 -4.49277 -4.18358 0
M  V30 3793 C 355.982 -4.66619 -4.08248 0
M  V30 3794 C 358.037 -3.37569 -3.65994 0
M  V30 3795 C 356.74 -5.85516 -4.17808 0
M  V30 3796 C 358.766 -4.55822 -3.76802 0
M  V30 3797 C 358.128 -5.78256 -4.02243 0
M  V30 3798 H 354.227 -0.287894 -0.727077 0
M  V30 3799 H 356.811 -1.24835 -1.49413 0
M  V30 3800 H 354.982 -0.391692 -3.8642 0
M  V30 3801 H 356.714 -0.596849 -4.00275 0
M  V30 3802 H 353.469 -2.61529 -3.94841 0
M  V30 3803 H 353.893 -5.20935 -4.32384 0
M  V30 3804 H 358.535 -2.43945 -3.45327 0
M  V30 3805 H 356.253 -6.79564 -4.37285 0
M  V30 3806 H 359.839 -4.53204 -3.64825 0
M  V30 3807 H 358.719 -6.68231 -4.10411 0
M  V30 3808 N 356.222 1.38976 -0.743202 0
M  V30 3809 C 357.172 2.27843 -0.084513 0
M  V30 3810 C 358.156 1.44677 0.704094 0
M  V30 3811 O 359.348 1.67511 0.571755 0
M  V30 3812 C 356.477 3.33466 0.815781 0
M  V30 3813 C 355.563 4.24095 0.0208844 0
M  V30 3814 N 355.954 4.95609 -1.0102 0
M  V30 3815 C 354.252 4.45303 0.249293 0
M  V30 3816 C 354.953 5.62287 -1.49024 0
M  V30 3817 N 353.929 5.37571 -0.807377 0
M  V30 3818 H 357.731 2.80593 -0.87436 0
M  V30 3819 H 355.245 1.51755 -0.578283 0
M  V30 3820 H 357.242 3.96008 1.30321 0
M  V30 3821 H 355.902 2.82276 1.6047 0
M  V30 3822 H 356.913 4.98849 -1.39176 0
M  V30 3823 H 353.59 4.0504 1.01237 0
M  V30 3824 H 354.98 6.29519 -2.34853 0
M  V30 3825 N 357.7 0.491464 1.49741 0
M  V30 3826 C 358.925 -0.0557177 2.07325 0
M  V30 3827 C 359.35 -1.30925 1.35056 0
M  V30 3828 O 358.708 -1.76733 0.404365 0
M  V30 3829 C 358.756 -0.302074 3.59333 0
M  V30 3830 O 357.86 -1.37868 3.88672 0
M  V30 3831 H 357.201 0.0219956 0.663636 0
M  V30 3832 H 359.731 0.688352 1.92673 0
M  V30 3833 H 359.741 -0.536464 4.04458 0
M  V30 3834 H 358.416 0.61383 4.11345 0
M  V30 3835 H 356.993 -1.12999 3.55367 0
M  V30 3836 N 359.178 -1.55987 0.224894 0
M  V30 3837 C 360.408 -2.02489 -0.41007 0
M  V30 3838 C 360.816 -1.10391 -1.53657 0
M  V30 3839 O 360.159 -0.106458 -1.83391 0
M  V30 3840 C 360.221 -3.45319 -0.999757 0
M  V30 3841 C 359.885 -4.56999 -0.00827976 0
M  V30 3842 C 360.882 -5.13812 0.793314 0
M  V30 3843 C 358.567 -5.02176 0.111442 0
M  V30 3844 C 360.561 -6.14276 1.7013 0
M  V30 3845 C 358.248 -6.02477 1.02296 0
M  V30 3846 C 359.246 -6.58403 1.81643 0
M  V30 3847 O 358.934 -7.56751 2.71262 0
M  V30 3848 H 358.666 -0.667915 -0.104235 0
M  V30 3849 H 361.22 -2.0257 0.339782 0
M  V30 3850 H 359.45 -3.42318 -1.79876 0
M  V30 3851 H 361.139 -3.7545 -1.54248 0
M  V30 3852 H 361.905 -4.79756 0.711288 0
M  V30 3853 H 357.784 -4.58323 -0.49605 0
M  V30 3854 H 361.328 -6.57854 2.32107 0
M  V30 3855 H 357.225 -6.35954 1.10599 0
M  V30 3856 H 357.993 -7.74286 2.65375 0
M  V30 3857 N 360.656 0.0484629 -1.57525 0
M  V30 3858 C 361.604 1.07359 -2.06341 0
M  V30 3859 C 362.598 1.3865 -0.973269 0
M  V30 3860 O 363.804 1.37783 -1.15827 0
M  V30 3861 H 360.179 0.363662 -0.65822 0
M  V30 3862 H 362.15 0.635916 -2.91545 0
M  V30 3863 C 360.899 2.37198 -2.54229 0
M  V30 3864 H 360.222 2.13977 -3.37719 0
M  V30 3865 H 361.662 3.07319 -2.92115 0
M  V30 3866 C 360.121 3.04805 -1.43511 0
M  V30 3867 O 360.651 3.93848 -0.79034 0
M  V30 3868 N 358.857 2.65811 -1.17444 0
M  V30 3869 H 358.404 1.93488 -1.70059 0
M  V30 3870 H 358.362 3.11366 -0.435737 0
M  V30 3871 N 362.134 1.5431 0.320358 0
M  V30 3872 C 363.362 1.76636 1.07738 0
M  V30 3873 C 363.777 0.51649 1.81598 0
M  V30 3874 O 363.134 -0.512942 1.75143 0
M  V30 3875 C 363.185 2.96158 2.07299 0
M  V30 3876 O 362.906 4.16313 1.36438 0
M  V30 3877 C 364.407 3.3072 2.95193 0
M  V30 3878 H 361.627 0.589597 0.320339 0
M  V30 3879 H 364.171 2.01207 0.36551 0
M  V30 3880 H 362.326 2.73851 2.74016 0
M  V30 3881 H 362.74 4.83565 2.03138 0
M  V30 3882 H 364.214 4.17643 3.60941 0
M  V30 3883 H 364.691 2.48026 3.62463 0
M  V30 3884 H 365.297 3.55117 2.34034 0
M  V30 3885 N 363.613 -0.582584 1.46437 0
M  V30 3886 C 364.841 -1.36682 1.55324 0
M  V30 3887 C 365.256 -1.87796 0.194409 0
M  V30 3888 O 364.613 -1.63623 -0.808318 0
M  V30 3889 C 364.664 -2.55426 2.55812 0
M  V30 3890 O 364.385 -2.0643 3.86417 0
M  V30 3891 C 365.886 -3.47976 2.74641 0
M  V30 3892 H 363.106 -0.417545 0.525259 0
M  V30 3893 H 365.65 -0.708219 1.91845 0
M  V30 3894 H 363.805 -3.17275 2.22295 0
M  V30 3895 H 364.219 -2.83762 4.41111 0
M  V30 3896 H 365.693 -4.27775 3.48874 0
M  V30 3897 H 366.17 -3.99919 1.81553 0
M  V30 3898 H 366.776 -2.91962 3.09255 0
M  V30 3899 N 365.091 -1.34144 -0.827227 0
M  V30 3900 C 366.337 -1.27455 -1.58515 0
M  V30 3901 C 366.692 0.155271 -1.91772 0
M  V30 3902 O 365.985 1.10042 -1.56848 0
M  V30 3903 C 366.179 -2.09464 -2.89585 0
M  V30 3904 C 366.008 -3.60276 -2.69131 0
M  V30 3905 C 364.778 -4.29565 -2.66087 0
M  V30 3906 C 366.976 -4.54367 -2.40947 0
M  V30 3907 N 364.958 -5.66252 -2.37132 0
M  V30 3908 C 366.329 -5.79027 -2.21648 0
M  V30 3909 C 368.384 -4.43327 -2.26639 0
M  V30 3910 C 367.087 -6.93891 -1.89492 0
M  V30 3911 C 369.113 -5.58019 -1.95878 0
M  V30 3912 C 368.475 -6.81695 -1.774 0
M  V30 3913 H 364.574 -0.521614 -0.582617 0
M  V30 3914 H 367.158 -1.68811 -0.970105 0
M  V30 3915 H 365.329 -1.70411 -3.49019 0
M  V30 3916 H 367.061 -1.94453 -3.54923 0
M  V30 3917 H 363.816 -3.81959 -2.80008 0
M  V30 3918 H 364.24 -6.38338 -2.25507 0
M  V30 3919 H 368.882 -3.48333 -2.39633 0
M  V30 3920 H 366.6 -7.88871 -1.75236 0
M  V30 3921 H 370.186 -5.5142 -1.85546 0
M  V30 3922 H 369.066 -7.68942 -1.53941 0
M  V30 3923 N 366.569 1.04691 -1.17803 0
M  V30 3924 C 367.985 1.29963 -0.926379 0
M  V30 3925 C 368.185 1.97251 0.411635 0
M  V30 3926 O 367.241 2.24922 1.14744 0
M  V30 3927 C 368.554 2.16447 -2.08737 0
M  V30 3928 C 370.102 2.29814 -2.12496 0
M  V30 3929 C 370.577 3.19661 -3.27995 0
M  V30 3930 N 372.068 3.27247 -3.27816 0
M  V30 3931 C 372.803 3.96906 -4.13827 0
M  V30 3932 N 372.299 4.6895 -5.09959 0
M  V30 3933 N 374.092 3.93122 -4.01761 0
M  V30 3934 H 366.243 0.594182 -2.0392 0
M  V30 3935 H 368.506 0.324649 -0.890678 0
M  V30 3936 H 368.212 1.74304 -3.05469 0
M  V30 3937 H 368.086 3.17103 -2.04268 0
M  V30 3938 H 370.473 2.71196 -1.16347 0
M  V30 3939 H 370.554 1.2877 -2.21025 0
M  V30 3940 H 370.198 2.78991 -4.24413 0
M  V30 3941 H 370.128 4.20722 -3.16703 0
M  V30 3942 H 372.619 2.75921 -2.58217 0
M  V30 3943 H 372.932 5.19679 -5.71974 0
M  V30 3944 H 371.277 4.67875 -5.13924 0
M  V30 3945 H 374.468 3.35967 -3.2595 0
M  V30 3946 H 374.641 4.47139 -4.6901 0
M  V30 3947 N 368.047 0.979072 1.23499 0
M  V30 3948 C 369.272 0.664845 1.96455 0
M  V30 3949 C 369.697 -0.761287 1.72006 0
M  V30 3950 O 369.055 -1.51837 0.990713 0
M  V30 3951 C 369.103 0.959479 3.47601 0
M  V30 3952 O 368.207 0.0508168 4.12369 0
M  V30 3953 H 367.548 0.250185 0.615064 0
M  V30 3954 H 370.078 1.31231 1.5697 0
M  V30 3955 H 370.088 0.895642 3.98048 0
M  V30 3956 H 368.763 1.99876 3.64723 0
M  V30 3957 H 367.34 0.16895 3.72517 0
M  V30 3958 N 369.525 -1.3858 0.750561 0
M  V30 3959 C 370.472 -2.30483 0.120835 0
M  V30 3960 C 371.442 -1.50022 -0.712923 0
M  V30 3961 O 372.627 -1.78662 -0.669676 0
M  V30 3962 C 369.767 -3.36431 -0.768666 0
M  V30 3963 C 368.88 -4.31927 0.0793922 0
M  V30 3964 C 368.015 -5.24944 -0.81283 0
M  V30 3965 C 367.054 -6.12088 0.0390447 0
M  V30 3966 N 366.191 -6.97412 -0.809969 0
M  V30 3967 H 371.031 -2.83761 0.91015 0
M  V30 3968 H 368.568 -1.39707 0.460463 0
M  V30 3969 H 370.526 -3.96462 -1.29898 0
M  V30 3970 H 369.156 -2.8457 -1.5238 0
M  V30 3971 H 368.208 -3.73382 0.727303 0
M  V30 3972 H 369.52 -4.93319 0.737401 0
M  V30 3973 H 368.674 -5.90078 -1.41042 0
M  V30 3974 H 367.413 -4.63911 -1.50458 0
M  V30 3975 H 366.418 -5.45952 0.649328 0
M  V30 3976 H 367.643 -6.75189 0.727809 0
M  V30 3977 H 365.589 -6.38931 -1.48672 0
M  V30 3978 H 365.506 -7.55712 -0.208789 0
M  V30 3979 H 366.774 -7.66959 -1.39263 0
M  V30 3980 N 371.003 -0.499398 -1.49478 0
M  V30 3981 C 371.935 0.316575 -2.27003 0
M  V30 3982 C 372.948 0.932047 -1.33479 0
M  V30 3983 O 374.137 0.815658 -1.58774 0
M  V30 3984 C 371.237 1.46055 -3.05812 0
M  V30 3985 C 370.41 0.952679 -4.26899 0
M  V30 3986 C 369.469 1.97407 -4.87767 0
M  V30 3987 O 368.495 1.54326 -5.4788 0
M  V30 3988 N 369.697 3.30436 -4.77276 0
M  V30 3989 H 372.462 -0.348168 -2.97671 0
M  V30 3990 H 370.023 -0.33185 -1.58463 0
M  V30 3991 H 372.015 2.14135 -3.43407 0
M  V30 3992 H 370.585 2.02948 -2.37762 0
M  V30 3993 H 369.805 0.0968248 -3.94081 0
M  V30 3994 H 371.093 0.59174 -5.05347 0
M  V30 3995 H 370.491 3.68126 -4.29534 0
M  V30 3996 H 369.048 3.94235 -5.19059 0
M  V30 3997 N 372.481 1.55866 -0.233164 0
M  V30 3998 C 373.413 2.18099 0.704668 0
M  V30 3999 C 374.426 1.15334 1.14899 0
M  V30 4000 O 375.615 1.42262 1.07814 0
M  V30 4001 C 372.715 2.7592 1.96777 0
M  V30 4002 C 371.888 4.03969 1.67713 0
M  V30 4003 C 370.947 4.46242 2.78845 0
M  V30 4004 O 369.973 5.12903 2.46818 0
M  V30 4005 N 371.175 4.12886 4.08051 0
M  V30 4006 H 373.94 2.99205 0.172258 0
M  V30 4007 H 371.501 1.61815 -0.0525945 0
M  V30 4008 H 373.493 3.01165 2.70337 0
M  V30 4009 H 372.063 1.99051 2.41034 0
M  V30 4010 H 371.283 3.86459 0.777391 0
M  V30 4011 H 372.571 4.8748 1.4574 0
M  V30 4012 H 371.969 3.59342 4.3691 0
M  V30 4013 H 370.526 4.42997 4.78118 0
M  V30 4014 N 373.959 -0.0401083 1.57549 0
M  V30 4015 C 375.207 -0.731677 1.8839 0
M  V30 4016 C 375.528 -1.76481 0.829425 0
M  V30 4017 O 374.798 -1.95411 -0.1383 0
M  V30 4018 H 373.378 -0.273225 0.695239 0
M  V30 4019 H 376.04 -0.00867725 1.94898 0
M  V30 4020 H 375.136 -1.22816 2.86919 0
M  V30 4021 N 375.437 -1.54477 -0.31217 0
M  V30 4022 C 376.367 -1.87652 -1.38957 0
M  V30 4023 C 377.348 -0.734358 -1.53431 0
M  V30 4024 O 378.533 -0.98911 -1.67123 0
M  V30 4025 C 375.663 -2.11396 -2.75552 0
M  V30 4026 C 374.617 -3.27243 -2.75855 0
M  V30 4027 C 373.943 -3.36382 -4.15633 0
M  V30 4028 C 375.243 -4.64622 -2.38587 0
M  V30 4029 H 376.937 -2.77887 -1.11442 0
M  V30 4030 H 374.483 -1.33707 -0.534655 0
M  V30 4031 H 376.436 -2.33189 -3.51 0
M  V30 4032 H 375.16 -1.17921 -3.04569 0
M  V30 4033 H 373.819 -3.05356 -2.02863 0
M  V30 4034 H 373.467 -2.40445 -4.41809 0
M  V30 4035 H 373.167 -4.14249 -4.1674 0
M  V30 4036 H 374.691 -3.60422 -4.92877 0
M  V30 4037 H 376.105 -4.86219 -3.03749 0
M  V30 4038 H 374.502 -5.45121 -2.50925 0
M  V30 4039 H 375.572 -4.66097 -1.33723 0
M  V30 4040 N 376.915 0.57481 -1.46744 0
M  V30 4041 C 378.161 1.3347 -1.52688 0
M  V30 4042 C 378.494 1.93353 -0.181229 0
M  V30 4043 O 377.769 1.76912 0.808237 0
M  V30 4044 C 378.052 2.45811 -2.63152 0
M  V30 4045 C 377.905 1.90912 -4.07275 0
M  V30 4046 C 379.224 3.47822 -2.69644 0
M  V30 4047 H 376.343 0.483935 -0.555856 0
M  V30 4048 H 378.985 0.644968 -1.78718 0
M  V30 4049 H 377.135 3.04646 -2.41088 0
M  V30 4050 H 378.807 1.36473 -4.4065 0
M  V30 4051 H 377.05 1.21691 -4.16382 0
M  V30 4052 H 377.721 2.72042 -4.80309 0
M  V30 4053 H 380.197 2.9888 -2.895 0
M  V30 4054 H 379.073 4.23876 -3.48742 0
M  V30 4055 H 379.334 4.05555 -1.76005 0
M  V30 4056 N 378.394 1.34581 0.820102 0
M  V30 4057 C 379.642 1.26845 1.57336 0
M  V30 4058 C 379.963 -0.160667 1.94337 0
M  V30 4059 O 379.233 -1.09396 1.6251 0
M  V30 4060 H 377.813 0.466514 0.583415 0
M  V30 4061 H 380.475 1.68526 0.979027 0
M  V30 4062 H 379.571 1.87513 2.4949 0
M  V30 4063 N 379.872 -1.04064 1.18357 0
M  V30 4064 C 381.121 -1.76662 0.973313 0
M  V30 4065 C 381.434 -1.89154 -0.497991 0
M  V30 4066 O 382.64 -2.58606 -0.826762 0
M  V30 4067 C 381.096 -3.17624 1.69242 0
M  V30 4068 C 380.704 -3.13225 3.20303 0
M  V30 4069 C 382.448 -3.946 1.56497 0
M  V30 4070 C 380.355 -4.49046 3.84853 0
M  V30 4071 H 379.285 -0.662214 0.36054 0
M  V30 4072 H 381.936 -1.16553 1.41731 0
M  V30 4073 H 380.318 -3.78129 1.1762 0
M  V30 4074 H 381.492 -2.62172 3.78949 0
M  V30 4075 H 379.807 -2.49749 3.33189 0
M  V30 4076 H 382.404 -4.95042 2.02084 0
M  V30 4077 H 382.747 -4.13074 0.517243 0
M  V30 4078 H 383.28 -3.4067 2.05399 0
M  V30 4079 H 380.019 -4.35777 4.89672 0
M  V30 4080 H 379.539 -5.00203 3.30994 0
M  V30 4081 H 381.218 -5.17961 3.87718 0
M  V30 4082 N 381.35 -0.985608 -1.22978 0
M  V30 4083 C 382.575 -0.675254 -1.961 0
M  V30 4084 C 383 0.752154 -1.72407 0
M  V30 4085 O 382.358 1.5131 -0.998751 0
M  V30 4086 C 382.406 -0.977899 -3.47087 0
M  V30 4087 O 381.51 -0.072685 -4.12336 0
M  V30 4088 H 380.851 -0.253443 -0.613728 0
M  V30 4089 H 383.381 -1.32061 -1.56272 0
M  V30 4090 H 383.391 -0.916739 -3.97567 0
M  V30 4091 H 382.066 -2.01807 -3.63657 0
M  V30 4092 H 380.643 -0.188703 -3.72422 0
M  V30 4093 N 382.828 1.3818 -0.7579 0
M  V30 4094 C 383.758 2.33027 -0.148597 0
M  V30 4095 C 384.739 1.55085 0.69875 0
M  V30 4096 O 385.924 1.83384 0.639053 0
M  V30 4097 C 383.054 3.3928 0.742034 0
M  V30 4098 C 382.008 4.28 -0.00291946 0
M  V30 4099 C 381.334 5.25146 1.00625 0
M  V30 4100 C 382.634 5.08938 -1.17385 0
M  V30 4101 H 384.328 2.84231 -0.940909 0
M  V30 4102 H 381.874 1.36659 -0.453908 0
M  V30 4103 H 383.827 4.046 1.17799 0
M  V30 4104 H 382.551 2.86569 1.56671 0
M  V30 4105 H 381.21 3.64192 -0.419504 0
M  V30 4106 H 380.858 4.68721 1.8251 0
M  V30 4107 H 380.558 5.85361 0.512428 0
M  V30 4108 H 382.082 5.93342 1.44143 0
M  V30 4109 H 383.496 5.67474 -0.815224 0
M  V30 4110 H 381.893 5.7841 -1.59882 0
M  V30 4111 H 382.963 4.42424 -1.98468 0
M  V30 4112 N 384.306 0.507319 1.49211 0
M  V30 4113 C 385.254 -0.281364 2.30892 0
M  V30 4114 C 386.248 -0.95687 1.39787 0
M  V30 4115 O 387.454 -0.883838 1.56807 0
M  V30 4116 H 383.829 -0.109597 0.743971 0
M  V30 4117 H 385.8 0.42744 2.95323 0
M  V30 4118 C 384.549 -1.32918 3.21291 0
M  V30 4119 H 383.872 -0.818799 3.91326 0
M  V30 4120 H 385.312 -1.85288 3.81372 0
M  V30 4121 C 383.771 -2.35074 2.41333 0
M  V30 4122 O 384.301 -3.4108 2.12197 0
M  V30 4123 N 382.507 -2.07705 2.03241 0
M  V30 4124 H 382.054 -1.2152 2.27136 0
M  V30 4125 H 382.012 -2.76283 1.50051 0
M  V30 4126 N 385.784 -1.5574 0.241426 0
M  V30 4127 C 387.024 -2.00714 -0.38644 0
M  V30 4128 C 387.388 -1.12586 -1.55526 0
M  V30 4129 O 388.589 -1.46992 -2.25048 0
M  V30 4130 C 386.86 -3.48534 -0.791128 0
M  V30 4131 S 388.419 -4.15519 -1.41029 0
M  V30 4132 H 385.237 -0.700484 -0.121834 0
M  V30 4133 H 387.839 -1.92243 0.355377 0
M  V30 4134 H 386.543 -4.10342 0.0689225 0
M  V30 4135 H 386.074 -3.6092 -1.56526 0
M  V30 4136 H 388.089 -4.16352 -2.69936 0
M  V30 4137 N 387.262 0.0317525 -1.57568 0
M  V30 4138 C 388.539 0.758366 -1.803 0
M  V30 4139 C 388.919 1.93718 -0.838845 0
M  V30 4140 O 388.267 2.28187 0.119571 0
M  V30 4141 C 388.477 1.19392 -3.27943 0
M  V30 4142 C 389.825 1.61094 -3.92854 0
M  V30 4143 O 390.849 1.28857 -3.32076 0
M  V30 4144 O 389.708 2.20918 -4.99858 0
M  V30 4145 H 386.802 0.366514 -0.741348 0
M  V30 4146 H 389.348 0.00873765 -1.69698 0
M  V30 4147 H 388.12 0.352275 -3.89711 0
M  V30 4148 H 387.743 2.00365 -3.43424 0
M  V30 4149 N 388.74 1.54641 0.303973 0
M  V30 4150 C 389.986 1.74969 1.03718 0
M  V30 4151 C 390.341 0.527461 1.85029 0
M  V30 4152 O 389.634 -0.480143 1.85486 0
M  V30 4153 C 389.828 2.97753 1.97681 0
M  V30 4154 C 389.657 4.318 1.25613 0
M  V30 4155 C 388.427 4.95616 0.984518 0
M  V30 4156 C 390.625 5.10021 0.662081 0
M  V30 4157 N 388.607 6.13455 0.233794 0
M  V30 4158 C 389.978 6.19984 0.0439736 0
M  V30 4159 C 392.033 4.94663 0.566835 0
M  V30 4160 C 390.736 7.16264 -0.66016 0
M  V30 4161 C 392.762 5.91271 -0.123637 0
M  V30 4162 C 392.124 7.00601 -0.730608 0
M  V30 4163 H 388.223 0.692873 0.362562 0
M  V30 4164 H 390.807 1.92116 0.316135 0
M  V30 4165 H 388.978 2.82036 2.6704 0
M  V30 4166 H 390.71 3.06621 2.64132 0
M  V30 4167 H 387.465 4.55921 1.28191 0
M  V30 4168 H 387.889 6.76879 -0.127996 0
M  V30 4169 H 392.531 4.10267 1.02181 0
M  V30 4170 H 390.249 8.00204 -1.12691 0
M  V30 4171 H 393.835 5.81466 -0.197236 0
M  V30 4172 H 392.715 7.7407 -1.2564 0
M  V30 4173 N 390.218 -0.567019 1.47046 0
M  V30 4174 C 391.466 -1.322 1.52864 0
M  V30 4175 C 391.787 -1.94088 0.188388 0
M  V30 4176 O 391.057 -1.7941 -0.786693 0
M  V30 4177 H 389.637 -0.490894 0.563056 0
M  V30 4178 H 392.299 -0.662879 1.83281 0
M  V30 4179 H 391.395 -2.12062 2.2899 0
M  V30 4180 N 391.696 -1.35014 -0.812953 0
M  V30 4181 C 392.606 -1.2951 -1.95613 0
M  V30 4182 C 393.622 -0.20107 -1.72834 0
M  V30 4183 O 394.798 -0.42932 -1.96771 0
M  V30 4184 C 391.863 -1.06033 -3.30088 0
M  V30 4185 C 390.924 -2.24688 -3.65805 0
M  V30 4186 C 390.157 -2.02322 -4.93864 0
M  V30 4187 O 390.38 -0.986464 -5.61805 0
M  V30 4188 O 389.314 -2.89525 -5.27692 0
M  V30 4189 H 393.14 -2.25705 -2.03202 0
M  V30 4190 H 390.725 -1.15321 -0.949811 0
M  V30 4191 H 392.607 -0.94763 -4.10607 0
M  V30 4192 H 391.282 -0.128852 -3.23443 0
M  V30 4193 H 390.189 -2.41521 -2.85689 0
M  V30 4194 H 391.522 -3.16261 -3.77147 0
M  V30 4195 N 393.175 1.03435 -1.18907 0
M  V30 4196 C 394.586 1.58195 -0.991523 0
M  V30 4197 C 394.937 1.90801 0.457081 0
M  V30 4198 O 394.062 1.70272 1.33553 0
M  V30 4199 C 394.657 2.87432 -1.79355 0
M  V30 4200 C 393.216 3.38785 -1.64017 0
M  V30 4201 C 392.363 2.12292 -1.78402 0
M  V30 4202 H 395.314 0.860299 -1.33359 0
M  V30 4203 H 395.335 3.58096 -1.28638 0
M  V30 4204 H 394.847 2.63669 -2.84781 0
M  V30 4205 H 392.948 3.67547 -0.611536 0
M  V30 4206 H 393.061 4.12186 -2.44212 0
M  V30 4207 H 391.425 2.23901 -1.2141 0
M  V30 4208 H 392.208 1.90977 -2.85277 0
M  V30 4209 N 394.653 0.992116 1.22453 0
M  V30 4210 C 395.899 0.668523 1.91464 0
M  V30 4211 C 396.232 -0.797313 1.77078 0
M  V30 4212 O 395.507 -1.5765 1.13916 0
M  V30 4213 C 395.79 1.07424 3.43703 0
M  V30 4214 C 395.643 2.59857 3.67143 0
M  V30 4215 C 396.962 0.626891 4.35612 0
M  V30 4216 H 394.081 0.244341 0.695318 0
M  V30 4217 H 396.723 1.2355 1.44345 0
M  V30 4218 H 394.873 0.591816 3.83966 0
M  V30 4219 H 396.545 3.15764 3.3629 0
M  V30 4220 H 394.788 3.01961 3.11451 0
M  V30 4221 H 395.459 2.83296 4.73759 0
M  V30 4222 H 397.935 1.04125 4.02861 0
M  V30 4223 H 396.811 0.939076 5.40807 0
M  V30 4224 H 397.072 -0.472457 4.39568 0
M  V30 4225 N 396.131 -1.37776 0.765217 0
M  V30 4226 C 397.408 -1.93975 0.251596 0
M  V30 4227 C 397.788 -1.69949 -1.25222 0
M  V30 4228 O 397.136 -1.04457 -2.03226 0
M  V30 4229 C 397.346 -3.43487 0.617895 0
M  V30 4230 C 398.694 -4.20564 0.584029 0
M  V30 4231 O 399.718 -3.5182 0.556888 0
M  V30 4232 O 398.577 -5.43138 0.605291 0
M  V30 4233 H 395.671 -0.82509 0.0561806 0
M  V30 4234 H 398.217 -1.47101 0.846128 0
M  V30 4235 H 396.989 -3.5453 1.65602 0
M  V30 4236 H 396.612 -3.976 -0.00403411 0
M  V30 4237 N 397.609 -0.515225 -1.4894 0
M  V30 4238 C 398.858 0.0261361 -2.01683 0
M  V30 4239 C 399.171 1.36719 -1.39883 0
M  V30 4240 O 400.377 1.99606 -1.84037 0
M  V30 4241 C 398.833 0.0970111 -3.59769 0
M  V30 4242 C 398.441 -1.23825 -4.30548 0
M  V30 4243 C 400.185 0.587981 -4.20408 0
M  V30 4244 C 398.092 -1.12877 -5.80528 0
M  V30 4245 H 397.022 0.0135398 -0.753878 0
M  V30 4246 H 399.673 -0.656787 -1.71343 0
M  V30 4247 H 398.055 0.844694 -3.86886 0
M  V30 4248 H 399.229 -2.00034 -4.15118 0
M  V30 4249 H 397.544 -1.66379 -3.81716 0
M  V30 4250 H 400.141 0.68763 -5.3026 0
M  V30 4251 H 400.484 1.59026 -3.84729 0
M  V30 4252 H 401.017 -0.103582 -3.97665 0
M  V30 4253 H 397.756 -2.10575 -6.20756 0
M  V30 4254 H 397.276 -0.407799 -5.98412 0
M  V30 4255 H 398.955 -0.813332 -6.41868 0
M  V30 4256 N 399.087 1.5561 -0.249682 0
M  V30 4257 C 400.312 2.03865 0.381305 0
M  V30 4258 C 400.737 1.12769 1.50548 0
M  V30 4259 O 400.095 0.121189 1.80895 0
M  V30 4260 C 400.143 3.50101 0.863816 0
M  V30 4261 O 399.247 3.62132 1.97318 0
M  V30 4262 H 398.588 0.658827 0.0827194 0
M  V30 4263 H 401.118 2.01105 -0.376552 0
M  V30 4264 H 401.128 3.90975 1.1663 0
M  V30 4265 H 399.803 4.1588 0.0411816 0
M  V30 4266 H 398.38 3.33155 1.67517 0
M  V30 4267 N 400.565 -0.0233959 1.57583 0
M  V30 4268 C 401.513 -1.04063 2.08023 0
M  V30 4269 C 402.507 -1.37084 0.995204 0
M  V30 4270 O 403.713 -1.35923 1.18004 0
M  V30 4271 H 400.088 -0.353144 0.663922 0
M  V30 4272 H 402.059 -0.589453 2.9252 0
M  V30 4273 C 400.808 -2.33123 2.57971 0
M  V30 4274 H 400.131 -2.08577 3.4108 0
M  V30 4275 H 401.571 -3.02632 2.96967 0
M  V30 4276 C 400.03 -3.02483 1.48342 0
M  V30 4277 O 400.56 -3.92541 0.852898 0
M  V30 4278 N 398.766 -2.63909 1.21658 0
M  V30 4279 H 398.313 -1.90758 1.73116 0
M  V30 4280 H 398.271 -3.10633 0.485218 0
M  V30 4281 N 402.043 -1.548 -0.295768 0
M  V30 4282 C 403.454 -1.65274 -0.868411 0
M  V30 4283 C 403.805 -0.56481 -1.87894 0
M  V30 4284 O 402.93 0.29767 -2.14343 0
M  V30 4285 C 403.525 -2.99603 -1.58188 0
M  V30 4286 C 402.084 -3.12181 -2.10286 0
M  V30 4287 C 401.231 -2.6098 -0.93727 0
M  V30 4288 H 404.182 -1.58534 -0.0726422 0
M  V30 4289 H 404.203 -2.91319 -2.44772 0
M  V30 4290 H 403.715 -3.78764 -0.846151 0
M  V30 4291 H 401.816 -2.3775 -2.8689 0
M  V30 4292 H 401.929 -4.18415 -2.33379 0
M  V30 4293 H 400.293 -2.17564 -1.32431 0
M  V30 4294 H 401.076 -3.42623 -0.215414 0
M  V30 4295 N 403.521 0.559213 -1.47345 0
M  V30 4296 C 404.468 1.66645 -1.59682 0
M  V30 4297 C 405.438 1.60168 -0.43994 0
M  V30 4298 O 406.623 1.79031 -0.659736 0
M  V30 4299 C 403.763 3.04969 -1.61518 0
M  V30 4300 C 402.876 3.21897 -2.88108 0
M  V30 4301 C 402.011 4.50608 -2.81294 0
M  V30 4302 C 401.05 4.60961 -4.02717 0
M  V30 4303 N 400.187 5.81024 -3.94151 0
M  V30 4304 H 405.027 1.55439 -2.54249 0
M  V30 4305 H 402.564 0.757219 -1.26113 0
M  V30 4306 H 404.522 3.85064 -1.60566 0
M  V30 4307 H 403.152 3.15015 -0.704645 0
M  V30 4308 H 402.204 2.35248 -2.98936 0
M  V30 4309 H 403.516 3.25412 -3.78032 0
M  V30 4310 H 402.67 5.3896 -2.7858 0
M  V30 4311 H 401.409 4.49568 -1.89049 0
M  V30 4312 H 400.414 3.71021 -4.05738 0
M  V30 4313 H 401.639 4.63761 -4.96087 0
M  V30 4314 H 399.585 5.80938 -3.04708 0
M  V30 4315 H 399.502 5.85909 -4.77752 0
M  V30 4316 H 400.77 6.71744 -3.9545 0
M  V30 4317 N 404.999 1.35443 0.805782 0
M  V30 4318 C 406.276 1.19325 1.54987 0
M  V30 4319 C 406.656 -0.227294 2.09873 0
M  V30 4320 O 406.004 -1.2309 1.92512 0
M  V30 4321 C 406.214 2.26196 2.65775 0
M  V30 4322 C 407.562 2.62043 3.34094 0
M  V30 4323 O 408.586 2.25115 2.76046 0
M  V30 4324 O 407.445 3.25542 4.38958 0
M  V30 4325 H 404.539 0.463623 0.684823 0
M  V30 4326 H 407.085 1.47127 0.845674 0
M  V30 4327 H 405.857 3.21471 2.23096 0
M  V30 4328 H 405.48 1.99667 3.43829 0
M  V30 4329 N 406.477 -1.02803 1.19454 0
M  V30 4330 C 407.407 -2.12999 0.956758 0
M  V30 4331 C 408.388 -1.69743 -0.110188 0
M  V30 4332 O 409.573 -1.94148 0.0450038 0
M  V30 4333 C 406.703 -3.43746 0.495553 0
M  V30 4334 C 405.657 -4.00688 1.50443 0
M  V30 4335 C 404.983 -5.27067 0.900275 0
M  V30 4336 C 406.283 -4.35397 2.8849 0
M  V30 4337 H 407.977 -2.33148 1.87836 0
M  V30 4338 H 405.523 -1.12045 0.904539 0
M  V30 4339 H 407.476 -4.2021 0.316493 0
M  V30 4340 H 406.2 -3.23321 -0.461646 0
M  V30 4341 H 404.859 -3.2632 1.67065 0
M  V30 4342 H 404.507 -5.02959 -0.064503 0
M  V30 4343 H 404.207 -5.66127 1.57397 0
M  V30 4344 H 405.731 -6.06196 0.73203 0
M  V30 4345 H 407.145 -5.02795 2.75446 0
M  V30 4346 H 405.542 -4.85541 3.52661 0
M  V30 4347 H 406.612 -3.44662 3.41081 0
M  V30 4348 N 407.956 -0.998596 -1.21925 0
M  V30 4349 C 408.866 -0.562736 -2.27751 0
M  V30 4350 C 409.882 0.391203 -1.69545 0
M  V30 4351 O 411.058 0.256625 -1.99758 0
M  V30 4352 C 408.123 0.11012 -3.46525 0
M  V30 4353 C 407.184 -0.887495 -4.20026 0
M  V30 4354 C 406.417 -0.246654 -5.3313 0
M  V30 4355 O 406.64 0.958088 -5.62296 0
M  V30 4356 O 405.574 -0.954374 -5.94286 0
M  V30 4357 H 409.4 -1.44329 -2.67213 0
M  V30 4358 H 406.985 -0.767135 -1.28201 0
M  V30 4359 H 408.867 0.486756 -4.18579 0
M  V30 4360 H 407.542 0.965154 -3.08976 0
M  V30 4361 H 406.449 -1.31517 -3.5022 0
M  V30 4362 H 407.782 -1.71191 -4.6147 0
M  V30 4363 N 409.434 1.37368 -0.772513 0
M  V30 4364 C 410.397 2.28601 -0.165541 0
M  V30 4365 C 411.397 1.48062 0.627238 0
M  V30 4366 O 412.587 1.68268 0.450715 0
M  V30 4367 C 409.719 3.32023 0.772897 0
M  V30 4368 H 410.912 2.83787 -0.969787 0
M  V30 4369 H 408.465 1.46647 -0.540775 0
M  V30 4370 H 409.2 2.81962 1.60212 0
M  V30 4371 H 408.985 3.91555 0.206585 0
M  V30 4372 H 410.475 4.00197 1.19298 0
M  V30 4373 N 410.912 0.523116 1.48665 0
M  V30 4374 C 411.875 -0.232592 2.28017 0
M  V30 4375 C 412.875 -0.874021 1.34972 0
M  V30 4376 O 414.065 -0.735132 1.57929 0
M  V30 4377 C 411.197 -1.33586 3.13636 0
M  V30 4378 H 412.39 0.464008 2.96289 0
M  V30 4379 H 409.943 0.278816 1.53793 0
M  V30 4380 H 410.678 -2.06593 2.4998 0
M  V30 4381 H 410.463 -0.881125 3.82071 0
M  V30 4382 H 411.953 -1.86759 3.73511 0
M  V30 4383 N 412.39 -1.55475 0.257931 0
M  V30 4384 C 413.3 -2.2549 -0.647425 0
M  V30 4385 C 414.316 -1.2748 -1.18427 0
M  V30 4386 O 415.492 -1.6038 -1.2182 0
M  V30 4387 C 412.557 -2.94916 -1.82278 0
M  V30 4388 C 411.618 -4.08363 -1.32432 0
M  V30 4389 C 410.851 -4.74469 -2.44366 0
M  V30 4390 O 411.074 -4.39701 -3.63344 0
M  V30 4391 O 410.008 -5.62763 -2.13497 0
M  V30 4392 H 413.834 -3.03593 -0.0807707 0
M  V30 4393 H 411.419 -1.49377 0.0259962 0
M  V30 4394 H 413.301 -3.38606 -2.50846 0
M  V30 4395 H 411.976 -2.19744 -2.37685 0
M  V30 4396 H 410.883 -3.69166 -0.605605 0
M  V30 4397 H 412.216 -4.85385 -0.816211 0
M  V30 4398 N 413.868 0.0150385 -1.57593 0
M  V30 4399 C 415.284 0.370907 -1.5523 0
M  V30 4400 C 415.484 1.75735 -0.985882 0
M  V30 4401 O 414.54 2.44944 -0.613077 0
M  V30 4402 C 415.853 0.259908 -2.99575 0
M  V30 4403 C 417.401 0.335959 -3.11192 0
M  V30 4404 C 417.876 0.254253 -4.57294 0
M  V30 4405 N 419.367 0.312618 -4.62144 0
M  V30 4406 C 420.102 0.272505 -5.72752 0
M  V30 4407 N 419.598 0.183864 -6.92556 0
M  V30 4408 N 421.391 0.323267 -5.6117 0
M  V30 4409 H 413.542 -0.892104 -1.92757 0
M  V30 4410 H 415.805 -0.340563 -0.884715 0
M  V30 4411 H 415.511 -0.693403 -3.44797 0
M  V30 4412 H 415.385 1.048 -3.62349 0
M  V30 4413 H 417.772 1.27971 -2.65909 0
M  V30 4414 H 417.853 -0.481739 -2.51223 0
M  V30 4415 H 417.497 -0.685887 -5.03247 0
M  V30 4416 H 417.427 1.09024 -5.15191 0
M  V30 4417 H 419.918 0.38307 -3.75953 0
M  V30 4418 H 420.231 0.15874 -7.72637 0
M  V30 4419 H 418.576 0.149708 -6.94839 0
M  V30 4420 H 421.767 0.390607 -4.66467 0
M  V30 4421 H 421.94 0.288539 -6.47357 0
M  V30 4422 N 415.346 1.54954 0.287554 0
M  V30 4423 C 416.576 1.78622 1.03816 0
M  V30 4424 C 416.984 0.552451 1.80955 0
M  V30 4425 O 416.327 -0.487665 1.77109 0
M  V30 4426 C 416.389 2.94975 2.055 0
M  V30 4427 C 416.053 4.32565 1.47433 0
M  V30 4428 C 417.05 5.12096 0.897436 0
M  V30 4429 C 414.735 4.79195 1.50591 0
M  V30 4430 C 416.729 6.36383 0.359851 0
M  V30 4431 C 414.416 6.03441 0.964459 0
M  V30 4432 C 415.414 6.81872 0.392413 0
M  V30 4433 O 415.102 8.03777 -0.140788 0
M  V30 4434 H 414.834 0.599144 0.313053 0
M  V30 4435 H 417.388 2.02761 0.328225 0
M  V30 4436 H 415.618 2.66493 2.80211 0
M  V30 4437 H 417.307 3.06097 2.6657 0
M  V30 4438 H 418.073 4.77209 0.865841 0
M  V30 4439 H 413.952 4.18167 1.94055 0
M  V30 4440 H 417.496 6.97545 -0.0872951 0
M  V30 4441 H 413.393 6.37813 0.993246 0
M  V30 4442 H 414.161 8.18495 -0.0287617 0
M  V30 4443 N 416.824 -0.551391 1.4764 0
M  V30 4444 C 417.754 -1.66757 1.63445 0
M  V30 4445 C 418.735 -1.63077 0.483742 0
M  V30 4446 O 419.92 -1.80607 0.71377 0
M  V30 4447 C 417.05 -3.05387 1.65396 0
M  V30 4448 C 416.004 -3.23918 2.79752 0
M  V30 4449 C 415.33 -4.63393 2.66779 0
M  V30 4450 C 416.63 -3.08735 4.21284 0
M  V30 4451 H 418.324 -1.53786 2.56886 0
M  V30 4452 H 415.87 -0.738415 1.23626 0
M  V30 4453 H 417.823 -3.83325 1.75043 0
M  V30 4454 H 416.547 -3.19332 0.685195 0
M  V30 4455 H 415.206 -2.48391 2.69625 0
M  V30 4456 H 414.854 -4.74144 1.67918 0
M  V30 4457 H 414.554 -4.7674 3.43501 0
M  V30 4458 H 416.078 -5.43458 2.78364 0
M  V30 4459 H 417.492 -3.76484 4.32357 0
M  V30 4460 H 415.889 -3.33588 4.98838 0
M  V30 4461 H 416.959 -2.0541 4.39243 0
M  V30 4462 N 418.302 -1.35869 -0.798587 0
M  V30 4463 C 419.234 -1.25305 -1.91915 0
M  V30 4464 C 420.247 -0.174548 -1.61862 0
M  V30 4465 O 421.436 -0.428499 -1.73281 0
M  V30 4466 C 418.536 -0.9086 -3.26493 0
M  V30 4467 C 417.709 -2.08711 -3.84394 0
M  V30 4468 C 416.768 -1.71717 -4.97393 0
M  V30 4469 O 415.794 -2.43692 -5.14396 0
M  V30 4470 N 416.996 -0.645473 -5.769 0
M  V30 4471 H 419.761 -2.21849 -2.01502 0
M  V30 4472 H 417.322 -1.29143 -0.976408 0
M  V30 4473 H 419.314 -0.642455 -3.99568 0
M  V30 4474 H 417.884 -0.0325815 -3.12583 0
M  V30 4475 H 417.104 -2.51659 -3.03416 0
M  V30 4476 H 418.392 -2.87468 -4.19809 0
M  V30 4477 H 417.79 -0.047648 -5.6568 0
M  V30 4478 H 416.347 -0.43913 -6.50319 0
M  V30 4479 N 419.78 1.02168 -1.19998 0
M  V30 4480 C 421.027 1.75685 -1.00702 0
M  V30 4481 C 421.355 1.88947 0.461426 0
M  V30 4482 O 420.61 1.40832 1.35885 0
M  V30 4483 C 420.909 3.18081 -1.62969 0
M  V30 4484 C 420.575 3.24809 -3.12746 0
M  V30 4485 C 419.237 3.26352 -3.53621 0
M  V30 4486 C 421.589 3.23379 -4.08749 0
M  V30 4487 C 418.917 3.2413 -4.89036 0
M  V30 4488 C 421.269 3.22698 -5.44104 0
M  V30 4489 C 419.933 3.22542 -5.84399 0
M  V30 4490 H 419.203 0.642877 -0.368496 0
M  V30 4491 H 421.85 1.19865 -1.49348 0
M  V30 4492 H 420.155 3.77027 -1.06573 0
M  V30 4493 H 421.852 3.73648 -1.45561 0
M  V30 4494 H 418.442 3.2434 -2.80181 0
M  V30 4495 H 422.626 3.21361 -3.78207 0
M  V30 4496 H 417.882 3.22338 -5.19527 0
M  V30 4497 H 422.056 3.20543 -6.18244 0
M  V30 4498 H 419.683 3.20575 -6.89301 0
M  V30 4499 N 421.258 1.00505 1.21394 0
M  V30 4500 C 422.498 0.696149 1.9218 0
M  V30 4501 C 422.862 -0.759099 1.76357 0
M  V30 4502 O 424.063 -1.17998 2.41516 0
M  V30 4503 C 422.334 1.10571 3.39866 0
M  V30 4504 S 423.893 0.91702 4.29111 0
M  V30 4505 H 420.711 0.254147 0.664026 0
M  V30 4506 H 423.313 1.28988 1.46909 0
M  V30 4507 H 422.017 2.16096 3.489 0
M  V30 4508 H 421.548 0.504268 3.90155 0
M  V30 4509 H 423.563 -0.185855 4.95852 0
M  V30 4510 N 422.737 -1.36956 0.779787 0
M  V30 4511 C 423.667 -2.32761 0.185651 0
M  V30 4512 C 424.648 -1.56177 -0.673989 0
M  V30 4513 O 425.833 -1.84378 -0.609797 0
M  V30 4514 C 422.963 -3.40418 -0.687964 0
M  V30 4515 C 421.917 -4.27941 0.0710102 0
M  V30 4516 C 421.243 -5.26681 -0.922573 0
M  V30 4517 C 422.543 -5.07006 1.25467 0
M  V30 4518 H 424.237 -2.82698 0.986008 0
M  V30 4519 H 421.783 -1.3592 0.475592 0
M  V30 4520 H 423.736 -4.06423 -1.11348 0
M  V30 4521 H 422.46 -2.89025 -1.52093 0
M  V30 4522 H 421.119 -3.63478 0.47739 0
M  V30 4523 H 420.767 -4.71565 -1.7503 0
M  V30 4524 H 420.467 -5.86103 -0.419237 0
M  V30 4525 H 421.991 -5.9556 -1.34686 0
M  V30 4526 H 423.405 -5.66105 0.905401 0
M  V30 4527 H 421.802 -5.75793 1.69063 0
M  V30 4528 H 422.872 -4.3921 2.05481 0
M  V30 4529 N 424.215 -0.530993 -1.48385 0
M  V30 4530 C 425.463 0.00273189 -2.021 0
M  V30 4531 C 425.784 1.34672 -1.41027 0
M  V30 4532 O 425.054 1.8724 -0.576012 0
M  V30 4533 H 423.634 0.00399774 -0.746989 0
M  V30 4534 H 426.296 -0.695054 -1.82085 0
M  V30 4535 H 425.392 0.11031 -3.11905 0
M  V30 4536 N 425.693 1.55336 -0.266172 0
M  V30 4537 C 426.939 2.00423 0.346714 0
M  V30 4538 C 427.294 1.15132 1.54151 0
M  V30 4539 O 426.587 0.211289 1.90431 0
M  V30 4540 C 426.781 3.48606 0.787957 0
M  V30 4541 C 426.61 4.48236 -0.362535 0
M  V30 4542 C 425.38 4.98211 -0.843445 0
M  V30 4543 C 427.578 5.00199 -1.19603 0
M  V30 4544 N 425.56 5.81625 -1.96434 0
M  V30 4545 C 426.931 5.80973 -2.16497 0
M  V30 4546 C 428.986 4.82458 -1.2304 0
M  V30 4547 C 427.689 6.45896 -3.1656 0
M  V30 4548 C 429.715 5.48174 -2.21944 0
M  V30 4549 C 429.077 6.28751 -3.17571 0
M  V30 4550 H 425.176 0.776535 0.0922914 0
M  V30 4551 H 427.76 1.90792 -0.388154 0
M  V30 4552 H 425.931 3.58597 1.49207 0
M  V30 4553 H 427.663 3.80538 1.37742 0
M  V30 4554 H 424.418 4.71696 -0.424271 0
M  V30 4555 H 424.842 6.28025 -2.52813 0
M  V30 4556 H 429.484 4.19774 -0.504903 0
M  V30 4557 H 427.202 7.07734 -3.90048 0
M  V30 4558 H 430.788 5.36392 -2.25333 0
M  V30 4559 H 429.668 6.78703 -3.92851 0
M  V30 4560 N 427.171 -0.0066808 1.57599 0
M  V30 4561 C 428.418 -0.69292 1.90276 0
M  V30 4562 C 428.746 -1.74148 0.866192 0
M  V30 4563 O 428.001 -1.95268 -0.129933 0
M  V30 4564 C 428.3 -1.37939 3.29708 0
M  V30 4565 C 427.966 -0.464679 4.48499 0
M  V30 4566 C 426.628 -0.212809 4.80729 0
M  V30 4567 C 428.98 0.16551 5.20937 0
M  V30 4568 C 426.308 0.677653 5.82773 0
M  V30 4569 C 428.66 1.04381 6.23929 0
M  V30 4570 C 427.324 1.30492 6.54621 0
M  V30 4571 H 426.594 -0.253558 0.696268 0
M  V30 4572 H 429.241 0.0474123 1.91441 0
M  V30 4573 H 427.546 -2.1936 3.24636 0
M  V30 4574 H 429.243 -1.9163 3.52249 0
M  V30 4575 H 425.833 -0.671153 4.23313 0
M  V30 4576 H 430.017 -0.0160756 4.96297 0
M  V30 4577 H 425.273 0.88803 6.04917 0
M  V30 4578 H 429.447 1.53851 6.79193 0
M  V30 4579 H 427.074 1.99662 7.33512 0
M  V30 4580 N 428.649 -1.55105 -0.279332 0
M  V30 4581 C 429.612 -1.86783 -1.32834 0
M  V30 4582 C 430.612 -0.74199 -1.42657 0
M  V30 4583 O 431.802 -1.0102 -1.41918 0
M  V30 4584 C 428.934 -2.06746 -2.71052 0
M  V30 4585 H 430.127 -2.8055 -1.05979 0
M  V30 4586 H 427.68 -1.47499 -0.517087 0
M  V30 4587 H 428.415 -1.15339 -3.03097 0
M  V30 4588 H 428.2 -2.88711 -2.65309 0
M  V30 4589 H 429.69 -2.32549 -3.46858 0
M  V30 4590 N 430.127 0.543554 -1.4793 0
M  V30 4591 C 431.075 1.67039 -1.61866 0
M  V30 4592 C 432.069 1.62294 -0.48549 0
M  V30 4593 O 433.275 1.67315 -0.66376 0
M  V30 4594 H 429.65 0.552954 -0.509652 0
M  V30 4595 H 431.621 1.52426 -2.56533 0
M  V30 4596 C 430.37 3.05357 -1.6629 0
M  V30 4597 H 429.693 3.09696 -2.5284 0
M  V30 4598 H 431.133 3.83855 -1.80088 0
M  V30 4599 C 429.592 3.34531 -0.398861 0
M  V30 4600 O 430.122 3.98649 0.494162 0
M  V30 4601 N 428.328 2.89299 -0.2747 0
M  V30 4602 H 427.875 2.37298 -1.00236 0
M  V30 4603 H 427.833 3.09188 0.570075 0
M  V30 4604 N 431.605 1.3629 0.791371 0
M  V30 4605 C 433.016 1.27225 1.36641 0
M  V30 4606 C 433.367 -0.0887968 1.95999 0
M  V30 4607 O 432.492 -0.990207 1.92416 0
M  V30 4608 C 433.087 2.30375 2.48421 0
M  V30 4609 C 431.646 2.25004 3.01746 0
M  V30 4610 C 430.793 2.15259 1.7481 0
M  V30 4611 H 433.744 1.47198 0.593173 0
M  V30 4612 H 433.765 1.93905 3.27385 0
M  V30 4613 H 433.277 3.29422 2.05189 0
M  V30 4614 H 431.378 1.29417 3.49403 0
M  V30 4615 H 431.491 3.1761 3.58693 0
M  V30 4616 H 429.855 1.61482 1.96966 0
M  V30 4617 H 430.638 3.16191 1.33709 0
M  V30 4618 N 433.083 -1.0153 1.20538 0
M  V30 4619 C 434.332 -1.74558 1.01057 0
M  V30 4620 C 434.645 -1.90168 -0.457756 0
M  V30 4621 O 435.851 -2.60301 -0.771722 0
M  V30 4622 C 434.307 -3.13963 1.75941 0
M  V30 4623 C 433.915 -3.06361 3.26875 0
M  V30 4624 C 435.659 -3.91191 1.64832 0
M  V30 4625 C 433.566 -4.40782 3.94291 0
M  V30 4626 H 432.496 -0.654417 0.374505 0
M  V30 4627 H 435.147 -1.13521 1.44171 0
M  V30 4628 H 433.529 -3.75549 1.25614 0
M  V30 4629 H 434.703 -2.54074 3.84425 0
M  V30 4630 H 433.018 -2.42625 3.38411 0
M  V30 4631 H 435.615 -4.90644 2.12539 0
M  V30 4632 H 435.958 -4.11884 0.604745 0
M  V30 4633 H 436.491 -3.36236 2.12579 0
M  V30 4634 H 433.23 -4.25292 4.98805 0
M  V30 4635 H 432.75 -4.9307 3.41529 0
M  V30 4636 H 434.429 -5.09621 3.98617 0
M  V30 4637 N 434.561 -1.01147 -1.20859 0
M  V30 4638 C 435.791 -0.715872 -1.93801 0
M  V30 4639 C 436.199 0.726592 -1.74692 0
M  V30 4640 O 435.542 1.50397 -1.05482 0
M  V30 4641 C 435.604 -0.965269 -3.46299 0
M  V30 4642 C 435.268 -2.39584 -3.89164 0
M  V30 4643 C 436.265 -3.3764 -3.95342 0
M  V30 4644 C 433.95 -2.73522 -4.21297 0
M  V30 4645 C 435.944 -4.67698 -4.33056 0
M  V30 4646 C 433.631 -4.03794 -4.58687 0
M  V30 4647 C 434.629 -5.00693 -4.64538 0
M  V30 4648 O 434.317 -6.28635 -5.01072 0
M  V30 4649 H 434.049 -0.262524 -0.622942 0
M  V30 4650 H 436.603 -1.35413 -1.54443 0
M  V30 4651 H 434.833 -0.269847 -3.85757 0
M  V30 4652 H 436.522 -0.662051 -4.00464 0
M  V30 4653 H 437.288 -3.12757 -3.70686 0
M  V30 4654 H 433.167 -1.9879 -4.15937 0
M  V30 4655 H 436.711 -5.4333 -4.37537 0
M  V30 4656 H 432.608 -4.28459 -4.82797 0
M  V30 4657 H 433.376 -6.32847 -5.19083 0
M  V30 4658 N 436.039 1.36541 -0.78704 0
M  V30 4659 C 437.002 2.28413 -0.189778 0
M  V30 4660 C 438.002 1.48719 0.611499 0
M  V30 4661 O 439.192 1.68737 0.432842 0
M  V30 4662 C 436.324 3.32824 0.737638 0
M  V30 4663 H 437.517 2.82743 -0.999831 0
M  V30 4664 H 435.07 1.46065 -0.556298 0
M  V30 4665 H 435.805 2.83646 1.57212 0
M  V30 4666 H 435.59 3.91752 0.165044 0
M  V30 4667 H 437.08 4.0144 1.15047 0
M  V30 4668 N 437.518 0.538854 1.48102 0
M  V30 4669 C 438.766 0.00798599 2.02098 0
M  V30 4670 C 439.087 -1.33922 1.41739 0
M  V30 4671 O 438.357 -1.86932 0.585934 0
M  V30 4672 H 436.937 -3.62179e-05 0.747 0
M  V30 4673 H 439.599 0.7047 1.81714 0
M  V30 4674 H 438.695 -0.0937672 3.11959 0
M  V30 4675 N 438.996 -1.55193 0.274407 0
M  V30 4676 C 440.273 -1.91584 -0.394331 0
M  V30 4677 C 440.653 -1.19858 -1.73774 0
M  V30 4678 O 440.001 -0.3252 -2.26174 0
M  V30 4679 C 440.211 -3.4487 -0.535311 0
M  V30 4680 C 441.559 -4.16636 -0.818534 0
M  V30 4681 O 442.583 -3.5076 -0.620146 0
M  V30 4682 O 441.442 -5.33209 -1.19792 0
M  V30 4683 H 438.536 -0.798349 -0.215794 0
M  V30 4684 H 441.082 -1.66646 0.320507 0
M  V30 4685 H 439.854 -3.89145 0.410141 0
M  V30 4686 H 439.477 -3.75759 -1.29964 0
M  V30 4687 N 440.474 -0.00167713 -1.576 0
M  V30 4688 C 441.704 0.692754 -1.94639 0
M  V30 4689 C 442.112 1.67744 -0.87513 0
M  V30 4690 O 441.455 1.8305 0.154382 0
M  V30 4691 C 441.517 1.47881 -3.27676 0
M  V30 4692 C 441.181 0.655518 -4.52274 0
M  V30 4693 C 442.178 -0.0575214 -5.19868 0
M  V30 4694 C 439.863 0.600994 -4.98692 0
M  V30 4695 C 441.857 -0.814052 -6.3218 0
M  V30 4696 C 439.544 -0.15926 -6.10892 0
M  V30 4697 C 440.542 -0.865515 -6.77494 0
M  V30 4698 O 440.23 -1.61336 -7.87544 0
M  V30 4699 H 439.962 0.197792 -0.646417 0
M  V30 4700 H 442.516 -0.049423 -2.05341 0
M  V30 4701 H 440.746 2.2655 -3.13388 0
M  V30 4702 H 442.435 2.05874 -3.49816 0
M  V30 4703 H 443.201 -0.0245611 -4.84994 0
M  V30 4704 H 439.08 1.14025 -4.46676 0
M  V30 4705 H 442.624 -1.36584 -6.84098 0
M  V30 4706 H 438.521 -0.194035 -6.45208 0
M  V30 4707 H 439.289 -1.53025 -8.04068 0
M  V30 4708 N 441.952 1.55251 0.271103 0
M  V30 4709 C 443.363 1.66635 0.842007 0
M  V30 4710 C 443.714 0.594631 1.86972 0
M  V30 4711 O 442.839 -0.263532 2.14789 0
M  V30 4712 C 443.434 3.02082 1.53401 0
M  V30 4713 C 441.993 3.15487 2.05293 0
M  V30 4714 C 441.14 2.62438 0.895631 0
M  V30 4715 H 444.091 1.58629 0.0474117 0
M  V30 4716 H 444.112 2.95176 2.40107 0
M  V30 4717 H 443.624 3.80062 0.785786 0
M  V30 4718 H 441.725 2.42284 2.83071 0
M  V30 4719 H 441.838 4.22075 2.26693 0
M  V30 4720 H 440.202 2.19644 1.28953 0
M  V30 4721 H 440.985 3.42923 0.160878 0
M  V30 4722 N 443.43 -0.535701 1.48216 0
M  V30 4723 C 444.362 -1.65662 1.58394 0
M  V30 4724 C 445.375 -1.5591 0.468607 0
M  V30 4725 O 446.564 -1.62475 0.7392 0
M  V30 4726 C 443.664 -3.04276 1.4923 0
M  V30 4727 C 442.837 -3.39567 2.75705 0
M  V30 4728 C 441.896 -4.57436 2.60075 0
M  V30 4729 O 440.922 -4.60942 3.33948 0
M  V30 4730 N 442.124 -5.55259 1.69315 0
M  V30 4731 H 444.889 -1.5737 2.55058 0
M  V30 4732 H 442.45 -0.722845 1.44867 0
M  V30 4733 H 444.442 -3.80994 1.36477 0
M  V30 4734 H 443.012 -3.06677 0.605632 0
M  V30 4735 H 442.232 -2.52083 3.03064 0
M  V30 4736 H 443.52 -3.59929 3.59623 0
M  V30 4737 H 442.918 -5.552 1.08489 0
M  V30 4738 H 441.475 -6.31218 1.62504 0
M  V30 4739 N 444.908 -1.36708 -0.784132 0
M  V30 4740 C 446.154 -1.31426 -1.54451 0
M  V30 4741 C 446.487 0.10476 -1.93917 0
M  V30 4742 O 445.762 1.05934 -1.6312 0
M  V30 4743 C 446.045 -2.24189 -2.818 0
M  V30 4744 C 445.898 -3.74813 -2.48667 0
M  V30 4745 C 447.217 -2.15626 -3.83658 0
M  V30 4746 H 444.336 -0.478739 -0.560337 0
M  V30 4747 H 446.978 -1.67305 -0.900498 0
M  V30 4748 H 445.128 -1.93722 -3.36755 0
M  V30 4749 H 446.8 -4.15823 -1.99722 0
M  V30 4750 H 445.043 -3.93989 -1.81535 0
M  V30 4751 H 445.714 -4.35138 -3.39646 0
M  V30 4752 H 448.19 -2.42456 -3.38163 0
M  V30 4753 H 447.066 -2.82694 -4.70506 0
M  V30 4754 H 447.327 -1.14522 -4.27009 0
M  V30 4755 N 446.386 1.0089 -1.21074 0
M  V30 4756 C 447.319 2.09279 -0.909806 0
M  V30 4757 C 448.297 1.61986 0.141145 0
M  V30 4758 O 449.481 1.88495 0.0130332 0
M  V30 4759 C 446.608 3.36723 -0.365374 0
M  V30 4760 C 445.654 4.02919 -1.39852 0
M  V30 4761 S 446.487 4.45835 -2.96633 0
M  V30 4762 C 447.643 5.76471 -2.43786 0
M  V30 4763 H 447.876 2.34484 -1.82769 0
M  V30 4764 H 445.409 1.14115 -1.04006 0
M  V30 4765 H 447.367 4.10459 -0.0578203 0
M  V30 4766 H 446.028 3.09577 0.531136 0
M  V30 4767 H 445.221 4.94634 -0.967117 0
M  V30 4768 H 444.823 3.35441 -1.65395 0
M  V30 4769 H 447.115 6.52027 -1.84029 0
M  V30 4770 H 448.058 6.24418 -3.33928 0
M  V30 4771 H 448.466 5.33104 -1.85636 0
M  V30 4772 N 447.864 1.01787 1.20321 0
M  V30 4773 C 448.811 0.589197 2.23153 0
M  V30 4774 C 449.781 -0.391367 1.61423 0
M  V30 4775 O 450.966 -0.290518 1.88575 0
M  V30 4776 C 448.106 -0.0650747 3.45039 0
M  V30 4777 C 447.219 0.960207 4.21194 0
M  V30 4778 C 446.354 0.276854 5.30478 0
M  V30 4779 C 445.393 1.2888 5.98378 0
M  V30 4780 N 444.53 0.632031 6.99249 0
M  V30 4781 H 449.37 1.47071 2.59179 0
M  V30 4782 H 446.907 0.736192 1.27352 0
M  V30 4783 H 448.865 -0.461552 4.14639 0
M  V30 4784 H 447.495 -0.910233 3.09701 0
M  V30 4785 H 446.547 1.47484 3.50646 0
M  V30 4786 H 447.859 1.72977 4.67847 0
M  V30 4787 H 447.013 -0.175056 6.06447 0
M  V30 4788 H 445.752 -0.525004 4.84866 0
M  V30 4789 H 444.757 1.75109 5.21169 0
M  V30 4790 H 445.982 2.09196 6.46076 0
M  V30 4791 H 443.928 -0.149935 6.55829 0
M  V30 4792 H 443.845 1.33964 7.44036 0
M  V30 4793 H 445.113 0.203755 7.79234 0
M  V30 4794 N 449.342 -1.36122 0.79427 0
M  V30 4795 C 450.619 -1.93398 0.292685 0
M  V30 4796 C 450.999 -1.72567 -1.21589 0
M  V30 4797 O 450.347 -1.08745 -2.00965 0
M  V30 4798 C 450.557 -3.42099 0.690614 0
M  V30 4799 C 451.905 -4.19231 0.673105 0
M  V30 4800 O 452.929 -3.50559 0.631389 0
M  V30 4801 O 451.788 -5.41732 0.720362 0
M  V30 4802 H 448.882 -0.823712 0.0736693 0
M  V30 4803 H 451.428 -1.45273 0.87714 0
M  V30 4804 H 450.2 -3.50938 1.73085 0
M  V30 4805 H 449.823 -3.97519 0.0803036 0
M  V30 4806 N 450.82 -0.546701 -1.47814 0
M  V30 4807 C 452.05 -0.0232519 -2.06587 0
M  V30 4808 C 452.458 1.2712 -1.40133 0
M  V30 4809 O 451.801 1.77091 -0.488305 0
M  V30 4810 C 451.863 0.254117 -3.58601 0
M  V30 4811 C 451.527 -0.949331 -4.47031 0
M  V30 4812 C 452.524 -1.85216 -4.85789 0
M  V30 4813 C 450.209 -1.16104 -4.88697 0
M  V30 4814 C 452.203 -2.95047 -5.65001 0
M  V30 4815 C 449.89 -2.26247 -5.67676 0
M  V30 4816 C 450.888 -3.1555 -6.05737 0
M  V30 4817 O 450.576 -4.23784 -6.83127 0
M  V30 4818 H 450.308 -0.0380082 -0.674931 0
M  V30 4819 H 452.862 -0.756631 -1.90956 0
M  V30 4820 H 451.092 1.04168 -3.72406 0
M  V30 4821 H 452.781 0.72167 -3.99433 0
M  V30 4822 H 453.547 -1.70061 -4.54207 0
M  V30 4823 H 449.426 -0.475159 -4.58545 0
M  V30 4824 H 452.97 -3.64778 -5.94628 0
M  V30 4825 H 448.867 -2.41379 -5.98671 0
M  V30 4826 H 449.635 -4.21701 -7.01506 0
M  V30 4827 N 452.299 1.55045 -0.282633 0
M  V30 4828 C 453.548 1.98938 0.332667 0
M  V30 4829 C 453.861 1.17455 1.56409 0
M  V30 4830 O 455.067 1.51527 2.25282 0
M  V30 4831 C 453.523 3.54105 0.643226 0
M  V30 4832 C 453.131 4.44374 -0.568814 0
M  V30 4833 C 454.875 4.06569 1.22074 0
M  V30 4834 C 452.782 5.90943 -0.232426 0
M  V30 4835 H 451.712 0.743043 0.128075 0
M  V30 4836 H 454.363 1.79341 -0.388464 0
M  V30 4837 H 452.745 3.69532 1.42346 0
M  V30 4838 H 453.919 4.40718 -1.34551 0
M  V30 4839 H 452.234 4.02585 -1.06369 0
M  V30 4840 H 454.831 5.13626 1.48635 0
M  V30 4841 H 455.174 3.56057 2.15707 0
M  V30 4842 H 455.707 3.94612 0.502621 0
M  V30 4843 H 452.446 6.45567 -1.13683 0
M  V30 4844 H 451.966 5.9765 0.507357 0
M  V30 4845 H 453.645 6.4677 0.172657 0
M  V30 4846 N 453.777 0.010035 1.57597 0
M  V30 4847 C 455.025 -0.671371 1.90623 0
M  V30 4848 C 455.346 -1.73753 0.885151 0
M  V30 4849 O 454.616 -1.95752 -0.0760611 0
M  V30 4850 H 453.196 -0.250968 0.703579 0
M  V30 4851 H 455.858 0.0533325 1.94827 0
M  V30 4852 H 454.954 -1.13626 2.90681 0
M  V30 4853 N 455.255 -1.55392 -0.262866 0
M  V30 4854 C 456.671 -1.47459 -0.610582 0
M  V30 4855 C 456.871 -0.697031 -1.8906 0
M  V30 4856 O 455.927 -0.219952 -2.5154 0
M  V30 4857 C 457.24 -2.91751 -0.728131 0
M  V30 4858 C 458.788 -3.02027 -0.821517 0
M  V30 4859 C 459.263 -4.47594 -0.97076 0
M  V30 4860 N 460.754 -4.51465 -1.03603 0
M  V30 4861 C 461.489 -5.61326 -1.17049 0
M  V30 4862 N 460.985 -6.81032 -1.2715 0
M  V30 4863 N 462.778 -5.49089 -1.20239 0
M  V30 4864 H 454.929 -2.04395 0.577632 0
M  V30 4865 H 457.192 -0.927287 0.197086 0
M  V30 4866 H 456.898 -3.51413 0.142132 0
M  V30 4867 H 456.772 -3.4134 -1.6052 0
M  V30 4868 H 459.159 -2.42456 -1.68224 0
M  V30 4869 H 459.24 -2.55674 0.0803688 0
M  V30 4870 H 458.884 -5.07771 -0.114655 0
M  V30 4871 H 458.814 -4.91613 -1.88745 0
M  V30 4872 H 461.305 -3.6524 -0.96996 0
M  V30 4873 H 461.618 -7.60511 -1.37271 0
M  V30 4874 H 459.963 -6.83824 -1.24136 0
M  V30 4875 H 463.154 -4.54507 -1.11985 0
M  V30 4876 H 463.327 -6.34749 -1.30373 0
M  V30 4877 N 456.733 0.527833 -1.48498 0
M  V30 4878 C 457.68 1.6322 -1.6318 0
M  V30 4879 C 458.65 1.59199 -0.473815 0
M  V30 4880 O 459.835 1.77591 -0.697563 0
M  V30 4881 C 456.975 3.01474 -1.67951 0
M  V30 4882 C 456.088 3.15713 -2.94871 0
M  V30 4883 C 455.223 4.44539 -2.90789 0
M  V30 4884 C 454.262 4.52315 -4.12404 0
M  V30 4885 N 453.399 5.72533 -4.06387 0
M  V30 4886 H 458.239 1.50011 -2.57489 0
M  V30 4887 H 455.776 0.730298 -1.27691 0
M  V30 4888 H 457.734 3.81572 -1.68698 0
M  V30 4889 H 456.364 3.1345 -0.771306 0
M  V30 4890 H 455.416 2.28854 -3.03859 0
M  V30 4891 H 456.728 3.1732 -3.8485 0
M  V30 4892 H 455.882 5.3293 -2.89949 0
M  V30 4893 H 454.621 4.45457 -1.98542 0
M  V30 4894 H 453.626 3.62331 -4.13517 0
M  V30 4895 H 454.851 4.53134 -5.05812 0
M  V30 4896 H 452.797 5.74344 -3.16962 0
M  V30 4897 H 452.714 5.75643 -4.90073 0
M  V30 4898 H 453.982 6.63204 -4.0961 0
M  V30 4899 N 458.211 1.37122 0.776871 0
M  V30 4900 C 459.436 1.354 1.57104 0
M  V30 4901 C 459.861 -0.0595562 1.88006 0
M  V30 4902 O 459.219 -1.03514 1.48844 0
M  V30 4903 C 459.267 2.19472 2.8612 0
M  V30 4904 O 458.371 1.59582 3.80273 0
M  V30 4905 H 457.712 0.462869 0.476076 0
M  V30 4906 H 460.242 1.80577 0.961932 0
M  V30 4907 H 460.252 2.32502 3.35271 0
M  V30 4908 H 458.927 3.22222 2.62956 0
M  V30 4909 H 457.504 1.55564 3.38902 0
M  V30 4910 N 459.689 -1.00246 1.21608 0
M  V30 4911 C 460.652 -2.07233 0.979133 0
M  V30 4912 C 461.652 -1.6072 -0.0508219 0
M  V30 4913 O 462.842 -1.73196 0.186712 0
M  V30 4914 C 459.974 -3.37546 0.477016 0
M  V30 4915 H 461.167 -2.29687 1.92831 0
M  V30 4916 H 458.72 -1.17261 1.03342 0
M  V30 4917 H 459.455 -3.20773 -0.476966 0
M  V30 4918 H 459.24 -3.72638 1.21997 0
M  V30 4919 H 460.73 -4.16285 0.331181 0
M  V30 4920 N 461.167 -1.02423 -1.1978 0
M  V30 4921 C 462.077 -0.610919 -2.26506 0
M  V30 4922 C 463.093 0.355152 -1.70337 0
M  V30 4923 O 464.269 0.214195 -2.00258 0
M  V30 4924 C 461.334 0.0365921 -3.46681 0
M  V30 4925 C 460.395 -0.976389 -4.18049 0
M  V30 4926 C 459.628 -0.359683 -5.32487 0
M  V30 4927 O 459.851 0.838601 -5.64202 0
M  V30 4928 O 458.785 -1.08022 -5.92127 0
M  V30 4929 H 462.611 -1.49965 -2.64091 0
M  V30 4930 H 460.196 -0.794156 -1.26545 0
M  V30 4931 H 462.078 0.39786 -4.19518 0
M  V30 4932 H 460.753 0.899398 -3.10954 0
M  V30 4933 H 459.66 -1.38916 -3.47352 0
M  V30 4934 H 460.993 -1.80941 -4.57735 0
M  V30 4935 N 462.645 1.35699 -0.801477 0
M  V30 4936 C 463.577 2.28598 -0.166028 0
M  V30 4937 C 464.59 1.50044 0.631721 0
M  V30 4938 O 465.779 1.72339 0.464921 0
M  V30 4939 C 462.879 3.29625 0.787451 0
M  V30 4940 C 462.052 4.37384 0.037171 0
M  V30 4941 C 461.111 5.183 0.908375 0
M  V30 4942 O 460.137 5.68053 0.361189 0
M  V30 4943 N 461.339 5.35912 2.23112 0
M  V30 4944 H 464.104 2.83771 -0.964071 0
M  V30 4945 H 461.665 1.47994 -0.656469 0
M  V30 4946 H 463.657 3.80648 1.37439 0
M  V30 4947 H 462.227 2.75004 1.48632 0
M  V30 4948 H 461.447 3.87364 -0.730935 0
M  V30 4949 H 462.735 5.0653 -0.480109 0
M  V30 4950 H 462.133 4.97125 2.69968 0
M  V30 4951 H 460.69 5.90133 2.76741 0
M  V30 4952 N 464.123 0.554532 1.47522 0
M  V30 4953 C 465.371 0.0294208 2.02079 0
M  V30 4954 C 465.692 -1.32411 1.43151 0
M  V30 4955 O 464.962 -1.863 0.605728 0
M  V30 4956 H 463.542 0.00788672 0.746958 0
M  V30 4957 H 466.204 0.723934 1.80956 0
M  V30 4958 H 465.3 -0.0606745 3.12041 0
M  V30 4959 N 465.601 -1.54893 0.290851 0
M  V30 4960 C 466.531 -2.26103 -0.583084 0
M  V30 4961 C 467.512 -1.25684 -1.14619 0
M  V30 4962 O 468.697 -1.54436 -1.17741 0
M  V30 4963 C 465.827 -2.99409 -1.75987 0
M  V30 4964 C 464.781 -4.0689 -1.32758 0
M  V30 4965 C 464.107 -4.67856 -2.58872 0
M  V30 4966 C 465.407 -5.20215 -0.46624 0
M  V30 4967 H 467.101 -2.99398 0.0108214 0
M  V30 4968 H 464.647 -1.43998 0.00664468 0
M  V30 4969 H 466.6 -3.47943 -2.37727 0
M  V30 4970 H 465.324 -2.23675 -2.37985 0
M  V30 4971 H 463.983 -3.59191 -0.733299 0
M  V30 4972 H 463.631 -3.88772 -3.19163 0
M  V30 4973 H 463.331 -5.40438 -2.30653 0
M  V30 4974 H 464.855 -5.19147 -3.21433 0
M  V30 4975 H 466.269 -5.64704 -0.989047 0
M  V30 4976 H 464.666 -5.99455 -0.27826 0
M  V30 4977 H 465.736 -4.82198 0.511173 0
M  V30 4978 N 467.08 -0.0183926 -1.57589 0
M  V30 4979 C 467.99 0.982943 -2.13015 0
M  V30 4980 C 469.006 1.36443 -1.07979 0
M  V30 4981 O 470.182 1.44802 -1.3998 0
M  V30 4982 C 467.247 2.25024 -2.63752 0
M  V30 4983 C 466.308 1.93018 -3.83461 0
M  V30 4984 C 465.541 3.13706 -4.31769 0
M  V30 4985 O 465.764 4.2601 -3.79305 0
M  V30 4986 O 464.698 2.96629 -5.23732 0
M  V30 4987 H 468.524 0.541709 -2.9883 0
M  V30 4988 H 466.109 0.201565 -1.48034 0
M  V30 4989 H 467.991 2.99441 -2.96502 0
M  V30 4990 H 466.666 2.68349 -1.81026 0
M  V30 4991 H 465.573 1.16019 -3.55655 0
M  V30 4992 H 466.906 1.54516 -4.67317 0
M  V30 4993 N 468.558 1.5553 0.254621 0
M  V30 4994 C 469.491 1.84624 1.34124 0
M  V30 4995 C 470.469 0.700693 1.46728 0
M  V30 4996 O 471.653 0.94564 1.63064 0
M  V30 4997 C 468.78 2.02412 2.71564 0
M  V30 4998 C 467.826 3.25028 2.7615 0
M  V30 4999 S 468.659 4.81893 2.33538 0
M  V30 5000 C 469.815 5.02677 3.72917 0
M  V30 5001 H 470.048 2.76501 1.09245 0
M  V30 5002 H 467.581 1.47537 0.455211 0
M  V30 5003 H 469.539 2.13345 3.50705 0
M  V30 5004 H 468.2 1.11391 2.93685 0
M  V30 5005 H 467.393 3.34418 3.77069 0
M  V30 5006 H 466.995 3.12781 2.05046 0
M  V30 5007 H 469.287 4.89546 4.68349 0
M  V30 5008 H 470.23 6.0468 3.68467 0
M  V30 5009 H 470.638 4.30561 3.65072 0
M  V30 5010 N 470.036 -0.519951 1.48776 0
M  V30 5011 C 471.261 -1.30447 1.6124 0
M  V30 5012 C 471.686 -1.86055 0.276591 0
M  V30 5013 O 471.044 -1.64915 -0.753183 0
M  V30 5014 C 471.092 -2.42406 2.66967 0
M  V30 5015 O 470.196 -3.45728 2.24824 0
M  V30 5016 H 469.537 -0.385924 0.540332 0
M  V30 5017 H 472.067 -0.624572 1.94834 0
M  V30 5018 H 472.077 -2.88447 2.88552 0
M  V30 5019 H 470.752 -2.01294 3.63941 0
M  V30 5020 H 469.329 -3.05737 2.13494 0
M  V30 5021 N 471.514 -1.37532 -0.769588 0
M  V30 5022 C 472.93 -1.18379 -1.07045 0
M  V30 5023 C 473.13 -0.0214312 -2.01489 0
M  V30 5024 O 472.186 0.637809 -2.44312 0
M  V30 5025 C 473.499 -2.50338 -1.66588 0
M  V30 5026 C 475.047 -2.56879 -1.78835 0
M  V30 5027 C 475.522 -3.88974 -2.41792 0
M  V30 5028 N 477.013 -3.90428 -2.4924 0
M  V30 5029 C 477.748 -4.89388 -2.98809 0
M  V30 5030 N 477.244 -5.98745 -3.48535 0
M  V30 5031 N 479.037 -4.76791 -2.97703 0
M  V30 5032 H 471.188 -2.11921 -0.142541 0
M  V30 5033 H 473.451 -0.939608 -0.125863 0
M  V30 5034 H 473.157 -3.35767 -1.0466 0
M  V30 5035 H 473.031 -2.67583 -2.65856 0
M  V30 5036 H 475.418 -1.71856 -2.39895 0
M  V30 5037 H 475.499 -2.43516 -0.783166 0
M  V30 5038 H 475.143 -4.74412 -1.81371 0
M  V30 5039 H 475.073 -3.99641 -3.4292 0
M  V30 5040 H 477.564 -3.11433 -2.14052 0
M  V30 5041 H 477.877 -6.70205 -3.84767 0
M  V30 5042 H 476.222 -6.02387 -3.46634 0
M  V30 5043 H 479.413 -3.90478 -2.58157 0
M  V30 5044 H 479.586 -5.54069 -3.36024 0
M  V30 5045 N 472.992 0.995999 -1.22138 0
M  V30 5046 C 473.922 2.10387 -1.01289 0
M  V30 5047 C 474.903 1.69975 0.0651454 0
M  V30 5048 O 476.088 1.9396 -0.0964628 0
M  V30 5049 C 473.218 3.42312 -0.586517 0
M  V30 5050 C 472.172 3.96558 -1.61014 0
M  V30 5051 C 471.498 5.24494 -1.0397 0
M  V30 5052 C 472.798 4.27595 -2.99933 0
M  V30 5053 H 474.492 2.28086 -1.93951 0
M  V30 5054 H 472.038 1.09607 -0.933928 0
M  V30 5055 H 473.991 4.19223 -0.427793 0
M  V30 5056 H 472.715 3.24431 0.375761 0
M  V30 5057 H 471.374 3.21776 -1.75658 0
M  V30 5058 H 471.022 5.02953 -0.0688703 0
M  V30 5059 H 470.722 5.61755 -1.72352 0
M  V30 5060 H 472.246 6.04042 -0.892494 0
M  V30 5061 H 473.66 4.95315 -2.8868 0
M  V30 5062 H 472.057 4.76021 -3.6541 0
M  V30 5063 H 473.127 3.35498 -3.50099 0
M  V30 5064 N 474.47 1.03057 1.19235 0
M  V30 5065 C 475.881 0.757449 1.70645 0
M  V30 5066 C 476.232 -0.722735 1.82403 0
M  V30 5067 O 475.357 -1.56325 1.49638 0
M  V30 5068 C 475.952 1.36833 3.09939 0
M  V30 5069 C 474.511 1.14375 3.58602 0
M  V30 5070 C 473.658 1.46533 2.35422 0
M  V30 5071 H 476.609 1.19828 1.04052 0
M  V30 5072 H 476.63 0.766184 3.72706 0
M  V30 5073 H 476.142 2.44562 3.01349 0
M  V30 5074 H 474.243 0.0847542 3.72504 0
M  V30 5075 H 474.356 1.83366 4.42622 0
M  V30 5076 H 472.72 0.884712 2.38841 0
M  V30 5077 H 473.503 2.55349 2.2946 0
M  V30 5078 N 475.948 -1.35272 0.808662 0
M  V30 5079 C 477.194 -1.99003 0.390581 0
M  V30 5080 C 477.527 -1.63999 -1.0401 0
M  V30 5081 O 476.802 -0.904368 -1.72196 0
M  V30 5082 C 477.085 -3.55454 0.576566 0
M  V30 5083 C 476.938 -4.00249 2.05233 0
M  V30 5084 C 478.257 -4.401 0.00354277 0
M  V30 5085 H 475.376 -0.722917 0.143388 0
M  V30 5086 H 478.018 -1.6039 1.01858 0
M  V30 5087 H 476.168 -3.88477 0.0419766 0
M  V30 5088 H 477.84 -3.77626 2.64946 0
M  V30 5089 H 476.083 -3.51082 2.54801 0
M  V30 5090 H 476.754 -5.0911 2.13333 0
M  V30 5091 H 479.23 -4.13548 0.460117 0
M  V30 5092 H 478.106 -5.48656 0.163575 0
M  V30 5093 H 478.367 -4.28444 -1.09032 0
M  V30 5094 N 477.426 -0.562348 -1.47226 0
M  V30 5095 C 478.673 -0.0402165 -2.0246 0
M  V30 5096 C 479.001 1.31169 -1.43614 0
M  V30 5097 O 478.256 1.86805 -0.5833 0
M  V30 5098 C 478.555 0.0969817 -3.57268 0
M  V30 5099 C 478.221 -1.1847 -4.35058 0
M  V30 5100 C 476.883 -1.53588 -4.56031 0
M  V30 5101 C 479.235 -2.03378 -4.79882 0
M  V30 5102 C 476.563 -2.73452 -5.19077 0
M  V30 5103 C 478.915 -3.2245 -5.44251 0
M  V30 5104 C 477.579 -3.57876 -5.63455 0
M  V30 5105 H 476.849 -0.0147163 -0.740854 0
M  V30 5106 H 479.496 -0.734895 -1.76838 0
M  V30 5107 H 477.801 0.87466 -3.81912 0
M  V30 5108 H 479.498 0.516408 -3.97661 0
M  V30 5109 H 476.088 -0.90126 -4.19017 0
M  V30 5110 H 480.272 -1.77553 -4.63453 0
M  V30 5111 H 475.528 -3.01062 -5.32139 0
M  V30 5112 H 479.702 -3.88526 -5.77945 0
M  V30 5113 H 477.329 -4.50849 -6.12078 0
M  V30 5114 N 478.904 1.54736 -0.299062 0
M  V30 5115 C 480.129 2.04975 0.316254 0
M  V30 5116 C 480.554 1.17501 1.46885 0
M  V30 5117 O 479.912 0.178678 1.80417 0
M  V30 5118 C 479.96 3.52672 0.751997 0
M  V30 5119 O 479.064 3.68226 1.85697 0
M  V30 5120 H 478.405 0.661126 0.0617175 0
M  V30 5121 H 480.935 1.99805 -0.440341 0
M  V30 5122 H 480.945 3.94488 1.04133 0
M  V30 5123 H 479.62 4.158 -0.0911482 0
M  V30 5124 H 478.197 3.38316 1.56834 0
M  V30 5125 N 480.382 0.0267497 1.57577 0
M  V30 5126 C 481.312 -0.954308 2.13108 0
M  V30 5127 C 482.293 -1.34088 1.04663 0
M  V30 5128 O 483.478 -1.41992 1.32484 0
M  V30 5129 C 480.608 -2.23744 2.65624 0
M  V30 5130 C 479.562 -1.99168 3.78835 0
M  V30 5131 C 478.888 -3.33726 4.17769 0
M  V30 5132 C 480.188 -1.33277 5.0501 0
M  V30 5133 H 481.882 -0.491848 2.95332 0
M  V30 5134 H 479.428 -0.23514 1.42067 0
M  V30 5135 H 481.381 -2.92754 3.03106 0
M  V30 5136 H 480.105 -2.72151 1.80558 0
M  V30 5137 H 478.764 -1.32577 3.41788 0
M  V30 5138 H 478.412 -3.79888 3.29688 0
M  V30 5139 H 478.112 -3.18089 4.94058 0
M  V30 5140 H 479.636 -4.04008 4.57832 0
M  V30 5141 H 481.05 -1.92283 5.40093 0
M  V30 5142 H 479.447 -1.28045 5.8628 0
M  V30 5143 H 480.517 -0.305411 4.83937 0
M  V30 5144 N 481.861 -1.55662 -0.24637 0
M  V30 5145 C 482.793 -1.86811 -1.32794 0
M  V30 5146 C 483.806 -0.754413 -1.44265 0
M  V30 5147 O 484.995 -1.03253 -1.45606 0
M  V30 5148 C 482.095 -2.0397 -2.70646 0
M  V30 5149 C 481.268 -3.34832 -2.81436 0
M  V30 5150 C 480.327 -3.41727 -4.00136 0
M  V30 5151 O 479.353 -4.14934 -3.89639 0
M  V30 5152 N 480.555 -2.71058 -5.1333 0
M  V30 5153 H 483.32 -2.80174 -1.06409 0
M  V30 5154 H 480.881 -1.55906 -0.43647 0
M  V30 5155 H 482.873 -2.05924 -3.48393 0
M  V30 5156 H 481.443 -1.1735 -2.89738 0
M  V30 5157 H 480.663 -3.4519 -1.90361 0
M  V30 5158 H 481.951 -4.21085 -2.85595 0
M  V30 5159 H 481.349 -2.11314 -5.2475 0
M  V30 5160 H 479.906 -2.78704 -5.89209 0
M  V30 5161 N 483.339 0.512053 -1.4905 0
M  V30 5162 C 484.249 1.64139 -1.67617 0
M  V30 5163 C 485.265 1.64786 -0.558701 0
M  V30 5164 O 486.441 1.8341 -0.832034 0
M  V30 5165 C 483.506 3.00548 -1.72835 0
M  V30 5166 C 482.567 3.10615 -2.96339 0
M  V30 5167 C 481.8 4.40517 -3.01298 0
M  V30 5168 O 482.023 5.28671 -2.14157 0
M  V30 5169 O 480.957 4.55325 -3.93653 0
M  V30 5170 H 484.783 1.51407 -2.63267 0
M  V30 5171 H 482.368 0.687131 -1.32661 0
M  V30 5172 H 484.25 3.81641 -1.78683 0
M  V30 5173 H 482.925 3.13566 -0.803616 0
M  V30 5174 H 481.832 2.2875 -2.96014 0
M  V30 5175 H 483.165 3.0252 -3.88256 0
M  V30 5176 N 484.817 1.37938 0.762283 0
M  V30 5177 C 485.764 1.34467 1.87583 0
M  V30 5178 C 486.734 0.208633 1.64785 0
M  V30 5179 O 487.919 0.399494 1.86571 0
M  V30 5180 C 485.059 1.16692 3.24772 0
M  V30 5181 C 484.172 2.39608 3.59461 0
M  V30 5182 C 483.307 2.14631 4.85908 0
M  V30 5183 C 482.346 3.33364 5.13357 0
M  V30 5184 N 481.483 3.07877 6.30996 0
M  V30 5185 H 486.323 2.29669 1.89885 0
M  V30 5186 H 483.86 1.14116 0.928219 0
M  V30 5187 H 485.818 1.04405 4.03925 0
M  V30 5188 H 484.448 0.251333 3.2182 0
M  V30 5189 H 483.5 2.626 2.75219 0
M  V30 5190 H 484.812 3.28128 3.75678 0
M  V30 5191 H 483.966 1.99429 5.72986 0
M  V30 5192 H 482.705 1.23463 4.71814 0
M  V30 5193 H 481.71 3.49094 4.24751 0
M  V30 5194 H 482.935 4.25395 5.29354 0
M  V30 5195 H 480.881 2.19348 6.18241 0
M  V30 5196 H 480.798 3.89944 6.47673 0
M  V30 5197 H 482.066 2.96313 7.20985 0
M  V30 5198 N 486.295 -0.989507 1.22664 0
M  V30 5199 C 487.52 -1.77031 1.08051 0
M  V30 5200 C 487.945 -1.84535 -0.364483 0
M  V30 5201 O 487.303 -1.3003 -1.2634 0
M  V30 5202 C 487.351 -3.18 1.70024 0
M  V30 5203 O 486.455 -4.01161 0.956216 0
M  V30 5204 H 485.796 -0.545008 0.379292 0
M  V30 5205 H 488.326 -1.24277 1.62531 0
M  V30 5206 H 488.336 -3.68616 1.74888 0
M  V30 5207 H 487.011 -3.11853 2.75174 0
M  V30 5208 H 485.588 -3.59687 0.98384 0
M  V30 5209 N 487.773 -1.03688 -1.18687 0
M  V30 5210 C 489.003 -0.756819 -1.92239 0
M  V30 5211 C 489.411 0.689374 -1.76194 0
M  V30 5212 O 488.754 1.48126 -1.08648 0
M  V30 5213 C 488.816 -1.03851 -3.44173 0
M  V30 5214 C 488.48 -2.47785 -3.83994 0
M  V30 5215 C 489.477 -3.4595 -3.88091 0
M  V30 5216 C 487.162 -2.82397 -4.154 0
M  V30 5217 C 489.156 -4.76779 -4.23038 0
M  V30 5218 C 486.843 -4.13433 -4.50018 0
M  V30 5219 C 487.841 -5.10434 -4.53813 0
M  V30 5220 O 487.529 -6.39122 -4.87625 0
M  V30 5221 H 487.261 -0.275678 -0.617234 0
M  V30 5222 H 489.815 -1.38658 -1.51536 0
M  V30 5223 H 488.045 -0.351612 -3.85098 0
M  V30 5224 H 489.734 -0.746846 -3.9897 0
M  V30 5225 H 490.5 -3.20549 -3.63969 0
M  V30 5226 H 486.379 -2.07568 -4.11627 0
M  V30 5227 H 489.923 -5.52488 -4.25914 0
M  V30 5228 H 485.82 -4.38604 -4.736 0
M  V30 5229 H 486.588 -6.43715 -5.05542 0
M  V30 5230 N 489.251 1.34841 -0.815825 0
M  V30 5231 C 490.5 1.97755 -0.396976 0
M  V30 5232 C 490.813 1.65422 1.04379 0
M  V30 5233 O 492.019 2.21771 1.5662 0
M  V30 5234 C 490.475 3.53818 -0.658869 0
M  V30 5235 C 490.083 3.95051 -2.11278 0
M  V30 5236 C 491.827 4.23397 -0.305834 0
M  V30 5237 C 489.734 5.43997 -2.31994 0
M  V30 5238 H 488.664 0.739985 -0.1447 0
M  V30 5239 H 491.315 1.53781 -1.00118 0
M  V30 5240 H 489.697 3.95997 0.0154112 0
M  V30 5241 H 490.871 3.63998 -2.82564 0
M  V30 5242 H 489.186 3.38388 -2.42657 0
M  V30 5243 H 491.783 5.32899 -0.43854 0
M  V30 5244 H 492.126 4.09508 0.748952 0
M  V30 5245 H 492.659 3.8667 -0.934403 0
M  V30 5246 H 489.398 5.62865 -3.35952 0
M  V30 5247 H 488.918 5.76589 -1.65244 0
M  V30 5248 H 490.597 6.10584 -2.14001 0
M  V30 5249 N 490.729 0.570148 1.46925 0
M  V30 5250 C 491.676 -0.170257 2.30171 0
M  V30 5251 C 492.646 -0.896099 1.39855 0
M  V30 5252 O 493.831 -0.889248 1.68811 0
M  V30 5253 C 490.971 -1.18605 3.24079 0
M  V30 5254 C 490.084 -0.464947 4.29491 0
M  V30 5255 C 489.219 -1.46716 5.10537 0
M  V30 5256 C 488.258 -0.731758 6.0771 0
M  V30 5257 N 487.395 -1.68142 6.81669 0
M  V30 5258 H 492.235 0.545713 2.92961 0
M  V30 5259 H 489.772 0.280938 1.44392 0
M  V30 5260 H 491.73 -1.78771 3.76957 0
M  V30 5261 H 490.36 -1.86989 2.63125 0
M  V30 5262 H 489.412 0.251506 3.79568 0
M  V30 5263 H 490.724 0.110548 4.98677 0
M  V30 5264 H 489.878 -2.14199 5.6763 0
M  V30 5265 H 488.617 -2.07658 4.41282 0
M  V30 5266 H 487.622 -0.0430787 5.49783 0
M  V30 5267 H 488.847 -0.127904 6.7898 0
M  V30 5268 H 486.793 -2.27918 6.15134 0
M  V30 5269 H 486.71 -1.15841 7.47072 0
M  V30 5270 H 487.978 -2.347 7.43328 0
M  V30 5271 N 492.207 -1.54576 0.307264 0
M  V30 5272 C 493.455 -1.99867 -0.299574 0
M  V30 5273 C 493.776 -1.19714 -1.53927 0
M  V30 5274 O 493.046 -0.29472 -1.9367 0
M  V30 5275 H 491.626 -0.738299 -0.113683 0
M  V30 5276 H 494.288 -1.9032 0.420042 0
M  V30 5277 H 493.384 -3.06901 -0.567283 0
M  V30 5278 N 493.685 -0.035106 -1.57561 0
M  V30 5279 C 494.913 0.652258 -1.9635 0
M  V30 5280 C 495.328 1.65317 -0.911897 0
M  V30 5281 O 494.685 1.82194 0.105657 0
M  V30 5282 C 494.736 1.35337 -3.35211 0
M  V30 5283 O 494.457 0.392548 -4.36338 0
M  V30 5284 C 495.958 2.13199 -3.88666 0
M  V30 5285 H 493.178 0.179444 -0.646561 0
M  V30 5286 H 495.722 -0.0966459 -2.04271 0
M  V30 5287 H 493.877 2.05362 -3.28489 0
M  V30 5288 H 494.291 0.891097 -5.16875 0
M  V30 5289 H 495.765 2.577 -4.88154 0
M  V30 5290 H 496.242 2.97353 -3.23231 0
M  V30 5291 H 496.848 1.48118 -3.98674 0
M  V30 5292 N 495.163 1.55791 0.238111 0
M  V30 5293 C 496.388 1.8244 0.986432 0
M  V30 5294 C 496.813 0.613314 1.7782 0
M  V30 5295 O 496.171 -0.437767 1.75935 0
M  V30 5296 C 496.219 3.06917 1.893 0
M  V30 5297 O 495.323 2.84449 2.98601 0
M  V30 5298 H 494.664 0.601975 0.280218 0
M  V30 5299 H 497.194 2.02987 0.256437 0
M  V30 5300 H 497.204 3.36583 2.30598 0
M  V30 5301 H 495.879 3.947 1.31091 0
M  V30 5302 H 494.456 2.65972 2.61368 0
M  V30 5303 N 496.642 -0.504142 1.49319 0
M  V30 5304 C 497.919 -1.26548 1.49147 0
M  V30 5305 C 498.299 -2.09977 0.21744 0
M  V30 5306 O 497.647 -2.14028 -0.800269 0
M  V30 5307 C 497.857 -2.12489 2.76857 0
M  V30 5308 C 499.205 -2.7178 3.26222 0
M  V30 5309 O 500.229 -2.22758 2.77952 0
M  V30 5310 O 499.088 -3.61015 4.10281 0
M  V30 5311 H 496.182 -0.572495 0.596806 0
M  V30 5312 H 498.728 -0.51867 1.61579 0
M  V30 5313 H 497.5 -1.50796 3.61077 0
M  V30 5314 H 497.123 -2.94368 2.6727 0
M  V30 5315 N 498.12 -1.38341 -0.754957 0
M  V30 5316 C 499.367 -1.34473 -1.51404 0
M  V30 5317 C 499.695 0.0656458 -1.94389 0
M  V30 5318 O 498.95 1.04244 -1.65625 0
M  V30 5319 C 499.249 -2.2452 -2.78075 0
M  V30 5320 C 498.915 -3.72512 -2.54059 0
M  V30 5321 C 497.577 -4.1284 -2.47218 0
M  V30 5322 C 499.929 -4.66197 -2.33044 0
M  V30 5323 C 497.257 -5.44945 -2.17376 0
M  V30 5324 C 499.609 -5.98558 -2.04723 0
M  V30 5325 C 498.273 -6.37972 -1.96337 0
M  V30 5326 H 497.543 -0.492072 -0.554027 0
M  V30 5327 H 500.19 -1.70687 -0.868223 0
M  V30 5328 H 498.495 -1.81357 -3.473 0
M  V30 5329 H 500.192 -2.18832 -3.36026 0
M  V30 5330 H 496.782 -3.40538 -2.60253 0
M  V30 5331 H 500.966 -4.35888 -2.37309 0
M  V30 5332 H 496.222 -5.74426 -2.09391 0
M  V30 5333 H 500.396 -6.70693 -1.87465 0
M  V30 5334 H 498.023 -7.40258 -1.72978 0
M  V30 5335 N 499.598 0.982988 -1.23187 0
M  V30 5336 C 500.528 2.09301 -1.03515 0
M  V30 5337 C 501.509 1.70035 0.0471136 0
M  V30 5338 O 502.694 1.93847 -0.117029 0
M  V30 5339 C 499.824 3.4167 -0.622791 0
M  V30 5340 C 498.778 3.94828 -1.65211 0
M  V30 5341 C 498.104 5.23362 -1.09527 0
M  V30 5342 C 499.404 4.2439 -3.04451 0
M  V30 5343 H 501.098 2.26016 -1.96359 0
M  V30 5344 H 498.644 1.08611 -0.945501 0
M  V30 5345 H 500.597 4.18746 -0.472233 0
M  V30 5346 H 499.321 3.24811 0.341329 0
M  V30 5347 H 497.98 3.19895 -1.79061 0
M  V30 5348 H 497.628 5.02852 -0.122211 0
M  V30 5349 H 497.328 5.59895 -1.783 0
M  V30 5350 H 498.852 6.03062 -0.956511 0
M  V30 5351 H 500.266 4.92225 -2.93917 0
M  V30 5352 H 498.663 4.72118 -3.70438 0
M  V30 5353 H 499.733 3.31765 -3.53638 0
M  V30 5354 N 501.076 1.04316 1.18135 0
M  V30 5355 C 502.324 0.746542 1.87806 0
M  V30 5356 C 502.645 -0.728082 1.80898 0
M  V30 5357 O 501.915 -1.52554 1.22899 0
M  V30 5358 H 500.495 0.273157 0.695265 0
M  V30 5359 H 503.157 1.32044 1.43354 0
M  V30 5360 H 502.253 1.05362 2.93778 0
M  V30 5361 N 502.554 -1.34406 0.822964 0
M  V30 5362 C 503.484 -2.32052 0.259608 0
M  V30 5363 C 504.465 -1.58243 -0.623961 0
M  V30 5364 O 505.65 -1.86224 -0.55083 0
M  V30 5365 C 502.78 -3.42434 -0.579314 0
M  V30 5366 C 501.734 -4.27499 0.20712 0
M  V30 5367 C 501.06 -5.29349 -0.754547 0
M  V30 5368 C 502.36 -5.02758 1.41533 0
M  V30 5369 H 504.054 -2.79418 1.07545 0
M  V30 5370 H 501.6 -1.34338 0.518593 0
M  V30 5371 H 503.553 -4.0976 -0.983612 0
M  V30 5372 H 502.277 -2.93717 -1.4282 0
M  V30 5373 H 500.936 -3.61776 0.592787 0
M  V30 5374 H 500.584 -4.76895 -1.59939 0
M  V30 5375 H 500.284 -5.8714 -0.232561 0
M  V30 5376 H 501.808 -5.99544 -1.1567 0
M  V30 5377 H 503.222 -5.62938 1.08504 0
M  V30 5378 H 501.619 -5.70123 1.87296 0
M  V30 5379 H 502.689 -4.32451 2.1935 0
M  V30 5380 N 504.032 -0.577932 -1.46621 0
M  V30 5381 C 505.28 -0.061566 -2.02006 0
M  V30 5382 C 505.601 1.30117 -1.4524 0
M  V30 5383 O 504.871 1.85313 -0.63529 0
M  V30 5384 H 503.451 -0.0197692 -0.746738 0
M  V30 5385 H 506.113 -0.752631 -1.79782 0
M  V30 5386 H 505.209 0.0110238 -3.12098 0
M  V30 5387 N 505.51 1.54411 -0.315457 0
M  V30 5388 C 506.46 2.20772 0.569549 0
M  V30 5389 C 507.444 1.18551 1.08787 0
M  V30 5390 O 508.636 1.44213 1.02624 0
M  V30 5391 C 505.765 2.96293 1.73394 0
M  V30 5392 C 504.851 4.05844 1.2309 0
M  V30 5393 N 505.242 5.03822 0.446927 0
M  V30 5394 C 503.54 4.19648 1.51035 0
M  V30 5395 C 504.241 5.8143 0.17725 0
M  V30 5396 N 503.217 5.38245 0.761118 0
M  V30 5397 H 507.019 2.93877 -0.0368076 0
M  V30 5398 H 504.533 1.61949 -0.120915 0
M  V30 5399 H 506.53 3.42313 2.37965 0
M  V30 5400 H 505.19 2.24708 2.34386 0
M  V30 5401 H 506.201 5.17821 0.0905027 0
M  V30 5402 H 502.878 3.59274 2.1267 0
M  V30 5403 H 504.268 6.70369 -0.45335 0
M  V30 5404 N 506.988 0.0434614 1.5754 0
M  V30 5405 C 508.235 -0.632035 1.92384 0
M  V30 5406 C 508.563 -1.71304 0.921157 0
M  V30 5407 O 507.818 -1.95583 -0.067744 0
M  V30 5408 C 508.117 -1.2738 3.3393 0
M  V30 5409 C 507.783 -0.321757 4.49751 0
M  V30 5410 C 506.445 -0.0597611 4.81163 0
M  V30 5411 C 508.797 0.331158 5.20147 0
M  V30 5412 C 506.125 0.862715 5.80322 0
M  V30 5413 C 508.477 1.24178 6.20292 0
M  V30 5414 C 507.141 1.51252 6.50138 0
M  V30 5415 H 506.411 -0.231278 0.703983 0
M  V30 5416 H 509.058 0.108294 1.91194 0
M  V30 5417 H 507.363 -2.08921 3.3145 0
M  V30 5418 H 509.06 -1.80326 3.58167 0
M  V30 5419 H 505.65 -0.53614 4.25233 0
M  V30 5420 H 509.834 0.141826 4.96097 0
M  V30 5421 H 505.09 1.08003 6.01785 0
M  V30 5422 H 509.264 1.75381 6.73954 0
M  V30 5423 H 506.891 2.22897 7.26788 0
M  V30 5424 N 508.466 -1.55915 -0.229846 0
M  V30 5425 C 509.694 -1.82617 -0.972562 0
M  V30 5426 C 510.109 -0.621488 -1.78278 0
M  V30 5427 O 509.466 0.409956 -1.77836 0
M  V30 5428 C 509.517 -3.0774 -1.89679 0
M  V30 5429 O 509.238 -4.23559 -1.11934 0
M  V30 5430 C 510.739 -3.47368 -2.75409 0
M  V30 5431 H 507.959 -0.60727 -0.285419 0
M  V30 5432 H 510.503 -2.02996 -0.247579 0
M  V30 5433 H 508.658 -2.89361 -2.57583 0
M  V30 5434 H 509.072 -4.94586 -1.74599 0
M  V30 5435 H 510.546 -4.37977 -3.35977 0
M  V30 5436 H 511.023 -2.68737 -3.47386 0
M  V30 5437 H 511.629 -3.68158 -2.12931 0
M  V30 5438 N 509.944 0.496216 -1.49584 0
M  V30 5439 C 511.172 1.27394 -1.63029 0
M  V30 5440 C 511.587 1.86344 -0.303569 0
M  V30 5441 O 510.944 1.68057 0.711547 0
M  V30 5442 C 510.995 2.40077 -2.70269 0
M  V30 5443 O 510.716 1.83549 -3.97796 0
M  V30 5444 C 512.217 3.31372 -2.94462 0
M  V30 5445 H 509.437 0.386211 -0.54871 0
M  V30 5446 H 511.981 0.595163 -1.95648 0
M  V30 5447 H 510.136 3.03775 -2.40415 0
M  V30 5448 H 510.55 2.57561 -4.56905 0
M  V30 5449 H 512.024 4.06707 -3.73221 0
M  V30 5450 H 512.501 3.88654 -2.0456 0
M  V30 5451 H 513.107 2.73435 -3.25751 0
M  V30 5452 N 511.423 1.38739 0.74761 0
M  V30 5453 C 512.839 1.20067 1.05148 0
M  V30 5454 C 513.039 0.0534835 2.01429 0
M  V30 5455 O 512.095 -0.59886 2.45296 0
M  V30 5456 C 513.408 2.52957 1.62584 0
M  V30 5457 C 514.956 2.59692 1.74726 0
M  V30 5458 C 515.431 3.92772 2.35573 0
M  V30 5459 N 516.922 3.94343 2.42997 0
M  V30 5460 C 517.657 4.9408 2.90985 0
M  V30 5461 N 517.153 6.04214 3.38965 0
M  V30 5462 N 518.946 4.81466 2.9008 0
M  V30 5463 H 511.097 2.12121 0.108808 0
M  V30 5464 H 513.36 0.941491 0.110899 0
M  V30 5465 H 513.066 3.37389 0.993051 0
M  V30 5466 H 512.94 2.71779 2.61565 0
M  V30 5467 H 515.327 1.75651 2.3713 0
M  V30 5468 H 515.408 2.44731 0.744326 0
M  V30 5469 H 515.052 4.77238 1.738 0
M  V30 5470 H 514.982 4.05046 3.36519 0
M  V30 5471 H 517.473 3.14799 2.0907 0
M  V30 5472 H 517.786 6.76241 3.74056 0
M  V30 5473 H 516.131 6.07825 3.37007 0
M  V30 5474 H 519.322 3.94535 2.51912 0
M  V30 5475 H 519.495 5.59344 3.27166 0
M  V30 5476 N 512.901 -0.976442 1.23707 0
M  V30 5477 C 514.131 -1.75087 1.09673 0
M  V30 5478 C 514.539 -1.85852 -0.354344 0
M  V30 5479 O 513.882 -1.33985 -1.25673 0
M  V30 5480 C 513.944 -3.19272 1.65245 0
M  V30 5481 C 513.608 -3.32004 3.14042 0
M  V30 5482 C 514.605 -3.18017 4.11292 0
M  V30 5483 C 512.29 -3.56525 3.53829 0
M  V30 5484 C 514.284 -3.28363 5.46312 0
M  V30 5485 C 511.971 -3.6651 4.88993 0
M  V30 5486 C 512.969 -3.52439 5.85043 0
M  V30 5487 O 512.657 -3.62063 7.1775 0
M  V30 5488 H 512.389 -0.556164 0.384262 0
M  V30 5489 H 514.943 -1.23518 1.64111 0
M  V30 5490 H 513.173 -3.72107 1.05231 0
M  V30 5491 H 514.862 -3.7849 1.46629 0
M  V30 5492 H 515.628 -2.98966 3.81896 0
M  V30 5493 H 511.507 -3.66547 2.79579 0
M  V30 5494 H 515.051 -3.17297 6.21263 0
M  V30 5495 H 510.948 -3.85072 5.18063 0
M  V30 5496 H 511.716 -3.78833 7.25553 0
M  V30 5497 N 514.379 -1.04941 -1.1758 0
M  V30 5498 C 515.628 -0.753124 -1.87112 0
M  V30 5499 C 515.941 0.722507 -1.81767 0
M  V30 5500 O 517.147 1.13265 -2.46746 0
M  V30 5501 C 515.603 -1.29695 -3.35719 0
M  V30 5502 C 515.211 -2.80184 -3.49572 0
M  V30 5503 C 516.955 -1.07759 -4.10595 0
M  V30 5504 C 514.862 -3.2788 -4.92187 0
M  V30 5505 H 513.792 -0.278034 -0.700866 0
M  V30 5506 H 516.443 -1.26637 -1.32798 0
M  V30 5507 H 514.825 -0.711522 -3.89555 0
M  V30 5508 H 515.999 -3.44561 -3.05965 0
M  V30 5509 H 514.314 -3.00632 -2.88113 0
M  V30 5510 H 516.911 -1.40899 -5.15802 0
M  V30 5511 H 517.254 -0.0152302 -4.16297 0
M  V30 5512 H 517.787 -1.62809 -3.62957 0
M  V30 5513 H 514.526 -4.33535 -4.91658 0
M  V30 5514 H 514.046 -2.68245 -5.36475 0
M  V30 5515 H 515.725 -3.22412 -5.60945 0
M  V30 5516 N 515.857 1.33968 -0.830081 0
M  V30 5517 C 517.085 2.0228 -0.434773 0
M  V30 5518 C 517.5 1.62487 0.961419 0
M  V30 5519 O 516.857 0.833849 1.62337 0
M  V30 5520 C 516.908 3.5751 -0.535625 0
M  V30 5521 O 516.629 3.95864 -1.87679 0
M  V30 5522 C 518.13 4.43091 -0.136137 0
M  V30 5523 H 515.35 0.648151 -0.173613 0
M  V30 5524 H 517.894 1.71089 -1.12022 0
M  V30 5525 H 516.049 3.87266 0.101817 0
M  V30 5526 H 516.463 4.9056 -1.85609 0
M  V30 5527 H 517.937 5.51398 -0.257772 0
M  V30 5528 H 518.414 4.29433 0.921076 0
M  V30 5529 H 519.02 4.18677 -0.747662 0
M  V30 5530 N 517.335 0.585699 1.46312 0
M  V30 5531 C 518.245 -0.148236 2.34131 0
M  V30 5532 C 519.261 -0.882972 1.49932 0
M  V30 5533 O 520.437 -0.845484 1.82794 0
M  V30 5534 C 517.502 -1.14714 3.27172 0
M  V30 5535 C 516.563 -0.416746 4.27272 0
M  V30 5536 C 515.796 -1.36806 5.15868 0
M  V30 5537 O 516.019 -2.60475 5.07454 0
M  V30 5538 O 514.953 -0.877018 5.95476 0
M  V30 5539 H 518.779 0.572882 2.98248 0
M  V30 5540 H 516.364 0.346082 1.45336 0
M  V30 5541 H 518.246 -1.72303 3.84564 0
M  V30 5542 H 516.921 -1.84967 2.65648 0
M  V30 5543 H 515.828 0.201061 3.73559 0
M  V30 5544 H 517.161 0.244872 4.9159 0
M  V30 5545 N 518.813 -1.54241 0.323641 0
M  V30 5546 C 520.229 -1.59574 -0.0290018 0
M  V30 5547 C 520.429 -1.34017 -1.50472 0
M  V30 5548 O 519.485 -1.12464 -2.26071 0
M  V30 5549 C 520.798 -2.98169 0.389295 0
M  V30 5550 C 522.346 -3.11148 0.339958 0
M  V30 5551 C 522.821 -4.5209 0.733418 0
M  V30 5552 N 524.312 -4.5808 0.686827 0
M  V30 5553 C 525.047 -5.65248 0.963464 0
M  V30 5554 N 524.543 -6.80355 1.30724 0
M  V30 5555 N 526.336 -5.55025 0.88902 0
M  V30 5556 H 518.487 -1.6911 1.28512 0
M  V30 5557 H 520.75 -0.790972 0.522558 0
M  V30 5558 H 520.456 -3.21871 1.41746 0
M  V30 5559 H 520.33 -3.76399 -0.245657 0
M  V30 5560 H 522.717 -2.87182 -0.679002 0
M  V30 5561 H 522.798 -2.35023 1.00985 0
M  V30 5562 H 522.442 -4.76788 1.75029 0
M  V30 5563 H 522.372 -5.26584 0.0412189 0
M  V30 5564 H 524.863 -3.75411 0.43298 0
M  V30 5565 H 525.176 -7.58029 1.5037 0
M  V30 5566 H 523.521 -6.81851 1.3455 0
M  V30 5567 H 526.712 -4.63977 0.619939 0
M  V30 5568 H 526.885 -6.38458 1.10797 0
M  V30 5569 N 520.291 -0.0518155 -1.57515 0
M  V30 5570 C 521.239 0.940195 -2.12751 0
M  V30 5571 C 522.233 1.3218 -1.05948 0
M  V30 5572 O 523.439 1.30138 -1.24355 0
M  V30 5573 H 519.814 0.321066 -0.680015 0
M  V30 5574 H 521.785 0.449217 -2.94999 0
M  V30 5575 C 520.534 2.2055 -2.68799 0
M  V30 5576 H 519.857 1.92066 -3.50643 0
M  V30 5577 H 521.297 2.88119 -3.11068 0
M  V30 5578 C 519.756 2.95061 -1.62605 0
M  V30 5579 O 520.286 3.88025 -1.03921 0
M  V30 5580 N 518.492 2.57804 -1.34111 0
M  V30 5581 H 518.039 1.82281 -1.8202 0
M  V30 5582 H 517.997 3.07964 -0.632872 0
M  V30 5583 N 521.769 1.56035 0.221574 0
M  V30 5584 C 522.999 1.82864 0.961468 0
M  V30 5585 C 523.407 0.628703 1.78449 0
M  V30 5586 O 522.75 -0.412109 1.79018 0
M  V30 5587 C 522.812 3.03425 1.92804 0
M  V30 5588 C 522.476 4.38429 1.28954 0
M  V30 5589 C 523.473 5.15441 0.679431 0
M  V30 5590 C 521.158 4.85151 1.30131 0
M  V30 5591 C 523.152 6.37337 0.0896148 0
M  V30 5592 C 520.839 6.06989 0.707651 0
M  V30 5593 C 521.837 6.82923 0.102855 0
M  V30 5594 O 521.525 8.02456 -0.48157 0
M  V30 5595 H 521.257 0.611883 0.28736 0
M  V30 5596 H 523.811 2.0397 0.241932 0
M  V30 5597 H 522.041 2.78138 2.68656 0
M  V30 5598 H 523.73 3.17127 2.53348 0
M  V30 5599 H 524.496 4.80452 0.662661 0
M  V30 5600 H 520.375 4.26021 1.76145 0
M  V30 5601 H 523.919 6.96547 -0.383069 0
M  V30 5602 H 519.816 6.41451 0.721834 0
M  V30 5603 H 520.584 8.17636 -0.375887 0
M  V30 5604 N 523.247 -0.488276 1.49845 0
M  V30 5605 C 524.658 -1.06955 1.53028 0
M  V30 5606 C 525.009 -1.9351 0.323797 0
M  V30 5607 O 524.134 -2.08891 -0.565116 0
M  V30 5608 C 524.729 -1.94643 2.77307 0
M  V30 5609 C 523.288 -2.4791 2.83227 0
M  V30 5610 C 522.435 -1.25833 2.47106 0
M  V30 5611 H 525.386 -0.271626 1.56358 0
M  V30 5612 H 525.407 -2.79496 2.5819 0
M  V30 5613 H 524.919 -1.31621 3.65099 0
M  V30 5614 H 523.02 -3.14535 1.99745 0
M  V30 5615 H 523.133 -2.84193 3.85709 0
M  V30 5616 H 521.497 -1.58764 1.99163 0
M  V30 5617 H 522.28 -0.644993 3.37186 0
M  V30 5618 N 524.725 -1.39134 -0.740242 0
M  V30 5619 C 525.95 -1.39518 -1.53459 0
M  V30 5620 C 526.375 0.00968883 -1.88098 0
M  V30 5621 O 525.733 0.995312 -1.51536 0
M  V30 5622 C 525.781 -2.26981 -2.802 0
M  V30 5623 O 524.885 -1.69609 -3.75908 0
M  V30 5624 H 524.226 -0.475328 -0.463637 0
M  V30 5625 H 526.756 -1.83064 -0.913717 0
M  V30 5626 H 526.766 -2.41309 -3.28989 0
M  V30 5627 H 525.441 -3.29081 -2.5432 0
M  V30 5628 H 524.018 -1.64495 -3.34658 0
M  V30 5629 N 526.204 0.969867 -1.24223 0
M  V30 5630 C 527.62 1.23809 -1.00716 0
M  V30 5631 C 527.82 1.99469 0.285358 0
M  V30 5632 O 526.876 2.31764 1.00207 0
M  V30 5633 C 528.189 2.02734 -2.2208 0
M  V30 5634 C 529.737 2.15834 -2.26681 0
M  V30 5635 C 530.212 2.98154 -3.47661 0
M  V30 5636 N 531.703 3.05737 -3.47964 0
M  V30 5637 C 532.438 3.69785 -4.38231 0
M  V30 5638 N 531.934 4.35569 -5.3875 0
M  V30 5639 N 533.727 3.66775 -4.25949 0
M  V30 5640 H 525.878 0.463294 -2.07286 0
M  V30 5641 H 528.141 0.267348 -0.909521 0
M  V30 5642 H 527.847 1.54524 -3.15935 0
M  V30 5643 H 527.721 3.0347 -2.24021 0
M  V30 5644 H 530.108 2.63248 -1.33359 0
M  V30 5645 H 530.189 1.14453 -2.28767 0
M  V30 5646 H 529.833 2.51435 -4.41297 0
M  V30 5647 H 529.763 3.99729 -3.42818 0
M  V30 5648 H 532.254 2.58941 -2.75242 0
M  V30 5649 H 532.567 4.82251 -6.03866 0
M  V30 5650 H 530.912 4.34244 -5.42639 0
M  V30 5651 H 534.103 3.14558 -3.46657 0
M  V30 5652 H 534.276 4.16407 -4.96497 0
M  V30 5653 N 527.682 1.05563 1.17022 0
M  V30 5654 C 528.614 0.617888 2.20714 0
M  V30 5655 C 529.627 -0.320303 1.59618 0
M  V30 5656 O 530.816 -0.112449 1.78145 0
M  V30 5657 C 527.916 -0.115333 3.38704 0
M  V30 5658 C 527.089 0.834493 4.29366 0
M  V30 5659 C 526.148 0.141855 5.26009 0
M  V30 5660 O 525.174 0.777151 5.6387 0
M  V30 5661 N 526.376 -1.11934 5.69606 0
M  V30 5662 H 529.141 1.50981 2.58892 0
M  V30 5663 H 526.702 0.938008 1.31958 0
M  V30 5664 H 528.694 -0.588918 4.00392 0
M  V30 5665 H 527.264 -0.908967 2.99093 0
M  V30 5666 H 526.484 1.48762 3.65053 0
M  V30 5667 H 527.772 1.4791 4.86827 0
M  V30 5668 H 527.17 -1.65574 5.40927 0
M  V30 5669 H 525.727 -1.53692 6.33421 0
M  V30 5670 N 529.16 -1.33526 0.837174 0
M  V30 5671 C 530.408 -1.97446 0.431211 0
M  V30 5672 C 530.729 -1.6665 -1.01255 0
M  V30 5673 O 529.999 -0.964559 -1.70508 0
M  V30 5674 H 528.579 -0.73043 0.156463 0
M  V30 5675 H 531.241 -1.62918 1.06976 0
M  V30 5676 H 530.337 -3.07001 0.561877 0
M  V30 5677 N 530.638 -0.59345 -1.46 0
M  V30 5678 C 532.049 -0.169801 -1.85926 0
M  V30 5679 C 532.4 1.26984 -1.49565 0
M  V30 5680 O 531.525 1.96076 -0.915602 0
M  V30 5681 C 532.12 -0.301385 -3.37457 0
M  V30 5682 C 530.679 0.0674684 -3.7634 0
M  V30 5683 C 529.826 -0.632383 -2.69993 0
M  V30 5684 H 532.777 -0.801014 -1.37002 0
M  V30 5685 H 532.798 0.470331 -3.77582 0
M  V30 5686 H 532.31 -1.34927 -3.63891 0
M  V30 5687 H 530.411 1.11507 -3.55523 0
M  V30 5688 H 530.524 -0.316332 -4.78055 0
M  V30 5689 H 528.888 -0.0714961 -2.546 0
M  V30 5690 H 529.671 -1.68212 -2.99265 0
M  V30 5691 N 532.116 1.54067 -0.331816 0
M  V30 5692 C 533.341 2.05599 0.272705 0
M  V30 5693 C 533.766 1.2059 1.44359 0
M  V30 5694 O 533.124 0.216907 1.79998 0
M  V30 5695 C 533.172 3.54188 0.677021 0
M  V30 5696 O 532.276 3.72082 1.77844 0
M  V30 5697 H 531.617 0.662286 0.0476801 0
M  V30 5698 H 534.147 1.98826 -0.482624 0
M  V30 5699 H 534.157 3.96608 0.957415 0
M  V30 5700 H 532.832 4.15513 -0.179325 0
M  V30 5701 H 531.409 3.41566 1.49622 0
M  V30 5702 N 533.594 0.0601682 1.57485 0
M  V30 5703 C 534.824 -0.620037 1.97076 0
M  V30 5704 C 535.232 -1.64381 0.936784 0
M  V30 5705 O 534.575 -1.83497 -0.0863377 0
M  V30 5706 C 534.637 -1.35617 3.32939 0
M  V30 5707 C 534.301 -0.487208 4.54396 0
M  V30 5708 C 535.298 0.250428 5.19297 0
M  V30 5709 C 532.983 -0.415494 5.00579 0
M  V30 5710 C 534.977 1.04812 6.28723 0
M  V30 5711 C 532.664 0.385879 6.0988 0
M  V30 5712 C 533.662 1.11637 6.73815 0
M  V30 5713 O 533.35 1.90454 7.81014 0
M  V30 5714 H 533.082 -0.173664 0.653312 0
M  V30 5715 H 535.636 0.1256 2.05016 0
M  V30 5716 H 533.866 -2.14763 3.2158 0
M  V30 5717 H 535.555 -1.92749 3.57215 0
M  V30 5718 H 536.321 0.204546 4.84568 0
M  V30 5719 H 532.2 -0.973679 4.506 0
M  V30 5720 H 535.744 1.6188 6.78558 0
M  V30 5721 H 531.641 0.433366 6.44044 0
M  V30 5722 H 532.409 1.82762 7.97835 0
M  V30 5723 N 535.072 -1.5615 -0.213296 0
M  V30 5724 C 536.004 -1.89586 -1.28802 0
M  V30 5725 C 537.017 -0.784844 -1.42633 0
M  V30 5726 O 538.206 -1.06319 -1.43383 0
M  V30 5727 C 535.306 -2.09665 -2.66259 0
M  V30 5728 C 534.479 -3.40726 -2.7427 0
M  V30 5729 C 533.538 -3.50137 -3.92798 0
M  V30 5730 O 532.564 -4.23105 -3.8075 0
M  V30 5731 N 533.766 -2.81886 -5.07465 0
M  V30 5732 H 536.531 -2.82368 -1.00442 0
M  V30 5733 H 534.092 -1.56796 -0.403302 0
M  V30 5734 H 536.084 -2.13268 -3.43946 0
M  V30 5735 H 534.654 -1.23469 -2.87183 0
M  V30 5736 H 533.874 -3.4915 -1.82997 0
M  V30 5737 H 535.162 -4.27048 -2.76599 0
M  V30 5738 H 534.56 -2.22397 -5.2015 0
M  V30 5739 H 533.117 -2.91139 -5.83165 0
M  V30 5740 N 536.55 0.480323 -1.50102 0
M  V30 5741 C 537.498 1.60024 -1.68805 0
M  V30 5742 C 538.492 1.60089 -0.553888 0
M  V30 5743 O 539.698 1.64349 -0.734127 0
M  V30 5744 H 536.073 0.530841 -0.532646 0
M  V30 5745 H 538.044 1.41408 -2.62767 0
M  V30 5746 C 536.793 2.98029 -1.79092 0
M  V30 5747 H 536.116 2.98694 -2.65748 0
M  V30 5748 H 537.556 3.75871 -1.96206 0
M  V30 5749 C 536.015 3.32538 -0.540388 0
M  V30 5750 O 536.545 4.00386 0.324637 0
M  V30 5751 N 534.751 2.87873 -0.397154 0
M  V30 5752 H 534.298 2.32834 -1.1021 0
M  V30 5753 H 534.256 3.11328 0.438425 0
M  V30 5754 N 538.028 1.39524 0.732853 0
M  V30 5755 C 539.305 1.27373 1.48444 0
M  V30 5756 C 539.685 -0.115725 2.10783 0
M  V30 5757 O 539.033 -1.12713 1.98766 0
M  V30 5758 C 539.243 2.39966 2.53412 0
M  V30 5759 C 540.591 2.79384 3.19733 0
M  V30 5760 O 541.615 2.39431 2.63725 0
M  V30 5761 O 540.474 3.48353 4.21085 0
M  V30 5762 H 537.568 0.499272 0.659285 0
M  V30 5763 H 540.114 1.51403 0.766496 0
M  V30 5764 H 538.886 3.32845 2.05742 0
M  V30 5765 H 538.509 2.17612 3.32762 0
M  V30 5766 N 539.506 -0.963266 1.24736 0
M  V30 5767 C 540.922 -1.23273 1.01371 0
M  V30 5768 C 541.122 -1.99618 -0.274776 0
M  V30 5769 O 540.178 -2.32293 -0.989769 0
M  V30 5770 C 541.491 -2.01554 2.23152 0
M  V30 5771 C 543.039 -2.14629 2.27823 0
M  V30 5772 C 543.514 -2.96307 3.49237 0
M  V30 5773 N 545.005 -3.03887 3.49581 0
M  V30 5774 C 545.74 -3.67456 4.40186 0
M  V30 5775 N 545.236 -4.32706 5.41052 0
M  V30 5776 N 547.029 -3.64511 4.27888 0
M  V30 5777 H 539.18 -0.452294 2.07528 0
M  V30 5778 H 541.443 -0.262521 0.910926 0
M  V30 5779 H 541.149 -1.52847 3.1675 0
M  V30 5780 H 541.023 -3.02278 2.25628 0
M  V30 5781 H 543.41 -2.62537 1.34753 0
M  V30 5782 H 543.491 -1.13238 2.2937 0
M  V30 5783 H 543.135 -2.49091 4.42624 0
M  V30 5784 H 543.065 -3.97905 3.44933 0
M  V30 5785 H 545.556 -2.57477 2.76611 0
M  V30 5786 H 545.869 -4.79042 6.06415 0
M  V30 5787 H 544.214 -4.31361 5.44934 0
M  V30 5788 H 547.405 -3.12715 3.4832 0
M  V30 5789 H 547.578 -4.13768 4.98698 0
M  V30 5790 N 540.985 -1.06182 -1.16461 0
M  V30 5791 C 542.262 -0.691364 -1.82974 0
M  V30 5792 C 542.642 0.827377 -1.9421 0
M  V30 5793 O 541.99 1.73723 -1.48434 0
M  V30 5794 C 542.2 -1.39199 -3.20038 0
M  V30 5795 C 543.548 -1.53647 -3.95825 0
M  V30 5796 O 544.572 -1.35181 -3.29552 0
M  V30 5797 O 543.431 -1.83932 -5.14618 0
M  V30 5798 H 540.525 -0.244605 -0.789998 0
M  V30 5799 H 543.071 -1.16203 -1.23673 0
M  V30 5800 H 541.843 -2.42766 -3.06888 0
M  V30 5801 H 541.466 -0.911335 -3.87015 0
M  V30 5802 N 542.463 1.3308 -0.844243 0
M  V30 5803 C 543.393 2.3161 -0.296493 0
M  V30 5804 C 544.374 1.59215 0.598707 0
M  V30 5805 O 545.559 1.87077 0.521134 0
M  V30 5806 C 542.689 3.43313 0.524762 0
M  V30 5807 C 541.643 4.27115 -0.275106 0
M  V30 5808 C 540.969 5.30483 0.670236 0
M  V30 5809 C 542.269 5.00443 -1.49514 0
M  V30 5810 H 543.963 2.77672 -1.11976 0
M  V30 5811 H 541.509 1.33496 -0.539899 0
M  V30 5812 H 543.462 4.11273 0.918298 0
M  V30 5813 H 542.186 2.95952 1.3813 0
M  V30 5814 H 540.845 3.60787 -0.650267 0
M  V30 5815 H 540.493 4.79379 1.52332 0
M  V30 5816 H 540.193 5.87435 0.139123 0
M  V30 5817 H 541.717 6.01308 1.06117 0
M  V30 5818 H 543.131 5.61141 -1.17447 0
M  V30 5819 H 541.528 5.67071 -1.96343 0
M  V30 5820 H 542.598 4.28906 -2.26202 0
M  V30 5821 N 543.941 0.601185 1.45683 0
M  V30 5822 C 545.19 0.0914953 2.01492 0
M  V30 5823 C 545.503 -1.28331 1.47616 0
M  V30 5824 O 546.709 -1.88537 1.95362 0
M  V30 5825 C 545.165 0.11291 3.59723 0
M  V30 5826 C 544.773 1.48717 4.22596 0
M  V30 5827 C 546.517 -0.341871 4.23121 0
M  V30 5828 C 544.424 1.46531 5.7296 0
M  V30 5829 H 543.354 0.0304365 0.753385 0
M  V30 5830 H 546.005 0.755568 1.67223 0
M  V30 5831 H 544.387 -0.617692 3.91153 0
M  V30 5832 H 545.561 2.23897 4.02749 0
M  V30 5833 H 543.876 1.88351 3.71366 0
M  V30 5834 H 546.473 -0.377304 5.33367 0
M  V30 5835 H 546.816 -1.36325 3.93346 0
M  V30 5836 H 547.349 0.335256 3.96385 0
M  V30 5837 H 544.088 2.46408 6.07423 0
M  V30 5838 H 543.608 0.755997 5.95017 0
M  V30 5839 H 545.287 1.18618 6.36034 0
M  V30 5840 N 545.419 -1.53889 0.339982 0
M  V30 5841 C 546.329 -2.28604 -0.526988 0
M  V30 5842 C 547.345 -1.33578 -1.11503 0
M  V30 5843 O 548.521 -1.66612 -1.13148 0
M  V30 5844 C 545.586 -3.04164 -1.66389 0
M  V30 5845 C 544.647 -4.14809 -1.10599 0
M  V30 5846 C 543.88 -4.86756 -2.18871 0
M  V30 5847 O 544.103 -4.58343 -3.39526 0
M  V30 5848 O 543.037 -5.73289 -1.83366 0
M  V30 5849 H 546.863 -3.03594 0.0802707 0
M  V30 5850 H 544.448 -1.4903 0.105141 0
M  V30 5851 H 546.33 -3.51427 -2.32544 0
M  V30 5852 H 545.005 -2.32035 -2.25703 0
M  V30 5853 H 543.912 -3.71857 -0.409067 0
M  V30 5854 H 545.245 -4.89029 -0.557771 0
M  V30 5855 N 546.897 -0.0685191 -1.57451 0
M  V30 5856 C 547.827 0.89747 -2.15564 0
M  V30 5857 C 548.808 1.31266 -1.08181 0
M  V30 5858 O 549.993 1.38429 -1.36202 0
M  V30 5859 C 547.123 2.16623 -2.71463 0
M  V30 5860 C 546.077 1.89054 -3.83982 0
M  V30 5861 C 545.403 3.22532 -4.26471 0
M  V30 5862 C 546.703 1.1984 -5.08366 0
M  V30 5863 H 548.397 0.413373 -2.96533 0
M  V30 5864 H 545.943 0.197391 -1.42641 0
M  V30 5865 H 547.896 2.84614 -3.10761 0
M  V30 5866 H 546.62 2.67269 -1.8771 0
M  V30 5867 H 545.279 1.23469 -3.45183 0
M  V30 5868 H 544.927 3.71013 -3.39644 0
M  V30 5869 H 544.627 3.04879 -5.02317 0
M  V30 5870 H 546.151 3.91727 -4.68383 0
M  V30 5871 H 547.565 1.77896 -5.45001 0
M  V30 5872 H 545.962 1.12456 -5.89469 0
M  V30 5873 H 547.032 0.176996 -4.84577 0
M  V30 5874 N 548.375 1.56261 0.205012 0
M  V30 5875 C 549.621 1.80306 0.9283 0
M  V30 5876 C 549.954 0.640932 1.83319 0
M  V30 5877 O 549.229 -0.359032 1.91158 0
M  V30 5878 C 549.512 3.14547 1.75306 0
M  V30 5879 C 549.365 4.41236 0.873562 0
M  V30 5880 C 550.684 3.45382 2.72762 0
M  V30 5881 H 547.803 0.655929 0.336044 0
M  V30 5882 H 550.445 1.88984 0.196211 0
M  V30 5883 H 548.595 3.0728 2.37721 0
M  V30 5884 H 550.267 4.60539 0.264887 0
M  V30 5885 H 548.51 4.33427 0.179773 0
M  V30 5886 H 549.181 5.31639 1.48541 0
M  V30 5887 H 551.657 3.52884 2.20481 0
M  V30 5888 H 550.533 4.40449 3.2756 0
M  V30 5889 H 550.794 2.68377 3.51321 0
M  V30 5890 N 549.853 -0.472356 1.50355 0
M  V30 5891 C 551.13 -1.23356 1.51798 0
M  V30 5892 C 551.51 -2.09469 0.26193 0
M  V30 5893 O 550.858 -2.15677 -0.754691 0
M  V30 5894 C 551.068 -2.06568 2.81302 0
M  V30 5895 C 552.416 -2.648 3.31913 0
M  V30 5896 O 553.44 -2.16812 2.82614 0
M  V30 5897 O 552.299 -3.52231 4.17846 0
M  V30 5898 H 549.393 -0.559707 0.608816 0
M  V30 5899 H 551.939 -0.48428 1.62643 0
M  V30 5900 H 550.711 -1.43103 3.64194 0
M  V30 5901 H 550.334 -2.88633 2.73454 0
M  V30 5902 N 551.331 -1.39911 -0.725443 0
M  V30 5903 C 552.742 -1.33599 -1.30415 0
M  V30 5904 C 553.093 -0.00481792 -1.96199 0
M  V30 5905 O 552.218 0.897275 -1.96921 0
M  V30 5906 C 552.813 -2.41965 -2.37146 0
M  V30 5907 C 551.372 -2.39144 -2.90667 0
M  V30 5908 C 550.519 -2.23355 -1.64341 0
M  V30 5909 H 553.47 -1.4986 -0.522267 0
M  V30 5910 H 553.491 -2.09304 -3.17761 0
M  V30 5911 H 553.003 -3.38837 -1.89238 0
M  V30 5912 H 551.104 -1.4594 -3.4283 0
M  V30 5913 H 551.217 -3.34362 -3.43131 0
M  V30 5914 H 549.581 -1.70696 -1.89037 0
M  V30 5915 H 550.364 -3.2221 -1.18471 0
M  V30 5916 N 552.809 0.956637 -1.25245 0
M  V30 5917 C 553.757 2.0743 -1.0524 0
M  V30 5918 C 554.751 1.69392 0.0160725 0
M  V30 5919 O 555.957 1.7946 -0.139382 0
M  V30 5920 H 552.332 0.678921 -0.323373 0
M  V30 5921 H 554.303 2.2146 -1.99995 0
M  V30 5922 C 553.052 3.40872 -0.685702 0
M  V30 5923 H 552.375 3.70607 -1.49968 0
M  V30 5924 H 553.815 4.19939 -0.585415 0
M  V30 5925 C 552.274 3.31367 0.608082 0
M  V30 5926 O 552.804 3.66214 1.65076 0
M  V30 5927 N 551.01 2.84486 0.592955 0
M  V30 5928 H 550.557 2.56326 -0.25592 0
M  V30 5929 H 550.515 2.78509 1.45877 0
M  V30 5930 N 554.287 1.06798 1.15896 0
M  V30 5931 C 555.533 0.798757 1.8706 0
M  V30 5932 C 555.888 -0.667739 1.80441 0
M  V30 5933 O 555.181 -1.48334 1.21274 0
M  V30 5934 C 555.375 1.23414 3.35416 0
M  V30 5935 C 555.204 2.74142 3.56478 0
M  V30 5936 C 553.974 3.41675 3.72272 0
M  V30 5937 C 556.172 3.72348 3.5477 0
M  V30 5938 N 554.154 4.81101 3.81333 0
M  V30 5939 C 555.525 4.97585 3.69877 0
M  V30 5940 C 557.58 3.65585 3.38011 0
M  V30 5941 C 556.283 6.16866 3.69959 0
M  V30 5942 C 558.309 4.84323 3.39389 0
M  V30 5943 C 557.671 6.08391 3.5502 0
M  V30 5944 H 553.77 0.344761 0.7019 0
M  V30 5945 H 556.354 1.36314 1.3902 0
M  V30 5946 H 554.525 0.697522 3.82085 0
M  V30 5947 H 556.257 0.91304 3.94266 0
M  V30 5948 H 553.012 2.92078 3.7281 0
M  V30 5949 H 553.436 5.53647 3.8962 0
M  V30 5950 H 558.078 2.70615 3.2485 0
M  V30 5951 H 555.796 7.12164 3.819 0
M  V30 5952 H 559.382 4.80762 3.27658 0
M  V30 5953 H 558.262 6.98731 3.56012 0
M  V30 5954 N 555.766 -1.3263 0.851289 0
M  V30 5955 C 557.177 -1.79653 0.5081 0
M  V30 5956 C 557.528 -1.70327 -0.973815 0
M  V30 5957 O 556.653 -1.25986 -1.75944 0
M  V30 5958 C 557.248 -3.26196 0.915515 0
M  V30 5959 C 555.807 -3.71187 0.624277 0
M  V30 5960 C 554.954 -2.53804 1.11709 0
M  V30 5961 H 557.905 -1.19976 1.03882 0
M  V30 5962 H 557.926 -3.79801 0.230535 0
M  V30 5963 H 557.438 -3.32952 1.99411 0
M  V30 5964 H 555.539 -3.69948 -0.443737 0
M  V30 5965 H 555.652 -4.64132 1.18821 0
M  V30 5966 H 554.016 -2.48964 0.537484 0
M  V30 5967 H 554.799 -2.63315 2.20272 0
M  V30 5968 N 557.244 -0.608902 -1.45362 0
M  V30 5969 C 558.521 -0.0365378 -1.95566 0
M  V30 5970 C 558.901 1.43169 -1.55131 0
M  V30 5971 O 558.249 2.1349 -0.814513 0
M  V30 5972 C 558.459 -0.236026 -3.48201 0
M  V30 5973 C 559.807 -0.117518 -4.24437 0
M  V30 5974 O 560.831 -0.166217 -3.55812 0
M  V30 5975 O 559.69 -0.00372127 -5.465 0
M  V30 5976 H 556.784 0.0349874 -0.82626 0
M  V30 5977 H 559.33 -0.679055 -1.55521 0
M  V30 5978 H 558.102 -1.25569 -3.70605 0
M  V30 5979 H 557.725 0.441691 -3.95139 0
M  V30 5980 N 558.722 1.53707 -0.348139 0
M  V30 5981 C 559.652 2.28111 0.498766 0
M  V30 5982 C 560.633 1.29851 1.09876 0
M  V30 5983 O 561.818 1.587 1.11928 0
M  V30 5984 C 558.948 3.05735 1.64753 0
M  V30 5985 C 557.902 4.11537 1.17565 0
M  V30 5986 C 557.228 4.77142 2.4133 0
M  V30 5987 C 558.528 5.21587 0.272844 0
M  V30 5988 H 560.222 2.99152 -0.121934 0
M  V30 5989 H 557.768 1.43875 -0.0600842 0
M  V30 5990 H 559.721 3.56526 2.24649 0
M  V30 5991 H 558.445 2.32354 2.2952 0
M  V30 5992 H 557.104 3.61665 0.599483 0
M  V30 5993 H 556.752 4.0035 3.04514 0
M  V30 5994 H 556.452 5.48626 2.10436 0
M  V30 5995 H 557.976 5.30719 3.01943 0
M  V30 5996 H 559.39 5.67986 0.778779 0
M  V30 5997 H 557.787 6.00074 0.0555849 0
M  V30 5998 H 558.857 4.79969 -0.689785 0
M  V30 5999 N 560.2 0.0768682 1.57412 0
M  V30 6000 C 561.448 -0.589918 1.93299 0
M  V30 6001 C 561.769 -1.69842 0.958049 0
M  V30 6002 O 561.039 -1.95899 0.00703261 0
M  V30 6003 H 559.619 -0.220901 0.713591 0
M  V30 6004 H 562.281 0.135917 1.94425 0
M  V30 6005 H 561.377 -1.01195 2.95239 0
M  V30 6006 N 561.678 -1.56367 -0.196722 0
M  V30 6007 C 562.903 -1.84991 -0.937714 0
M  V30 6008 C 563.328 -0.660244 -1.76132 0
M  V30 6009 O 562.686 0.390967 -1.77034 0
M  V30 6010 C 562.734 -3.11828 -1.81096 0
M  V30 6011 O 561.838 -2.92266 -2.90955 0
M  V30 6012 H 561.179 -0.609193 -0.264159 0
M  V30 6013 H 563.709 -2.03595 -0.202529 0
M  V30 6014 H 563.719 -3.42579 -2.21594 0
M  V30 6015 H 562.394 -3.98037 -1.2058 0
M  V30 6016 H 560.971 -2.72809 -2.54224 0
M  V30 6017 N 563.156 0.464375 -1.50603 0
M  V30 6018 C 564.103 1.56152 -1.69956 0
M  V30 6019 C 565.073 1.57046 -0.54091 0
M  V30 6020 O 566.258 1.74473 -0.772258 0
M  V30 6021 C 563.398 2.94079 -1.80586 0
M  V30 6022 C 562.511 3.02923 -3.07996 0
M  V30 6023 C 561.646 4.31806 -3.09382 0
M  V30 6024 C 560.685 4.34417 -4.31218 0
M  V30 6025 N 559.822 5.54782 -4.30304 0
M  V30 6026 H 564.662 1.38955 -2.6362 0
M  V30 6027 H 562.199 0.675482 -1.30674 0
M  V30 6028 H 564.157 3.74073 -1.8473 0
M  V30 6029 H 562.787 3.09896 -0.903556 0
M  V30 6030 H 561.839 2.1576 -3.13292 0
M  V30 6031 H 563.151 3.00712 -3.97962 0
M  V30 6032 H 562.305 5.20153 -3.12292 0
M  V30 6033 H 561.044 4.36636 -2.17257 0
M  V30 6034 H 560.049 3.44467 -4.28512 0
M  V30 6035 H 561.274 4.31273 -5.24576 0
M  V30 6036 H 559.22 5.60384 -3.41037 0
M  V30 6037 H 559.137 5.54339 -5.14047 0
M  V30 6038 H 560.405 6.45235 -4.3737 0
M  V30 6039 N 564.634 1.40294 0.718013 0
M  V30 6040 C 565.88 1.39648 1.47885 0
M  V30 6041 C 566.235 -0.0023879 1.924 0
M  V30 6042 O 565.528 -0.972304 1.65096 0
M  V30 6043 C 565.722 2.31814 2.72024 0
M  V30 6044 C 565.551 3.80523 2.3965 0
M  V30 6045 C 564.321 4.49351 2.3111 0
M  V30 6046 C 566.519 4.72077 2.04079 0
M  V30 6047 N 564.501 5.83305 1.91385 0
M  V30 6048 C 565.872 5.94809 1.74935 0
M  V30 6049 C 567.927 4.59935 1.90694 0
M  V30 6050 C 566.63 7.06755 1.33753 0
M  V30 6051 C 568.656 5.7182 1.50915 0
M  V30 6052 C 568.018 6.93637 1.22668 0
M  V30 6053 H 564.117 0.566263 0.539324 0
M  V30 6054 H 566.701 1.75986 0.832891 0
M  V30 6055 H 564.872 1.97607 3.34374 0
M  V30 6056 H 566.604 2.22042 3.38348 0
M  V30 6057 H 563.359 4.03002 2.4877 0
M  V30 6058 H 563.783 6.54239 1.74068 0
M  V30 6059 H 568.425 3.66274 2.11194 0
M  V30 6060 H 566.143 8.00302 1.11995 0
M  V30 6061 H 569.729 5.64421 1.4114 0
M  V30 6062 H 568.609 7.78743 0.923502 0
M  V30 6063 N 566.112 -0.949982 1.2575 0
M  V30 6064 C 567.042 -2.06483 1.09028 0
M  V30 6065 C 568.023 -1.701 -0.00201532 0
M  V30 6066 O 569.208 -1.93469 0.168383 0
M  V30 6067 C 566.338 -3.39899 0.71316 0
M  V30 6068 C 565.292 -3.90309 1.75621 0
M  V30 6069 C 564.618 -5.20274 1.23365 0
M  V30 6070 C 565.918 -4.16169 3.15596 0
M  V30 6071 H 567.612 -2.20731 2.02283 0
M  V30 6072 H 565.158 -1.06066 0.973964 0
M  V30 6073 H 567.111 -4.17346 0.58309 0
M  V30 6074 H 565.835 -3.25602 -0.255091 0
M  V30 6075 H 564.494 -3.15035 1.8748 0
M  V30 6076 H 564.142 -5.02351 0.255491 0
M  V30 6077 H 563.842 -5.54971 1.93082 0
M  V30 6078 H 565.366 -6.00314 1.11607 0
M  V30 6079 H 566.78 -4.84259 3.06864 0
M  V30 6080 H 565.177 -4.62131 3.82825 0
M  V30 6081 H 566.247 -3.22273 3.6231 0
M  V30 6082 N 567.59 -1.07411 -1.15328 0
M  V30 6083 C 568.82 -0.817595 -1.89734 0
M  V30 6084 C 569.228 0.63297 -1.78298 0
M  V30 6085 O 568.571 1.44594 -1.13306 0
M  V30 6086 C 568.633 -1.14748 -3.40695 0
M  V30 6087 C 568.297 -2.59876 -3.75917 0
M  V30 6088 C 569.294 -3.58122 -3.76888 0
M  V30 6089 C 566.979 -2.95469 -4.06206 0
M  V30 6090 C 568.973 -4.89996 -4.07655 0
M  V30 6091 C 566.66 -4.2754 -4.36638 0
M  V30 6092 C 567.658 -5.24614 -4.37344 0
M  V30 6093 O 567.346 -6.54312 -4.67045 0
M  V30 6094 H 567.078 -0.295175 -0.608151 0
M  V30 6095 H 569.632 -1.43409 -1.47048 0
M  V30 6096 H 567.862 -0.47395 -3.83785 0
M  V30 6097 H 569.551 -0.873397 -3.96392 0
M  V30 6098 H 570.317 -3.31966 -3.53587 0
M  V30 6099 H 566.196 -2.20558 -4.04815 0
M  V30 6100 H 569.74 -5.65759 -4.08121 0
M  V30 6101 H 565.637 -4.53449 -4.59407 0
M  V30 6102 H 566.405 -6.59473 -4.84807 0
M  V30 6103 N 569.068 1.32177 -0.85831 0
M  V30 6104 C 570.293 2.01847 -0.476718 0
M  V30 6105 C 570.718 1.64065 0.920021 0
M  V30 6106 O 570.076 0.843189 1.60499 0
M  V30 6107 C 570.124 3.55097 -0.627578 0
M  V30 6108 O 569.228 4.11012 0.338086 0
M  V30 6109 H 568.569 0.635907 -0.191099 0
M  V30 6110 H 571.099 1.68641 -1.15851 0
M  V30 6111 H 571.109 4.04718 -0.516476 0
M  V30 6112 H 569.784 3.81938 -1.64609 0
M  V30 6113 H 568.361 3.72451 0.182917 0
M  V30 6114 N 570.547 0.616602 1.45037 0
M  V30 6115 C 571.793 0.115501 2.02471 0
M  V30 6116 C 572.126 -1.25406 1.4828 0
M  V30 6117 O 571.401 -1.82922 0.661051 0
M  V30 6118 C 571.684 0.0863588 3.59996 0
M  V30 6119 C 571.537 1.48723 4.24501 0
M  V30 6120 C 572.856 -0.596762 4.36035 0
M  V30 6121 H 569.975 0.0434461 0.735718 0
M  V30 6122 H 572.617 0.7903 1.72784 0
M  V30 6123 H 570.767 -0.488277 3.85419 0
M  V30 6124 H 572.439 2.10964 4.10234 0
M  V30 6125 H 570.682 2.04534 3.82555 0
M  V30 6126 H 571.353 1.419 5.3345 0
M  V30 6127 H 573.829 -0.10824 4.15959 0
M  V30 6128 H 572.705 -0.586289 5.4576 0
M  V30 6129 H 572.966 -1.66451 4.09569 0
M  V30 6130 N 572.025 -1.5352 0.356285 0
M  V30 6131 C 573.436 -1.86282 -0.12492 0
M  V30 6132 C 573.787 -1.27717 -1.48939 0
M  V30 6133 O 572.912 -0.595614 -2.08042 0
M  V30 6134 C 573.507 -3.37995 -0.23345 0
M  V30 6135 C 572.066 -3.70588 -0.658899 0
M  V30 6136 C 571.213 -2.76581 0.199596 0
M  V30 6137 H 574.164 -1.47901 0.575423 0
M  V30 6138 H 574.185 -3.65475 -1.0587 0
M  V30 6139 H 573.697 -3.8059 0.759776 0
M  V30 6140 H 571.798 -3.33544 -1.66069 0
M  V30 6141 H 571.911 -4.77076 -0.439957 0
M  V30 6142 H 570.275 -2.52552 -0.330076 0
M  V30 6143 H 571.058 -3.22008 1.19019 0
M  V30 6144 N 573.503 -0.0852151 -1.57369 0
M  V30 6145 C 574.749 0.575588 -1.95086 0
M  V30 6146 C 575.104 1.66402 -0.96582 0
M  V30 6147 O 574.397 1.91598 0.00978463 0
M  V30 6148 C 574.591 1.18482 -3.3719 0
M  V30 6149 C 574.42 0.156928 -4.49426 0
M  V30 6150 C 573.19 -0.263126 -5.04614 0
M  V30 6151 C 575.388 -0.611068 -5.10657 0
M  V30 6152 N 573.37 -1.28032 -6.00401 0
M  V30 6153 C 574.741 -1.48036 -6.02068 0
M  V30 6154 C 576.796 -0.665669 -4.9343 0
M  V30 6155 C 575.499 -2.39943 -6.781 0
M  V30 6156 C 577.525 -1.5723 -5.70116 0
M  V30 6157 C 576.887 -2.42924 -6.61186 0
M  V30 6158 H 572.986 0.181249 -0.760705 0
M  V30 6159 H 575.57 -0.165484 -1.93995 0
M  V30 6160 H 573.741 1.89575 -3.38992 0
M  V30 6161 H 575.473 1.80718 -3.62109 0
M  V30 6162 H 572.228 0.122664 -4.73441 0
M  V30 6163 H 572.652 -1.78682 -6.52994 0
M  V30 6164 H 577.294 -0.0173214 -4.22796 0
M  V30 6165 H 575.012 -3.05807 -7.48002 0
M  V30 6166 H 578.598 -1.61956 -5.58804 0
M  V30 6167 H 577.478 -3.1194 -7.19488 0
M  V30 6168 N 574.981 1.5647 0.188427 0
M  V30 6169 C 576.229 1.80655 0.905986 0
M  V30 6170 C 576.55 0.659391 1.83513 0
M  V30 6171 O 575.82 -0.321868 1.93238 0
M  V30 6172 H 574.4 0.666391 0.337538 0
M  V30 6173 H 577.062 1.93949 0.192339 0
M  V30 6174 H 576.158 2.74066 1.49313 0
M  V30 6175 N 576.459 -0.456382 1.50847 0
M  V30 6176 C 577.706 -1.20736 1.62571 0
M  V30 6177 C 578.034 -1.9163 0.332904 0
M  V30 6178 O 577.289 -1.8343 -0.682058 0
M  V30 6179 C 577.588 -2.26336 2.76599 0
M  V30 6180 C 577.254 -1.7259 4.16562 0
M  V30 6181 C 575.916 -1.57654 4.54641 0
M  V30 6182 C 578.268 -1.32877 5.03977 0
M  V30 6183 C 575.596 -1.0145 5.77862 0
M  V30 6184 C 577.948 -0.7811 6.27759 0
M  V30 6185 C 576.612 -0.618488 6.64628 0
M  V30 6186 H 575.882 -0.441803 0.594888 0
M  V30 6187 H 578.529 -0.501169 1.84826 0
M  V30 6188 H 576.834 -3.0292 2.48489 0
M  V30 6189 H 578.531 -2.84227 2.82871 0
M  V30 6190 H 575.121 -1.85187 3.86528 0
M  V30 6191 H 579.305 -1.43245 4.75179 0
M  V30 6192 H 574.561 -0.876109 6.0509 0
M  V30 6193 H 578.735 -0.464783 6.94847 0
M  V30 6194 H 576.362 -0.180838 7.59985 0
M  V30 6195 N 577.937 -1.40673 -0.710563 0
M  V30 6196 C 579.353 -1.22813 -1.01928 0
M  V30 6197 C 579.553 -0.10687 -2.01216 0
M  V30 6198 O 578.609 0.533614 -2.46797 0
M  V30 6199 C 579.922 -2.57178 -1.5582 0
M  V30 6200 C 581.47 -2.64233 -1.67779 0
M  V30 6201 C 581.945 -3.98879 -2.25076 0
M  V30 6202 N 583.436 -4.00647 -2.32456 0
M  V30 6203 C 584.171 -5.01621 -2.77784 0
M  V30 6204 N 583.667 -6.12989 -3.22826 0
M  V30 6205 N 585.46 -4.88988 -2.77213 0
M  V30 6206 H 577.611 -2.12335 -0.05253 0
M  V30 6207 H 579.874 -0.9441 -0.085898 0
M  V30 6208 H 579.58 -3.39903 -0.903249 0
M  V30 6209 H 579.454 -2.78618 -2.54267 0
M  V30 6210 H 581.841 -1.81876 -2.3239 0
M  V30 6211 H 581.922 -2.46619 -0.679178 0
M  V30 6212 H 581.566 -4.81678 -1.61086 0
M  V30 6213 H 581.496 -4.13826 -3.25661 0
M  V30 6214 H 583.987 -3.20231 -2.0065 0
M  V30 6215 H 584.3 -6.85921 -3.55995 0
M  V30 6216 H 582.645 -6.16547 -3.20773 0
M  V30 6217 H 585.836 -4.01075 -2.41363 0
M  V30 6218 H 586.009 -5.67822 -3.12221 0
M  V30 6219 N 579.415 0.9433 -1.26252 0
M  V30 6220 C 580.831 1.21644 -1.03319 0
M  V30 6221 C 581.031 2.0003 0.242983 0
M  V30 6222 O 580.087 2.33838 0.952688 0
M  V30 6223 C 581.4 1.97978 -2.2633 0
M  V30 6224 C 582.948 2.10978 -2.31209 0
M  V30 6225 C 583.423 2.90713 -3.53907 0
M  V30 6226 N 584.914 2.98287 -3.54371 0
M  V30 6227 C 585.649 3.60406 -4.45976 0
M  V30 6228 N 585.145 4.24043 -5.47868 0
M  V30 6229 N 586.938 3.57658 -4.33633 0
M  V30 6230 H 579.089 0.419221 -2.08222 0
M  V30 6231 H 581.352 0.247995 -0.914988 0
M  V30 6232 H 581.058 1.47788 -3.19142 0
M  V30 6233 H 580.932 2.9865 -2.30408 0
M  V30 6234 H 583.319 2.6036 -1.38913 0
M  V30 6235 H 583.4 1.09575 -2.31143 0
M  V30 6236 H 583.044 2.42018 -4.46531 0
M  V30 6237 H 582.974 3.92367 -3.5122 0
M  V30 6238 H 585.465 2.53044 -2.80673 0
M  V30 6239 H 585.778 4.69334 -6.13959 0
M  V30 6240 H 584.123 4.22637 -5.51728 0
M  V30 6241 H 587.314 3.07134 -3.53251 0
M  V30 6242 H 587.487 4.05782 -5.05218 0
M  V30 6243 N 580.893 1.08022 1.14757 0
M  V30 6244 C 581.823 0.728248 2.21853 0
M  V30 6245 C 582.804 -0.287486 1.67653 0
M  V30 6246 O 583.989 -0.158727 1.9355 0
M  V30 6247 C 581.119 0.132549 3.47047 0
M  V30 6248 C 580.073 1.07619 4.14249 0
M  V30 6249 C 579.399 0.342907 5.33599 0
M  V30 6250 C 580.699 2.41268 4.63235 0
M  V30 6251 H 582.393 1.62365 2.51551 0
M  V30 6252 H 579.939 0.782125 1.20908 0
M  V30 6253 H 581.892 -0.125665 4.21213 0
M  V30 6254 H 580.616 -0.797971 3.16702 0
M  V30 6255 H 579.275 1.31944 3.42033 0
M  V30 6256 H 578.923 -0.59129 4.99513 0
M  V30 6257 H 578.623 0.971955 5.79506 0
M  V30 6258 H 580.147 0.0926538 6.1053 0
M  V30 6259 H 581.561 2.21232 5.28894 0
M  V30 6260 H 579.958 2.9983 5.19829 0
M  V30 6261 H 581.028 3.03079 3.78512 0
M  V30 6262 N 582.371 -1.3172 0.865308 0
M  V30 6263 C 583.301 -2.31109 0.333302 0
M  V30 6264 C 584.282 -1.60148 -0.573301 0
M  V30 6265 O 585.467 -1.87882 -0.491305 0
M  V30 6266 C 582.597 -3.44104 -0.470078 0
M  V30 6267 C 581.551 -4.26623 0.343021 0
M  V30 6268 C 580.877 -5.31482 -0.585756 0
M  V30 6269 C 582.177 -4.98001 1.57456 0
M  V30 6270 H 583.871 -2.75855 1.1638 0
M  V30 6271 H 581.417 -1.3262 0.561069 0
M  V30 6272 H 583.37 -4.12682 -0.852752 0
M  V30 6273 H 582.094 -2.98112 -1.33404 0
M  V30 6274 H 580.753 -3.59707 0.707583 0
M  V30 6275 H 580.401 -4.81741 -1.44686 0
M  V30 6276 H 580.101 -5.87582 -0.0456494 0
M  V30 6277 H 581.625 -6.0292 -0.965375 0
M  V30 6278 H 583.039 -5.59201 1.26359 0
M  V30 6279 H 581.436 -5.63876 2.05339 0
M  V30 6280 H 582.506 -4.25253 2.32997 0
M  V30 6281 N 583.85 -0.624285 -1.44708 0
M  V30 6282 C 584.798 0.0969952 -2.32398 0
M  V30 6283 C 585.792 0.842762 -1.46949 0
M  V30 6284 O 586.998 0.756436 -1.63334 0
M  V30 6285 H 583.373 0.0501306 -0.750327 0
M  V30 6286 H 585.344 -0.660767 -2.90992 0
M  V30 6287 C 584.093 1.06967 -3.30837 0
M  V30 6288 H 583.416 0.505242 -3.96595 0
M  V30 6289 H 584.856 1.54397 -3.94889 0
M  V30 6290 C 583.315 2.15153 -2.5925 0
M  V30 6291 O 583.845 3.23139 -2.3863 0
M  V30 6292 N 582.051 1.90898 -2.19103 0
M  V30 6293 H 581.598 1.03086 -2.36074 0
M  V30 6294 H 581.556 2.63485 -1.71531 0
M  V30 6295 N 585.328 1.53329 -0.364422 0
M  V30 6296 C 586.575 2.01239 0.225634 0
M  V30 6297 C 586.903 1.25172 1.48869 0
M  V30 6298 O 586.158 0.333289 1.92841 0
M  V30 6299 C 586.457 3.52911 0.564661 0
M  V30 6300 C 586.123 4.46837 -0.603936 0
M  V30 6301 C 584.785 4.72234 -0.924585 0
M  V30 6302 C 587.137 5.02409 -1.38691 0
M  V30 6303 C 584.465 5.50454 -2.0302 0
M  V30 6304 C 586.817 5.81836 -2.48293 0
M  V30 6305 C 585.481 6.0552 -2.80894 0
M  V30 6306 H 584.751 0.736386 0.0825654 0
M  V30 6307 H 587.398 1.84948 -0.496645 0
M  V30 6308 H 585.703 3.67144 1.36794 0
M  V30 6309 H 587.4 3.87455 1.03344 0
M  V30 6310 H 583.99 4.27217 -0.343983 0
M  V30 6311 H 588.174 4.82735 -1.15243 0
M  V30 6312 H 583.43 5.67024 -2.28678 0
M  V30 6313 H 587.604 6.23905 -3.0938 0
M  V30 6314 H 585.231 6.65916 -3.66688 0
M  V30 6315 N 586.806 0.0935595 1.57322 0
M  V30 6316 C 587.769 -0.851426 2.12799 0
M  V30 6317 C 588.769 -1.21187 1.0569 0
M  V30 6318 O 589.959 -1.14156 1.31583 0
M  V30 6319 C 587.091 -2.14779 2.64731 0
M  V30 6320 H 588.284 -0.369733 2.97612 0
M  V30 6321 H 585.837 -0.155417 1.55525 0
M  V30 6322 H 586.572 -2.67437 1.83434 0
M  V30 6323 H 586.357 -1.89907 3.43042 0
M  V30 6324 H 587.847 -2.82383 3.07651 0
M  V30 6325 N 588.284 -1.56567 -0.180126 0
M  V30 6326 C 589.216 -1.92275 -1.24751 0
M  V30 6327 C 590.229 -0.814922 -1.40936 0
M  V30 6328 O 591.418 -1.09336 -1.41095 0
M  V30 6329 C 588.518 -2.15265 -2.61752 0
M  V30 6330 C 587.691 -3.46467 -2.66981 0
M  V30 6331 C 586.75 -3.58391 -3.85283 0
M  V30 6332 O 585.776 -4.31086 -3.7169 0
M  V30 6333 N 586.978 -2.92587 -5.01371 0
M  V30 6334 H 589.743 -2.84435 -0.944302 0
M  V30 6335 H 587.304 -1.57617 -0.369952 0
M  V30 6336 H 589.296 -2.20515 -3.39345 0
M  V30 6337 H 587.866 -1.29533 -2.845 0
M  V30 6338 H 587.086 -3.52953 -1.75549 0
M  V30 6339 H 588.374 -4.32819 -2.67479 0
M  V30 6340 H 587.772 -2.3338 -5.15316 0
M  V30 6341 H 586.329 -3.03444 -5.76858 0
M  V30 6342 N 589.762 0.448376 -1.51087 0
M  V30 6343 C 590.99 1.22143 -1.66999 0
M  V30 6344 C 591.405 1.85283 -0.362699 0
M  V30 6345 O 590.762 1.70236 0.65772 0
M  V30 6346 C 590.813 2.31357 -2.7777 0
M  V30 6347 O 590.534 1.70801 -4.03434 0
M  V30 6348 C 592.035 3.21836 -3.04855 0
M  V30 6349 H 589.255 0.368558 -0.560719 0
M  V30 6350 H 591.799 0.532618 -1.97442 0
M  V30 6351 H 589.954 2.95973 -2.49958 0
M  V30 6352 H 590.368 2.42895 -4.64868 0
M  V30 6353 H 591.842 3.94627 -3.85971 0
M  V30 6354 H 592.319 3.81949 -2.16821 0
M  V30 6355 H 592.925 2.62933 -3.34285 0
M  V30 6356 N 591.24 1.41047 0.703093 0
M  V30 6357 C 592.172 1.38228 1.82827 0
M  V30 6358 C 593.185 0.285637 1.60275 0
M  V30 6359 O 594.374 0.54685 1.69917 0
M  V30 6360 C 591.474 1.13136 3.19458 0
M  V30 6361 C 590.647 2.34695 3.69103 0
M  V30 6362 C 589.706 2.05574 4.84382 0
M  V30 6363 O 588.732 2.78549 4.96386 0
M  V30 6364 N 589.934 1.04135 5.71083 0
M  V30 6365 H 592.699 2.35203 1.85741 0
M  V30 6366 H 590.26 1.35562 0.885125 0
M  V30 6367 H 592.252 0.916183 3.94193 0
M  V30 6368 H 590.822 0.247836 3.11616 0
M  V30 6369 H 590.042 2.71963 2.85359 0
M  V30 6370 H 591.33 3.15705 3.99009 0
M  V30 6371 H 590.728 0.43722 5.64008 0
M  V30 6372 H 589.285 0.886078 6.45749 0
M  V30 6373 N 592.718 -0.936591 1.26751 0
M  V30 6374 C 593.948 -1.71509 1.15188 0
M  V30 6375 C 594.356 -1.86885 -0.295037 0
M  V30 6376 O 593.699 -1.37915 -1.21347 0
M  V30 6377 C 593.761 -3.13853 1.75318 0
M  V30 6378 C 593.425 -3.21845 3.24445 0
M  V30 6379 C 594.422 -3.04771 4.21201 0
M  V30 6380 C 592.107 -3.45088 3.64992 0
M  V30 6381 C 594.101 -3.10816 5.56482 0
M  V30 6382 C 591.788 -3.50767 5.00405 0
M  V30 6383 C 592.786 -3.33648 5.9596 0
M  V30 6384 O 592.474 -3.39045 7.28906 0
M  V30 6385 H 592.206 -0.543658 0.401761 0
M  V30 6386 H 594.76 -1.18234 1.67958 0
M  V30 6387 H 592.99 -3.6857 1.17016 0
M  V30 6388 H 594.679 -3.73634 1.58596 0
M  V30 6389 H 595.445 -2.86665 3.91214 0
M  V30 6390 H 591.324 -3.57467 2.91098 0
M  V30 6391 H 594.868 -2.97372 6.31043 0
M  V30 6392 H 590.765 -3.68396 5.30052 0
M  V30 6393 H 591.533 -3.55558 7.37238 0
M  V30 6394 N 594.196 -1.08629 -1.14182 0
M  V30 6395 C 595.444 -0.815731 -1.84906 0
M  V30 6396 C 595.765 0.660441 -1.83475 0
M  V30 6397 O 595.035 1.47888 -1.28476 0
M  V30 6398 H 593.615 -0.298773 -0.684648 0
M  V30 6399 H 596.277 -1.37274 -1.38354 0
M  V30 6400 H 595.373 -1.16193 -2.89665 0
M  V30 6401 N 595.674 1.31259 -0.872281 0
M  V30 6402 C 596.951 1.91362 -0.404943 0
M  V30 6403 C 597.331 1.79362 1.11321 0
M  V30 6404 O 596.679 1.20277 1.94283 0
M  V30 6405 C 596.889 3.3749 -0.888893 0
M  V30 6406 C 598.237 4.14593 -0.916384 0
M  V30 6407 O 599.261 3.46282 -0.834701 0
M  V30 6408 O 598.12 5.3661 -1.03498 0
M  V30 6409 H 595.214 0.818016 -0.121569 0
M  V30 6410 H 597.76 1.39912 -0.960346 0
M  V30 6411 H 596.532 3.40249 -1.93251 0
M  V30 6412 H 596.155 3.96375 -0.311932 0
M  V30 6413 N 597.152 0.631951 1.44375 0
M  V30 6414 C 598.563 0.219036 1.85411 0
M  V30 6415 C 598.914 -1.22974 1.52879 0
M  V30 6416 O 598.039 -1.93579 0.967266 0
M  V30 6417 C 598.634 0.39075 3.36539 0
M  V30 6418 C 597.193 0.0323351 3.76386 0
M  V30 6419 C 596.34 0.703744 2.68221 0
M  V30 6420 H 599.291 0.837056 1.3483 0
M  V30 6421 H 599.312 -0.370056 3.78696 0
M  V30 6422 H 598.824 1.44527 3.60185 0
M  V30 6423 H 596.925 -1.02042 3.58355 0
M  V30 6424 H 597.038 0.442969 4.77048 0
M  V30 6425 H 595.402 0.138974 2.54321 0
M  V30 6426 H 596.185 1.76088 2.947 0
M  V30 6427 N 598.631 -1.53133 0.372548 0
M  V30 6428 C 600.042 -1.86404 -0.105155 0
M  V30 6429 C 600.393 -1.29289 -1.47576 0
M  V30 6430 O 599.518 -0.617646 -2.07398 0
M  V30 6431 C 600.113 -3.38223 -0.197588 0
M  V30 6432 C 598.672 -3.71266 -0.619556 0
M  V30 6433 C 597.819 -2.76353 0.228919 0
M  V30 6434 H 600.77 -1.47282 0.591077 0
M  V30 6435 H 600.791 -3.66577 -1.01987 0
M  V30 6436 H 600.303 -3.79763 0.800099 0
M  V30 6437 H 598.404 -3.35287 -1.62522 0
M  V30 6438 H 598.517 -4.77515 -0.389332 0
M  V30 6439 H 596.881 -2.52888 -0.303271 0
M  V30 6440 H 597.664 -3.20728 1.22428 0
M  V30 6441 N 600.109 -0.101901 -1.5727 0
M  V30 6442 C 601.358 0.559922 -1.93772 0
M  V30 6443 C 601.671 1.68913 -0.98629 0
M  V30 6444 O 602.877 2.41256 -1.24529 0
M  V30 6445 C 601.333 1.04739 -3.44322 0
M  V30 6446 C 600.941 -0.05243 -4.47969 0
M  V30 6447 C 602.685 1.68157 -3.89774 0
M  V30 6448 C 600.592 0.450781 -5.8968 0
M  V30 6449 H 599.522 0.212931 -0.723309 0
M  V30 6450 H 602.173 -0.179001 -1.82625 0
M  V30 6451 H 600.555 1.84021 -3.50645 0
M  V30 6452 H 601.729 -0.828157 -4.53297 0
M  V30 6453 H 600.044 -0.592202 -4.12167 0
M  V30 6454 H 602.641 2.0689 -4.93052 0
M  V30 6455 H 602.984 2.55338 -3.28798 0
M  V30 6456 H 603.517 0.954453 -3.8618 0
M  V30 6457 H 600.256 -0.38458 -6.54371 0
M  V30 6458 H 599.776 1.19336 -5.87809 0
M  V30 6459 H 601.455 0.917555 -6.40461 0
M  V30 6460 N 601.587 1.56661 0.17182 0
M  V30 6461 C 602.817 1.85831 0.902804 0
M  V30 6462 C 603.225 0.685157 1.76358 0
M  V30 6463 O 602.568 -0.354947 1.80238 0
M  V30 6464 C 602.63 3.09406 1.83053 0
M  V30 6465 C 602.294 4.4231 1.1494 0
M  V30 6466 C 603.291 5.17342 0.515104 0
M  V30 6467 C 600.976 4.89045 1.14631 0
M  V30 6468 C 602.97 6.37299 -0.113194 0
M  V30 6469 C 600.657 6.08933 0.514184 0
M  V30 6470 C 601.655 6.82904 -0.114463 0
M  V30 6471 O 601.343 8.00518 -0.736622 0
M  V30 6472 H 601.075 0.620715 0.267748 0
M  V30 6473 H 603.629 2.04637 0.176918 0
M  V30 6474 H 601.859 2.86544 2.59672 0
M  V30 6475 H 603.548 3.25027 2.4313 0
M  V30 6476 H 604.314 4.82317 0.509474 0
M  V30 6477 H 600.193 4.31409 1.62502 0
M  V30 6478 H 603.737 6.94976 -0.604477 0
M  V30 6479 H 599.634 6.43423 0.517395 0
M  V30 6480 H 600.402 8.16027 -0.635822 0
M  V30 6481 N 603.065 -0.440357 1.51323 0
M  V30 6482 C 604.311 -1.19181 1.64085 0
M  V30 6483 C 604.644 -1.90936 0.354575 0
M  V30 6484 O 603.919 -1.8347 -0.645675 0
M  V30 6485 C 604.202 -2.2112 2.84215 0
M  V30 6486 C 604.055 -1.53468 4.22809 0
M  V30 6487 C 605.374 -3.22133 2.99864 0
M  V30 6488 H 602.493 -0.431924 0.597169 0
M  V30 6489 H 605.135 -0.481443 1.83799 0
M  V30 6490 H 603.285 -2.81703 2.67537 0
M  V30 6491 H 604.957 -0.962455 4.51148 0
M  V30 6492 H 603.2 -0.837086 4.25647 0
M  V30 6493 H 603.871 -2.27694 5.02852 0
M  V30 6494 H 606.347 -2.71601 3.15233 0
M  V30 6495 H 605.223 -3.90756 3.85488 0
M  V30 6496 H 605.484 -3.88061 2.11804 0
M  V30 6497 N 604.543 -1.41418 -0.695603 0
M  V30 6498 C 605.476 -1.3768 -1.81988 0
M  V30 6499 C 606.454 -0.244061 -1.60758 0
M  V30 6500 O 607.638 -0.430965 -1.83507 0
M  V30 6501 C 604.765 -1.1476 -3.18666 0
M  V30 6502 C 603.811 -2.30752 -3.58686 0
M  V30 6503 S 604.644 -3.9323 -3.63498 0
M  V30 6504 C 605.8 -3.72613 -5.02902 0
M  V30 6505 H 606.033 -2.32822 -1.84882 0
M  V30 6506 H 603.566 -1.27942 -0.86431 0
M  V30 6507 H 605.524 -1.02223 -3.97569 0
M  V30 6508 H 604.185 -0.212385 -3.13381 0
M  V30 6509 H 603.378 -2.10409 -4.57978 0
M  V30 6510 H 602.98 -2.39696 -2.87092 0
M  V30 6511 H 605.272 -3.32317 -5.904 0
M  V30 6512 H 606.215 -4.71507 -5.28286 0
M  V30 6513 H 606.623 -3.0589 -4.74438 0
M  V30 6514 N 606.021 0.929856 -1.27246 0
M  V30 6515 C 606.931 2.0636 -1.11592 0
M  V30 6516 C 607.947 1.73938 -0.046496 0
M  V30 6517 O 609.123 1.9981 -0.252544 0
M  V30 6518 C 606.188 3.38213 -0.762437 0
M  V30 6519 C 605.249 3.84346 -1.9125 0
M  V30 6520 C 604.482 5.09906 -1.57579 0
M  V30 6521 O 604.705 5.68354 -0.482694 0
M  V30 6522 O 603.639 5.51359 -2.41426 0
M  V30 6523 H 607.465 2.22478 -2.0673 0
M  V30 6524 H 605.05 1.04865 -1.06413 0
M  V30 6525 H 606.932 4.1741 -0.57854 0
M  V30 6526 H 605.607 3.23307 0.159439 0
M  V30 6527 H 604.514 3.06045 -2.15144 0
M  V30 6528 H 605.847 4.0379 -2.81451 0
M  V30 6529 N 607.499 1.09233 1.13605 0
M  V30 6530 C 608.447 0.724572 2.21027 0
M  V30 6531 C 609.441 -0.273595 1.67176 0
M  V30 6532 O 610.647 -0.135266 1.79491 0
M  V30 6533 H 607.022 0.216319 0.720215 0
M  V30 6534 H 608.993 1.63975 2.49309 0
M  V30 6535 C 607.742 0.159126 3.47336 0
M  V30 6536 H 607.065 0.918387 3.89109 0
M  V30 6537 H 608.505 -0.0602851 4.23957 0
M  V30 6538 C 606.964 -1.10514 3.18258 0
M  V30 6539 O 607.494 -2.18869 3.36837 0
M  V30 6540 N 605.7 -1.01886 2.72154 0
M  V30 6541 H 605.247 -0.137027 2.57235 0
M  V30 6542 H 605.205 -1.8655 2.53074 0
M  V30 6543 N 608.977 -1.30795 0.87923 0
M  V30 6544 C 610.225 -1.95974 0.493809 0
M  V30 6545 C 610.546 -1.69787 -0.959021 0
M  V30 6546 O 609.816 -1.01832 -1.67353 0
M  V30 6547 H 608.396 -0.725083 0.179622 0
M  V30 6548 H 611.058 -1.59432 1.12105 0
M  V30 6549 H 610.154 -3.05058 0.659263 0
M  V30 6550 N 610.455 -0.639598 -1.44038 0
M  V30 6551 C 611.418 0.0506628 -2.29144 0
M  V30 6552 C 612.418 0.764001 -1.41491 0
M  V30 6553 O 613.608 0.607309 -1.63271 0
M  V30 6554 C 610.74 1.0824 -3.2326 0
M  V30 6555 H 611.933 -0.697987 -2.91664 0
M  V30 6556 H 609.486 -0.400146 -1.51091 0
M  V30 6557 H 610.221 1.86075 -2.65606 0
M  V30 6558 H 610.006 0.574725 -3.87865 0
M  V30 6559 H 611.496 1.56487 -3.87171 0
M  V30 6560 N 611.933 1.52934 -0.380664 0
M  V30 6561 C 613.158 2.06363 0.207157 0
M  V30 6562 C 613.583 1.25122 1.4045 0
M  V30 6563 O 612.941 0.274062 1.79217 0
M  V30 6564 C 612.989 3.56162 0.563996 0
M  V30 6565 O 612.093 3.77552 1.65917 0
M  V30 6566 H 611.434 0.663468 0.0265859 0
M  V30 6567 H 613.964 1.9719 -0.545635 0
M  V30 6568 H 613.974 3.99453 0.830752 0
M  V30 6569 H 612.649 4.14732 -0.311427 0
M  V30 6570 H 611.226 3.46154 1.3868 0
M  V30 6571 N 613.412 0.11024 1.57214 0
M  V30 6572 C 614.344 -0.873497 2.11902 0
M  V30 6573 C 615.357 -1.23588 1.05971 0
M  V30 6574 O 616.546 -1.18636 1.33371 0
M  V30 6575 C 613.646 -2.17805 2.59643 0
M  V30 6576 C 612.819 -1.98869 3.89576 0
M  V30 6577 C 611.878 -3.12974 4.23006 0
M  V30 6578 O 610.904 -2.86272 4.91973 0
M  V30 6579 N 612.106 -4.39167 3.79622 0
M  V30 6580 H 614.871 -0.406317 2.96933 0
M  V30 6581 H 612.432 -0.074437 1.61729 0
M  V30 6582 H 614.424 -2.93117 2.79042 0
M  V30 6583 H 612.994 -2.55899 1.7954 0
M  V30 6584 H 612.214 -1.078 3.79174 0
M  V30 6585 H 613.502 -1.83512 4.74553 0
M  V30 6586 H 612.9 -4.63739 3.2398 0
M  V30 6587 H 611.457 -5.11379 4.04147 0
M  V30 6588 N 614.89 -1.56749 -0.16351 0
M  V30 6589 C 615.837 -1.97011 -1.2023 0
M  V30 6590 C 616.807 -0.835186 -1.43575 0
M  V30 6591 O 617.992 -1.09594 -1.56185 0
M  V30 6592 C 615.132 -2.34186 -2.53478 0
M  V30 6593 C 614.245 -3.60893 -2.37446 0
M  V30 6594 C 613.38 -3.87245 -3.63614 0
M  V30 6595 C 612.419 -5.07274 -3.42548 0
M  V30 6596 N 611.556 -5.29719 -4.60806 0
M  V30 6597 H 616.396 -2.85562 -0.851958 0
M  V30 6598 H 613.933 -1.41292 -0.409257 0
M  V30 6599 H 615.891 -2.53764 -3.31149 0
M  V30 6600 H 614.521 -1.48736 -2.86492 0
M  V30 6601 H 613.573 -3.49185 -1.50911 0
M  V30 6602 H 614.885 -4.48722 -2.1783 0
M  V30 6603 H 614.039 -4.07232 -4.49719 0
M  V30 6604 H 612.778 -2.97806 -3.86216 0
M  V30 6605 H 611.783 -4.87177 -2.5483 0
M  V30 6606 H 613.008 -5.98251 -3.2136 0
M  V30 6607 H 610.954 -4.43233 -4.83612 0
M  V30 6608 H 610.871 -6.11786 -4.44132 0
M  V30 6609 H 612.139 -5.54192 -5.48171 0
M  V30 6610 N 616.368 0.432326 -1.51554 0
M  V30 6611 C 617.615 1.18134 -1.64471 0
M  V30 6612 C 617.943 1.91076 -0.363349 0
M  V30 6613 O 617.198 1.84492 0.65279 0
M  V30 6614 C 617.497 2.21907 -2.80164 0
M  V30 6615 C 617.163 1.65941 -4.19255 0
M  V30 6616 C 615.825 1.50401 -4.57092 0
M  V30 6617 C 618.177 1.24843 -5.06027 0
M  V30 6618 C 615.505 0.922443 -5.79403 0
M  V30 6619 C 617.857 0.68113 -6.28922 0
M  V30 6620 C 616.521 0.512673 -6.65528 0
M  V30 6621 H 615.791 0.432283 -0.601841 0
M  V30 6622 H 618.438 0.471701 -1.856 0
M  V30 6623 H 616.743 2.98928 -2.53277 0
M  V30 6624 H 618.44 2.79691 -2.87357 0
M  V30 6625 H 615.03 1.79014 -3.89425 0
M  V30 6626 H 619.214 1.35667 -4.77397 0
M  V30 6627 H 614.47 0.779733 -6.06408 0
M  V30 6628 H 618.644 0.35418 -6.95499 0
M  V30 6629 H 616.271 0.0599084 -7.60176 0
M  V30 6630 N 617.846 1.41785 0.688094 0
M  V30 6631 C 618.796 1.40684 1.79421 0
M  V30 6632 C 619.78 0.280096 1.58443 0
M  V30 6633 O 620.972 0.521332 1.69148 0
M  V30 6634 C 618.101 1.29874 3.17785 0
M  V30 6635 C 617.187 2.47442 3.44432 0
M  V30 6636 N 617.578 3.72895 3.41736 0
M  V30 6637 C 615.876 2.41416 3.75013 0
M  V30 6638 C 616.577 4.50912 3.67496 0
M  V30 6639 N 615.553 3.81131 3.87608 0
M  V30 6640 H 619.355 2.35591 1.7571 0
M  V30 6641 H 616.869 1.35946 0.888393 0
M  V30 6642 H 618.866 1.27168 3.97031 0
M  V30 6643 H 617.526 0.359587 3.22703 0
M  V30 6644 H 618.537 4.05676 3.21943 0
M  V30 6645 H 615.214 1.56011 3.87256 0
M  V30 6646 H 616.604 5.59865 3.71484 0
M  V30 6647 N 619.324 -0.923095 1.27737 0
M  V30 6648 C 620.564 -1.6858 1.15586 0
M  V30 6649 C 620.928 -1.89758 -0.292562 0
M  V30 6650 O 622.129 -2.6339 -0.536583 0
M  V30 6651 C 620.4 -3.01275 1.92271 0
M  V30 6652 S 621.959 -3.924 1.96387 0
M  V30 6653 H 618.777 -0.579069 0.412554 0
M  V30 6654 H 621.379 -1.09866 1.61709 0
M  V30 6655 H 620.083 -2.83556 2.96689 0
M  V30 6656 H 619.614 -3.6504 1.46661 0
M  V30 6657 H 621.629 -4.84667 1.06361 0
M  V30 6658 N 620.802 -1.09834 -1.13024 0
M  V30 6659 C 622.03 -0.858902 -1.8823 0
M  V30 6660 C 622.445 0.590164 -1.79339 0
M  V30 6661 O 621.802 1.4065 -1.16292 0
M  V30 6662 C 621.853 -1.29066 -3.37675 0
M  V30 6663 O 621.574 -2.6829 -3.46341 0
M  V30 6664 C 623.075 -1.08421 -4.29837 0
M  V30 6665 H 620.295 -0.308713 -0.595766 0
M  V30 6666 H 622.839 -1.4614 -1.4305 0
M  V30 6667 H 620.994 -0.731961 -3.80422 0
M  V30 6668 H 621.408 -2.86598 -4.39274 0
M  V30 6669 H 622.882 -1.43553 -5.33007 0
M  V30 6670 H 623.359 -0.0223315 -4.39194 0
M  V30 6671 H 623.965 -1.62907 -3.92863 0
M  V30 6672 N 622.28 1.30327 -0.886154 0
M  V30 6673 C 623.212 2.27079 -0.311072 0
M  V30 6674 C 624.225 1.53758 0.53502 0
M  V30 6675 O 625.414 1.74947 0.354378 0
M  V30 6676 C 622.514 3.33965 0.576228 0
M  V30 6677 C 621.687 4.36735 -0.241064 0
M  V30 6678 C 620.746 5.23028 0.576916 0
M  V30 6679 O 619.772 5.692 -0.000802231 0
M  V30 6680 N 620.974 5.49016 1.88579 0
M  V30 6681 H 623.739 2.77065 -1.14259 0
M  V30 6682 H 621.3 1.43519 -0.749258 0
M  V30 6683 H 623.292 3.88618 1.12953 0
M  V30 6684 H 621.862 2.839 1.30842 0
M  V30 6685 H 621.082 3.81932 -0.975805 0
M  V30 6686 H 622.37 5.02451 -0.801272 0
M  V30 6687 H 621.768 5.13288 2.37806 0
M  V30 6688 H 620.325 6.06539 2.38651 0
M  V30 6689 N 623.758 0.647228 1.43697 0
M  V30 6690 C 624.688 -0.0345631 2.33474 0
M  V30 6691 C 625.669 -0.818193 1.4913 0
M  V30 6692 O 626.854 -0.780867 1.77809 0
M  V30 6693 C 623.984 -1.00576 3.32418 0
M  V30 6694 C 622.938 -0.33266 4.26705 0
M  V30 6695 C 622.264 -1.41489 5.1564 0
M  V30 6696 C 623.564 0.771204 5.16575 0
M  V30 6697 H 625.258 0.715163 2.90733 0
M  V30 6698 H 622.804 0.345364 1.39797 0
M  V30 6699 H 624.757 -1.49159 3.94119 0
M  V30 6700 H 623.481 -1.78657 2.73403 0
M  V30 6701 H 622.14 0.13267 3.6636 0
M  V30 6702 H 621.788 -2.18698 4.52968 0
M  V30 6703 H 621.488 -0.969799 5.79542 0
M  V30 6704 H 623.012 -1.9022 5.80214 0
M  V30 6705 H 624.426 0.36779 5.72119 0
M  V30 6706 H 622.823 1.1404 5.89165 0
M  V30 6707 H 623.893 1.63169 4.56622 0
M  V30 6708 N 625.236 -1.5273 0.388769 0
M  V30 6709 C 626.476 -2.03483 -0.193372 0
M  V30 6710 C 626.84 -1.26897 -1.44087 0
M  V30 6711 O 628.041 -1.67773 -2.10014 0
M  V30 6712 C 626.312 -3.54488 -0.455325 0
M  V30 6713 S 627.871 -4.27069 -1.00783 0
M  V30 6714 H 624.689 -0.708907 -0.0545131 0
M  V30 6715 H 627.291 -1.8798 0.536993 0
M  V30 6716 H 625.995 -4.07817 0.459722 0
M  V30 6717 H 625.526 -3.74196 -1.21413 0
M  V30 6718 H 627.541 -4.40185 -2.29023 0
M  V30 6719 N 626.714 -0.118576 -1.57153 0
M  V30 6720 C 627.991 0.583062 -1.86708 0
M  V30 6721 C 628.371 1.84841 -1.01967 0
M  V30 6722 O 627.719 2.28288 -0.0984673 0
M  V30 6723 C 627.929 0.875912 -3.3783 0
M  V30 6724 C 629.277 1.22916 -4.0642 0
M  V30 6725 O 630.301 0.966188 -3.42846 0
M  V30 6726 O 629.16 1.72269 -5.18638 0
M  V30 6727 H 626.254 0.294185 -0.772906 0
M  V30 6728 H 628.8 -0.153048 -1.69008 0
M  V30 6729 H 627.572 -0.0207776 -3.91294 0
M  V30 6730 H 627.195 1.66719 -3.60958 0
M  V30 6731 N 628.193 1.56834 0.155195 0
M  V30 6732 C 629.103 2.009 1.21146 0
M  V30 6733 C 630.119 0.923029 1.475 0
M  V30 6734 O 631.295 1.23189 1.59331 0
M  V30 6735 C 628.36 2.37378 2.52691 0
M  V30 6736 C 627.421 3.59883 2.34057 0
M  V30 6737 C 626.654 3.94612 3.59329 0
M  V30 6738 O 626.877 3.30104 4.65175 0
M  V30 6739 O 625.811 4.87895 3.52479 0
M  V30 6740 H 629.637 2.9105 0.867371 0
M  V30 6741 H 627.222 1.44916 0.363298 0
M  V30 6742 H 629.104 2.61737 3.3026 0
M  V30 6743 H 627.779 1.50385 2.86646 0
M  V30 6744 H 626.686 3.40722 1.54465 0
M  V30 6745 H 628.019 4.47468 2.0502 0
M  V30 6746 N 629.671 -0.424282 1.51781 0
M  V30 6747 C 630.917 -1.17117 1.66298 0
M  V30 6748 C 631.272 -1.88595 0.380767 0
M  V30 6749 O 630.565 -1.81151 -0.624094 0
M  V30 6750 C 630.759 -2.20418 2.81337 0
M  V30 6751 C 630.588 -1.59081 4.20622 0
M  V30 6752 C 629.358 -1.37007 4.86371 0
M  V30 6753 C 631.556 -1.05992 5.0326 0
M  V30 6754 N 629.538 -0.714049 6.09733 0
M  V30 6755 C 630.909 -0.529933 6.17731 0
M  V30 6756 C 632.964 -0.952927 4.88696 0
M  V30 6757 C 631.667 0.0965457 7.19235 0
M  V30 6758 C 633.693 -0.340325 5.9042 0
M  V30 6759 C 633.055 0.179057 7.04172 0
M  V30 6760 H 629.154 -0.41577 0.662314 0
M  V30 6761 H 631.738 -0.46579 1.89046 0
M  V30 6762 H 629.909 -2.8833 2.60231 0
M  V30 6763 H 631.641 -2.8736 2.84968 0
M  V30 6764 H 628.396 -1.63543 4.44467 0
M  V30 6765 H 628.82 -0.403101 6.75799 0
M  V30 6766 H 633.462 -1.34033 4.00993 0
M  V30 6767 H 631.18 0.496044 8.06576 0
M  V30 6768 H 634.766 -0.259266 5.81222 0
M  V30 6769 H 633.646 0.645626 7.81538 0
M  V30 6770 N 631.149 -1.42148 -0.680565 0
M  V30 6771 C 632.565 -1.24947 -0.992995 0
M  V30 6772 C 632.765 -0.149527 -2.00944 0
M  V30 6773 O 631.821 0.481145 -2.47873 0
M  V30 6774 C 633.134 -2.60426 -1.5033 0
M  V30 6775 C 634.682 -2.67733 -1.62137 0
M  V30 6776 C 635.157 -4.03564 -2.16565 0
M  V30 6777 N 636.648 -4.05488 -2.23905 0
M  V30 6778 C 637.383 -5.07401 -2.67081 0
M  V30 6779 N 636.879 -6.19698 -3.09751 0
M  V30 6780 N 638.672 -4.94758 -2.66778 0
M  V30 6781 H 630.823 -2.12399 -0.0074788 0
M  V30 6782 H 633.086 -0.94571 -0.0658529 0
M  V30 6783 H 632.792 -3.41743 -0.830947 0
M  V30 6784 H 632.666 -2.83949 -2.483 0
M  V30 6785 H 635.053 -1.86765 -2.2848 0
M  V30 6786 H 635.134 -2.48004 -0.626713 0
M  V30 6787 H 634.778 -4.84987 -1.50833 0
M  V30 6788 H 634.708 -4.20641 -3.1681 0
M  V30 6789 H 637.199 -3.24415 -1.93812 0
M  V30 6790 H 637.512 -6.93318 -3.41365 0
M  V30 6791 H 635.857 -6.23212 -3.07623 0
M  V30 6792 H 639.048 -4.06105 -2.32801 0
M  V30 6793 H 639.221 -5.74317 -3.00107 0
M  V30 6794 N 632.627 0.916307 -1.28225 0
M  V30 6795 C 633.876 1.65975 -1.14608 0
M  V30 6796 C 634.189 1.93204 0.305191 0
M  V30 6797 O 635.395 2.65611 0.562432 0
M  V30 6798 C 633.851 2.98989 -2.00333 0
M  V30 6799 C 633.459 2.79417 -3.50186 0
M  V30 6800 C 635.203 3.76856 -1.95397 0
M  V30 6801 C 633.11 4.08056 -4.28071 0
M  V30 6802 H 632.04 0.622587 -0.425324 0
M  V30 6803 H 634.691 1.01705 -1.52736 0
M  V30 6804 H 633.073 3.6438 -1.5506 0
M  V30 6805 H 634.247 2.22723 -4.034 0
M  V30 6806 H 632.562 2.14966 -3.56621 0
M  V30 6807 H 635.159 4.72203 -2.50856 0
M  V30 6808 H 635.502 4.05776 -0.930137 0
M  V30 6809 H 636.035 3.1828 -2.38626 0
M  V30 6810 H 632.774 3.8431 -5.31024 0
M  V30 6811 H 632.294 4.64371 -3.79631 0
M  V30 6812 H 633.973 4.76333 -4.37854 0
M  V30 6813 N 634.105 1.10431 1.1244 0
M  V30 6814 C 635.037 0.710945 2.17895 0
M  V30 6815 C 636.05 -0.252315 1.60833 0
M  V30 6816 O 637.239 -0.03679 1.78462 0
M  V30 6817 C 634.339 0.0284262 3.38888 0
M  V30 6818 C 633.512 1.01585 4.2544 0
M  V30 6819 C 632.571 0.364826 5.24934 0
M  V30 6820 O 631.597 1.01561 5.60066 0
M  V30 6821 N 632.799 -0.87674 5.73841 0
M  V30 6822 H 635.564 1.61826 2.52255 0
M  V30 6823 H 633.125 0.993132 1.27861 0
M  V30 6824 H 635.117 -0.418568 4.0253 0
M  V30 6825 H 633.687 -0.781294 3.02679 0
M  V30 6826 H 632.907 1.64111 3.58415 0
M  V30 6827 H 634.195 1.68425 4.80115 0
M  V30 6828 H 633.593 -1.42483 5.47462 0
M  V30 6829 H 632.15 -1.26688 6.39369 0
M  V30 6830 N 635.583 -1.29855 0.893053 0
M  V30 6831 C 636.813 -1.99686 0.530019 0
M  V30 6832 C 637.221 -1.67066 -0.888012 0
M  V30 6833 O 636.564 -0.908366 -1.5967 0
M  V30 6834 C 636.626 -3.53855 0.63457 0
M  V30 6835 C 636.29 -4.10013 2.01837 0
M  V30 6836 C 637.287 -4.25406 2.98874 0
M  V30 6837 C 634.972 -4.45202 2.32595 0
M  V30 6838 C 636.966 -4.7521 4.24799 0
M  V30 6839 C 634.653 -4.94704 3.58763 0
M  V30 6840 C 635.651 -5.09662 4.5468 0
M  V30 6841 O 635.339 -5.58093 5.78608 0
M  V30 6842 H 635.071 -0.644913 0.20264 0
M  V30 6843 H 637.625 -1.66518 1.20253 0
M  V30 6844 H 635.855 -3.86583 -0.0949477 0
M  V30 6845 H 637.544 -4.04922 0.281648 0
M  V30 6846 H 638.31 -3.98515 2.76425 0
M  V30 6847 H 634.189 -4.32822 1.58701 0
M  V30 6848 H 637.733 -4.86801 4.99671 0
M  V30 6849 H 633.63 -5.21032 3.81046 0
M  V30 6850 H 634.398 -5.7642 5.81104 0
M  V30 6851 N 637.061 -0.65484 -1.43351 0
M  V30 6852 C 637.991 0.0221809 -2.33489 0
M  V30 6853 C 638.972 0.810272 -1.49561 0
M  V30 6854 O 640.157 0.771426 -1.78221 0
M  V30 6855 C 637.287 0.988117 -3.32947 0
M  V30 6856 C 636.241 0.310026 -4.26876 0
M  V30 6857 C 635.567 1.38752 -5.16384 0
M  V30 6858 C 636.867 -0.798589 -5.16159 0
M  V30 6859 H 638.561 -0.730571 -2.9035 0
M  V30 6860 H 636.107 -0.352773 -1.39612 0
M  V30 6861 H 638.06 1.47067 -3.94904 0
M  V30 6862 H 636.784 1.77205 -2.74346 0
M  V30 6863 H 635.443 -0.152097 -3.66284 0
M  V30 6864 H 635.091 2.16293 -4.54121 0
M  V30 6865 H 634.791 0.939051 -5.80048 0
M  V30 6866 H 636.315 1.87141 -5.81215 0
M  V30 6867 H 637.729 -0.398126 -5.71916 0
M  V30 6868 H 636.126 -1.17163 -5.88552 0
M  V30 6869 H 637.196 -1.65588 -4.55751 0
M  V30 6870 N 638.539 1.52521 -0.396863 0
M  V30 6871 C 639.486 2.26671 0.434624 0
M  V30 6872 C 640.456 1.28584 1.05144 0
M  V30 6873 O 641.641 1.57426 1.07804 0
M  V30 6874 C 638.781 3.08234 1.55196 0
M  V30 6875 C 637.894 4.21261 0.957262 0
M  V30 6876 C 637.029 4.90205 2.04627 0
M  V30 6877 C 636.068 5.95213 1.42787 0
M  V30 6878 N 635.205 6.57723 2.45651 0
M  V30 6879 H 640.045 2.973 -0.204139 0
M  V30 6880 H 637.582 1.46669 -0.112505 0
M  V30 6881 H 639.54 3.53819 2.2106 0
M  V30 6882 H 638.17 2.398 2.16092 0
M  V30 6883 H 637.222 3.79935 0.188005 0
M  V30 6884 H 638.534 4.96624 0.465416 0
M  V30 6885 H 637.688 5.39133 2.78246 0
M  V30 6886 H 636.427 4.14383 2.57174 0
M  V30 6887 H 635.432 5.45616 0.676968 0
M  V30 6888 H 636.657 6.72972 0.910255 0
M  V30 6889 H 634.603 5.84737 2.97353 0
M  V30 6890 H 634.52 7.28723 2.01243 0
M  V30 6891 H 635.788 7.11293 3.18876 0
M  V30 6892 N 640.017 0.126909 1.57088 0
M  V30 6893 C 641.265 -0.528123 1.95078 0
M  V30 6894 C 641.586 -1.66708 1.0116 0
M  V30 6895 O 640.856 -1.95777 0.0693527 0
M  V30 6896 H 639.436 -0.198087 0.720257 0
M  V30 6897 H 642.098 0.197703 1.93895 0
M  V30 6898 H 641.194 -0.917507 2.98309 0
M  V30 6899 N 641.495 -1.56914 -0.146875 0
M  V30 6900 C 642.725 -1.87243 -0.873126 0
M  V30 6901 C 643.133 -0.713127 -1.75246 0
M  V30 6902 O 642.476 0.326228 -1.8078 0
M  V30 6903 C 642.538 -3.12279 -1.78107 0
M  V30 6904 C 642.202 -4.44082 -1.07889 0
M  V30 6905 C 643.199 -5.18096 -0.432734 0
M  V30 6906 C 640.884 -4.90807 -1.06836 0
M  V30 6907 C 642.878 -6.37039 0.214569 0
M  V30 6908 C 640.565 -6.09674 -0.417243 0
M  V30 6909 C 641.563 -6.82636 0.223093 0
M  V30 6910 O 641.251 -7.99245 0.863884 0
M  V30 6911 H 640.983 -0.624896 -0.257839 0
M  V30 6912 H 643.537 -2.04892 -0.14434 0
M  V30 6913 H 641.767 -2.90639 -2.5508 0
M  V30 6914 H 643.456 -3.28854 -2.37929 0
M  V30 6915 H 644.222 -4.83066 -0.432677 0
M  V30 6916 H 640.101 -4.3394 -1.55618 0
M  V30 6917 H 643.645 -6.93927 0.714965 0
M  V30 6918 H 639.542 -6.44165 -0.414967 0
M  V30 6919 H 640.31 -8.14912 0.765564 0
M  V30 6920 N 642.974 0.416227 -1.52004 0
M  V30 6921 C 644.223 1.16088 -1.64944 0
M  V30 6922 C 644.536 1.91835 -0.381928 0
M  V30 6923 O 645.742 2.6867 -0.391013 0
M  V30 6924 C 644.198 2.1124 -2.91386 0
M  V30 6925 C 643.806 1.41042 -4.25219 0
M  V30 6926 C 645.55 2.86008 -3.13688 0
M  V30 6927 C 643.457 2.34801 -5.42791 0
M  V30 6928 H 642.387 0.437041 -0.61442 0
M  V30 6929 H 645.038 0.425971 -1.78487 0
M  V30 6930 H 643.42 2.88254 -2.71525 0
M  V30 6931 H 644.594 0.694416 -4.55538 0
M  V30 6932 H 642.909 0.78344 -4.08964 0
M  V30 6933 H 645.506 3.56286 -3.98703 0
M  V30 6934 H 645.849 3.48556 -2.27628 0
M  V30 6935 H 646.382 2.16095 -3.33988 0
M  V30 6936 H 643.121 1.7691 -6.31176 0
M  V30 6937 H 642.641 3.04395 -5.16821 0
M  V30 6938 H 644.32 2.9548 -5.75587 0
M  V30 6939 N 644.452 1.42507 0.673017 0
M  V30 6940 C 645.4 1.46362 1.80779 0
M  V30 6941 C 646.394 0.339166 1.6597 0
M  V30 6942 O 647.6 0.512262 1.72557 0
M  V30 6943 H 643.975 0.458433 0.596107 0
M  V30 6944 H 645.946 2.41953 1.74646 0
M  V30 6945 C 644.695 1.38462 3.18941 0
M  V30 6946 H 644.018 2.24283 3.30964 0
M  V30 6947 H 645.458 1.45221 3.98355 0
M  V30 6948 C 643.917 0.0996354 3.36753 0
M  V30 6949 O 644.447 -0.846894 3.92671 0
M  V30 6950 N 642.653 0.016211 2.90595 0
M  V30 6951 H 642.2 0.78725 2.45276 0
M  V30 6952 H 642.158 -0.84291 3.0289 0
M  V30 6953 N 645.93 -0.909495 1.28709 0
M  V30 6954 C 646.84 -2.04558 1.14861 0
M  V30 6955 C 647.856 -1.73842 0.0741621 0
M  V30 6956 O 649.032 -1.99383 0.2843 0
M  V30 6957 C 646.097 -3.36957 0.816148 0
M  V30 6958 C 645.158 -3.81255 1.97341 0
M  V30 6959 C 644.391 -5.07335 1.65671 0
M  V30 6960 O 644.614 -5.67514 0.573053 0
M  V30 6961 O 643.548 -5.47449 2.50167 0
M  V30 6962 H 647.374 -2.19161 2.10243 0
M  V30 6963 H 644.959 -1.03159 1.08068 0
M  V30 6964 H 646.841 -4.16436 0.644873 0
M  V30 6965 H 645.516 -3.2352 -0.107983 0
M  V30 6966 H 644.423 -3.02584 2.19986 0
M  V30 6967 H 645.756 -3.99261 2.87839 0
M  V30 6968 N 647.408 -1.11026 -1.11852 0
M  V30 6969 C 648.341 -0.708501 -2.16923 0
M  V30 6970 C 649.319 0.293196 -1.59935 0
M  V30 6971 O 650.503 0.190641 -1.87533 0
M  V30 6972 C 647.63 -0.0463705 -3.38668 0
M  V30 6973 C 646.676 -1.01252 -4.14307 0
M  V30 6974 S 647.509 -2.53291 -4.71809 0
M  V30 6975 C 648.665 -1.88366 -5.96883 0
M  V30 6976 H 648.898 -1.59854 -2.50667 0
M  V30 6977 H 646.431 -0.927869 -1.2341 0
M  V30 6978 H 648.389 0.329314 -4.09177 0
M  V30 6979 H 647.05 0.820562 -3.03192 0
M  V30 6980 H 646.243 -0.496596 -5.01548 0
M  V30 6981 H 645.845 -1.33042 -3.49537 0
M  V30 6982 H 648.137 -1.21753 -6.6647 0
M  V30 6983 H 649.08 -2.73588 -6.53112 0
M  V30 6984 H 649.488 -1.34562 -5.48227 0
M  V30 6985 N 648.886 1.2938 -0.899927 0
M  V30 6986 C 649.816 2.30144 -0.39446 0
M  V30 6987 C 650.797 1.61611 0.530639 0
M  V30 6988 O 651.982 1.89119 0.441319 0
M  V30 6989 C 649.112 3.45229 0.37868 0
M  V30 6990 C 648.066 4.25564 -0.456012 0
M  V30 6991 C 647.392 5.32848 0.444637 0
M  V30 6992 C 648.692 4.93651 -1.70605 0
M  V30 6993 H 650.386 2.72673 -1.23653 0
M  V30 6994 H 647.932 1.31086 -0.596034 0
M  V30 6995 H 649.885 4.14797 0.743037 0
M  V30 6996 H 648.609 3.01545 1.25453 0
M  V30 6997 H 647.268 3.57704 -0.802704 0
M  V30 6998 H 646.916 4.85408 1.31863 0
M  V30 6999 H 646.616 5.87497 -0.110154 0
M  V30 7000 H 648.14 6.05268 0.805182 0
M  V30 7001 H 649.554 5.55655 -1.41141 0
M  V30 7002 H 647.951 5.58233 -2.20217 0
M  V30 7003 H 649.021 4.18926 -2.4419 0
M  V30 7004 N 650.364 0.662433 1.43002 0
M  V30 7005 C 651.311 -0.0235324 2.30788 0
M  V30 7006 C 652.281 -0.805342 1.4527 0
M  V30 7007 O 653.466 -0.78009 1.74124 0
M  V30 7008 C 650.606 -0.977545 3.30965 0
M  V30 7009 C 649.719 -0.190865 4.31578 0
M  V30 7010 C 648.854 -1.13951 5.18834 0
M  V30 7011 C 647.893 -0.343796 6.11134 0
M  V30 7012 N 647.03 -1.2445 6.90982 0
M  V30 7013 H 651.87 0.730921 2.88897 0
M  V30 7014 H 649.407 0.372197 1.42313 0
M  V30 7015 H 651.365 -1.54437 3.87563 0
M  V30 7016 H 649.995 -1.69877 2.74484 0
M  V30 7017 H 649.047 0.492388 3.772 0
M  V30 7018 H 650.359 0.427464 4.96965 0
M  V30 7019 H 649.513 -1.77666 5.80103 0
M  V30 7020 H 648.252 -1.79174 4.53595 0
M  V30 7021 H 647.257 0.30665 5.48944 0
M  V30 7022 H 648.482 0.304161 6.78419 0
M  V30 7023 H 646.428 -1.88336 6.28383 0
M  V30 7024 H 646.345 -0.680959 7.52927 0
M  V30 7025 H 647.613 -1.86952 7.56749 0
M  V30 7026 N 651.842 -1.52309 0.404946 0
M  V30 7027 C 652.805 -2.25491 -0.410651 0
M  V30 7028 C 653.805 -1.27704 -0.977154 0
M  V30 7029 O 654.995 -1.51679 -0.856691 0
M  V30 7030 C 652.127 -3.02197 -1.57765 0
M  V30 7031 H 653.32 -2.99015 0.230277 0
M  V30 7032 H 650.873 -1.55506 0.157377 0
M  V30 7033 H 651.608 -2.33013 -2.25556 0
M  V30 7034 H 651.393 -3.73987 -1.17797 0
M  V30 7035 H 652.883 -3.57719 -2.15469 0
M  V30 7036 N 653.32 -0.135238 -1.57019 0
M  V30 7037 C 654.569 0.518694 -1.94917 0
M  V30 7038 C 654.882 1.66783 -1.0219 0
M  V30 7039 O 656.088 2.38561 -1.29619 0
M  V30 7040 C 654.544 0.974123 -3.46466 0
M  V30 7041 C 654.152 -0.147439 -4.47757 0
M  V30 7042 C 655.896 1.59851 -3.93253 0
M  V30 7043 C 653.803 0.325599 -5.90503 0
M  V30 7044 H 652.733 0.19754 -0.727663 0
M  V30 7045 H 655.384 -0.217698 -1.82204 0
M  V30 7046 H 653.766 1.76542 -3.5447 0
M  V30 7047 H 654.94 -0.924122 -4.51438 0
M  V30 7048 H 653.255 -0.679496 -4.10818 0
M  V30 7049 H 655.852 1.96385 -4.9733 0
M  V30 7050 H 656.195 2.48306 -3.3414 0
M  V30 7051 H 656.728 0.872323 -3.88118 0
M  V30 7052 H 653.467 -0.523295 -6.53408 0
M  V30 7053 H 652.987 1.06841 -5.90208 0
M  V30 7054 H 654.666 0.781498 -6.42263 0
M  V30 7055 N 654.798 1.5699 0.138552 0
M  V30 7056 C 655.745 1.98899 1.17081 0
M  V30 7057 C 656.715 0.857922 1.42228 0
M  V30 7058 O 657.9 1.12065 1.54422 0
M  V30 7059 C 655.04 2.38189 2.4972 0
M  V30 7060 C 654.153 3.64624 2.31674 0
M  V30 7061 C 653.288 3.9298 3.57407 0
M  V30 7062 C 652.327 5.1266 3.34435 0
M  V30 7063 N 651.464 5.36983 4.5232 0
M  V30 7064 H 656.304 2.86881 0.80642 0
M  V30 7065 H 653.841 1.41925 0.386727 0
M  V30 7066 H 655.799 2.59 3.2707 0
M  V30 7067 H 654.429 1.53275 2.84089 0
M  V30 7068 H 653.481 3.51542 1.45337 0
M  V30 7069 H 654.793 4.52131 2.10664 0
M  V30 7070 H 653.947 4.14335 4.43183 0
M  V30 7071 H 652.686 3.03912 3.8143 0
M  V30 7072 H 651.691 4.9117 2.47048 0
M  V30 7073 H 652.916 6.03288 3.11802 0
M  V30 7074 H 650.862 4.50871 4.76499 0
M  V30 7075 H 650.779 6.18775 4.34343 0
M  V30 7076 H 652.047 5.62842 5.39285 0
M  V30 7077 N 656.276 -0.40816 1.52223 0
M  V30 7078 C 657.553 -1.16807 1.56893 0
M  V30 7079 C 657.933 -2.08169 0.350537 0
M  V30 7080 O 657.281 -2.18684 -0.662536 0
M  V30 7081 C 657.491 -1.94451 2.8981 0
M  V30 7082 C 658.839 -2.50484 3.42845 0
M  V30 7083 O 659.863 -2.0463 2.91556 0
M  V30 7084 O 658.722 -3.34192 4.3241 0
M  V30 7085 H 655.816 -0.533382 0.632007 0
M  V30 7086 H 658.362 -0.414862 1.64551 0
M  V30 7087 H 657.134 -1.27527 3.69936 0
M  V30 7088 H 656.757 -2.76775 2.85449 0
M  V30 7089 N 657.755 -1.42862 -0.66545 0
M  V30 7090 C 659.003 -1.43546 -1.42264 0
M  V30 7091 C 659.324 -0.0563116 -1.94919 0
M  V30 7092 O 658.594 0.906568 -1.73661 0
M  V30 7093 H 657.174 -0.528464 -0.527953 0
M  V30 7094 H 659.836 -1.78363 -0.785665 0
M  V30 7095 H 658.932 -2.14079 -2.27105 0
M  V30 7096 N 659.233 0.902656 -1.29189 0
M  V30 7097 C 660.196 1.98797 -1.14071 0
M  V30 7098 C 661.196 1.60615 -0.0770549 0
M  V30 7099 O 662.386 1.71165 -0.323753 0
M  V30 7100 C 659.518 3.32688 -0.743739 0
M  V30 7101 H 660.711 2.13637 -2.10473 0
M  V30 7102 H 658.264 1.08678 -1.12334 0
M  V30 7103 H 658.999 3.23549 0.220554 0
M  V30 7104 H 658.784 3.61765 -1.51223 0
M  V30 7105 H 660.274 4.12337 -0.660935 0
M  V30 7106 N 660.711 1.11618 1.11262 0
M  V30 7107 C 661.659 0.771291 2.1944 0
M  V30 7108 C 662.653 -0.238073 1.67719 0
M  V30 7109 O 663.859 -0.0971628 1.79738 0
M  V30 7110 H 660.234 0.231548 0.715465 0
M  V30 7111 H 662.205 1.69226 2.45775 0
M  V30 7112 C 660.954 0.232765 3.4692 0
M  V30 7113 H 660.277 1.00072 3.87073 0
M  V30 7114 H 661.717 0.0296561 4.2399 0
M  V30 7115 C 660.176 -1.03738 3.20531 0
M  V30 7116 O 660.706 -2.11675 3.41404 0
M  V30 7117 N 658.912 -0.960906 2.74253 0
M  V30 7118 H 658.459 -0.0824323 2.57468 0
M  V30 7119 H 658.417 -1.8114 2.56974 0
M  V30 7120 N 662.189 -1.289 0.906776 0
M  V30 7121 C 663.438 -1.9455 0.532262 0
M  V30 7122 C 663.751 -1.72219 -0.927353 0
M  V30 7123 O 664.957 -2.32033 -1.40971 0
M  V30 7124 C 663.413 -3.48438 0.901041 0
M  V30 7125 C 663.021 -3.79558 2.37991 0
M  V30 7126 C 664.765 -4.20284 0.596777 0
M  V30 7127 C 662.672 -5.26723 2.68918 0
M  V30 7128 H 661.602 -0.728259 0.195333 0
M  V30 7129 H 664.253 -1.46519 1.10474 0
M  V30 7130 H 662.635 -3.95162 0.257419 0
M  V30 7131 H 663.809 -3.43668 3.06967 0
M  V30 7132 H 662.124 -3.20868 2.65391 0
M  V30 7133 H 664.721 -5.28612 0.8046 0
M  V30 7134 H 665.064 -4.13694 -0.465072 0
M  V30 7135 H 665.597 -3.79315 1.19855 0
M  V30 7136 H 662.336 -5.38384 3.73928 0
M  V30 7137 H 661.856 -5.63836 2.04571 0
M  V30 7138 H 663.535 -5.94391 2.55555 0
M  V30 7139 N 663.667 -0.670007 -1.42649 0
M  V30 7140 C 664.614 0.0112928 -2.30797 0
M  V30 7141 C 665.584 0.797627 -1.45695 0
M  V30 7142 O 666.769 0.770845 -1.74535 0
M  V30 7143 C 663.909 0.95998 -3.31479 0
M  V30 7144 C 663.022 0.167975 -4.31673 0
M  V30 7145 C 662.157 1.11198 -5.19431 0
M  V30 7146 C 661.196 0.311381 -6.11307 0
M  V30 7147 N 660.333 1.20784 -6.91633 0
M  V30 7148 H 665.173 -0.746231 -2.88505 0
M  V30 7149 H 662.71 -0.379739 -1.42114 0
M  V30 7150 H 664.668 1.52379 -3.88377 0
M  V30 7151 H 663.298 1.68419 -2.75382 0
M  V30 7152 H 662.35 -0.512385 -3.76933 0
M  V30 7153 H 663.662 -0.453814 -4.96731 0
M  V30 7154 H 662.816 1.74587 -5.81037 0
M  V30 7155 H 661.555 1.76766 -4.54538 0
M  V30 7156 H 660.56 -0.335758 -5.48774 0
M  V30 7157 H 661.785 -0.340135 -6.78248 0
M  V30 7158 H 659.731 1.85001 -6.29373 0
M  V30 7159 H 659.648 0.64102 -7.53277 0
M  V30 7160 H 660.916 1.82936 -7.5773 0
M  V30 7161 N 665.145 1.52092 -0.413018 0
M  V30 7162 C 666.393 2.01456 0.161178 0
M  V30 7163 C 666.714 1.30034 1.45314 0
M  V30 7164 O 665.984 0.427435 1.9118 0
M  V30 7165 H 664.564 0.744376 0.0625526 0
M  V30 7166 H 667.226 1.86974 -0.550151 0
M  V30 7167 H 666.322 3.1008 0.354517 0
M  V30 7168 N 666.623 0.143563 1.56945 0
M  V30 7169 C 667.853 -0.514699 2.00086 0
M  V30 7170 C 668.261 -1.59184 1.0226 0
M  V30 7171 O 667.604 -1.83697 0.0110514 0
M  V30 7172 C 667.666 -1.17778 3.39659 0
M  V30 7173 C 667.33 -0.245657 4.56339 0
M  V30 7174 C 668.327 0.525343 5.17239 0
M  V30 7175 C 666.012 -0.149564 5.02077 0
M  V30 7176 C 668.006 1.37992 6.22284 0
M  V30 7177 C 665.693 0.708621 6.06978 0
M  V30 7178 C 666.691 1.47197 6.6695 0
M  V30 7179 O 666.379 2.31586 7.6982 0
M  V30 7180 H 666.111 -0.138789 0.661599 0
M  V30 7181 H 668.665 0.234098 2.04062 0
M  V30 7182 H 666.895 -1.97415 3.32512 0
M  V30 7183 H 668.584 -1.73542 3.6693 0
M  V30 7184 H 669.35 0.461118 4.82803 0
M  V30 7185 H 665.229 -0.733457 4.55128 0
M  V30 7186 H 668.773 1.97621 6.69023 0
M  V30 7187 H 664.67 0.77415 6.40841 0
M  V30 7188 H 665.438 2.24796 7.87025 0
M  V30 7189 N 668.101 -1.57061 -0.130224 0
M  V30 7190 C 669.329 -1.88432 -0.854456 0
M  V30 7191 C 669.744 -0.733608 -1.73964 0
M  V30 7192 O 669.101 0.296029 -1.80083 0
M  V30 7193 C 669.152 -3.1918 -1.69724 0
M  V30 7194 O 668.873 -4.2982 -0.847705 0
M  V30 7195 C 670.374 -3.6418 -2.5276 0
M  V30 7196 H 667.594 -0.624193 -0.246221 0
M  V30 7197 H 670.138 -2.04159 -0.11798 0
M  V30 7198 H 668.293 -3.05156 -2.3866 0
M  V30 7199 H 668.707 -5.04689 -1.42792 0
M  V30 7200 H 670.181 -4.58457 -3.07443 0
M  V30 7201 H 670.658 -2.90285 -3.29592 0
M  V30 7202 H 671.264 -3.80954 -1.89087 0
M  V30 7203 N 669.579 0.400081 -1.52437 0
M  V30 7204 C 670.804 1.17221 -1.71096 0
M  V30 7205 C 671.229 1.83269 -0.423565 0
M  V30 7206 O 670.587 1.70378 0.619751 0
M  V30 7207 C 670.635 2.20425 -2.85386 0
M  V30 7208 O 669.739 3.26769 -2.51586 0
M  V30 7209 H 669.08 0.341766 -0.569291 0
M  V30 7210 H 671.61 0.467772 -1.99181 0
M  V30 7211 H 671.62 2.64605 -3.10561 0
M  V30 7212 H 670.295 1.71737 -3.78786 0
M  V30 7213 H 668.872 2.87804 -2.37114 0
M  V30 7214 N 671.057 1.43213 0.657864 0
M  V30 7215 C 672.303 1.45795 1.41829 0
M  V30 7216 C 672.658 0.0792176 1.92237 0
M  V30 7217 O 671.951 -0.901406 1.69072 0
M  V30 7218 C 672.145 2.43143 2.61947 0
M  V30 7219 C 671.974 3.90345 2.23295 0
M  V30 7220 C 670.744 4.58749 2.11843 0
M  V30 7221 C 672.942 4.80308 1.83873 0
M  V30 7222 N 670.924 5.90898 1.66473 0
M  V30 7223 C 672.295 6.01693 1.49549 0
M  V30 7224 C 674.35 4.67609 1.71015 0
M  V30 7225 C 673.053 7.11792 1.03657 0
M  V30 7226 C 675.079 5.77707 1.26527 0
M  V30 7227 C 674.441 6.98215 0.931379 0
M  V30 7228 H 670.54 0.588628 0.514822 0
M  V30 7229 H 673.124 1.7936 0.7575 0
M  V30 7230 H 671.295 2.11612 3.25692 0
M  V30 7231 H 673.027 2.36193 3.28626 0
M  V30 7232 H 669.782 4.1319 2.31453 0
M  V30 7233 H 670.206 6.61034 1.46163 0
M  V30 7234 H 674.848 3.74902 1.95469 0
M  V30 7235 H 672.566 8.04332 0.779502 0
M  V30 7236 H 676.152 5.69899 1.17074 0
M  V30 7237 H 675.032 7.81959 0.592379 0
M  V30 7238 N 672.536 -0.895792 1.29666 0
M  V30 7239 C 673.761 -1.68528 1.20885 0
M  V30 7240 C 674.186 -1.8673 -0.226595 0
M  V30 7241 O 673.544 -1.39044 -1.16347 0
M  V30 7242 C 673.592 -3.04512 1.93144 0
M  V30 7243 O 672.696 -3.92963 1.25115 0
M  V30 7244 H 672.037 -0.515371 0.418675 0
M  V30 7245 H 674.567 -1.11878 1.71302 0
M  V30 7246 H 674.577 -3.54628 2.0175 0
M  V30 7247 H 673.252 -2.90582 2.97548 0
M  V30 7248 H 671.829 -3.51399 1.24794 0
M  V30 7249 N 674.014 -1.12206 -1.10668 0
M  V30 7250 C 674.944 -0.810086 -2.18997 0
M  V30 7251 C 675.925 0.225065 -1.68604 0
M  V30 7252 O 677.11 0.086783 -1.94006 0
M  V30 7253 C 674.24 -0.261262 -3.46316 0
M  V30 7254 C 673.194 -1.2292 -4.09969 0
M  V30 7255 C 672.52 -0.540713 -5.31959 0
M  V30 7256 C 673.82 -2.58295 -4.53962 0
M  V30 7257 H 675.514 -1.7159 -2.45352 0
M  V30 7258 H 673.06 -0.82646 -1.17922 0
M  V30 7259 H 675.013 -0.0307522 -4.21389 0
M  V30 7260 H 673.737 0.679879 -3.19445 0
M  V30 7261 H 672.396 -1.44548 -3.369 0
M  V30 7262 H 672.044 0.405492 -5.01363 0
M  V30 7263 H 671.744 -1.18637 -5.75499 0
M  V30 7264 H 673.268 -0.319184 -6.09765 0
M  V30 7265 H 674.682 -2.40709 -5.20319 0
M  V30 7266 H 673.079 -3.18916 -5.08343 0
M  V30 7267 H 674.149 -3.16918 -3.67002 0
M  V30 7268 N 675.492 1.28418 -0.913599 0
M  V30 7269 C 676.422 2.29713 -0.418847 0
M  V30 7270 C 677.403 1.62165 0.513469 0
M  V30 7271 O 678.588 1.89576 0.421235 0
M  V30 7272 C 675.718 3.45612 0.342042 0
M  V30 7273 C 674.672 4.25056 -0.501123 0
M  V30 7274 C 673.998 5.3329 0.388097 0
M  V30 7275 C 675.298 4.91814 -1.75831 0
M  V30 7276 H 676.992 2.71346 -1.26538 0
M  V30 7277 H 674.538 1.30446 -0.609903 0
M  V30 7278 H 676.491 4.15562 0.699 0
M  V30 7279 H 675.215 3.02858 1.22248 0
M  V30 7280 H 673.874 3.56833 -0.840598 0
M  V30 7281 H 673.522 4.8678 1.26707 0
M  V30 7282 H 673.222 5.87347 -0.172459 0
M  V30 7283 H 674.746 6.06088 0.74094 0
M  V30 7284 H 676.16 5.54126 -1.47026 0
M  V30 7285 H 674.557 5.55866 -2.26126 0
M  V30 7286 H 675.627 4.16313 -2.4862 0
M  V30 7287 N 676.97 0.677563 1.42291 0
M  V30 7288 C 678.247 0.129803 1.95169 0
M  V30 7289 C 678.627 -1.35605 1.61786 0
M  V30 7290 O 677.975 -2.09361 0.915444 0
M  V30 7291 C 678.185 0.401889 3.46678 0
M  V30 7292 C 679.533 0.319889 4.23393 0
M  V30 7293 O 680.557 0.33579 3.54614 0
M  V30 7294 O 679.416 0.264459 5.4586 0
M  V30 7295 H 676.51 0.00447433 0.826988 0
M  V30 7296 H 679.056 0.752483 1.52105 0
M  V30 7297 H 677.828 1.43108 3.64192 0
M  V30 7298 H 677.451 -0.252662 3.96796 0
M  V30 7299 N 678.448 -1.51871 0.421078 0
M  V30 7300 C 679.395 -2.27334 -0.398508 0
M  V30 7301 C 680.365 -1.30241 -1.03085 0
M  V30 7302 O 681.55 -1.59121 -1.05285 0
M  V30 7303 C 678.69 -3.10664 -1.50272 0
M  V30 7304 C 677.803 -4.2273 -0.890122 0
M  V30 7305 C 676.938 -4.93399 -1.96803 0
M  V30 7306 C 675.977 -5.97409 -1.333 0
M  V30 7307 N 675.114 -6.61548 -2.35156 0
M  V30 7308 H 679.954 -2.96938 0.251411 0
M  V30 7309 H 677.491 -1.46472 0.135825 0
M  V30 7310 H 679.449 -3.57292 -2.15403 0
M  V30 7311 H 678.079 -2.43207 -2.1225 0
M  V30 7312 H 677.131 -3.80186 -0.127537 0
M  V30 7313 H 678.443 -4.97302 -0.386349 0
M  V30 7314 H 677.597 -5.43491 -2.69633 0
M  V30 7315 H 676.336 -4.18421 -2.50549 0
M  V30 7316 H 675.341 -5.46624 -0.59008 0
M  V30 7317 H 676.566 -6.74335 -0.803076 0
M  V30 7318 H 674.512 -5.89394 -2.88012 0
M  V30 7319 H 674.429 -7.31832 -1.89624 0
M  V30 7320 H 675.697 -7.16276 -3.0752 0
M  V30 7321 N 679.926 -0.151884 -1.56866 0
M  V30 7322 C 681.173 0.498004 -1.96281 0
M  V30 7323 C 681.501 1.64551 -1.03698 0
M  V30 7324 O 680.756 1.95585 -0.0671497 0
M  V30 7325 C 681.055 1.04074 -3.41911 0
M  V30 7326 C 680.721 0.0111688 -4.50899 0
M  V30 7327 C 679.383 -0.271844 -4.80432 0
M  V30 7328 C 681.735 -0.68869 -5.1663 0
M  V30 7329 C 679.063 -1.26044 -5.73001 0
M  V30 7330 C 681.415 -1.66613 -6.10264 0
M  V30 7331 C 680.079 -1.9568 -6.38174 0
M  V30 7332 H 679.349 0.182233 -0.718242 0
M  V30 7333 H 681.996 -0.239746 -1.89993 0
M  V30 7334 H 680.301 1.85592 -3.45055 0
M  V30 7335 H 681.998 1.55224 -3.69738 0
M  V30 7336 H 678.588 0.241932 -4.27917 0
M  V30 7337 H 682.772 -0.48324 -4.93942 0
M  V30 7338 H 678.028 -1.49202 -5.92915 0
M  V30 7339 H 682.202 -2.21392 -6.60272 0
M  V30 7340 H 679.829 -2.72434 -7.09707 0
M  V30 7341 N 681.404 1.57128 0.121893 0
M  V30 7342 C 682.314 2.03425 1.16857 0
M  V30 7343 C 683.33 0.954108 1.45509 0
M  V30 7344 O 684.506 1.26541 1.56682 0
M  V30 7345 C 681.571 2.42685 2.47599 0
M  V30 7346 C 680.632 3.64767 2.2637 0
M  V30 7347 C 679.865 4.02145 3.50878 0
M  V30 7348 O 680.088 3.39897 4.58068 0
M  V30 7349 O 679.022 4.95262 3.42051 0
M  V30 7350 H 682.848 2.92825 0.80544 0
M  V30 7351 H 680.433 1.45654 0.332477 0
M  V30 7352 H 682.315 2.68684 3.24634 0
M  V30 7353 H 680.99 1.56432 2.83392 0
M  V30 7354 H 679.897 3.43922 1.47203 0
M  V30 7355 H 681.23 4.51716 1.95482 0
M  V30 7356 N 682.882 -0.391992 1.52647 0
M  V30 7357 C 684.128 -1.13563 1.68745 0
M  V30 7358 C 684.483 -1.87745 0.420685 0
M  V30 7359 O 683.776 -1.82434 -0.585529 0
M  V30 7360 C 683.97 -2.14401 2.85949 0
M  V30 7361 C 683.799 -1.50124 4.23902 0
M  V30 7362 C 682.569 -1.2666 4.89168 0
M  V30 7363 C 684.767 -0.952933 5.05395 0
M  V30 7364 N 682.749 -0.584555 6.11111 0
M  V30 7365 C 684.12 -0.398784 6.18716 0
M  V30 7366 C 686.175 -0.849053 4.90607 0
M  V30 7367 C 684.878 0.249084 7.18869 0
M  V30 7368 C 686.904 -0.215011 5.91009 0
M  V30 7369 C 686.266 0.328382 7.03634 0
M  V30 7370 H 682.365 -0.401628 0.670984 0
M  V30 7371 H 684.949 -0.425585 1.89992 0
M  V30 7372 H 683.12 -2.82746 2.66288 0
M  V30 7373 H 684.852 -2.8125 2.90999 0
M  V30 7374 H 681.607 -1.54078 4.47836 0
M  V30 7375 H 682.031 -0.259663 6.76502 0
M  V30 7376 H 686.673 -1.25497 4.03745 0
M  V30 7377 H 684.391 0.667019 8.05342 0
M  V30 7378 H 687.977 -0.135921 5.81641 0
M  V30 7379 H 686.857 0.811257 7.79992 0
M  V30 7380 N 684.36 -1.4356 -0.65026 0
M  V30 7381 C 685.27 -1.514 -1.79207 0
M  V30 7382 C 686.286 -0.400895 -1.69319 0
M  V30 7383 O 687.462 -0.655458 -1.90436 0
M  V30 7384 C 684.527 -1.43737 -3.155 0
M  V30 7385 C 683.588 -2.65743 -3.37163 0
M  V30 7386 C 682.821 -2.58436 -4.66954 0
M  V30 7387 O 683.044 -1.63374 -5.46503 0
M  V30 7388 O 681.978 -3.48984 -4.90402 0
M  V30 7389 H 685.804 -2.47825 -1.75547 0
M  V30 7390 H 683.389 -1.25594 -0.809111 0
M  V30 7391 H 685.271 -1.41916 -3.96784 0
M  V30 7392 H 683.946 -0.504488 -3.19745 0
M  V30 7393 H 682.853 -2.73136 -2.55632 0
M  V30 7394 H 684.186 -3.58014 -3.37768 0
M  V30 7395 N 685.838 0.888903 -1.30139 0
M  V30 7396 C 686.785 1.99422 -1.16188 0
M  V30 7397 C 687.755 1.66017 -0.0523869 0
M  V30 7398 O 688.94 1.89506 -0.221864 0
M  V30 7399 C 686.08 3.34325 -0.855612 0
M  V30 7400 C 685.193 3.80445 -2.0466 0
M  V30 7401 C 684.328 5.03975 -1.67876 0
M  V30 7402 C 683.367 5.42492 -2.83493 0
M  V30 7403 N 682.504 6.57206 -2.47032 0
M  V30 7404 H 687.344 2.10687 -2.10749 0
M  V30 7405 H 684.881 1.03165 -1.04859 0
M  V30 7406 H 686.839 4.11968 -0.658681 0
M  V30 7407 H 685.469 3.22756 0.0531155 0
M  V30 7408 H 684.521 2.98745 -2.3549 0
M  V30 7409 H 685.833 4.04933 -2.91257 0
M  V30 7410 H 684.987 5.89232 -1.44535 0
M  V30 7411 H 683.726 4.8135 -0.784431 0
M  V30 7412 H 682.731 4.55764 -3.07505 0
M  V30 7413 H 683.956 5.67093 -3.73607 0
M  V30 7414 H 681.902 6.36164 -1.601 0
M  V30 7415 H 681.819 6.81543 -3.27161 0
M  V30 7416 H 683.087 7.45704 -2.27038 0
M  V30 7417 N 687.317 1.12792 1.10072 0
M  V30 7418 C 688.565 0.883796 1.81751 0
M  V30 7419 C 688.886 -0.591891 1.858 0
M  V30 7420 O 688.156 -1.43017 1.33876 0
M  V30 7421 H 686.736 0.323978 0.673088 0
M  V30 7422 H 689.398 1.42314 1.33164 0
M  V30 7423 H 688.494 1.26863 2.85153 0
M  V30 7424 N 688.795 -1.27931 0.920396 0
M  V30 7425 C 690.025 -1.98516 0.572256 0
M  V30 7426 C 690.433 -1.68912 -0.852375 0
M  V30 7427 O 689.776 -0.94203 -1.57707 0
M  V30 7428 C 689.838 -3.5243 0.709485 0
M  V30 7429 C 689.502 -4.0564 2.10489 0
M  V30 7430 C 690.499 -4.1897 3.07831 0
M  V30 7431 C 688.184 -4.40168 2.41986 0
M  V30 7432 C 690.178 -4.66093 4.34783 0
M  V30 7433 C 687.865 -4.86983 3.69176 0
M  V30 7434 C 688.863 -4.99903 4.65388 0
M  V30 7435 O 688.551 -5.45694 5.90316 0
M  V30 7436 H 688.283 -0.64047 0.216274 0
M  V30 7437 H 690.837 -1.6393 1.23758 0
M  V30 7438 H 689.067 -3.86698 -0.0129263 0
M  V30 7439 H 690.756 -4.04233 0.367474 0
M  V30 7440 H 691.522 -3.92562 2.84816 0
M  V30 7441 H 687.401 -4.29358 1.67846 0
M  V30 7442 H 690.945 -4.76092 5.09884 0
M  V30 7443 H 686.842 -5.12832 3.92012 0
M  V30 7444 H 687.61 -5.63965 5.932 0
M  V30 7445 N 690.273 -0.685099 -1.4193 0
M  V30 7446 C 691.498 -0.218842 -2.06242 0
M  V30 7447 C 691.923 1.11923 -1.51178 0
M  V30 7448 O 691.281 1.69837 -0.634446 0
M  V30 7449 C 691.329 -0.175592 -3.60172 0
M  V30 7450 O 690.433 0.852776 -4.03487 0
M  V30 7451 H 689.774 -0.109531 -0.654904 0
M  V30 7452 H 692.304 -0.937013 -1.81882 0
M  V30 7453 H 692.314 -0.00291151 -4.08 0
M  V30 7454 H 690.989 -1.15222 -3.99621 0
M  V30 7455 H 689.566 0.650301 -3.67186 0
M  V30 7456 N 691.751 1.51645 -0.429126 0
M  V30 7457 C 693.028 1.94579 0.199614 0
M  V30 7458 C 693.408 1.3673 1.60836 0
M  V30 7459 O 692.756 0.551062 2.21756 0
M  V30 7460 C 692.966 3.48506 0.185685 0
M  V30 7461 C 694.314 4.22756 0.395282 0
M  V30 7462 O 695.338 3.55219 0.264165 0
M  V30 7463 O 694.197 5.42555 0.655475 0
M  V30 7464 H 691.291 0.816007 0.134393 0
M  V30 7465 H 693.837 1.62577 -0.486513 0
M  V30 7466 H 692.609 3.83045 -0.799508 0
M  V30 7467 H 692.232 3.86927 0.91507 0
M  V30 7468 N 693.229 0.160201 1.56784 0
M  V30 7469 C 694.645 -0.196089 1.58391 0
M  V30 7470 C 694.845 -1.63689 1.17508 0
M  V30 7471 O 693.901 -2.36613 0.881506 0
M  V30 7472 C 695.214 0.0746449 3.00607 0
M  V30 7473 C 696.762 0.0119762 3.12998 0
M  V30 7474 C 697.237 0.255551 4.57286 0
M  V30 7475 N 698.728 0.202938 4.62755 0
M  V30 7476 C 699.463 0.365731 5.72232 0
M  V30 7477 N 698.959 0.586972 6.90309 0
M  V30 7478 N 700.752 0.302411 5.61286 0
M  V30 7479 H 692.903 1.1008 1.81648 0
M  V30 7480 H 695.166 0.436779 0.841384 0
M  V30 7481 H 694.872 1.07231 3.34954 0
M  V30 7482 H 694.746 -0.638802 3.71751 0
M  V30 7483 H 697.133 -0.976254 2.78484 0
M  V30 7484 H 697.214 0.75796 2.44313 0
M  V30 7485 H 696.858 1.24094 4.92507 0
M  V30 7486 H 696.788 -0.510912 5.24116 0
M  V30 7487 H 699.279 0.0371328 3.77882 0
M  V30 7488 H 699.592 0.700941 7.69615 0
M  V30 7489 H 697.937 0.623453 6.92198 0
M  V30 7490 H 701.128 0.130238 4.67919 0
M  V30 7491 H 701.301 0.432712 6.46554 0
M  V30 7492 N 694.707 -1.5719 -0.113559 0
M  V30 7493 C 695.937 -1.89053 -0.833212 0
M  V30 7494 C 696.345 -0.750139 -1.73694 0
M  V30 7495 O 695.688 0.287808 -1.81431 0
M  V30 7496 C 695.75 -3.15986 -1.71443 0
M  V30 7497 C 695.414 -4.46271 -0.984449 0
M  V30 7498 C 696.411 -5.18897 -0.322741 0
M  V30 7499 C 694.096 -4.92963 -0.964011 0
M  V30 7500 C 696.09 -6.3644 0.349646 0
M  V30 7501 C 693.777 -6.10422 -0.287828 0
M  V30 7502 C 694.775 -6.82009 0.36784 0
M  V30 7503 O 694.463 -7.97233 1.03322 0
M  V30 7504 H 694.195 -0.630225 -0.244526 0
M  V30 7505 H 696.749 -2.05152 -0.100847 0
M  V30 7506 H 694.979 -2.95984 -2.48858 0
M  V30 7507 H 696.668 -3.33826 -2.309 0
M  V30 7508 H 697.434 -4.83875 -0.330114 0
M  V30 7509 H 693.313 -4.37143 -1.46379 0
M  V30 7510 H 696.857 -6.92254 0.861996 0
M  V30 7511 H 692.754 -6.449 -0.278237 0
M  V30 7512 H 693.522 -8.13105 0.938247 0
M  V30 7513 N 696.185 0.383891 -1.52853 0
M  V30 7514 C 697.433 1.12619 -1.67814 0
M  V30 7515 C 697.754 1.90354 -0.423141 0
M  V30 7516 O 697.024 1.87649 0.562554 0
M  V30 7517 H 695.604 0.418738 -0.618601 0
M  V30 7518 H 698.266 0.43495 -1.89985 0
M  V30 7519 H 697.362 1.82624 -2.5309 0
M  V30 7520 N 697.663 1.43903 0.642637 0
M  V30 7521 C 698.91 1.46079 1.40239 0
M  V30 7522 C 699.238 0.0890335 1.94296 0
M  V30 7523 O 698.493 -0.907533 1.73385 0
M  V30 7524 C 698.792 2.45907 2.59354 0
M  V30 7525 C 698.458 3.91522 2.23654 0
M  V30 7526 C 697.12 4.31179 2.1363 0
M  V30 7527 C 699.472 4.83242 1.95261 0
M  V30 7528 C 696.8 5.60495 1.73384 0
M  V30 7529 C 699.152 6.12933 1.56511 0
M  V30 7530 C 697.816 6.51556 1.4502 0
M  V30 7531 H 697.086 0.534542 0.513172 0
M  V30 7532 H 699.733 1.77047 0.72984 0
M  V30 7533 H 698.038 2.08381 3.3179 0
M  V30 7534 H 699.735 2.44842 3.17574 0
M  V30 7535 H 696.325 3.60142 2.32369 0
M  V30 7536 H 700.509 4.53367 2.0192 0
M  V30 7537 H 695.765 5.89249 1.63082 0
M  V30 7538 H 699.939 6.83469 1.33576 0
M  V30 7539 H 697.566 7.51663 1.13606 0
M  V30 7540 N 699.141 -0.881989 1.30609 0
M  V30 7541 C 700.371 -1.66469 1.22359 0
M  V30 7542 C 700.779 -1.87969 -0.215507 0
M  V30 7543 O 700.122 -1.42938 -1.15388 0
M  V30 7544 C 700.184 -3.06135 1.88472 0
M  V30 7545 C 699.848 -3.07795 3.37804 0
M  V30 7546 C 700.845 -2.86633 4.33749 0
M  V30 7547 C 698.53 -3.29297 3.793 0
M  V30 7548 C 700.524 -2.86934 5.69164 0
M  V30 7549 C 698.211 -3.29228 5.14832 0
M  V30 7550 C 699.209 -3.08071 6.09574 0
M  V30 7551 O 698.897 -3.07824 7.4263 0
M  V30 7552 H 698.629 -0.526129 0.424458 0
M  V30 7553 H 701.183 -1.11004 1.72821 0
M  V30 7554 H 699.413 -3.63276 1.32543 0
M  V30 7555 H 701.102 -3.66571 1.74301 0
M  V30 7556 H 701.868 -2.69814 4.0302 0
M  V30 7557 H 697.747 -3.44799 3.05998 0
M  V30 7558 H 701.291 -2.70339 6.43088 0
M  V30 7559 H 697.188 -3.45583 5.452 0
M  V30 7560 H 697.956 -3.2397 7.51656 0
M  V30 7561 N 700.619 -1.13374 -1.09472 0
M  V30 7562 C 701.849 -0.917019 -1.85133 0
M  V30 7563 C 702.257 0.537568 -1.81402 0
M  V30 7564 O 701.6 1.38385 -1.20811 0
M  V30 7565 C 701.662 -1.32646 -3.34134 0
M  V30 7566 C 701.326 -2.79437 -3.61613 0
M  V30 7567 C 702.323 -3.77596 -3.57375 0
M  V30 7568 C 700.008 -3.16586 -3.89973 0
M  V30 7569 C 702.002 -5.10916 -3.81108 0
M  V30 7570 C 699.689 -4.50085 -4.13361 0
M  V30 7571 C 700.687 -5.47059 -4.0892 0
M  V30 7572 O 700.375 -6.78149 -4.31705 0
M  V30 7573 H 700.107 -0.326997 -0.591649 0
M  V30 7574 H 702.661 -1.51002 -1.39239 0
M  V30 7575 H 700.891 -0.676719 -3.80733 0
M  V30 7576 H 702.58 -1.08229 -3.91205 0
M  V30 7577 H 703.346 -3.50242 -3.35493 0
M  V30 7578 H 699.225 -2.41707 -3.92554 0
M  V30 7579 H 702.769 -5.86597 -3.77558 0
M  V30 7580 H 698.666 -4.77163 -4.34724 0
M  V30 7581 H 699.434 -6.84244 -4.49168 0
M  V30 7582 N 702.098 1.27442 -0.927168 0
M  V30 7583 C 703.344 1.94679 -0.568164 0
M  V30 7584 C 703.677 1.72697 0.888219 0
M  V30 7585 O 702.952 1.05573 1.63354 0
M  V30 7586 C 703.235 3.4882 -0.894253 0
M  V30 7587 C 703.088 3.80146 -2.40435 0
M  V30 7588 C 704.407 4.38281 -0.399766 0
M  V30 7589 H 701.526 0.707071 -0.207892 0
M  V30 7590 H 704.168 1.50568 -1.15885 0
M  V30 7591 H 702.318 3.86522 -0.391566 0
M  V30 7592 H 703.99 3.52238 -2.97869 0
M  V30 7593 H 702.233 3.26716 -2.85375 0
M  V30 7594 H 702.904 4.87835 -2.58304 0
M  V30 7595 H 705.38 4.07726 -0.83058 0
M  V30 7596 H 704.256 5.44955 -0.656885 0
M  V30 7597 H 704.517 4.36521 0.700153 0
M  V30 7598 N 703.576 0.692616 1.41565 0
M  V30 7599 C 704.486 0.0258451 2.34586 0
M  V30 7600 C 705.502 -0.769324 1.56069 0
M  V30 7601 O 706.678 -0.707563 1.88562 0
M  V30 7602 C 703.743 -0.901289 3.3478 0
M  V30 7603 C 702.804 -0.0986579 4.29187 0
M  V30 7604 C 702.037 -0.981634 5.24595 0
M  V30 7605 O 702.26 -2.22115 5.25377 0
M  V30 7606 O 701.194 -0.432892 6.00341 0
M  V30 7607 H 705.02 0.792537 2.93177 0
M  V30 7608 H 702.605 0.452935 1.42369 0
M  V30 7609 H 704.487 -1.43302 3.96286 0
M  V30 7610 H 703.162 -1.64752 2.78637 0
M  V30 7611 H 702.069 0.477604 3.71039 0
M  V30 7612 H 703.402 0.608848 4.8842 0
M  V30 7613 N 705.054 -1.51416 0.437162 0
M  V30 7614 C 706.301 -2.02086 -0.129364 0
M  V30 7615 C 706.629 -1.32133 -1.42728 0
M  V30 7616 O 705.884 -0.424916 -1.91031 0
M  V30 7617 C 706.183 -3.55203 -0.39564 0
M  V30 7618 C 705.849 -4.43447 0.81644 0
M  V30 7619 C 704.511 -4.67285 1.14884 0
M  V30 7620 C 706.863 -4.95219 1.62503 0
M  V30 7621 C 704.191 -5.40141 2.29052 0
M  V30 7622 C 706.543 -5.69327 2.7577 0
M  V30 7623 C 705.207 -5.91429 3.09464 0
M  V30 7624 H 704.477 -0.739486 -0.0473375 0
M  V30 7625 H 707.124 -1.82368 0.584321 0
M  V30 7626 H 705.429 -3.73252 -1.19121 0
M  V30 7627 H 707.126 -3.91944 -0.847399 0
M  V30 7628 H 703.716 -4.2509 0.547422 0
M  V30 7629 H 707.9 -4.76686 1.38144 0
M  V30 7630 H 703.156 -5.55468 2.55471 0
M  V30 7631 H 707.33 -6.08433 3.38795 0
M  V30 7632 H 704.957 -6.47662 3.98042 0
M  V30 7633 N 706.532 -0.168513 -1.56696 0
M  V30 7634 C 707.48 0.779791 -2.19139 0
M  V30 7635 C 708.474 1.23957 -1.1546 0
M  V30 7636 O 709.68 1.20555 -1.33666 0
M  V30 7637 H 706.055 0.269739 -0.701958 0
M  V30 7638 H 708.026 0.229156 -2.97519 0
M  V30 7639 C 706.775 2.00003 -2.84419 0
M  V30 7640 H 706.098 1.65527 -3.63924 0
M  V30 7641 H 707.538 2.64251 -3.31583 0
M  V30 7642 C 705.997 2.82187 -1.84044 0
M  V30 7643 O 706.527 3.79247 -1.32418 0
M  V30 7644 N 704.733 2.47145 -1.52864 0
M  V30 7645 H 704.28 1.68277 -1.9504 0
M  V30 7646 H 704.238 3.02422 -0.859569 0
M  V30 7647 N 708.01 1.57248 0.105221 0
M  V30 7648 C 709.287 1.76566 0.841647 0
M  V30 7649 C 709.667 0.747566 1.9742 0
M  V30 7650 O 709.015 -0.225886 2.27381 0
M  V30 7651 C 709.225 3.22016 1.3456 0
M  V30 7652 C 710.573 3.84911 1.79244 0
M  V30 7653 O 711.597 3.25703 1.44207 0
M  V30 7654 O 710.456 4.89008 2.43995 0
M  V30 7655 H 707.55 0.723443 0.400698 0
M  V30 7656 H 710.096 1.69472 0.0878893 0
M  V30 7657 H 708.868 3.87644 0.533685 0
M  V30 7658 H 708.491 3.33703 2.16167 0
M  V30 7659 N 709.488 -0.375779 1.53054 0
M  V30 7660 C 710.904 -0.716764 1.426 0
M  V30 7661 C 711.104 -1.93651 0.556931 0
M  V30 7662 O 710.16 -2.52475 0.0354461 0
M  V30 7663 C 711.473 -0.939499 2.85646 0
M  V30 7664 C 713.021 -1.04015 2.95212 0
M  V30 7665 C 713.496 -1.29543 4.39298 0
M  V30 7666 N 714.987 -1.36335 4.42682 0
M  V30 7667 C 715.722 -1.57778 5.51266 0
M  V30 7668 N 715.218 -1.76604 6.69913 0
M  V30 7669 N 717.011 -1.60065 5.38828 0
M  V30 7670 H 709.162 0.42664 2.08071 0
M  V30 7671 H 711.425 0.128758 0.939215 0
M  V30 7672 H 711.131 -0.115189 3.51511 0
M  V30 7673 H 711.005 -1.85048 3.2869 0
M  V30 7674 H 713.392 -1.85501 2.29507 0
M  V30 7675 H 713.473 -0.106785 2.55577 0
M  V30 7676 H 713.117 -0.485611 5.05573 0
M  V30 7677 H 713.047 -2.24184 4.76497 0
M  V30 7678 H 715.538 -1.23441 3.5717 0
M  V30 7679 H 715.851 -1.9251 7.48438 0
M  V30 7680 H 714.196 -1.73802 6.72917 0
M  V30 7681 H 717.387 -1.44917 4.45103 0
M  V30 7682 H 717.56 -1.76435 6.23518 0
M  V30 7683 N 710.966 -1.44241 -0.634997 0
M  V30 7684 C 711.914 -1.51103 -1.76835 0
M  V30 7685 C 712.908 -0.383051 -1.65012 0
M  V30 7686 O 714.114 -0.557832 -1.71138 0
M  V30 7687 H 710.489 -0.474076 -0.583743 0
M  V30 7688 H 712.46 -2.46499 -1.68169 0
M  V30 7689 C 711.209 -1.4687 -3.15158 0
M  V30 7690 H 710.532 -2.32979 -3.24901 0
M  V30 7691 H 711.972 -1.55731 -3.94365 0
M  V30 7692 C 710.431 -0.188884 -3.3637 0
M  V30 7693 O 710.961 0.742487 -3.94778 0
M  V30 7694 N 709.167 -0.0932516 -2.9045 0
M  V30 7695 H 708.714 -0.852004 -2.43102 0
M  V30 7696 H 708.672 0.762308 -3.05018 0
M  V30 7697 N 712.444 0.87505 -1.31075 0
M  V30 7698 C 713.391 1.98178 -1.18296 0
M  V30 7699 C 714.361 1.65952 -0.0699923 0
M  V30 7700 O 715.546 1.8926 -0.241951 0
M  V30 7701 C 712.686 3.33399 -0.891024 0
M  V30 7702 C 711.799 3.78253 -2.08684 0
M  V30 7703 C 710.934 5.02166 -1.73212 0
M  V30 7704 C 709.973 5.39455 -2.89231 0
M  V30 7705 N 709.11 6.54549 -2.53989 0
M  V30 7706 H 713.95 2.0844 -2.12971 0
M  V30 7707 H 711.487 1.02047 -1.05948 0
M  V30 7708 H 713.445 4.11246 -0.702338 0
M  V30 7709 H 712.075 3.22794 0.0188799 0
M  V30 7710 H 711.127 2.9623 -2.38646 0
M  V30 7711 H 712.439 4.01821 -2.95536 0
M  V30 7712 H 711.593 5.87666 -1.50777 0
M  V30 7713 H 710.332 4.80491 -0.83544 0
M  V30 7714 H 709.337 4.52477 -3.12321 0
M  V30 7715 H 710.562 5.63098 -3.79601 0
M  V30 7716 H 708.508 6.3443 -1.66838 0
M  V30 7717 H 708.425 6.78035 -3.34372 0
M  V30 7718 H 709.693 7.43254 -2.34934 0
M  V30 7719 N 713.922 1.13953 1.08869 0
M  V30 7720 C 715.333 0.916649 1.62648 0
M  V30 7721 C 715.684 -0.545589 1.88462 0
M  V30 7722 O 714.809 -1.41351 1.63856 0
M  V30 7723 C 715.404 1.65751 2.95486 0
M  V30 7724 C 713.963 1.48034 3.46068 0
M  V30 7725 C 713.11 1.68305 2.20383 0
M  V30 7726 H 716.061 1.292 0.921572 0
M  V30 7727 H 716.082 1.11794 3.63707 0
M  V30 7728 H 715.594 2.72171 2.76667 0
M  V30 7729 H 713.695 0.439416 3.7 0
M  V30 7730 H 713.808 2.24719 4.23129 0
M  V30 7731 H 712.172 1.10833 2.29321 0
M  V30 7732 H 712.955 2.76057 2.04077 0
M  V30 7733 N 715.4 -1.26948 0.933913 0
M  V30 7734 C 716.816 -1.46419 0.635103 0
M  V30 7735 C 717.016 -1.84336 -0.813785 0
M  V30 7736 O 716.072 -1.96061 -1.59111 0
M  V30 7737 C 717.385 -2.55206 1.5903 0
M  V30 7738 C 718.933 -2.69062 1.5992 0
M  V30 7739 C 719.408 -3.81013 2.54152 0
M  V30 7740 N 720.899 -3.88395 2.52395 0
M  V30 7741 C 721.634 -4.74454 3.21996 0
M  V30 7742 N 721.13 -5.64954 4.00997 0
M  V30 7743 N 722.923 -4.68237 3.10983 0
M  V30 7744 H 715.074 -1.00622 1.87053 0
M  V30 7745 H 717.337 -0.503189 0.803433 0
M  V30 7746 H 717.043 -2.34153 2.62422 0
M  V30 7747 H 716.917 -3.52719 1.33677 0
M  V30 7748 H 719.304 -2.89492 0.572569 0
M  V30 7749 H 719.385 -1.72016 1.89325 0
M  V30 7750 H 719.029 -3.61336 3.5693 0
M  V30 7751 H 718.959 -4.77499 2.22041 0
M  V30 7752 H 721.45 -3.23687 1.95025 0
M  V30 7753 H 721.763 -6.27496 4.51074 0
M  V30 7754 H 720.108 -5.6473 4.05099 0
M  V30 7755 H 723.299 -3.96535 2.48753 0
M  V30 7756 H 723.472 -5.35087 3.65494 0
M  V30 7757 N 716.879 -0.700114 -1.41195 0
M  V30 7758 C 718.109 -0.241828 -2.0518 0
M  V30 7759 C 718.517 1.1157 -1.52803 0
M  V30 7760 O 717.86 1.70926 -0.673042 0
M  V30 7761 C 717.922 -0.12695 -3.59276 0
M  V30 7762 C 717.586 -1.41725 -4.34469 0
M  V30 7763 C 718.583 -2.35604 -4.63451 0
M  V30 7764 C 716.268 -1.67189 -4.73659 0
M  V30 7765 C 718.262 -3.53204 -5.3059 0
M  V30 7766 C 715.949 -2.85073 -5.40534 0
M  V30 7767 C 716.947 -3.77904 -5.68927 0
M  V30 7768 O 716.635 -4.93723 -6.34424 0
M  V30 7769 H 716.367 -0.109247 -0.667114 0
M  V30 7770 H 718.921 -0.954538 -1.81873 0
M  V30 7771 H 717.151 0.641571 -3.81341 0
M  V30 7772 H 718.84 0.294748 -4.04828 0
M  V30 7773 H 719.606 -2.1719 -4.33651 0
M  V30 7774 H 715.485 -0.957935 -4.50937 0
M  V30 7775 H 719.029 -4.25679 -5.52669 0
M  V30 7776 H 714.926 -3.03402 -5.69752 0
M  V30 7777 H 715.694 -4.93597 -6.5292 0
M  V30 7778 N 718.357 1.51182 -0.445186 0
M  V30 7779 C 719.768 1.86693 0.0160999 0
M  V30 7780 C 720.119 1.36183 1.4124 0
M  V30 7781 O 719.244 0.715895 2.04215 0
M  V30 7782 C 719.839 3.38781 0.0359918 0
M  V30 7783 C 718.398 3.73799 0.441715 0
M  V30 7784 C 717.545 2.74947 -0.360511 0
M  V30 7785 H 720.496 1.44294 -0.660674 0
M  V30 7786 H 720.517 3.71026 0.843813 0
M  V30 7787 H 720.029 3.75513 -0.980378 0
M  V30 7788 H 718.13 3.42659 1.4634 0
M  V30 7789 H 718.243 4.78829 0.16106 0
M  V30 7790 H 716.607 2.54047 0.182269 0
M  V30 7791 H 717.39 3.14521 -1.3759 0
M  V30 7792 N 719.835 0.176821 1.56605 0
M  V30 7793 C 720.782 -0.751312 2.18229 0
M  V30 7794 C 721.752 -1.22297 1.12395 0
M  V30 7795 O 722.937 -1.29015 1.40569 0
M  V30 7796 C 720.077 -1.97291 2.83143 0
M  V30 7797 C 719.19 -1.54431 4.03454 0
M  V30 7798 C 718.325 -2.72 4.56278 0
M  V30 7799 C 717.364 -2.25657 5.68986 0
M  V30 7800 N 716.501 -3.36338 6.16296 0
M  V30 7801 H 721.341 -0.219033 2.97194 0
M  V30 7802 H 718.878 -0.0963803 1.46784 0
M  V30 7803 H 720.836 -2.68949 3.1894 0
M  V30 7804 H 719.466 -2.4788 2.06773 0
M  V30 7805 H 718.518 -0.724273 3.73441 0
M  V30 7806 H 719.83 -1.16417 4.85024 0
M  V30 7807 H 718.984 -3.51806 4.94285 0
M  V30 7808 H 717.723 -3.13277 3.73777 0
M  V30 7809 H 716.728 -1.44299 5.30526 0
M  V30 7810 H 717.953 -1.85432 6.53293 0
M  V30 7811 H 715.899 -3.7718 5.36723 0
M  V30 7812 H 715.816 -3.02435 6.9287 0
M  V30 7813 H 717.084 -4.16413 6.58954 0
M  V30 7814 N 721.313 -1.57302 -0.09688 0
M  V30 7815 C 722.276 -2.00976 -1.10188 0
M  V30 7816 C 723.276 -0.903009 -1.3305 0
M  V30 7817 O 724.466 -1.16853 -1.29194 0
M  V30 7818 C 721.598 -2.36893 -2.45142 0
M  V30 7819 H 722.791 -2.9098 -0.726003 0
M  V30 7820 H 720.344 -1.52515 -0.341872 0
M  V30 7821 H 721.079 -1.49837 -2.8761 0
M  V30 7822 H 720.864 -3.17632 -2.29897 0
M  V30 7823 H 722.354 -2.71345 -3.1743 0
M  V30 7824 N 722.791 0.367657 -1.53252 0
M  V30 7825 C 724.016 1.13566 -1.73544 0
M  V30 7826 C 724.441 1.82329 -0.462344 0
M  V30 7827 O 723.799 1.71655 0.583472 0
M  V30 7828 C 723.847 2.14322 -2.89997 0
M  V30 7829 O 722.951 3.21359 -2.58461 0
M  V30 7830 H 722.292 0.329614 -0.576412 0
M  V30 7831 H 724.822 0.425417 -2.00128 0
M  V30 7832 H 724.832 2.57958 -3.16104 0
M  V30 7833 H 723.507 1.63664 -3.82344 0
M  V30 7834 H 722.084 2.8271 -2.43165 0
M  V30 7835 N 724.269 1.44576 0.627338 0
M  V30 7836 C 725.515 1.47777 1.38888 0
M  V30 7837 C 725.848 0.111406 1.9388 0
M  V30 7838 O 725.123 -0.87149 1.73883 0
M  V30 7839 C 725.406 2.54119 2.55138 0
M  V30 7840 C 725.259 4.00128 2.0547 0
M  V30 7841 C 726.578 2.56929 3.57317 0
M  V30 7842 H 723.697 0.538048 0.50366 0
M  V30 7843 H 726.339 1.76277 0.708978 0
M  V30 7844 H 724.489 2.29948 3.13139 0
M  V30 7845 H 726.161 4.35444 1.5227 0
M  V30 7846 H 724.404 4.11724 1.36623 0
M  V30 7847 H 725.075 4.7019 2.89181 0
M  V30 7848 H 727.551 2.78536 3.09122 0
M  V30 7849 H 726.427 3.33234 4.36173 0
M  V30 7850 H 726.688 1.6127 4.11636 0
M  V30 7851 N 725.747 -0.868086 1.31537 0
M  V30 7852 C 726.679 -1.98165 1.15166 0
M  V30 7853 C 727.692 -1.6255 0.0902335 0
M  V30 7854 O 728.881 -1.75272 0.33791 0
M  V30 7855 C 725.981 -3.30772 0.737776 0
M  V30 7856 C 725.154 -3.94716 1.88462 0
M  V30 7857 C 724.213 -5.05641 1.45648 0
M  V30 7858 O 723.239 -5.2636 2.16642 0
M  V30 7859 N 724.441 -5.79474 0.34493 0
M  V30 7860 H 727.206 -2.12754 2.11083 0
M  V30 7861 H 724.767 -1.04217 1.23897 0
M  V30 7862 H 726.759 -4.02366 0.434032 0
M  V30 7863 H 725.329 -3.1233 -0.129834 0
M  V30 7864 H 724.549 -3.16079 2.35558 0
M  V30 7865 H 725.837 -4.34175 2.65273 0
M  V30 7866 H 725.235 -5.65164 -0.246259 0
M  V30 7867 H 723.792 -6.51722 0.100728 0
M  V30 7868 N 727.225 -1.14528 -1.08264 0
M  V30 7869 C 728.455 -0.936604 -1.8415 0
M  V30 7870 C 728.863 0.518298 -1.81962 0
M  V30 7871 O 728.206 1.37096 -1.22272 0
M  V30 7872 C 728.268 -1.36182 -3.32708 0
M  V30 7873 C 727.932 -2.83257 -3.58629 0
M  V30 7874 C 728.929 -3.81366 -3.5335 0
M  V30 7875 C 726.614 -3.20704 -3.86593 0
M  V30 7876 C 728.608 -5.14929 -3.75668 0
M  V30 7877 C 726.295 -4.54443 -4.08564 0
M  V30 7878 C 727.293 -5.51365 -4.03095 0
M  V30 7879 O 726.981 -6.8269 -4.24488 0
M  V30 7880 H 726.713 -0.333254 -0.588148 0
M  V30 7881 H 729.267 -1.5247 -1.3763 0
M  V30 7882 H 727.497 -0.717063 -3.79994 0
M  V30 7883 H 729.186 -1.12372 -3.90035 0
M  V30 7884 H 729.952 -3.53781 -3.31759 0
M  V30 7885 H 725.831 -2.45857 -3.89969 0
M  V30 7886 H 729.375 -5.90568 -3.71315 0
M  V30 7887 H 725.272 -4.81747 -4.29639 0
M  V30 7888 H 726.04 -6.8897 -4.41886 0
M  V30 7889 N 728.703 1.26451 -0.940633 0
M  V30 7890 C 729.933 1.97581 -0.603766 0
M  V30 7891 C 730.341 1.70246 0.825395 0
M  V30 7892 O 729.684 0.967001 1.56188 0
M  V30 7893 C 729.746 3.51256 -0.765463 0
M  V30 7894 C 729.41 4.0224 -2.16915 0
M  V30 7895 C 730.407 4.1402 -3.14457 0
M  V30 7896 C 728.092 4.36263 -2.48958 0
M  V30 7897 C 730.086 4.59117 -4.42143 0
M  V30 7898 C 727.773 4.81048 -3.76877 0
M  V30 7899 C 728.771 4.92436 -4.73282 0
M  V30 7900 O 728.459 5.36234 -5.98923 0
M  V30 7901 H 728.191 0.636948 -0.226436 0
M  V30 7902 H 730.745 1.61941 -1.2635 0
M  V30 7903 H 728.975 3.86669 -0.0485956 0
M  V30 7904 H 730.664 4.03597 -0.431738 0
M  V30 7905 H 731.43 3.87981 -2.91026 0
M  V30 7906 H 727.309 4.26634 -1.74656 0
M  V30 7907 H 730.853 4.6792 -5.17394 0
M  V30 7908 H 726.75 5.06531 -4.00121 0
M  V30 7909 H 727.518 5.54456 -6.02097 0
M  V30 7910 N 730.181 0.707592 1.40822 0
M  V30 7911 C 731.128 0.0499029 2.30746 0
M  V30 7912 C 732.098 -0.758718 1.47759 0
M  V30 7913 O 733.283 -0.724299 1.76518 0
M  V30 7914 C 730.423 -0.871756 3.33908 0
M  V30 7915 C 729.536 -0.0534655 4.31967 0
M  V30 7916 C 728.671 -0.973869 5.22197 0
M  V30 7917 C 727.71 -0.149194 6.11918 0
M  V30 7918 N 726.847 -1.02404 6.94592 0
M  V30 7919 H 731.687 0.822461 2.86426 0
M  V30 7920 H 729.224 0.417285 1.41057 0
M  V30 7921 H 731.182 -1.42028 3.9228 0
M  V30 7922 H 729.812 -1.61058 2.7975 0
M  V30 7923 H 728.864 0.612142 3.75442 0
M  V30 7924 H 730.176 0.585354 4.95353 0
M  V30 7925 H 729.33 -1.59121 5.85462 0
M  V30 7926 H 728.069 -1.64652 4.59065 0
M  V30 7927 H 727.074 0.481137 5.47691 0
M  V30 7928 H 728.299 0.519841 6.77107 0
M  V30 7929 H 726.245 -1.6825 6.34057 0
M  V30 7930 H 726.162 -0.441076 7.54712 0
M  V30 7931 H 727.43 -1.62782 7.62314 0
M  V30 7932 N 731.66 -1.50943 0.453197 0
M  V30 7933 C 732.607 -2.28128 -0.350197 0
M  V30 7934 C 733.577 -1.32398 -1.00299 0
M  V30 7935 O 734.762 -1.61319 -1.01887 0
M  V30 7936 C 731.902 -3.13782 -1.43649 0
M  V30 7937 C 731.015 -4.24523 -0.800255 0
M  V30 7938 C 730.15 -4.97462 -1.86293 0
M  V30 7939 C 729.189 -6.00102 -1.20598 0
M  V30 7940 N 728.326 -6.66387 -2.21071 0
M  V30 7941 H 733.166 -2.96337 0.31434 0
M  V30 7942 H 730.703 -1.46151 0.166863 0
M  V30 7943 H 732.661 -3.6178 -2.07776 0
M  V30 7944 H 731.291 -2.47655 -2.07044 0
M  V30 7945 H 730.343 -3.80371 -0.0468651 0
M  V30 7946 H 731.655 -4.98009 -0.280777 0
M  V30 7947 H 730.809 -5.49088 -2.58044 0
M  V30 7948 H 729.548 -4.23642 -2.41617 0
M  V30 7949 H 728.553 -5.47753 -0.474 0
M  V30 7950 H 729.778 -6.75887 -0.659859 0
M  V30 7951 H 727.724 -5.9537 -2.75446 0
M  V30 7952 H 727.641 -7.3569 -1.74058 0
M  V30 7953 H 728.909 -7.22638 -2.92257 0
M  V30 7954 N 733.138 -0.185124 -1.56509 0
M  V30 7955 C 734.387 0.456421 -1.96468 0
M  V30 7956 C 734.7 1.63448 -1.07444 0
M  V30 7957 O 735.906 2.34316 -1.37143 0
M  V30 7958 C 734.362 0.863404 -3.4939 0
M  V30 7959 C 733.97 -0.289815 -4.47062 0
M  V30 7960 C 735.714 1.47259 -3.98139 0
M  V30 7961 C 733.621 0.137571 -5.9124 0
M  V30 7962 H 732.551 0.17429 -0.733579 0
M  V30 7963 H 735.202 -0.275554 -1.81419 0
M  V30 7964 H 733.584 1.65176 -3.59907 0
M  V30 7965 H 734.758 -1.06728 -4.4827 0
M  V30 7966 H 733.073 -0.809851 -4.08449 0
M  V30 7967 H 735.67 1.80463 -5.03326 0
M  V30 7968 H 736.013 2.3755 -3.41871 0
M  V30 7969 H 736.546 0.748405 -3.90696 0
M  V30 7970 H 733.285 -0.730907 -6.51412 0
M  V30 7971 H 732.805 0.8801 -5.93308 0
M  V30 7972 H 734.484 0.576771 -6.44424 0
M  V30 7973 N 734.616 1.57351 0.0885366 0
M  V30 7974 C 735.865 1.85604 0.789556 0
M  V30 7975 C 736.178 0.775352 1.79576 0
M  V30 7976 O 737.384 0.945206 2.54515 0
M  V30 7977 C 735.84 3.29175 1.45506 0
M  V30 7978 C 735.448 4.45331 0.488278 0
M  V30 7979 C 737.192 3.66646 2.13942 0
M  V30 7980 C 735.099 5.79937 1.15874 0
M  V30 7981 H 734.029 0.692346 0.298619 0
M  V30 7982 H 736.68 1.83451 0.0425821 0
M  V30 7983 H 735.062 3.25889 2.24972 0
M  V30 7984 H 736.236 4.59977 -0.275359 0
M  V30 7985 H 734.551 4.16301 -0.0907363 0
M  V30 7986 H 737.148 4.64498 2.6485 0
M  V30 7987 H 737.491 2.956 2.93132 0
M  V30 7988 H 738.024 3.71848 1.41328 0
M  V30 7989 H 734.763 6.54232 0.407508 0
M  V30 7990 H 734.283 5.69123 1.89364 0
M  V30 7991 H 735.962 6.24718 1.68336 0
M  V30 7992 N 736.094 -0.359525 1.53444 0
M  V30 7993 C 737.343 -1.09886 1.69139 0
M  V30 7994 C 737.656 -1.90285 0.452863 0
M  V30 7995 O 738.862 -2.67033 0.490459 0
M  V30 7996 C 737.318 -2.0028 2.99025 0
M  V30 7997 C 736.926 -1.25164 4.30161 0
M  V30 7998 C 738.67 -2.74168 3.24086 0
M  V30 7999 C 736.577 -2.14494 5.51132 0
M  V30 8000 H 735.507 -0.413936 0.630217 0
M  V30 8001 H 738.158 -0.359434 1.79945 0
M  V30 8002 H 736.54 -2.77978 2.82036 0
M  V30 8003 H 737.714 -0.524867 4.57801 0
M  V30 8004 H 736.029 -0.631116 4.11589 0
M  V30 8005 H 738.626 -3.41243 4.11652 0
M  V30 8006 H 738.969 -3.39868 2.40407 0
M  V30 8007 H 739.502 -2.0355 3.41778 0
M  V30 8008 H 736.241 -1.53362 6.37307 0
M  V30 8009 H 735.761 -2.85004 5.27762 0
M  V30 8010 H 737.44 -2.73914 5.86157 0
M  V30 8011 N 737.572 -1.44907 -0.619662 0
M  V30 8012 C 738.535 -1.52282 -1.71297 0
M  V30 8013 C 739.535 -0.40359 -1.55653 0
M  V30 8014 O 740.725 -0.666638 -1.6094 0
M  V30 8015 C 737.857 -1.40778 -3.10474 0
M  V30 8016 H 739.05 -2.49683 -1.66128 0
M  V30 8017 H 736.603 -1.32168 -0.834339 0
M  V30 8018 H 737.338 -0.445156 -3.2123 0
M  V30 8019 H 737.123 -2.21947 -3.23237 0
M  V30 8020 H 738.613 -1.48946 -3.90135 0
M  V30 8021 N 739.05 0.861098 -1.31996 0
M  V30 8022 C 739.998 1.99052 -1.20337 0
M  V30 8023 C 740.992 1.69045 -0.109623 0
M  V30 8024 O 742.198 1.77931 -0.272117 0
M  V30 8025 H 738.573 0.653064 -0.372843 0
M  V30 8026 H 740.544 2.06015 -2.15872 0
M  V30 8027 C 739.293 3.34846 -0.936663 0
M  V30 8028 H 738.616 3.58462 -1.77045 0
M  V30 8029 H 740.056 4.1444 -0.895302 0
M  V30 8030 C 738.515 3.34965 0.360607 0
M  V30 8031 O 739.045 3.7745 1.37456 0
M  V30 8032 N 737.251 2.88101 0.380296 0
M  V30 8033 H 736.798 2.53721 -0.445351 0
M  V30 8034 H 736.756 2.88563 1.24816 0
M  V30 8035 N 740.528 1.15101 1.07655 0
M  V30 8036 C 741.776 0.922149 1.79836 0
M  V30 8037 C 742.097 -0.552346 1.87014 0
M  V30 8038 O 741.367 -1.40145 1.3688 0
M  V30 8039 H 739.947 0.338182 0.666064 0
M  V30 8040 H 742.609 1.45107 1.30115 0
M  V30 8041 H 741.705 1.32883 2.82398 0
M  V30 8042 N 742.006 -1.2595 0.947325 0
M  V30 8043 C 743.253 -1.93463 0.598178 0
M  V30 8044 C 743.581 -1.74271 -0.863705 0
M  V30 8045 O 742.836 -1.07684 -1.63409 0
M  V30 8046 C 743.135 -3.46034 0.894158 0
M  V30 8047 C 742.801 -3.85373 2.3409 0
M  V30 8048 C 741.463 -3.95823 2.73637 0
M  V30 8049 C 743.815 -4.04986 3.2808 0
M  V30 8050 C 741.143 -4.23288 4.06257 0
M  V30 8051 C 743.495 -4.3394 4.60303 0
M  V30 8052 C 742.159 -4.42606 4.99656 0
M  V30 8053 H 741.429 -0.707933 0.218889 0
M  V30 8054 H 744.076 -1.4964 1.19499 0
M  V30 8055 H 742.381 -3.9121 0.214874 0
M  V30 8056 H 744.078 -3.96445 0.602698 0
M  V30 8057 H 740.668 -3.7779 2.02417 0
M  V30 8058 H 744.852 -3.96333 2.9872 0
M  V30 8059 H 740.108 -4.28211 4.36401 0
M  V30 8060 H 744.282 -4.48061 5.33118 0
M  V30 8061 H 741.909 -4.63641 6.02446 0
M  V30 8062 N 743.484 -0.715051 -1.40445 0
M  V30 8063 C 744.895 -0.326763 -1.83818 0
M  V30 8064 C 745.246 1.13851 -1.59789 0
M  V30 8065 O 744.371 1.87611 -1.07848 0
M  V30 8066 C 744.966 -0.586297 -3.33688 0
M  V30 8067 C 743.525 -0.251724 -3.75557 0
M  V30 8068 C 742.672 -0.858928 -2.63662 0
M  V30 8069 H 745.623 -0.914241 -1.2972 0
M  V30 8070 H 745.644 0.148636 -3.8021 0
M  V30 8071 H 745.156 -1.65281 -3.51146 0
M  V30 8072 H 743.257 0.809754 -3.63695 0
M  V30 8073 H 743.37 -0.720348 -4.73654 0
M  V30 8074 H 741.734 -0.287013 -2.53078 0
M  V30 8075 H 742.517 -1.9297 -2.83932 0
M  V30 8076 N 744.962 1.50701 -0.461195 0
M  V30 8077 C 745.91 2.29918 0.352231 0
M  V30 8078 C 746.904 1.36778 0.999403 0
M  V30 8079 O 748.11 1.54015 0.931639 0
M  V30 8080 H 744.485 0.740249 0.132423 0
M  V30 8081 H 746.456 2.96497 -0.336424 0
M  V30 8082 C 745.205 3.17052 1.42736 0
M  V30 8083 H 744.528 3.88623 0.938747 0
M  V30 8084 H 745.968 3.75493 1.96928 0
M  V30 8085 C 744.427 2.3399 2.42384 0
M  V30 8086 O 744.957 2.01608 3.47444 0
M  V30 8087 N 743.163 1.96758 2.13857 0
M  V30 8088 H 742.71 2.23292 1.28447 0
M  V30 8089 H 742.668 1.41484 2.80766 0
M  V30 8090 N 746.441 0.193421 1.56409 0
M  V30 8091 C 747.852 -0.319471 1.83946 0
M  V30 8092 C 748.203 -1.61505 1.11403 0
M  V30 8093 O 747.328 -2.13139 0.374289 0
M  V30 8094 C 747.923 -0.586411 3.33686 0
M  V30 8095 C 746.482 -1.04368 3.61641 0
M  V30 8096 C 745.629 -0.0913834 2.77149 0
M  V30 8097 H 748.58 0.417242 1.53117 0
M  V30 8098 H 748.601 -1.43591 3.52366 0
M  V30 8099 H 748.113 0.356701 3.86457 0
M  V30 8100 H 746.214 -2.00113 3.14302 0
M  V30 8101 H 746.327 -0.937549 4.69837 0
M  V30 8102 H 744.691 -0.592954 2.47702 0
M  V30 8103 H 745.474 0.846142 3.32709 0
M  V30 8104 N 747.919 -1.57396 -0.0801906 0
M  V30 8105 C 749.335 -1.53564 -0.434778 0
M  V30 8106 C 749.535 -0.912372 -1.79661 0
M  V30 8107 O 748.591 -0.511268 -2.4727 0
M  V30 8108 C 749.904 -2.98244 -0.383561 0
M  V30 8109 C 751.452 -3.09536 -0.46435 0
M  V30 8110 C 751.927 -4.55851 -0.443128 0
M  V30 8111 N 753.418 -4.60456 -0.503448 0
M  V30 8112 C 754.153 -5.71135 -0.509106 0
M  V30 8113 N 753.649 -6.91203 -0.47008 0
M  V30 8114 N 755.442 -5.59353 -0.555035 0
M  V30 8115 H 747.593 -1.96281 0.811635 0
M  V30 8116 H 749.856 -0.898041 0.303689 0
M  V30 8117 H 749.562 -3.47369 0.550236 0
M  V30 8118 H 749.436 -3.57705 -1.19694 0
M  V30 8119 H 751.823 -2.6039 -1.38857 0
M  V30 8120 H 751.904 -2.53 0.377445 0
M  V30 8121 H 751.548 -5.05653 0.477207 0
M  V30 8122 H 751.478 -5.10242 -1.30234 0
M  V30 8123 H 753.969 -3.74048 -0.538199 0
M  V30 8124 H 754.282 -7.7132 -0.478091 0
M  V30 8125 H 752.627 -6.93625 -0.436897 0
M  V30 8126 H 755.818 -4.64453 -0.583158 0
M  V30 8127 H 755.991 -6.4561 -0.555976 0
M  V30 8128 N 749.397 0.351382 -1.53633 0
M  V30 8129 C 750.307 1.45471 -1.84052 0
M  V30 8130 C 751.323 1.57945 -0.730015 0
M  V30 8131 O 752.499 1.73571 -1.02153 0
M  V30 8132 C 749.564 2.80562 -2.03681 0
M  V30 8133 C 748.625 2.77497 -3.27558 0
M  V30 8134 C 747.858 4.06144 -3.46241 0
M  V30 8135 O 748.081 5.03028 -2.68922 0
M  V30 8136 O 747.015 4.11092 -4.39645 0
M  V30 8137 H 750.841 1.22684 -2.77817 0
M  V30 8138 H 748.426 0.542827 -1.3919 0
M  V30 8139 H 750.308 3.6058 -2.18082 0
M  V30 8140 H 748.983 3.03296 -1.13106 0
M  V30 8141 H 747.89 1.96126 -3.18568 0
M  V30 8142 H 749.223 2.59716 -4.18101 0
M  V30 8143 N 750.875 1.45233 0.611969 0
M  V30 8144 C 752.121 1.49242 1.37312 0
M  V30 8145 C 752.454 0.131963 1.93751 0
M  V30 8146 O 751.729 -0.852999 1.74798 0
M  V30 8147 C 752.012 2.56811 2.52428 0
M  V30 8148 C 751.865 4.02284 2.01215 0
M  V30 8149 C 753.184 2.60705 3.54572 0
M  V30 8150 H 750.303 0.54336 0.497925 0
M  V30 8151 H 752.945 1.77019 0.690242 0
M  V30 8152 H 751.095 2.33256 3.10683 0
M  V30 8153 H 752.767 4.37035 1.47643 0
M  V30 8154 H 751.01 4.1315 1.32248 0
M  V30 8155 H 751.681 4.7323 2.84178 0
M  V30 8156 H 754.157 2.81799 3.06151 0
M  V30 8157 H 753.033 3.37841 4.32614 0
M  V30 8158 H 753.294 1.65627 4.09903 0
M  V30 8159 N 752.353 -0.854086 1.3245 0
M  V30 8160 C 753.263 -1.99503 1.23434 0
M  V30 8161 C 754.279 -1.73371 0.147828 0
M  V30 8162 O 755.455 -1.97998 0.368609 0
M  V30 8163 C 752.52 -3.33192 0.958328 0
M  V30 8164 C 751.581 -3.72542 2.13333 0
M  V30 8165 C 750.814 -4.99852 1.8704 0
M  V30 8166 O 751.037 -5.64573 0.813239 0
M  V30 8167 O 749.971 -5.36345 2.73161 0
M  V30 8168 H 753.797 -2.10046 2.1935 0
M  V30 8169 H 751.382 -0.984823 1.12346 0
M  V30 8170 H 753.264 -4.13327 0.820918 0
M  V30 8171 H 751.939 -3.23687 0.0293299 0
M  V30 8172 H 750.846 -2.92981 2.32622 0
M  V30 8173 H 752.179 -3.86694 3.04514 0
M  V30 8174 N 753.831 -1.1567 -1.07043 0
M  V30 8175 C 755.056 -0.957946 -1.83952 0
M  V30 8176 C 755.481 0.488807 -1.81638 0
M  V30 8177 O 754.839 1.34869 -1.21162 0
M  V30 8178 C 754.887 -1.48064 -3.288 0
M  V30 8179 O 753.991 -0.681921 -4.06723 0
M  V30 8180 H 753.332 -0.341453 -0.569479 0
M  V30 8181 H 755.862 -1.53728 -1.35015 0
M  V30 8182 H 755.872 -1.49484 -3.7963 0
M  V30 8183 H 754.547 -2.53388 -3.29799 0
M  V30 8184 H 753.124 -0.737612 -3.65532 0
M  V30 8185 N 755.309 1.25446 -0.953992 0
M  V30 8186 C 756.555 1.93756 -0.618888 0
M  V30 8187 C 756.91 1.73344 0.83484 0
M  V30 8188 O 756.203 1.06753 1.59105 0
M  V30 8189 C 756.397 3.45555 -0.912496 0
M  V30 8190 C 756.226 3.8073 -2.39321 0
M  V30 8191 C 754.996 4.02819 -3.05065 0
M  V30 8192 C 757.194 3.88286 -3.37251 0
M  V30 8193 N 755.176 4.24981 -4.43017 0
M  V30 8194 C 756.547 4.1513 -4.60507 0
M  V30 8195 C 758.602 3.70965 -3.32099 0
M  V30 8196 C 757.305 4.26454 -5.79249 0
M  V30 8197 C 759.331 3.83528 -4.50178 0
M  V30 8198 C 758.693 4.10783 -5.72221 0
M  V30 8199 H 754.792 0.731271 -0.277069 0
M  V30 8200 H 757.376 1.5125 -1.22604 0
M  V30 8201 H 755.547 3.86959 -0.334284 0
M  V30 8202 H 757.279 4.01117 -0.537362 0
M  V30 8203 H 754.034 3.9868 -2.55639 0
M  V30 8204 H 754.458 4.4007 -5.14459 0
M  V30 8205 H 759.1 3.4891 -2.38791 0
M  V30 8206 H 756.818 4.47325 -6.72998 0
M  V30 8207 H 760.404 3.71513 -4.47738 0
M  V30 8208 H 759.284 4.20285 -6.62065 0
M  V30 8209 N 756.787 0.722489 1.40064 0
M  V30 8210 C 758.017 0.274439 2.04769 0
M  V30 8211 C 758.425 -1.09125 1.54559 0
M  V30 8212 O 757.768 -1.69834 0.700149 0
M  V30 8213 C 757.83 0.184091 3.59028 0
M  V30 8214 C 757.494 1.48619 4.32159 0
M  V30 8215 C 758.491 2.42947 4.59644 0
M  V30 8216 C 756.176 1.74703 4.7094 0
M  V30 8217 C 758.17 3.616 5.24904 0
M  V30 8218 C 755.857 2.93636 5.3593 0
M  V30 8219 C 756.855 3.86907 5.62843 0
M  V30 8220 O 756.543 5.03753 6.26489 0
M  V30 8221 H 756.275 0.119847 0.665292 0
M  V30 8222 H 758.829 0.983352 1.80331 0
M  V30 8223 H 757.059 -0.580821 3.82313 0
M  V30 8224 H 758.748 -0.230306 4.05246 0
M  V30 8225 H 759.514 2.24062 4.30141 0
M  V30 8226 H 755.393 1.02955 4.49356 0
M  V30 8227 H 758.937 4.34418 5.45827 0
M  V30 8228 H 754.834 3.12428 5.64853 0
M  V30 8229 H 755.602 5.03922 6.44984 0
M  V30 8230 N 758.265 -1.50454 0.469181 0
M  V30 8231 C 759.195 -2.31353 -0.31592 0
M  V30 8232 C 760.176 -1.38172 -0.992094 0
M  V30 8233 O 761.361 -1.67093 -0.989633 0
M  V30 8234 C 758.491 -3.1786 -1.39937 0
M  V30 8235 C 757.445 -4.19578 -0.844909 0
M  V30 8236 C 756.771 -4.9481 -2.0265 0
M  V30 8237 C 758.071 -5.22106 0.142499 0
M  V30 8238 H 759.765 -2.97237 0.359269 0
M  V30 8239 H 757.311 -1.42942 0.174224 0
M  V30 8240 H 759.264 -3.7325 -1.95607 0
M  V30 8241 H 757.988 -2.49858 -2.1033 0
M  V30 8242 H 756.647 -3.65285 -0.310189 0
M  V30 8243 H 756.295 -4.23282 -2.71737 0
M  V30 8244 H 755.995 -5.63613 -1.66174 0
M  V30 8245 H 757.519 -5.53035 -2.58815 0
M  V30 8246 H 758.933 -5.72378 -0.324966 0
M  V30 8247 H 757.33 -5.98618 0.421441 0
M  V30 8248 H 758.4 -4.7297 1.06901 0
M  V30 8249 N 759.743 -0.201713 -1.56304 0
M  V30 8250 C 760.69 0.716499 -2.19397 0
M  V30 8251 C 761.66 1.20494 -1.14326 0
M  V30 8252 O 762.845 1.26763 -1.42604 0
M  V30 8253 C 759.985 1.92762 -2.86246 0
M  V30 8254 C 759.098 1.47993 -4.0586 0
M  V30 8255 C 758.233 2.64706 -4.60547 0
M  V30 8256 C 757.272 2.16576 -5.72504 0
M  V30 8257 N 756.409 3.26491 -6.21569 0
M  V30 8258 H 761.249 0.171724 -2.97505 0
M  V30 8259 H 758.786 0.073016 -1.46919 0
M  V30 8260 H 760.744 2.6384 -3.23178 0
M  V30 8261 H 759.374 2.44559 -2.10691 0
M  V30 8262 H 758.426 0.66477 -3.74546 0
M  V30 8263 H 759.738 1.08686 -4.86815 0
M  V30 8264 H 758.892 3.43898 -4.99819 0
M  V30 8265 H 757.631 3.0729 -3.78713 0
M  V30 8266 H 756.636 1.3584 -5.32755 0
M  V30 8267 H 757.861 1.75015 -6.56161 0
M  V30 8268 H 755.807 3.68594 -5.42655 0
M  V30 8269 H 755.724 2.91374 -6.97594 0
M  V30 8270 H 756.992 4.05877 -6.65495 0
M  V30 8271 N 761.222 1.57436 0.0718424 0
M  V30 8272 C 762.185 2.02703 1.06977 0
M  V30 8273 C 763.185 0.924062 1.31597 0
M  V30 8274 O 764.375 1.18894 1.27318 0
M  V30 8275 C 761.507 2.40763 2.41342 0
M  V30 8276 H 762.7 2.92098 0.679619 0
M  V30 8277 H 760.253 1.5304 0.317565 0
M  V30 8278 H 760.988 1.54394 2.8519 0
M  V30 8279 H 760.773 3.21249 2.24814 0
M  V30 8280 H 762.263 2.76361 3.13073 0
M  V30 8281 N 762.7 -0.34323 1.53817 0
M  V30 8282 C 763.63 -1.42709 1.84814 0
M  V30 8283 C 764.611 -1.5488 0.703297 0
M  V30 8284 O 765.796 -1.69082 0.955237 0
M  V30 8285 C 762.926 -2.79756 2.05801 0
M  V30 8286 C 761.88 -2.82392 3.21619 0
M  V30 8287 C 761.206 -4.22326 3.2794 0
M  V30 8288 C 762.506 -2.479 4.59721 0
M  V30 8289 H 764.2 -1.17018 2.75585 0
M  V30 8290 H 761.746 -0.561485 1.32602 0
M  V30 8291 H 763.699 -3.55627 2.26069 0
M  V30 8292 H 762.423 -3.06883 1.11761 0
M  V30 8293 H 761.082 -2.08974 3.01207 0
M  V30 8294 H 760.73 -4.46564 2.31494 0
M  V30 8295 H 760.43 -4.25001 4.05768 0
M  V30 8296 H 761.954 -5.00039 3.50419 0
M  V30 8297 H 763.368 -3.13484 4.80001 0
M  V30 8298 H 761.765 -2.61857 5.39954 0
M  V30 8299 H 762.835 -1.43087 4.63308 0
M  V30 8300 N 764.178 -1.45556 -0.604258 0
M  V30 8301 C 765.088 -1.57025 -1.74299 0
M  V30 8302 C 766.104 -0.45456 -1.67958 0
M  V30 8303 O 767.28 -0.715711 -1.88254 0
M  V30 8304 C 764.345 -1.53702 -3.10768 0
M  V30 8305 C 763.406 -2.76335 -3.28538 0
M  V30 8306 C 762.639 -2.73161 -4.58496 0
M  V30 8307 O 762.862 -1.80678 -5.41028 0
M  V30 8308 O 761.796 -3.64409 -4.79051 0
M  V30 8309 H 765.622 -2.53284 -1.67573 0
M  V30 8310 H 763.207 -1.28104 -0.768745 0
M  V30 8311 H 765.089 -1.54468 -3.92068 0
M  V30 8312 H 763.764 -0.605957 -3.17978 0
M  V30 8313 H 762.671 -2.8113 -2.46813 0
M  V30 8314 H 764.004 -3.68578 -3.26207 0
M  V30 8315 N 765.656 0.84705 -1.32902 0
M  V30 8316 C 766.884 1.63403 -1.26913 0
M  V30 8317 C 767.299 1.88108 0.161483 0
M  V30 8318 O 766.656 1.45546 1.10103 0
M  V30 8319 C 766.707 2.98896 -2.03331 0
M  V30 8320 O 766.428 2.75281 -3.40811 0
M  V30 8321 C 767.929 3.93335 -2.04457 0
M  V30 8322 H 765.149 0.508701 -0.437566 0
M  V30 8323 H 767.693 1.05567 -1.75145 0
M  V30 8324 H 765.848 3.53356 -1.58802 0
M  V30 8325 H 766.262 3.61504 -3.8002 0
M  V30 8326 H 767.736 4.85647 -2.62394 0
M  V30 8327 H 768.213 4.26885 -1.03274 0
M  V30 8328 H 768.819 3.44812 -2.48967 0
M  V30 8329 N 767.134 1.16236 1.06428 0
M  V30 8330 C 768.374 0.95369 1.80787 0
M  V30 8331 C 768.738 -0.509495 1.85117 0
M  V30 8332 O 769.939 -0.836822 2.55442 0
M  V30 8333 C 768.21 1.56235 3.21443 0
M  V30 8334 S 769.769 1.49812 4.12434 0
M  V30 8335 H 766.587 0.343004 0.622792 0
M  V30 8336 H 769.189 1.47957 1.27785 0
M  V30 8337 H 767.893 2.62 3.15886 0
M  V30 8338 H 767.424 1.03574 3.79521 0
M  V30 8339 H 769.439 0.49745 4.937 0
M  V30 8340 N 768.612 -1.24939 0.960631 0
M  V30 8341 C 769.837 -1.9742 0.635608 0
M  V30 8342 C 770.262 -1.70857 -0.786737 0
M  V30 8343 O 769.62 -0.968063 -1.53291 0
M  V30 8344 C 769.668 -3.48987 0.907771 0
M  V30 8345 O 768.772 -4.12399 -0.0104053 0
M  V30 8346 H 768.113 -0.61871 0.241027 0
M  V30 8347 H 770.643 -1.58901 1.28886 0
M  V30 8348 H 770.653 -3.99334 0.836453 0
M  V30 8349 H 769.328 -3.6765 1.94439 0
M  V30 8350 H 767.905 -3.72727 0.113631 0
M  V30 8351 N 770.09 -0.729906 -1.39679 0
M  V30 8352 C 771.339 -0.272534 -1.9985 0
M  V30 8353 C 771.652 1.14519 -1.58571 0
M  V30 8354 O 772.858 1.70182 -2.11543 0
M  V30 8355 C 771.314 -0.436322 -3.57245 0
M  V30 8356 C 770.922 -1.86161 -4.0749 0
M  V30 8357 C 772.666 -0.0404679 -4.24481 0
M  V30 8358 C 770.573 -1.97522 -5.5744 0
M  V30 8359 H 769.503 -0.0981428 -0.747585 0
M  V30 8360 H 772.154 -0.903056 -1.59741 0
M  V30 8361 H 770.536 0.263015 -3.95126 0
M  V30 8362 H 771.71 -2.59248 -3.80955 0
M  V30 8363 H 770.025 -2.21021 -3.529 0
M  V30 8364 H 772.622 -0.104437 -5.34598 0
M  V30 8365 H 772.965 1.00357 -4.04023 0
M  V30 8366 H 773.498 -0.690774 -3.91757 0
M  V30 8367 H 770.237 -3.00096 -5.82771 0
M  V30 8368 H 769.757 -1.28864 -5.85794 0
M  V30 8369 H 771.436 -1.754 -6.22771 0
M  V30 8370 N 771.568 1.50203 -0.477153 0
M  V30 8371 C 772.516 2.30278 0.327826 0
M  V30 8372 C 773.51 1.37831 0.984839 0
M  V30 8373 O 774.716 1.54994 0.915251 0
M  V30 8374 H 771.091 0.741612 0.124564 0
M  V30 8375 H 773.062 2.96124 -0.367853 0
M  V30 8376 C 771.811 3.18548 1.39365 0
M  V30 8377 H 771.134 3.89596 0.897475 0
M  V30 8378 H 772.574 3.77561 1.92934 0
M  V30 8379 C 771.033 2.36548 2.39889 0
M  V30 8380 O 771.563 2.05282 3.45286 0
M  V30 8381 N 769.769 1.99015 2.11758 0
M  V30 8382 H 769.316 2.24641 1.26071 0
M  V30 8383 H 769.274 1.44454 2.7925 0
M  V30 8384 N 773.046 0.209999 1.56195 0
M  V30 8385 C 773.994 -0.721416 2.2113 0
M  V30 8386 C 774.988 -1.20852 1.18706 0
M  V30 8387 O 776.194 -1.16968 1.36815 0
M  V30 8388 H 772.569 -0.251033 0.708863 0
M  V30 8389 H 774.54 -0.150193 2.98022 0
M  V30 8390 C 773.289 -1.92392 2.89621 0
M  V30 8391 H 772.612 -1.5582 3.68185 0
M  V30 8392 H 774.052 -2.55367 3.38473 0
M  V30 8393 C 772.511 -2.77208 1.91461 0
M  V30 8394 O 773.041 -3.75603 1.42426 0
M  V30 8395 N 771.247 -2.43006 1.59363 0
M  V30 8396 H 770.794 -1.63047 1.99433 0
M  V30 8397 H 770.752 -3.00036 0.939449 0
M  V30 8398 N 774.524 -1.57472 -0.0634922 0
M  V30 8399 C 775.456 -2.00999 -1.10145 0
M  V30 8400 C 776.469 -0.917219 -1.34503 0
M  V30 8401 O 777.658 -1.19501 -1.32596 0
M  V30 8402 C 774.758 -2.34089 -2.45063 0
M  V30 8403 C 773.931 -3.65317 -2.40546 0
M  V30 8404 C 772.99 -3.85982 -3.57637 0
M  V30 8405 O 772.016 -4.5747 -3.38689 0
M  V30 8406 N 773.218 -3.28971 -4.78287 0
M  V30 8407 H 775.983 -2.90656 -0.730714 0
M  V30 8408 H 773.544 -1.59926 -0.252017 0
M  V30 8409 H 775.536 -2.4508 -3.22053 0
M  V30 8410 H 774.106 -1.50279 -2.74107 0
M  V30 8411 H 773.326 -3.65003 -1.48885 0
M  V30 8412 H 774.614 -4.51468 -2.34636 0
M  V30 8413 H 774.012 -2.70962 -4.96584 0
M  V30 8414 H 772.569 -3.45398 -5.5276 0
M  V30 8415 N 776.003 0.335068 -1.53997 0
M  V30 8416 C 776.936 1.43533 -1.77407 0
M  V30 8417 C 777.914 1.5017 -0.623529 0
M  V30 8418 O 779.098 1.67756 -0.85966 0
M  V30 8419 C 776.225 2.81712 -1.88033 0
M  V30 8420 C 775.271 2.92661 -3.10245 0
M  V30 8421 S 776.104 2.58254 -4.69111 0
M  V30 8422 C 777.26 3.98525 -4.82627 0
M  V30 8423 H 777.493 1.2346 -2.70453 0
M  V30 8424 H 775.026 0.531234 -1.44973 0
M  V30 8425 H 776.984 3.61314 -1.9484 0
M  V30 8426 H 775.645 2.99075 -0.959849 0
M  V30 8427 H 774.838 3.93931 -3.14379 0
M  V30 8428 H 774.44 2.21017 -3.01708 0
M  V30 8429 H 776.732 4.93146 -4.64557 0
M  V30 8430 H 777.675 3.9938 -5.84723 0
M  V30 8431 H 778.083 3.86945 -4.11016 0
M  V30 8432 N 777.481 1.45874 0.596531 0
M  V30 8433 C 778.411 1.5824 1.71705 0
M  V30 8434 C 779.392 0.433366 1.64487 0
M  V30 8435 O 780.577 0.657895 1.82717 0
M  V30 8436 C 777.707 1.55927 3.10329 0
M  V30 8437 C 776.661 2.69659 3.32367 0
M  V30 8438 C 775.987 2.52403 4.71377 0
M  V30 8439 C 777.287 4.11591 3.21544 0
M  V30 8440 H 778.981 2.52035 1.61613 0
M  V30 8441 H 776.527 1.21297 0.776082 0
M  V30 8442 H 778.48 1.63173 3.88526 0
M  V30 8443 H 777.204 0.586674 3.21288 0
M  V30 8444 H 775.863 2.61859 2.56564 0
M  V30 8445 H 775.511 1.53258 4.79083 0
M  V30 8446 H 775.211 3.28679 4.87077 0
M  V30 8447 H 776.735 2.6152 5.5176 0
M  V30 8448 H 778.149 4.20576 3.89601 0
M  V30 8449 H 776.546 4.88344 3.4877 0
M  V30 8450 H 777.616 4.32719 2.1882 0
M  V30 8451 N 778.959 -0.83999 1.33349 0
M  V30 8452 C 779.922 -1.93128 1.23426 0
M  V30 8453 C 780.922 -1.60065 0.153599 0
M  V30 8454 O 782.112 -1.69425 0.405049 0
M  V30 8455 C 779.244 -3.28761 0.901622 0
M  V30 8456 H 780.437 -2.03352 2.20427 0
M  V30 8457 H 777.99 -1.03194 1.17391 0
M  V30 8458 H 778.725 -3.24233 -0.0659337 0
M  V30 8459 H 778.51 -3.54138 1.68311 0
M  V30 8460 H 780 -4.08714 0.856913 0
M  V30 8461 N 780.437 -1.16799 -1.0581 0
M  V30 8462 C 781.4 -0.881396 -2.11575 0
M  V30 8463 C 782.4 0.12574 -1.60308 0
M  V30 8464 O 783.59 -0.105716 -1.73879 0
M  V30 8465 C 780.722 -0.319037 -3.39404 0
M  V30 8466 H 781.915 -1.81907 -2.38432 0
M  V30 8467 H 779.468 -0.977597 -1.21954 0
M  V30 8468 H 780.203 0.626082 -3.18199 0
M  V30 8469 H 779.988 -1.04481 -3.77923 0
M  V30 8470 H 781.478 -0.13663 -4.17376 0
M  V30 8471 N 781.915 1.24427 -0.967243 0
M  V30 8472 C 782.825 2.29109 -0.504592 0
M  V30 8473 C 783.841 1.68495 0.434224 0
M  V30 8474 O 785.017 1.99041 0.307379 0
M  V30 8475 C 782.082 3.46133 0.198273 0
M  V30 8476 C 781.143 4.22149 -0.780313 0
M  V30 8477 C 780.376 5.33585 -0.110896 0
M  V30 8478 O 780.599 5.59676 1.10088 0
M  V30 8479 O 779.533 5.96522 -0.802823 0
M  V30 8480 H 783.359 2.708 -1.37482 0
M  V30 8481 H 780.944 1.30111 -0.73426 0
M  V30 8482 H 782.826 4.17205 0.593124 0
M  V30 8483 H 781.501 3.0642 1.04347 0
M  V30 8484 H 780.408 3.53454 -1.22561 0
M  V30 8485 H 781.741 4.65677 -1.59392 0
M  V30 8486 N 783.393 0.737304 1.3929 0
M  V30 8487 C 784.804 0.355966 1.83275 0
M  V30 8488 C 785.155 -1.11295 1.6158 0
M  V30 8489 O 784.28 -1.85871 1.10819 0
M  V30 8490 C 784.875 0.63931 3.32713 0
M  V30 8491 C 783.434 0.31144 3.75109 0
M  V30 8492 C 782.581 0.900765 2.62262 0
M  V30 8493 H 785.532 0.934763 1.28249 0
M  V30 8494 H 785.553 -0.0881293 3.80398 0
M  V30 8495 H 785.065 1.70847 3.48472 0
M  V30 8496 H 783.166 -0.751791 3.64937 0
M  V30 8497 H 783.279 0.795611 4.72448 0
M  V30 8498 H 781.643 0.327239 2.52589 0
M  V30 8499 H 782.426 1.97463 2.80826 0
M  V30 8500 N 784.871 -1.49948 0.485112 0
M  V30 8501 C 785.801 -2.31675 -0.291364 0
M  V30 8502 C 786.782 -1.39216 -0.977383 0
M  V30 8503 O 787.967 -1.68133 -0.971855 0
M  V30 8504 C 785.097 -3.19326 -1.36558 0
M  V30 8505 C 784.051 -4.2045 -0.800359 0
M  V30 8506 C 783.377 -4.96931 -1.97391 0
M  V30 8507 C 784.677 -5.21925 0.197867 0
M  V30 8508 H 786.371 -2.96839 0.390775 0
M  V30 8509 H 783.917 -1.42749 0.189375 0
M  V30 8510 H 785.87 -3.75304 -1.91638 0
M  V30 8511 H 784.594 -2.52074 -2.07668 0
M  V30 8512 H 783.253 -3.65594 -0.271428 0
M  V30 8513 H 782.901 -4.26141 -2.67232 0
M  V30 8514 H 782.601 -5.65344 -1.60187 0
M  V30 8515 H 784.125 -5.55749 -2.52935 0
M  V30 8516 H 785.539 -5.72691 -0.264239 0
M  V30 8517 H 783.936 -5.98138 0.484908 0
M  V30 8518 H 785.006 -4.71809 1.11912 0
M  V30 8519 N 786.349 -0.21828 -1.56081 0
M  V30 8520 C 787.279 0.687922 -2.23136 0
M  V30 8521 C 788.26 1.20357 -1.202 0
M  V30 8522 O 789.445 1.24817 -1.48776 0
M  V30 8523 C 786.575 1.89762 -2.90874 0
M  V30 8524 C 785.529 1.51595 -4.00254 0
M  V30 8525 C 784.855 2.80415 -4.55271 0
M  V30 8526 C 786.155 0.708404 -5.17474 0
M  V30 8527 H 787.849 0.128854 -2.99123 0
M  V30 8528 H 785.395 0.0605354 -1.43873 0
M  V30 8529 H 787.348 2.53699 -3.36474 0
M  V30 8530 H 786.072 2.4816 -2.1233 0
M  V30 8531 H 784.731 0.900058 -3.55379 0
M  V30 8532 H 784.379 3.36951 -3.73461 0
M  V30 8533 H 784.079 2.55613 -5.2909 0
M  V30 8534 H 785.603 3.453 -5.03587 0
M  V30 8535 H 787.017 1.2514 -5.59476 0
M  V30 8536 H 785.414 0.557593 -5.97504 0
M  V30 8537 H 786.484 -0.285679 -4.84058 0
M  V30 8538 N 787.827 1.57504 0.0551401 0
M  V30 8539 C 789.052 1.92682 0.767352 0
M  V30 8540 C 789.477 0.81614 1.69472 0
M  V30 8541 O 788.835 -0.229989 1.79835 0
M  V30 8542 C 788.883 3.26866 1.52286 0
M  V30 8543 O 787.987 3.17274 2.63459 0
M  V30 8544 H 787.328 0.630502 0.208238 0
M  V30 8545 H 789.858 2.04592 0.0184026 0
M  V30 8546 H 789.868 3.61138 1.8985 0
M  V30 8547 H 788.543 4.07276 0.842541 0
M  V30 8548 H 787.12 2.94589 2.2863 0
M  V30 8549 N 789.305 -0.326896 1.54172 0
M  V30 8550 C 790.255 -1.40319 1.79707 0
M  V30 8551 C 791.239 -1.47056 0.652938 0
M  V30 8552 O 792.431 -1.51645 0.91284 0
M  V30 8553 C 789.56 -2.77222 2.02491 0
M  V30 8554 C 788.646 -2.74811 3.23016 0
M  V30 8555 N 789.037 -2.42022 4.44138 0
M  V30 8556 C 787.335 -3.05943 3.24522 0
M  V30 8557 C 788.036 -2.48263 5.26061 0
M  V30 8558 N 787.012 -2.84567 4.63166 0
M  V30 8559 H 790.814 -1.13892 2.70935 0
M  V30 8560 H 788.328 -0.53536 1.53322 0
M  V30 8561 H 790.325 -3.54793 2.18923 0
M  V30 8562 H 788.985 -3.04582 1.12515 0
M  V30 8563 H 789.996 -2.14926 4.71197 0
M  V30 8564 H 786.673 -3.38367 2.44569 0
M  V30 8565 H 788.063 -2.2593 6.32776 0
M  V30 8566 N 790.784 -1.46188 -0.588786 0
M  V30 8567 C 791.717 -1.508 -1.71274 0
M  V30 8568 C 792.695 -0.362635 -1.58505 0
M  V30 8569 O 793.879 -0.565899 -1.79805 0
M  V30 8570 C 791.006 -1.38082 -3.09275 0
M  V30 8571 C 790.052 -2.56723 -3.40581 0
M  V30 8572 S 790.885 -4.1911 -3.33327 0
M  V30 8573 C 792.041 -4.08891 -4.73877 0
M  V30 8574 H 792.274 -2.45895 -1.67102 0
M  V30 8575 H 789.807 -1.34 -0.767025 0
M  V30 8576 H 791.765 -1.31432 -3.88891 0
M  V30 8577 H 790.426 -0.444259 -3.10942 0
M  V30 8578 H 789.619 -2.43801 -4.41109 0
M  V30 8579 H 789.221 -2.60332 -2.68521 0
M  V30 8580 H 791.513 -3.75196 -5.64123 0
M  V30 8581 H 792.456 -5.09395 -4.91856 0
M  V30 8582 H 792.864 -3.40239 -4.50441 0
M  V30 8583 N 792.262 0.832906 -1.33792 0
M  V30 8584 C 793.194 1.95042 -1.2038 0
M  V30 8585 C 794.207 1.62253 -0.133299 0
M  V30 8586 O 795.396 1.74315 -0.384261 0
M  V30 8587 C 792.496 3.287 -0.825215 0
M  V30 8588 C 791.669 3.89581 -1.98861 0
M  V30 8589 C 790.728 5.01602 -1.59003 0
M  V30 8590 O 789.754 5.20431 -2.30522 0
M  V30 8591 N 790.956 5.78356 -0.498446 0
M  V30 8592 H 793.721 2.07083 -2.16649 0
M  V30 8593 H 791.282 1.00896 -1.26616 0
M  V30 8594 H 793.274 4.01074 -0.540559 0
M  V30 8595 H 791.844 3.12565 0.0469796 0
M  V30 8596 H 791.064 3.09723 -2.43856 0
M  V30 8597 H 792.352 4.26989 -2.76691 0
M  V30 8598 H 791.75 5.65618 0.0963297 0
M  V30 8599 H 790.307 6.51226 -0.273485 0
M  V30 8600 N 793.74 1.17359 1.05189 0
M  V30 8601 C 794.673 0.833768 2.12423 0
M  V30 8602 C 795.651 -0.19945 1.61372 0
M  V30 8603 O 796.835 -0.080979 1.88326 0
M  V30 8604 C 793.962 0.243745 3.37822 0
M  V30 8605 C 793.008 1.25235 4.07699 0
M  V30 8606 S 793.841 2.80368 4.56239 0
M  V30 8607 C 794.997 2.22846 5.84885 0
M  V30 8608 H 795.23 1.74197 2.40921 0
M  V30 8609 H 792.763 0.998242 1.1779 0
M  V30 8610 H 794.721 -0.0901915 4.10401 0
M  V30 8611 H 793.382 -0.642396 3.07461 0
M  V30 8612 H 792.575 0.788168 4.97799 0
M  V30 8613 H 792.177 1.53194 3.41185 0
M  V30 8614 H 794.469 1.60403 6.58238 0
M  V30 8615 H 795.412 3.112 6.3605 0
M  V30 8616 H 795.82 1.66296 5.39449 0
M  V30 8617 N 795.218 -1.23913 0.973828 0
M  V30 8618 C 796.464 -1.92436 0.640026 0
M  V30 8619 C 796.797 -1.75875 -0.823512 0
M  V30 8620 O 796.072 -1.11563 -1.59323 0
M  V30 8621 C 796.355 -3.4526 1.0231 0
M  V30 8622 C 796.208 -3.70961 2.54378 0
M  V30 8623 C 797.527 -4.36495 0.562155 0
M  V30 8624 H 794.646 -0.698868 0.233992 0
M  V30 8625 H 797.288 -1.46163 1.21393 0
M  V30 8626 H 795.438 -3.84802 0.534751 0
M  V30 8627 H 797.11 -3.40941 3.10737 0
M  V30 8628 H 795.353 -3.15899 2.97305 0
M  V30 8629 H 796.024 -4.77912 2.76232 0
M  V30 8630 H 798.5 -4.04363 0.981333 0
M  V30 8631 H 797.376 -5.42142 0.858689 0
M  V30 8632 H 797.637 -4.38818 -0.537659 0
M  V30 8633 N 796.696 -0.74468 -1.38897 0
M  V30 8634 C 797.924 -0.307428 -2.04603 0
M  V30 8635 C 798.339 1.06115 -1.56157 0
M  V30 8636 O 797.696 1.67233 -0.730701 0
M  V30 8637 C 797.747 -0.31101 -3.6016 0
M  V30 8638 O 797.468 -1.62557 -4.06825 0
M  V30 8639 C 798.969 0.141213 -4.43075 0
M  V30 8640 H 796.189 -0.132741 -0.657739 0
M  V30 8641 H 798.733 -1.01104 -1.77759 0
M  V30 8642 H 796.888 0.343792 -3.85872 0
M  V30 8643 H 797.302 -1.54569 -5.01207 0
M  V30 8644 H 798.776 0.0875449 -5.51931 0
M  V30 8645 H 799.253 1.18782 -4.22833 0
M  V30 8646 H 799.859 -0.484383 -4.22533 0
M  V30 8647 N 798.174 1.49689 -0.493057 0
M  V30 8648 C 799.084 2.32746 0.294358 0
M  V30 8649 C 800.1 1.44117 0.975003 0
M  V30 8650 O 801.276 1.77149 0.958138 0
M  V30 8651 C 798.341 3.19358 1.34949 0
M  V30 8652 C 797.402 4.2383 0.683122 0
M  V30 8653 C 796.635 5.06303 1.68798 0
M  V30 8654 O 796.858 4.90172 2.91698 0
M  V30 8655 O 795.792 5.88826 1.24768 0
M  V30 8656 H 799.618 3.01247 -0.385254 0
M  V30 8657 H 797.203 1.47216 -0.254519 0
M  V30 8658 H 799.085 3.73037 1.96014 0
M  V30 8659 H 797.76 2.53561 2.01217 0
M  V30 8660 H 796.667 3.74086 0.0329351 0
M  V30 8661 H 798 4.9216 0.0630192 0
M  V30 8662 N 799.652 0.226554 1.55963 0
M  V30 8663 C 800.901 -0.40417 1.97609 0
M  V30 8664 C 801.214 -1.60541 1.1174 0
M  V30 8665 O 802.42 -2.30598 1.43307 0
M  V30 8666 C 800.876 -0.770466 3.51556 0
M  V30 8667 C 800.484 0.408244 4.46136 0
M  V30 8668 C 802.228 -1.36651 4.01904 0
M  V30 8669 C 800.135 0.0192347 5.91397 0
M  V30 8670 H 799.065 -0.15478 0.737943 0
M  V30 8671 H 801.716 0.323558 1.80625 0
M  V30 8672 H 800.098 -1.55575 3.6416 0
M  V30 8673 H 801.272 1.18575 4.45283 0
M  V30 8674 H 799.587 0.917859 4.06158 0
M  V30 8675 H 802.184 -1.67055 5.07934 0
M  V30 8676 H 802.527 -2.28403 3.48049 0
M  V30 8677 H 803.06 -0.644556 3.92543 0
M  V30 8678 H 799.799 0.90336 6.49245 0
M  V30 8679 H 799.319 -0.722485 5.95433 0
M  V30 8680 H 800.998 -0.405711 6.45727 0
M  V30 8681 N 801.13 -1.57531 -0.0467866 0
M  V30 8682 C 802.376 -1.8873 -0.742218 0
M  V30 8683 C 802.709 -0.822084 -1.75941 0
M  V30 8684 O 801.984 0.164922 -1.938 0
M  V30 8685 C 802.267 -3.30586 -1.42776 0
M  V30 8686 C 802.12 -4.47785 -0.425285 0
M  V30 8687 C 803.439 -3.71068 -2.36636 0
M  V30 8688 H 800.558 -0.686406 -0.268359 0
M  V30 8689 H 803.2 -1.89999 -0.00511341 0
M  V30 8690 H 801.35 -3.29634 -2.05605 0
M  V30 8691 H 803.022 -4.60867 0.199721 0
M  V30 8692 H 801.265 -4.33037 0.25713 0
M  V30 8693 H 801.936 -5.43884 -0.943086 0
M  V30 8694 H 804.412 -3.73273 -1.83866 0
M  V30 8695 H 803.288 -4.71165 -2.81593 0
M  V30 8696 H 803.549 -3.02355 -3.22542 0
M  V30 8697 N 802.608 0.318715 -1.54344 0
M  V30 8698 C 803.854 1.05765 -1.73037 0
M  V30 8699 C 804.187 1.87514 -0.505181 0
M  V30 8700 O 803.462 1.88021 0.497838 0
M  V30 8701 C 803.745 1.97836 -3.00887 0
M  V30 8702 C 803.598 1.19384 -4.33668 0
M  V30 8703 C 804.917 2.97285 -3.24514 0
M  V30 8704 H 802.036 0.383104 -0.629603 0
M  V30 8705 H 804.678 0.333864 -1.87044 0
M  V30 8706 H 802.828 2.59552 -2.89076 0
M  V30 8707 H 804.5 0.600906 -4.57369 0
M  V30 8708 H 802.743 0.496198 -4.30953 0
M  V30 8709 H 803.414 1.87014 -5.19355 0
M  V30 8710 H 805.89 2.45693 -3.35819 0
M  V30 8711 H 804.766 3.58887 -4.15321 0
M  V30 8712 H 805.027 3.70003 -2.41971 0
M  V30 8713 N 804.086 1.46499 0.581025 0
M  V30 8714 C 805.497 1.4604 1.16315 0
M  V30 8715 C 805.848 0.202154 1.95156 0
M  V30 8716 O 804.973 -0.694638 2.04948 0
M  V30 8717 C 805.568 2.64593 2.11604 0
M  V30 8718 C 804.127 2.6717 2.65136 0
M  V30 8719 C 803.274 2.38753 1.4104 0
M  V30 8720 H 806.225 1.54354 0.368871 0
M  V30 8721 H 806.246 2.40207 2.95095 0
M  V30 8722 H 805.758 3.56154 1.54194 0
M  V30 8723 H 803.859 1.79685 3.26411 0
M  V30 8724 H 803.972 3.67182 3.07757 0
M  V30 8725 H 802.336 1.88845 1.70908 0
M  V30 8726 H 803.119 3.32493 0.854588 0
M  V30 8727 N 805.565 -0.825799 1.34232 0
M  V30 8728 C 806.793 -1.61363 1.29497 0
M  V30 8729 C 807.208 -1.88341 -0.131536 0
M  V30 8730 O 806.565 -1.47279 -1.07773 0
M  V30 8731 C 806.616 -2.95623 2.08061 0
M  V30 8732 O 806.337 -2.69824 3.45147 0
M  V30 8733 C 807.838 -3.90032 2.10688 0
M  V30 8734 H 805.058 -0.501676 0.445603 0
M  V30 8735 H 807.602 -1.02767 1.76803 0
M  V30 8736 H 805.757 -3.50785 1.64404 0
M  V30 8737 H 806.171 -3.55412 3.85723 0
M  V30 8738 H 807.645 -4.81411 2.70087 0
M  V30 8739 H 808.122 -4.25188 1.10052 0
M  V30 8740 H 808.728 -3.40807 2.54422 0
M  V30 8741 N 807.043 -1.17915 -1.04565 0
M  V30 8742 C 808.289 -0.972863 -1.77942 0
M  V30 8743 C 808.622 0.496753 -1.87739 0
M  V30 8744 O 807.897 1.3688 -1.38181 0
M  V30 8745 C 808.18 -1.62227 -3.21488 0
M  V30 8746 C 808.033 -3.16441 -3.19664 0
M  V30 8747 C 809.352 -1.33137 -4.19479 0
M  V30 8748 H 806.471 -0.354843 -0.645953 0
M  V30 8749 H 809.113 -1.45508 -1.22178 0
M  V30 8750 H 807.263 -1.21224 -3.69103 0
M  V30 8751 H 808.935 -3.66544 -2.80077 0
M  V30 8752 H 807.178 -3.48863 -2.57832 0
M  V30 8753 H 807.849 -3.57012 -4.21006 0
M  V30 8754 H 810.325 -1.68654 -3.80388 0
M  V30 8755 H 809.201 -1.81151 -5.18146 0
M  V30 8756 H 809.462 -0.253319 -4.41374 0
M  V30 8757 N 808.521 1.23394 -0.980386 0
M  V30 8758 C 809.761 1.93543 -0.657288 0
M  V30 8759 C 810.125 1.74791 0.794477 0
M  V30 8760 O 811.326 2.39089 1.2284 0
M  V30 8761 C 809.597 3.42025 -1.03701 0
M  V30 8762 S 811.156 4.30871 -0.830379 0
M  V30 8763 H 807.974 0.669012 -0.240717 0
M  V30 8764 H 810.576 1.49478 -1.26002 0
M  V30 8765 H 809.28 3.53183 -2.09022 0
M  V30 8766 H 808.811 3.91091 -0.425559 0
M  V30 8767 H 810.826 4.95377 0.285719 0
M  V30 8768 N 809.999 0.752036 1.385 0
M  V30 8769 C 811.224 0.316993 2.04963 0
M  V30 8770 C 811.649 -1.04582 1.56346 0
M  V30 8771 O 811.007 -1.66616 0.714755 0
M  V30 8772 C 811.055 0.347235 3.58924 0
M  V30 8773 O 810.159 -0.659296 4.07096 0
M  V30 8774 H 809.5 0.140652 0.648932 0
M  V30 8775 H 812.03 1.02272 1.77205 0
M  V30 8776 H 812.04 0.19757 4.07521 0
M  V30 8777 H 810.715 1.34157 3.93668 0
M  V30 8778 H 809.292 -0.474371 3.6987 0
M  V30 8779 N 811.477 -1.49425 0.500989 0
M  V30 8780 C 812.407 -2.31971 -0.266775 0
M  V30 8781 C 813.388 -1.40245 -0.962563 0
M  V30 8782 O 814.573 -1.69154 -0.953968 0
M  V30 8783 C 811.703 -3.20757 -1.33163 0
M  V30 8784 C 810.657 -4.21275 -0.75572 0
M  V30 8785 C 809.983 -4.98997 -1.92109 0
M  V30 8786 C 811.283 -5.21686 0.253213 0
M  V30 8787 H 812.977 -2.96408 0.422237 0
M  V30 8788 H 810.523 -1.4254 0.204505 0
M  V30 8789 H 812.476 -3.77315 -1.87646 0
M  V30 8790 H 811.2 -2.54263 -2.04983 0
M  V30 8791 H 809.859 -3.65861 -0.232637 0
M  V30 8792 H 809.507 -4.28951 -2.62698 0
M  V30 8793 H 809.207 -5.67011 -1.54182 0
M  V30 8794 H 810.731 -5.584 -2.47026 0
M  V30 8795 H 812.145 -5.72939 -0.203483 0
M  V30 8796 H 810.542 -5.9759 0.548322 0
M  V30 8797 H 811.612 -4.70596 1.16909 0
M  V30 8798 N 812.955 -0.234822 -1.55841 0
M  V30 8799 C 814.195 0.394944 -2.00548 0
M  V30 8800 C 814.559 1.56002 -1.11926 0
M  V30 8801 O 815.76 2.2567 -1.46037 0
M  V30 8802 C 814.031 0.805896 -3.48195 0
M  V30 8803 S 815.59 1.4279 -4.14918 0
M  V30 8804 H 812.408 0.124802 -0.699961 0
M  V30 8805 H 815.01 -0.347224 -1.92392 0
M  V30 8806 H 813.714 -0.0515271 -4.10368 0
M  V30 8807 H 813.245 1.58055 -3.60253 0
M  V30 8808 H 815.26 2.71699 -4.15204 0
M  V30 8809 N 814.433 1.57553 0.0384317 0
M  V30 8810 C 815.679 1.89121 0.732199 0
M  V30 8811 C 816.012 0.831404 1.75503 0
M  V30 8812 O 815.287 -0.154642 1.93884 0
M  V30 8813 C 815.57 3.31338 1.41021 0
M  V30 8814 C 815.423 4.48004 0.401532 0
M  V30 8815 C 816.742 3.72318 2.34665 0
M  V30 8816 H 813.861 0.687819 0.264715 0
M  V30 8817 H 816.503 1.89999 -0.00496279 0
M  V30 8818 H 814.653 3.3072 2.03854 0
M  V30 8819 H 816.325 4.60755 -0.224159 0
M  V30 8820 H 814.568 4.32895 -0.280092 0
M  V30 8821 H 815.239 5.44377 0.91423 0
M  V30 8822 H 817.715 3.74243 1.81883 0
M  V30 8823 H 816.591 4.72652 2.7909 0
M  V30 8824 H 816.852 3.04062 3.20934 0
M  V30 8825 N 815.911 -0.310526 1.54511 0
M  V30 8826 C 816.841 -1.38757 1.878 0
M  V30 8827 C 817.822 -1.53353 0.735991 0
M  V30 8828 O 819.007 -1.67018 0.990887 0
M  V30 8829 C 816.137 -2.75327 2.11689 0
M  V30 8830 C 815.091 -2.75506 3.27537 0
M  V30 8831 C 814.417 -4.15275 3.36824 0
M  V30 8832 C 815.717 -2.38093 4.64875 0
M  V30 8833 H 817.411 -1.11146 2.78005 0
M  V30 8834 H 814.957 -0.533232 1.33763 0
M  V30 8835 H 816.91 -3.50752 2.33562 0
M  V30 8836 H 815.634 -3.04443 1.18245 0
M  V30 8837 H 814.293 -2.02538 3.05572 0
M  V30 8838 H 813.941 -4.41553 2.40915 0
M  V30 8839 H 813.641 -4.16299 4.14692 0
M  V30 8840 H 815.165 -4.92493 3.60947 0
M  V30 8841 H 816.579 -3.03232 4.86542 0
M  V30 8842 H 814.976 -2.50345 5.45387 0
M  V30 8843 H 816.046 -1.33227 4.66239 0
M  V30 8844 N 817.389 -1.46805 -0.573248 0
M  V30 8845 C 818.638 -1.51868 -1.32736 0
M  V30 8846 C 818.951 -0.178765 -1.94781 0
M  V30 8847 O 820.157 -0.107272 -2.71288 0
M  V30 8848 C 818.613 -2.67641 -2.40616 0
M  V30 8849 C 818.221 -4.08094 -1.84832 0
M  V30 8850 C 819.965 -2.81984 -3.17309 0
M  V30 8851 C 817.872 -5.15193 -2.90397 0
M  V30 8852 H 816.802 -0.56523 -0.49903 0
M  V30 8853 H 819.453 -1.7304 -0.610695 0
M  V30 8854 H 817.835 -2.39818 -3.15124 0
M  V30 8855 H 819.009 -4.45751 -1.16803 0
M  V30 8856 H 817.324 -3.985 -1.20775 0
M  V30 8857 H 819.921 -3.59166 -3.96111 0
M  V30 8858 H 820.264 -1.89842 -3.70494 0
M  V30 8859 H 820.797 -3.095 -2.4991 0
M  V30 8860 H 817.536 -6.09158 -2.42088 0
M  V30 8861 H 817.056 -4.82071 -3.56886 0
M  V30 8862 H 818.735 -5.41448 -3.54179 0
M  V30 8863 N 818.867 0.818669 -1.34668 0
M  V30 8864 C 820.095 1.60674 -1.30351 0
M  V30 8865 C 820.51 1.88408 0.121546 0
M  V30 8866 O 819.867 1.47849 1.06991 0
M  V30 8867 C 819.918 2.94516 -2.09625 0
M  V30 8868 O 819.639 2.6799 -3.46573 0
M  V30 8869 C 821.14 3.8891 -2.12754 0
M  V30 8870 H 818.36 0.499306 -0.448258 0
M  V30 8871 H 820.904 1.01828 -1.77345 0
M  V30 8872 H 819.059 3.49908 -1.66262 0
M  V30 8873 H 819.473 3.53361 -3.87603 0
M  V30 8874 H 820.947 4.79972 -2.72637 0
M  V30 8875 H 821.424 4.24599 -1.12306 0
M  V30 8876 H 822.03 3.39453 -2.56225 0
M  V30 8877 N 820.346 1.18468 1.03938 0
M  V30 8878 C 821.309 0.914944 2.10146 0
M  V30 8879 C 822.309 -0.10022 1.60487 0
M  V30 8880 O 823.499 0.133365 1.73689 0
M  V30 8881 C 820.631 0.372993 3.38853 0
M  V30 8882 H 821.824 1.85677 2.35508 0
M  V30 8883 H 819.377 0.996876 1.20383 0
M  V30 8884 H 820.112 -0.57538 3.19155 0
M  V30 8885 H 819.897 1.1048 3.76213 0
M  V30 8886 H 821.387 0.203014 4.17106 0
M  V30 8887 N 821.824 -1.22873 0.986916 0
M  V30 8888 C 823.07 -1.91746 0.660401 0
M  V30 8889 C 823.403 -1.76738 -0.804812 0
M  V30 8890 O 822.678 -1.13246 -1.58131 0
M  V30 8891 C 822.961 -3.44156 1.05966 0
M  V30 8892 C 822.814 -3.68242 2.58298 0
M  V30 8893 C 824.133 -4.35874 0.60842 0
M  V30 8894 H 821.252 -0.696347 0.241391 0
M  V30 8895 H 823.894 -1.44867 1.22937 0
M  V30 8896 H 822.044 -3.84213 0.575534 0
M  V30 8897 H 823.716 -3.37626 3.14335 0
M  V30 8898 H 821.959 -3.12728 3.00638 0
M  V30 8899 H 822.63 -4.74956 2.81285 0
M  V30 8900 H 825.106 -4.03299 1.02417 0
M  V30 8901 H 823.982 -5.41201 0.916142 0
M  V30 8902 H 824.243 -4.39364 -0.491086 0
M  V30 8903 N 823.302 -0.75937 -1.38099 0
M  V30 8904 C 824.232 -0.151077 -2.33011 0
M  V30 8905 C 825.213 0.697099 -1.5516 0
M  V30 8906 O 826.398 0.637101 -1.83452 0
M  V30 8907 C 823.528 0.738423 -3.39359 0
M  V30 8908 C 822.482 -0.0074741 -4.27999 0
M  V30 8909 C 821.808 1.00066 -5.25253 0
M  V30 8910 C 823.108 -1.17926 -5.08813 0
M  V30 8911 H 824.802 -0.943933 -2.84131 0
M  V30 8912 H 822.348 -0.455362 -1.36611 0
M  V30 8913 H 824.301 1.17369 -4.04725 0
M  V30 8914 H 823.025 1.56366 -2.86735 0
M  V30 8915 H 821.684 -0.423379 -3.64147 0
M  V30 8916 H 821.332 1.82012 -4.68914 0
M  V30 8917 H 821.032 0.506199 -5.85416 0
M  V30 8918 H 822.556 1.43512 -5.93495 0
M  V30 8919 H 823.97 -0.821262 -5.67387 0
M  V30 8920 H 822.367 -1.60497 -5.78239 0
M  V30 8921 H 823.437 -1.98938 -4.42212 0
M  V30 8922 N 824.78 1.49157 -0.508906 0
M  V30 8923 C 825.71 2.32109 0.254469 0
M  V30 8924 C 826.691 1.40754 0.955111 0
M  V30 8925 O 827.876 1.69658 0.944983 0
M  V30 8926 C 825.006 3.21458 1.3146 0
M  V30 8927 C 823.96 4.2167 0.733368 0
M  V30 8928 C 823.286 5.00009 1.8946 0
M  V30 8929 C 824.586 5.21544 -0.280875 0
M  V30 8930 H 826.28 2.9618 -0.43795 0
M  V30 8931 H 823.826 1.4243 -0.212062 0
M  V30 8932 H 825.779 3.78305 1.85643 0
M  V30 8933 H 824.503 2.55346 2.03632 0
M  V30 8934 H 823.162 3.65979 0.213231 0
M  V30 8935 H 822.81 4.30338 2.60419 0
M  V30 8936 H 822.51 5.67821 1.51173 0
M  V30 8937 H 824.034 5.59702 2.44061 0
M  V30 8938 H 825.448 5.73039 0.173095 0
M  V30 8939 H 823.845 5.97291 -0.580006 0
M  V30 8940 H 824.915 4.69969 -1.19404 0
M  V30 8941 N 826.258 0.243083 1.55714 0
M  V30 8942 C 827.191 -0.698623 2.17243 0
M  V30 8943 C 828.169 -1.1756 1.12331 0
M  V30 8944 O 829.353 -1.25444 1.40699 0
M  V30 8945 C 826.48 -1.94901 2.77004 0
M  V30 8946 C 825.526 -1.61022 3.94936 0
M  V30 8947 S 826.359 -0.716173 5.30689 0
M  V30 8948 C 827.515 -1.97565 5.93901 0
M  V30 8949 H 827.748 -0.175724 2.9678 0
M  V30 8950 H 825.281 0.0275727 1.54375 0
M  V30 8951 H 827.239 -2.66687 3.12071 0
M  V30 8952 H 825.9 -2.44304 1.9742 0
M  V30 8953 H 825.093 -2.5398 4.35328 0
M  V30 8954 H 824.695 -0.972829 3.61126 0
M  V30 8955 H 826.987 -2.92333 6.11186 0
M  V30 8956 H 827.93 -1.61528 6.8943 0
M  V30 8957 H 828.338 -2.126 5.22935 0
M  V30 8958 N 827.736 -1.57571 -0.0300757 0
M  V30 8959 C 828.666 -2.0953 -1.03051 0
M  V30 8960 C 829.647 -0.99761 -1.37774 0
M  V30 8961 O 830.832 -1.27279 -1.46676 0
M  V30 8962 C 827.962 -2.57385 -2.33174 0
M  V30 8963 C 826.916 -3.71409 -2.12696 0
M  V30 8964 C 826.242 -4.05467 -3.4857 0
M  V30 8965 C 827.542 -4.99877 -1.51396 0
M  V30 8966 H 829.236 -2.93367 -0.597999 0
M  V30 8967 H 826.782 -1.41127 -0.286203 0
M  V30 8968 H 828.735 -2.92355 -3.03491 0
M  V30 8969 H 827.459 -1.70629 -2.78484 0
M  V30 8970 H 826.118 -3.36786 -1.44813 0
M  V30 8971 H 825.766 -3.15779 -3.91526 0
M  V30 8972 H 825.466 -4.82269 -3.35694 0
M  V30 8973 H 826.99 -4.4297 -4.2025 0
M  V30 8974 H 828.404 -5.3281 -2.11629 0
M  V30 8975 H 826.801 -5.81283 -1.49098 0
M  V30 8976 H 827.871 -4.82522 -0.479676 0
M  V30 8977 N 829.214 0.302327 -1.54673 0
M  V30 8978 C 830.144 1.37759 -1.88533 0
M  V30 8979 C 831.125 1.52961 -0.744113 0
M  V30 8980 O 832.31 1.6649 -0.999731 0
M  V30 8981 C 829.44 2.74201 -2.13146 0
M  V30 8982 C 828.394 2.73765 -3.28993 0
M  V30 8983 C 827.72 4.13483 -3.39022 0
M  V30 8984 C 829.02 2.35624 -4.66132 0
M  V30 8985 H 830.714 1.0967 -2.78591 0
M  V30 8986 H 828.26 0.52613 -1.34044 0
M  V30 8987 H 830.213 3.49508 -2.35419 0
M  V30 8988 H 828.937 3.03812 -1.19858 0
M  V30 8989 H 827.596 2.00914 -3.06642 0
M  V30 8990 H 827.244 4.40269 -2.43253 0
M  V30 8991 H 826.944 4.14093 -4.16894 0
M  V30 8992 H 828.468 4.90572 -3.63553 0
M  V30 8993 H 829.882 3.00647 -4.88143 0
M  V30 8994 H 828.279 2.47449 -5.46707 0
M  V30 8995 H 829.349 1.30753 -4.66939 0
M  V30 8996 N 830.692 1.47107 0.565454 0
M  V30 8997 C 831.622 1.61846 1.68309 0
M  V30 8998 C 832.603 0.468159 1.63531 0
M  V30 8999 O 833.788 0.696504 1.8128 0
M  V30 9000 C 830.918 1.62474 3.06952 0
M  V30 9001 C 829.872 2.76649 3.26572 0
M  V30 9002 C 829.198 2.62345 4.65917 0
M  V30 9003 C 830.498 4.18319 3.12741 0
M  V30 9004 H 832.192 2.55407 1.5623 0
M  V30 9005 H 829.738 1.22916 0.750179 0
M  V30 9006 H 831.691 1.71378 3.84977 0
M  V30 9007 H 830.415 0.654692 3.19971 0
M  V30 9008 H 829.074 2.67242 2.50952 0
M  V30 9009 H 828.722 1.63386 4.75725 0
M  V30 9010 H 828.422 3.38936 4.79996 0
M  V30 9011 H 829.946 2.73165 5.46089 0
M  V30 9012 H 831.36 4.28745 3.80593 0
M  V30 9013 H 829.757 4.95632 3.38333 0
M  V30 9014 H 830.827 4.37263 2.09592 0
M  V30 9015 N 832.17 -0.811516 1.35101 0
M  V30 9016 C 833.586 -1.10634 1.15031 0
M  V30 9017 C 833.786 -2.01459 -0.0405379 0
M  V30 9018 O 832.842 -2.42235 -0.712635 0
M  V30 9019 C 834.155 -1.74207 2.45097 0
M  V30 9020 C 835.703 -1.8665 2.51258 0
M  V30 9021 C 836.178 -2.53638 3.81355 0
M  V30 9022 N 837.669 -2.61128 3.82579 0
M  V30 9023 C 838.404 -3.13717 4.79968 0
M  V30 9024 N 837.9 -3.66782 5.87744 0
M  V30 9025 N 839.693 -3.12224 4.67411 0
M  V30 9026 H 831.844 -0.207641 2.11383 0
M  V30 9027 H 834.107 -0.154697 0.935293 0
M  V30 9028 H 833.813 -1.14936 3.32389 0
M  V30 9029 H 833.687 -2.73958 2.59281 0
M  V30 9030 H 836.074 -2.45066 1.64398 0
M  V30 9031 H 836.155 -0.857678 2.40993 0
M  V30 9032 H 835.799 -1.95873 4.68611 0
M  V30 9033 H 835.729 -3.55047 3.88907 0
M  V30 9034 H 838.22 -2.23527 3.04703 0
M  V30 9035 H 838.533 -4.05194 6.58056 0
M  V30 9036 H 836.878 -3.64994 5.91443 0
M  V30 9037 H 840.069 -2.70042 3.82354 0
M  V30 9038 H 840.242 -3.52903 5.43474 0
M  V30 9039 N 833.648 -1.19017 -1.03309 0
M  V30 9040 C 835.064 -0.941483 -1.28873 0
M  V30 9041 C 835.264 0.388587 -1.97718 0
M  V30 9042 O 834.32 1.12111 -2.26246 0
M  V30 9043 C 835.633 -2.11249 -2.13996 0
M  V30 9044 C 837.181 -2.15164 -2.27318 0
M  V30 9045 C 837.656 -3.31704 -3.15811 0
M  V30 9046 N 839.147 -3.31613 -3.23399 0
M  V30 9047 C 839.882 -4.18431 -3.9205 0
M  V30 9048 N 839.378 -5.15397 -4.62966 0
M  V30 9049 N 841.171 -4.06321 -3.88406 0
M  V30 9050 H 833.322 -2.04599 -0.570343 0
M  V30 9051 H 835.585 -0.894406 -0.314232 0
M  V30 9052 H 835.291 -3.07482 -1.70727 0
M  V30 9053 H 835.165 -2.07955 -3.14697 0
M  V30 9054 H 837.552 -1.19504 -2.6982 0
M  V30 9055 H 837.633 -2.22513 -1.26182 0
M  V30 9056 H 837.277 -4.2764 -2.74019 0
M  V30 9057 H 837.207 -3.21592 -4.16997 0
M  V30 9058 H 839.698 -2.6142 -2.72888 0
M  V30 9059 H 840.011 -5.78 -5.12968 0
M  V30 9060 H 838.356 -5.19349 -4.61846 0
M  V30 9061 H 841.547 -3.29849 -3.3214 0
M  V30 9062 H 841.72 -4.74196 -4.41635 0
M  V30 9063 N 835.127 1.22348 -0.993418 0
M  V30 9064 C 836.059 2.23626 -0.502404 0
M  V30 9065 C 837.072 1.57739 0.402784 0
M  V30 9066 O 838.261 1.77321 0.204835 0
M  V30 9067 C 835.361 3.37647 0.291118 0
M  V30 9068 C 834.534 4.33121 -0.610332 0
M  V30 9069 C 833.593 5.26035 0.131572 0
M  V30 9070 O 832.619 5.67145 -0.483199 0
M  V30 9071 N 833.821 5.63023 1.41371 0
M  V30 9072 H 836.586 2.66385 -1.37329 0
M  V30 9073 H 834.147 1.36653 -0.868196 0
M  V30 9074 H 836.139 3.96792 0.796107 0
M  V30 9075 H 834.709 2.93967 1.0631 0
M  V30 9076 H 833.929 3.72287 -1.29598 0
M  V30 9077 H 835.217 4.93853 -1.22422 0
M  V30 9078 H 834.615 5.31596 1.93449 0
M  V30 9079 H 833.172 6.24582 1.86388 0
M  V30 9080 N 836.605 0.766683 1.37694 0
M  V30 9081 C 837.83 0.338715 2.04615 0
M  V30 9082 C 838.255 -1.02918 1.57447 0
M  V30 9083 O 837.613 -1.65849 0.732386 0
M  V30 9084 C 837.661 0.385284 3.58536 0
M  V30 9085 O 836.765 -0.616081 4.07772 0
M  V30 9086 H 836.106 0.147527 0.647404 0
M  V30 9087 H 838.636 1.04146 1.7611 0
M  V30 9088 H 838.646 0.240782 4.07289 0
M  V30 9089 H 837.321 1.38325 3.92223 0
M  V30 9090 H 835.898 -0.435115 3.70353 0
M  V30 9091 O 838.122 -1.47474 0.658306 0
M  V30 9092 H 838.813 -1.92811 0.185369 0
M  V30 END ATOM
M  V30 BEGIN BOND
M  V30 END BOND
M  V30 END CTAB
M  END
$$$$
