drugbank_target|P62829 60S ribosomal protein L23 (DB02494; DB07374; DB08437)
 OpenBabel12092120423D

  0  0  0     0  0            999 V3000
M  V30 BEGIN CTAB
M  V30 COUNTS 2151 2165 0 0 0
M  V30 BEGIN ATOM
M  V30 1 H -0.908 1.98254 -0.117106 0
M  V30 2 N 0 1.576 0 0
M  V30 3 C 0.933 2.03868 1.02534 0
M  V30 4 C 1.911 0.928543 1.3348 0
M  V30 5 O 3.095 1.19667 1.45644 0
M  V30 6 C 0.222 2.43627 2.35294 0
M  V30 7 C -0.732 3.65373 2.2001 0
M  V30 8 S 0.101 5.13292 1.52614 0
M  V30 9 C 1.257 5.56322 2.86805 0
M  V30 10 H 1.49 2.90518 0.631377 0
M  V30 11 H -0.977 1.52953 0.210867 0
M  V30 12 H 0.981 2.67203 3.11629 0
M  V30 13 H -0.358 1.57376 2.7183 0
M  V30 14 H -1.165 3.90944 3.18086 0
M  V30 15 H -1.563 3.418 1.51819 0
M  V30 16 H 0.729 5.58782 3.83104 0
M  V30 17 H 1.672 6.56266 2.65933 0
M  V30 18 H 2.08 4.83886 2.90714 0
M  V30 19 N 1.4781 -0.272755 1.55222 0
M  V30 20 C 2.7031 -1.02683 1.80197 0
M  V30 21 C 3.1281 -1.79142 0.573551 0
M  V30 22 O 2.4861 -1.74917 -0.476849 0
M  V30 23 C 2.5341 -1.9609 3.02624 0
M  V30 24 O 1.6381 -3.04863 2.77727 0
M  V30 25 H 0.9791 -0.293557 0.595584 0
M  V30 26 H 3.5091 -0.30159 2.02365 0
M  V30 27 H 3.5191 -2.38039 3.31363 0
M  V30 28 H 2.1941 -1.39851 3.91682 0
M  V30 29 H 0.7711 -2.67228 2.60084 0
M  V30 30 N 2.9562 -1.48159 -0.537278 0
M  V30 31 C 3.9032 -1.62138 -1.64256 0
M  V30 32 C 4.8732 -0.463668 -1.59497 0
M  V30 33 O 6.0582 -0.686241 -1.78032 0
M  V30 34 C 3.1982 -1.66028 -3.02537 0
M  V30 35 C 2.3112 -2.92855 -3.17585 0
M  V30 36 C 1.4462 -2.87952 -4.46382 0
M  V30 37 C 0.4852 -4.09516 -4.54932 0
M  V30 38 N -0.3778 -4.02733 -5.75109 0
M  V30 39 H 4.4622 -2.56529 -1.51647 0
M  V30 40 H 1.9992 -1.27224 -0.738414 0
M  V30 41 H 3.9572 -1.66265 -3.82638 0
M  V30 42 H 2.5872 -0.751331 -3.13934 0
M  V30 43 H 1.6392 -3.02395 -2.30784 0
M  V30 44 H 2.9512 -3.82822 -3.19764 0
M  V30 45 H 2.1052 -2.8655 -5.34765 0
M  V30 46 H 0.8442 -1.95702 -4.46712 0
M  V30 47 H -0.1508 -4.11201 -3.64957 0
M  V30 48 H 1.0742 -5.02917 -4.56346 0
M  V30 49 H -0.9798 -3.13299 -5.76351 0
M  V30 50 H -1.0628 -4.86397 -5.78752 0
M  V30 51 H 0.2052 -4.05379 -6.65799 0
M  V30 52 N 4.4343 0.785586 -1.36625 0
M  V30 53 C 5.8503 1.08419 -1.17122 0
M  V30 54 C 6.0503 2.015 0.00208491 0
M  V30 55 O 5.1063 2.43551 0.666278 0
M  V30 56 C 6.4193 1.69498 -2.48377 0
M  V30 57 C 7.9673 1.81821 -2.54775 0
M  V30 58 C 8.4423 2.46315 -3.86126 0
M  V30 59 N 9.9333 2.53779 -3.87492 0
M  V30 60 C 10.6683 3.045 -4.85868 0
M  V30 61 N 10.1643 3.55499 -5.94637 0
M  V30 62 N 11.9573 3.03247 -4.73284 0
M  V30 63 H 4.1083 0.167264 -2.1174 0
M  V30 64 H 6.3713 0.13682 -0.938075 0
M  V30 65 H 6.0773 1.08571 -3.34522 0
M  V30 66 H 5.9513 2.6896 -2.64462 0
M  V30 67 H 8.3383 2.41884 -1.69045 0
M  V30 68 H 8.4193 0.811532 -2.42586 0
M  V30 69 H 8.0633 1.86895 -4.72263 0
M  V30 70 H 7.9933 3.47561 -3.95612 0
M  V30 71 H 10.4843 2.17672 -3.08913 0
M  V30 72 H 10.7973 3.92562 -6.65669 0
M  V30 73 H 9.1423 3.5364 -5.98301 0
M  V30 74 H 12.3333 2.62696 -3.87438 0
M  V30 75 H 12.5063 3.42467 -5.50109 0
M  V30 76 N 5.9124 1.20967 1.01018 0
M  V30 77 C 7.1604 1.02172 1.74371 0
M  V30 78 C 7.4814 -0.446414 1.89821 0
M  V30 79 O 6.7514 -1.32234 1.44537 0
M  V30 80 H 5.3314 0.375066 0.646014 0
M  V30 81 H 7.9934 1.52187 1.21758 0
M  V30 82 H 7.0894 1.48538 2.74487 0
M  V30 83 N 7.3905 -1.2043 1.01659 0
M  V30 84 C 8.8065 -1.41852 0.731442 0
M  V30 85 C 9.0065 -1.89358 -0.688898 0
M  V30 86 O 8.0625 -2.06247 -1.45666 0
M  V30 87 C 9.3755 -2.44019 1.75714 0
M  V30 88 C 10.9235 -2.57785 1.77527 0
M  V30 89 C 11.3985 -3.63194 2.79023 0
M  V30 90 N 12.8895 -3.70678 2.77763 0
M  V30 91 C 13.6245 -4.51897 3.52954 0
M  V30 92 N 13.1205 -5.36921 4.37821 0
M  V30 93 N 14.9135 -4.4643 3.41551 0
M  V30 94 H 7.0645 -0.879093 1.93354 0
M  V30 95 H 9.3275 -0.448425 0.835236 0
M  V30 96 H 9.0335 -2.1611 2.77469 0
M  V30 97 H 8.9075 -3.43007 1.56927 0
M  V30 98 H 11.2945 -2.85023 0.764569 0
M  V30 99 H 11.3755 -1.58992 2.00387 0
M  V30 100 H 11.0195 -3.36699 3.80258 0
M  V30 101 H 10.9495 -4.61609 2.53425 0
M  V30 102 H 13.4405 -3.09944 2.16201 0
M  V30 103 H 13.7535 -5.95981 4.91962 0
M  V30 104 H 12.0985 -5.36424 4.41899 0
M  V30 105 H 15.2895 -3.79042 2.74672 0
M  V30 106 H 15.4625 -5.09491 4.00404 0
M  V30 107 N 8.8686 -0.792821 -1.36206 0
M  V30 108 C 10.1166 -0.366062 -1.98757 0
M  V30 109 C 10.4376 1.0668 -1.63231 0
M  V30 110 O 9.7076 1.73587 -0.907978 0
M  V30 111 H 8.2876 -0.132364 -0.735179 0
M  V30 112 H 10.9496 -1.01562 -1.66347 0
M  V30 113 H 10.0456 -0.460638 -3.08682 0
M  V30 114 N 10.3467 1.47872 -0.545128 0
M  V30 115 C 11.5947 2.02093 -0.016553 0
M  V30 116 C 11.9157 1.42305 1.3332 0
M  V30 117 O 11.1857 0.593853 1.86682 0
M  V30 118 H 9.7657 0.746993 -0.00313038 0
M  V30 119 H 12.4277 1.81414 -0.712397 0
M  V30 120 H 11.5237 3.11996 0.0805422 0
M  V30 121 N 11.8248 0.280983 1.55075 0
M  V30 122 C 13.0498 -0.340154 2.04592 0
M  V30 123 C 13.4748 -1.48246 1.15779 0
M  V30 124 O 12.8328 -1.80614 0.15761 0
M  V30 125 C 12.8808 -0.793104 3.5177 0
M  V30 126 O 11.9848 -1.89981 3.66034 0
M  V30 127 H 11.3258 -0.0694289 0.66036 0
M  V30 128 H 13.8558 0.416993 2.00306 0
M  V30 129 H 13.8658 -1.08729 3.93245 0
M  V30 130 H 12.5408 0.0426163 4.15878 0
M  V30 131 H 11.1178 -1.60771 3.36463 0
M  V30 132 N 13.3029 -1.57598 0.00835791 0
M  V30 133 C 14.5279 -1.95617 -0.689103 0
M  V30 134 C 14.9529 -0.883753 -1.66046 0
M  V30 135 O 14.3109 0.157352 -1.80616 0
M  V30 136 C 14.3589 -3.32736 -1.38994 0
M  V30 137 O 13.4629 -3.27631 -2.50463 0
M  V30 138 H 12.8039 -0.638379 -0.182668 0
M  V30 139 H 15.3339 -2.045 0.064036 0
M  V30 140 H 15.3439 -3.68494 -1.75147 0
M  V30 141 H 14.0189 -4.1034 -0.677778 0
M  V30 142 H 12.5959 -3.03561 -2.16576 0
M  V30 143 N 14.781 0.264519 -1.55364 0
M  V30 144 C 16.029 0.993021 -1.76021 0
M  V30 145 C 16.35 1.86511 -0.569099 0
M  V30 146 O 15.62 1.91438 0.415735 0
M  V30 147 H 14.2 0.369639 -0.649135 0
M  V30 148 H 16.862 0.286707 -1.9278 0
M  V30 149 H 15.958 1.62502 -2.66457 0
M  V30 150 N 16.2591 1.48442 0.529413 0
M  V30 151 C 17.2221 1.62524 1.61612 0
M  V30 152 C 18.2221 0.498509 1.52877 0
M  V30 153 O 19.4121 0.76431 1.56537 0
M  V30 154 C 16.5441 1.59597 3.01233 0
M  V30 155 H 17.7371 2.59423 1.50465 0
M  V30 156 H 15.2901 1.37047 0.751514 0
M  V30 157 H 16.0251 0.641781 3.17886 0
M  V30 158 H 15.8101 2.41397 3.08982 0
M  V30 159 H 17.3001 1.72646 3.80241 0
M  V30 160 N 17.7372 -0.778329 1.37039 0
M  V30 161 C 18.6842 -1.89139 1.32269 0
M  V30 162 C 19.6542 -1.65017 0.189387 0
M  V30 163 O 20.8392 -1.87024 0.377693 0
M  V30 164 C 17.9792 -3.26112 1.12894 0
M  V30 165 C 17.0922 -3.62233 2.35396 0
M  V30 166 C 16.2272 -4.8838 2.08946 0
M  V30 167 C 15.2662 -5.17212 3.2735 0
M  V30 168 N 14.4032 -6.34546 3.00492 0
M  V30 169 H 19.2432 -1.92552 2.27437 0
M  V30 170 H 16.7802 -0.941473 1.13025 0
M  V30 171 H 18.7382 -4.05116 0.996835 0
M  V30 172 H 17.3682 -3.22091 0.213758 0
M  V30 173 H 16.4202 -2.78265 2.5937 0
M  V30 174 H 17.7322 -3.79481 3.23721 0
M  V30 175 H 16.8862 -5.75274 1.92729 0
M  V30 176 H 15.6252 -4.73222 1.17949 0
M  V30 177 H 14.6302 -4.28796 3.44113 0
M  V30 178 H 15.8552 -5.34283 4.19188 0
M  V30 179 H 13.8012 -6.20759 2.12118 0
M  V30 180 H 13.7182 -6.52179 3.82358 0
M  V30 181 H 14.9862 -7.24394 2.87879 0
M  V30 182 N 19.2153 -1.21501 -1.00376 0
M  V30 183 C 20.4623 -1.03299 -1.74171 0
M  V30 184 C 20.7903 0.433326 -1.89612 0
M  V30 185 O 20.0453 1.33779 -1.42834 0
M  V30 186 C 20.3443 -1.67673 -3.15627 0
M  V30 187 C 20.0103 -3.17533 -3.2013 0
M  V30 188 C 18.6723 -3.58427 -3.21067 0
M  V30 189 C 21.0243 -4.13504 -3.17275 0
M  V30 190 C 18.3523 -4.93794 -3.16835 0
M  V30 191 C 20.7043 -5.48834 -3.14585 0
M  V30 192 C 19.3683 -5.89123 -3.13831 0
M  V30 193 H 18.6383 -0.377999 -0.637336 0
M  V30 194 H 21.2853 -1.51111 -1.17634 0
M  V30 195 H 19.5903 -1.12158 -3.75404 0
M  V30 196 H 21.2873 -1.51091 -3.71446 0
M  V30 197 H 17.8773 -2.84965 -3.20145 0
M  V30 198 H 22.0613 -3.82936 -3.15711 0
M  V30 199 H 17.3173 -5.24255 -3.1459 0
M  V30 200 H 21.4913 -6.22934 -3.1133 0
M  V30 201 H 19.1183 -6.93984 -3.10307 0
M  V30 202 N 20.6934 1.19889 -1.02296 0
M  V30 203 C 22.1094 1.41462 -0.738954 0
M  V30 204 C 22.3094 1.89721 0.678846 0
M  V30 205 O 21.3654 2.07016 1.4457 0
M  V30 206 C 22.6784 2.43083 -1.77005 0
M  V30 207 C 24.2264 2.5684 -1.78892 0
M  V30 208 C 24.7014 3.61709 -2.80945 0
M  V30 209 N 26.1924 3.69199 -2.79725 0
M  V30 210 C 26.9274 4.50019 -3.55345 0
M  V30 211 N 26.4234 5.34592 -4.40662 0
M  V30 212 N 28.2164 4.44612 -3.43914 0
M  V30 213 H 20.3674 0.868827 -1.93817 0
M  V30 214 H 22.6304 0.44399 -0.837602 0
M  V30 215 H 22.3364 2.14636 -2.78612 0
M  V30 216 H 22.2104 3.4217 -1.58744 0
M  V30 217 H 24.5974 2.84614 -0.779674 0
M  V30 218 H 24.6784 1.57927 -2.01228 0
M  V30 219 H 24.3224 3.34678 -3.82038 0
M  V30 220 H 24.2524 4.60259 -2.5587 0
M  V30 221 H 26.7434 3.08794 -2.17842 0
M  V30 222 H 27.0564 5.93363 -4.95116 0
M  V30 223 H 25.4014 5.34073 -4.44737 0
M  V30 224 H 28.5924 3.7758 -2.76679 0
M  V30 225 H 28.7654 5.0736 -4.031 0
M  V30 226 N 22.1715 0.800033 1.35784 0
M  V30 227 C 23.4205 0.37387 1.98205 0
M  V30 228 C 23.7335 -1.06302 1.64193 0
M  V30 229 O 24.9395 -1.59198 2.19928 0
M  V30 230 C 23.3955 0.617532 3.54562 0
M  V30 231 C 23.0035 2.06654 3.9749 0
M  V30 232 C 24.7475 0.256401 4.23725 0
M  V30 233 C 22.6545 2.2563 5.46667 0
M  V30 234 H 21.5845 0.136055 0.741623 0
M  V30 235 H 24.2355 0.983166 1.54939 0
M  V30 236 H 22.6175 -0.0616248 3.95952 0
M  V30 237 H 23.7915 2.78296 3.67271 0
M  V30 238 H 22.1065 2.38691 3.41197 0
M  V30 239 H 24.7035 0.376318 5.33374 0
M  V30 240 H 25.0465 -0.796692 4.08606 0
M  V30 241 H 25.5795 0.889214 3.87734 0
M  V30 242 H 22.3185 3.2936 5.66747 0
M  V30 243 H 21.8385 1.58504 5.78478 0
M  V30 244 H 23.5175 2.06861 6.1304 0
M  V30 245 N 23.6496 -1.47581 0.552962 0
M  V30 246 C 24.8746 -2.07378 0.0300593 0
M  V30 247 C 25.2996 -1.40355 -1.25229 0
M  V30 248 O 24.6576 -0.477099 -1.7491 0
M  V30 249 C 24.7056 -3.60274 -0.153231 0
M  V30 250 O 23.8096 -3.94041 -1.21678 0
M  V30 251 H 23.1506 -0.662158 0.0494182 0
M  V30 252 H 25.6806 -1.89662 0.767434 0
M  V30 253 H 25.6906 -4.0633 -0.368761 0
M  V30 254 H 24.3656 -4.08455 0.783397 0
M  V30 255 H 22.9426 -3.59735 -0.982079 0
M  V30 256 N 25.1277 -0.289203 -1.54924 0
M  V30 257 C 26.0577 0.58549 -2.2604 0
M  V30 258 C 27.0387 1.14753 -1.25562 0
M  V30 259 O 28.2237 1.17906 -1.54311 0
M  V30 260 C 25.3537 1.76305 -2.99222 0
M  V30 261 C 24.3077 1.33191 -4.06748 0
M  V30 262 C 23.6337 2.5937 -4.6758 0
M  V30 263 C 24.9337 0.471775 -5.20165 0
M  V30 264 H 26.6277 -0.00763532 -2.99399 0
M  V30 265 H 24.1737 -0.00511229 -1.43999 0
M  V30 266 H 26.1267 2.38097 -3.47689 0
M  V30 267 H 24.8507 2.38223 -2.23422 0
M  V30 268 H 23.5097 0.737121 -3.59113 0
M  V30 269 H 23.1577 3.19576 -3.88433 0
M  V30 270 H 22.8577 2.31228 -5.40192 0
M  V30 271 H 24.3817 3.21985 -5.18804 0
M  V30 272 H 25.7957 0.995056 -5.64599 0
M  V30 273 H 24.1927 0.284639 -5.99425 0
M  V30 274 H 25.2627 -0.506041 -4.82252 0
M  V30 275 N 26.6058 1.57591 -0.0167156 0
M  V30 276 C 27.8538 1.90906 0.663285 0
M  V30 277 C 28.1748 0.892509 1.73376 0
M  V30 278 O 27.4448 -0.0677623 1.95783 0
M  V30 279 H 26.0248 0.704637 0.247983 0
M  V30 280 H 28.6868 1.94803 -0.0615909 0
M  V30 281 H 27.7828 2.9116 1.12393 0
M  V30 282 N 28.0839 -0.256276 1.55502 0
M  V30 283 C 29.0139 -1.32102 1.92539 0
M  V30 284 C 29.9949 -1.50684 0.789194 0
M  V30 285 O 31.1799 -1.63449 1.04872 0
M  V30 286 C 28.3099 -2.67752 2.21192 0
M  V30 287 C 27.2639 -2.63878 3.36975 0
M  V30 288 C 26.5899 -4.03236 3.51147 0
M  V30 289 C 27.8899 -2.21682 4.72921 0
M  V30 290 H 29.5839 -1.01351 2.81724 0
M  V30 291 H 27.1299 -0.486105 1.35547 0
M  V30 292 H 29.0829 -3.42365 2.45691 0
M  V30 293 H 27.8069 -3.0012 1.28824 0
M  V30 294 H 26.4659 -1.91722 3.12471 0
M  V30 295 H 26.1139 -4.32854 2.56216 0
M  V30 296 H 25.8139 -4.01535 4.29003 0
M  V30 297 H 27.3379 -4.79563 3.77957 0
M  V30 298 H 28.7519 -2.86023 4.96854 0
M  V30 299 H 27.1489 -2.3111 5.53812 0
M  V30 300 H 28.2189 -1.16833 4.70615 0
M  V30 301 N 29.562 -1.4872 -0.521534 0
M  V30 302 C 30.973 -1.50607 -1.10337 0
M  V30 303 C 31.324 -0.280612 -1.94183 0
M  V30 304 O 30.449 0.611507 -2.0758 0
M  V30 305 C 31.044 -2.72903 -2.00772 0
M  V30 306 C 29.603 -2.77634 -2.54158 0
M  V30 307 C 28.75 -2.44241 -1.31307 0
M  V30 308 H 31.701 -1.55714 -0.306388 0
M  V30 309 H 31.722 -2.519 -2.85178 0
M  V30 310 H 31.234 -3.62077 -1.39721 0
M  V30 311 H 29.335 -1.92689 -3.18907 0
M  V30 312 H 29.448 -3.79283 -2.92714 0
M  V30 313 H 27.812 -1.95577 -1.63161 0
M  V30 314 H 28.595 -3.35666 -0.719943 0
M  V30 315 N 31.0401 0.771051 -1.3745 0
M  V30 316 C 32.2861 1.5319 -1.32894 0
M  V30 317 C 32.6191 1.94008 0.0862511 0
M  V30 318 O 31.8941 1.64124 1.04373 0
M  V30 319 C 32.1771 2.79648 -2.26868 0
M  V30 320 C 32.0301 2.45079 -3.77169 0
M  V30 321 C 33.3491 3.81583 -2.19277 0
M  V30 322 H 30.4681 0.555744 -0.484064 0
M  V30 323 H 33.1101 0.884492 -1.68157 0
M  V30 324 H 31.2601 3.34891 -1.96926 0
M  V30 325 H 32.9321 1.95745 -4.1771 0
M  V30 326 H 31.1751 1.77767 -3.95704 0
M  V30 327 H 31.8461 3.35478 -4.38359 0
M  V30 328 H 34.3221 3.35835 -2.45671 0
M  V30 329 H 33.1981 4.67787 -2.87171 0
M  V30 330 H 33.4591 4.25897 -1.18592 0
M  V30 331 N 32.5182 1.22032 0.997298 0
M  V30 332 C 33.7662 1.04016 1.73278 0
M  V30 333 C 34.0872 -0.426255 1.90284 0
M  V30 334 O 33.3572 -1.30694 1.45931 0
M  V30 335 H 31.9372 0.381897 0.642 0
M  V30 336 H 34.5992 1.5347 1.20137 0
M  V30 337 H 33.6952 1.51441 2.72896 0
M  V30 338 N 33.9963 -1.19345 1.0293 0
M  V30 339 C 34.9593 -2.20793 0.615069 0
M  V30 340 C 35.9593 -1.57553 -0.321533 0
M  V30 341 O 37.1493 -1.73862 -0.108483 0
M  V30 342 C 34.2813 -3.40754 -0.0999222 0
M  V30 343 H 35.4743 -2.58955 1.51269 0
M  V30 344 H 33.0273 -1.3303 0.820534 0
M  V30 345 H 33.7623 -3.0811 -1.01187 0
M  V30 346 H 33.5473 -3.87889 0.57309 0
M  V30 347 H 35.0373 -4.15898 -0.376645 0
M  V30 348 N 35.4744 -0.807222 -1.35358 0
M  V30 349 C 36.7204 -0.388463 -1.99045 0
M  V30 350 C 37.0534 1.04184 -1.63888 0
M  V30 351 O 36.3284 1.72292 -0.902535 0
M  V30 352 C 36.6114 -0.572783 -3.55515 0
M  V30 353 C 36.4644 -2.04807 -4.00468 0
M  V30 354 C 37.7834 0.00114064 -4.401 0
M  V30 355 H 34.9024 -0.142619 -0.723069 0
M  V30 356 H 37.5444 -1.01687 -1.60498 0
M  V30 357 H 35.6944 -0.0378425 -3.88482 0
M  V30 358 H 37.3664 -2.64544 -3.77908 0
M  V30 359 H 35.6094 -2.54427 -3.51353 0
M  V30 360 H 36.2804 -2.12792 -5.09337 0
M  V30 361 H 38.7564 -0.455716 -4.13597 0
M  V30 362 H 37.6324 -0.157737 -5.48673 0
M  V30 363 H 37.8934 1.09488 -4.28328 0
M  V30 364 N 36.9525 1.47285 -0.560781 0
M  V30 365 C 38.2015 2.01668 -0.035895 0
M  V30 366 C 38.5145 1.44021 1.32353 0
M  V30 367 O 39.7205 1.90088 1.93853 0
M  V30 368 C 38.1765 3.59897 -0.0136659 0
M  V30 369 C 37.7845 4.26536 -1.37006 0
M  V30 370 C 39.5285 4.22017 0.458425 0
M  V30 371 C 37.4355 5.76782 -1.30675 0
M  V30 372 H 36.3655 0.753938 -0.00964879 0
M  V30 373 H 39.0165 1.69243 -0.709166 0
M  V30 374 H 37.3985 3.89301 0.725325 0
M  V30 375 H 38.5725 4.0877 -2.12705 0
M  V30 376 H 36.8875 3.76419 -1.78038 0
M  V30 377 H 39.4845 5.32124 0.524247 0
M  V30 378 H 39.8275 3.89437 1.4712 0
M  V30 379 H 40.3605 3.97159 -0.225818 0
M  V30 380 H 37.0995 6.13988 -2.29564 0
M  V30 381 H 36.6195 5.96875 -0.591622 0
M  V30 382 H 38.2985 6.39063 -1.01033 0
M  V30 383 N 38.4306 0.297415 1.54768 0
M  V30 384 C 39.3786 -0.596051 2.24833 0
M  V30 385 C 40.3726 -1.13992 1.25308 0
M  V30 386 O 41.5786 -1.09098 1.4317 0
M  V30 387 H 37.9536 -0.210814 0.721846 0
M  V30 388 H 39.9246 0.0174667 2.98395 0
M  V30 389 C 38.6736 -1.75818 2.99972 0
M  V30 390 H 37.9966 -1.3489 3.76357 0
M  V30 391 H 39.4366 -2.35949 3.52284 0
M  V30 392 C 37.8956 -2.66014 2.06732 0
M  V30 393 O 38.4256 -3.67009 1.63302 0
M  V30 394 N 36.6316 -2.33669 1.72763 0
M  V30 395 H 36.1786 -1.51586 2.08277 0
M  V30 396 H 36.1366 -2.94285 1.10652 0
M  V30 397 N 39.9087 -1.5758 0.0250728 0
M  V30 398 C 41.1487 -1.93497 -0.65865 0
M  V30 399 C 41.5127 -0.901409 -1.69525 0
M  V30 400 O 42.7137 -1.14664 -2.43116 0
M  V30 401 C 40.9847 -3.34352 -1.26267 0
M  V30 402 S 42.5437 -3.92191 -1.96803 0
M  V30 403 H 39.3617 -0.67709 -0.216958 0
M  V30 404 H 41.9637 -1.95303 0.0877692 0
M  V30 405 H 40.6677 -4.07395 -0.495741 0
M  V30 406 H 40.1987 -3.3598 -2.04648 0
M  V30 407 H 42.2137 -3.75298 -3.24601 0
M  V30 408 N 41.3868 0.248026 -1.55636 0
M  V30 409 C 42.3498 1.29044 -1.89421 0
M  V30 410 C 43.3498 1.41134 -0.770581 0
M  V30 411 O 44.5398 1.39854 -1.03858 0
M  V30 412 C 41.6718 2.66831 -2.12165 0
M  V30 413 H 42.8648 1.00305 -2.82629 0
M  V30 414 H 40.4178 0.487265 -1.48511 0
M  V30 415 H 41.1528 3.00711 -1.21422 0
M  V30 416 H 40.9378 2.59438 -2.93997 0
M  V30 417 H 42.4278 3.42103 -2.3949 0
M  V30 418 N 42.8649 1.48995 0.513639 0
M  V30 419 C 44.1419 1.48338 1.27495 0
M  V30 420 C 44.5219 0.204065 2.10111 0
M  V30 421 O 43.8699 -0.813881 2.13514 0
M  V30 422 C 44.0799 2.75498 2.14247 0
M  V30 423 C 45.4279 3.24484 2.73852 0
M  V30 424 O 46.4519 2.76528 2.24523 0
M  V30 425 O 45.3109 4.07974 3.6362 0
M  V30 426 H 42.4049 0.593149 0.576284 0
M  V30 427 H 44.9509 1.61246 0.528948 0
M  V30 428 H 43.7229 3.60109 1.53092 0
M  V30 429 H 43.3459 2.6539 2.96064 0
M  V30 430 N 44.343 -0.763751 1.37857 0
M  V30 431 C 45.291 -1.89864 1.34367 0
M  V30 432 C 46.285 -1.67816 0.231143 0
M  V30 433 O 47.491 -1.75508 0.399617 0
M  V30 434 H 43.866 -0.624501 0.41893 0
M  V30 435 H 45.837 -1.89925 2.30155 0
M  V30 436 C 44.586 -3.27227 1.1755 0
M  V30 437 H 43.909 -3.44773 2.02414 0
M  V30 438 H 45.349 -4.06911 1.1916 0
M  V30 439 C 43.808 -3.36692 -0.118311 0
M  V30 440 O 44.338 -3.86374 -1.09902 0
M  V30 441 N 42.544 -2.90092 -0.171717 0
M  V30 442 H 42.091 -2.49853 0.627012 0
M  V30 443 H 42.049 -2.96806 -1.03699 0
M  V30 444 N 45.8211 -1.22559 -0.990812 0
M  V30 445 C 47.0491 -1.07779 -1.76611 0
M  V30 446 C 47.4641 0.371513 -1.85109 0
M  V30 447 O 46.8211 1.25737 -1.32274 0
M  V30 448 C 46.8721 -1.68512 -3.19822 0
M  V30 449 O 46.5931 -3.07774 -3.1178 0
M  V30 450 C 48.0941 -1.59035 -4.13791 0
M  V30 451 H 45.3141 -0.377729 -0.554583 0
M  V30 452 H 47.8581 -1.62195 -1.24551 0
M  V30 453 H 46.0131 -1.18154 -3.68942 0
M  V30 454 H 46.4271 -3.37062 -4.01858 0
M  V30 455 H 47.9011 -2.0625 -5.1202 0
M  V30 456 H 48.3781 -0.547273 -4.35777 0
M  V30 457 H 48.9841 -2.08709 -3.70568 0
M  V30 458 N 47.2992 1.18797 -1.03562 0
M  V30 459 C 48.5472 1.88278 -0.734569 0
M  V30 460 C 48.8682 1.8043 0.739586 0
M  V30 461 O 48.1382 1.21925 1.53333 0
M  V30 462 H 46.7182 0.696991 -0.268725 0
M  V30 463 H 49.3802 1.44192 -1.31129 0
M  V30 464 H 48.4762 2.94443 -1.03489 0
M  V30 465 N 48.7773 0.814389 1.34928 0
M  V30 466 C 49.7403 0.235759 2.27984 0
M  V30 467 C 50.7403 -0.581412 1.49921 0
M  V30 468 O 51.9303 -0.398758 1.69575 0
M  V30 469 C 49.0623 -0.670433 3.34242 0
M  V30 470 H 50.2553 1.05659 2.80671 0
M  V30 471 H 47.8083 0.585614 1.44915 0
M  V30 472 H 48.5433 -1.51466 2.86755 0
M  V30 473 H 48.3283 -0.0860822 3.92005 0
M  V30 474 H 49.8183 -1.06935 4.03676 0
M  V30 475 N 50.2554 -1.46986 0.568584 0
M  V30 476 C 51.2024 -2.30153 -0.172707 0
M  V30 477 C 52.1724 -1.39759 -0.897586 0
M  V30 478 O 53.3574 -1.68716 -0.891044 0
M  V30 479 C 50.4974 -3.23952 -1.1895 0
M  V30 480 C 49.6104 -4.29441 -0.469517 0
M  V30 481 C 48.7454 -5.1038 -1.47259 0
M  V30 482 C 47.7844 -6.07632 -0.738225 0
M  V30 483 N 46.9214 -6.8149 -1.68868 0
M  V30 484 H 51.7614 -2.93019 0.542596 0
M  V30 485 H 49.2984 -1.44422 0.279401 0
M  V30 486 H 51.2564 -3.76767 -1.79173 0
M  V30 487 H 49.8864 -2.62926 -1.87269 0
M  V30 488 H 48.9384 -3.79594 0.247467 0
M  V30 489 H 50.2504 -4.98689 0.105241 0
M  V30 490 H 49.4044 -5.67402 -2.14803 0
M  V30 491 H 48.1434 -4.4106 -2.08128 0
M  V30 492 H 47.1484 -5.49778 -0.0489293 0
M  V30 493 H 48.3734 -6.78966 -0.135129 0
M  V30 494 H 46.3194 -6.14891 -2.28573 0
M  V30 495 H 46.2364 -7.46948 -1.16636 0
M  V30 496 H 47.5044 -7.43078 -2.3549 0
M  V30 497 N 51.7335 -0.305618 -1.54608 0
M  V30 498 C 52.6815 0.584119 -2.25146 0
M  V30 499 C 53.6755 1.13326 -1.25911 0
M  V30 500 O 54.8815 1.08337 -1.43747 0
M  V30 501 H 51.2565 0.206983 -0.722954 0
M  V30 502 H 53.2275 -0.033291 -2.98381 0
M  V30 503 C 51.9765 1.74225 -3.009 0
M  V30 504 H 51.2995 1.32892 -3.77067 0
M  V30 505 H 52.7395 2.34077 -3.53531 0
M  V30 506 C 51.1985 2.64914 -2.0814 0
M  V30 507 O 51.7285 3.66137 -1.65246 0
M  V30 508 N 49.9345 2.3275 -1.74 0
M  V30 509 H 49.4815 1.50479 -2.09078 0
M  V30 510 H 49.4395 2.93694 -1.12211 0
M  V30 511 N 53.2116 1.57565 -0.0334293 0
M  V30 512 C 54.1416 2.13511 0.945265 0
M  V30 513 C 55.1226 1.05231 1.33643 0
M  V30 514 O 56.3076 1.33084 1.41429 0
M  V30 515 C 53.4376 2.6657 2.22616 0
M  V30 516 C 52.3916 3.79676 1.97561 0
M  V30 517 C 51.7176 4.1918 3.31952 0
M  V30 518 C 53.0176 5.0557 1.31135 0
M  V30 519 H 54.7116 2.95538 0.479325 0
M  V30 520 H 52.2576 1.42166 0.229115 0
M  V30 521 H 54.2106 3.04344 2.91466 0
M  V30 522 H 52.9346 1.8171 2.71384 0
M  V30 523 H 51.5936 3.42347 1.31127 0
M  V30 524 H 51.2416 3.31296 3.78487 0
M  V30 525 H 50.9416 4.95402 3.15992 0
M  V30 526 H 52.4656 4.59541 4.02063 0
M  V30 527 H 53.8796 5.40903 1.89992 0
M  V30 528 H 52.2766 5.86818 1.25559 0
M  V30 529 H 53.3466 4.84062 0.284894 0
M  V30 530 N 54.6897 -0.239769 1.55765 0
M  V30 531 C 55.9197 -0.982743 1.8173 0
M  V30 532 C 56.3277 -1.7917 0.607835 0
M  V30 533 O 55.6707 -1.78525 -0.432973 0
M  V30 534 C 55.7327 -1.96332 3.01155 0
M  V30 535 C 55.3967 -1.34062 4.36894 0
M  V30 536 C 56.3937 -0.739539 5.14613 0
M  V30 537 C 54.0787 -1.35784 4.83599 0
M  V30 538 C 56.0727 -0.163989 6.37189 0
M  V30 539 C 53.7597 -0.778441 6.06122 0
M  V30 540 C 54.7577 -0.182548 6.82756 0
M  V30 541 O 54.4457 0.387887 8.02964 0
M  V30 542 H 54.1777 -0.294481 0.608487 0
M  V30 543 H 56.7317 -0.26572 2.03674 0
M  V30 544 H 54.9617 -2.71884 2.74984 0
M  V30 545 H 56.6507 -2.57032 3.14149 0
M  V30 546 H 57.4167 -0.718687 4.79646 0
M  V30 547 H 53.2957 -1.81105 4.23936 0
M  V30 548 H 56.8397 0.301753 6.96947 0
M  V30 549 H 52.7367 -0.796645 6.40565 0
M  V30 550 H 53.5047 0.28044 8.18019 0
M  V30 551 N 56.1678 -1.49265 -0.50573 0
M  V30 552 C 57.4168 -1.57761 -1.25675 0
M  V30 553 C 57.7298 -0.267371 -1.93764 0
M  V30 554 O 58.9358 -0.230827 -2.70517 0
M  V30 555 C 57.3918 -2.78332 -2.28165 0
M  V30 556 C 56.9998 -4.16096 -1.66037 0
M  V30 557 C 58.7438 -2.96155 -3.04125 0
M  V30 558 C 56.6508 -5.27895 -2.6661 0
M  V30 559 H 55.5808 -0.587391 -0.472745 0
M  V30 560 H 58.2318 -1.75644 -0.53118 0
M  V30 561 H 56.6138 -2.53934 -3.03865 0
M  V30 562 H 57.7878 -4.50612 -0.963622 0
M  V30 563 H 56.1028 -4.03591 -1.02484 0
M  V30 564 H 58.6998 -3.76849 -3.79327 0
M  V30 565 H 59.0428 -2.06534 -3.61455 0
M  V30 566 H 59.5758 -3.2057 -2.35541 0
M  V30 567 H 56.3148 -6.1956 -2.14068 0
M  V30 568 H 55.8348 -4.97839 -3.34539 0
M  V30 569 H 57.5138 -5.57031 -3.29129 0
M  V30 570 N 57.6459 0.756429 -1.3826 0
M  V30 571 C 58.8949 1.51082 -1.3363 0
M  V30 572 C 59.2079 1.95467 0.0720068 0
M  V30 573 O 60.4139 2.7043 0.240834 0
M  V30 574 C 58.8699 2.72893 -2.34644 0
M  V30 575 C 58.4779 2.35544 -3.81081 0
M  V30 576 C 60.2219 3.50791 -2.39052 0
M  V30 577 C 58.1289 3.53948 -4.73787 0
M  V30 578 H 57.0589 0.56727 -0.49671 0
M  V30 579 H 59.7099 0.827147 -1.638 0
M  V30 580 H 58.0919 3.43227 -1.97513 0
M  V30 581 H 59.2659 1.72894 -4.27135 0
M  V30 582 H 57.5809 1.70786 -3.79764 0
M  V30 583 H 60.1779 4.38823 -3.05513 0
M  V30 584 H 60.5209 3.91745 -1.40861 0
M  V30 585 H 61.0539 2.87467 -2.74968 0
M  V30 586 H 57.7929 3.18064 -5.73163 0
M  V30 587 H 57.3129 4.15651 -4.32428 0
M  V30 588 H 58.9919 4.20566 -4.91663 0
M  V30 589 N 59.124 1.23083 0.984299 0
M  V30 590 C 60.349 1.088 1.76571 0
M  V30 591 C 60.774 -0.356657 1.84688 0
M  V30 592 O 60.132 -1.25788 1.30565 0
M  V30 593 C 60.18 1.71371 3.17277 0
M  V30 594 O 59.284 0.973213 4.00752 0
M  V30 595 H 58.625 0.381599 0.543395 0
M  V30 596 H 61.155 1.63057 1.23587 0
M  V30 597 H 61.165 1.76449 3.67872 0
M  V30 598 H 59.84 2.76493 3.10684 0
M  V30 599 H 58.417 0.999078 3.59267 0
M  V30 600 N 60.6021 -1.18246 1.0419 0
M  V30 601 C 61.8481 -1.88536 0.747122 0
M  V30 602 C 62.1811 -1.80223 -0.723409 0
M  V30 603 O 61.4561 -1.20337 -1.52804 0
M  V30 604 C 61.7391 -3.38968 1.21544 0
M  V30 605 C 61.5921 -3.56084 2.74816 0
M  V30 606 C 62.9111 -4.32648 0.806482 0
M  V30 607 H 60.0301 -0.684619 0.272883 0
M  V30 608 H 62.6721 -1.39113 1.29413 0
M  V30 609 H 60.8221 -3.8119 0.750081 0
M  V30 610 H 62.4941 -3.22946 3.29399 0
M  V30 611 H 60.7371 -2.98699 3.14582 0
M  V30 612 H 61.4081 -4.61639 3.02644 0
M  V30 613 H 63.8841 -3.98211 1.20695 0
M  V30 614 H 62.7601 -5.36462 1.1619 0
M  V30 615 H 63.0211 -4.41146 -0.29029 0
M  V30 616 N 62.0802 -0.821533 -1.34494 0
M  V30 617 C 63.0272 -0.240397 -2.29545 0
M  V30 618 C 63.9972 0.634031 -1.53523 0
M  V30 619 O 65.1822 0.575966 -1.81899 0
M  V30 620 C 62.3222 0.592869 -3.39969 0
M  V30 621 C 61.4352 -0.30365 -4.30932 0
M  V30 622 C 60.5702 0.539049 -5.28458 0
M  V30 623 C 59.6092 -0.356942 -6.11058 0
M  V30 624 N 58.7462 0.446603 -7.00678 0
M  V30 625 H 63.5862 -1.05632 -2.7865 0
M  V30 626 H 61.1232 -0.532413 -1.37127 0
M  V30 627 H 63.0812 1.09129 -4.02675 0
M  V30 628 H 61.7112 1.37392 -2.92102 0
M  V30 629 H 60.7632 -0.920276 -3.691 0
M  V30 630 H 62.0752 -0.992661 -4.88823 0
M  V30 631 H 61.2292 1.102 -5.96608 0
M  V30 632 H 59.9682 1.26157 -4.71101 0
M  V30 633 H 58.9732 -0.932047 -5.41842 0
M  V30 634 H 60.1982 -1.07755 -6.70497 0
M  V30 635 H 58.1442 1.15282 -6.45791 0
M  V30 636 H 58.0612 -0.184048 -7.55776 0
M  V30 637 H 59.3292 0.992352 -7.73158 0
M  V30 638 N 63.5583 1.46682 -0.576371 0
M  V30 639 C 64.8063 2.02013 -0.0594163 0
M  V30 640 C 65.1273 1.45101 1.30271 0
M  V30 641 O 64.3973 0.633317 1.8538 0
M  V30 642 H 62.9773 0.746759 -0.0189745 0
M  V30 643 H 65.6393 1.79862 -0.750717 0
M  V30 644 H 64.7353 3.12097 0.014345 0
M  V30 645 N 65.0364 0.313813 1.54444 0
M  V30 646 C 66.2854 -0.292519 1.99568 0
M  V30 647 C 66.5984 -1.54011 1.20582 0
M  V30 648 O 67.8044 -2.22183 1.56035 0
M  V30 649 C 66.2604 -0.571752 3.55329 0
M  V30 650 C 65.8684 0.658229 4.43138 0
M  V30 651 C 67.6124 -1.13857 4.08946 0
M  V30 652 C 65.5194 0.351439 5.90355 0
M  V30 653 H 64.4494 -0.113079 0.745472 0
M  V30 654 H 67.1004 0.424518 1.78522 0
M  V30 655 H 65.4824 -1.34872 3.72325 0
M  V30 656 H 66.6564 1.43403 4.37918 0
M  V30 657 H 64.9714 1.14458 4.0036 0
M  V30 658 H 67.5684 -1.38257 5.16516 0
M  V30 659 H 67.9114 -2.08489 3.6033 0
M  V30 660 H 68.4444 -0.423015 3.95544 0
M  V30 661 H 65.1834 1.26667 6.43145 0
M  V30 662 H 64.7034 -0.386842 5.98551 0
M  V30 663 H 66.3824 -0.0423134 6.46986 0
M  V30 664 N 66.5145 -1.57545 0.0417849 0
M  V30 665 C 67.4615 -2.10977 -0.935805 0
M  V30 666 C 68.4315 -1.01486 -1.31491 0
M  V30 667 O 69.6165 -1.2898 -1.40602 0
M  V30 668 C 66.7565 -2.65169 -2.2086 0
M  V30 669 C 65.8695 -3.88714 -1.88482 0
M  V30 670 C 65.0045 -4.31254 -3.1015 0
M  V30 671 C 64.0435 -5.47524 -2.7365 0
M  V30 672 N 63.1805 -5.85162 -3.87982 0
M  V30 673 H 68.0205 -2.94218 -0.473249 0
M  V30 674 H 65.5575 -1.45415 -0.221981 0
M  V30 675 H 67.5155 -2.94685 -2.95325 0
M  V30 676 H 66.1455 -1.8474 -2.64709 0
M  V30 677 H 65.1975 -3.65849 -1.04205 0
M  V30 678 H 66.5095 -4.73245 -1.57608 0
M  V30 679 H 65.6635 -4.62273 -3.92923 0
M  V30 680 H 64.4025 -3.45516 -3.44195 0
M  V30 681 H 63.4075 -5.16187 -1.89291 0
M  V30 682 H 64.6325 -6.34971 -2.40807 0
M  V30 683 H 62.5785 -5.02377 -4.21846 0
M  V30 684 H 62.4955 -6.64362 -3.60775 0
M  V30 685 H 63.7635 -6.20791 -4.71422 0
M  V30 686 N 67.9926 0.231505 -1.5589 0
M  V30 687 C 69.2406 0.955461 -1.78088 0
M  V30 688 C 69.5616 1.85262 -0.608533 0
M  V30 689 O 68.8316 1.92277 0.375035 0
M  V30 690 H 67.4116 0.355787 -0.656829 0
M  V30 691 H 70.0736 0.245751 -1.93344 0
M  V30 692 H 69.1696 1.56814 -2.69844 0
M  V30 693 N 69.4707 1.49531 0.497807 0
M  V30 694 C 70.8867 1.36365 0.829266 0
M  V30 695 C 71.0867 0.399184 1.97506 0
M  V30 696 O 70.1427 -0.167977 2.51941 0
M  V30 697 C 71.4557 2.77153 1.16647 0
M  V30 698 C 73.0037 2.85877 1.27449 0
M  V30 699 C 73.4787 4.2744 1.64497 0
M  V30 700 N 74.9697 4.30265 1.7154 0
M  V30 701 C 75.7047 5.3677 2.01656 0
M  V30 702 N 75.2007 6.53516 2.29976 0
M  V30 703 N 76.9937 5.24189 2.02934 0
M  V30 704 H 69.1447 2.10831 -0.257703 0
M  V30 705 H 71.4077 0.946534 -0.0527091 0
M  V30 706 H 71.1137 3.49442 0.397872 0
M  V30 707 H 70.9877 3.12722 2.10915 0
M  V30 708 H 73.3747 2.13824 2.0338 0
M  V30 709 H 73.4557 2.53887 0.312244 0
M  V30 710 H 73.0997 5.00021 0.891151 0
M  V30 711 H 73.0297 4.56896 2.61827 0
M  V30 712 H 75.5207 3.4607 1.51802 0
M  V30 713 H 75.8337 7.30506 2.52153 0
M  V30 714 H 74.1787 6.56737 2.27425 0
M  V30 715 H 77.3697 4.31988 1.80289 0
M  V30 716 H 77.5427 6.07286 2.26071 0
M  V30 717 N 70.9488 -0.749086 1.3866 0
M  V30 718 C 71.8788 -1.8764 1.38973 0
M  V30 719 C 72.8598 -1.68178 0.255004 0
M  V30 720 O 74.0448 -1.88704 0.458754 0
M  V30 721 C 71.1748 -3.25222 1.21851 0
M  V30 722 C 70.1288 -3.59295 2.32575 0
M  V30 723 C 69.4548 -4.95663 2.00555 0
M  V30 724 C 70.7548 -3.63709 3.7485 0
M  V30 725 H 72.4488 -1.87635 2.3331 0
M  V30 726 H 69.9948 -0.901329 1.12303 0
M  V30 727 H 71.9478 -4.03746 1.20695 0
M  V30 728 H 70.6718 -3.25719 0.239775 0
M  V30 729 H 69.3308 -2.83093 2.32925 0
M  V30 730 H 68.9788 -4.92724 1.01154 0
M  V30 731 H 68.6788 -5.19429 2.74714 0
M  V30 732 H 70.2028 -5.7656 2.01024 0
M  V30 733 H 71.6168 -4.32338 3.76506 0
M  V30 734 H 70.0138 -3.98986 4.48252 0
M  V30 735 H 71.0838 -2.63834 4.06841 0
M  V30 736 N 72.4269 -1.23603 -0.977757 0
M  V30 737 C 73.3749 -1.01704 -2.09187 0
M  V30 738 C 74.3689 0.0448214 -1.69341 0
M  V30 739 O 75.5749 -0.108902 -1.7967 0
M  V30 740 H 71.9499 -0.311803 -0.684312 0
M  V30 741 H 73.9209 -1.96207 -2.24823 0
M  V30 742 C 72.6699 -0.627746 -3.41986 0
M  V30 743 H 71.9929 -1.43656 -3.73099 0
M  V30 744 H 73.4329 -0.514053 -4.20872 0
M  V30 745 C 71.8919 0.664238 -3.30287 0
M  V30 746 O 72.4219 1.71268 -3.6336 0
M  V30 747 N 70.6279 0.641156 -2.83439 0
M  V30 748 H 70.1749 -0.212376 -2.56723 0
M  V30 749 H 70.1329 1.50583 -2.75993 0
M  V30 750 N 73.905 1.17692 -1.04816 0
M  V30 751 C 75.321 1.39863 -0.768794 0
M  V30 752 C 75.521 1.91118 0.638451 0
M  V30 753 O 74.577 2.10036 1.40146 0
M  V30 754 C 75.89 2.39274 -1.82122 0
M  V30 755 C 77.438 2.52987 -1.843 0
M  V30 756 C 77.913 3.55669 -2.88555 0
M  V30 757 N 79.404 3.63183 -2.87493 0
M  V30 758 C 80.139 4.42381 -3.64811 0
M  V30 759 N 79.635 5.25125 -4.51903 0
M  V30 760 N 81.428 4.37217 -3.53267 0
M  V30 761 H 73.579 0.82752 -1.95617 0
M  V30 762 H 75.842 0.426123 -0.846831 0
M  V30 763 H 75.548 2.08678 -2.83102 0
M  V30 764 H 75.422 3.38725 -1.65967 0
M  V30 765 H 77.809 2.82896 -0.839869 0
M  V30 766 H 77.89 1.53623 -2.04532 0
M  V30 767 H 77.534 3.26499 -3.89051 0
M  V30 768 H 77.464 4.54728 -2.65575 0
M  V30 769 H 79.955 3.04103 -2.24343 0
M  V30 770 H 80.268 5.82728 -5.07591 0
M  V30 771 H 78.613 5.24519 -4.55966 0
M  V30 772 H 81.804 3.71626 -2.84625 0
M  V30 773 H 81.977 4.98696 -4.13771 0
M  V30 774 N 75.3831 0.828654 1.34056 0
M  V30 775 C 76.3131 0.269443 2.3194 0
M  V30 776 C 77.2941 -0.617247 1.58506 0
M  V30 777 O 78.4791 -0.542931 1.86456 0
M  V30 778 C 75.6091 -0.564793 3.42677 0
M  V30 779 C 74.5631 0.225241 4.27407 0
M  V30 780 C 73.8891 -0.7321 5.29664 0
M  V30 781 C 75.1891 1.43663 5.02154 0
M  V30 782 H 76.8831 1.08728 2.7896 0
M  V30 783 H 74.4291 0.524283 1.34117 0
M  V30 784 H 76.3821 -0.966233 4.10173 0
M  V30 785 H 75.1061 -1.41574 2.9432 0
M  V30 786 H 73.7651 0.608117 3.61521 0
M  V30 787 H 73.4131 -1.57916 4.77568 0
M  V30 788 H 73.1131 -0.20767 5.87233 0
M  V30 789 H 74.6371 -1.13128 6.00029 0
M  V30 790 H 76.0511 1.1089 5.62473 0
M  V30 791 H 74.4481 1.89711 5.69324 0
M  V30 792 H 75.5181 2.21181 4.31517 0
M  V30 793 N 76.8612 -1.46375 0.584142 0
M  V30 794 C 78.2722 -1.86031 0.157959 0
M  V30 795 C 78.6232 -1.48753 -1.27933 0
M  V30 796 O 77.7482 -0.903098 -1.96655 0
M  V30 797 C 78.3432 -3.37642 0.279892 0
M  V30 798 C 76.9022 -3.76289 -0.09143 0
M  V30 799 C 76.0492 -2.7039 0.615178 0
M  V30 800 H 79.0002 -1.37509 0.792274 0
M  V30 801 H 79.0212 -3.77275 -0.494364 0
M  V30 802 H 78.5332 -3.64742 1.32607 0
M  V30 803 H 76.6342 -3.54806 -1.13769 0
M  V30 804 H 76.7472 -4.78246 0.285886 0
M  V30 805 H 75.1112 -2.5464 0.0552833 0
M  V30 806 H 75.8942 -3.0033 1.66303 0
M  V30 807 N 78.3393 -0.321999 -1.54275 0
M  V30 808 C 79.3023 0.531975 -2.22941 0
M  V30 809 C 80.3023 1.04478 -1.22234 0
M  V30 810 O 81.4923 0.937452 -1.46825 0
M  V30 811 C 78.6243 1.73874 -2.93224 0
M  V30 812 H 79.8173 -0.0682612 -2.99822 0
M  V30 813 H 77.3703 -0.0730644 -1.56129 0
M  V30 814 H 78.1053 2.37825 -2.20476 0
M  V30 815 H 77.8903 1.37847 -3.6707 0
M  V30 816 H 79.3803 2.34496 -3.45545 0
M  V30 817 N 79.8174 1.5752 -0.0501392 0
M  V30 818 C 80.7804 2.1037 0.909786 0
M  V30 819 C 81.7804 1.02308 1.24056 0
M  V30 820 O 82.9704 1.28385 1.17741 0
M  V30 821 C 80.1024 2.58708 2.21998 0
M  V30 822 H 81.2954 2.96479 0.451665 0
M  V30 823 H 78.8484 1.55038 0.198248 0
M  V30 824 H 79.5834 1.75989 2.72394 0
M  V30 825 H 79.3684 3.37675 1.99295 0
M  V30 826 H 80.8584 2.99747 2.9076 0
M  V30 827 N 81.2955 -0.223234 1.56011 0
M  V30 828 C 82.5435 -0.946003 1.78592 0
M  V30 829 C 82.8645 -1.84936 0.618349 0
M  V30 830 O 82.1345 -1.92473 -0.364833 0
M  V30 831 H 80.7145 -0.352298 0.658707 0
M  V30 832 H 83.3765 -0.235494 1.93472 0
M  V30 833 H 82.4725 -1.55381 2.70672 0
M  V30 834 N 82.7736 -1.49793 -0.48987 0
M  V30 835 C 84.0196 -1.60078 -1.24511 0
M  V30 836 C 84.3526 -0.291608 -1.91998 0
M  V30 837 O 83.6276 0.705647 -1.81248 0
M  V30 838 C 83.9106 -2.76791 -2.30345 0
M  V30 839 C 83.7636 -4.17535 -1.67286 0
M  V30 840 C 85.0826 -2.89111 -3.31817 0
M  V30 841 H 82.2016 -0.582645 -0.451324 0
M  V30 842 H 84.8436 -1.82117 -0.541612 0
M  V30 843 H 82.9936 -2.5813 -2.90346 0
M  V30 844 H 84.6656 -4.4774 -1.11026 0
M  V30 845 H 82.9086 -4.22665 -0.976577 0
M  V30 846 H 83.5796 -4.95094 -2.44103 0
M  V30 847 H 86.0556 -3.06133 -2.81819 0
M  V30 848 H 84.9316 -3.72433 -4.03219 0
M  V30 849 H 85.1926 -1.9893 -3.94815 0
M  V30 850 N 84.2517 0.741722 -1.39055 0
M  V30 851 C 85.4997 1.49818 -1.35643 0
M  V30 852 C 85.8207 1.94938 0.0491642 0
M  V30 853 O 85.0907 1.68505 0.999141 0
M  V30 854 H 83.6707 0.555755 -0.499144 0
M  V30 855 H 86.3327 0.880957 -1.73854 0
M  V30 856 H 85.4287 2.38348 -2.01486 0
M  V30 857 N 85.7298 1.2412 0.971189 0
M  V30 858 C 87.0068 0.986867 1.6888 0
M  V30 859 C 87.3868 -0.491857 2.0529 0
M  V30 860 O 86.7348 -1.46531 1.75331 0
M  V30 861 C 86.9448 1.9063 2.92338 0
M  V30 862 C 88.2928 2.17515 3.64654 0
M  V30 863 O 89.3168 1.88254 3.02388 0
M  V30 864 O 88.1758 2.6719 4.7673 0
M  V30 865 H 85.2698 0.372944 0.738134 0
M  V30 866 H 87.8158 1.35203 1.02559 0
M  V30 867 H 86.5878 2.90552 2.62097 0
M  V30 868 H 86.2108 1.54408 3.66393 0
M  V30 869 N 87.2079 -1.17134 1.05439 0
M  V30 870 C 88.1409 -2.2012 0.601855 0
M  V30 871 C 89.1189 -1.58314 -0.370854 0
M  V30 872 O 90.3029 -1.8638 -0.281882 0
M  V30 873 C 87.4299 -3.38491 -0.118868 0
M  V30 874 C 86.4759 -4.18752 0.809242 0
M  V30 875 S 87.3089 -4.83602 2.29977 0
M  V30 876 C 88.4649 -6.0536 1.59029 0
M  V30 877 H 88.6979 -2.58165 1.47438 0
M  V30 878 H 86.2309 -1.27788 0.866573 0
M  V30 879 H 88.1889 -4.07084 -0.528495 0
M  V30 880 H 86.8499 -2.98829 -0.967465 0
M  V30 881 H 86.0429 -5.03373 0.251379 0
M  V30 882 H 85.6449 -3.5561 1.15835 0
M  V30 883 H 87.9369 -6.71615 0.891017 0
M  V30 884 H 88.8799 -6.65679 2.41407 0
M  V30 885 H 89.2879 -5.54138 1.07663 0
M  V30 886 N 88.686 -0.835752 -1.33615 0
M  V30 887 C 89.932 -0.430596 -1.98176 0
M  V30 888 C 90.265 1.00684 -1.66061 0
M  V30 889 O 89.54 1.70339 -0.938877 0
M  V30 890 C 89.823 -0.648065 -3.5422 0
M  V30 891 C 89.676 -2.13255 -3.96033 0
M  V30 892 C 90.995 -0.0922113 -4.40003 0
M  V30 893 H 88.114 -0.157924 -0.719881 0
M  V30 894 H 90.756 -1.05069 -1.58305 0
M  V30 895 H 88.906 -0.120237 -3.88314 0
M  V30 896 H 90.578 -2.725 -3.72211 0
M  V30 897 H 88.821 -2.61823 -3.45878 0
M  V30 898 H 89.492 -2.23547 -5.04708 0
M  V30 899 H 91.968 -0.543343 -4.12537 0
M  V30 900 H 90.844 -0.274083 -5.48215 0
M  V30 901 H 91.105 1.00378 -4.30554 0
M  V30 902 N 90.1641 1.46063 -0.591896 0
M  V30 903 C 91.0971 2.27452 0.184617 0
M  V30 904 C 92.0751 1.36188 0.888351 0
M  V30 905 O 93.2591 1.65606 0.90039 0
M  V30 906 C 90.3861 3.14162 1.26571 0
M  V30 907 C 89.4321 4.21255 0.666814 0
M  V30 908 S 90.2651 5.33034 -0.513345 0
M  V30 909 C 91.4211 6.23311 0.56872 0
M  V30 910 H 91.6541 2.92963 -0.505939 0
M  V30 911 H 89.1871 1.49676 -0.379014 0
M  V30 912 H 91.1451 3.6468 1.88463 0
M  V30 913 H 89.8061 2.47946 1.92826 0
M  V30 914 H 88.9991 4.81788 1.47974 0
M  V30 915 H 88.6011 3.73797 0.123359 0
M  V30 916 H 90.8931 6.61758 1.45198 0
M  V30 917 H 91.8361 7.081 -7.23824e-05 0
M  V30 918 H 92.2441 5.57646 0.876996 0
M  V30 919 N 91.6422 0.330177 1.54103 0
M  V30 920 C 92.6052 -0.520144 2.2322 0
M  V30 921 C 93.6052 -1.03828 1.22786 0
M  V30 922 O 94.7952 -0.929652 1.4732 0
M  V30 923 C 91.9272 -1.72317 2.94142 0
M  V30 924 H 93.1202 0.0841605 2.99782 0
M  V30 925 H 90.6732 0.0813433 1.56088 0
M  V30 926 H 91.4082 -2.36653 2.21734 0
M  V30 927 H 91.1932 -1.35898 3.67796 0
M  V30 928 H 92.6832 -2.3266 3.46784 0
M  V30 929 N 93.1203 -1.57491 0.0584922 0
M  V30 930 C 94.3483 -1.97296 -0.623037 0
M  V30 931 C 94.7633 -0.936338 -1.63946 0
M  V30 932 O 94.1203 0.0785981 -1.82331 0
M  V30 933 C 94.1713 -3.37183 -1.30345 0
M  V30 934 O 93.8923 -4.36872 -0.32773 0
M  V30 935 C 95.3933 -3.91788 -2.07406 0
M  V30 936 H 92.6133 -0.649153 -0.169826 0
M  V30 937 H 95.1573 -2.04106 0.12696 0
M  V30 938 H 93.3123 -3.31502 -2.00463 0
M  V30 939 H 93.7263 -5.18141 -0.814269 0
M  V30 940 H 95.2003 -4.91926 -2.50425 0
M  V30 941 H 95.6773 -3.27609 -2.92521 0
M  V30 942 H 96.2833 -4.00829 -1.42184 0
M  V30 943 N 94.5984 0.214957 -1.56127 0
M  V30 944 C 95.8444 0.939762 -1.79712 0
M  V30 945 C 96.1774 1.83723 -0.629247 0
M  V30 946 O 95.4524 1.90925 0.371197 0
M  V30 947 C 95.7354 1.77306 -3.13424 0
M  V30 948 C 95.5884 0.90164 -4.40671 0
M  V30 949 C 96.9074 2.74956 -3.43638 0
M  V30 950 H 94.0264 0.340214 -0.653776 0
M  V30 951 H 96.6684 0.20824 -1.88855 0
M  V30 952 H 94.8184 2.39673 -3.0576 0
M  V30 953 H 96.4904 0.294206 -4.60361 0
M  V30 954 H 94.7334 0.207368 -4.33304 0
M  V30 955 H 95.4044 1.51923 -5.30682 0
M  V30 956 H 97.8804 2.22724 -3.51473 0
M  V30 957 H 96.7564 3.30358 -4.38355 0
M  V30 958 H 97.0174 3.53023 -2.66134 0
M  V30 959 N 96.0765 1.50051 0.48192 0
M  V30 960 C 97.0235 1.68122 1.58125 0
M  V30 961 C 97.9935 0.522545 1.57666 0
M  V30 962 O 99.1785 0.751844 1.75362 0
M  V30 963 C 96.3185 1.77142 2.96167 0
M  V30 964 C 95.4315 3.0444 3.06497 0
M  V30 965 C 94.5665 3.04321 4.35387 0
M  V30 966 C 93.6055 4.26118 4.3942 0
M  V30 967 N 92.7425 4.238 5.59766 0
M  V30 968 H 97.5825 2.6198 1.42022 0
M  V30 969 H 95.1195 1.29877 0.690687 0
M  V30 970 H 97.0775 1.80352 3.76203 0
M  V30 971 H 95.7075 0.867329 3.1093 0
M  V30 972 H 94.7595 3.10752 2.19402 0
M  V30 973 H 96.0715 3.94426 3.05336 0
M  V30 974 H 95.2255 3.062 5.23762 0
M  V30 975 H 93.9645 2.12147 4.39141 0
M  V30 976 H 92.9695 4.24463 3.49444 0
M  V30 977 H 94.1945 5.19507 4.37366 0
M  V30 978 H 92.1405 3.34474 5.64326 0
M  V30 979 H 92.0575 5.07542 5.60301 0
M  V30 980 H 93.3255 4.2981 6.50295 0
M  V30 981 N 97.5546 -0.734337 1.39446 0
M  V30 982 C 98.5016 -1.84835 1.38219 0
M  V30 983 C 99.4716 -1.64331 0.24179 0
M  V30 984 O 100.657 -1.85728 0.437002 0
M  V30 985 C 97.7966 -3.22355 1.23212 0
M  V30 986 C 96.9096 -3.5456 2.46801 0
M  V30 987 C 96.0446 -4.81485 2.24377 0
M  V30 988 C 95.0836 -5.06536 3.43639 0
M  V30 989 N 94.2206 -6.24665 3.20528 0
M  V30 990 H 99.0606 -1.85219 2.33448 0
M  V30 991 H 96.5976 -0.905039 1.15963 0
M  V30 992 H 98.5556 -4.0174 1.12522 0
M  V30 993 H 97.1856 -3.21248 0.316121 0
M  V30 994 H 96.2376 -2.69872 2.68092 0
M  V30 995 H 97.5496 -3.6899 3.3563 0
M  V30 996 H 96.7036 -5.68852 2.10933 0
M  V30 997 H 95.4426 -4.6923 1.32944 0
M  V30 998 H 94.4476 -4.17632 3.5758 0
M  V30 999 H 95.6726 -5.20676 4.35974 0
M  V30 1000 H 93.6186 -6.13696 2.3176 0
M  V30 1001 H 93.5356 -6.39685 4.02913 0
M  V30 1002 H 94.8036 -7.14868 3.10779 0
M  V30 1003 N 99.0327 -1.24633 -0.964593 0
M  V30 1004 C 100.281 -1.08573 -1.70459 0
M  V30 1005 C 100.602 0.375655 -1.91347 0
M  V30 1006 O 99.8717 1.26779 -1.49345 0
M  V30 1007 H 98.4517 -0.398784 -0.631649 0
M  V30 1008 H 101.114 -1.56601 -1.16026 0
M  V30 1009 H 100.21 -1.58623 -2.68785 0
M  V30 1010 N 100.511 1.16574 -1.06058 0
M  V30 1011 C 101.458 2.20883 -0.669263 0
M  V30 1012 C 102.428 1.62729 0.332918 0
M  V30 1013 O 103.613 1.895 0.222346 0
M  V30 1014 C 100.753 3.45049 -0.0593572 0
M  V30 1015 C 99.8658 4.17458 -1.11143 0
M  V30 1016 C 99.0008 5.29135 -0.467916 0
M  V30 1017 C 98.0398 5.93343 -1.50369 0
M  V30 1018 N 97.1768 6.96516 -0.883706 0
M  V30 1019 H 102.017 2.53709 -1.5632 0
M  V30 1020 H 99.5538 1.24616 -0.781625 0
M  V30 1021 H 101.512 4.16033 0.311771 0
M  V30 1022 H 100.142 3.12781 0.797992 0
M  V30 1023 H 99.1938 3.45101 -1.60029 0
M  V30 1024 H 100.506 4.61307 -1.89731 0
M  V30 1025 H 99.6598 6.06684 -0.0436871 0
M  V30 1026 H 98.3988 4.86443 0.349864 0
M  V30 1027 H 97.4038 5.14517 -1.93784 0
M  V30 1028 H 98.6288 6.38114 -2.32352 0
M  V30 1029 H 96.5748 6.55943 -0.086595 0
M  V30 1030 H 96.4918 7.38723 -1.607 0
M  V30 1031 H 97.7598 7.77993 -0.484543 0
M  V30 1032 N 101.989 0.842826 1.3317 0
M  V30 1033 C 103.4 0.496651 1.79973 0
M  V30 1034 C 103.751 -0.984641 1.69703 0
M  V30 1035 O 102.876 -1.76743 1.24863 0
M  V30 1036 C 103.471 0.894727 3.26772 0
M  V30 1037 C 102.03 0.600629 3.71577 0
M  V30 1038 C 101.177 1.10091 2.5451 0
M  V30 1039 H 104.128 1.03116 1.20635 0
M  V30 1040 H 104.149 0.206347 3.7994 0
M  V30 1041 H 103.661 1.97287 3.34215 0
M  V30 1042 H 101.762 -0.467284 3.69658 0
M  V30 1043 H 101.875 1.15863 4.64879 0
M  V30 1044 H 100.239 0.52162 2.49301 0
M  V30 1045 H 101.022 2.18591 2.64713 0
M  V30 1046 N 103.467 -1.45747 0.599634 0
M  V30 1047 C 104.377 -2.34262 -0.125888 0
M  V30 1048 C 105.393 -1.50768 -0.868625 0
M  V30 1049 O 106.569 -1.83592 -0.828003 0
M  V30 1050 C 103.634 -3.28252 -1.11587 0
M  V30 1051 C 102.695 -4.27651 -0.375956 0
M  V30 1052 C 101.928 -5.1715 -1.31877 0
M  V30 1053 O 102.151 -5.09916 -2.55621 0
M  V30 1054 O 101.085 -5.96286 -0.820157 0
M  V30 1055 H 104.911 -2.97688 0.601315 0
M  V30 1056 H 102.496 -1.44999 0.359934 0
M  V30 1057 H 104.378 -3.86191 -1.68626 0
M  V30 1058 H 103.053 -2.67401 -1.82424 0
M  V30 1059 H 101.96 -3.7335 0.236698 0
M  V30 1060 H 103.293 -4.91334 0.29177 0
M  V30 1061 N 104.945 -0.338344 -1.53925 0
M  V30 1062 C 105.875 0.51328 -2.27789 0
M  V30 1063 C 106.856 1.107 -1.29149 0
M  V30 1064 O 108.041 1.12937 -1.57984 0
M  V30 1065 C 105.171 1.66697 -3.04679 0
M  V30 1066 C 104.125 1.20183 -4.1078 0
M  V30 1067 C 103.451 2.44363 -4.75595 0
M  V30 1068 C 104.751 0.30605 -5.21403 0
M  V30 1069 H 106.445 -0.102883 -2.99223 0
M  V30 1070 H 103.991 -0.0509219 -1.4391 0
M  V30 1071 H 105.944 2.26915 -3.55088 0
M  V30 1072 H 104.668 2.30995 -2.30887 0
M  V30 1073 H 103.327 0.622499 -3.61276 0
M  V30 1074 H 102.975 3.07057 -3.98403 0
M  V30 1075 H 102.675 2.13925 -5.47275 0
M  V30 1076 H 104.199 3.05317 -5.28786 0
M  V30 1077 H 105.613 0.814929 -5.67478 0
M  V30 1078 H 104.01 0.0937929 -6.00027 0
M  V30 1079 H 105.08 -0.65921 -4.80398 0
M  V30 1080 N 106.423 1.57458 -0.0668435 0
M  V30 1081 C 107.839 1.56947 0.289772 0
M  V30 1082 C 108.039 1.07584 1.70376 0
M  V30 1083 O 107.095 0.739486 2.41429 0
M  V30 1084 C 108.408 3.0052 0.103943 0
M  V30 1085 C 109.956 3.12517 0.173857 0
M  V30 1086 C 110.431 4.57997 0.0163682 0
M  V30 1087 N 111.922 4.63144 0.0721352 0
M  V30 1088 C 112.657 5.73394 -0.0253794 0
M  V30 1089 N 112.153 6.92576 -0.176133 0
M  V30 1090 N 113.946 5.62091 0.0313305 0
M  V30 1091 H 106.097 1.87863 -0.991027 0
M  V30 1092 H 108.36 0.86583 -0.38606 0
M  V30 1093 H 108.066 3.40729 -0.871572 0
M  V30 1094 H 107.94 3.67304 0.858366 0
M  V30 1095 H 110.327 2.72197 1.13985 0
M  V30 1096 H 110.408 2.48381 -0.611586 0
M  V30 1097 H 110.052 4.99005 -0.946374 0
M  V30 1098 H 109.982 5.20158 0.821153 0
M  V30 1099 H 112.473 3.77436 0.187263 0
M  V30 1100 H 112.786 7.72418 -0.242821 0
M  V30 1101 H 111.131 6.94678 -0.211429 0
M  V30 1102 H 114.322 4.67867 0.147773 0
M  V30 1103 H 114.495 6.47982 -0.048121 0
M  V30 1104 N 107.901 -0.206675 1.56239 0
M  V30 1105 C 108.848 -1.25617 1.93621 0
M  V30 1106 C 109.818 -1.45824 0.795274 0
M  V30 1107 O 111.003 -1.59148 1.05245 0
M  V30 1108 C 108.143 -2.59839 2.27107 0
M  V30 1109 C 107.256 -2.47308 3.54207 0
M  V30 1110 C 106.391 -3.74155 3.7707 0
M  V30 1111 C 105.43 -3.56407 4.97635 0
M  V30 1112 N 104.567 -4.75238 5.1681 0
M  V30 1113 H 109.407 -0.930383 2.83104 0
M  V30 1114 H 106.944 -0.448065 1.4011 0
M  V30 1115 H 108.902 -3.38021 2.44535 0
M  V30 1116 H 107.532 -2.90485 1.40778 0
M  V30 1117 H 106.584 -1.60483 3.4489 0
M  V30 1118 H 107.896 -2.30122 4.42544 0
M  V30 1119 H 107.05 -4.60778 3.94675 0
M  V30 1120 H 105.789 -3.94282 2.87042 0
M  V30 1121 H 104.794 -2.68168 4.79964 0
M  V30 1122 H 106.019 -3.37736 5.89161 0
M  V30 1123 H 103.965 -4.95651 4.29728 0
M  V30 1124 H 103.882 -4.60835 5.99306 0
M  V30 1125 H 105.15 -5.63246 5.38864 0
M  V30 1126 N 109.379 -1.50304 -0.473955 0
M  V30 1127 C 110.326 -1.68959 -1.57231 0
M  V30 1128 C 111.296 -0.530899 -1.57387 0
M  V30 1129 O 112.481 -0.761133 -1.74961 0
M  V30 1130 C 109.621 -1.7871 -2.95223 0
M  V30 1131 C 108.734 -3.06061 -3.04878 0
M  V30 1132 C 107.869 -3.06626 -4.33767 0
M  V30 1133 C 106.908 -4.28443 -4.37154 0
M  V30 1134 N 106.045 -4.26763 -5.5751 0
M  V30 1135 H 110.885 -2.6273 -1.40631 0
M  V30 1136 H 108.422 -1.30241 -0.683789 0
M  V30 1137 H 110.38 -1.82344 -3.75242 0
M  V30 1138 H 109.01 -0.883806 -3.10465 0
M  V30 1139 H 108.062 -3.11911 -2.17751 0
M  V30 1140 H 109.374 -3.96039 -3.0324 0
M  V30 1141 H 108.528 -3.08973 -5.22131 0
M  V30 1142 H 107.267 -2.14473 -4.3801 0
M  V30 1143 H 106.272 -4.2631 -3.47188 0
M  V30 1144 H 107.497 -5.2182 -4.34605 0
M  V30 1145 H 105.443 -3.37462 -5.62544 0
M  V30 1146 H 105.36 -5.10507 -5.57601 0
M  V30 1147 H 106.628 -4.33253 -6.48006 0
M  V30 1148 N 110.857 0.726932 -1.39834 0
M  V30 1149 C 112.103 1.48884 -1.377 0
M  V30 1150 C 112.436 1.94185 0.0244852 0
M  V30 1151 O 111.711 1.67361 0.990986 0
M  V30 1152 C 111.994 2.72288 -2.3565 0
M  V30 1153 C 111.847 2.32956 -3.84775 0
M  V30 1154 C 113.166 3.74414 -2.31306 0
M  V30 1155 H 110.285 0.540062 -0.5015 0
M  V30 1156 H 112.927 0.830547 -1.70886 0
M  V30 1157 H 111.077 3.28457 -2.07481 0
M  V30 1158 H 112.749 1.82356 -4.23726 0
M  V30 1159 H 110.992 1.65088 -4.01159 0
M  V30 1160 H 111.663 3.21362 -4.4881 0
M  V30 1161 H 114.139 3.27849 -2.56231 0
M  V30 1162 H 113.015 4.58414 -3.01907 0
M  V30 1163 H 113.276 4.21909 -1.32081 0
M  V30 1164 N 112.336 1.25143 0.95797 0
M  V30 1165 C 113.286 1.01924 2.0395 0
M  V30 1166 C 114.27 -0.0427175 1.60843 0
M  V30 1167 O 115.462 0.17221 1.7616 0
M  V30 1168 C 112.591 0.636373 3.3735 0
M  V30 1169 C 111.677 1.73492 3.8699 0
M  V30 1170 N 112.068 2.96945 4.0946 0
M  V30 1171 C 110.366 1.61467 4.15746 0
M  V30 1172 C 111.067 3.68228 4.50315 0
M  V30 1173 N 110.043 2.95833 4.56053 0
M  V30 1174 H 113.845 1.95653 2.19311 0
M  V30 1175 H 111.359 1.15413 1.14253 0
M  V30 1176 H 113.356 0.451233 4.14451 0
M  V30 1177 H 112.016 -0.293621 3.2337 0
M  V30 1178 H 113.027 3.33025 3.96629 0
M  V30 1179 H 109.704 0.753394 4.10646 0
M  V30 1180 H 111.094 4.74178 4.76031 0
M  V30 1181 N 113.814 -1.1601 1.06675 0
M  V30 1182 C 115.225 -1.68235 0.809565 0
M  V30 1183 C 115.576 -1.8454 -0.666303 0
M  V30 1184 O 114.701 -1.54374 -1.5165 0
M  V30 1185 C 115.296 -3.05585 1.46299 0
M  V30 1186 C 113.855 -3.54915 1.25349 0
M  V30 1187 C 113.002 -2.30804 1.53703 0
M  V30 1188 H 115.953 -1.00318 1.22971 0
M  V30 1189 H 115.974 -3.70174 0.880431 0
M  V30 1190 H 115.486 -2.93686 2.53713 0
M  V30 1191 H 113.587 -3.72067 0.199261 0
M  V30 1192 H 113.7 -4.36774 1.9689 0
M  V30 1193 H 112.064 -2.36007 0.957739 0
M  V30 1194 H 112.847 -2.21499 2.62284 0
M  V30 1195 N 115.292 -0.849877 -1.32721 0
M  V30 1196 C 116.255 -0.296122 -2.27279 0
M  V30 1197 C 117.255 0.541458 -1.5141 0
M  V30 1198 O 118.445 0.353658 -1.70572 0
M  V30 1199 C 115.577 0.581579 -3.35902 0
M  V30 1200 H 116.77 -1.13064 -2.77771 0
M  V30 1201 H 114.323 -0.62383 -1.43311 0
M  V30 1202 H 115.058 1.43809 -2.9067 0
M  V30 1203 H 114.843 -0.0178814 -3.92096 0
M  V30 1204 H 116.333 0.961951 -4.0637 0
M  V30 1205 N 116.77 1.45427 -0.607355 0
M  V30 1206 C 118.016 2.0254 -0.102607 0
M  V30 1207 C 118.349 1.47478 1.26348 0
M  V30 1208 O 117.624 0.64939 1.83339 0
M  V30 1209 C 117.907 3.60044 -0.0634347 0
M  V30 1210 C 117.76 4.2544 -1.46017 0
M  V30 1211 C 119.079 4.35646 0.624514 0
M  V30 1212 H 116.198 0.73598 -0.0387607 0
M  V30 1213 H 118.84 1.73284 -0.779282 0
M  V30 1214 H 116.99 3.85101 0.512808 0
M  V30 1215 H 118.662 4.11569 -2.08347 0
M  V30 1216 H 116.905 3.83849 -2.02094 0
M  V30 1217 H 117.576 5.34342 -1.385 0
M  V30 1218 H 120.052 4.15882 0.134723 0
M  V30 1219 H 118.928 5.45376 0.621028 0
M  V30 1220 H 119.189 4.08501 1.69055 0
M  V30 1221 N 118.248 0.346503 1.53744 0
M  V30 1222 C 119.494 -0.249473 2.0126 0
M  V30 1223 C 119.827 -1.49965 1.23386 0
M  V30 1224 O 119.102 -1.91811 0.32229 0
M  V30 1225 C 119.385 -0.560643 3.55709 0
M  V30 1226 C 119.238 0.701836 4.44291 0
M  V30 1227 C 120.557 -1.36905 4.18264 0
M  V30 1228 H 117.676 -0.0891987 0.731582 0
M  V30 1229 H 120.318 0.467624 1.84156 0
M  V30 1230 H 118.468 -1.17156 3.70414 0
M  V30 1231 H 120.14 1.33974 4.41417 0
M  V30 1232 H 118.383 1.32612 4.13033 0
M  V30 1233 H 119.054 0.43933 5.50249 0
M  V30 1234 H 121.53 -0.852448 4.07275 0
M  V30 1235 H 120.406 -1.55553 5.26398 0
M  V30 1236 H 120.667 -2.37203 3.73078 0
M  V30 1237 N 119.726 -1.57421 0.075193 0
M  V30 1238 C 120.975 -1.92794 -0.592731 0
M  V30 1239 C 121.288 -0.957478 -1.70563 0
M  V30 1240 O 122.494 -1.20417 -2.43335 0
M  V30 1241 C 120.95 -3.42495 -1.10569 0
M  V30 1242 C 120.558 -4.47994 -0.0236121 0
M  V30 1243 C 122.302 -3.86864 -1.74748 0
M  V30 1244 C 120.209 -5.88829 -0.550803 0
M  V30 1245 H 119.139 -0.719591 -0.225177 0
M  V30 1246 H 121.79 -1.82902 0.147978 0
M  V30 1247 H 120.172 -3.47471 -1.89947 0
M  V30 1248 H 121.346 -4.54637 0.751099 0
M  V30 1249 H 119.661 -4.13113 0.522159 0
M  V30 1250 H 122.258 -4.8947 -2.15229 0
M  V30 1251 H 122.601 -3.24417 -2.60882 0
M  V30 1252 H 123.134 -3.84504 -1.01986 0
M  V30 1253 H 119.873 -6.54929 0.273457 0
M  V30 1254 H 119.393 -5.85698 -1.29296 0
M  V30 1255 H 121.072 -6.38811 -1.02613 0
M  V30 1256 N 121.204 0.198386 -1.56346 0
M  V30 1257 C 122.62 0.549085 -1.49857 0
M  V30 1258 C 122.82 1.86016 -0.774611 0
M  V30 1259 O 121.876 2.50416 -0.323776 0
M  V30 1260 C 123.189 0.606868 -2.94512 0
M  V30 1261 C 124.737 0.695925 -3.05165 0
M  V30 1262 C 125.212 0.784848 -4.51225 0
M  V30 1263 N 126.703 0.848463 -4.55363 0
M  V30 1264 C 127.438 0.937378 -5.65686 0
M  V30 1265 N 126.934 0.9888 -6.85707 0
M  V30 1266 N 128.727 0.974312 -5.53592 0
M  V30 1267 H 120.878 -0.661655 -2.01831 0
M  V30 1268 H 123.141 -0.235261 -0.918344 0
M  V30 1269 H 122.847 -0.28732 -3.50524 0
M  V30 1270 H 122.721 1.46268 -3.47686 0
M  V30 1271 H 125.108 1.58055 -2.49204 0
M  V30 1272 H 125.189 -0.186022 -2.55123 0
M  V30 1273 H 124.833 -0.0954072 -5.0781 0
M  V30 1274 H 124.763 1.68255 -4.98997 0
M  V30 1275 H 127.254 0.818103 -3.68938 0
M  V30 1276 H 127.567 1.05707 -7.65536 0
M  V30 1277 H 125.912 0.957534 -6.88372 0
M  V30 1278 H 129.103 0.930954 -4.58749 0
M  V30 1279 H 129.276 1.04015 -6.39597 0
M  V30 1280 N 122.682 1.50554 0.465978 0
M  V30 1281 C 123.614 1.65949 1.58093 0
M  V30 1282 C 124.627 0.540827 1.53554 0
M  V30 1283 O 125.816 0.814187 1.5885 0
M  V30 1284 C 122.916 1.63261 2.96983 0
M  V30 1285 C 122.089 2.91245 3.26336 0
M  V30 1286 C 121.148 2.8113 4.44806 0
M  V30 1287 O 120.174 3.55086 4.44862 0
M  V30 1288 N 121.376 1.95032 5.46756 0
M  V30 1289 H 124.141 2.62122 1.45301 0
M  V30 1290 H 121.702 1.48082 0.65448 0
M  V30 1291 H 123.694 1.54101 3.74212 0
M  V30 1292 H 122.264 0.748032 3.03518 0
M  V30 1293 H 121.484 3.14493 2.37672 0
M  V30 1294 H 122.772 3.76022 3.42761 0
M  V30 1295 H 122.17 1.3427 5.49534 0
M  V30 1296 H 120.727 1.91772 6.2295 0
M  V30 1297 N 124.16 -0.719506 1.40217 0
M  V30 1298 C 125.576 -1.02707 1.22161 0
M  V30 1299 C 125.776 -2.0128 0.0940557 0
M  V30 1300 O 124.832 -2.46452 -0.549318 0
M  V30 1301 C 126.145 -1.57454 2.56181 0
M  V30 1302 C 127.693 -1.69458 2.63159 0
M  V30 1303 C 128.168 -2.27611 3.97438 0
M  V30 1304 N 129.659 -2.35002 3.99159 0
M  V30 1305 C 130.394 -2.80972 4.99842 0
M  V30 1306 N 129.89 -3.26723 6.10921 0
M  V30 1307 N 131.683 -2.80321 4.87213 0
M  V30 1308 H 123.834 -0.0660492 2.12297 0
M  V30 1309 H 126.097 -0.0919077 0.943534 0
M  V30 1310 H 125.803 -0.924873 3.39321 0
M  V30 1311 H 125.677 -2.56036 2.76993 0
M  V30 1312 H 128.064 -2.33543 1.80393 0
M  V30 1313 H 128.145 -0.694867 2.46181 0
M  V30 1314 H 127.789 -1.6415 4.80643 0
M  V30 1315 H 127.719 -3.2829 4.11744 0
M  V30 1316 H 130.21 -2.02685 3.18947 0
M  V30 1317 H 130.523 -3.60355 6.8364 0
M  V30 1318 H 128.868 -3.24692 6.14492 0
M  V30 1319 H 132.059 -2.43912 3.9953 0
M  V30 1320 H 132.232 -3.15831 5.65822 0
M  V30 1321 N 125.638 -1.25649 -0.95132 0
M  V30 1322 C 126.585 -1.06323 -2.04851 0
M  V30 1323 C 127.555 0.0286491 -1.66075 0
M  V30 1324 O 128.74 -0.12917 -1.90362 0
M  V30 1325 C 125.88 -0.691529 -3.381 0
M  V30 1326 C 124.993 -1.85861 -3.89974 0
M  V30 1327 C 124.128 -1.43096 -5.11563 0
M  V30 1328 C 123.167 -2.56696 -5.55674 0
M  V30 1329 N 122.304 -2.14684 -6.68472 0
M  V30 1330 H 127.144 -2.00222 -2.20715 0
M  V30 1331 H 124.681 -0.997027 -1.08156 0
M  V30 1332 H 126.639 -0.456963 -4.1469 0
M  V30 1333 H 125.269 0.210474 -3.22113 0
M  V30 1334 H 124.321 -2.20639 -3.09875 0
M  V30 1335 H 125.633 -2.71161 -4.18657 0
M  V30 1336 H 124.787 -1.15624 -5.9558 0
M  V30 1337 H 123.526 -0.548722 -4.84603 0
M  V30 1338 H 122.531 -2.84909 -4.7022 0
M  V30 1339 H 123.756 -3.45503 -5.8464 0
M  V30 1340 H 121.702 -1.28881 -6.43215 0
M  V30 1341 H 121.619 -2.9353 -6.96689 0
M  V30 1342 H 122.887 -1.90397 -7.5589 0
M  V30 1343 N 127.117 1.15442 -1.07289 0
M  V30 1344 C 128.342 1.90638 -0.816828 0
M  V30 1345 C 128.767 1.77445 0.624083 0
M  V30 1346 O 128.125 1.10671 1.43602 0
M  V30 1347 C 128.173 3.39008 -1.22906 0
M  V30 1348 O 127.277 4.10701 -0.373975 0
M  V30 1349 H 126.618 0.593555 -0.297638 0
M  V30 1350 H 129.148 1.46198 -1.43134 0
M  V30 1351 H 129.158 3.89801 -1.20497 0
M  V30 1352 H 127.833 3.47929 -2.27856 0
M  V30 1353 H 126.41 3.70046 -0.460499 0
M  V30 1354 N 128.595 0.856903 1.32268 0
M  V30 1355 C 129.825 0.47475 2.01071 0
M  V30 1356 C 130.233 -0.933746 1.64553 0
M  V30 1357 O 129.576 -1.62114 0.863989 0
M  V30 1358 C 129.638 0.536746 3.55471 0
M  V30 1359 C 129.302 1.90453 4.15423 0
M  V30 1360 C 130.299 2.87029 4.33486 0
M  V30 1361 C 127.984 2.20229 4.51447 0
M  V30 1362 C 129.978 4.11532 4.86744 0
M  V30 1363 C 127.665 3.44984 5.0441 0
M  V30 1364 C 128.663 4.40452 5.22007 0
M  V30 1365 O 128.351 5.62998 5.73837 0
M  V30 1366 H 128.083 0.184778 0.650256 0
M  V30 1367 H 130.637 1.15615 1.69771 0
M  V30 1368 H 128.867 -0.20152 3.86175 0
M  V30 1369 H 130.556 0.169875 4.05544 0
M  V30 1370 H 131.322 2.6533 4.05986 0
M  V30 1371 H 127.201 1.46705 4.37034 0
M  V30 1372 H 130.745 4.86056 5.00395 0
M  V30 1373 H 126.642 3.66532 5.31342 0
M  V30 1374 H 127.41 5.64987 5.92226 0
M  V30 1375 N 130.073 -1.45103 0.615059 0
M  V30 1376 C 131.489 -1.57137 0.279322 0
M  V30 1377 C 131.689 -1.60523 -1.21797 0
M  V30 1378 O 130.745 -1.53956 -2.00134 0
M  V30 1379 C 132.058 -2.85062 0.957083 0
M  V30 1380 C 133.606 -2.98749 0.933706 0
M  V30 1381 C 134.081 -4.29455 1.59162 0
M  V30 1382 N 135.572 -4.36231 1.55746 0
M  V30 1383 C 136.307 -5.36051 2.0356 0
M  V30 1384 N 135.803 -6.42367 2.59494 0
M  V30 1385 N 137.596 -5.27456 1.94284 0
M  V30 1386 H 129.747 -1.41148 1.58717 0
M  V30 1387 H 132.01 -0.675331 0.665306 0
M  V30 1388 H 131.716 -2.88488 2.01166 0
M  V30 1389 H 131.59 -3.7407 0.48494 0
M  V30 1390 H 133.977 -2.94886 -0.112347 0
M  V30 1391 H 134.058 -2.11132 1.44419 0
M  V30 1392 H 133.702 -4.34077 2.63704 0
M  V30 1393 H 133.632 -5.15901 1.0561 0
M  V30 1394 H 136.123 -3.60011 1.14893 0
M  V30 1395 H 136.436 -7.14793 2.93752 0
M  V30 1396 H 134.781 -6.43097 2.63537 0
M  V30 1397 H 137.972 -4.43308 1.5032 0
M  V30 1398 H 138.145 -6.05099 2.3186 0
M  V30 1399 N 131.551 -0.354651 -1.53558 0
M  V30 1400 C 132.967 -0.00315426 -1.596 0
M  V30 1401 C 133.167 1.47741 -1.37021 0
M  V30 1402 O 132.223 2.23759 -1.16996 0
M  V30 1403 C 133.536 -0.44929 -2.97325 0
M  V30 1404 C 135.084 -0.402578 -3.104 0
M  V30 1405 C 135.559 -0.824355 -4.5052 0
M  V30 1406 N 137.05 -0.778979 -4.56603 0
M  V30 1407 C 137.785 -1.07715 -5.63192 0
M  V30 1408 N 137.281 -1.44405 -6.77583 0
M  V30 1409 N 139.074 -1.00066 -5.53121 0
M  V30 1410 H 131.225 -1.31893 -1.66487 0
M  V30 1411 H 133.488 -0.538388 -0.780284 0
M  V30 1412 H 133.194 -1.48202 -3.1895 0
M  V30 1413 H 133.068 0.169772 -3.76818 0
M  V30 1414 H 135.455 0.621004 -2.88492 0
M  V30 1415 H 135.536 -1.05699 -2.32941 0
M  V30 1416 H 135.18 -1.846 -4.73165 0
M  V30 1417 H 135.11 -0.147304 -5.26394 0
M  V30 1418 H 137.601 -0.508528 -3.74463 0
M  V30 1419 H 137.914 -1.65612 -7.54846 0
M  V30 1420 H 136.259 -1.4826 -6.79002 0
M  V30 1421 H 139.45 -0.713293 -4.62633 0
M  V30 1422 H 139.623 -1.23638 -6.36096 0
M  V30 1423 N 133.029 1.57378 -0.0835403 0
M  V30 1424 C 133.976 2.13384 0.879539 0
M  V30 1425 C 134.946 1.04936 1.28754 0
M  V30 1426 O 136.131 1.32662 1.37133 0
M  V30 1427 C 133.271 2.70932 2.13752 0
M  V30 1428 C 132.384 3.93575 1.7811 0
M  V30 1429 C 131.519 4.39326 2.98607 0
M  V30 1430 C 130.558 5.54587 2.59037 0
M  V30 1431 N 129.695 5.95243 3.72331 0
M  V30 1432 H 134.535 2.9537 0.395076 0
M  V30 1433 H 132.072 1.45953 0.183349 0
M  V30 1434 H 134.03 3.02411 2.87408 0
M  V30 1435 H 132.66 1.91693 2.59718 0
M  V30 1436 H 131.712 3.68483 0.94469 0
M  V30 1437 H 133.024 4.77258 1.45005 0
M  V30 1438 H 132.178 4.72528 3.80529 0
M  V30 1439 H 130.917 3.5452 3.34913 0
M  V30 1440 H 129.922 5.21024 1.75539 0
M  V30 1441 H 131.147 6.41133 2.23887 0
M  V30 1442 H 129.093 5.13385 4.08378 0
M  V30 1443 H 129.01 6.73694 3.43034 0
M  V30 1444 H 130.278 6.33072 4.54797 0
M  V30 1445 N 134.507 -0.190092 1.56449 0
M  V30 1446 C 135.784 -0.935886 1.71757 0
M  V30 1447 C 136.164 -2.01173 0.639726 0
M  V30 1448 O 135.512 -2.25827 -0.348502 0
M  V30 1449 C 135.722 -1.51775 3.1427 0
M  V30 1450 C 137.07 -1.99794 3.74656 0
M  V30 1451 O 138.094 -1.61607 3.1743 0
M  V30 1452 O 136.953 -2.70079 4.751 0
M  V30 1453 H 134.047 -0.439229 0.700719 0
M  V30 1454 H 136.593 -0.179395 1.68749 0
M  V30 1455 H 135.365 -0.742505 3.84191 0
M  V30 1456 H 134.988 -2.33894 3.21527 0
M  V30 1457 N 135.985 -1.50799 -0.457987 0
M  V30 1458 C 137.233 -1.62121 -1.2067 0
M  V30 1459 C 137.554 -0.329793 -1.92191 0
M  V30 1460 O 136.824 0.653409 -1.84682 0
M  V30 1461 H 135.404 -0.597441 -0.448411 0
M  V30 1462 H 138.066 -1.87637 -0.527096 0
M  V30 1463 H 137.162 -2.43882 -1.94751 0
M  V30 1464 N 137.463 0.71206 -1.40597 0
M  V30 1465 C 138.709 1.47416 -1.39271 0
M  V30 1466 C 139.042 1.942 0.00388791 0
M  V30 1467 O 138.317 1.68403 0.973179 0
M  V30 1468 C 138.6 2.69774 -2.38525 0
M  V30 1469 C 138.453 2.28861 -3.87224 0
M  V30 1470 C 139.772 3.71939 -2.35264 0
M  V30 1471 H 136.891 0.534713 -0.5072 0
M  V30 1472 H 139.533 0.812375 -1.71757 0
M  V30 1473 H 137.683 3.26238 -2.10953 0
M  V30 1474 H 139.355 1.77852 -4.25636 0
M  V30 1475 H 137.598 1.60824 -4.02887 0
M  V30 1476 H 138.269 3.16584 -4.52193 0
M  V30 1477 H 140.745 3.25113 -2.59694 0
M  V30 1478 H 139.621 4.55186 -3.06753 0
M  V30 1479 H 139.882 4.20484 -1.36549 0
M  V30 1480 N 138.941 1.26152 0.944643 0
M  V30 1481 C 140.188 1.11492 1.69044 0
M  V30 1482 C 140.516 -0.342366 1.91463 0
M  V30 1483 O 139.771 -1.26812 1.49054 0
M  V30 1484 C 140.07 1.82541 3.07268 0
M  V30 1485 C 139.736 3.32445 3.04616 0
M  V30 1486 C 138.398 3.73337 3.036 0
M  V30 1487 C 140.75 4.28171 2.97185 0
M  V30 1488 C 138.078 5.08348 2.92915 0
M  V30 1489 C 140.43 5.63218 2.88041 0
M  V30 1490 C 139.094 6.03426 2.85366 0
M  V30 1491 H 138.364 0.407977 0.618576 0
M  V30 1492 H 141.011 1.56551 1.10291 0
M  V30 1493 H 139.316 1.29941 3.69625 0
M  V30 1494 H 141.013 1.68642 3.63815 0
M  V30 1495 H 137.603 2.99915 3.06185 0
M  V30 1496 H 141.787 3.97563 2.97081 0
M  V30 1497 H 137.043 5.38667 2.89219 0
M  V30 1498 H 141.217 6.37078 2.81254 0
M  V30 1499 H 138.844 7.07999 2.76842 0
M  V30 1500 N 140.419 -1.14872 1.07899 0
M  V30 1501 C 141.349 -2.2193 0.725887 0
M  V30 1502 C 142.33 -1.67622 -0.28927 0
M  V30 1503 O 143.515 -1.93533 -0.160787 0
M  V30 1504 C 140.645 -3.47061 0.128856 0
M  V30 1505 C 139.599 -4.14363 1.07178 0
M  V30 1506 C 138.925 -5.33636 0.337229 0
M  V30 1507 C 140.225 -4.63492 2.40775 0
M  V30 1508 H 141.919 -2.51724 1.62097 0
M  V30 1509 H 139.465 -1.20991 0.780838 0
M  V30 1510 H 141.418 -4.21199 -0.130147 0
M  V30 1511 H 140.142 -3.16617 -0.80134 0
M  V30 1512 H 138.801 -3.42173 1.3158 0
M  V30 1513 H 138.449 -4.99449 -0.596606 0
M  V30 1514 H 138.149 -5.79609 0.965788 0
M  V30 1515 H 139.673 -6.10539 0.0861567 0
M  V30 1516 H 141.087 -5.2913 2.20669 0
M  V30 1517 H 139.484 -5.20148 2.99276 0
M  V30 1518 H 140.554 -3.78834 3.02676 0
M  V30 1519 N 141.898 -0.863906 -1.31812 0
M  V30 1520 C 143.128 -0.485406 -2.00817 0
M  V30 1521 C 143.536 0.925007 -1.65046 0
M  V30 1522 O 142.879 1.61653 -0.872574 0
M  V30 1523 C 142.941 -0.555589 -3.55181 0
M  V30 1524 C 142.605 -1.92654 -4.14407 0
M  V30 1525 C 143.602 -2.89324 -4.31958 0
M  V30 1526 C 141.287 -2.2262 -4.50273 0
M  V30 1527 C 143.281 -4.14108 -4.84555 0
M  V30 1528 C 140.968 -3.47654 -5.02573 0
M  V30 1529 C 141.966 -4.43214 -5.19664 0
M  V30 1530 O 141.654 -5.66033 -5.70843 0
M  V30 1531 H 141.386 -0.188224 -0.649267 0
M  V30 1532 H 143.94 -1.16514 -1.69156 0
M  V30 1533 H 142.17 0.181037 -3.86276 0
M  V30 1534 H 143.859 -0.19138 -4.05449 0
M  V30 1535 H 144.625 -2.6748 -4.04573 0
M  V30 1536 H 140.504 -1.4902 -4.3625 0
M  V30 1537 H 144.048 -4.88703 -4.9781 0
M  V30 1538 H 139.945 -3.69345 -5.29391 0
M  V30 1539 H 140.713 -5.6812 -5.89222 0
M  V30 1540 N 143.376 1.44774 -0.622745 0
M  V30 1541 C 144.623 2.02121 -0.1239 0
M  V30 1542 C 144.951 1.48915 1.25118 0
M  V30 1543 O 144.206 0.660045 1.84233 0
M  V30 1544 C 144.505 3.57364 -0.0508323 0
M  V30 1545 C 144.171 4.29787 -1.36358 0
M  V30 1546 C 142.833 4.4929 -1.72314 0
M  V30 1547 C 145.185 4.71062 -2.23048 0
M  V30 1548 C 142.513 5.07325 -2.94682 0
M  V30 1549 C 144.865 5.30452 -3.44679 0
M  V30 1550 C 143.529 5.48175 -3.80868 0
M  V30 1551 H 142.799 0.739612 -0.0453381 0
M  V30 1552 H 145.446 1.73648 -0.807389 0
M  V30 1553 H 143.751 3.85202 0.715991 0
M  V30 1554 H 145.448 3.99456 0.351533 0
M  V30 1555 H 142.038 4.14932 -1.07375 0
M  V30 1556 H 146.222 4.55715 -1.96565 0
M  V30 1557 H 141.478 5.19235 -3.22809 0
M  V30 1558 H 145.652 5.61385 -4.12092 0
M  V30 1559 H 143.279 5.92912 -4.75773 0
M  V30 1560 N 144.854 0.36279 1.53368 0
M  V30 1561 C 145.764 -0.492994 2.29362 0
M  V30 1562 C 146.78 -1.09507 1.35219 0
M  V30 1563 O 147.956 -1.10662 1.68273 0
M  V30 1564 C 145.021 -1.61855 3.066 0
M  V30 1565 C 144.082 -1.04429 4.16405 0
M  V30 1566 C 143.315 -2.11621 4.89951 0
M  V30 1567 O 143.538 -3.32684 4.63333 0
M  V30 1568 O 142.472 -1.74835 5.75948 0
M  V30 1569 H 146.298 0.125331 3.03441 0
M  V30 1570 H 143.883 0.127253 1.48857 0
M  V30 1571 H 145.765 -2.27302 3.54841 0
M  V30 1572 H 144.44 -2.22233 2.3536 0
M  V30 1573 H 143.347 -0.353819 3.72423 0
M  V30 1574 H 144.68 -0.485113 4.89804 0
M  V30 1575 N 146.332 -1.57332 0.0918853 0
M  V30 1576 C 147.609 -1.85691 -0.614668 0
M  V30 1577 C 147.989 -0.988146 -1.86545 0
M  V30 1578 O 147.337 -0.0597055 -2.28422 0
M  V30 1579 C 147.547 -3.36294 -0.933126 0
M  V30 1580 C 148.895 -4.04275 -1.29796 0
M  V30 1581 O 149.919 -3.41157 -1.02424 0
M  V30 1582 O 148.778 -5.1564 -1.81047 0
M  V30 1583 H 145.872 -0.767802 -0.307261 0
M  V30 1584 H 148.418 -1.69244 0.12434 0
M  V30 1585 H 147.19 -3.91273 -0.0456404 0
M  V30 1586 H 146.813 -3.58076 -1.72822 0
M  V30 1587 N 147.81 0.181792 -1.56548 0
M  V30 1588 C 148.758 1.24461 -1.965 0
M  V30 1589 C 149.752 1.464 -0.852261 0
M  V30 1590 O 150.958 1.47103 -1.03733 0
M  V30 1591 H 147.333 0.418138 -0.625031 0
M  V30 1592 H 149.304 0.880714 -2.85107 0
M  V30 1593 C 148.053 2.57891 -2.33212 0
M  V30 1594 H 147.376 2.41829 -3.18369 0
M  V30 1595 H 148.816 3.3097 -2.65019 0
M  V30 1596 C 147.275 3.15871 -1.17163 0
M  V30 1597 O 147.805 3.9913 -0.453708 0
M  V30 1598 N 146.011 2.74808 -0.944936 0
M  V30 1599 H 145.558 2.07205 -1.53049 0
M  V30 1600 H 145.516 3.13939 -0.170286 0
M  V30 1601 N 149.288 1.51039 0.449983 0
M  V30 1602 C 150.251 1.70863 1.5277 0
M  V30 1603 C 151.251 0.578846 1.5002 0
M  V30 1604 O 152.441 0.846213 1.52266 0
M  V30 1605 C 149.573 1.75341 2.9235 0
M  V30 1606 H 150.766 2.67034 1.36502 0
M  V30 1607 H 148.319 1.40838 0.677812 0
M  V30 1608 H 149.054 0.809383 3.14037 0
M  V30 1609 H 148.839 2.57436 2.95752 0
M  V30 1610 H 150.329 1.92559 3.70555 0
M  V30 1611 N 150.766 -0.704594 1.40972 0
M  V30 1612 C 152.014 -1.46169 1.39568 0
M  V30 1613 C 152.335 -1.95 0.00253745 0
M  V30 1614 O 151.605 -1.71095 -0.954114 0
M  V30 1615 H 150.185 -0.542326 0.513704 0
M  V30 1616 H 152.847 -0.834553 1.76128 0
M  V30 1617 H 151.943 -2.32922 2.07735 0
M  V30 1618 N 152.244 -1.26651 -0.937939 0
M  V30 1619 C 153.49 -1.12553 -1.687 0
M  V30 1620 C 153.823 0.329782 -1.91379 0
M  V30 1621 O 153.098 1.24202 -1.4968 0
M  V30 1622 C 153.381 -1.89862 -3.05981 0
M  V30 1623 C 153.234 -3.43318 -2.90607 0
M  V30 1624 C 154.553 -1.69499 -4.0615 0
M  V30 1625 H 151.672 -0.410257 -0.612257 0
M  V30 1626 H 154.314 -1.55685 -1.08913 0
M  V30 1627 H 152.464 -1.53204 -3.57017 0
M  V30 1628 H 154.136 -3.89747 -2.46769 0
M  V30 1629 H 152.379 -3.70179 -2.26164 0
M  V30 1630 H 153.05 -3.92642 -3.8799 0
M  V30 1631 H 155.526 -2.01442 -3.64088 0
M  V30 1632 H 154.402 -2.26002 -5.00214 0
M  V30 1633 H 154.663 -0.640365 -4.37438 0
M  V30 1634 N 153.722 1.14298 -1.08507 0
M  V30 1635 C 154.971 1.84708 -0.810305 0
M  V30 1636 C 155.284 1.83903 0.666271 0
M  V30 1637 O 156.49 2.50112 1.05624 0
M  V30 1638 C 154.946 3.31572 -1.39957 0
M  V30 1639 C 154.554 3.40791 -2.90801 0
M  V30 1640 C 156.298 4.07087 -1.20334 0
M  V30 1641 C 154.205 4.81872 -3.4286 0
M  V30 1642 H 153.135 0.691985 -0.299454 0
M  V30 1643 H 155.786 1.28841 -1.30661 0
M  V30 1644 H 154.168 3.87183 -0.830976 0
M  V30 1645 H 155.342 2.95225 -3.53806 0
M  V30 1646 H 153.657 2.78732 -3.0935 0
M  V30 1647 H 156.254 5.11225 -1.56693 0
M  V30 1648 H 156.597 4.16054 -0.143237 0
M  V30 1649 H 157.13 3.57779 -1.73893 0
M  V30 1650 H 153.869 4.78094 -4.48449 0
M  V30 1651 H 153.389 5.27972 -2.84615 0
M  V30 1652 H 155.068 5.50765 -3.39509 0
M  V30 1653 N 155.201 0.870884 1.31352 0
M  V30 1654 C 156.447 0.482987 1.96965 0
M  V30 1655 C 156.78 -0.962462 1.68672 0
M  V30 1656 O 156.055 -1.6779 0.98371 0
M  V30 1657 C 156.338 0.741752 3.52378 0
M  V30 1658 C 156.191 2.2368 3.9024 0
M  V30 1659 C 157.51 0.208838 4.39604 0
M  V30 1660 H 154.629 0.176955 0.715441 0
M  V30 1661 H 157.271 1.09229 1.55464 0
M  V30 1662 H 155.421 0.223149 3.87859 0
M  V30 1663 H 157.093 2.82273 3.64856 0
M  V30 1664 H 155.336 2.70901 3.38814 0
M  V30 1665 H 156.007 2.3685 4.98604 0
M  V30 1666 H 158.483 0.652529 4.10952 0
M  V30 1667 H 157.359 0.419336 5.47296 0
M  V30 1668 H 157.62 -0.889275 4.33064 0
M  V30 1669 N 156.679 -1.44442 0.630414 0
M  V30 1670 C 157.627 -2.32437 -0.0871428 0
M  V30 1671 C 158.621 -1.47304 -0.836525 0
M  V30 1672 O 159.827 -1.63653 -0.749506 0
M  V30 1673 H 156.202 -0.750533 -0.0469495 0
M  V30 1674 H 158.173 -2.90709 0.673096 0
M  V30 1675 C 156.922 -3.31288 -1.05563 0
M  V30 1676 H 156.245 -3.96805 -0.488426 0
M  V30 1677 H 157.685 -3.9554 -1.52721 0
M  V30 1678 C 156.144 -2.6016 -2.14052 0
M  V30 1679 O 156.674 -2.39997 -3.22124 0
M  V30 1680 N 154.88 -2.19911 -1.89967 0
M  V30 1681 H 154.427 -2.36509 -1.02085 0
M  V30 1682 H 154.385 -1.72646 -2.62756 0
M  V30 1683 N 158.157 -0.370918 -1.53173 0
M  V30 1684 C 159.105 0.488101 -2.27421 0
M  V30 1685 C 160.099 1.07884 -1.30604 0
M  V30 1686 O 161.305 1.02143 -1.48212 0
M  V30 1687 H 157.68 0.176134 -0.731082 0
M  V30 1688 H 159.651 -0.159815 -2.97972 0
M  V30 1689 C 158.4 1.61306 -3.08019 0
M  V30 1690 H 157.723 1.1678 -3.82364 0
M  V30 1691 H 159.163 2.18872 -3.63141 0
M  V30 1692 C 157.622 2.55848 -2.19188 0
M  V30 1693 O 158.152 3.58799 -1.80626 0
M  V30 1694 N 156.358 2.2516 -1.83715 0
M  V30 1695 H 155.905 1.41476 -2.15273 0
M  V30 1696 H 155.863 2.8867 -1.24567 0
M  V30 1697 N 159.635 1.57281 -0.100228 0
M  V30 1698 C 160.582 2.14305 0.856858 0
M  V30 1699 C 161.552 1.06296 1.27634 0
M  V30 1700 O 162.737 1.34109 1.35718 0
M  V30 1701 C 159.877 2.73184 2.10866 0
M  V30 1702 C 158.99 3.95442 1.73925 0
M  V30 1703 C 158.125 4.42468 2.93931 0
M  V30 1704 C 157.164 5.57303 2.5314 0
M  V30 1705 N 156.301 5.99158 3.65997 0
M  V30 1706 H 161.141 2.95772 0.363726 0
M  V30 1707 H 158.678 1.46139 0.167858 0
M  V30 1708 H 160.636 3.05442 2.84185 0
M  V30 1709 H 159.266 1.94437 2.57671 0
M  V30 1710 H 158.318 3.69464 0.905554 0
M  V30 1711 H 159.63 4.78769 1.39935 0
M  V30 1712 H 158.784 4.76537 3.75496 0
M  V30 1713 H 157.523 3.58052 3.31134 0
M  V30 1714 H 156.528 5.22857 1.70003 0
M  V30 1715 H 157.753 6.43471 2.17075 0
M  V30 1716 H 155.699 5.17687 4.02909 0
M  V30 1717 H 155.616 6.77295 3.35869 0
M  V30 1718 H 156.884 6.3786 4.48057 0
M  V30 1719 N 161.113 -0.173488 1.56642 0
M  V30 1720 C 162.361 -0.888706 1.81512 0
M  V30 1721 C 162.682 -1.82875 0.676872 0
M  V30 1722 O 161.952 -1.93536 -0.303414 0
M  V30 1723 H 160.532 -0.331164 0.669582 0
M  V30 1724 H 163.194 -0.173823 1.94123 0
M  V30 1725 H 162.29 -1.46691 2.75478 0
M  V30 1726 N 162.591 -1.51276 -0.441967 0
M  V30 1727 C 163.501 -1.75092 -1.56141 0
M  V30 1728 C 164.517 -0.634963 -1.62001 0
M  V30 1729 O 165.693 -0.916686 -1.79329 0
M  V30 1730 C 162.758 -1.86666 -2.92158 0
M  V30 1731 C 161.819 -3.10506 -2.96453 0
M  V30 1732 C 161.052 -3.21519 -4.25982 0
M  V30 1733 O 161.275 -2.38586 -5.18105 0
M  V30 1734 O 160.209 -4.14465 -4.36466 0
M  V30 1735 H 164.035 -2.70044 -1.38961 0
M  V30 1736 H 161.62 -1.35722 -0.624499 0
M  V30 1737 H 163.502 -1.96292 -3.72891 0
M  V30 1738 H 162.177 -0.949014 -3.09476 0
M  V30 1739 H 161.084 -3.06363 -2.14692 0
M  V30 1740 H 162.417 -4.01945 -2.84079 0
M  V30 1741 N 164.069 0.697108 -1.41344 0
M  V30 1742 C 165.002 1.82134 -1.37486 0
M  V30 1743 C 165.98 1.60784 -0.242351 0
M  V30 1744 O 167.164 1.83553 -0.429012 0
M  V30 1745 C 164.291 3.18788 -1.14421 0
M  V30 1746 C 163.337 3.58932 -2.3037 0
M  V30 1747 S 164.17 3.63916 -3.92843 0
M  V30 1748 C 165.326 5.03298 -3.72078 0
M  V30 1749 H 165.559 1.85129 -2.32625 0
M  V30 1750 H 163.092 0.865671 -1.2785 0
M  V30 1751 H 165.05 3.97677 -1.018 0
M  V30 1752 H 163.711 3.13404 -0.20905 0
M  V30 1753 H 162.904 4.58202 -2.09922 0
M  V30 1754 H 162.506 2.87347 -2.39391 0
M  V30 1755 H 164.798 5.90753 -3.31688 0
M  V30 1756 H 165.741 5.28788 -4.70945 0
M  V30 1757 H 166.149 4.74764 -3.05384 0
M  V30 1758 N 165.547 1.27147 0.931209 0
M  V30 1759 C 166.494 1.09568 2.03134 0
M  V30 1760 C 167.464 -0.00222433 1.661 0
M  V30 1761 O 168.649 0.159439 1.90133 0
M  V30 1762 C 165.789 0.745231 3.36957 0
M  V30 1763 C 164.902 1.92041 3.86968 0
M  V30 1764 C 164.037 1.51216 5.09222 0
M  V30 1765 C 163.076 2.65504 5.5152 0
M  V30 1766 N 162.213 2.25291 6.64972 0
M  V30 1767 H 167.053 2.03708 2.17502 0
M  V30 1768 H 164.59 1.01411 1.06556 0
M  V30 1769 H 166.548 0.522878 4.1391 0
M  V30 1770 H 165.178 -0.159202 3.22407 0
M  V30 1771 H 164.23 2.25541 3.06326 0
M  V30 1772 H 165.542 2.77787 4.1429 0
M  V30 1773 H 164.696 1.25084 5.93666 0
M  V30 1774 H 163.435 0.625749 4.83669 0
M  V30 1775 H 162.44 2.92354 4.65628 0
M  V30 1776 H 163.665 3.54761 5.7907 0
M  V30 1777 H 161.611 1.39098 6.41083 0
M  V30 1778 H 161.528 3.04577 6.91931 0
M  V30 1779 H 162.796 2.02398 7.52765 0
M  V30 1780 N 167.025 -1.13721 1.09112 0
M  V30 1781 C 168.273 -1.84559 0.823562 0
M  V30 1782 C 168.594 -1.83754 -0.652658 0
M  V30 1783 O 167.864 -1.29102 -1.47342 0
M  V30 1784 H 166.444 -0.683376 0.301673 0
M  V30 1785 H 169.106 -1.37771 1.37859 0
M  V30 1786 H 168.202 -2.8917 1.17419 0
M  V30 1787 N 168.503 -0.877838 -1.30888 0
M  V30 1788 C 169.728 -0.506629 -2.01117 0
M  V30 1789 C 170.153 0.895564 -1.65412 0
M  V30 1790 O 169.511 1.5923 -0.866922 0
M  V30 1791 C 169.559 -0.680223 -3.54126 0
M  V30 1792 O 168.663 0.277033 -4.11468 0
M  V30 1793 H 168.004 -0.200518 -0.633 0
M  V30 1794 H 170.534 -1.18342 -1.66902 0
M  V30 1795 H 170.544 -0.5765 -4.03907 0
M  V30 1796 H 169.219 -1.70261 -3.79452 0
M  V30 1797 H 167.796 0.127606 -3.72682 0
M  V30 1798 N 169.982 1.44106 -0.638065 0
M  V30 1799 C 170.945 2.29138 0.0531013 0
M  V30 1800 C 171.945 1.41409 0.765506 0
M  V30 1801 O 173.135 1.63206 0.609046 0
M  V30 1802 C 170.267 3.23144 1.08584 0
M  V30 1803 H 171.46 2.91739 -0.694883 0
M  V30 1804 H 169.013 1.51134 -0.398538 0
M  V30 1805 H 169.748 2.65408 1.86357 0
M  V30 1806 H 169.533 3.87804 0.578852 0
M  V30 1807 H 171.023 3.87004 1.56899 0
M  V30 1808 N 171.46 0.379036 1.52974 0
M  V30 1809 C 172.709 -0.207612 2.00629 0
M  V30 1810 C 173.022 -1.48758 1.27006 0
M  V30 1811 O 174.228 -2.15365 1.65318 0
M  V30 1812 C 172.684 -0.42053 3.57435 0
M  V30 1813 C 172.292 0.845587 4.39948 0
M  V30 1814 C 174.036 -0.964102 4.13407 0
M  V30 1815 C 171.943 0.601513 5.88333 0
M  V30 1816 H 170.873 -0.0813591 0.749598 0
M  V30 1817 H 173.524 0.499853 1.76561 0
M  V30 1818 H 171.906 -1.18959 3.7771 0
M  V30 1819 H 173.08 1.61848 4.31442 0
M  V30 1820 H 171.395 1.31336 3.95145 0
M  V30 1821 H 173.992 -1.16225 5.21916 0
M  V30 1822 H 174.335 -1.93019 3.68849 0
M  V30 1823 H 174.868 -0.25487 3.96983 0
M  V30 1824 H 171.607 1.53831 6.37194 0
M  V30 1825 H 171.127 -0.132628 5.99653 0
M  V30 1826 H 172.806 0.232134 6.46583 0
M  V30 1827 N 172.938 -1.57226 0.108567 0
M  V30 1828 C 174.166 -1.99179 -0.559954 0
M  V30 1829 C 174.581 -0.988022 -1.60884 0
M  V30 1830 O 173.938 0.0205512 -1.82488 0
M  V30 1831 C 173.989 -3.41159 -1.19552 0
M  V30 1832 O 173.71 -4.37694 -0.188577 0
M  V30 1833 C 175.211 -3.98188 -1.94837 0
M  V30 1834 H 172.431 -0.654228 -0.149088 0
M  V30 1835 H 174.975 -2.03598 0.19183 0
M  V30 1836 H 173.13 -3.37711 -1.89815 0
M  V30 1837 H 173.544 -5.20469 -0.649014 0
M  V30 1838 H 175.018 -4.99644 -2.34648 0
M  V30 1839 H 175.495 -3.3675 -2.81951 0
M  V30 1840 H 176.101 -4.0515 -1.2936 0
M  V30 1841 N 174.416 0.165178 -1.56732 0
M  V30 1842 C 175.664 0.879068 -1.8198 0
M  V30 1843 C 175.985 1.82514 -0.686561 0
M  V30 1844 O 175.255 1.93694 0.293146 0
M  V30 1845 H 173.835 0.327608 -0.671329 0
M  V30 1846 H 176.497 0.163526 -1.94213 0
M  V30 1847 H 175.593 1.45228 -2.76252 0
M  V30 1848 N 175.894 1.51508 0.433938 0
M  V30 1849 C 177.305 1.56784 1.01369 0
M  V30 1850 C 177.656 0.393349 1.92217 0
M  V30 1851 O 176.781 -0.489441 2.10792 0
M  V30 1852 C 177.376 2.84144 1.8452 0
M  V30 1853 C 175.935 2.9198 2.37539 0
M  V30 1854 C 175.082 2.51482 1.16843 0
M  V30 1855 H 178.033 1.57236 0.215081 0
M  V30 1856 H 178.054 2.68098 2.70007 0
M  V30 1857 H 177.566 3.69607 1.18373 0
M  V30 1858 H 175.667 2.10955 3.0713 0
M  V30 1859 H 175.78 3.95704 2.70103 0
M  V30 1860 H 174.144 2.04758 1.51481 0
M  V30 1861 H 174.927 3.39293 0.523015 0
M  V30 1862 N 177.372 -0.689602 1.41712 0
M  V30 1863 C 178.618 -1.45181 1.41599 0
M  V30 1864 C 178.951 -1.94181 0.0270081 0
M  V30 1865 O 178.226 -1.6993 -0.946265 0
M  V30 1866 C 178.509 -2.65945 2.42787 0
M  V30 1867 C 178.362 -2.22672 3.90816 0
M  V30 1868 C 179.681 -3.68149 2.41151 0
M  V30 1869 H 176.8 -0.526576 0.515642 0
M  V30 1870 H 179.442 -0.784947 1.73028 0
M  V30 1871 H 177.592 -3.2284 2.16116 0
M  V30 1872 H 179.264 -1.71058 4.28412 0
M  V30 1873 H 177.507 -1.54394 4.05395 0
M  V30 1874 H 178.178 -3.0935 4.57172 0
M  V30 1875 H 180.654 -3.2094 2.64834 0
M  V30 1876 H 179.53 -4.50248 3.13955 0
M  V30 1877 H 179.791 -4.18259 1.43221 0
M  V30 1878 N 178.85 -1.27639 -0.924453 0
M  V30 1879 C 179.813 -1.10681 -2.00705 0
M  V30 1880 C 180.813 -0.0497823 -1.60723 0
M  V30 1881 O 182.003 -0.294654 -1.7169 0
M  V30 1882 C 179.135 -0.687164 -3.33902 0
M  V30 1883 H 180.328 -2.06817 -2.17179 0
M  V30 1884 H 177.881 -1.10473 -1.10569 0
M  V30 1885 H 178.616 0.275439 -3.23128 0
M  V30 1886 H 178.401 -1.45061 -3.6428 0
M  V30 1887 H 179.891 -0.590853 -4.13399 0
M  V30 1888 N 180.328 1.1314 -1.09713 0
M  V30 1889 C 181.275 2.18642 -0.739196 0
M  V30 1890 C 182.245 1.63706 0.280978 0
M  V30 1891 O 183.43 1.90111 0.161946 0
M  V30 1892 C 180.57 3.44685 -0.169102 0
M  V30 1893 C 179.683 4.13711 -1.24367 0
M  V30 1894 C 178.818 5.27379 -0.636019 0
M  V30 1895 C 177.857 5.88259 -1.69169 0
M  V30 1896 N 176.994 6.93352 -1.10485 0
M  V30 1897 H 181.834 2.48607 -1.64312 0
M  V30 1898 H 179.371 1.22066 -0.820875 0
M  V30 1899 H 181.329 4.16815 0.179256 0
M  V30 1900 H 179.959 3.15161 0.698079 0
M  V30 1901 H 179.011 3.39835 -1.70927 0
M  V30 1902 H 180.323 4.55037 -2.04311 0
M  V30 1903 H 179.477 6.06238 -0.236677 0
M  V30 1904 H 178.216 4.8731 0.194928 0
M  V30 1905 H 177.221 5.08092 -2.10055 0
M  V30 1906 H 178.446 6.30399 -2.52536 0
M  V30 1907 H 176.392 6.55335 -0.295234 0
M  V30 1908 H 176.309 7.33236 -1.84121 0
M  V30 1909 H 177.577 7.76057 -0.73181 0
M  V30 1910 N 181.806 0.884767 1.30421 0
M  V30 1911 C 182.716 0.355398 2.31892 0
M  V30 1912 C 183.732 -0.542261 1.65335 0
M  V30 1913 O 184.908 -0.435432 1.96637 0
M  V30 1914 C 181.973 -0.421661 3.44126 0
M  V30 1915 C 181.034 0.505727 4.26311 0
M  V30 1916 C 180.267 -0.234343 5.33185 0
M  V30 1917 O 180.49 -1.46045 5.51386 0
M  V30 1918 O 179.424 0.415443 6.00465 0
M  V30 1919 H 183.25 1.19685 2.79122 0
M  V30 1920 H 180.835 0.648596 1.34587 0
M  V30 1921 H 182.717 -0.861641 4.12497 0
M  V30 1922 H 181.392 -1.23942 2.99032 0
M  V30 1923 H 180.299 0.994513 3.60639 0
M  V30 1924 H 181.632 1.28948 4.75009 0
M  V30 1925 N 183.284 -1.43765 0.645699 0
M  V30 1926 C 184.524 -2.03776 0.159542 0
M  V30 1927 C 184.888 -1.49792 -1.2011 0
M  V30 1928 O 186.089 -2.01398 -1.78023 0
M  V30 1929 C 184.36 -3.57036 0.161251 0
M  V30 1930 S 185.919 -4.3804 -0.258159 0
M  V30 1931 H 182.737 -0.707717 0.0682454 0
M  V30 1932 H 185.339 -1.75941 0.852352 0
M  V30 1933 H 184.043 -3.9383 1.15439 0
M  V30 1934 H 183.574 -3.89503 -0.552339 0
M  V30 1935 H 185.589 -4.7302 -1.49889 0
M  V30 1936 N 184.763 -0.387143 -1.52771 0
M  V30 1937 C 185.726 0.436939 -2.24997 0
M  V30 1938 C 186.726 0.991991 -1.26555 0
M  V30 1939 O 187.916 0.874335 -1.50669 0
M  V30 1940 C 185.048 1.61281 -3.00335 0
M  V30 1941 H 186.241 -0.195365 -2.99263 0
M  V30 1942 H 183.794 -0.139218 -1.55679 0
M  V30 1943 H 184.529 2.2826 -2.30364 0
M  V30 1944 H 184.314 1.22154 -3.72587 0
M  V30 1945 H 185.804 2.19629 -3.5518 0
M  V30 1946 N 186.241 1.57166 -0.116904 0
M  V30 1947 C 187.518 1.86645 0.585049 0
M  V30 1948 C 187.898 1.0177 1.84949 0
M  V30 1949 O 187.246 0.0960379 2.28298 0
M  V30 1950 C 187.456 3.37736 0.879507 0
M  V30 1951 C 188.804 4.06289 1.23348 0
M  V30 1952 O 189.828 3.42743 0.969836 0
M  V30 1953 O 188.687 5.18455 1.7282 0
M  V30 1954 H 185.781 0.772593 0.295007 0
M  V30 1955 H 188.327 1.69025 -0.151249 0
M  V30 1956 H 187.099 3.91296 -0.0166136 0
M  V30 1957 H 186.722 3.6078 1.67103 0
M  V30 1958 N 187.719 -0.156864 1.56817 0
M  V30 1959 C 188.649 -1.19589 2.00551 0
M  V30 1960 C 189.63 -1.4536 0.883426 0
M  V30 1961 O 190.815 -1.56449 1.15054 0
M  V30 1962 C 187.945 -2.53143 2.37773 0
M  V30 1963 C 186.899 -2.41913 3.53075 0
M  V30 1964 C 186.225 -3.80088 3.76081 0
M  V30 1965 C 187.525 -1.91157 4.86062 0
M  V30 1966 H 189.219 -0.832293 2.87599 0
M  V30 1967 H 186.765 -0.398918 1.38364 0
M  V30 1968 H 188.718 -3.26047 2.66967 0
M  V30 1969 H 187.442 -2.91319 1.4765 0
M  V30 1970 H 186.101 -1.71462 3.24031 0
M  V30 1971 H 185.749 -4.15683 2.83225 0
M  V30 1972 H 185.449 -3.73439 4.53671 0
M  V30 1973 H 186.973 -4.54556 4.0769 0
M  V30 1974 H 188.387 -2.53846 5.14038 0
M  V30 1975 H 186.784 -1.95422 5.67389 0
M  V30 1976 H 187.854 -0.866673 4.77092 0
M  V30 1977 N 189.197 -1.51736 -0.425897 0
M  V30 1978 C 190.443 -1.66174 -1.17294 0
M  V30 1979 C 190.798 -0.37876 -1.88635 0
M  V30 1980 O 190.091 0.626021 -1.81084 0
M  V30 1981 C 190.285 -2.81103 -2.20717 0
M  V30 1982 C 190.114 -4.20453 -1.59529 0
M  V30 1983 C 188.884 -4.86225 -1.37525 0
M  V30 1984 C 191.082 -5.03146 -1.06528 0
M  V30 1985 N 189.064 -6.09657 -0.720537 0
M  V30 1986 C 190.435 -6.17674 -0.536506 0
M  V30 1987 C 192.49 -4.88594 -0.958127 0
M  V30 1988 C 191.193 -7.19245 0.0888917 0
M  V30 1989 C 193.219 -5.90383 -0.346608 0
M  V30 1990 C 192.581 -7.04191 0.171564 0
M  V30 1991 H 188.68 -0.661871 -0.416475 0
M  V30 1992 H 191.264 -1.88997 -0.467801 0
M  V30 1993 H 189.435 -2.59924 -2.88607 0
M  V30 1994 H 191.167 -2.84662 -2.87663 0
M  V30 1995 H 187.922 -4.44293 -1.64015 0
M  V30 1996 H 188.346 -6.75756 -0.410292 0
M  V30 1997 H 192.988 -4.0085 -1.34459 0
M  V30 1998 H 190.706 -8.06628 0.48746 0
M  V30 1999 H 194.292 -5.81194 -0.265451 0
M  V30 2000 H 193.172 -7.81606 0.637309 0
M  V30 2001 N 190.675 0.682077 -1.42076 0
M  V30 2002 C 192.086 1.26246 -1.37546 0
M  V30 2003 C 192.437 1.96092 -0.0651481 0
M  V30 2004 O 191.562 1.99587 0.836297 0
M  V30 2005 C 192.157 2.29594 -2.49143 0
M  V30 2006 C 190.716 2.83175 -2.47969 0
M  V30 2007 C 189.863 1.57395 -2.28303 0
M  V30 2008 H 192.814 0.475937 -1.51395 0
M  V30 2009 H 192.835 3.11175 -2.18976 0
M  V30 2010 H 192.347 1.78729 -3.44496 0
M  V30 2011 H 190.448 3.3818 -1.56413 0
M  V30 2012 H 190.561 3.32687 -3.44755 0
M  V30 2013 H 188.925 1.83699 -1.76428 0
M  V30 2014 H 189.708 1.08507 -3.25701 0
M  V30 2015 N 192.153 1.28127 0.917671 0
M  V30 2016 C 193.569 1.05749 1.19538 0
M  V30 2017 C 193.769 -0.202633 2.00479 0
M  V30 2018 O 192.825 -0.905382 2.3571 0
M  V30 2019 C 194.138 2.30273 1.93378 0
M  V30 2020 C 195.686 2.35412 2.06277 0
M  V30 2021 C 196.161 3.59692 2.83524 0
M  V30 2022 N 197.652 3.60309 2.91087 0
M  V30 2023 C 198.387 4.53147 3.51348 0
M  V30 2024 N 197.883 5.563 4.12919 0
M  V30 2025 N 199.676 4.40751 3.48849 0
M  V30 2026 H 191.827 2.09024 0.377184 0
M  V30 2027 H 194.09 0.919798 0.22951 0
M  V30 2028 H 193.796 3.22055 1.41328 0
M  V30 2029 H 193.67 2.36378 2.93947 0
M  V30 2030 H 196.057 1.4413 2.57508 0
M  V30 2031 H 196.138 2.33304 1.04895 0
M  V30 2032 H 195.782 4.51316 2.32973 0
M  V30 2033 H 195.712 3.59054 3.85211 0
M  V30 2034 H 198.203 2.85714 2.47338 0
M  V30 2035 H 198.516 6.2329 4.56869 0
M  V30 2036 H 196.861 5.60131 4.11435 0
M  V30 2037 H 200.052 3.59367 2.99955 0
M  V30 2038 H 200.225 5.13291 3.9552 0
M  V30 2039 N 193.631 -1.12557 1.10312 0
M  V30 2040 C 194.88 -1.83395 0.839588 0
M  V30 2041 C 195.193 -1.84939 -0.636929 0
M  V30 2042 O 196.399 -2.51761 -1.01631 0
M  V30 2043 C 194.855 -3.29303 1.45215 0
M  V30 2044 C 194.463 -3.36122 2.96186 0
M  V30 2045 C 196.207 -4.05121 1.26796 0
M  V30 2046 C 194.114 -4.76357 3.50483 0
M  V30 2047 H 193.044 -0.687133 0.310425 0
M  V30 2048 H 195.695 -1.26746 1.32694 0
M  V30 2049 H 194.077 -3.85812 0.892469 0
M  V30 2050 H 195.251 -2.89559 3.58458 0
M  V30 2051 H 193.566 -2.73776 3.13745 0
M  V30 2052 H 196.163 -5.08668 1.64806 0
M  V30 2053 H 196.506 -4.15773 0.209409 0
M  V30 2054 H 197.039 -3.54967 1.79563 0
M  V30 2055 H 193.778 -4.70899 4.55998 0
M  V30 2056 H 193.298 -5.23377 2.92978 0
M  V30 2057 H 194.977 -5.45294 3.48228 0
M  V30 2058 N 195.109 -0.891671 -1.2995 0
M  V30 2059 C 196.072 -0.36828 -2.26222 0
M  V30 2060 C 197.072 0.493014 -1.53056 0
M  V30 2061 O 198.262 0.299213 -1.71611 0
M  V30 2062 C 195.394 0.47442 -3.37583 0
M  V30 2063 H 196.587 -1.21844 -2.74033 0
M  V30 2064 H 194.14 -0.669107 -1.41254 0
M  V30 2065 H 194.875 1.34489 -2.95099 0
M  V30 2066 H 194.66 -0.142615 -3.91841 0
M  V30 2067 H 196.15 0.83218 -4.09224 0
M  V30 2068 N 196.587 1.43421 -0.653314 0
M  V30 2069 C 197.812 2.06678 -0.172846 0
M  V30 2070 C 198.237 1.48648 1.15262 0
M  V30 2071 O 197.595 0.596457 1.71208 0
M  V30 2072 C 197.643 3.60474 -0.0953184 0
M  V30 2073 O 196.747 4.01487 0.942442 0
M  V30 2074 H 196.088 0.657181 -0.0949155 0
M  V30 2075 H 198.618 1.83925 -0.896265 0
M  V30 2076 H 198.628 4.07905 0.0879728 0
M  V30 2077 H 197.303 4.02088 -1.06291 0
M  V30 2078 H 195.88 3.65646 0.731932 0
M  V30 2079 N 198.065 0.39524 1.52563 0
M  V30 2080 C 199.013 -0.451859 2.28169 0
M  V30 2081 C 200.007 -1.05792 1.32304 0
M  V30 2082 O 201.213 -0.997718 1.49818 0
M  V30 2083 H 197.588 -0.164481 0.733792 0
M  V30 2084 H 199.559 0.207199 2.9768 0
M  V30 2085 C 198.308 -1.56385 3.10546 0
M  V30 2086 H 197.631 -1.10682 3.84174 0
M  V30 2087 H 199.071 -2.13067 3.66577 0
M  V30 2088 C 197.53 -2.52328 2.23231 0
M  V30 2089 O 198.06 -3.5588 1.86312 0
M  V30 2090 N 196.266 -2.22209 1.87274 0
M  V30 2091 H 195.813 -1.38033 2.17496 0
M  V30 2092 H 195.771 -2.86652 1.29143 0
M  V30 2093 N 199.544 -1.57102 0.125237 0
M  V30 2094 C 200.507 -2.14471 -0.80838 0
M  V30 2095 C 201.507 -1.0811 -1.19033 0
M  V30 2096 O 202.697 -1.33856 -1.11482 0
M  V30 2097 C 199.829 -2.69005 -2.09402 0
M  V30 2098 H 201.022 -2.98297 -0.309696 0
M  V30 2099 H 198.575 -1.55807 -0.124051 0
M  V30 2100 H 199.31 -1.88785 -2.63687 0
M  V30 2101 H 199.095 -3.46799 -1.82957 0
M  V30 2102 H 200.585 -3.13278 -2.76128 0
M  V30 2103 N 201.022 0.148545 -1.56898 0
M  V30 2104 C 202.27 0.859717 -1.82902 0
M  V30 2105 C 202.591 1.81775 -0.70588 0
M  V30 2106 O 201.861 1.93994 0.272586 0
M  V30 2107 H 200.441 0.320469 -0.674766 0
M  V30 2108 H 203.103 0.142918 -1.94375 0
M  V30 2109 H 202.199 1.4229 -2.77777 0
M  V30 2110 N 202.5 1.5196 0.417844 0
M  V30 2111 C 203.725 1.69717 1.1921 0
M  V30 2112 C 204.15 0.402148 1.83751 0
M  V30 2113 O 203.508 -0.639593 1.69643 0
M  V30 2114 C 203.556 2.82794 2.2374 0
M  V30 2115 O 202.66 2.47756 3.29683 0
M  V30 2116 H 202.001 0.565263 0.348387 0
M  V30 2117 H 204.531 1.98621 0.490985 0
M  V30 2118 H 204.541 3.07452 2.68212 0
M  V30 2119 H 203.216 3.76756 1.76146 0
M  V30 2120 H 201.793 2.33739 2.90552 0
M  V30 2121 N 203.978 -0.674533 1.42435 0
M  V30 2122 C 205.227 -1.43034 1.42212 0
M  V30 2123 C 205.54 -1.95555 0.0420788 0
M  V30 2124 O 206.746 -2.71374 -0.0827558 0
M  V30 2125 C 205.202 -2.58748 2.50155 0
M  V30 2126 C 204.81 -2.12925 3.94166 0
M  V30 2127 C 206.554 -3.36257 2.59098 0
M  V30 2128 C 204.461 -3.25723 4.93618 0
M  V30 2129 H 203.391 -0.537345 0.528939 0
M  V30 2130 H 206.042 -0.73024 1.68344 0
M  V30 2131 H 204.424 -3.31128 2.17188 0
M  V30 2132 H 205.598 -1.47697 4.36488 0
M  V30 2133 H 203.913 -1.48354 3.89076 0
M  V30 2134 H 206.51 -4.20264 3.30578 0
M  V30 2135 H 206.853 -3.82866 1.63461 0
M  V30 2136 H 207.386 -2.70947 2.9126 0
M  V30 2137 H 204.125 -2.84105 5.90732 0
M  V30 2138 H 203.645 -3.89732 4.55926 0
M  V30 2139 H 205.324 -3.91186 5.15347 0
M  V30 2140 N 205.456 -1.28612 -0.910864 0
M  V30 2141 C 206.419 -1.12803 -1.9952 0
M  V30 2142 C 207.419 -0.0668264 -1.60661 0
M  V30 2143 O 208.609 -0.312847 -1.71368 0
M  V30 2144 C 205.741 -0.72254 -3.33155 0
M  V30 2145 H 206.934 -2.09109 -2.14973 0
M  V30 2146 H 204.487 -1.11639 -1.09391 0
M  V30 2147 H 205.222 0.241152 -3.23402 0
M  V30 2148 H 205.007 -1.48916 -3.62721 0
M  V30 2149 H 206.497 -0.634666 -4.12749 0
M  V30 2150 O 206.973 1.04587 -1.2306 0
M  V30 2151 H 207.664 1.65902 -0.999811 0
M  V30 END ATOM
M  V30 BEGIN BOND
M  V30 END BOND
M  V30 END CTAB
M  END
$$$$
