drugbank_target|Q8ZPC0 Acetyl transferase (DB01992; DB02175)
 OpenBabel12092120233D

  0  0  0     0  0            999 V3000
M  V30 BEGIN CTAB
M  V30 COUNTS 2869 2899 0 0 0
M  V30 BEGIN ATOM
M  V30 1 H -0.908 1.98254 -0.117106 0
M  V30 2 N 0 1.576 0 0
M  V30 3 C 0.933 2.03868 1.02534 0
M  V30 4 C 1.911 0.928543 1.3348 0
M  V30 5 O 3.095 1.19667 1.45644 0
M  V30 6 C 0.222 2.43627 2.35294 0
M  V30 7 C -0.732 3.65373 2.2001 0
M  V30 8 S 0.101 5.13292 1.52614 0
M  V30 9 C 1.257 5.56322 2.86805 0
M  V30 10 H 1.49 2.90518 0.631377 0
M  V30 11 H -0.977 1.52953 0.210867 0
M  V30 12 H 0.981 2.67203 3.11629 0
M  V30 13 H -0.358 1.57376 2.7183 0
M  V30 14 H -1.165 3.90944 3.18086 0
M  V30 15 H -1.563 3.418 1.51819 0
M  V30 16 H 0.729 5.58782 3.83104 0
M  V30 17 H 1.672 6.56266 2.65933 0
M  V30 18 H 2.08 4.83886 2.90714 0
M  V30 19 N 1.4781 -0.272755 1.55222 0
M  V30 20 C 2.7241 -1.00581 1.761 0
M  V30 21 C 3.0571 -1.85932 0.560625 0
M  V30 22 O 2.3321 -1.89416 -0.441801 0
M  V30 23 C 2.6151 -1.88816 3.06628 0
M  V30 24 C 2.4681 -1.06457 4.37021 0
M  V30 25 C 3.7871 -2.8752 3.33197 0
M  V30 26 H 0.9061 -0.364244 0.640699 0
M  V30 27 H 3.5481 -0.278189 1.87952 0
M  V30 28 H 1.6981 -2.50856 2.96654 0
M  V30 29 H 3.3701 -0.464863 4.58952 0
M  V30 30 H 1.6131 -0.368043 4.32236 0
M  V30 31 H 2.2841 -1.71514 5.24678 0
M  V30 32 H 4.7601 -2.35615 3.42965 0
M  V30 33 H 3.6361 -3.46399 4.25792 0
M  V30 34 H 3.8971 -3.62657 2.52849 0
M  V30 35 N 2.9562 -1.48159 -0.537278 0
M  V30 36 C 3.8662 -1.64807 -1.6696 0
M  V30 37 C 4.8822 -0.530651 -1.65711 0
M  V30 38 O 6.0582 -0.800784 -1.84796 0
M  V30 39 C 3.1232 -1.67708 -3.03438 0
M  V30 40 C 2.1842 -2.91025 -3.156 0
M  V30 41 C 1.4172 -2.93778 -4.45567 0
M  V30 42 O 1.6402 -2.05153 -5.3223 0
M  V30 43 O 0.5742 -3.85868 -4.61941 0
M  V30 44 H 4.4002 -2.6066 -1.55853 0
M  V30 45 H 1.9852 -1.31475 -0.709549 0
M  V30 46 H 3.8672 -1.7218 -3.84619 0
M  V30 47 H 2.5422 -0.750278 -3.14885 0
M  V30 48 H 1.4492 -2.92089 -2.33741 0
M  V30 49 H 2.7822 -3.83065 -3.09066 0
M  V30 50 N 4.4343 0.785586 -1.36625 0
M  V30 51 C 5.6833 1.53883 -1.30396 0
M  V30 52 C 5.9963 1.95271 0.113452 0
M  V30 53 O 7.2023 2.69858 0.298142 0
M  V30 54 C 5.6583 2.77808 -2.28802 0
M  V30 55 C 5.2663 2.43574 -3.75999 0
M  V30 56 C 7.0103 3.55783 -2.31558 0
M  V30 57 C 4.9173 3.63919 -4.66173 0
M  V30 58 H 3.8473 0.577678 -0.484566 0
M  V30 59 H 6.4983 0.861705 -1.62009 0
M  V30 60 H 4.8803 3.47339 -1.90188 0
M  V30 61 H 6.0543 1.81916 -4.23371 0
M  V30 62 H 4.3693 1.78803 -3.76056 0
M  V30 63 H 6.9663 4.45205 -2.96137 0
M  V30 64 H 7.3093 3.94644 -1.3252 0
M  V30 65 H 7.8423 2.93235 -2.68809 0
M  V30 66 H 4.5813 3.3015 -5.66287 0
M  V30 67 H 4.1013 4.2473 -4.23515 0
M  V30 68 H 5.7803 4.30901 -4.82632 0
M  V30 69 N 5.9124 1.20967 1.01018 0
M  V30 70 C 7.1614 1.01796 1.74128 0
M  V30 71 C 7.4744 -0.449691 1.90361 0
M  V30 72 O 8.6804 -0.76068 2.60626 0
M  V30 73 C 7.1364 1.7727 3.13215 0
M  V30 74 C 6.7444 3.28171 3.04972 0
M  V30 75 C 8.4884 1.66489 3.90489 0
M  V30 76 C 6.3954 3.96156 4.39107 0
M  V30 77 H 5.3254 0.377276 0.652824 0
M  V30 78 H 7.9764 1.44651 1.12909 0
M  V30 79 H 6.3584 1.27205 3.75013 0
M  V30 80 H 7.5324 3.85499 2.52443 0
M  V30 81 H 5.8474 3.39437 2.41188 0
M  V30 82 H 8.4444 2.14617 4.89738 0
M  V30 83 H 8.7874 0.6222 4.11624 0
M  V30 84 H 9.3204 2.14003 3.35332 0
M  V30 85 H 6.0594 5.00604 4.23174 0
M  V30 86 H 5.5794 3.43617 4.91617 0
M  V30 87 H 7.2584 4.00774 5.07926 0
M  V30 88 N 7.3905 -1.2043 1.01659 0
M  V30 89 C 8.8015 -1.71517 0.737482 0
M  V30 90 C 9.1525 -1.81547 -0.743973 0
M  V30 91 O 8.2775 -1.47803 -1.58061 0
M  V30 92 C 8.8725 -3.11515 1.33206 0
M  V30 93 C 7.4315 -3.59912 1.10183 0
M  V30 94 C 6.5785 -2.37116 1.43776 0
M  V30 95 H 9.5295 -1.05444 1.18606 0
M  V30 96 H 9.5505 -3.73575 0.722636 0
M  V30 97 H 9.0625 -3.04182 2.41028 0
M  V30 98 H 7.1635 -3.72577 0.0412756 0
M  V30 99 H 7.2765 -4.44731 1.78188 0
M  V30 100 H 5.6405 -2.39857 0.856778 0
M  V30 101 H 6.4235 -2.32424 2.52654 0
M  V30 102 N 8.8686 -0.792821 -1.36206 0
M  V30 103 C 10.1146 -0.36733 -1.99446 0
M  V30 104 C 10.4476 1.05917 -1.62774 0
M  V30 105 O 9.7226 1.7324 -0.88421 0
M  V30 106 C 10.0056 -0.535044 -3.56103 0
M  V30 107 C 9.8586 -2.00548 -4.02617 0
M  V30 108 C 11.1776 0.0478191 -4.40074 0
M  V30 109 H 8.2966 -0.134941 -0.724541 0
M  V30 110 H 10.9386 -0.999794 -1.61568 0
M  V30 111 H 9.0886 0.00336329 -3.885 0
M  V30 112 H 10.7606 -2.60521 -3.80692 0
M  V30 113 H 9.0036 -2.50686 -3.54032 0
M  V30 114 H 9.6746 -2.07377 -5.11565 0
M  V30 115 H 12.1506 -0.411822 -4.14057 0
M  V30 116 H 11.0266 -0.0995336 -5.4881 0
M  V30 117 H 11.2876 1.14025 -4.27142 0
M  V30 118 N 10.3467 1.47872 -0.545128 0
M  V30 119 C 11.5717 2.07391 -0.0190611 0
M  V30 120 C 11.9967 1.39688 1.25971 0
M  V30 121 O 11.3547 0.467816 1.7516 0
M  V30 122 C 11.4027 3.60188 0.172335 0
M  V30 123 O 10.5067 3.9339 1.23766 0
M  V30 124 H 9.8477 0.662411 -0.0459059 0
M  V30 125 H 12.3777 1.90066 -0.757365 0
M  V30 126 H 12.3877 4.06129 0.390305 0
M  V30 127 H 11.0627 4.08865 -0.761725 0
M  V30 128 H 9.6397 3.5921 1.00114 0
M  V30 129 N 11.8248 0.280983 1.55075 0
M  V30 130 C 13.0528 -0.337293 2.04132 0
M  V30 131 C 13.4678 -1.4903 1.15912 0
M  V30 132 O 12.8248 -1.81606 0.180459 0
M  V30 133 C 12.8758 -0.812706 3.52246 0
M  V30 134 O 12.5968 0.294387 4.3711 0
M  V30 135 C 14.0978 -1.4982 4.17216 0
M  V30 136 H 11.3178 -0.0761638 0.666663 0
M  V30 137 H 13.8618 0.414787 2.00249 0
M  V30 138 H 12.0168 -1.51486 3.56554 0
M  V30 139 H 12.4308 -0.0721325 5.2445 0
M  V30 140 H 13.9048 -1.7822 5.22438 0
M  V30 141 H 14.3818 -2.43168 3.65741 0
M  V30 142 H 14.9878 -0.839742 4.16927 0
M  V30 143 N 13.3029 -1.57598 0.00835791 0
M  V30 144 C 14.5309 -1.95214 -0.68549 0
M  V30 145 C 14.9459 -0.883706 -1.66841 0
M  V30 146 O 14.3029 0.136565 -1.81988 0
M  V30 147 C 14.3539 -3.32865 -1.41007 0
M  V30 148 O 14.0749 -4.35609 -0.466552 0
M  V30 149 C 15.5759 -3.84991 -2.19765 0
M  V30 150 H 12.7959 -0.643422 -0.190392 0
M  V30 151 H 15.3399 -2.04406 0.0619607 0
M  V30 152 H 13.4949 -3.24956 -2.10908 0
M  V30 153 H 13.9089 -5.15288 -0.978699 0
M  V30 154 H 15.3829 -4.8371 -2.65948 0
M  V30 155 H 15.8599 -3.18137 -3.02796 0
M  V30 156 H 16.4659 -3.96103 -1.54864 0
M  V30 157 N 14.781 0.264519 -1.55364 0
M  V30 158 C 15.711 1.33121 -1.91836 0
M  V30 159 C 16.692 1.51101 -0.781192 0
M  V30 160 O 17.877 1.64003 -1.04003 0
M  V30 161 C 15.007 2.68921 -2.19769 0
M  V30 162 C 13.961 2.65661 -3.35571 0
M  V30 163 C 13.287 4.05093 -3.49004 0
M  V30 164 C 14.587 2.24187 -4.71739 0
M  V30 165 H 16.281 1.02844 -2.81182 0
M  V30 166 H 13.827 0.493286 -1.35287 0
M  V30 167 H 15.78 3.43663 -2.43872 0
M  V30 168 H 14.504 3.00799 -1.27231 0
M  V30 169 H 13.163 1.93377 -3.1145 0
M  V30 170 H 12.811 4.34206 -2.53917 0
M  V30 171 H 12.511 4.03804 -4.26868 0
M  V30 172 H 14.035 4.81561 -3.75408 0
M  V30 173 H 15.449 2.88654 -4.9533 0
M  V30 174 H 13.846 2.34044 -5.52579 0
M  V30 175 H 14.916 1.19327 -4.69988 0
M  V30 176 N 16.2591 1.48442 0.529413 0
M  V30 177 C 17.1691 1.6569 1.66084 0
M  V30 178 C 18.1851 0.539432 1.65427 0
M  V30 179 O 19.3611 0.810572 1.84368 0
M  V30 180 C 16.4261 1.69315 3.02545 0
M  V30 181 C 15.4871 2.92694 3.14052 0
M  V30 182 C 14.7201 2.96137 4.44003 0
M  V30 183 O 14.9431 2.07973 5.31134 0
M  V30 184 O 13.8771 3.88312 4.59888 0
M  V30 185 H 17.7031 2.61483 1.54469 0
M  V30 186 H 15.2881 1.3185 0.702567 0
M  V30 187 H 17.1701 1.74217 3.83701 0
M  V30 188 H 15.8451 0.766966 3.14483 0
M  V30 189 H 14.7521 2.93324 2.32189 0
M  V30 190 H 16.0851 3.84699 3.0703 0
M  V30 191 N 17.7372 -0.778329 1.37039 0
M  V30 192 C 18.6672 -1.90546 1.34962 0
M  V30 193 C 19.6482 -1.68681 0.219274 0
M  V30 194 O 20.8332 -1.89634 0.418624 0
M  V30 195 C 17.9632 -3.27734 1.14925 0
M  V30 196 C 16.9172 -3.64147 2.24902 0
M  V30 197 C 16.2432 -4.99806 1.89996 0
M  V30 198 C 17.5432 -3.71579 3.67051 0
M  V30 199 H 19.2372 -1.92541 2.29277 0
M  V30 200 H 16.7832 -0.924948 1.10366 0
M  V30 201 H 18.7362 -4.06215 1.12104 0
M  V30 202 H 17.4602 -3.26154 0.170631 0
M  V30 203 H 16.1192 -2.8797 2.26868 0
M  V30 204 H 15.7672 -4.94759 0.906796 0
M  V30 205 H 15.4672 -5.25139 2.63634 0
M  V30 206 H 16.9912 -5.80694 1.88749 0
M  V30 207 H 18.4052 -4.40227 3.67251 0
M  V30 208 H 16.8022 -4.08405 4.39688 0
M  V30 209 H 17.8722 -2.72404 4.01154 0
M  V30 210 N 19.2153 -1.21501 -1.00376 0
M  V30 211 C 20.6313 -0.972629 -1.26539 0
M  V30 212 C 20.8313 0.340257 -1.98606 0
M  V30 213 O 19.8873 1.06561 -2.28913 0
M  V30 214 C 21.2003 -2.16404 -2.08781 0
M  V30 215 C 22.7483 -2.20643 -2.22004 0
M  V30 216 C 23.2233 -3.39306 -3.07629 0
M  V30 217 N 24.7143 -3.39401 -3.15217 0
M  V30 218 C 25.4493 -4.27867 -3.81729 0
M  V30 219 N 24.9453 -5.26533 -4.5026 0
M  V30 220 N 26.7383 -4.15672 -3.78382 0
M  V30 221 H 18.8893 -2.05929 -0.520281 0
M  V30 222 H 21.1523 -0.901803 -0.292328 0
M  V30 223 H 20.8583 -3.11554 -1.63178 0
M  V30 224 H 20.7323 -2.15567 -3.09533 0
M  V30 225 H 23.1193 -1.26048 -2.66825 0
M  V30 226 H 23.2003 -2.25523 -1.20718 0
M  V30 227 H 22.8443 -4.34195 -2.63509 0
M  V30 228 H 22.7743 -3.31665 -4.09031 0
M  V30 229 H 25.2653 -2.67997 -2.66432 0
M  V30 230 H 25.5783 -5.90337 -4.98721 0
M  V30 231 H 23.9233 -5.30457 -4.49044 0
M  V30 232 H 27.1143 -3.3785 -3.23998 0
M  V30 233 H 27.2873 -4.84825 -4.2994 0
M  V30 234 N 20.6934 1.19889 -1.02296 0
M  V30 235 C 21.6564 2.21116 -0.603351 0
M  V30 236 C 22.6564 1.5738 0.329884 0
M  V30 237 O 23.8464 1.73802 0.117702 0
M  V30 238 C 20.9784 3.40696 0.117992 0
M  V30 239 H 22.1714 2.59754 -1.49893 0
M  V30 240 H 19.7244 1.33463 -0.813468 0
M  V30 241 H 20.4594 3.07569 1.0282 0
M  V30 242 H 20.2444 3.88188 -0.552511 0
M  V30 243 H 21.7344 4.15692 0.398696 0
M  V30 244 N 22.1715 0.800033 1.35784 0
M  V30 245 C 23.1345 0.211565 2.28221 0
M  V30 246 C 24.1345 -0.59728 1.49296 0
M  V30 247 O 25.3245 -0.416721 1.69142 0
M  V30 248 C 22.4565 -0.705846 3.33513 0
M  V30 249 H 23.6495 1.02677 2.81776 0
M  V30 250 H 21.2025 0.570211 1.45528 0
M  V30 251 H 21.9375 -1.54498 2.85133 0
M  V30 252 H 21.7225 -0.127655 3.91892 0
M  V30 253 H 23.2125 -1.11211 4.02519 0
M  V30 254 N 23.6496 -1.47581 0.552962 0
M  V30 255 C 24.9266 -1.95563 -0.0381515 0
M  V30 256 C 25.3066 -1.49552 -1.48988 0
M  V30 257 O 24.6546 -0.732414 -2.16444 0
M  V30 258 C 24.8646 -3.48848 0.102919 0
M  V30 259 C 26.2126 -4.24577 -0.0446082 0
M  V30 260 O 27.2366 -3.56187 0.0302548 0
M  V30 261 O 26.0956 -5.46116 -0.204923 0
M  V30 262 H 23.1896 -0.824321 -0.0665067 0
M  V30 263 H 25.7356 -1.58001 0.619186 0
M  V30 264 H 24.5076 -3.75129 1.11328 0
M  V30 265 H 24.1306 -3.93165 -0.592224 0
M  V30 266 N 25.1277 -0.289203 -1.54924 0
M  V30 267 C 26.0377 0.601863 -2.26748 0
M  V30 268 C 27.0537 1.15834 -1.2984 0
M  V30 269 O 28.2297 1.18564 -1.62802 0
M  V30 270 C 25.2947 1.76299 -2.98529 0
M  V30 271 C 24.3557 1.24178 -4.10948 0
M  V30 272 C 23.5887 2.34757 -4.79296 0
M  V30 273 O 23.8117 3.54411 -4.46933 0
M  V30 274 O 22.7457 2.02115 -5.66951 0
M  V30 275 H 26.5717 0.0195879 -3.03694 0
M  V30 276 H 24.1567 -0.0560868 -1.49295 0
M  V30 277 H 26.0387 2.43973 -3.43592 0
M  V30 278 H 24.7137 2.33209 -2.24488 0
M  V30 279 H 23.6207 0.531104 -3.70311 0
M  V30 280 H 24.9537 0.718252 -4.86931 0
M  V30 281 N 26.6058 1.57591 -0.0167156 0
M  V30 282 C 27.8308 1.9598 0.67872 0
M  V30 283 C 28.2558 0.892546 1.65575 0
M  V30 284 O 27.6138 -0.147772 1.80697 0
M  V30 285 C 27.6618 3.33468 1.37227 0
M  V30 286 O 26.7658 3.28954 2.48722 0
M  V30 287 H 26.1068 0.639339 0.17928 0
M  V30 288 H 28.6368 2.04463 -0.0748802 0
M  V30 289 H 28.6468 3.69417 1.7319 0
M  V30 290 H 27.3218 4.10694 0.656007 0
M  V30 291 H 25.8988 3.04705 2.14963 0
M  V30 292 N 28.0839 -0.256276 1.55502 0
M  V30 293 C 29.0339 -1.31981 1.85916 0
M  V30 294 C 30.0179 -1.43927 0.719296 0
M  V30 295 O 31.2099 -1.47326 0.981019 0
M  V30 296 C 28.3389 -2.67703 2.14918 0
M  V30 297 C 27.4249 -2.59801 3.35208 0
M  V30 298 N 27.8159 -2.21524 4.54709 0
M  V30 299 C 26.1139 -2.90832 3.38131 0
M  V30 300 C 26.8149 -2.24024 5.36832 0
M  V30 301 N 25.7909 -2.63158 4.75656 0
M  V30 302 H 29.5929 -1.01423 2.75845 0
M  V30 303 H 27.1069 -0.464911 1.55603 0
M  V30 304 H 29.1039 -3.44445 2.34869 0
M  V30 305 H 27.7639 -2.99137 1.26282 0
M  V30 306 H 28.7749 -1.93223 4.80505 0
M  V30 307 H 25.4519 -3.26867 2.59739 0
M  V30 308 H 26.8419 -1.9685 6.42417 0
M  V30 309 N 29.562 -1.4872 -0.521534 0
M  V30 310 C 30.808 -1.574 -1.27879 0
M  V30 311 C 31.141 -0.250817 -1.92573 0
M  V30 312 O 30.416 0.743934 -1.79711 0
M  V30 313 C 30.699 -2.71843 -2.36164 0
M  V30 314 C 30.552 -4.13893 -1.76105 0
M  V30 315 C 31.871 -2.82008 -3.37875 0
M  V30 316 H 28.99 -0.572941 -0.463581 0
M  V30 317 H 31.632 -1.80927 -0.580119 0
M  V30 318 H 29.782 -2.51914 -2.95756 0
M  V30 319 H 31.454 -4.45284 -1.20499 0
M  V30 320 H 29.697 -4.20498 -1.06601 0
M  V30 321 H 30.368 -4.89804 -2.5455 0
M  V30 322 H 32.844 -3.00086 -2.88249 0
M  V30 323 H 31.72 -3.63796 -4.11028 0
M  V30 324 H 31.981 -1.90511 -3.98946 0
M  V30 325 N 31.0401 0.771051 -1.3745 0
M  V30 326 C 32.4511 1.34737 -1.29239 0
M  V30 327 C 32.8021 1.96109 0.0596908 0
M  V30 328 O 31.9271 1.93865 0.961534 0
M  V30 329 C 32.5221 2.44973 -2.34037 0
M  V30 330 C 31.0811 2.98372 -2.29458 0
M  V30 331 C 30.2281 1.71595 -2.17831 0
M  V30 332 H 33.1791 0.571256 -1.48062 0
M  V30 333 H 33.2001 3.24471 -1.98744 0
M  V30 334 H 32.7121 2.00276 -3.32432 0
M  V30 335 H 30.8131 3.47443 -1.34589 0
M  V30 336 H 30.9261 3.53939 -3.229 0
M  V30 337 H 29.2901 1.94547 -1.64388 0
M  V30 338 H 30.0731 1.29001 -3.18141 0
M  V30 339 N 32.5182 1.22032 0.997298 0
M  V30 340 C 33.4812 0.987909 2.06816 0
M  V30 341 C 34.4812 -0.0440084 1.6074 0
M  V30 342 O 35.6712 0.194053 1.73116 0
M  V30 343 C 32.8032 0.49132 3.37341 0
M  V30 344 H 33.9962 1.93803 2.28868 0
M  V30 345 H 31.5492 1.03838 1.16822 0
M  V30 346 H 32.2842 -0.463364 3.20973 0
M  V30 347 H 32.0692 1.23575 3.72118 0
M  V30 348 H 33.5592 0.348824 4.16141 0
M  V30 349 N 33.9963 -1.19345 1.0293 0
M  V30 350 C 34.9263 -2.2481 0.631105 0
M  V30 351 C 35.9073 -1.66245 -0.360104 0
M  V30 352 O 37.0923 -1.92677 -0.242726 0
M  V30 353 C 34.2223 -3.47295 -0.0184607 0
M  V30 354 C 33.1763 -4.18536 0.895073 0
M  V30 355 C 32.5023 -5.34586 0.110592 0
M  V30 356 C 33.8023 -4.73287 2.209 0
M  V30 357 H 35.4963 -2.58372 1.51275 0
M  V30 358 H 33.0423 -1.24194 0.728818 0
M  V30 359 H 34.9953 -4.20268 -0.308675 0
M  V30 360 H 33.7193 -3.12933 -0.934907 0
M  V30 361 H 32.3783 -3.47446 1.16949 0
M  V30 362 H 32.0263 -4.96469 -0.807902 0
M  V30 363 H 31.7263 -5.83183 0.719087 0
M  V30 364 H 33.2503 -6.10355 -0.172871 0
M  V30 365 H 34.6643 -5.38013 1.98028 0
M  V30 366 H 33.0613 -5.32373 2.76946 0
M  V30 367 H 34.1313 -3.91331 2.86336 0
M  V30 368 N 35.4744 -0.807222 -1.35358 0
M  V30 369 C 36.4244 -0.190706 -2.27201 0
M  V30 370 C 37.4084 0.635838 -1.47804 0
M  V30 371 O 38.6004 0.492991 -1.69996 0
M  V30 372 C 35.7294 0.659337 -3.36909 0
M  V30 373 C 34.8154 -0.176971 -4.23731 0
M  V30 374 N 35.2064 -1.24029 -4.90357 0
M  V30 375 C 33.5044 0.0412953 -4.45981 0
M  V30 376 C 34.2054 -1.75092 -5.54723 0
M  V30 377 N 33.1814 -1.05727 -5.33219 0
M  V30 378 H 36.9834 -1.0043 -2.76208 0
M  V30 379 H 34.4974 -0.648445 -1.48892 0
M  V30 380 H 36.4944 1.11706 -4.01656 0
M  V30 381 H 35.1544 1.47127 -2.89454 0
M  V30 382 H 36.1654 -1.62295 -4.91814 0
M  V30 383 H 32.8424 0.82232 -4.09322 0
M  V30 384 H 34.2324 -2.63963 -6.17878 0
M  V30 385 N 36.9525 1.47285 -0.560781 0
M  V30 386 C 37.8845 2.28118 0.222438 0
M  V30 387 C 38.8975 1.37219 0.876056 0
M  V30 388 O 40.0865 1.62011 0.749307 0
M  V30 389 C 37.1865 3.1159 1.33285 0
M  V30 390 C 36.3595 4.30473 0.77534 0
M  V30 391 C 35.4185 4.95513 1.77069 0
M  V30 392 O 34.4445 5.53792 1.31539 0
M  V30 393 N 35.6465 4.90531 3.10418 0
M  V30 394 H 38.4115 2.95976 -0.470958 0
M  V30 395 H 35.9725 1.56955 -0.39709 0
M  V30 396 H 37.9645 3.51967 1.99752 0
M  V30 397 H 36.5345 2.45951 1.92943 0
M  V30 398 H 35.7545 3.94144 -0.0662113 0
M  V30 399 H 37.0425 5.07362 0.382272 0
M  V30 400 H 36.4405 4.44389 3.5005 0
M  V30 401 H 34.9975 5.34917 3.72434 0
M  V30 402 N 38.4306 0.297415 1.54768 0
M  V30 403 C 39.3606 -0.573494 2.26348 0
M  V30 404 C 40.3416 -1.14085 1.26169 0
M  V30 405 O 41.5266 -1.17086 1.54934 0
M  V30 406 C 38.6566 -1.74716 3.00153 0
M  V30 407 C 37.6106 -1.31032 4.07449 0
M  V30 408 C 36.9366 -2.56887 4.68949 0
M  V30 409 C 38.2366 -0.444183 5.20408 0
M  V30 410 H 39.9306 0.0235131 2.99391 0
M  V30 411 H 37.4766 0.0127488 1.43994 0
M  V30 412 H 39.4296 -2.3625 3.48947 0
M  V30 413 H 38.1536 -2.37035 2.24682 0
M  V30 414 H 36.8126 -0.718066 3.59499 0
M  V30 415 H 36.4606 -3.17512 3.90122 0
M  V30 416 H 36.1606 -2.2836 5.41411 0
M  V30 417 H 37.6846 -3.19229 5.20505 0
M  V30 418 H 39.0986 -0.9651 5.65118 0
M  V30 419 H 37.4956 -0.252846 5.99567 0
M  V30 420 H 38.5656 0.531609 4.81977 0
M  V30 421 N 39.9087 -1.5758 0.0250728 0
M  V30 422 C 41.1547 -1.91917 -0.655413 0
M  V30 423 C 41.4877 -0.901433 -1.72011 0
M  V30 424 O 40.7627 0.0764069 -1.9435 0
M  V30 425 C 41.0457 -3.36751 -1.27558 0
M  V30 426 C 40.8987 -4.49258 -0.220719 0
M  V30 427 C 42.2177 -3.81469 -2.19475 0
M  V30 428 H 39.3367 -0.697925 -0.23679 0
M  V30 429 H 41.9787 -1.89825 0.0815036 0
M  V30 430 H 40.1287 -3.38664 -1.90365 0
M  V30 431 H 41.8007 -4.59478 0.409601 0
M  V30 432 H 40.0437 -4.31415 0.454264 0
M  V30 433 H 40.7147 -5.47618 -0.694175 0
M  V30 434 H 43.1907 -3.81266 -1.66659 0
M  V30 435 H 42.0667 -4.83512 -2.59822 0
M  V30 436 H 42.3277 -3.16744 -3.08424 0
M  V30 437 N 41.3868 0.248026 -1.55636 0
M  V30 438 C 42.3168 1.31079 -1.93237 0
M  V30 439 C 43.2978 1.50264 -0.797174 0
M  V30 440 O 44.4828 1.62891 -1.05737 0
M  V30 441 C 41.6128 2.66575 -2.22609 0
M  V30 442 C 40.5668 2.62087 -3.3837 0
M  V30 443 C 39.8928 4.01369 -3.53281 0
M  V30 444 C 41.1928 2.19171 -4.7409 0
M  V30 445 H 42.8868 0.998556 -2.82257 0
M  V30 446 H 40.4328 0.47891 -1.35803 0
M  V30 447 H 42.3858 3.41057 -2.47503 0
M  V30 448 H 41.1098 2.99432 -1.30414 0
M  V30 449 H 39.7688 1.90063 -3.13483 0
M  V30 450 H 39.4168 4.31489 -2.58508 0
M  V30 451 H 39.1168 3.99254 -4.31127 0
M  V30 452 H 40.6408 4.77552 -3.80495 0
M  V30 453 H 42.0548 2.83384 -4.98363 0
M  V30 454 H 40.4518 2.2817 -5.5503 0
M  V30 455 H 41.5218 1.14336 -4.71227 0
M  V30 456 N 42.8649 1.48995 0.513639 0
M  V30 457 C 43.8119 1.6473 1.61656 0
M  V30 458 C 44.7819 0.488984 1.58739 0
M  V30 459 O 45.9669 0.714478 1.76918 0
M  V30 460 C 43.1069 1.7082 2.99858 0
M  V30 461 C 42.2199 2.9787 3.12885 0
M  V30 462 C 41.3549 2.95017 4.41744 0
M  V30 463 C 40.3939 4.16702 4.48359 0
M  V30 464 N 39.5309 4.11832 5.68629 0
M  V30 465 H 44.3709 2.58909 1.47547 0
M  V30 466 H 41.9079 1.28382 0.71808 0
M  V30 467 H 43.8659 1.72331 3.79944 0
M  V30 468 H 42.4959 0.801181 3.12699 0
M  V30 469 H 41.5479 3.06029 2.25944 0
M  V30 470 H 42.8599 3.8786 3.13633 0
M  V30 471 H 42.0139 2.95021 5.30139 0
M  V30 472 H 40.7529 2.02784 4.43542 0
M  V30 473 H 39.7579 4.16955 3.58369 0
M  V30 474 H 40.9829 5.10113 4.48287 0
M  V30 475 H 38.9289 3.22428 5.71293 0
M  V30 476 H 38.8459 4.95543 5.7094 0
M  V30 477 H 40.1139 4.1592 6.59266 0
M  V30 478 N 44.343 -0.763751 1.37857 0
M  V30 479 C 45.291 -1.89864 1.34367 0
M  V30 480 C 46.285 -1.67816 0.231143 0
M  V30 481 O 47.491 -1.75508 0.399617 0
M  V30 482 H 43.866 -0.624501 0.41893 0
M  V30 483 H 45.837 -1.89925 2.30155 0
M  V30 484 C 44.586 -3.27227 1.1755 0
M  V30 485 H 43.909 -3.44773 2.02414 0
M  V30 486 H 45.349 -4.06911 1.1916 0
M  V30 487 C 43.808 -3.36692 -0.118311 0
M  V30 488 O 44.338 -3.86374 -1.09902 0
M  V30 489 N 42.544 -2.90092 -0.171717 0
M  V30 490 H 42.091 -2.49853 0.627012 0
M  V30 491 H 42.049 -2.96806 -1.03699 0
M  V30 492 N 45.8211 -1.22559 -0.990812 0
M  V30 493 C 46.7681 -0.997519 -2.0813 0
M  V30 494 C 47.7381 0.0814702 -1.659 0
M  V30 495 O 48.9231 -0.0685424 -1.90677 0
M  V30 496 C 46.0631 -0.583615 -3.40129 0
M  V30 497 C 45.1761 -1.7336 -3.9569 0
M  V30 498 C 44.3111 -1.26748 -5.15857 0
M  V30 499 C 43.3501 -2.38888 -5.63559 0
M  V30 500 N 42.4871 -1.93308 -6.74964 0
M  V30 501 H 47.3271 -1.93099 -2.26973 0
M  V30 502 H 44.8641 -0.962114 -1.11273 0
M  V30 503 H 46.8221 -0.324801 -4.15934 0
M  V30 504 H 45.4521 0.312845 -3.2128 0
M  V30 505 H 44.5041 -2.10669 -3.16738 0
M  V30 506 H 45.8161 -2.57704 -4.27071 0
M  V30 507 H 44.9701 -0.966173 -5.98957 0
M  V30 508 H 43.7091 -0.394272 -4.86104 0
M  V30 509 H 42.7141 -2.69805 -4.79046 0
M  V30 510 H 43.9391 -3.26728 -5.95336 0
M  V30 511 H 41.8851 -1.08352 -6.4699 0
M  V30 512 H 41.8021 -2.71217 -7.05675 0
M  V30 513 H 43.0701 -1.66252 -7.61564 0
M  V30 514 N 47.2992 1.18797 -1.03562 0
M  V30 515 C 48.2622 2.20464 -0.626769 0
M  V30 516 C 49.2622 1.57721 0.313173 0
M  V30 517 O 50.4522 1.73917 0.0992615 0
M  V30 518 C 47.5842 3.40802 0.0818498 0
M  V30 519 H 48.7772 2.58149 -1.5264 0
M  V30 520 H 46.3302 1.32593 -0.827578 0
M  V30 521 H 47.0652 3.08642 0.995518 0
M  V30 522 H 46.8502 3.8758 -0.593652 0
M  V30 523 H 48.3402 4.16092 0.354584 0
M  V30 524 N 48.7773 0.814389 1.34928 0
M  V30 525 C 50.0233 0.408167 1.99263 0
M  V30 526 C 50.3783 -1.0154 1.63424 0
M  V30 527 O 49.6713 -1.69607 0.891289 0
M  V30 528 C 49.8653 0.537781 3.53331 0
M  V30 529 C 49.6943 1.9724 4.04137 0
M  V30 530 C 48.4643 2.60245 4.33129 0
M  V30 531 C 50.6623 2.93801 4.2212 0
M  V30 532 N 48.6443 3.95036 4.69914 0
M  V30 533 C 50.0153 4.1348 4.6199 0
M  V30 534 C 52.0703 2.9053 4.04348 0
M  V30 535 C 50.7733 5.3033 4.85945 0
M  V30 536 C 52.7993 4.06589 4.29464 0
M  V30 537 C 52.1613 5.25017 4.69613 0
M  V30 538 H 48.2603 0.197289 0.756704 0
M  V30 539 H 50.8443 1.05728 1.63492 0
M  V30 540 H 49.0153 -0.0813868 3.88315 0
M  V30 541 H 50.7473 0.105389 4.04563 0
M  V30 542 H 47.5023 2.11545 4.23728 0
M  V30 543 H 47.9263 4.64455 4.92555 0
M  V30 544 H 52.5683 2.00115 3.72443 0
M  V30 545 H 50.2863 6.21309 5.16721 0
M  V30 546 H 53.8723 4.05447 4.17257 0
M  V30 547 H 52.7523 6.1333 4.88667 0
M  V30 548 N 50.2554 -1.46986 0.568584 0
M  V30 549 C 51.1854 -2.32946 -0.160753 0
M  V30 550 C 52.1664 -1.44487 -0.897631 0
M  V30 551 O 53.3514 -1.73327 -0.875867 0
M  V30 552 C 50.4814 -3.26494 -1.18403 0
M  V30 553 C 49.4354 -4.24282 -0.562895 0
M  V30 554 C 48.7614 -5.07236 -1.69163 0
M  V30 555 C 50.0614 -5.19989 0.490761 0
M  V30 556 H 51.7554 -2.94175 0.556916 0
M  V30 557 H 49.3014 -1.4146 0.26927 0
M  V30 558 H 51.2544 -3.85477 -1.70251 0
M  V30 559 H 49.9784 -2.63343 -1.93179 0
M  V30 560 H 48.6374 -3.66541 -0.0656164 0
M  V30 561 H 48.2854 -4.4048 -2.42871 0
M  V30 562 H 47.9854 -5.7345 -1.28174 0
M  V30 563 H 49.5094 -5.6908 -2.21314 0
M  V30 564 H 50.9234 -5.73271 0.0579047 0
M  V30 565 H 49.3204 -5.94469 0.820165 0
M  V30 566 H 50.3904 -4.64777 1.3824 0
M  V30 567 N 51.7335 -0.305618 -1.54608 0
M  V30 568 C 52.6655 0.602161 -2.21149 0
M  V30 569 C 53.6785 1.09394 -1.20569 0
M  V30 570 O 54.8675 1.0106 -1.47136 0
M  V30 571 C 51.9675 1.83692 -2.84799 0
M  V30 572 C 51.1405 1.48686 -4.11353 0
M  V30 573 C 50.1995 2.57725 -4.58764 0
M  V30 574 O 49.2255 2.22623 -5.23858 0
M  V30 575 N 50.4275 3.88346 -4.31471 0
M  V30 576 H 53.1925 0.0324966 -2.99682 0
M  V30 577 H 50.7535 -0.128021 -1.61393 0
M  V30 578 H 52.7455 2.55994 -3.13448 0
M  V30 579 H 51.3155 2.31486 -2.10078 0
M  V30 580 H 50.5355 0.596269 -3.89664 0
M  V30 581 H 51.8235 1.22842 -4.93748 0
M  V30 582 H 51.2215 4.19671 -3.79331 0
M  V30 583 H 49.7785 4.56932 -4.64818 0
M  V30 584 N 53.2116 1.57565 -0.0334293 0
M  V30 585 C 54.1436 2.0739 0.975811 0
M  V30 586 C 55.1566 0.998166 1.2861 0
M  V30 587 O 56.3456 1.27426 1.25 0
M  V30 588 C 53.4456 2.4871 2.30209 0
M  V30 589 C 52.6186 3.79413 2.17634 0
M  V30 590 C 51.6776 4.07237 3.33233 0
M  V30 591 O 50.7036 4.77425 3.09927 0
M  V30 592 N 51.9056 3.5775 4.5716 0
M  V30 593 H 54.6706 2.94598 0.55066 0
M  V30 594 H 52.2316 1.61173 0.15323 0
M  V30 595 H 54.2236 2.64413 3.06378 0
M  V30 596 H 52.7936 1.66845 2.64351 0
M  V30 597 H 52.0136 3.73465 1.26165 0
M  V30 598 H 53.3016 4.65038 2.0644 0
M  V30 599 H 52.6996 3.00976 4.78989 0
M  V30 600 H 51.2566 3.78724 5.30482 0
M  V30 601 N 54.6897 -0.239769 1.55765 0
M  V30 602 C 55.9147 -0.988373 1.82335 0
M  V30 603 C 56.3397 -1.77886 0.611421 0
M  V30 604 O 55.6977 -1.75889 -0.439639 0
M  V30 605 C 55.7457 -1.89627 3.06715 0
M  V30 606 O 54.8497 -2.98904 2.84131 0
M  V30 607 H 54.1907 -0.280858 0.601677 0
M  V30 608 H 56.7207 -0.258597 2.02959 0
M  V30 609 H 56.7307 -2.30957 3.36338 0
M  V30 610 H 55.4057 -1.31511 3.9456 0
M  V30 611 H 53.9827 -2.61651 2.65694 0
M  V30 612 N 56.1678 -1.49265 -0.50573 0
M  V30 613 C 57.0978 -1.68495 -1.61653 0
M  V30 614 C 58.0788 -0.53366 -1.61512 0
M  V30 615 O 59.2638 -0.76897 -1.78327 0
M  V30 616 C 56.3938 -1.74709 -3.00157 0
M  V30 617 C 55.3478 -2.89581 -3.15162 0
M  V30 618 C 54.6738 -2.80903 -4.5497 0
M  V30 619 C 55.9738 -4.30578 -2.95634 0
M  V30 620 H 57.6678 -2.61493 -1.45814 0
M  V30 621 H 55.2138 -1.25838 -0.70005 0
M  V30 622 H 57.1668 -1.86748 -3.77761 0
M  V30 623 H 55.8908 -0.783067 -3.17074 0
M  V30 624 H 54.5498 -2.77136 -2.39982 0
M  V30 625 H 54.1978 -1.82419 -4.68756 0
M  V30 626 H 53.8978 -3.57999 -4.65951 0
M  V30 627 H 55.4218 -2.94944 -5.34641 0
M  V30 628 H 56.8358 -4.4373 -3.63011 0
M  V30 629 H 55.2328 -5.0886 -3.18091 0
M  V30 630 H 56.3028 -4.45352 -1.91806 0
M  V30 631 N 57.6459 0.756429 -1.3826 0
M  V30 632 C 58.9229 1.50584 -1.24835 0
M  V30 633 C 59.3029 2.10556 0.151485 0
M  V30 634 O 58.6509 1.96825 1.1607 0
M  V30 635 C 58.8609 2.57448 -2.3563 0
M  V30 636 C 60.2089 3.24429 -2.73917 0
M  V30 637 O 61.2329 2.67751 -2.34921 0
M  V30 638 O 60.0919 4.26937 -3.41156 0
M  V30 639 H 57.1859 0.667664 -0.48801 0
M  V30 640 H 59.7319 0.792083 -1.5008 0
M  V30 641 H 58.5039 2.11362 -3.29305 0
M  V30 642 H 58.1269 3.36408 -2.11933 0
M  V30 643 N 59.124 1.23083 0.984299 0
M  V30 644 C 60.37 1.07221 1.72845 0
M  V30 645 C 60.725 -0.387453 1.88458 0
M  V30 646 O 60.018 -1.28309 1.42293 0
M  V30 647 C 60.212 1.72673 3.1292 0
M  V30 648 C 60.041 3.24853 3.10967 0
M  V30 649 C 58.811 3.93998 3.16376 0
M  V30 650 C 61.009 4.21674 2.94441 0
M  V30 651 N 58.991 5.33192 3.04268 0
M  V30 652 C 60.362 5.47756 2.90453 0
M  V30 653 C 62.417 4.12457 2.78897 0
M  V30 654 C 61.12 6.6568 2.72512 0
M  V30 655 C 63.146 5.3004 2.62319 0
M  V30 656 C 62.508 6.55046 2.59026 0
M  V30 657 H 58.607 0.44685 0.641755 0
M  V30 658 H 61.191 1.55753 1.16829 0
M  V30 659 H 59.362 1.26679 3.67161 0
M  V30 660 H 61.094 1.49824 3.75945 0
M  V30 661 H 57.849 3.45052 3.24401 0
M  V30 662 H 58.273 6.06157 3.015 0
M  V30 663 H 62.915 3.16588 2.80235 0
M  V30 664 H 60.633 7.61689 2.69919 0
M  V30 665 H 64.219 5.24747 2.5126 0
M  V30 666 H 63.099 7.44498 2.46357 0
M  V30 667 N 60.6021 -1.18246 1.0419 0
M  V30 668 C 62.0131 -1.69914 0.773698 0
M  V30 669 C 62.3641 -1.83085 -0.705297 0
M  V30 670 O 61.4891 -1.51123 -1.5489 0
M  V30 671 C 62.0841 -3.08619 1.39784 0
M  V30 672 C 60.6431 -3.57494 1.17792 0
M  V30 673 C 59.7901 -2.34013 1.48773 0
M  V30 674 H 62.7411 -1.02904 1.20816 0
M  V30 675 H 62.7621 -3.71958 0.801714 0
M  V30 676 H 62.2741 -2.99001 2.47426 0
M  V30 677 H 60.3751 -3.72406 0.120295 0
M  V30 678 H 60.4881 -4.40852 1.87581 0
M  V30 679 H 58.8521 -2.37986 0.907463 0
M  V30 680 H 59.6351 -2.27013 2.57527 0
M  V30 681 N 62.0802 -0.821533 -1.34494 0
M  V30 682 C 63.0122 -0.199946 -2.28326 0
M  V30 683 C 64.0252 0.609377 -1.50965 0
M  V30 684 O 65.2142 0.439285 -1.7301 0
M  V30 685 C 62.3142 0.738431 -3.30757 0
M  V30 686 C 61.4872 -0.0277632 -4.37391 0
M  V30 687 C 60.5462 0.831332 -5.19591 0
M  V30 688 O 59.5722 0.276822 -5.68526 0
M  V30 689 N 60.7742 2.15132 -5.39165 0
M  V30 690 H 63.5392 -1.00609 -2.82308 0
M  V30 691 H 61.1002 -0.678366 -1.47003 0
M  V30 692 H 63.0922 1.31773 -3.82646 0
M  V30 693 H 61.6622 1.44533 -2.7718 0
M  V30 694 H 60.8822 -0.788359 -3.86236 0
M  V30 695 H 62.1702 -0.555251 -5.05761 0
M  V30 696 H 61.5682 2.62559 -5.01078 0
M  V30 697 H 60.1252 2.6795 -5.94177 0
M  V30 698 N 63.5583 1.46682 -0.576371 0
M  V30 699 C 64.7883 2.06498 -0.0648694 0
M  V30 700 C 65.1963 1.42665 1.24271 0
M  V30 701 O 64.5393 0.523886 1.76071 0
M  V30 702 C 64.6013 3.5904 0.181816 0
M  V30 703 C 64.2653 4.45028 -1.0392 0
M  V30 704 C 65.2623 4.81959 -1.94966 0
M  V30 705 C 62.9473 4.86259 -1.25927 0
M  V30 706 C 64.9413 5.58942 -3.06371 0
M  V30 707 C 62.6283 5.63002 -2.37638 0
M  V30 708 C 63.6263 5.99257 -3.2769 0
M  V30 709 O 63.3143 6.7445 -4.37461 0
M  V30 710 H 63.0463 0.674028 -0.0515987 0
M  V30 711 H 65.6003 1.89393 -0.794951 0
M  V30 712 H 63.8303 3.74429 0.966436 0
M  V30 713 H 65.5193 4.00806 0.641047 0
M  V30 714 H 66.2853 4.50689 -1.79177 0
M  V30 715 H 62.1643 4.57494 -0.567448 0
M  V30 716 H 65.7083 5.87158 -3.76684 0
M  V30 717 H 61.6053 5.93686 -2.53392 0
M  V30 718 H 62.3733 6.92867 -4.35749 0
M  V30 719 N 65.0364 0.313813 1.54444 0
M  V30 720 C 66.2824 -0.292108 2.00685 0
M  V30 721 C 66.6154 -1.52548 1.20177 0
M  V30 722 O 65.8904 -1.92452 0.281531 0
M  V30 723 C 66.1734 -0.635968 3.5444 0
M  V30 724 C 66.0264 0.607437 4.4568 0
M  V30 725 C 67.3454 -1.45747 4.15266 0
M  V30 726 H 64.4644 -0.104697 0.729526 0
M  V30 727 H 67.1064 0.428457 1.85106 0
M  V30 728 H 65.2564 -1.24986 3.67846 0
M  V30 729 H 66.9284 1.24581 4.44159 0
M  V30 730 H 65.1714 1.23822 4.15753 0
M  V30 731 H 65.8424 0.322515 5.51057 0
M  V30 732 H 68.3184 -0.938645 4.05375 0
M  V30 733 H 67.1944 -1.66683 5.2298 0
M  V30 734 H 67.4554 -2.45063 3.67963 0
M  V30 735 N 66.5145 -1.57545 0.0417849 0
M  V30 736 C 67.7425 -1.96624 -0.643928 0
M  V30 737 C 68.1575 -0.918897 -1.64929 0
M  V30 738 O 67.5145 0.0979323 -1.82237 0
M  V30 739 C 67.5655 -3.35781 -1.33914 0
M  V30 740 O 67.2865 -4.365 -0.374048 0
M  V30 741 C 68.7875 -3.89566 -2.1155 0
M  V30 742 H 66.0075 -0.647316 -0.176702 0
M  V30 743 H 68.5515 -2.04229 0.105304 0
M  V30 744 H 66.7065 -3.29357 -2.03968 0
M  V30 745 H 67.1205 -5.17248 -0.869179 0
M  V30 746 H 68.5945 -4.89242 -2.55628 0
M  V30 747 H 69.0715 -3.24488 -2.9598 0
M  V30 748 H 69.6775 -3.99298 -1.46427 0
M  V30 749 N 67.9926 0.231505 -1.5589 0
M  V30 750 C 69.2176 0.978689 -1.82856 0
M  V30 751 C 69.6426 1.77559 -0.620846 0
M  V30 752 O 69.0006 1.76119 0.430305 0
M  V30 753 C 69.0486 1.87997 -3.07716 0
M  V30 754 O 68.1526 2.97393 -2.85712 0
M  V30 755 H 67.4936 0.277663 -0.603158 0
M  V30 756 H 70.0236 0.24783 -2.03093 0
M  V30 757 H 70.0336 2.2917 -3.37558 0
M  V30 758 H 68.7086 1.29417 -3.95252 0
M  V30 759 H 67.2856 2.60238 -2.67078 0
M  V30 760 N 69.4707 1.49531 0.497807 0
M  V30 761 C 70.4027 1.62559 1.61578 0
M  V30 762 C 71.4157 0.508134 1.54667 0
M  V30 763 O 72.6047 0.780309 1.60541 0
M  V30 764 C 69.7047 1.56925 3.00379 0
M  V30 765 C 68.8777 2.84257 3.3244 0
M  V30 766 C 67.9367 2.71632 4.50669 0
M  V30 767 O 66.9627 3.4557 4.52294 0
M  V30 768 N 68.1647 1.83391 5.5077 0
M  V30 769 H 70.9297 2.58981 1.50828 0
M  V30 770 H 68.4907 1.4666 0.685743 0
M  V30 771 H 70.4827 1.46129 3.77397 0
M  V30 772 H 69.0527 0.683483 3.05037 0
M  V30 773 H 68.2727 3.09381 2.44289 0
M  V30 774 H 69.5607 3.68666 3.5066 0
M  V30 775 H 68.9587 1.22583 5.52259 0
M  V30 776 H 67.5157 1.78515 6.26878 0
M  V30 777 N 70.9488 -0.749086 1.3866 0
M  V30 778 C 71.8588 -1.89358 1.38494 0
M  V30 779 C 72.8748 -1.71708 0.281476 0
M  V30 780 O 74.0508 -1.94554 0.520643 0
M  V30 781 C 71.1158 -3.24782 1.21316 0
M  V30 782 C 70.1768 -3.54926 2.41508 0
M  V30 783 C 69.4098 -4.83888 2.2514 0
M  V30 784 O 69.6328 -5.56592 1.24746 0
M  V30 785 O 68.5668 -5.13612 3.13826 0
M  V30 786 H 72.3928 -1.92452 2.34938 0
M  V30 787 H 69.9778 -0.894981 1.19626 0
M  V30 788 H 71.8598 -4.05739 1.13814 0
M  V30 789 H 70.5348 -3.2249 0.279592 0
M  V30 790 H 69.4418 -2.74112 2.54585 0
M  V30 791 H 70.7748 -3.61983 3.3351 0
M  V30 792 N 72.4269 -1.23603 -0.977757 0
M  V30 793 C 73.3369 -1.03632 -2.1047 0
M  V30 794 C 74.3529 0.0199435 -1.73989 0
M  V30 795 O 75.5289 -0.176076 -2.00629 0
M  V30 796 C 72.5939 -0.63276 -3.40877 0
M  V30 797 C 71.6549 -1.76437 -3.91367 0
M  V30 798 C 70.8879 -1.37997 -5.15551 0
M  V30 799 O 71.1109 -0.265357 -5.69782 0
M  V30 800 O 70.0449 -2.20201 -5.60174 0
M  V30 801 H 73.8709 -1.98086 -2.30208 0
M  V30 802 H 71.4559 -1.02332 -1.08851 0
M  V30 803 H 73.3379 -0.418761 -4.19314 0
M  V30 804 H 72.0129 0.282754 -3.22463 0
M  V30 805 H 70.9199 -2.03304 -3.14036 0
M  V30 806 H 72.2529 -2.6583 -4.14241 0
M  V30 807 N 73.905 1.17692 -1.04816 0
M  V30 808 C 75.133 1.91786 -0.776254 0
M  V30 809 C 75.548 1.76604 0.667577 0
M  V30 810 O 74.905 1.10067 1.45573 0
M  V30 811 C 74.956 3.42967 -1.14263 0
M  V30 812 O 74.677 3.57678 -2.52978 0
M  V30 813 C 76.178 4.34144 -0.896311 0
M  V30 814 H 73.398 0.608624 -0.282519 0
M  V30 815 H 75.942 1.49268 -1.39783 0
M  V30 816 H 74.097 3.83245 -0.565874 0
M  V30 817 H 74.511 4.51319 -2.67229 0
M  V30 818 H 75.985 5.38744 -1.20244 0
M  V30 819 H 76.462 4.38876 0.168636 0
M  V30 820 H 77.068 3.99574 -1.45672 0
M  V30 821 N 75.3831 0.828654 1.34056 0
M  V30 822 C 76.7991 0.515135 1.51058 0
M  V30 823 C 76.9991 -0.959581 1.77184 0
M  V30 824 O 76.0551 -1.74382 1.82612 0
M  V30 825 C 77.3681 1.37963 2.67183 0
M  V30 826 C 78.9161 1.37735 2.81066 0
M  V30 827 C 79.3911 2.22645 4.00241 0
M  V30 828 N 80.8821 2.203 4.07458 0
M  V30 829 C 81.6171 2.82744 4.98842 0
M  V30 830 N 81.1131 3.54201 5.9541 0
M  V30 831 N 82.9061 2.72268 4.91759 0
M  V30 832 H 75.0571 1.78343 1.15358 0
M  V30 833 H 77.3201 0.760304 0.566252 0
M  V30 834 H 77.0261 2.42714 2.54525 0
M  V30 835 H 76.9001 1.0484 3.62338 0
M  V30 836 H 79.2871 0.337593 2.93163 0
M  V30 837 H 79.3681 1.74859 1.86703 0
M  V30 838 H 79.0121 3.26674 3.88905 0
M  V30 839 H 78.9421 1.82869 4.93829 0
M  V30 840 H 81.4331 1.68327 3.38341 0
M  V30 841 H 81.7461 3.9908 6.61782 0
M  V30 842 H 80.0911 3.58308 5.95517 0
M  V30 843 H 83.2821 2.16014 4.15278 0
M  V30 844 H 83.4551 3.21219 5.62781 0
M  V30 845 N 76.8612 -1.46375 0.584142 0
M  V30 846 C 77.8082 -2.30323 -0.148286 0
M  V30 847 C 78.7782 -1.40703 -0.882713 0
M  V30 848 O 79.9632 -1.69651 -0.873099 0
M  V30 849 C 77.1032 -3.25196 -1.15507 0
M  V30 850 C 76.2162 -4.29915 -0.423943 0
M  V30 851 C 75.3512 -5.11914 -1.41838 0
M  V30 852 C 74.3902 -6.08381 -0.673736 0
M  V30 853 N 73.5272 -6.83242 -1.6163 0
M  V30 854 H 78.3672 -2.92427 0.573644 0
M  V30 855 H 75.9042 -1.44118 0.294703 0
M  V30 856 H 77.8622 -3.78646 -1.75166 0
M  V30 857 H 76.4922 -2.64898 -1.8447 0
M  V30 858 H 75.5442 -3.7931 0.287714 0
M  V30 859 H 76.8562 -4.98549 0.158128 0
M  V30 860 H 76.0102 -5.69648 -2.08773 0
M  V30 861 H 74.7492 -4.43243 -2.03438 0
M  V30 862 H 73.7542 -5.49799 0.00938483 0
M  V30 863 H 74.9792 -6.79071 -0.0631082 0
M  V30 864 H 72.9252 -6.1728 -2.22038 0
M  V30 865 H 72.8422 -7.48144 -1.08707 0
M  V30 866 H 74.1102 -7.45534 -2.27596 0
M  V30 867 N 78.3393 -0.321999 -1.54275 0
M  V30 868 C 79.2893 0.560185 -2.21011 0
M  V30 869 C 80.2733 1.08283 -1.19011 0
M  V30 870 O 81.4653 1.02011 -1.44647 0
M  V30 871 C 78.5943 1.72137 -2.97025 0
M  V30 872 C 77.6803 1.21369 -4.06363 0
M  V30 873 N 78.0713 0.425566 -5.04007 0
M  V30 874 C 76.3693 1.49255 -4.20284 0
M  V30 875 C 77.0703 0.152601 -5.815 0
M  V30 876 N 76.0463 0.738294 -5.38563 0
M  V30 877 H 79.8483 -0.049265 -2.93859 0
M  V30 878 H 77.3623 -0.127779 -1.61897 0
M  V30 879 H 79.3593 2.36512 -3.43319 0
M  V30 880 H 78.0193 2.33431 -2.25699 0
M  V30 881 H 79.0303 0.068551 -5.17855 0
M  V30 882 H 75.7073 2.11145 -3.60172 0
M  V30 883 H 77.0973 -0.481764 -6.70171 0
M  V30 884 N 79.8174 1.5752 -0.0501392 0
M  V30 885 C 81.0634 1.92936 0.624798 0
M  V30 886 C 81.3964 0.928685 1.70555 0
M  V30 887 O 80.6714 -0.0454779 1.94447 0
M  V30 888 C 80.9544 3.38737 1.22185 0
M  V30 889 C 80.8074 4.49552 0.149218 0
M  V30 890 C 82.1264 3.84913 2.13378 0
M  V30 891 H 79.2454 0.701604 0.225657 0
M  V30 892 H 81.8874 1.89671 -0.111693 0
M  V30 893 H 80.0374 3.4165 1.84953 0
M  V30 894 H 81.7094 4.58768 -0.482648 0
M  V30 895 H 79.9524 4.30638 -0.522841 0
M  V30 896 H 80.6234 5.48653 0.606966 0
M  V30 897 H 83.0994 3.8387 1.60572 0
M  V30 898 H 81.9754 4.87584 2.52097 0
M  V30 899 H 82.2364 3.21611 3.03346 0
M  V30 900 N 81.2955 -0.223234 1.56011 0
M  V30 901 C 82.2275 -1.30006 1.88762 0
M  V30 902 C 83.2405 -1.43129 0.775746 0
M  V30 903 O 84.4295 -1.44057 1.05403 0
M  V30 904 C 81.5295 -2.67589 2.07965 0
M  V30 905 C 80.7025 -2.76434 3.38973 0
M  V30 906 C 79.7615 -3.95019 3.47629 0
M  V30 907 O 78.7875 -3.83436 4.20672 0
M  V30 908 N 79.9895 -5.09249 2.78649 0
M  V30 909 H 82.7545 -1.02238 2.81722 0
M  V30 910 H 80.3155 -0.413278 1.56536 0
M  V30 911 H 82.3075 -3.45297 2.11073 0
M  V30 912 H 80.8775 -2.87964 1.21638 0
M  V30 913 H 80.0975 -1.85216 3.47978 0
M  V30 914 H 81.3855 -2.79313 4.25278 0
M  V30 915 H 80.7835 -5.21556 2.19081 0
M  V30 916 H 79.3405 -5.85007 2.8742 0
M  V30 917 N 82.7736 -1.49793 -0.48987 0
M  V30 918 C 84.0216 -1.59525 -1.24081 0
M  V30 919 C 84.3426 -0.288953 -1.92847 0
M  V30 920 O 83.6126 0.692436 -1.83254 0
M  V30 921 H 82.1926 -0.587796 -0.460983 0
M  V30 922 H 84.8546 -1.86477 -0.566778 0
M  V30 923 H 83.9506 -2.39696 -1.99881 0
M  V30 924 N 84.2517 0.741722 -1.39055 0
M  V30 925 C 85.1997 1.87702 -1.3737 0
M  V30 926 C 86.1937 1.67427 -0.257812 0
M  V30 927 O 87.3997 1.7485 -0.427489 0
M  V30 928 H 83.7747 0.617757 -0.428812 0
M  V30 929 H 85.7457 1.86239 -2.33147 0
M  V30 930 C 84.4947 3.25315 -1.22741 0
M  V30 931 H 83.8177 3.41509 -2.07873 0
M  V30 932 H 85.2577 4.04964 -1.25618 0
M  V30 933 C 83.7167 3.36838 0.0647316 0
M  V30 934 O 84.2467 3.88073 1.03741 0
M  V30 935 N 82.4527 2.90329 0.125544 0
M  V30 936 H 81.9997 2.48823 -0.666682 0
M  V30 937 H 81.9577 2.98418 0.989639 0
M  V30 938 N 85.7298 1.2412 0.971189 0
M  V30 939 C 86.9788 1.07284 1.70801 0
M  V30 940 C 87.2918 -0.388902 1.91695 0
M  V30 941 O 88.4978 -0.677379 2.62914 0
M  V30 942 C 86.9538 1.87145 3.07416 0
M  V30 943 C 86.5618 3.37707 2.94377 0
M  V30 944 C 88.3058 1.78828 3.84995 0
M  V30 945 C 86.2128 4.09925 4.26281 0
M  V30 946 H 85.1428 0.397854 0.64049 0
M  V30 947 H 87.7938 1.4817 1.0825 0
M  V30 948 H 86.1758 1.39071 3.70777 0
M  V30 949 H 87.3498 3.93335 2.4005 0
M  V30 950 H 85.6648 3.46938 2.30267 0
M  V30 951 H 88.2618 2.30089 4.82662 0
M  V30 952 H 88.6048 0.75284 4.09436 0
M  V30 953 H 89.1378 2.24563 3.28354 0
M  V30 954 H 85.8768 5.13813 4.07033 0
M  V30 955 H 85.3968 3.59083 4.80437 0
M  V30 956 H 87.0758 4.1673 4.94919 0
M  V30 957 N 87.2079 -1.17134 1.05439 0
M  V30 958 C 88.1379 -2.2342 0.678649 0
M  V30 959 C 89.1189 -1.66971 -0.32476 0
M  V30 960 O 90.3039 -1.93149 -0.201802 0
M  V30 961 C 87.4339 -3.47256 0.0552099 0
M  V30 962 C 86.3879 -4.16543 0.98365 0
M  V30 963 C 85.7139 -5.34231 0.223961 0
M  V30 964 C 87.0139 -4.68495 2.3089 0
M  V30 965 H 88.7079 -2.55105 1.56722 0
M  V30 966 H 86.2539 -1.2262 0.754998 0
M  V30 967 H 88.2069 -4.20828 -0.21946 0
M  V30 968 H 86.9309 -3.14846 -0.868319 0
M  V30 969 H 85.5899 -3.44887 1.24293 0
M  V30 970 H 85.2379 -4.98071 -0.702412 0
M  V30 971 H 84.9379 -5.81527 0.842627 0
M  V30 972 H 86.4619 -6.10585 -0.0433671 0
M  V30 973 H 87.8759 -5.33691 2.09396 0
M  V30 974 H 86.2729 -5.26379 2.88176 0
M  V30 975 H 87.3429 -3.85169 2.94572 0
M  V30 976 N 88.686 -0.835752 -1.33615 0
M  V30 977 C 89.616 -0.281739 -2.31794 0
M  V30 978 C 90.597 0.608833 -1.58831 0
M  V30 979 O 91.782 0.533035 -1.86741 0
M  V30 980 C 88.912 0.546612 -3.42971 0
M  V30 981 C 87.866 -0.247904 -4.27281 0
M  V30 982 C 87.192 0.704001 -5.30045 0
M  V30 983 C 88.492 -1.46324 -5.01385 0
M  V30 984 H 90.186 -1.10206 -2.78379 0
M  V30 985 H 87.732 -0.531388 -1.33837 0
M  V30 986 H 89.685 0.944467 -4.1068 0
M  V30 987 H 88.409 1.40011 -2.95067 0
M  V30 988 H 87.068 -0.627281 -3.61194 0
M  V30 989 H 86.716 1.55381 -4.78399 0
M  V30 990 H 86.416 0.176524 -5.87335 0
M  V30 991 H 87.94 1.09944 -6.0062 0
M  V30 992 H 89.354 -1.13871 -5.61877 0
M  V30 993 H 87.751 -1.92728 -5.6831 0
M  V30 994 H 88.821 -2.23467 -4.30338 0
M  V30 995 N 90.1641 1.46063 -0.591896 0
M  V30 996 C 91.1141 2.27458 0.157172 0
M  V30 997 C 92.0981 1.3641 0.853301 0
M  V30 998 O 93.2901 1.60517 0.74588 0
M  V30 999 C 90.4191 3.22956 1.16423 0
M  V30 1000 C 89.5051 4.2149 0.469742 0
M  V30 1001 N 89.8961 5.03519 -0.479839 0
M  V30 1002 C 88.1941 4.40161 0.719319 0
M  V30 1003 C 88.8951 5.74904 -0.886591 0
M  V30 1004 N 87.8711 5.43097 -0.233731 0
M  V30 1005 H 91.6731 2.88272 -0.572392 0
M  V30 1006 H 89.1871 1.57024 -0.414375 0
M  V30 1007 H 91.1841 3.79986 1.71513 0
M  V30 1008 H 89.8441 2.63701 1.89451 0
M  V30 1009 H 90.8551 5.1078 -0.855823 0
M  V30 1010 H 87.5321 3.92046 1.43548 0
M  V30 1011 H 88.9221 6.50844 -1.66888 0
M  V30 1012 N 91.6422 0.330177 1.54103 0
M  V30 1013 C 92.5742 -0.566902 2.22079 0
M  V30 1014 C 93.5872 -1.07462 1.22294 0
M  V30 1015 O 94.7762 -0.987065 1.48726 0
M  V30 1016 C 91.8762 -1.79138 2.87685 0
M  V30 1017 C 91.0492 -1.42123 4.13666 0
M  V30 1018 C 90.1082 -2.50394 4.62806 0
M  V30 1019 O 89.1342 -2.14261 5.27334 0
M  V30 1020 N 90.3362 -3.81433 4.37595 0
M  V30 1021 H 93.1012 0.0151844 2.99696 0
M  V30 1022 H 90.6622 0.153681 1.61169 0
M  V30 1023 H 92.6542 -2.50975 3.1748 0
M  V30 1024 H 91.2242 -2.28115 2.13734 0
M  V30 1025 H 90.4442 -0.534201 3.90564 0
M  V30 1026 H 91.7322 -1.14971 4.9564 0
M  V30 1027 H 91.1302 -4.13584 3.8596 0
M  V30 1028 H 89.6872 -4.4948 4.72029 0
M  V30 1029 N 93.1203 -1.57491 0.0584922 0
M  V30 1030 C 94.5363 -1.56792 -0.298091 0
M  V30 1031 C 94.7363 -1.06679 -1.70944 0
M  V30 1032 O 93.7923 -0.726672 -2.41818 0
M  V30 1033 C 95.1053 -3.00461 -0.119879 0
M  V30 1034 C 96.6533 -3.1242 -0.190428 0
M  V30 1035 C 97.1283 -4.57982 -0.0406567 0
M  V30 1036 N 98.6193 -4.63099 -0.0966958 0
M  V30 1037 C 99.3543 -5.734 -0.00502943 0
M  V30 1038 N 98.8503 -6.9266 0.139402 0
M  V30 1039 N 100.643 -5.62067 -0.0611391 0
M  V30 1040 H 92.7943 -1.88386 0.98105 0
M  V30 1041 H 95.0573 -0.867865 0.381463 0
M  V30 1042 H 94.7633 -3.41187 0.85349 0
M  V30 1043 H 94.6373 -3.66843 -0.877833 0
M  V30 1044 H 97.0243 -2.71589 -1.15427 0
M  V30 1045 H 97.1053 -2.48702 0.598405 0
M  V30 1046 H 96.7493 -4.995 0.919897 0
M  V30 1047 H 96.6793 -5.19715 -0.848727 0
M  V30 1048 H 99.1703 -3.77331 -0.207277 0
M  V30 1049 H 99.4833 -7.72536 0.201855 0
M  V30 1050 H 97.8283 -6.94781 0.174586 0
M  V30 1051 H 101.019 -4.67782 -0.172583 0
M  V30 1052 H 101.192 -6.47999 0.0137562 0
M  V30 1053 N 94.5984 0.214957 -1.56127 0
M  V30 1054 C 95.8464 0.936518 -1.79091 0
M  V30 1055 C 96.1674 1.84606 -0.628148 0
M  V30 1056 O 95.4374 1.92664 0.35462 0
M  V30 1057 H 94.0174 0.3488 -0.660566 0
M  V30 1058 H 96.6794 0.22523 -1.93594 0
M  V30 1059 H 95.7754 1.53943 -2.71492 0
M  V30 1060 N 96.0765 1.50051 0.48192 0
M  V30 1061 C 97.3065 1.63999 1.2565 0
M  V30 1062 C 97.7145 0.318288 1.86504 0
M  V30 1063 O 97.0575 -0.708534 1.69486 0
M  V30 1064 C 97.1195 2.66504 2.4128 0
M  V30 1065 C 96.7835 4.10352 2.01148 0
M  V30 1066 C 97.7805 4.96562 1.54021 0
M  V30 1067 C 95.4655 4.56203 2.10199 0
M  V30 1068 C 97.4595 6.26668 1.16473 0
M  V30 1069 C 95.1465 5.86318 1.72264 0
M  V30 1070 C 96.1445 6.71375 1.25477 0
M  V30 1071 O 95.8325 7.99062 0.880626 0
M  V30 1072 H 95.5645 0.55456 0.386574 0
M  V30 1073 H 98.1185 1.96954 0.582944 0
M  V30 1074 H 96.3485 2.28769 3.11772 0
M  V30 1075 H 98.0375 2.69783 3.03268 0
M  V30 1076 H 98.8035 4.62358 1.46458 0
M  V30 1077 H 94.6825 3.90152 2.45566 0
M  V30 1078 H 98.2265 6.93011 0.798841 0
M  V30 1079 H 94.1235 6.20046 1.79482 0
M  V30 1080 H 94.8915 8.12239 1.01043 0
M  V30 1081 N 97.5546 -0.734337 1.39446 0
M  V30 1082 C 98.5176 -1.83004 1.37994 0
M  V30 1083 C 99.5176 -1.58397 0.276938 0
M  V30 1084 O 100.708 -1.65785 0.534875 0
M  V30 1085 C 97.8396 -3.20802 1.1532 0
M  V30 1086 H 99.0326 -1.85694 2.35494 0
M  V30 1087 H 96.5856 -0.938059 1.25021 0
M  V30 1088 H 97.3206 -3.23772 0.185036 0
M  V30 1089 H 97.1056 -3.4006 1.95197 0
M  V30 1090 H 98.5956 -4.00862 1.17046 0
M  V30 1091 N 99.0327 -1.24633 -0.964593 0
M  V30 1092 C 99.9797 -1.04144 -2.05968 0
M  V30 1093 C 100.95 0.046262 -1.66036 0
M  V30 1094 O 102.135 -0.108972 -1.90489 0
M  V30 1095 C 99.2747 -0.65563 -3.38815 0
M  V30 1096 C 98.3877 -1.81714 -3.91923 0
M  V30 1097 C 97.5227 -1.37662 -5.13052 0
M  V30 1098 C 96.5617 -2.50788 -5.58365 0
M  V30 1099 N 95.6987 -2.07582 -6.70712 0
M  V30 1100 H 100.539 -1.9787 -2.22827 0
M  V30 1101 H 98.0757 -0.9855 -1.09208 0
M  V30 1102 H 100.034 -0.412954 -4.15151 0
M  V30 1103 H 98.6637 0.244627 -3.21872 0
M  V30 1104 H 97.7157 -2.1734 -3.12198 0
M  V30 1105 H 99.0277 -2.66705 -4.21509 0
M  V30 1106 H 98.1817 -1.093 -5.96773 0
M  V30 1107 H 96.9207 -0.497293 -4.85158 0
M  V30 1108 H 95.9257 -2.79906 -4.73215 0
M  V30 1109 H 97.1507 -3.39283 -5.88272 0
M  V30 1110 H 95.0967 -1.22051 -6.44546 0
M  V30 1111 H 95.0137 -2.86125 -6.99763 0
M  V30 1112 H 96.2817 -1.82369 -7.57867 0
M  V30 1113 N 100.511 1.16574 -1.06058 0
M  V30 1114 C 101.444 2.19798 -0.61352 0
M  V30 1115 C 102.422 1.58509 0.362453 0
M  V30 1116 O 103.606 1.86527 0.271994 0
M  V30 1117 C 100.733 3.3855 0.100915 0
M  V30 1118 C 99.7788 4.18317 -0.831438 0
M  V30 1119 S 100.612 4.82375 -2.32539 0
M  V30 1120 C 101.768 6.04508 -1.62238 0
M  V30 1121 H 102.001 2.5738 -1.48805 0
M  V30 1122 H 99.5338 1.27327 -0.873338 0
M  V30 1123 H 101.492 4.07358 0.506898 0
M  V30 1124 H 100.153 2.99338 0.951604 0
M  V30 1125 H 99.3458 5.03232 -0.278071 0
M  V30 1126 H 98.9478 3.5499 -1.17719 0
M  V30 1127 H 101.24 6.71133 -0.926622 0
M  V30 1128 H 102.183 6.64389 -2.44934 0
M  V30 1129 H 102.591 5.53559 -1.106 0
M  V30 1130 N 101.989 0.842826 1.3317 0
M  V30 1131 C 103.219 0.453397 2.01564 0
M  V30 1132 C 103.627 -0.951147 1.63554 0
M  V30 1133 O 102.97 -1.63021 0.846746 0
M  V30 1134 C 103.032 0.499013 3.5602 0
M  V30 1135 C 102.696 1.86037 4.1742 0
M  V30 1136 C 103.693 2.82416 4.36506 0
M  V30 1137 C 101.378 2.15428 4.53757 0
M  V30 1138 C 103.372 4.06346 4.91082 0
M  V30 1139 C 101.059 3.39615 5.0804 0
M  V30 1140 C 102.057 4.3489 5.26649 0
M  V30 1141 O 101.745 5.5688 5.79776 0
M  V30 1142 H 101.477 0.177871 0.652179 0
M  V30 1143 H 104.031 1.13808 1.70988 0
M  V30 1144 H 102.261 -0.242467 3.85939 0
M  V30 1145 H 103.95 0.126852 4.05702 0
M  V30 1146 H 104.716 2.6101 4.08777 0
M  V30 1147 H 100.595 1.42061 4.38565 0
M  V30 1148 H 104.139 4.80722 5.05522 0
M  V30 1149 H 100.036 3.60876 5.352 0
M  V30 1150 H 100.804 5.58674 5.98185 0
M  V30 1151 N 103.467 -1.45747 0.599634 0
M  V30 1152 C 104.397 -2.33235 -0.111306 0
M  V30 1153 C 105.378 -1.46359 -0.866781 0
M  V30 1154 O 106.563 -1.75146 -0.838904 0
M  V30 1155 C 103.693 -3.28932 -1.11451 0
M  V30 1156 C 102.647 -4.25381 -0.472772 0
M  V30 1157 C 101.973 -5.1071 -1.58365 0
M  V30 1158 C 103.273 -5.18831 0.600948 0
M  V30 1159 H 104.967 -2.92927 0.61919 0
M  V30 1160 H 102.513 -1.40857 0.299215 0
M  V30 1161 H 104.466 -3.89002 -1.62036 0
M  V30 1162 H 103.19 -2.67381 -1.8755 0
M  V30 1163 H 101.849 -3.66598 0.0121472 0
M  V30 1164 H 101.497 -4.45533 -2.33473 0
M  V30 1165 H 101.197 -5.7604 -1.15982 0
M  V30 1166 H 102.721 -5.73647 -2.09194 0
M  V30 1167 H 104.135 -5.73019 0.179491 0
M  V30 1168 H 102.532 -5.92595 0.946076 0
M  V30 1169 H 103.602 -4.6174 1.48068 0
M  V30 1170 N 104.945 -0.338344 -1.53925 0
M  V30 1171 C 106.194 0.260732 -2.00008 0
M  V30 1172 C 106.507 1.52073 -1.23017 0
M  V30 1173 O 107.713 2.19672 -1.5955 0
M  V30 1174 C 106.169 0.51515 -3.56194 0
M  V30 1175 C 105.777 -0.728645 -4.42035 0
M  V30 1176 C 107.521 1.07337 -4.10706 0
M  V30 1177 C 105.428 -0.445315 -5.89721 0
M  V30 1178 H 104.358 0.101205 -0.747177 0
M  V30 1179 H 107.009 -0.452866 -1.77824 0
M  V30 1180 H 105.391 1.28932 -3.74423 0
M  V30 1181 H 106.565 -1.50352 -4.35581 0
M  V30 1182 H 104.88 -1.20813 -3.98489 0
M  V30 1183 H 107.477 1.30022 -5.18651 0
M  V30 1184 H 107.82 2.0273 -3.63602 0
M  V30 1185 H 108.353 0.360034 -3.96167 0
M  V30 1186 H 105.092 -1.36883 -6.41049 0
M  V30 1187 H 104.612 0.291569 -5.99091 0
M  V30 1188 H 106.291 -0.0606218 -6.46972 0
M  V30 1189 N 106.423 1.57458 -0.0668435 0
M  V30 1190 C 107.67 1.93301 0.603406 0
M  V30 1191 C 107.998 0.946486 1.69917 0
M  V30 1192 O 107.253 -0.0387021 1.95662 0
M  V30 1193 C 107.552 3.35784 1.22409 0
M  V30 1194 C 107.218 4.50179 0.254955 0
M  V30 1195 C 105.88 4.81199 -0.0116746 0
M  V30 1196 C 108.232 5.19598 -0.408338 0
M  V30 1197 C 105.56 5.78978 -0.94877 0
M  V30 1198 C 107.912 6.18381 -1.33372 0
M  V30 1199 C 106.576 6.47821 -1.60887 0
M  V30 1200 H 105.846 0.707338 0.220802 0
M  V30 1201 H 108.493 1.91012 -0.136665 0
M  V30 1202 H 106.798 3.34515 2.03978 0
M  V30 1203 H 108.495 3.60804 1.74989 0
M  V30 1204 H 105.085 4.25983 0.472954 0
M  V30 1205 H 109.269 4.95832 -0.215456 0
M  V30 1206 H 104.525 6.00115 -1.16925 0
M  V30 1207 H 108.699 6.71277 -1.85367 0
M  V30 1208 H 106.326 7.23399 -2.33661 0
M  V30 1209 N 107.901 -0.206675 1.56239 0
M  V30 1210 C 109.141 -0.93574 1.81723 0
M  V30 1211 C 109.505 -1.80927 0.642609 0
M  V30 1212 O 110.706 -2.57323 0.777081 0
M  V30 1213 C 108.977 -1.74012 3.12177 0
M  V30 1214 S 110.536 -2.52279 3.59028 0
M  V30 1215 H 107.354 -0.314065 0.637875 0
M  V30 1216 H 109.956 -0.200071 1.94474 0
M  V30 1217 H 108.66 -1.0888 3.95693 0
M  V30 1218 H 108.191 -2.51782 3.02274 0
M  V30 1219 H 110.206 -3.76209 3.23545 0
M  V30 1220 N 109.379 -1.50304 -0.473955 0
M  V30 1221 C 110.311 -1.65109 -1.58971 0
M  V30 1222 C 111.324 -0.532676 -1.53839 0
M  V30 1223 O 112.513 -0.805751 -1.59279 0
M  V30 1224 C 109.613 -1.61684 -2.97845 0
M  V30 1225 C 108.786 -2.8951 -3.27876 0
M  V30 1226 C 107.845 -2.78768 -4.4629 0
M  V30 1227 O 106.871 -3.52722 -4.46739 0
M  V30 1228 N 108.073 -1.9213 -5.47783 0
M  V30 1229 H 110.838 -2.61347 -1.46689 0
M  V30 1230 H 108.399 -1.47732 -0.662324 0
M  V30 1231 H 110.391 -1.52114 -3.75024 0
M  V30 1232 H 108.961 -0.731925 -3.03911 0
M  V30 1233 H 108.181 -3.13228 -2.39336 0
M  V30 1234 H 109.469 -3.74199 -3.4475 0
M  V30 1235 H 108.867 -1.31353 -5.50239 0
M  V30 1236 H 107.424 -1.88466 -6.23958 0
M  V30 1237 N 110.857 0.726932 -1.39834 0
M  V30 1238 C 111.805 1.86235 -1.39353 0
M  V30 1239 C 112.799 1.67144 -0.275555 0
M  V30 1240 O 114.005 1.74387 -0.44601 0
M  V30 1241 H 110.38 0.613174 -0.43534 0
M  V30 1242 H 112.351 1.83756 -2.35109 0
M  V30 1243 C 111.1 3.23995 -1.26185 0
M  V30 1244 H 110.423 3.39285 -2.11484 0
M  V30 1245 H 111.863 4.03609 -1.29907 0
M  V30 1246 C 110.322 3.36888 0.0290018 0
M  V30 1247 O 110.852 3.89152 0.99619 0
M  V30 1248 N 109.058 2.90446 0.0947437 0
M  V30 1249 H 108.605 2.48102 -0.693035 0
M  V30 1250 H 108.563 2.99451 0.957932 0
M  V30 1251 N 112.336 1.25143 0.95797 0
M  V30 1252 C 113.246 1.06968 2.08794 0
M  V30 1253 C 114.262 0.00773911 1.73998 0
M  V30 1254 O 115.438 0.207972 2.00323 0
M  V30 1255 C 112.503 0.68691 3.39827 0
M  V30 1256 C 111.564 1.82641 3.88511 0
M  V30 1257 C 110.797 1.46181 5.1329 0
M  V30 1258 O 111.02 0.355971 5.69288 0
M  V30 1259 O 109.954 2.29085 5.566 0
M  V30 1260 H 113.78 2.01723 2.27027 0
M  V30 1261 H 111.365 1.04051 1.07209 0
M  V30 1262 H 113.247 0.485417 4.18595 0
M  V30 1263 H 111.922 -0.231417 3.22872 0
M  V30 1264 H 110.829 2.08274 3.10762 0
M  V30 1265 H 112.162 2.72386 4.09959 0
M  V30 1266 N 113.814 -1.1601 1.06675 0
M  V30 1267 C 114.747 -2.1947 0.625168 0
M  V30 1268 C 115.725 -1.58699 -0.354041 0
M  V30 1269 O 116.909 -1.86669 -0.262098 0
M  V30 1270 C 114.036 -3.38598 -0.0829593 0
M  V30 1271 C 113.082 -4.1787 0.853611 0
M  V30 1272 S 113.915 -4.81135 2.35094 0
M  V30 1273 C 115.071 -6.03639 1.65441 0
M  V30 1274 H 115.304 -2.56587 1.50168 0
M  V30 1275 H 112.837 -1.26862 0.880078 0
M  V30 1276 H 114.795 -4.07621 -0.485288 0
M  V30 1277 H 113.456 -2.99839 -0.935716 0
M  V30 1278 H 112.649 -5.03078 0.304755 0
M  V30 1279 H 112.251 -3.54361 1.196 0
M  V30 1280 H 114.543 -6.70632 0.962201 0
M  V30 1281 H 115.486 -6.63081 2.48454 0
M  V30 1282 H 115.894 -5.52965 1.13534 0
M  V30 1283 N 115.292 -0.849877 -1.32721 0
M  V30 1284 C 116.255 -0.296122 -2.27279 0
M  V30 1285 C 117.255 0.541458 -1.5141 0
M  V30 1286 O 118.445 0.353658 -1.70572 0
M  V30 1287 C 115.577 0.581579 -3.35902 0
M  V30 1288 H 116.77 -1.13064 -2.77771 0
M  V30 1289 H 114.323 -0.62383 -1.43311 0
M  V30 1290 H 115.058 1.43809 -2.9067 0
M  V30 1291 H 114.843 -0.0178814 -3.92096 0
M  V30 1292 H 116.333 0.961951 -4.0637 0
M  V30 1293 N 116.77 1.45427 -0.607355 0
M  V30 1294 C 118.018 2.01841 -0.102253 0
M  V30 1295 C 118.339 1.47832 1.27164 0
M  V30 1296 O 117.609 0.672497 1.83995 0
M  V30 1297 H 116.189 0.746188 -0.0348101 0
M  V30 1298 H 118.851 1.78229 -0.7887 0
M  V30 1299 H 117.947 3.12057 -0.0518585 0
M  V30 1300 N 118.248 0.346503 1.53744 0
M  V30 1301 C 119.494 -0.249473 2.0126 0
M  V30 1302 C 119.827 -1.49965 1.23386 0
M  V30 1303 O 119.102 -1.91811 0.32229 0
M  V30 1304 C 119.385 -0.560643 3.55709 0
M  V30 1305 C 119.238 0.701836 4.44291 0
M  V30 1306 C 120.557 -1.36905 4.18264 0
M  V30 1307 H 117.676 -0.0891987 0.731582 0
M  V30 1308 H 120.318 0.467624 1.84156 0
M  V30 1309 H 118.468 -1.17156 3.70414 0
M  V30 1310 H 120.14 1.33974 4.41417 0
M  V30 1311 H 118.383 1.32612 4.13033 0
M  V30 1312 H 119.054 0.43933 5.50249 0
M  V30 1313 H 121.53 -0.852448 4.07275 0
M  V30 1314 H 120.406 -1.55553 5.26398 0
M  V30 1315 H 120.667 -2.37203 3.73078 0
M  V30 1316 N 119.726 -1.57421 0.075193 0
M  V30 1317 C 120.656 -2.15942 -0.888324 0
M  V30 1318 C 121.637 -1.08737 -1.30806 0
M  V30 1319 O 122.822 -1.36787 -1.37851 0
M  V30 1320 C 119.952 -2.72379 -2.1547 0
M  V30 1321 C 118.906 -3.8478 -1.87425 0
M  V30 1322 C 118.232 -4.27834 -3.20721 0
M  V30 1323 C 119.532 -5.08869 -1.17684 0
M  V30 1324 H 121.226 -2.96705 -0.400799 0
M  V30 1325 H 118.772 -1.42723 -0.191342 0
M  V30 1326 H 120.725 -3.11965 -2.83295 0
M  V30 1327 H 119.449 -1.88841 -2.6647 0
M  V30 1328 H 118.108 -3.45703 -1.22004 0
M  V30 1329 H 117.756 -3.41214 -3.6957 0
M  V30 1330 H 117.456 -5.03605 -3.02746 0
M  V30 1331 H 118.98 -4.70039 -3.89738 0
M  V30 1332 H 120.394 -5.4575 -1.75584 0
M  V30 1333 H 118.791 -5.8994 -1.09956 0
M  V30 1334 H 119.861 -4.84648 -0.156453 0
M  V30 1335 N 121.204 0.198386 -1.56346 0
M  V30 1336 C 122.429 0.939682 -1.84891 0
M  V30 1337 C 122.854 1.76202 -0.658369 0
M  V30 1338 O 122.212 1.76993 0.392851 0
M  V30 1339 C 122.26 1.81428 -3.11635 0
M  V30 1340 O 121.364 2.91265 -2.91956 0
M  V30 1341 H 120.705 0.264807 -0.608912 0
M  V30 1342 H 123.235 0.204695 -2.03573 0
M  V30 1343 H 123.245 2.21958 -3.42343 0
M  V30 1344 H 121.92 1.21004 -3.97908 0
M  V30 1345 H 120.497 2.54514 -2.72538 0
M  V30 1346 N 122.682 1.50554 0.465978 0
M  V30 1347 C 123.929 1.61798 1.21768 0
M  V30 1348 C 124.257 0.320696 1.91838 0
M  V30 1349 O 123.512 -0.693724 1.82992 0
M  V30 1350 C 123.811 2.75152 2.28093 0
M  V30 1351 C 123.477 4.15454 1.75239 0
M  V30 1352 C 122.139 4.53628 1.60546 0
M  V30 1353 C 124.491 5.03121 1.36083 0
M  V30 1354 C 121.819 5.77204 1.05128 0
M  V30 1355 C 124.171 6.27249 0.821056 0
M  V30 1356 C 122.835 6.64221 0.660795 0
M  V30 1357 H 122.105 0.592063 0.445582 0
M  V30 1358 H 124.752 1.84503 0.512927 0
M  V30 1359 H 123.057 2.46556 3.04496 0
M  V30 1360 H 124.754 2.81055 2.86023 0
M  V30 1361 H 121.344 3.85341 1.87644 0
M  V30 1362 H 125.528 4.74257 1.46267 0
M  V30 1363 H 120.784 6.0452 0.91462 0
M  V30 1364 H 124.958 6.94537 0.509018 0
M  V30 1365 H 122.585 7.59854 0.229226 0
M  V30 1366 N 124.16 -0.719506 1.40217 0
M  V30 1367 C 125.108 -1.85493 1.40339 0
M  V30 1368 C 126.102 -1.66995 0.284415 0
M  V30 1369 O 127.308 -1.74148 0.455252 0
M  V30 1370 H 123.683 -0.610857 0.438586 0
M  V30 1371 H 125.654 -1.82506 2.36081 0
M  V30 1372 C 124.403 -3.23321 1.27901 0
M  V30 1373 H 123.726 -3.38159 2.1328 0
M  V30 1374 H 125.166 -4.02914 1.32045 0
M  V30 1375 C 123.625 -3.36898 -0.0111355 0
M  V30 1376 O 124.155 -3.89674 -0.975538 0
M  V30 1377 N 122.361 -2.90492 -0.0793393 0
M  V30 1378 H 121.908 -2.47731 0.706183 0
M  V30 1379 H 121.866 -2.99955 -0.942038 0
M  V30 1380 N 125.638 -1.25649 -0.95132 0
M  V30 1381 C 126.601 -1.06399 -2.03007 0
M  V30 1382 C 127.601 -0.0156794 -1.60792 0
M  V30 1383 O 128.791 -0.25817 -1.72276 0
M  V30 1384 C 125.923 -0.616184 -3.35285 0
M  V30 1385 H 127.116 -2.02164 -2.21517 0
M  V30 1386 H 124.669 -1.08103 -1.12887 0
M  V30 1387 H 125.404 0.343917 -3.22471 0
M  V30 1388 H 125.189 -1.37301 -3.67275 0
M  V30 1389 H 126.679 -0.503032 -4.14559 0
M  V30 1390 N 127.117 1.15442 -1.07289 0
M  V30 1391 C 128.366 1.85557 -0.790669 0
M  V30 1392 C 128.679 1.83186 0.685739 0
M  V30 1393 O 129.885 2.48977 1.0827 0
M  V30 1394 C 128.341 3.33038 -1.36433 0
M  V30 1395 C 127.949 3.43856 -2.8717 0
M  V30 1396 C 129.693 4.0834 -1.1601 0
M  V30 1397 C 127.6 4.85482 -3.3773 0
M  V30 1398 H 126.53 0.695122 -0.292098 0
M  V30 1399 H 129.181 1.30219 -1.29287 0
M  V30 1400 H 127.563 3.88043 -0.789864 0
M  V30 1401 H 128.737 2.98961 -3.50655 0
M  V30 1402 H 127.052 2.81998 -3.06376 0
M  V30 1403 H 129.649 5.12859 -1.51262 0
M  V30 1404 H 129.992 4.16182 -0.0991007 0
M  V30 1405 H 130.525 3.59603 -1.70089 0
M  V30 1406 H 127.264 4.82823 -4.43353 0
M  V30 1407 H 126.784 5.30961 -2.78999 0
M  V30 1408 H 128.463 5.54335 -3.33648 0
M  V30 1409 N 128.595 0.856903 1.32268 0
M  V30 1410 C 129.505 0.306131 2.32594 0
M  V30 1411 C 130.521 -0.577209 1.64147 0
M  V30 1412 O 131.697 -0.477043 1.95669 0
M  V30 1413 C 128.762 -0.494561 3.43154 0
M  V30 1414 C 127.823 0.415186 4.27288 0
M  V30 1415 C 127.056 -0.347387 5.32568 0
M  V30 1416 O 127.279 -1.57708 5.48165 0
M  V30 1417 O 126.213 0.287982 6.01211 0
M  V30 1418 H 130.039 1.13737 2.81598 0
M  V30 1419 H 127.624 0.619902 1.35932 0
M  V30 1420 H 129.506 -0.948944 4.10576 0
M  V30 1421 H 128.181 -1.30257 2.96336 0
M  V30 1422 H 127.088 0.917793 3.62667 0
M  V30 1423 H 128.421 1.18844 4.77637 0
M  V30 1424 N 130.073 -1.45103 0.615059 0
M  V30 1425 C 131.484 -1.85654 0.197383 0
M  V30 1426 C 131.835 -1.51433 -1.24749 0
M  V30 1427 O 130.96 -0.944608 -1.94695 0
M  V30 1428 C 131.555 -3.36972 0.351448 0
M  V30 1429 C 130.114 -3.76398 -0.011593 0
M  V30 1430 C 129.261 -2.69024 0.672394 0
M  V30 1431 H 132.212 -1.35797 0.821263 0
M  V30 1432 H 132.233 -3.78239 -0.414227 0
M  V30 1433 H 131.745 -3.61847 1.40314 0
M  V30 1434 H 129.846 -3.5714 -1.06217 0
M  V30 1435 H 129.959 -4.77532 0.387265 0
M  V30 1436 H 128.323 -2.54465 0.109284 0
M  V30 1437 H 129.106 -2.96735 1.72636 0
M  V30 1438 N 131.551 -0.354651 -1.53558 0
M  V30 1439 C 132.8 0.239504 -2.00273 0
M  V30 1440 C 133.113 1.50759 -1.24623 0
M  V30 1441 O 134.319 2.17968 -1.61871 0
M  V30 1442 C 132.775 0.477341 -3.5672 0
M  V30 1443 C 132.383 -0.775488 -4.41237 0
M  V30 1444 C 134.127 1.02975 -4.11821 0
M  V30 1445 C 132.034 -0.507838 -5.89216 0
M  V30 1446 H 130.964 0.0932743 -0.748208 0
M  V30 1447 H 133.615 -0.471701 -1.77334 0
M  V30 1448 H 131.997 1.24953 -3.7577 0
M  V30 1449 H 133.171 -1.54963 -4.33962 0
M  V30 1450 H 131.486 -1.25033 -3.97185 0
M  V30 1451 H 134.083 1.24513 -5.2 0
M  V30 1452 H 134.426 1.98862 -3.65731 0
M  V30 1453 H 134.959 0.317994 -3.96527 0
M  V30 1454 H 131.698 -1.43674 -6.39561 0
M  V30 1455 H 131.218 0.228011 -5.99366 0
M  V30 1456 H 132.897 -0.129238 -6.46871 0
M  V30 1457 N 133.029 1.57378 -0.0835403 0
M  V30 1458 C 133.977 2.14602 0.89714 0
M  V30 1459 C 134.971 1.08589 1.30018 0
M  V30 1460 O 136.177 1.26952 1.27606 0
M  V30 1461 H 132.552 0.686346 0.3073 0
M  V30 1462 H 134.523 2.95845 0.38969 0
M  V30 1463 C 133.272 2.73188 2.15089 0
M  V30 1464 H 132.595 3.54442 1.84962 0
M  V30 1465 H 134.035 3.1681 2.81793 0
M  V30 1466 C 132.494 1.68517 2.91725 0
M  V30 1467 O 133.024 1.11718 3.85852 0
M  V30 1468 N 131.23 1.39277 2.55049 0
M  V30 1469 H 130.777 1.85655 1.78577 0
M  V30 1470 H 130.735 0.694791 3.06627 0
M  V30 1471 N 134.507 -0.190092 1.56449 0
M  V30 1472 C 135.454 -1.23557 1.94942 0
M  V30 1473 C 136.424 -1.44972 0.810696 0
M  V30 1474 O 137.609 -1.58023 1.06927 0
M  V30 1475 C 134.749 -2.57416 2.2985 0
M  V30 1476 C 133.862 -2.43537 3.5681 0
M  V30 1477 C 132.997 -3.70134 3.81017 0
M  V30 1478 C 132.036 -3.51109 5.01387 0
M  V30 1479 N 131.173 -4.6973 5.21822 0
M  V30 1480 H 136.013 -0.900304 2.84075 0
M  V30 1481 H 133.55 -0.43318 1.40577 0
M  V30 1482 H 135.508 -3.35409 2.48106 0
M  V30 1483 H 134.138 -2.88975 1.43852 0
M  V30 1484 H 133.19 -1.56816 3.46573 0
M  V30 1485 H 134.502 -2.25415 4.4496 0
M  V30 1486 H 133.656 -4.56566 3.9954 0
M  V30 1487 H 132.395 -3.91215 2.91207 0
M  V30 1488 H 131.4 -2.63063 4.82782 0
M  V30 1489 H 132.625 -3.31468 5.9271 0
M  V30 1490 H 130.571 -4.91065 4.34961 0
M  V30 1491 H 130.488 -4.54452 6.0416 0
M  V30 1492 H 131.756 -5.57499 5.44808 0
M  V30 1493 N 135.985 -1.50799 -0.457987 0
M  V30 1494 C 136.948 -1.7005 -1.53674 0
M  V30 1495 C 137.948 -0.570881 -1.50325 0
M  V30 1496 O 139.138 -0.838126 -1.52712 0
M  V30 1497 C 136.27 -1.73788 -2.93276 0
M  V30 1498 H 137.463 -2.66306 -1.37917 0
M  V30 1499 H 135.016 -1.40477 -0.685271 0
M  V30 1500 H 135.751 -0.792717 -3.14462 0
M  V30 1501 H 135.536 -2.55864 -2.97113 0
M  V30 1502 H 137.026 -1.90591 -3.71571 0
M  V30 1503 N 137.463 0.71206 -1.40597 0
M  V30 1504 C 138.426 1.80785 -1.40888 0
M  V30 1505 C 139.426 1.57937 -0.302103 0
M  V30 1506 O 140.616 1.64913 -0.561182 0
M  V30 1507 C 137.748 3.18927 -1.20409 0
M  V30 1508 H 138.941 1.81924 -2.38419 0
M  V30 1509 H 136.494 0.91805 -1.26497 0
M  V30 1510 H 137.229 3.23436 -0.236522 0
M  V30 1511 H 137.014 3.36911 -2.00582 0
M  V30 1512 H 138.504 3.98949 -1.23408 0
M  V30 1513 N 138.941 1.26152 0.944643 0
M  V30 1514 C 140.171 1.14094 1.72239 0
M  V30 1515 C 140.579 -0.306931 1.86694 0
M  V30 1516 O 139.922 -1.22222 1.3714 0
M  V30 1517 C 139.984 1.73316 3.14963 0
M  V30 1518 C 139.648 3.2239 3.23904 0
M  V30 1519 C 140.645 4.19252 3.07447 0
M  V30 1520 C 138.33 3.62788 3.47405 0
M  V30 1521 C 140.324 5.54491 3.14353 0
M  V30 1522 C 138.011 4.98162 3.53947 0
M  V30 1523 C 139.009 5.93823 3.37436 0
M  V30 1524 O 138.697 7.26732 3.43679 0
M  V30 1525 H 138.429 0.398292 0.546205 0
M  V30 1526 H 140.983 1.67201 1.19301 0
M  V30 1527 H 139.213 1.14667 3.69308 0
M  V30 1528 H 140.902 1.56214 3.74636 0
M  V30 1529 H 141.668 3.8938 2.8915 0
M  V30 1530 H 137.547 2.88816 3.59313 0
M  V30 1531 H 141.091 6.29137 3.01384 0
M  V30 1532 H 136.988 5.27695 3.71763 0
M  V30 1533 H 137.756 7.3496 3.60245 0
M  V30 1534 N 140.419 -1.14872 1.07899 0
M  V30 1535 C 141.668 -1.85135 0.800499 0
M  V30 1536 C 141.981 -1.83547 -0.676014 0
M  V30 1537 O 143.187 -2.49548 -1.06948 0
M  V30 1538 C 141.643 -3.3231 1.38197 0
M  V30 1539 C 141.251 -3.42329 2.8899 0
M  V30 1540 C 142.995 -4.0772 1.18174 0
M  V30 1541 C 140.902 -4.83684 3.403 0
M  V30 1542 H 139.832 -0.693563 0.29578 0
M  V30 1543 H 142.483 -1.29532 1.29976 0
M  V30 1544 H 140.865 -3.87618 0.810431 0
M  V30 1545 H 142.039 -2.97097 3.52236 0
M  V30 1546 H 140.354 -2.80369 3.07867 0
M  V30 1547 H 142.951 -5.12049 1.5398 0
M  V30 1548 H 143.294 -4.16124 0.12117 0
M  V30 1549 H 143.827 -3.58696 1.71994 0
M  V30 1550 H 140.566 -4.80465 4.45907 0
M  V30 1551 H 140.086 -5.29474 2.81811 0
M  V30 1552 H 141.765 -5.52558 3.36584 0
M  V30 1553 N 141.898 -0.863906 -1.31812 0
M  V30 1554 C 143.146 -0.470904 -1.96537 0
M  V30 1555 C 143.467 0.978771 -1.68657 0
M  V30 1556 O 142.737 1.6853 -0.998717 0
M  V30 1557 H 141.317 -0.171148 -0.72713 0
M  V30 1558 H 143.979 -1.10236 -1.60729 0
M  V30 1559 H 143.075 -0.623616 -3.05806 0
M  V30 1560 N 143.376 1.44774 -0.622745 0
M  V30 1561 C 144.606 2.06187 -0.130532 0
M  V30 1562 C 145.014 1.46547 1.19669 0
M  V30 1563 O 144.357 0.579636 1.74316 0
M  V30 1564 C 144.419 3.59437 0.0674983 0
M  V30 1565 C 144.083 4.41496 -1.18026 0
M  V30 1566 C 145.08 4.75512 -2.102 0
M  V30 1567 C 142.765 4.82007 -1.41333 0
M  V30 1568 C 144.759 5.48912 -3.23998 0
M  V30 1569 C 142.446 5.55157 -2.55429 0
M  V30 1570 C 143.444 5.88528 -3.46589 0
M  V30 1571 O 143.132 6.60191 -4.58697 0
M  V30 1572 H 142.864 0.672045 -0.0730162 0
M  V30 1573 H 145.418 1.86768 -0.854802 0
M  V30 1574 H 143.648 3.77314 0.846825 0
M  V30 1575 H 145.337 4.02642 0.513209 0
M  V30 1576 H 146.103 4.4476 -1.93425 0
M  V30 1577 H 141.982 4.55457 -0.712709 0
M  V30 1578 H 145.526 5.74877 -3.95174 0
M  V30 1579 H 141.423 5.85324 -2.72151 0
M  V30 1580 H 142.191 6.78654 -4.57571 0
M  V30 1581 N 144.854 0.36279 1.53368 0
M  V30 1582 C 146.1 -0.220702 2.02199 0
M  V30 1583 C 146.455 -1.46649 1.24546 0
M  V30 1584 O 145.748 -1.88737 0.32996 0
M  V30 1585 C 145.942 -0.568417 3.52851 0
M  V30 1586 C 145.771 0.642126 4.45092 0
M  V30 1587 C 144.541 1.15335 4.91961 0
M  V30 1588 C 146.739 1.50649 4.91741 0
M  V30 1589 N 144.721 2.3242 5.68202 0
M  V30 1590 C 146.092 2.52404 5.66297 0
M  V30 1591 C 148.147 1.52969 4.73819 0
M  V30 1592 C 146.85 3.56331 6.24836 0
M  V30 1593 C 148.876 2.55789 5.33222 0
M  V30 1594 C 148.238 3.56268 6.07662 0
M  V30 1595 H 144.337 -0.0435508 0.780786 0
M  V30 1596 H 146.921 0.506704 1.87991 0
M  V30 1597 H 145.092 -1.2649 3.67226 0
M  V30 1598 H 146.824 -1.13676 3.88407 0
M  V30 1599 H 143.579 0.718412 4.68119 0
M  V30 1600 H 144.003 2.91591 6.10986 0
M  V30 1601 H 148.645 0.766418 4.15795 0
M  V30 1602 H 146.363 4.33543 6.81958 0
M  V30 1603 H 149.949 2.58435 5.21251 0
M  V30 1604 H 148.829 4.34524 6.52808 0
M  V30 1605 N 146.332 -1.57332 0.0918853 0
M  V30 1606 C 147.262 -2.16872 -0.865371 0
M  V30 1607 C 148.243 -1.10118 -1.29646 0
M  V30 1608 O 149.428 -1.38242 -1.36392 0
M  V30 1609 C 146.558 -2.74649 -2.12569 0
M  V30 1610 C 145.512 -3.86747 -1.83333 0
M  V30 1611 C 144.838 -4.31212 -3.16166 0
M  V30 1612 C 146.138 -5.10089 -1.1228 0
M  V30 1613 H 147.832 -2.97114 -0.369307 0
M  V30 1614 H 145.378 -1.42918 -0.176194 0
M  V30 1615 H 147.331 -3.14952 -2.7997 0
M  V30 1616 H 146.055 -1.91657 -2.64452 0
M  V30 1617 H 144.714 -3.46978 -1.18331 0
M  V30 1618 H 144.362 -3.45115 -3.6593 0
M  V30 1619 H 144.062 -5.06788 -2.97388 0
M  V30 1620 H 145.586 -4.74146 -3.84731 0
M  V30 1621 H 147 -5.47582 -1.69785 0
M  V30 1622 H 145.397 -5.91073 -1.03693 0
M  V30 1623 H 146.467 -4.84786 -0.105041 0
M  V30 1624 N 147.81 0.181792 -1.56548 0
M  V30 1625 C 149.087 0.926765 -1.72251 0
M  V30 1626 C 149.467 2.00831 -0.650386 0
M  V30 1627 O 148.815 2.26008 0.336521 0
M  V30 1628 C 149.025 1.50106 -3.1507 0
M  V30 1629 C 150.373 1.97805 -3.75711 0
M  V30 1630 O 151.397 1.59922 -3.18282 0
M  V30 1631 O 150.256 2.67555 -4.76525 0
M  V30 1632 H 147.35 0.435506 -0.703039 0
M  V30 1633 H 149.896 0.170443 -1.68842 0
M  V30 1634 H 148.668 0.72212 -3.84579 0
M  V30 1635 H 148.291 2.32186 -3.22763 0
M  V30 1636 N 149.288 1.51039 0.449983 0
M  V30 1637 C 150.198 1.74261 1.57067 0
M  V30 1638 C 151.214 0.626363 1.62335 0
M  V30 1639 O 152.39 0.907162 1.79812 0
M  V30 1640 C 149.455 1.85114 2.93144 0
M  V30 1641 C 148.516 3.0893 2.98095 0
M  V30 1642 C 147.749 3.19256 4.27681 0
M  V30 1643 O 147.972 2.35835 5.19363 0
M  V30 1644 O 146.906 4.12144 4.38658 0
M  V30 1645 H 150.732 2.69303 1.40391 0
M  V30 1646 H 148.317 1.35389 0.631688 0
M  V30 1647 H 150.199 1.94311 3.73926 0
M  V30 1648 H 148.874 0.932588 3.09975 0
M  V30 1649 H 147.781 3.0522 2.16314 0
M  V30 1650 H 149.114 4.00433 2.86206 0
M  V30 1651 N 150.766 -0.704594 1.40972 0
M  V30 1652 C 151.991 -1.49858 1.43378 0
M  V30 1653 C 152.416 -1.88061 0.038184 0
M  V30 1654 O 151.774 -1.5402 -0.956425 0
M  V30 1655 C 151.822 -2.74333 2.34038 0
M  V30 1656 O 150.926 -3.7147 1.7912 0
M  V30 1657 H 150.267 -0.45139 0.486974 0
M  V30 1658 H 152.797 -0.866832 1.8533 0
M  V30 1659 H 152.807 -3.22741 2.49604 0
M  V30 1660 H 151.482 -2.45863 3.35446 0
M  V30 1661 H 150.059 -3.30363 1.72958 0
M  V30 1662 N 152.244 -1.26651 -0.937939 0
M  V30 1663 C 153.491 -1.12387 -1.6845 0
M  V30 1664 C 153.819 0.332208 -1.91642 0
M  V30 1665 O 153.074 1.2602 -1.49725 0
M  V30 1666 C 153.373 -1.84168 -3.06295 0
M  V30 1667 C 153.039 -3.34056 -3.02849 0
M  V30 1668 C 151.701 -3.74942 -3.01616 0
M  V30 1669 C 154.053 -4.29741 -2.9491 0
M  V30 1670 C 151.381 -5.09894 -2.90215 0
M  V30 1671 C 153.733 -5.64738 -2.8505 0
M  V30 1672 C 152.397 -6.0493 -2.82162 0
M  V30 1673 H 151.667 -0.411252 -0.616403 0
M  V30 1674 H 154.314 -1.57134 -1.09459 0
M  V30 1675 H 152.619 -1.319 -3.6893 0
M  V30 1676 H 154.316 -1.70569 -3.62915 0
M  V30 1677 H 150.906 -3.01534 -3.0459 0
M  V30 1678 H 155.09 -3.99133 -2.94969 0
M  V30 1679 H 150.346 -5.40194 -2.86358 0
M  V30 1680 H 154.52 -6.38561 -2.77872 0
M  V30 1681 H 152.147 -7.09457 -2.73084 0
M  V30 1682 N 153.722 1.14298 -1.08507 0
M  V30 1683 C 154.654 2.1907 -0.673859 0
M  V30 1684 C 155.667 1.60381 0.279577 0
M  V30 1685 O 156.856 1.78374 0.0670754 0
M  V30 1686 C 153.956 3.38888 0.0290979 0
M  V30 1687 C 153.129 4.27103 -0.943494 0
M  V30 1688 C 152.188 5.25477 -0.275676 0
M  V30 1689 O 151.214 5.61709 -0.920401 0
M  V30 1690 N 152.416 5.7227 0.974013 0
M  V30 1691 H 155.181 2.54965 -1.57521 0
M  V30 1692 H 152.742 1.29528 -0.971287 0
M  V30 1693 H 154.734 4.01761 0.48683 0
M  V30 1694 H 153.304 3.01309 0.832555 0
M  V30 1695 H 152.524 3.61149 -1.58004 0
M  V30 1696 H 153.812 4.82905 -1.60251 0
M  V30 1697 H 153.21 5.44965 1.51755 0
M  V30 1698 H 151.767 6.37127 1.37522 0
M  V30 1699 N 155.201 0.870884 1.31352 0
M  V30 1700 C 156.449 0.48132 1.96285 0
M  V30 1701 C 156.77 -0.969813 1.69173 0
M  V30 1702 O 156.04 -1.67998 1.00764 0
M  V30 1703 H 154.62 0.175002 0.726212 0
M  V30 1704 H 157.282 1.11087 1.60143 0
M  V30 1705 H 156.378 0.639825 3.05471 0
M  V30 1706 N 156.679 -1.44442 0.630414 0
M  V30 1707 C 157.611 -2.2892 -0.113347 0
M  V30 1708 C 158.624 -1.41243 -0.80959 0
M  V30 1709 O 159.813 -1.65402 -0.671156 0
M  V30 1710 C 156.913 -3.17594 -1.18266 0
M  V30 1711 C 156.086 -4.33682 -0.569073 0
M  V30 1712 C 155.145 -5.03397 -1.53226 0
M  V30 1713 O 154.171 -5.59438 -1.04967 0
M  V30 1714 N 155.373 -5.04783 -2.86661 0
M  V30 1715 H 158.138 -2.93392 0.611636 0
M  V30 1716 H 155.699 -1.54881 0.471523 0
M  V30 1717 H 157.691 -3.61097 -1.82732 0
M  V30 1718 H 156.261 -2.54876 -1.80988 0
M  V30 1719 H 155.481 -3.9338 0.254187 0
M  V30 1720 H 156.769 -5.08608 -0.139767 0
M  V30 1721 H 156.167 -4.60584 -3.28449 0
M  V30 1722 H 154.724 -5.52077 -3.46489 0
M  V30 1723 N 158.157 -0.370918 -1.53173 0
M  V30 1724 C 159.405 0.216673 -2.00935 0
M  V30 1725 C 159.726 1.48845 -1.25977 0
M  V30 1726 O 158.996 1.92286 -0.374551 0
M  V30 1727 H 157.576 0.0830565 -0.742368 0
M  V30 1728 H 160.238 -0.49838 -1.8842 0
M  V30 1729 H 159.334 0.439893 -3.08984 0
M  V30 1730 N 159.635 1.57281 -0.100228 0
M  V30 1731 C 160.884 1.93713 0.561984 0
M  V30 1732 C 161.197 0.984492 1.69018 0
M  V30 1733 O 162.403 1.24273 2.41389 0
M  V30 1734 C 160.859 3.4421 1.05106 0
M  V30 1735 C 160.467 4.47975 -0.0476628 0
M  V30 1736 C 162.211 3.89595 1.68571 0
M  V30 1737 C 160.118 5.89631 0.457055 0
M  V30 1738 H 159.048 0.723082 0.2137 0
M  V30 1739 H 161.699 1.82644 -0.177057 0
M  V30 1740 H 160.081 3.50449 1.84395 0
M  V30 1741 H 161.255 4.53385 -0.823333 0
M  V30 1742 H 159.57 4.1223 -0.587816 0
M  V30 1743 H 162.167 4.92832 2.07414 0
M  V30 1744 H 162.51 3.28526 2.55688 0
M  V30 1745 H 163.043 3.86078 0.958562 0
M  V30 1746 H 159.782 6.54411 -0.377616 0
M  V30 1747 H 159.302 5.87681 1.19962 0
M  V30 1748 H 160.981 6.40363 0.92437 0
M  V30 1749 N 161.113 -0.173488 1.56642 0
M  V30 1750 C 162.046 -1.24353 1.91342 0
M  V30 1751 C 163.024 -1.4289 0.775965 0
M  V30 1752 O 164.208 -1.57932 1.02907 0
M  V30 1753 C 161.335 -2.60683 2.16245 0
M  V30 1754 C 160.381 -2.58894 3.38934 0
M  V30 1755 S 161.214 -2.0819 4.93373 0
M  V30 1756 C 162.37 -3.46302 5.21369 0
M  V30 1757 H 162.603 -0.947345 2.81803 0
M  V30 1758 H 160.136 -0.377958 1.49703 0
M  V30 1759 H 162.094 -3.39149 2.31275 0
M  V30 1760 H 160.755 -2.87502 1.26496 0
M  V30 1761 H 159.948 -3.59188 3.53553 0
M  V30 1762 H 159.55 -1.88522 3.2301 0
M  V30 1763 H 161.842 -4.42287 5.13214 0
M  V30 1764 H 162.785 -3.3656 6.23003 0
M  V30 1765 H 163.193 -3.42214 4.48943 0
M  V30 1766 N 162.591 -1.51276 -0.441967 0
M  V30 1767 C 163.816 -1.67799 -1.21895 0
M  V30 1768 C 164.241 -0.372864 -1.84367 0
M  V30 1769 O 163.599 0.666501 -1.68604 0
M  V30 1770 C 163.647 -2.79199 -2.28211 0
M  V30 1771 O 162.751 -2.42479 -3.33583 0
M  V30 1772 H 162.092 -0.559649 -0.357336 0
M  V30 1773 H 164.622 -1.97815 -0.522522 0
M  V30 1774 H 164.632 -3.03146 -2.73069 0
M  V30 1775 H 163.307 -3.73906 -1.82118 0
M  V30 1776 H 161.884 -2.29087 -2.94234 0
M  V30 1777 N 164.069 0.697108 -1.41344 0
M  V30 1778 C 165.001 1.8224 -1.39001 0
M  V30 1779 C 166.014 1.60152 -0.292428 0
M  V30 1780 O 167.203 1.69684 -0.554048 0
M  V30 1781 C 164.303 3.18976 -1.14489 0
M  V30 1782 C 163.476 3.68105 -2.36258 0
M  V30 1783 C 162.535 4.83506 -2.07625 0
M  V30 1784 O 161.561 4.95201 -2.8065 0
M  V30 1785 N 162.763 5.70637 -1.06555 0
M  V30 1786 H 165.528 1.84742 -2.35988 0
M  V30 1787 H 163.089 0.87937 -1.35936 0
M  V30 1788 H 165.081 3.93801 -0.932885 0
M  V30 1789 H 163.651 3.11508 -0.261043 0
M  V30 1790 H 162.871 2.84204 -2.7317 0
M  V30 1791 H 164.159 3.97667 -3.17393 0
M  V30 1792 H 163.557 5.63817 -0.461125 0
M  V30 1793 H 162.114 6.45368 -0.913444 0
M  V30 1794 N 165.547 1.27147 0.931209 0
M  V30 1795 C 166.772 1.16191 1.71797 0
M  V30 1796 C 167.197 -0.278004 1.86034 0
M  V30 1797 O 166.555 -1.20137 1.35782 0
M  V30 1798 C 166.603 1.84673 3.09723 0
M  V30 1799 O 165.707 1.14231 3.96264 0
M  V30 1800 H 165.048 0.404303 0.526721 0
M  V30 1801 H 167.578 1.68152 1.1656 0
M  V30 1802 H 167.588 1.91893 3.60057 0
M  V30 1803 H 166.263 2.89421 2.98677 0
M  V30 1804 H 164.84 1.15056 3.54706 0
M  V30 1805 N 167.025 -1.13721 1.09112 0
M  V30 1806 C 167.955 -2.21148 0.749385 0
M  V30 1807 C 168.936 -1.6792 -0.271475 0
M  V30 1808 O 170.121 -1.93693 -0.140251 0
M  V30 1809 C 167.251 -3.46905 0.165659 0
M  V30 1810 C 166.205 -4.13203 1.11567 0
M  V30 1811 C 165.531 -5.33248 0.393809 0
M  V30 1812 C 166.831 -4.60912 2.45678 0
M  V30 1813 H 168.525 -2.4999 1.64758 0
M  V30 1814 H 166.071 -1.20156 0.793626 0
M  V30 1815 H 168.024 -4.21313 -0.085466 0
M  V30 1816 H 166.748 -3.17449 -0.767714 0
M  V30 1817 H 165.407 -3.40758 1.35202 0
M  V30 1818 H 165.055 -5.00054 -0.543599 0
M  V30 1819 H 164.755 -5.78552 1.02721 0
M  V30 1820 H 166.279 -6.10413 0.150908 0
M  V30 1821 H 167.693 -5.26759 2.26269 0
M  V30 1822 H 166.09 -5.16944 3.04776 0
M  V30 1823 H 167.16 -3.75603 3.06677 0
M  V30 1824 N 168.503 -0.877838 -1.30888 0
M  V30 1825 C 169.435 -0.296607 -2.27273 0
M  V30 1826 C 170.448 0.544799 -1.53414 0
M  V30 1827 O 171.637 0.365511 -1.74718 0
M  V30 1828 C 168.737 0.597481 -3.33592 0
M  V30 1829 C 167.91 -0.213251 -4.3688 0
M  V30 1830 C 166.969 0.610208 -5.2265 0
M  V30 1831 O 165.995 0.035441 -5.69189 0
M  V30 1832 N 167.197 1.92071 -5.47804 0
M  V30 1833 H 169.962 -1.12492 -2.77787 0
M  V30 1834 H 167.523 -0.740105 -1.43993 0
M  V30 1835 H 169.515 1.15425 -3.87891 0
M  V30 1836 H 168.085 1.32647 -2.83061 0
M  V30 1837 H 167.305 -0.951466 -3.82545 0
M  V30 1838 H 168.593 -0.769262 -5.02951 0
M  V30 1839 H 167.991 2.4107 -5.11763 0
M  V30 1840 H 166.548 2.42508 -6.05007 0
M  V30 1841 N 169.982 1.44106 -0.638065 0
M  V30 1842 C 170.945 2.29138 0.0531013 0
M  V30 1843 C 171.945 1.41409 0.765506 0
M  V30 1844 O 173.135 1.63206 0.609046 0
M  V30 1845 C 170.267 3.23144 1.08584 0
M  V30 1846 H 171.46 2.91739 -0.694883 0
M  V30 1847 H 169.013 1.51134 -0.398538 0
M  V30 1848 H 169.748 2.65408 1.86357 0
M  V30 1849 H 169.533 3.87804 0.578852 0
M  V30 1850 H 171.023 3.87004 1.56899 0
M  V30 1851 N 171.46 0.379036 1.52974 0
M  V30 1852 C 172.39 -0.452706 2.29069 0
M  V30 1853 C 173.371 -1.07237 1.32039 0
M  V30 1854 O 174.556 -1.08708 1.60923 0
M  V30 1855 C 171.686 -1.5856 3.08992 0
M  V30 1856 C 170.64 -1.0925 4.13822 0
M  V30 1857 C 169.966 -2.31668 4.81907 0
M  V30 1858 C 171.266 -0.167702 5.22031 0
M  V30 1859 H 172.96 0.182181 2.98845 0
M  V30 1860 H 170.506 0.0890592 1.43724 0
M  V30 1861 H 172.459 -2.1742 3.6098 0
M  V30 1862 H 171.183 -2.24792 2.36931 0
M  V30 1863 H 169.842 -0.526494 3.628 0
M  V30 1864 H 169.49 -2.96386 4.06404 0
M  V30 1865 H 169.19 -1.9934 5.52754 0
M  V30 1866 H 170.714 -2.91189 5.36695 0
M  V30 1867 H 172.128 -0.664186 5.6944 0
M  V30 1868 H 170.525 0.0653265 6.00064 0
M  V30 1869 H 171.595 0.786347 4.78482 0
M  V30 1870 N 172.938 -1.57226 0.108567 0
M  V30 1871 C 173.871 -2.10447 -0.882464 0
M  V30 1872 C 174.849 -1.01829 -1.26766 0
M  V30 1873 O 176.033 -1.29415 -1.37054 0
M  V30 1874 C 173.16 -2.59258 -2.17952 0
M  V30 1875 C 172.206 -3.79662 -1.94318 0
M  V30 1876 S 173.039 -5.22586 -1.16892 0
M  V30 1877 C 174.195 -5.74758 -2.47799 0
M  V30 1878 H 174.428 -2.94178 -0.429745 0
M  V30 1879 H 171.961 -1.54043 -0.105 0
M  V30 1880 H 173.919 -2.88036 -2.92482 0
M  V30 1881 H 172.58 -1.75728 -2.60343 0
M  V30 1882 H 171.773 -4.11928 -2.90399 0
M  V30 1883 H 171.375 -3.51446 -1.27913 0
M  V30 1884 H 173.667 -5.83846 -3.43701 0
M  V30 1885 H 174.61 -6.73027 -2.20093 0
M  V30 1886 H 175.018 -5.02763 -2.56689 0
M  V30 1887 N 174.416 0.165178 -1.56732 0
M  V30 1888 C 175.644 0.896218 -1.86482 0
M  V30 1889 C 176.059 1.75555 -0.694675 0
M  V30 1890 O 175.416 1.79379 0.33607 0
M  V30 1891 C 175.467 1.76792 -3.1532 0
M  V30 1892 O 175.188 0.943239 -4.27825 0
M  V30 1893 C 176.689 2.6081 -3.58459 0
M  V30 1894 H 173.909 0.260064 -0.618553 0
M  V30 1895 H 176.453 0.163428 -2.03846 0
M  V30 1896 H 174.608 2.45398 -2.99764 0
M  V30 1897 H 175.022 1.53998 -5.01383 0
M  V30 1898 H 176.496 3.17579 -4.51495 0
M  V30 1899 H 176.973 3.35977 -2.82872 0
M  V30 1900 H 177.579 1.97526 -3.76648 0
M  V30 1901 N 175.894 1.51508 0.433938 0
M  V30 1902 C 176.844 1.69451 1.52546 0
M  V30 1903 C 177.828 0.548474 1.51263 0
M  V30 1904 O 179.02 0.804529 1.57659 0
M  V30 1905 C 176.149 1.82604 2.90707 0
M  V30 1906 C 175.235 3.03002 2.96733 0
M  V30 1907 N 175.626 4.26121 2.72496 0
M  V30 1908 C 173.924 3.02327 3.27894 0
M  V30 1909 C 174.625 5.07407 2.84452 0
M  V30 1910 N 173.601 4.42126 3.16269 0
M  V30 1911 H 177.403 2.62305 1.32564 0
M  V30 1912 H 174.917 1.49202 0.641297 0
M  V30 1913 H 176.914 1.93569 3.69238 0
M  V30 1914 H 175.574 0.909339 3.11707 0
M  V30 1915 H 176.585 4.55009 2.4736 0
M  V30 1916 H 173.262 2.20301 3.54646 0
M  V30 1917 H 174.652 6.15422 2.69639 0
M  V30 1918 N 177.372 -0.689602 1.41712 0
M  V30 1919 C 178.602 -1.47613 1.44548 0
M  V30 1920 C 179.01 -1.89132 0.0509034 0
M  V30 1921 O 178.353 -1.57741 -0.94146 0
M  V30 1922 C 178.415 -2.76596 2.2964 0
M  V30 1923 C 178.079 -2.57245 3.77722 0
M  V30 1924 C 179.076 -2.22804 4.69739 0
M  V30 1925 C 176.761 -2.727 4.2183 0
M  V30 1926 C 178.755 -2.04064 6.03851 0
M  V30 1927 C 176.442 -2.53576 5.56006 0
M  V30 1928 C 177.44 -2.1931 6.46832 0
M  V30 1929 O 177.128 -2.00359 7.78532 0
M  V30 1930 H 176.86 -0.461227 0.494212 0
M  V30 1931 H 179.414 -0.856045 1.86711 0
M  V30 1932 H 177.644 -3.41033 1.82301 0
M  V30 1933 H 179.333 -3.38424 2.24107 0
M  V30 1934 H 180.099 -2.10473 4.36951 0
M  V30 1935 H 175.978 -2.98353 3.51435 0
M  V30 1936 H 179.522 -1.77241 6.74708 0
M  V30 1937 H 175.419 -2.65499 5.88371 0
M  V30 1938 H 176.187 -2.15075 7.89737 0
M  V30 1939 N 178.85 -1.27639 -0.924453 0
M  V30 1940 C 179.813 -1.10681 -2.00705 0
M  V30 1941 C 180.813 -0.0497823 -1.60723 0
M  V30 1942 O 182.003 -0.294654 -1.7169 0
M  V30 1943 C 179.135 -0.687164 -3.33902 0
M  V30 1944 H 180.328 -2.06817 -2.17179 0
M  V30 1945 H 177.881 -1.10473 -1.10569 0
M  V30 1946 H 178.616 0.275439 -3.23128 0
M  V30 1947 H 178.401 -1.45061 -3.6428 0
M  V30 1948 H 179.891 -0.590853 -4.13399 0
M  V30 1949 N 180.328 1.1314 -1.09713 0
M  V30 1950 C 181.744 1.36477 -0.827423 0
M  V30 1951 C 181.944 1.93654 0.556817 0
M  V30 1952 O 181 2.15791 1.31112 0
M  V30 1953 C 182.313 2.31334 -1.92106 0
M  V30 1954 C 183.861 2.44943 -1.94864 0
M  V30 1955 C 184.336 3.4311 -3.0338 0
M  V30 1956 N 185.827 3.50662 -3.02639 0
M  V30 1957 C 186.562 4.2651 -3.83246 0
M  V30 1958 N 186.058 5.05485 -4.73768 0
M  V30 1959 N 187.851 4.2184 -3.71493 0
M  V30 1960 H 180.002 0.743807 -1.9895 0
M  V30 1961 H 182.265 0.389823 -0.864143 0
M  V30 1962 H 181.971 1.96483 -2.91698 0
M  V30 1963 H 181.845 3.31381 -1.80184 0
M  V30 1964 H 184.232 2.79079 -0.959099 0
M  V30 1965 H 184.313 1.4481 -2.10864 0
M  V30 1966 H 183.957 3.09704 -4.02549 0
M  V30 1967 H 183.887 4.43055 -2.84622 0
M  V30 1968 H 186.378 2.94315 -2.37039 0
M  V30 1969 H 186.691 5.60675 -5.3185 0
M  V30 1970 H 185.036 5.04708 -4.77802 0
M  V30 1971 H 188.227 3.5922 -3.00131 0
M  V30 1972 H 188.4 4.80697 -4.3455 0
M  V30 1973 N 181.806 0.884767 1.30421 0
M  V30 1974 C 183.222 0.57874 1.48737 0
M  V30 1975 C 183.422 -0.883567 1.81095 0
M  V30 1976 O 182.478 -1.6648 1.89844 0
M  V30 1977 C 183.791 1.49171 2.61091 0
M  V30 1978 C 185.339 1.49532 2.74971 0
M  V30 1979 C 185.814 2.39421 3.90438 0
M  V30 1980 N 187.305 2.37383 3.97748 0
M  V30 1981 C 188.04 3.03647 4.86401 0
M  V30 1982 N 187.536 3.79136 5.79852 0
M  V30 1983 N 189.329 2.9288 4.79768 0
M  V30 1984 H 181.48 1.83075 1.0769 0
M  V30 1985 H 183.743 0.783637 0.533495 0
M  V30 1986 H 183.449 2.53291 2.44001 0
M  V30 1987 H 183.323 1.20113 3.57565 0
M  V30 1988 H 185.71 0.46163 2.91467 0
M  V30 1989 H 185.791 1.8262 1.79119 0
M  V30 1990 H 185.435 3.42874 3.74699 0
M  V30 1991 H 185.365 2.03649 4.85628 0
M  V30 1992 H 187.856 1.82525 3.30897 0
M  V30 1993 H 188.169 4.26789 6.4426 0
M  V30 1994 H 186.514 3.83243 5.79784 0
M  V30 1995 H 189.705 2.33433 4.05742 0
M  V30 1996 H 189.878 3.448 5.4865 0
M  V30 1997 N 183.284 -1.43765 0.645699 0
M  V30 1998 C 184.532 -2.01499 0.155731 0
M  V30 1999 C 184.853 -1.51151 -1.232 0
M  V30 2000 O 184.123 -0.721044 -1.82148 0
M  V30 2001 H 182.703 -0.745003 0.0545817 0
M  V30 2002 H 185.365 -1.76075 0.835677 0
M  V30 2003 H 184.461 -3.1181 0.134577 0
M  V30 2004 N 184.763 -0.387143 -1.52771 0
M  V30 2005 C 186.04 0.253197 -1.93954 0
M  V30 2006 C 186.42 1.64545 -1.32243 0
M  V30 2007 O 185.768 2.23191 -0.489699 0
M  V30 2008 C 185.978 0.281722 -3.47861 0
M  V30 2009 C 187.326 0.511715 -4.21505 0
M  V30 2010 O 188.35 0.362023 -3.54356 0
M  V30 2011 O 187.209 0.804847 -5.40541 0
M  V30 2012 H 184.303 0.156845 -0.811991 0
M  V30 2013 H 186.849 -0.441494 -1.63856 0
M  V30 2014 H 185.621 -0.693571 -3.85104 0
M  V30 2015 H 185.244 1.02142 -3.84256 0
M  V30 2016 N 186.241 1.57166 -0.116904 0
M  V30 2017 C 187.49 1.94298 0.541407 0
M  V30 2018 C 187.803 1.00236 1.67964 0
M  V30 2019 O 189.009 1.26826 2.40057 0
M  V30 2020 C 187.465 3.45306 1.01449 0
M  V30 2021 C 187.073 4.47899 -0.0951738 0
M  V30 2022 C 188.817 3.91361 1.6443 0
M  V30 2023 C 186.724 5.90083 0.394491 0
M  V30 2024 H 185.654 0.725308 0.206019 0
M  V30 2025 H 188.305 1.82446 -0.196419 0
M  V30 2026 H 186.687 3.52385 1.80667 0
M  V30 2027 H 187.861 4.52486 -0.871374 0
M  V30 2028 H 186.176 4.11583 -0.631505 0
M  V30 2029 H 188.773 4.95004 2.02176 0
M  V30 2030 H 189.116 3.3122 2.52189 0
M  V30 2031 H 189.649 3.87073 0.917559 0
M  V30 2032 H 186.388 6.53974 -0.447004 0
M  V30 2033 H 185.908 5.88921 1.13722 0
M  V30 2034 H 187.587 6.41307 0.856399 0
M  V30 2035 N 187.719 -0.156864 1.56817 0
M  V30 2036 C 189.135 -0.50916 1.5126 0
M  V30 2037 C 189.335 -1.83897 0.823658 0
M  V30 2038 O 188.391 -2.49469 0.390055 0
M  V30 2039 C 189.704 -0.52857 2.96018 0
M  V30 2040 C 191.252 -0.614771 3.06903 0
M  V30 2041 C 191.727 -0.664938 4.53147 0
M  V30 2042 N 193.218 -0.727433 4.57452 0
M  V30 2043 C 193.953 -0.787067 5.67973 0
M  V30 2044 N 193.449 -0.806649 6.88088 0
M  V30 2045 N 195.242 -0.827195 5.5598 0
M  V30 2046 H 187.393 0.714935 2.00006 0
M  V30 2047 H 189.656 0.259526 0.911784 0
M  V30 2048 H 189.362 0.380154 3.49639 0
M  V30 2049 H 189.236 -1.36998 3.51442 0
M  V30 2050 H 191.623 -1.51392 2.53307 0
M  V30 2051 H 191.704 0.253597 2.5454 0
M  V30 2052 H 191.348 0.230011 5.07379 0
M  V30 2053 H 191.278 -1.54966 5.03282 0
M  V30 2054 H 193.769 -0.719998 3.70978 0
M  V30 2055 H 194.082 -0.853727 7.6807 0
M  V30 2056 H 192.427 -0.774687 6.90669 0
M  V30 2057 H 195.618 -0.808998 4.61056 0
M  V30 2058 H 195.791 -0.870206 6.4213 0
M  V30 2059 N 189.197 -1.51736 -0.425897 0
M  V30 2060 C 190.613 -1.40166 -0.76326 0
M  V30 2061 C 190.813 -0.492962 -1.95377 0
M  V30 2062 O 189.869 0.0475815 -2.52455 0
M  V30 2063 C 191.182 -2.82403 -1.03291 0
M  V30 2064 C 192.73 -2.91632 -1.13665 0
M  V30 2065 C 193.205 -4.34801 -1.43916 0
M  V30 2066 N 194.696 -4.3796 -1.50816 0
M  V30 2067 C 195.431 -5.4578 -1.75817 0
M  V30 2068 N 194.927 -6.63744 -1.98534 0
M  V30 2069 N 196.72 -5.33274 -1.77694 0
M  V30 2070 H 188.871 -2.09361 0.358 0
M  V30 2071 H 191.134 -0.942941 0.0978094 0
M  V30 2072 H 190.84 -3.50943 -0.230696 0
M  V30 2073 H 190.714 -3.22428 -1.95754 0
M  V30 2074 H 193.101 -2.23284 -1.92947 0
M  V30 2075 H 193.182 -2.55088 -0.190756 0
M  V30 2076 H 192.826 -5.03703 -0.65157 0
M  V30 2077 H 192.756 -4.68868 -2.39729 0
M  V30 2078 H 195.247 -3.52919 -1.35118 0
M  V30 2079 H 195.56 -7.41704 -2.17013 0
M  V30 2080 H 193.905 -6.66839 -1.95832 0
M  V30 2081 H 197.096 -4.40098 -1.59473 0
M  V30 2082 H 197.269 -6.1738 -1.9684 0
M  V30 2083 N 190.675 0.682077 -1.42076 0
M  V30 2084 C 191.922 1.44215 -1.42156 0
M  V30 2085 C 192.25 1.94468 -0.0354186 0
M  V30 2086 O 191.505 1.70816 0.955002 0
M  V30 2087 C 191.804 2.66036 -2.38662 0
M  V30 2088 C 191.47 2.34366 -3.85206 0
M  V30 2089 C 190.132 2.25439 -4.25124 0
M  V30 2090 C 192.484 2.08513 -4.77673 0
M  V30 2091 C 189.812 1.88775 -5.55501 0
M  V30 2092 C 192.164 1.73354 -6.08384 0
M  V30 2093 C 190.828 1.62933 -6.47309 0
M  V30 2094 H 190.098 0.527718 -0.520187 0
M  V30 2095 H 192.745 0.778387 -1.74967 0
M  V30 2096 H 191.05 3.3741 -1.99152 0
M  V30 2097 H 192.747 3.24205 -2.35991 0
M  V30 2098 H 189.337 2.42213 -3.53597 0
M  V30 2099 H 193.521 2.14346 -4.47626 0
M  V30 2100 H 188.777 1.7927 -5.84527 0
M  V30 2101 H 192.951 1.52373 -6.79526 0
M  V30 2102 H 190.578 1.34292 -7.48244 0
M  V30 2103 N 192.153 1.28127 0.917671 0
M  V30 2104 C 193.399 1.15223 1.66888 0
M  V30 2105 C 193.732 -0.299293 1.9188 0
M  V30 2106 O 193.007 -1.21805 1.51637 0
M  V30 2107 C 193.29 1.94706 3.02922 0
M  V30 2108 C 193.143 3.47898 2.85109 0
M  V30 2109 C 194.462 1.75939 4.03402 0
M  V30 2110 H 191.581 0.419946 0.605652 0
M  V30 2111 H 194.223 1.57398 1.06423 0
M  V30 2112 H 192.373 1.58864 3.54534 0
M  V30 2113 H 194.045 3.93624 2.40537 0
M  V30 2114 H 192.288 3.7373 2.20246 0
M  V30 2115 H 192.959 3.98765 3.81694 0
M  V30 2116 H 195.435 2.07209 3.60837 0
M  V30 2117 H 194.311 2.33931 4.96556 0
M  V30 2118 H 194.572 0.709877 4.36364 0
M  V30 2119 N 193.631 -1.12557 1.10312 0
M  V30 2120 C 194.88 -1.83395 0.839588 0
M  V30 2121 C 195.193 -1.84939 -0.636929 0
M  V30 2122 O 196.399 -2.51761 -1.01631 0
M  V30 2123 C 194.855 -3.29303 1.45215 0
M  V30 2124 C 194.463 -3.36122 2.96186 0
M  V30 2125 C 196.207 -4.05121 1.26796 0
M  V30 2126 C 194.114 -4.76357 3.50483 0
M  V30 2127 H 193.044 -0.687133 0.310425 0
M  V30 2128 H 195.695 -1.26746 1.32694 0
M  V30 2129 H 194.077 -3.85812 0.892469 0
M  V30 2130 H 195.251 -2.89559 3.58458 0
M  V30 2131 H 193.566 -2.73776 3.13745 0
M  V30 2132 H 196.163 -5.08668 1.64806 0
M  V30 2133 H 196.506 -4.15773 0.209409 0
M  V30 2134 H 197.039 -3.54967 1.79563 0
M  V30 2135 H 193.778 -4.70899 4.55998 0
M  V30 2136 H 193.298 -5.23377 2.92978 0
M  V30 2137 H 194.977 -5.45294 3.48228 0
M  V30 2138 N 195.109 -0.891671 -1.2995 0
M  V30 2139 C 196.056 -0.361736 -2.27948 0
M  V30 2140 C 197.026 0.551761 -1.56668 0
M  V30 2141 O 198.211 0.478736 -1.84696 0
M  V30 2142 C 195.351 0.411825 -3.42634 0
M  V30 2143 C 194.464 -0.531651 -4.28716 0
M  V30 2144 C 193.599 0.258167 -5.30572 0
M  V30 2145 C 192.638 -0.680349 -6.08307 0
M  V30 2146 N 191.775 0.0745613 -7.0206 0
M  V30 2147 H 196.615 -1.20254 -2.72659 0
M  V30 2148 H 194.152 -0.604352 -1.34112 0
M  V30 2149 H 196.11 0.876304 -4.07893 0
M  V30 2150 H 194.74 1.21715 -2.98974 0
M  V30 2151 H 193.792 -1.11463 -3.63703 0
M  V30 2152 H 195.104 -1.25038 -4.82874 0
M  V30 2153 H 194.258 0.784204 -6.0161 0
M  V30 2154 H 192.997 1.01008 -4.77126 0
M  V30 2155 H 192.002 -1.21796 -5.3614 0
M  V30 2156 H 193.227 -1.43145 -6.63842 0
M  V30 2157 H 191.173 0.808883 -6.50994 0
M  V30 2158 H 191.09 -0.584409 -7.53738 0
M  V30 2159 H 192.358 0.581123 -7.77331 0
M  V30 2160 N 196.587 1.43421 -0.653314 0
M  V30 2161 C 197.827 2.03689 -0.170346 0
M  V30 2162 C 198.191 1.50427 1.19314 0
M  V30 2163 O 199.392 2.0234 1.76952 0
M  V30 2164 C 197.663 3.56946 -0.180183 0
M  V30 2165 S 199.222 4.38171 0.234925 0
M  V30 2166 H 196.04 0.707345 -0.0719976 0
M  V30 2167 H 198.642 1.75486 -0.86167 0
M  V30 2168 H 197.346 3.93212 -1.17526 0
M  V30 2169 H 196.877 3.89791 0.531675 0
M  V30 2170 H 198.892 4.73808 1.47378 0
M  V30 2171 N 198.065 0.39524 1.52563 0
M  V30 2172 C 199.481 0.0454682 1.59535 0
M  V30 2173 C 199.681 -1.44056 1.4089 0
M  V30 2174 O 198.737 -2.20579 1.22888 0
M  V30 2175 C 200.05 0.527963 2.96029 0
M  V30 2176 C 201.598 0.484733 3.09224 0
M  V30 2177 C 202.073 0.943512 4.48176 0
M  V30 2178 N 203.564 0.899765 4.54377 0
M  V30 2179 C 204.299 1.22609 5.60138 0
M  V30 2180 N 203.795 1.62319 6.73516 0
M  V30 2181 N 205.588 1.14696 5.50274 0
M  V30 2182 H 197.739 1.36261 1.62931 0
M  V30 2183 H 200.002 0.558887 0.765735 0
M  V30 2184 H 199.708 1.56607 3.14908 0
M  V30 2185 H 199.582 -0.0698056 3.77135 0
M  V30 2186 H 201.969 -0.544298 2.90037 0
M  V30 2187 H 202.05 1.11838 2.30056 0
M  V30 2188 H 201.694 1.9708 4.68104 0
M  V30 2189 H 201.624 0.286817 5.25818 0
M  V30 2190 H 204.115 0.607632 3.72983 0
M  V30 2191 H 204.428 1.85567 7.5019 0
M  V30 2192 H 202.773 1.66211 6.74833 0
M  V30 2193 H 205.964 0.835701 4.6058 0
M  V30 2194 H 206.137 1.40459 6.32594 0
M  V30 2195 N 199.544 -1.57102 0.125237 0
M  V30 2196 C 200.79 -1.95697 -0.532035 0
M  V30 2197 C 201.123 -1.009 -1.6593 0
M  V30 2198 O 200.398 -0.047347 -1.94442 0
M  V30 2199 C 200.681 -3.44181 -1.05884 0
M  V30 2200 C 200.534 -4.49752 0.0654392 0
M  V30 2201 C 201.853 -3.94655 -1.9477 0
M  V30 2202 H 198.972 -0.711571 -0.191925 0
M  V30 2203 H 201.614 -1.88923 0.20206 0
M  V30 2204 H 199.764 -3.50085 -1.68442 0
M  V30 2205 H 201.436 -4.55943 0.700982 0
M  V30 2206 H 199.679 -4.27653 0.727709 0
M  V30 2207 H 200.35 -5.50924 -0.344505 0
M  V30 2208 H 202.826 -3.91094 -1.42074 0
M  V30 2209 H 201.702 -4.99057 -2.28546 0
M  V30 2210 H 201.963 -3.35718 -2.87656 0
M  V30 2211 N 201.022 0.148545 -1.56898 0
M  V30 2212 C 202.299 0.890019 -1.74178 0
M  V30 2213 C 202.679 1.99407 -0.692839 0
M  V30 2214 O 202.027 2.26671 0.288505 0
M  V30 2215 C 202.237 1.43389 -3.18183 0
M  V30 2216 C 203.585 1.89791 -3.79822 0
M  V30 2217 O 204.609 1.53134 -3.21603 0
M  V30 2218 O 203.468 2.57387 -4.82093 0
M  V30 2219 H 200.562 0.420496 -0.712118 0
M  V30 2220 H 203.108 0.134591 -1.69165 0
M  V30 2221 H 201.88 0.640383 -3.86024 0
M  V30 2222 H 201.503 2.25287 -3.27615 0
M  V30 2223 N 202.5 1.5196 0.417844 0
M  V30 2224 C 203.448 1.75278 1.52907 0
M  V30 2225 C 204.442 0.619611 1.57662 0
M  V30 2226 O 205.648 0.801457 1.61173 0
M  V30 2227 H 202.023 0.554141 0.508362 0
M  V30 2228 H 203.994 2.68389 1.30422 0
M  V30 2229 C 202.743 1.91262 2.90369 0
M  V30 2230 H 202.066 2.77872 2.8745 0
M  V30 2231 H 203.506 2.11581 3.67436 0
M  V30 2232 C 201.965 0.677431 3.30019 0
M  V30 2233 O 202.495 -0.158799 4.01386 0
M  V30 2234 N 200.701 0.515851 2.85985 0
M  V30 2235 H 200.248 1.19744 2.28077 0
M  V30 2236 H 200.206 -0.309315 3.12875 0
M  V30 2237 N 203.978 -0.674533 1.42435 0
M  V30 2238 C 204.91 -1.80005 1.41883 0
M  V30 2239 C 205.923 -1.59667 0.31787 0
M  V30 2240 O 207.112 -1.68781 0.580973 0
M  V30 2241 C 204.212 -3.17114 1.19549 0
M  V30 2242 C 203.385 -3.64299 2.42084 0
M  V30 2243 C 202.444 -4.80142 2.15291 0
M  V30 2244 O 201.47 -4.90673 2.88493 0
M  V30 2245 N 202.672 -5.68869 1.1562 0
M  V30 2246 H 205.437 -1.80964 2.38898 0
M  V30 2247 H 202.998 -0.857633 1.37318 0
M  V30 2248 H 204.99 -3.92267 0.995417 0
M  V30 2249 H 203.56 -3.11053 0.310569 0
M  V30 2250 H 202.78 -2.79822 2.77657 0
M  V30 2251 H 204.068 -3.92567 3.23679 0
M  V30 2252 H 203.466 -5.63012 0.550765 0
M  V30 2253 H 202.023 -6.43833 1.016 0
M  V30 2254 N 205.456 -1.28612 -0.910864 0
M  V30 2255 C 206.419 -1.12803 -1.9952 0
M  V30 2256 C 207.419 -0.0668264 -1.60661 0
M  V30 2257 O 208.609 -0.312847 -1.71368 0
M  V30 2258 C 205.741 -0.72254 -3.33155 0
M  V30 2259 H 206.934 -2.09109 -2.14973 0
M  V30 2260 H 204.487 -1.11639 -1.09391 0
M  V30 2261 H 205.222 0.241152 -3.23402 0
M  V30 2262 H 205.007 -1.48916 -3.62721 0
M  V30 2263 H 206.497 -0.634666 -4.12749 0
M  V30 2264 N 206.934 1.1197 -1.10907 0
M  V30 2265 C 208.159 1.87942 -0.877064 0
M  V30 2266 C 208.584 1.79341 0.567314 0
M  V30 2267 O 207.942 1.15184 1.40009 0
M  V30 2268 C 207.99 3.34926 -1.33629 0
M  V30 2269 O 207.094 4.09303 -0.504447 0
M  V30 2270 H 206.435 0.583785 -0.316371 0
M  V30 2271 H 208.965 1.4157 -1.47712 0
M  V30 2272 H 208.975 3.8577 -1.32837 0
M  V30 2273 H 207.65 3.40504 -2.3881 0
M  V30 2274 H 206.227 3.68393 -0.577993 0
M  V30 2275 N 208.412 0.89855 1.29475 0
M  V30 2276 C 209.36 0.365253 2.29714 0
M  V30 2277 C 210.354 -0.534993 1.6073 0
M  V30 2278 O 211.56 -0.417921 1.75081 0
M  V30 2279 H 207.935 0.0994853 0.74539 0
M  V30 2280 H 209.906 1.22406 2.72138 0
M  V30 2281 C 208.655 -0.393159 3.4547 0
M  V30 2282 H 207.978 0.290332 3.98744 0
M  V30 2283 H 209.418 -0.731189 4.17648 0
M  V30 2284 C 207.877 -1.59539 2.9673 0
M  V30 2285 O 208.407 -2.69469 2.97908 0
M  V30 2286 N 206.613 -1.43716 2.52575 0
M  V30 2287 H 206.16 -0.542828 2.51816 0
M  V30 2288 H 206.118 -2.24288 2.20323 0
M  V30 2289 N 209.89 -1.43072 0.660911 0
M  V30 2290 C 210.853 -2.29194 -0.0166406 0
M  V30 2291 C 211.853 -1.42609 -0.742912 0
M  V30 2292 O 213.043 -1.64155 -0.583004 0
M  V30 2293 C 210.175 -3.24831 -1.0343 0
M  V30 2294 H 211.368 -2.90596 0.741208 0
M  V30 2295 H 208.921 -1.5048 0.422532 0
M  V30 2296 H 209.656 -2.68339 -1.82111 0
M  V30 2297 H 209.441 -3.88676 -0.517082 0
M  V30 2298 H 210.931 -3.89451 -1.50723 0
M  V30 2299 N 211.368 -0.403325 -1.52352 0
M  V30 2300 C 212.614 0.174605 -2.02047 0
M  V30 2301 C 212.947 1.45282 -1.28867 0
M  V30 2302 O 212.222 1.90483 -0.393257 0
M  V30 2303 C 212.505 0.428238 -3.57545 0
M  V30 2304 C 212.358 -0.866248 -4.4138 0
M  V30 2305 C 213.677 1.21287 -4.23057 0
M  V30 2306 H 210.796 0.0619851 -0.734389 0
M  V30 2307 H 213.438 -0.53565 -1.82293 0
M  V30 2308 H 211.588 1.03327 -3.74507 0
M  V30 2309 H 213.26 -1.50265 -4.3614 0
M  V30 2310 H 211.503 -1.47851 -4.07827 0
M  V30 2311 H 212.174 -0.643249 -5.48239 0
M  V30 2312 H 214.65 0.700703 -4.10158 0
M  V30 2313 H 213.526 1.35909 -5.31808 0
M  V30 2314 H 213.787 2.23193 -3.81625 0
M  V30 2315 N 212.846 1.57033 -0.133567 0
M  V30 2316 C 213.809 2.14897 0.796995 0
M  V30 2317 C 214.809 1.0874 1.18458 0
M  V30 2318 O 215.999 1.34446 1.1077 0
M  V30 2319 C 213.131 2.70112 2.07973 0
M  V30 2320 H 214.324 2.98457 0.293873 0
M  V30 2321 H 211.877 1.55871 0.115787 0
M  V30 2322 H 212.612 1.9018 2.62682 0
M  V30 2323 H 212.397 3.47764 1.81115 0
M  V30 2324 H 213.887 3.14738 2.74462 0
M  V30 2325 N 214.325 -0.140222 1.56975 0
M  V30 2326 C 215.741 -0.493088 1.51792 0
M  V30 2327 C 215.941 -1.83013 0.843116 0
M  V30 2328 O 214.997 -2.49041 0.416493 0
M  V30 2329 C 216.31 -0.497144 2.96562 0
M  V30 2330 C 217.858 -0.582186 3.07538 0
M  V30 2331 C 218.333 -0.616838 4.53827 0
M  V30 2332 N 219.824 -0.678873 4.58198 0
M  V30 2333 C 220.559 -0.726782 5.68775 0
M  V30 2334 N 220.055 -0.733623 6.88905 0
M  V30 2335 N 221.848 -0.768179 5.56826 0
M  V30 2336 H 213.999 0.736108 1.99237 0
M  V30 2337 H 216.262 0.269182 0.90898 0
M  V30 2338 H 215.968 0.417217 3.49217 0
M  V30 2339 H 215.842 -1.33263 3.52875 0
M  V30 2340 H 218.229 -1.48697 2.54899 0
M  V30 2341 H 218.31 0.280581 2.54257 0
M  V30 2342 H 217.954 0.283812 5.07106 0
M  V30 2343 H 217.884 -1.49619 5.04898 0
M  V30 2344 H 220.375 -0.68061 3.7172 0
M  V30 2345 H 220.688 -0.772215 7.68932 0
M  V30 2346 H 219.033 -0.701389 6.91452 0
M  V30 2347 H 222.224 -0.760051 4.61888 0
M  V30 2348 H 222.397 -0.80205 6.43017 0
M  V30 2349 N 215.803 -1.52179 -0.40978 0
M  V30 2350 C 217.219 -1.40968 -0.74835 0
M  V30 2351 C 217.419 -0.513657 -1.94843 0
M  V30 2352 O 216.475 0.0208026 -2.52491 0
M  V30 2353 C 217.788 -2.83483 -1.0029 0
M  V30 2354 C 219.336 -2.92821 -1.10565 0
M  V30 2355 C 219.811 -4.36303 -1.39296 0
M  V30 2356 N 221.302 -4.39535 -1.46162 0
M  V30 2357 C 222.037 -5.47614 -1.70018 0
M  V30 2358 N 221.533 -6.65812 -1.91483 0
M  V30 2359 N 223.326 -5.35129 -1.72027 0
M  V30 2360 H 215.477 -2.0897 0.380186 0
M  V30 2361 H 217.74 -0.94185 0.107805 0
M  V30 2362 H 217.446 -3.51168 -0.193461 0
M  V30 2363 H 217.32 -3.24487 -1.92323 0
M  V30 2364 H 219.707 -2.25318 -1.90568 0
M  V30 2365 H 219.788 -2.55276 -0.16369 0
M  V30 2366 H 219.432 -5.04366 -0.598109 0
M  V30 2367 H 219.362 -4.71385 -2.34743 0
M  V30 2368 H 221.853 -3.54332 -1.31367 0
M  V30 2369 H 222.166 -7.43964 -2.09134 0
M  V30 2370 H 220.511 -6.68879 -1.88749 0
M  V30 2371 H 223.702 -4.41764 -1.54796 0
M  V30 2372 H 223.875 -6.19433 -1.9028 0
M  V30 2373 N 217.281 0.66697 -1.42791 0
M  V30 2374 C 218.229 1.80157 -1.47127 0
M  V30 2375 C 219.223 1.65825 -0.346199 0
M  V30 2376 O 220.429 1.72338 -0.519572 0
M  V30 2377 H 216.804 0.594158 -0.460956 0
M  V30 2378 H 218.775 1.73619 -2.42692 0
M  V30 2379 C 217.524 3.18351 -1.39813 0
M  V30 2380 H 216.847 3.3001 -2.25684 0
M  V30 2381 H 218.287 3.97736 -1.46908 0
M  V30 2382 C 216.746 3.36707 -0.11391 0
M  V30 2383 O 217.276 3.93027 0.830241 0
M  V30 2384 N 215.482 2.90586 -0.0285295 0
M  V30 2385 H 215.029 2.4494 -0.79764 0
M  V30 2386 H 214.987 3.03245 0.830063 0
M  V30 2387 N 218.759 1.29093 0.90403 0
M  V30 2388 C 219.709 1.10482 1.99443 0
M  V30 2389 C 220.693 0.0255401 1.6088 0
M  V30 2390 O 221.885 0.24677 1.75271 0
M  V30 2391 C 219.014 0.778882 3.34348 0
M  V30 2392 C 218.1 1.89749 3.79284 0
M  V30 2393 N 218.491 3.14045 3.96497 0
M  V30 2394 C 216.789 1.78955 4.08523 0
M  V30 2395 C 217.49 3.86996 4.34292 0
M  V30 2396 N 216.466 3.14909 4.43095 0
M  V30 2397 H 220.268 2.04778 2.10815 0
M  V30 2398 H 217.782 1.20155 1.09255 0
M  V30 2399 H 219.779 0.62661 4.12164 0
M  V30 2400 H 218.439 -0.156205 3.24324 0
M  V30 2401 H 219.45 3.49548 3.82148 0
M  V30 2402 H 216.127 0.926886 4.07081 0
M  V30 2403 H 217.517 4.93941 4.55491 0
M  V30 2404 N 220.237 -1.11381 1.11499 0
M  V30 2405 C 221.484 -1.83132 0.864231 0
M  V30 2406 C 221.812 -1.84683 -0.610114 0
M  V30 2407 O 221.067 -1.29589 -1.46646 0
M  V30 2408 C 221.366 -3.30026 1.37177 0
M  V30 2409 C 221.032 -3.48634 2.85946 0
M  V30 2410 C 219.694 -3.53421 3.26569 0
M  V30 2411 C 222.046 -3.54837 3.81759 0
M  V30 2412 C 219.374 -3.61967 4.61733 0
M  V30 2413 C 221.726 -3.64915 5.1674 0
M  V30 2414 C 220.39 -3.67962 5.5692 0
M  V30 2415 H 219.66 -0.670127 0.316245 0
M  V30 2416 H 222.307 -1.31354 1.3935 0
M  V30 2417 H 220.612 -3.84304 0.762753 0
M  V30 2418 H 222.309 -3.84034 1.15408 0
M  V30 2419 H 218.899 -3.45579 2.53521 0
M  V30 2420 H 223.083 -3.50399 3.51474 0
M  V30 2421 H 218.339 -3.62603 4.92269 0
M  V30 2422 H 222.513 -3.68658 5.90816 0
M  V30 2423 H 220.14 -3.74336 6.61647 0
M  V30 2424 N 221.715 -0.905404 -1.28997 0
M  V30 2425 C 222.943 -0.549846 -1.9946 0
M  V30 2426 C 223.358 0.866834 -1.67724 0
M  V30 2427 O 222.715 1.57298 -0.925404 0
M  V30 2428 C 222.766 -0.739387 -3.53858 0
M  V30 2429 O 222.487 -2.10031 -3.84472 0
M  V30 2430 C 223.988 -0.389541 -4.41585 0
M  V30 2431 H 221.208 -0.210429 -0.637151 0
M  V30 2432 H 223.752 -1.21632 -1.64396 0
M  V30 2433 H 221.907 -0.120023 -3.87214 0
M  V30 2434 H 222.321 -2.13385 -4.79132 0
M  V30 2435 H 223.795 -0.572972 -5.49018 0
M  V30 2436 H 224.272 0.673756 -4.34001 0
M  V30 2437 H 224.878 -0.986089 -4.1371 0
M  V30 2438 N 223.193 1.4272 -0.668489 0
M  V30 2439 C 224.123 2.335 -0.000100175 0
M  V30 2440 C 225.104 1.50328 0.795964 0
M  V30 2441 O 226.289 1.78949 0.754385 0
M  V30 2442 C 223.419 3.33874 0.956302 0
M  V30 2443 C 222.373 4.27152 0.269278 0
M  V30 2444 C 221.699 5.17684 1.33818 0
M  V30 2445 C 222.999 5.15373 -0.847805 0
M  V30 2446 H 224.693 2.89639 -0.758244 0
M  V30 2447 H 222.239 1.39269 -0.366079 0
M  V30 2448 H 224.192 3.9629 1.43292 0
M  V30 2449 H 222.916 2.76025 1.74579 0
M  V30 2450 H 221.575 3.66123 -0.187042 0
M  V30 2451 H 221.223 4.56165 2.1195 0
M  V30 2452 H 220.923 5.80918 0.883659 0
M  V30 2453 H 222.447 5.82974 1.81586 0
M  V30 2454 H 223.861 5.7151 -0.452681 0
M  V30 2455 H 222.258 5.87407 -1.22773 0
M  V30 2456 H 223.328 4.5415 -1.69929 0
M  V30 2457 N 224.671 0.411399 1.52136 0
M  V30 2458 C 225.581 -0.419774 2.30814 0
M  V30 2459 C 226.597 -1.0515 1.38634 0
M  V30 2460 O 227.773 -1.05252 1.71709 0
M  V30 2461 C 224.838 -1.52019 3.11594 0
M  V30 2462 C 223.899 -0.91129 4.19516 0
M  V30 2463 C 223.132 -1.95927 4.96436 0
M  V30 2464 O 223.355 -3.17775 4.73683 0
M  V30 2465 O 222.289 -1.56423 5.81219 0
M  V30 2466 H 226.115 0.221805 3.02889 0
M  V30 2467 H 223.7 0.174547 1.48377 0
M  V30 2468 H 225.582 -2.15898 3.61892 0
M  V30 2469 H 224.257 -2.14633 2.42311 0
M  V30 2470 H 223.164 -0.235157 3.7336 0
M  V30 2471 H 224.497 -0.32904 4.91099 0
M  V30 2472 N 226.149 -1.5696 0.141893 0
M  V30 2473 C 227.397 -1.95573 -0.509484 0
M  V30 2474 C 227.718 -1.02746 -1.65736 0
M  V30 2475 O 226.988 -0.0880311 -1.95702 0
M  V30 2476 H 225.568 -0.722115 -0.191205 0
M  V30 2477 H 228.23 -1.93697 0.216196 0
M  V30 2478 H 227.326 -2.99171 -0.889 0
M  V30 2479 N 227.627 0.131896 -1.57047 0
M  V30 2480 C 228.867 0.847972 -1.85981 0
M  V30 2481 C 229.231 1.77655 -0.7282 0
M  V30 2482 O 230.432 2.53322 -0.898968 0
M  V30 2483 C 228.703 1.58919 -3.20124 0
M  V30 2484 S 230.262 2.34862 -3.70655 0
M  V30 2485 H 227.08 0.283273 -0.652133 0
M  V30 2486 H 229.682 0.107057 -1.95207 0
M  V30 2487 H 228.386 0.898771 -4.00438 0
M  V30 2488 H 227.917 2.37073 -3.13942 0
M  V30 2489 H 229.932 3.60344 -3.41126 0
M  V30 2490 N 229.106 1.52395 0.401703 0
M  V30 2491 C 230.039 1.70999 1.51111 0
M  V30 2492 C 231.017 0.55765 1.52738 0
M  V30 2493 O 232.201 0.785912 1.71335 0
M  V30 2494 C 229.328 1.75607 2.8962 0
M  V30 2495 C 228.374 2.97227 3.05873 0
M  V30 2496 S 229.207 4.57439 2.78405 0
M  V30 2497 C 230.363 4.64844 4.19131 0
M  V30 2498 H 230.596 2.6483 1.35102 0
M  V30 2499 H 228.129 1.42527 0.593762 0
M  V30 2500 H 230.087 1.78947 3.69443 0
M  V30 2501 H 228.748 0.828914 3.02965 0
M  V30 2502 H 227.941 2.96955 4.07227 0
M  V30 2503 H 227.543 2.91813 2.33925 0
M  V30 2504 H 229.835 4.42677 5.12877 0
M  V30 2505 H 230.778 5.66807 4.24424 0
M  V30 2506 H 231.186 3.93804 4.04448 0
M  V30 2507 N 230.584 -0.659388 1.43143 0
M  V30 2508 C 231.531 -1.77249 1.47822 0
M  V30 2509 C 232.501 -1.62818 0.328558 0
M  V30 2510 O 233.686 -1.83151 0.534838 0
M  V30 2511 C 230.826 -3.15371 1.40126 0
M  V30 2512 C 229.939 -3.4098 2.65249 0
M  V30 2513 C 229.074 -4.68915 2.49584 0
M  V30 2514 C 228.113 -4.87608 3.70006 0
M  V30 2515 N 227.25 -6.06796 3.53189 0
M  V30 2516 H 232.09 -1.72584 2.42938 0
M  V30 2517 H 229.627 -0.842297 1.20598 0
M  V30 2518 H 231.585 -3.9521 1.33659 0
M  V30 2519 H 230.215 -3.19121 0.485964 0
M  V30 2520 H 229.267 -2.55282 2.8202 0
M  V30 2521 H 230.579 -3.50681 3.54717 0
M  V30 2522 H 229.733 -5.56871 2.4079 0
M  V30 2523 H 228.472 -4.61524 1.5763 0
M  V30 2524 H 227.477 -3.9809 3.79215 0
M  V30 2525 H 228.702 -4.96834 4.62961 0
M  V30 2526 H 226.648 -6.00549 2.63965 0
M  V30 2527 H 226.565 -6.17428 4.36255 0
M  V30 2528 H 227.833 -6.9739 3.48236 0
M  V30 2529 N 232.062 -1.29571 -0.897171 0
M  V30 2530 C 232.994 -1.10724 -2.00681 0
M  V30 2531 C 234.007 -0.0540026 -1.6271 0
M  V30 2532 O 235.196 -0.298783 -1.75982 0
M  V30 2533 C 232.296 -0.663912 -3.32333 0
M  V30 2534 C 231.469 -1.79622 -3.98816 0
M  V30 2535 C 230.528 -1.34349 -5.0876 0
M  V30 2536 O 229.554 -2.04864 -5.31055 0
M  V30 2537 N 230.756 -0.215764 -5.80099 0
M  V30 2538 H 233.521 -2.06291 -2.17403 0
M  V30 2539 H 231.082 -1.21544 -1.06951 0
M  V30 2540 H 233.074 -0.344295 -4.03233 0
M  V30 2541 H 231.644 0.199375 -3.11964 0
M  V30 2542 H 230.864 -2.28459 -3.21248 0
M  V30 2543 H 232.152 -2.55535 -4.39976 0
M  V30 2544 H 231.55 0.372091 -5.64475 0
M  V30 2545 H 230.107 0.0444707 -6.51785 0
M  V30 2546 N 233.54 1.10788 -1.12088 0
M  V30 2547 C 234.503 2.15207 -0.788577 0
M  V30 2548 C 235.503 1.59609 0.195317 0
M  V30 2549 O 236.693 1.74174 -0.0300193 0
M  V30 2550 C 233.825 3.4047 -0.171174 0
M  V30 2551 H 235.018 2.46116 -1.71368 0
M  V30 2552 H 232.571 1.26089 -0.923652 0
M  V30 2553 H 233.306 3.15176 0.763832 0
M  V30 2554 H 233.091 3.82109 -0.879514 0
M  V30 2555 H 234.581 4.17576 0.04496 0
M  V30 2556 N 235.018 0.912232 1.28515 0
M  V30 2557 C 235.928 0.404506 2.31086 0
M  V30 2558 C 236.944 -0.50707 1.66448 0
M  V30 2559 O 238.12 -0.393624 1.97516 0
M  V30 2560 C 235.185 -0.348572 3.44943 0
M  V30 2561 C 234.246 0.59604 4.25142 0
M  V30 2562 C 233.479 -0.121194 5.33562 0
M  V30 2563 O 233.702 -1.34317 5.5436 0
M  V30 2564 O 232.636 0.542716 5.99448 0
M  V30 2565 H 236.462 1.25579 2.76521 0
M  V30 2566 H 234.047 0.676998 1.33181 0
M  V30 2567 H 235.929 -0.77395 4.14232 0
M  V30 2568 H 234.604 -1.17571 3.01594 0
M  V30 2569 H 233.511 1.07079 3.58448 0
M  V30 2570 H 234.844 1.38995 4.72167 0
M  V30 2571 N 236.496 -1.42363 0.676048 0
M  V30 2572 C 237.726 -2.05561 0.206967 0
M  V30 2573 C 238.134 -1.50887 -1.14148 0
M  V30 2574 O 237.477 -0.643933 -1.72044 0
M  V30 2575 C 237.539 -3.5944 0.0659508 0
M  V30 2576 C 237.203 -4.36812 1.34331 0
M  V30 2577 C 238.2 -4.67383 2.27704 0
M  V30 2578 C 235.885 -4.76429 1.59125 0
M  V30 2579 C 237.879 -5.36509 3.44147 0
M  V30 2580 C 235.566 -5.45294 2.75857 0
M  V30 2581 C 236.564 -5.75259 3.68193 0
M  V30 2582 O 236.252 -6.42712 4.82883 0
M  V30 2583 H 235.984 -0.668872 0.0979084 0
M  V30 2584 H 238.538 -1.83467 0.923531 0
M  V30 2585 H 236.768 -3.80197 -0.706204 0
M  V30 2586 H 238.457 -4.0427 -0.363418 0
M  V30 2587 H 239.223 -4.37275 2.09799 0
M  V30 2588 H 235.102 -4.52498 0.881258 0
M  V30 2589 H 238.646 -5.59814 4.16238 0
M  V30 2590 H 234.543 -5.7482 2.93688 0
M  V30 2591 H 235.311 -6.61204 4.82444 0
M  V30 2592 N 237.974 -0.419461 -1.51915 0
M  V30 2593 C 238.904 0.391813 -2.30189 0
M  V30 2594 C 239.885 1.03699 -1.34836 0
M  V30 2595 O 241.07 1.04403 -1.63748 0
M  V30 2596 C 238.2 1.50312 -3.13087 0
M  V30 2597 C 237.154 0.9824 -4.16573 0
M  V30 2598 C 236.48 2.18809 -4.8788 0
M  V30 2599 C 237.78 0.0292356 -5.22292 0
M  V30 2600 H 239.474 -0.26135 -2.98257 0
M  V30 2601 H 237.02 -0.127134 -1.43438 0
M  V30 2602 H 238.973 2.07773 -3.66617 0
M  V30 2603 H 237.697 2.18431 -2.42807 0
M  V30 2604 H 236.356 0.430119 -3.64068 0
M  V30 2605 H 236.004 2.85507 -4.14119 0
M  V30 2606 H 235.704 1.84615 -5.57845 0
M  V30 2607 H 237.228 2.76858 -5.44226 0
M  V30 2608 H 238.642 0.512976 -5.71 0
M  V30 2609 H 237.039 -0.2244 -5.9968 0
M  V30 2610 H 238.109 -0.912931 -4.76228 0
M  V30 2611 N 239.452 1.56882 -0.150215 0
M  V30 2612 C 240.4 2.18214 0.805313 0
M  V30 2613 C 241.394 1.14006 1.25296 0
M  V30 2614 O 242.6 1.3225 1.22107 0
M  V30 2615 H 238.975 0.698762 0.277913 0
M  V30 2616 H 240.946 2.97231 0.263862 0
M  V30 2617 C 239.695 2.82065 2.03309 0
M  V30 2618 H 239.018 3.61968 1.69763 0
M  V30 2619 H 240.458 3.28477 2.68103 0
M  V30 2620 C 238.917 1.80739 2.84315 0
M  V30 2621 O 239.447 1.27983 3.80767 0
M  V30 2622 N 237.653 1.4997 2.48913 0
M  V30 2623 H 237.2 1.93062 1.70542 0
M  V30 2624 H 237.158 0.824217 3.03404 0
M  V30 2625 N 240.93 -0.123565 1.57115 0
M  V30 2626 C 242.178 -0.83051 1.84247 0
M  V30 2627 C 242.499 -1.80629 0.73471 0
M  V30 2628 O 241.769 -1.94403 -0.241688 0
M  V30 2629 H 240.349 -0.309694 0.679778 0
M  V30 2630 H 243.011 -0.111976 1.94578 0
M  V30 2631 H 242.107 -1.37852 2.80006 0
M  V30 2632 N 242.408 -1.52605 -0.393616 0
M  V30 2633 C 243.685 -1.58001 -1.15304 0
M  V30 2634 C 244.065 -0.370385 -2.07825 0
M  V30 2635 O 243.413 0.641638 -2.19306 0
M  V30 2636 C 243.623 -2.91652 -1.91677 0
M  V30 2637 C 244.971 -3.4522 -2.47201 0
M  V30 2638 O 245.995 -2.93495 -2.01839 0
M  V30 2639 O 244.854 -4.35579 -3.3005 0
M  V30 2640 H 241.948 -0.637068 -0.527327 0
M  V30 2641 H 244.494 -1.64939 -0.399141 0
M  V30 2642 H 243.266 -3.71136 -1.23992 0
M  V30 2643 H 242.889 -2.88077 -2.74039 0
M  V30 2644 N 243.887 0.651787 -1.4349 0
M  V30 2645 C 245.117 1.43728 -1.48411 0
M  V30 2646 C 245.525 1.8893 -0.10103 0
M  V30 2647 O 244.868 1.60182 0.899307 0
M  V30 2648 C 244.93 2.70411 -2.36893 0
M  V30 2649 C 244.594 2.4714 -3.8441 0
M  V30 2650 C 245.591 2.10271 -4.75481 0
M  V30 2651 C 243.276 2.6142 -4.28912 0
M  V30 2652 C 245.27 1.87982 -6.0905 0
M  V30 2653 C 242.957 2.38746 -5.62533 0
M  V30 2654 C 243.955 2.02083 -6.5242 0
M  V30 2655 O 243.643 1.79647 -7.8357 0
M  V30 2656 H 243.375 0.447962 -0.506267 0
M  V30 2657 H 245.929 0.80624 -1.88915 0
M  V30 2658 H 244.159 3.36079 -1.91278 0
M  V30 2659 H 245.848 3.32364 -2.33 0
M  V30 2660 H 246.614 1.98814 -4.42378 0
M  V30 2661 H 242.493 2.88931 -3.59222 0
M  V30 2662 H 246.037 1.5929 -6.7917 0
M  V30 2663 H 241.934 2.49806 -5.95203 0
M  V30 2664 H 242.702 1.9406 -7.95162 0
M  V30 2665 N 245.365 1.30045 0.890287 0
M  V30 2666 C 246.315 1.12592 1.9826 0
M  V30 2667 C 247.299 0.0426021 1.60844 0
M  V30 2668 O 248.491 0.265346 1.75 0
M  V30 2669 C 245.62 0.814301 3.33503 0
M  V30 2670 C 244.706 1.93761 3.7725 0
M  V30 2671 N 245.097 3.18232 3.93143 0
M  V30 2672 C 243.395 1.83277 4.06602 0
M  V30 2673 C 244.096 3.9158 4.30163 0
M  V30 2674 N 243.072 3.19591 4.3973 0
M  V30 2675 H 246.874 2.07003 2.08631 0
M  V30 2676 H 244.388 1.21307 1.07974 0
M  V30 2677 H 246.385 0.67029 4.11476 0
M  V30 2678 H 245.045 -0.121797 3.24471 0
M  V30 2679 H 246.056 3.53581 3.78419 0
M  V30 2680 H 242.733 0.97001 4.06075 0
M  V30 2681 H 244.123 4.98744 4.50226 0
M  V30 2682 N 246.843 -1.10192 1.12674 0
M  V30 2683 C 248.12 -1.78717 0.794965 0
M  V30 2684 C 248.5 -1.98628 -0.714853 0
M  V30 2685 O 247.848 -1.58135 -1.64941 0
M  V30 2686 C 248.058 -3.11546 1.5729 0
M  V30 2687 C 249.406 -3.86382 1.76052 0
M  V30 2688 O 250.43 -3.21274 1.53823 0
M  V30 2689 O 249.289 -5.03246 2.13087 0
M  V30 2690 H 246.383 -0.774702 0.289423 0
M  V30 2691 H 248.929 -1.16819 1.23091 0
M  V30 2692 H 247.701 -2.92489 2.59935 0
M  V30 2693 H 247.324 -3.81164 1.13137 0
M  V30 2694 N 248.321 -0.919034 -1.28029 0
M  V30 2695 C 249.567 -0.555757 -1.95036 0
M  V30 2696 C 249.9 0.899198 -1.72128 0
M  V30 2697 O 249.175 1.64023 -1.04531 0
M  V30 2698 C 249.458 -0.872024 -3.49382 0
M  V30 2699 C 249.311 -2.3801 -3.81669 0
M  V30 2700 C 250.63 -0.37185 -4.38526 0
M  V30 2701 H 247.749 -0.203386 -0.708381 0
M  V30 2702 H 250.391 -1.14924 -1.51303 0
M  V30 2703 H 248.541 -0.366946 -3.86763 0
M  V30 2704 H 250.213 -2.9562 -3.54128 0
M  V30 2705 H 248.456 -2.83289 -3.28526 0
M  V30 2706 H 249.127 -2.55192 -4.8947 0
M  V30 2707 H 251.603 -0.804602 -4.08247 0
M  V30 2708 H 250.479 -0.622173 -5.45362 0
M  V30 2709 H 250.74 0.727934 -4.36066 0
M  V30 2710 N 249.799 1.42003 -0.683588 0
M  V30 2711 C 250.747 2.326 0.000815408 0
M  V30 2712 C 251.741 1.50308 0.781278 0
M  V30 2713 O 252.947 1.66322 0.688251 0
M  V30 2714 H 249.322 0.751758 0.0190616 0
M  V30 2715 H 251.293 2.88011 -0.780528 0
M  V30 2716 C 250.042 3.34978 0.93195 0
M  V30 2717 H 249.365 3.98345 0.340817 0
M  V30 2718 H 250.805 4.00936 1.37936 0
M  V30 2719 C 249.264 2.67925 2.04249 0
M  V30 2720 O 249.794 2.51788 3.12995 0
M  V30 2721 N 248 2.2681 1.81675 0
M  V30 2722 H 247.547 2.40135 0.932363 0
M  V30 2723 H 247.505 1.8228 2.56167 0
M  V30 2724 N 251.277 0.427512 1.51691 0
M  V30 2725 C 252.21 -0.433876 2.24037 0
M  V30 2726 C 253.188 -1.03287 1.25581 0
M  V30 2727 O 254.372 -1.07722 1.54688 0
M  V30 2728 C 251.499 -1.60385 2.98319 0
M  V30 2729 C 250.545 -1.12648 4.11355 0
M  V30 2730 S 251.378 -0.076543 5.35445 0
M  V30 2731 C 252.534 -1.25141 6.13262 0
M  V30 2732 H 252.767 0.180367 2.96752 0
M  V30 2733 H 250.3 0.211946 1.52938 0
M  V30 2734 H 252.258 -2.27462 3.41718 0
M  V30 2735 H 250.919 -2.18948 2.25213 0
M  V30 2736 H 250.112 -2.0011 4.62571 0
M  V30 2737 H 249.714 -0.534088 3.70167 0
M  V30 2738 H 252.006 -2.17162 6.41753 0
M  V30 2739 H 252.949 -0.779411 7.03797 0
M  V30 2740 H 253.357 -1.48553 5.44603 0
M  V30 2741 N 252.755 -1.56801 0.158532 0
M  V30 2742 C 253.985 -2.00568 -0.495583 0
M  V30 2743 C 254.393 -1.03774 -1.58201 0
M  V30 2744 O 253.736 -0.0285797 -1.83678 0
M  V30 2745 C 253.798 -3.40768 -1.14532 0
M  V30 2746 C 253.462 -4.56553 -0.202101 0
M  V30 2747 C 254.459 -5.16714 0.574675 0
M  V30 2748 C 252.144 -5.02197 -0.101648 0
M  V30 2749 C 254.138 -6.20939 1.43924 0
M  V30 2750 C 251.825 -6.06274 0.766508 0
M  V30 2751 C 252.823 -6.65515 1.53555 0
M  V30 2752 O 252.511 -7.67575 2.38922 0
M  V30 2753 H 252.243 -0.662893 -0.13247 0
M  V30 2754 H 254.797 -2.03829 0.253559 0
M  V30 2755 H 253.027 -3.34381 -1.94233 0
M  V30 2756 H 254.716 -3.6857 -1.70033 0
M  V30 2757 H 255.482 -4.82341 0.507167 0
M  V30 2758 H 251.361 -4.55807 -0.689994 0
M  V30 2759 H 254.905 -6.67107 2.03996 0
M  V30 2760 H 250.802 -6.40073 0.835266 0
M  V30 2761 H 251.57 -7.84844 2.32296 0
M  V30 2762 N 254.233 0.115231 -1.57178 0
M  V30 2763 C 255.196 1.12526 -1.99676 0
M  V30 2764 C 256.196 1.34095 -0.88742 0
M  V30 2765 O 257.386 1.30548 -1.15337 0
M  V30 2766 C 254.518 2.4789 -2.34015 0
M  V30 2767 H 255.711 0.759912 -2.90113 0
M  V30 2768 H 253.264 0.359648 -1.52106 0
M  V30 2769 H 253.999 2.89339 -1.4647 0
M  V30 2770 H 253.784 2.33588 -3.14927 0
M  V30 2771 H 255.274 3.20575 -2.67622 0
M  V30 2772 N 255.711 1.52812 0.385517 0
M  V30 2773 C 257.127 1.4214 0.725829 0
M  V30 2774 C 257.327 0.544589 1.94001 0
M  V30 2775 O 256.383 0.0193693 2.52493 0
M  V30 2776 C 257.696 2.85042 0.957668 0
M  V30 2777 C 259.244 2.94543 1.05892 0
M  V30 2778 C 259.719 4.38464 1.32337 0
M  V30 2779 N 261.21 4.41804 1.39151 0
M  V30 2780 C 261.945 5.5025 1.61285 0
M  V30 2781 N 261.441 6.68775 1.80866 0
M  V30 2782 N 263.234 5.37798 1.63492 0
M  V30 2783 H 255.385 2.08338 -0.413383 0
M  V30 2784 H 257.648 0.940016 -0.122775 0
M  V30 2785 H 257.354 3.51431 0.137568 0
M  V30 2786 H 257.228 3.27505 1.87137 0
M  V30 2787 H 259.615 2.28321 1.86959 0
M  V30 2788 H 259.696 2.55504 0.123057 0
M  V30 2789 H 259.34 5.05254 0.517793 0
M  V30 2790 H 259.27 4.75059 2.27214 0
M  V30 2791 H 261.761 3.56377 1.25713 0
M  V30 2792 H 262.074 7.47197 1.97271 0
M  V30 2793 H 260.419 6.71797 1.78083 0
M  V30 2794 H 263.61 4.44171 1.47749 0
M  V30 2795 H 263.783 6.22382 1.80402 0
M  V30 2796 N 257.189 -0.644168 1.43834 0
M  V30 2797 C 258.438 -1.39985 1.45214 0
M  V30 2798 C 258.751 -1.95421 0.0835494 0
M  V30 2799 O 259.957 -2.71488 -0.0251748 0
M  V30 2800 C 258.413 -2.53384 2.55587 0
M  V30 2801 C 258.021 -2.04517 3.98594 0
M  V30 2802 C 259.765 -3.30685 2.66172 0
M  V30 2803 C 257.672 -3.1518 5.00416 0
M  V30 2804 H 256.602 -0.526005 0.540218 0
M  V30 2805 H 259.253 -0.694367 1.69855 0
M  V30 2806 H 257.635 -3.26446 2.24163 0
M  V30 2807 H 258.809 -1.38405 4.39523 0
M  V30 2808 H 257.124 -1.40068 3.92135 0
M  V30 2809 H 259.721 -4.13158 3.39418 0
M  V30 2810 H 260.064 -3.79312 1.71546 0
M  V30 2811 H 260.597 -2.64708 2.96942 0
M  V30 2812 H 257.336 -2.71511 5.96625 0
M  V30 2813 H 256.856 -3.79974 4.64091 0
M  V30 2814 H 258.535 -3.80166 5.23529 0
M  V30 2815 N 258.668 -1.30515 -0.883378 0
M  V30 2816 C 259.917 -1.18795 -1.63005 0
M  V30 2817 C 260.23 0.255923 -1.93919 0
M  V30 2818 O 261.436 0.494654 -2.66956 0
M  V30 2819 C 259.892 -2.07878 -2.93794 0
M  V30 2820 C 259.5 -3.57184 -2.70414 0
M  V30 2821 C 261.244 -2.04924 -3.71761 0
M  V30 2822 C 259.151 -4.38317 -3.97029 0
M  V30 2823 H 258.081 -0.441031 -0.611562 0
M  V30 2824 H 260.732 -1.55275 -0.977854 0
M  V30 2825 H 259.114 -1.64283 -3.60315 0
M  V30 2826 H 260.288 -4.08937 -2.12384 0
M  V30 2827 H 258.603 -3.61976 -2.0582 0
M  V30 2828 H 261.2 -2.62792 -4.65665 0
M  V30 2829 H 261.543 -1.0331 -4.03277 0
M  V30 2830 H 262.076 -2.46649 -3.12104 0
M  V30 2831 H 258.815 -5.40632 -3.70671 0
M  V30 2832 H 258.335 -3.91326 -4.54559 0
M  V30 2833 H 260.014 -4.49834 -4.65036 0
M  V30 2834 N 260.146 1.09593 -1.13257 0
M  V30 2835 C 261.423 1.78293 -0.804432 0
M  V30 2836 C 261.803 1.99004 0.70431 0
M  V30 2837 O 261.151 1.59007 1.641 0
M  V30 2838 C 261.361 3.10707 -1.5894 0
M  V30 2839 C 262.709 3.85443 -1.78099 0
M  V30 2840 O 263.733 3.20454 -1.55525 0
M  V30 2841 O 262.592 5.02108 -2.15753 0
M  V30 2842 H 259.686 0.773156 -0.293528 0
M  V30 2843 H 262.232 1.16164 -1.23709 0
M  V30 2844 H 261.004 2.91106 -2.61482 0
M  V30 2845 H 260.627 3.80558 -1.15157 0
M  V30 2846 N 261.624 0.925811 1.2754 0
M  V30 2847 C 262.587 0.428129 2.25166 0
M  V30 2848 C 263.587 -0.452261 1.54309 0
M  V30 2849 O 264.777 -0.253608 1.72344 0
M  V30 2850 C 261.909 -0.384749 3.38722 0
M  V30 2851 H 263.102 1.29066 2.70706 0
M  V30 2852 H 260.655 0.706323 1.3943 0
M  V30 2853 H 261.39 -1.26618 2.98561 0
M  V30 2854 H 261.175 0.246454 3.91325 0
M  V30 2855 H 262.665 -0.723389 4.11287 0
M  V30 2856 N 263.102 -1.41638 0.69111 0
M  V30 2857 C 264.379 -1.95036 0.148421 0
M  V30 2858 C 264.759 -1.63072 -1.34055 0
M  V30 2859 O 264.107 -0.93538 -2.08478 0
M  V30 2860 C 264.317 -3.46279 0.434951 0
M  V30 2861 C 265.665 -4.23069 0.360275 0
M  V30 2862 O 266.689 -3.54277 0.369613 0
M  V30 2863 O 265.548 -5.45583 0.316534 0
M  V30 2864 H 262.642 -0.826908 0.0123654 0
M  V30 2865 H 265.188 -1.5138 0.766963 0
M  V30 2866 H 263.96 -3.6281 1.46576 0
M  V30 2867 H 263.583 -3.97019 -0.214787 0
M  V30 2868 O 264.619 -0.577603 -1.50818 0
M  V30 2869 H 265.31 -0.0808444 -1.93531 0
M  V30 END ATOM
M  V30 BEGIN BOND
M  V30 END BOND
M  V30 END CTAB
M  END
$$$$
