drugbank_target|Q9CBQ2 Ribonucleoside-diphosphate reductase subunit beta (DB04272)
 OpenBabel12092120293D

  0  0  0     0  0            999 V3000
M  V30 BEGIN CTAB
M  V30 COUNTS 5187 5249 0 0 0
M  V30 BEGIN ATOM
M  V30 1 H -0.908 1.98254 -0.117106 0
M  V30 2 N 0 1.576 0 0
M  V30 3 C 0.933 2.03868 1.02534 0
M  V30 4 C 1.911 0.928543 1.3348 0
M  V30 5 O 3.095 1.19667 1.45644 0
M  V30 6 C 0.222 2.43627 2.35294 0
M  V30 7 C -0.732 3.65373 2.2001 0
M  V30 8 S 0.101 5.13292 1.52614 0
M  V30 9 C 1.257 5.56322 2.86805 0
M  V30 10 H 1.49 2.90518 0.631377 0
M  V30 11 H -0.977 1.52953 0.210867 0
M  V30 12 H 0.981 2.67203 3.11629 0
M  V30 13 H -0.358 1.57376 2.7183 0
M  V30 14 H -1.165 3.90944 3.18086 0
M  V30 15 H -1.563 3.418 1.51819 0
M  V30 16 H 0.729 5.58782 3.83104 0
M  V30 17 H 1.672 6.56266 2.65933 0
M  V30 18 H 2.08 4.83886 2.90714 0
M  V30 19 N 1.4781 -0.272755 1.55222 0
M  V30 20 C 2.4081 -1.34136 1.91127 0
M  V30 21 C 3.3891 -1.51513 0.773168 0
M  V30 22 O 4.5741 -1.64552 1.03132 0
M  V30 23 C 1.7041 -2.70083 2.1834 0
M  V30 24 C 0.6581 -2.67437 3.34158 0
M  V30 25 C -0.0159 -4.06938 3.46851 0
M  V30 26 C 1.2841 -2.26686 4.70543 0
M  V30 27 H 2.9781 -1.04333 2.80633 0
M  V30 28 H 0.5241 -0.500454 1.35024 0
M  V30 29 H 2.4771 -3.44952 2.42046 0
M  V30 30 H 1.2011 -3.01469 1.25634 0
M  V30 31 H -0.1399 -1.95026 3.1042 0
M  V30 32 H -0.4919 -4.35547 2.51611 0
M  V30 33 H -0.7919 -4.06062 4.2472 0
M  V30 34 H 0.7321 -4.83545 3.72849 0
M  V30 35 H 2.1461 -2.91277 4.93792 0
M  V30 36 H 0.5431 -2.36971 5.5133 0
M  V30 37 H 1.6131 -1.21818 4.69349 0
M  V30 38 N 2.9562 -1.48159 -0.537278 0
M  V30 39 C 4.1842 -1.59454 -1.31841 0
M  V30 40 C 4.5992 -0.252065 -1.8711 0
M  V30 41 O 3.9562 0.757621 -1.66031 0
M  V30 42 C 4.0072 -2.63546 -2.47439 0
M  V30 43 O 3.7282 -3.92583 -1.94449 0
M  V30 44 C 5.2292 -2.85212 -3.39366 0
M  V30 45 H 2.4492 -0.53785 -0.401196 0
M  V30 46 H 4.9932 -1.93932 -0.648891 0
M  V30 47 H 3.1482 -2.31946 -3.1029 0
M  V30 48 H 3.5622 -4.49629 -2.70063 0
M  V30 49 H 5.0362 -3.61863 -4.16844 0
M  V30 50 H 5.5132 -1.93765 -3.94147 0
M  V30 51 H 6.1192 -3.18086 -2.82314 0
M  V30 52 N 4.4343 0.785586 -1.36625 0
M  V30 53 C 5.6823 1.54057 -1.30808 0
M  V30 54 C 6.0033 1.94683 0.111157 0
M  V30 55 O 5.2733 1.65241 1.05224 0
M  V30 56 H 3.8533 0.571354 -0.481211 0
M  V30 57 H 6.5153 0.935821 -1.70963 0
M  V30 58 H 5.6113 2.44637 -1.93801 0
M  V30 59 N 5.9124 1.20967 1.01018 0
M  V30 60 C 6.8594 0.964281 2.09691 0
M  V30 61 C 7.8294 -0.107853 1.65749 0
M  V30 62 O 9.0144 0.0381987 1.90762 0
M  V30 63 C 6.1544 0.52943 3.41015 0
M  V30 64 C 5.2674 1.67043 3.98398 0
M  V30 65 C 4.4024 1.18525 5.17808 0
M  V30 66 C 3.4414 2.29892 5.67288 0
M  V30 67 N 2.5784 1.82546 6.77954 0
M  V30 68 H 7.4184 1.89463 2.30017 0
M  V30 69 H 4.9554 0.944289 1.1279 0
M  V30 70 H 6.9134 0.258588 4.16398 0
M  V30 71 H 5.5434 -0.363919 3.20742 0
M  V30 72 H 4.5954 2.05603 3.20049 0
M  V30 73 H 5.9074 2.50877 4.31117 0
M  V30 74 H 5.0614 0.870762 6.00419 0
M  V30 75 H 3.8004 0.316887 4.86669 0
M  V30 76 H 2.8054 2.6215 4.83278 0
M  V30 77 H 4.0304 3.17216 6.00459 0
M  V30 78 H 1.9764 0.980454 6.48632 0
M  V30 79 H 1.8934 2.59956 7.09901 0
M  V30 80 H 3.1614 1.54115 7.64113 0
M  V30 81 N 7.3905 -1.2043 1.01659 0
M  V30 82 C 8.3235 -2.21924 0.531521 0
M  V30 83 C 9.3015 -1.57054 -0.421032 0
M  V30 84 O 10.4855 -1.85389 -0.341035 0
M  V30 85 C 7.6125 -3.37942 -0.226496 0
M  V30 86 C 6.6585 -4.21115 0.67561 0
M  V30 87 S 7.4915 -4.90674 2.14475 0
M  V30 88 C 8.6475 -6.10113 1.3969 0
M  V30 89 H 8.8805 -2.62725 1.3915 0
M  V30 90 H 6.4135 -1.30481 0.825479 0
M  V30 91 H 8.3715 -4.05196 -0.657738 0
M  V30 92 H 7.0325 -2.956 -1.06205 0
M  V30 93 H 6.2255 -5.03918 0.091108 0
M  V30 94 H 5.8275 -3.59115 1.04463 0
M  V30 95 H 8.1195 -6.7411 0.676897 0
M  V30 96 H 9.0625 -6.73022 2.20107 0
M  V30 97 H 9.4705 -5.57283 0.899786 0
M  V30 98 N 8.8686 -0.792821 -1.36206 0
M  V30 99 C 9.8156 -0.191653 -2.30003 0
M  V30 100 C 10.7856 0.666453 -1.52143 0
M  V30 101 O 11.9706 0.61442 -1.80636 0
M  V30 102 C 9.1106 0.664848 -3.38635 0
M  V30 103 C 8.2236 -0.212175 -4.31479 0
M  V30 104 C 7.3586 0.651022 -5.27196 0
M  V30 105 C 6.3976 -0.227247 -6.11678 0
M  V30 106 N 5.5346 0.595127 -6.99573 0
M  V30 107 H 10.3746 -0.996978 -2.80828 0
M  V30 108 H 7.9116 -0.503206 -1.38225 0
M  V30 109 H 9.8696 1.17645 -4.00269 0
M  V30 110 H 8.4996 1.43557 -2.89122 0
M  V30 111 H 7.5516 -0.841777 -3.70969 0
M  V30 112 H 8.8636 -0.888751 -4.90818 0
M  V30 113 H 8.0176 1.2283 -5.94136 0
M  V30 114 H 6.7566 1.36121 -4.68319 0
M  V30 115 H 5.7616 -0.816904 -5.43697 0
M  V30 116 H 6.9866 -0.93509 -6.72631 0
M  V30 117 H 4.9326 1.28955 -6.432 0
M  V30 118 H 4.8496 -0.0236952 -7.55996 0
M  V30 119 H 6.1176 1.15613 -7.70879 0
M  V30 120 N 10.3467 1.47872 -0.545128 0
M  V30 121 C 11.2767 2.32661 0.197793 0
M  V30 122 C 12.2577 1.43041 0.920504 0
M  V30 123 O 13.4427 1.71912 0.90333 0
M  V30 124 C 10.5727 3.24569 1.23582 0
M  V30 125 C 9.5267 4.23333 0.630323 0
M  V30 126 C 8.8527 5.0448 1.77211 0
M  V30 127 C 10.1527 5.20704 -0.407974 0
M  V30 128 H 11.8467 2.95024 -0.510045 0
M  V30 129 H 9.3927 1.4187 -0.246731 0
M  V30 130 H 11.3457 3.8272 1.76362 0
M  V30 131 H 10.0697 2.60236 1.97344 0
M  V30 132 H 8.7287 3.6639 0.123922 0
M  V30 133 H 8.3767 4.36561 2.49847 0
M  V30 134 H 8.0767 5.71339 1.37281 0
M  V30 135 H 9.6007 5.65487 2.3034 0
M  V30 136 H 11.0147 5.7329 0.033305 0
M  V30 137 H 9.4117 5.95699 -0.725486 0
M  V30 138 H 10.4817 4.66917 -1.30828 0
M  V30 139 N 11.8248 0.280983 1.55075 0
M  V30 140 C 13.0738 -0.334784 1.98902 0
M  V30 141 C 13.3868 -1.56534 1.17288 0
M  V30 142 O 14.5928 -2.25443 1.51287 0
M  V30 143 C 13.0488 -0.646994 3.54037 0
M  V30 144 C 12.6568 0.564085 4.44435 0
M  V30 145 C 14.4008 -1.22506 4.06439 0
M  V30 146 C 12.3078 0.226137 5.90967 0
M  V30 147 H 11.2378 -0.128866 0.742906 0
M  V30 148 H 13.8888 0.386556 1.79382 0
M  V30 149 H 12.2708 -1.42739 3.6938 0
M  V30 150 H 13.4448 1.34082 4.40861 0
M  V30 151 H 11.7598 1.0594 4.02698 0
M  V30 152 H 14.3568 -1.49182 5.13468 0
M  V30 153 H 14.6998 -2.16085 3.55827 0
M  V30 154 H 15.2328 -0.50682 3.94558 0
M  V30 155 H 11.9718 1.12996 6.45687 0
M  V30 156 H 11.4918 -0.513717 5.97596 0
M  V30 157 H 13.1708 -0.179539 6.46751 0
M  V30 158 N 13.3029 -1.57598 0.00835791 0
M  V30 159 C 14.5799 -1.82172 -0.712235 0
M  V30 160 C 14.9599 -0.887873 -1.9152 0
M  V30 161 O 14.3079 0.06146 -2.28417 0
M  V30 162 C 14.5179 -3.30875 -1.11008 0
M  V30 163 C 15.8659 -3.96826 -1.51044 0
M  V30 164 O 16.8899 -3.35248 -1.20364 0
M  V30 165 O 15.7489 -5.05318 -2.08125 0
M  V30 166 H 12.8429 -0.750435 -0.347529 0
M  V30 167 H 15.3889 -1.69665 0.0344523 0
M  V30 168 H 14.1609 -3.90481 -0.252982 0
M  V30 169 H 13.7839 -3.48412 -1.9156 0
M  V30 170 N 14.781 0.264519 -1.55364 0
M  V30 171 C 16.197 0.61215 -1.47394 0
M  V30 172 C 16.397 1.89134 -0.695018 0
M  V30 173 O 15.453 2.51563 -0.217275 0
M  V30 174 C 16.766 0.731235 -2.91674 0
M  V30 175 C 18.314 0.82473 -3.01939 0
M  V30 176 C 18.789 0.975522 -4.4749 0
M  V30 177 N 20.28 1.04083 -4.51354 0
M  V30 178 C 21.015 1.17646 -5.61201 0
M  V30 179 N 20.511 1.27874 -6.80896 0
M  V30 180 N 22.304 1.20823 -5.48961 0
M  V30 181 H 14.455 -0.575456 -2.04456 0
M  V30 182 H 16.718 -0.196099 -0.927496 0
M  V30 183 H 16.424 -0.138392 -3.51428 0
M  V30 184 H 16.298 1.60883 -3.41169 0
M  V30 185 H 18.685 1.68482 -2.42276 0
M  V30 186 H 18.766 -0.0776479 -2.55682 0
M  V30 187 H 18.41 0.120058 -5.07758 0
M  V30 188 H 18.34 1.89268 -4.91412 0
M  V30 189 H 20.831 0.973846 -3.65136 0
M  V30 190 H 21.144 1.38081 -7.60364 0
M  V30 191 H 19.489 1.24863 -6.83692 0
M  V30 192 H 22.68 1.12469 -4.54388 0
M  V30 193 H 22.853 1.31049 -6.3461 0
M  V30 194 N 16.2591 1.48442 0.529413 0
M  V30 195 C 17.5051 1.5672 1.28711 0
M  V30 196 C 17.8381 0.2406 1.92704 0
M  V30 197 O 17.1131 -0.753454 1.79313 0
M  V30 198 C 17.3961 2.70587 2.37603 0
M  V30 199 C 17.2491 4.12953 1.78297 0
M  V30 200 C 18.5681 2.80212 3.39366 0
M  V30 201 H 15.6871 0.570474 0.466613 0
M  V30 202 H 18.3291 1.80617 0.589706 0
M  V30 203 H 16.4791 2.50342 2.97088 0
M  V30 204 H 18.1511 4.44639 1.22858 0
M  V30 205 H 16.3941 4.19927 1.0883 0
M  V30 206 H 17.0651 4.88448 2.57144 0
M  V30 207 H 19.5411 2.98553 2.89836 0
M  V30 208 H 18.4171 3.61611 4.12951 0
M  V30 209 H 18.6781 1.88393 3.99951 0
M  V30 210 N 17.7372 -0.778329 1.37039 0
M  V30 211 C 18.9622 -1.57248 1.35233 0
M  V30 212 C 19.3872 -1.87999 -0.0615568 0
M  V30 213 O 18.7452 -1.48734 -1.03672 0
M  V30 214 C 18.7932 -2.86353 2.19167 0
M  V30 215 O 17.8972 -3.80442 1.59178 0
M  V30 216 H 17.2382 -0.476569 0.462362 0
M  V30 217 H 19.7682 -0.963853 1.80474 0
M  V30 218 H 19.7782 -3.35519 2.32145 0
M  V30 219 H 18.4532 -2.63299 3.21942 0
M  V30 220 H 17.0302 -3.39067 1.55203 0
M  V30 221 N 19.2153 -1.21501 -1.00376 0
M  V30 222 C 20.1783 -0.976927 -2.07337 0
M  V30 223 C 21.1783 0.0525322 -1.60714 0
M  V30 224 O 22.3683 -0.184869 -1.73216 0
M  V30 225 C 19.5003 -0.473423 -3.37597 0
M  V30 226 H 20.6933 -1.92587 -2.29892 0
M  V30 227 H 18.2463 -1.03217 -1.17371 0
M  V30 228 H 18.9813 0.480379 -3.20722 0
M  V30 229 H 18.7663 -1.216 -3.72768 0
M  V30 230 H 20.2563 -0.32675 -4.1632 0
M  V30 231 N 20.6934 1.19889 -1.02296 0
M  V30 232 C 21.9424 1.88743 -0.711257 0
M  V30 233 C 22.2554 1.80112 0.762817 0
M  V30 234 O 23.4614 2.44161 1.18733 0
M  V30 235 C 21.9174 3.38525 -1.22185 0
M  V30 236 C 21.5254 3.55727 -2.72328 0
M  V30 237 C 23.2694 4.12893 -0.985864 0
M  V30 238 C 21.1764 4.99369 -3.16835 0
M  V30 239 H 20.1064 0.706885 -0.262353 0
M  V30 240 H 22.7574 1.35586 -1.23648 0
M  V30 241 H 21.1394 3.91044 -0.624571 0
M  V30 242 H 22.3134 3.13564 -3.3766 0
M  V30 243 H 20.6284 2.94739 -2.9414 0
M  V30 244 H 23.2254 5.18813 -1.29374 0
M  V30 245 H 23.5684 4.16228 0.0775055 0
M  V30 246 H 24.1014 3.66494 -1.54684 0
M  V30 247 H 20.8404 5.01193 -4.22476 0
M  V30 248 H 20.3604 5.42317 -2.56228 0
M  V30 249 H 22.0394 5.67988 -3.09837 0
M  V30 250 N 22.1715 0.800033 1.35784 0
M  V30 251 C 23.1195 0.193851 2.31791 0
M  V30 252 C 24.1135 -0.652744 1.56319 0
M  V30 253 O 25.3195 -0.546641 1.71499 0
M  V30 254 H 21.6945 0.04392 0.750716 0
M  V30 255 H 23.6655 1.01883 2.80468 0
M  V30 256 C 22.4145 -0.648338 3.41602 0
M  V30 257 H 21.7375 -0.00624665 3.998 0
M  V30 258 H 23.1775 -1.03898 4.11073 0
M  V30 259 C 21.6365 -1.8111 2.84079 0
M  V30 260 O 22.1665 -2.90825 2.77099 0
M  V30 261 N 20.3725 -1.62056 2.41218 0
M  V30 262 H 19.9195 -0.728123 2.47095 0
M  V30 263 H 19.8775 -2.40013 2.03079 0
M  V30 264 N 23.6496 -1.47581 0.552962 0
M  V30 265 C 24.8956 -2.03369 0.0355807 0
M  V30 266 C 25.2506 -1.42016 -1.29805 0
M  V30 267 O 24.5436 -0.564917 -1.83083 0
M  V30 268 C 24.7376 -3.57199 -0.119728 0
M  V30 269 C 24.5666 -4.33468 1.1973 0
M  V30 270 C 23.3366 -4.7353 1.76345 0
M  V30 271 C 25.5346 -4.68866 2.11351 0
M  V30 272 N 23.5166 -5.34426 3.02097 0
M  V30 273 C 24.8876 -5.3002 3.21681 0
M  V30 274 C 26.9426 -4.50795 2.11397 0
M  V30 275 C 25.6456 -5.75011 4.32151 0
M  V30 276 C 27.6716 -4.96782 3.20876 0
M  V30 277 C 27.0336 -5.57981 4.29926 0
M  V30 278 H 23.1326 -0.780058 0.0550806 0
M  V30 279 H 25.7166 -1.80117 0.739315 0
M  V30 280 H 23.8876 -3.80227 -0.792579 0
M  V30 281 H 25.6196 -3.99627 -0.638792 0
M  V30 282 H 22.3746 -4.55352 1.30196 0
M  V30 283 H 22.7986 -5.69421 3.66182 0
M  V30 284 H 27.4406 -4.0284 1.28372 0
M  V30 285 H 25.1586 -6.21959 5.15938 0
M  V30 286 H 28.7446 -4.84573 3.21994 0
M  V30 287 H 27.6246 -5.92918 5.13243 0
M  V30 288 N 25.1277 -0.289203 -1.54924 0
M  V30 289 C 26.0757 0.607966 -2.24514 0
M  V30 290 C 27.0697 1.14655 -1.24702 0
M  V30 291 O 28.2757 1.09856 -1.4259 0
M  V30 292 H 24.6507 0.21464 -0.720718 0
M  V30 293 H 26.6217 -0.00164182 -2.984 0
M  V30 294 C 25.3707 1.77406 -2.99036 0
M  V30 295 H 24.6937 1.36884 -3.75637 0
M  V30 296 H 26.1337 2.37814 -3.51028 0
M  V30 297 C 24.5927 2.67107 -2.05318 0
M  V30 298 O 25.1227 3.6787 -1.61353 0
M  V30 299 N 23.3287 2.34582 -1.71521 0
M  V30 300 H 22.8757 1.52688 -2.07471 0
M  V30 301 H 22.8337 2.94867 -1.0909 0
M  V30 302 N 26.6058 1.57591 -0.0167156 0
M  V30 303 C 27.8518 1.92399 0.659861 0
M  V30 304 C 28.2068 0.892561 1.70444 0
M  V30 305 O 27.4998 -0.0930755 1.91374 0
M  V30 306 C 27.6938 3.3172 1.33029 0
M  V30 307 C 27.5228 4.48319 0.352174 0
M  V30 308 C 26.2928 5.05281 -0.0434883 0
M  V30 309 C 28.4908 5.12831 -0.388474 0
M  V30 310 N 26.4728 6.05399 -1.01807 0
M  V30 311 C 27.8438 6.07934 -1.2172 0
M  V30 312 C 29.8988 4.95858 -0.450513 0
M  V30 313 C 28.6018 6.87891 -2.10235 0
M  V30 314 C 30.6278 5.76413 -1.32295 0
M  V30 315 C 29.9898 6.71123 -2.13948 0
M  V30 316 H 26.0888 0.752106 0.21415 0
M  V30 317 H 28.6728 1.94532 -0.0809846 0
M  V30 318 H 26.8438 3.3043 2.04134 0
M  V30 319 H 28.5758 3.5391 1.9629 0
M  V30 320 H 25.3308 4.7246 0.328384 0
M  V30 321 H 25.7548 6.60145 -1.50123 0
M  V30 322 H 30.3968 4.22472 0.166512 0
M  V30 323 H 28.1148 7.60591 -2.72997 0
M  V30 324 H 31.7008 5.65317 -1.37508 0
M  V30 325 H 30.5808 7.3237 -2.80364 0
M  V30 326 N 28.0839 -0.256276 1.55502 0
M  V30 327 C 29.0139 -1.32102 1.92539 0
M  V30 328 C 29.9949 -1.50684 0.789194 0
M  V30 329 O 31.1799 -1.63449 1.04872 0
M  V30 330 C 28.3099 -2.67752 2.21192 0
M  V30 331 C 27.2639 -2.63878 3.36975 0
M  V30 332 C 26.5899 -4.03236 3.51147 0
M  V30 333 C 27.8899 -2.21682 4.72921 0
M  V30 334 H 29.5839 -1.01351 2.81724 0
M  V30 335 H 27.1299 -0.486105 1.35547 0
M  V30 336 H 29.0829 -3.42365 2.45691 0
M  V30 337 H 27.8069 -3.0012 1.28824 0
M  V30 338 H 26.4659 -1.91722 3.12471 0
M  V30 339 H 26.1139 -4.32854 2.56216 0
M  V30 340 H 25.8139 -4.01535 4.29003 0
M  V30 341 H 27.3379 -4.79563 3.77957 0
M  V30 342 H 28.7519 -2.86023 4.96854 0
M  V30 343 H 27.1489 -2.3111 5.53812 0
M  V30 344 H 28.2189 -1.16833 4.70615 0
M  V30 345 N 29.562 -1.4872 -0.521534 0
M  V30 346 C 30.494 -1.59968 -1.64143 0
M  V30 347 C 31.507 -0.483463 -1.55456 0
M  V30 348 O 32.696 -0.75467 -1.61762 0
M  V30 349 C 29.796 -1.52127 -3.02838 0
M  V30 350 C 28.969 -2.78932 -3.36921 0
M  V30 351 C 28.028 -2.64428 -4.54933 0
M  V30 352 O 27.054 -3.38331 -4.57735 0
M  V30 353 N 28.256 -1.74606 -5.53618 0
M  V30 354 H 31.021 -2.56548 -1.54929 0
M  V30 355 H 28.582 -1.45551 -0.708988 0
M  V30 356 H 30.574 -1.40106 -3.79674 0
M  V30 357 H 29.144 -0.634868 -3.06085 0
M  V30 358 H 28.364 -3.05455 -2.4918 0
M  V30 359 H 29.652 -3.63041 -3.56481 0
M  V30 360 H 29.05 -1.13782 -5.54139 0
M  V30 361 H 27.607 -1.6852 -6.29638 0
M  V30 362 N 31.0401 0.771051 -1.3745 0
M  V30 363 C 32.3171 1.519 -1.23231 0
M  V30 364 C 32.6971 2.10383 0.173809 0
M  V30 365 O 32.0451 1.95583 1.18151 0
M  V30 366 C 32.2551 2.59933 -2.32886 0
M  V30 367 C 33.6031 3.27316 -2.70461 0
M  V30 368 O 34.6271 2.70228 -2.32068 0
M  V30 369 O 33.4861 4.30531 -3.36608 0
M  V30 370 H 30.5801 0.672803 -0.480901 0
M  V30 371 H 33.1261 0.807957 -1.49232 0
M  V30 372 H 31.8981 2.14842 -3.27045 0
M  V30 373 H 31.5211 3.38637 -2.08353 0
M  V30 374 N 32.5182 1.22032 0.997298 0
M  V30 375 C 33.7952 0.950823 1.70935 0
M  V30 376 C 34.1752 -0.535292 2.042 0
M  V30 377 O 33.5232 -1.50217 1.72183 0
M  V30 378 C 33.7332 1.84386 2.96315 0
M  V30 379 C 35.0812 2.09732 3.69185 0
M  V30 380 O 36.1052 1.81798 3.06314 0
M  V30 381 O 34.9642 2.57018 4.82291 0
M  V30 382 H 32.0582 0.357204 0.745878 0
M  V30 383 H 34.6042 1.32997 1.05404 0
M  V30 384 H 33.3762 2.84928 2.68201 0
M  V30 385 H 32.9992 1.46602 3.69586 0
M  V30 386 N 33.9963 -1.19345 1.0293 0
M  V30 387 C 34.9433 -2.2258 0.610464 0
M  V30 388 C 35.9133 -1.6179 -0.375946 0
M  V30 389 O 37.0983 -1.88844 -0.272511 0
M  V30 390 C 34.2383 -3.45085 -0.0321473 0
M  V30 391 C 33.3513 -4.20258 1.00035 0
M  V30 392 C 32.4863 -5.3019 0.32746 0
M  V30 393 C 31.5253 -5.97121 1.34584 0
M  V30 394 N 30.6623 -6.98615 0.698726 0
M  V30 395 H 35.5023 -2.57764 1.49538 0
M  V30 396 H 33.0393 -1.26644 0.748311 0
M  V30 397 H 34.9973 -4.15061 -0.421966 0
M  V30 398 H 33.6273 -3.10555 -0.88064 0
M  V30 399 H 32.6793 -3.49223 1.50823 0
M  V30 400 H 33.9913 -4.66175 1.77433 0
M  V30 401 H 33.1453 -6.06587 -0.11718 0
M  V30 402 H 31.8843 -4.85345 -0.478713 0
M  V30 403 H 30.8893 -5.19474 1.80074 0
M  V30 404 H 32.1143 -6.4405 2.15352 0
M  V30 405 H 30.0603 -6.55942 -0.0873471 0
M  V30 406 H 29.9773 -7.42724 1.41058 0
M  V30 407 H 31.2453 -7.79004 0.278102 0
M  V30 408 N 35.4744 -0.807222 -1.35358 0
M  V30 409 C 36.7514 -0.311126 -1.9311 0
M  V30 410 C 37.1314 1.19937 -1.73719 0
M  V30 411 O 36.4794 1.99918 -1.10657 0
M  V30 412 C 36.6894 -0.723226 -3.41424 0
M  V30 413 C 38.0374 -0.713078 -4.18569 0
M  V30 414 O 39.0614 -0.664811 -3.49941 0
M  V30 415 O 37.9204 -0.772022 -5.41019 0
M  V30 416 H 35.0144 -0.081526 -0.822972 0
M  V30 417 H 37.5604 -0.890962 -1.4443 0
M  V30 418 H 36.3324 -1.76426 -3.4927 0
M  V30 419 H 35.9554 -0.118232 -3.97424 0
M  V30 420 N 36.9525 1.47285 -0.560781 0
M  V30 421 C 37.9155 2.28535 0.174488 0
M  V30 422 C 38.9155 1.37153 0.839388 0
M  V30 423 O 40.1055 1.59748 0.694702 0
M  V30 424 C 37.2375 3.16934 1.25561 0
M  V30 425 H 38.4305 2.95012 -0.539262 0
M  V30 426 H 35.9835 1.53034 -0.317865 0
M  V30 427 H 36.7185 2.55157 2.00164 0
M  V30 428 H 36.5035 3.8419 0.783604 0
M  V30 429 H 37.9935 3.78143 1.77193 0
M  V30 430 N 38.4306 0.297415 1.54768 0
M  V30 431 C 39.3406 -0.58983 2.27064 0
M  V30 432 C 40.3566 -1.15144 1.30453 0
M  V30 433 O 41.5326 -1.17699 1.63428 0
M  V30 434 C 38.5976 -1.74714 2.9946 0
M  V30 435 C 37.6586 -1.21997 4.11601 0
M  V30 436 C 36.8916 -2.32212 4.80535 0
M  V30 437 O 37.1146 -3.52036 4.48806 0
M  V30 438 O 36.0486 -1.99106 5.68014 0
M  V30 439 H 39.8746 -0.00348199 3.037 0
M  V30 440 H 37.4596 0.0640035 1.49263 0
M  V30 441 H 39.3416 -2.42147 3.44881 0
M  V30 442 H 38.0166 -2.32016 2.25722 0
M  V30 443 H 36.9236 -0.511458 3.70587 0
M  V30 444 H 38.2566 -0.692419 4.87305 0
M  V30 445 N 39.9087 -1.5758 0.0250728 0
M  V30 446 C 41.1547 -1.91917 -0.655413 0
M  V30 447 C 41.4877 -0.901433 -1.72011 0
M  V30 448 O 40.7627 0.0764069 -1.9435 0
M  V30 449 C 41.0457 -3.36751 -1.27558 0
M  V30 450 C 40.8987 -4.49258 -0.220719 0
M  V30 451 C 42.2177 -3.81469 -2.19475 0
M  V30 452 H 39.3367 -0.697925 -0.23679 0
M  V30 453 H 41.9787 -1.89825 0.0815036 0
M  V30 454 H 40.1287 -3.38664 -1.90365 0
M  V30 455 H 41.8007 -4.59478 0.409601 0
M  V30 456 H 40.0437 -4.31415 0.454264 0
M  V30 457 H 40.7147 -5.47618 -0.694175 0
M  V30 458 H 43.1907 -3.81266 -1.66659 0
M  V30 459 H 42.0667 -4.83512 -2.59822 0
M  V30 460 H 42.3277 -3.16744 -3.08424 0
M  V30 461 N 41.3868 0.248026 -1.55636 0
M  V30 462 C 42.6328 0.973427 -1.78594 0
M  V30 463 C 42.9878 1.83007 -0.593823 0
M  V30 464 O 42.2808 1.87097 0.412961 0
M  V30 465 C 42.4748 1.86819 -3.04686 0
M  V30 466 C 42.3038 1.09965 -4.36048 0
M  V30 467 C 41.0738 0.805204 -4.98843 0
M  V30 468 C 43.2718 0.477783 -5.12076 0
M  V30 469 N 41.2538 0.0124859 -6.13899 0
M  V30 470 C 42.6248 -0.179565 -6.1974 0
M  V30 471 C 44.6798 0.388136 -4.96385 0
M  V30 472 C 43.3828 -0.91795 -7.13419 0
M  V30 473 C 45.4088 -0.336716 -5.90441 0
M  V30 474 C 44.7708 -0.982705 -6.97511 0
M  V30 475 H 40.8698 0.337348 -0.705493 0
M  V30 476 H 43.4538 0.24667 -1.93131 0
M  V30 477 H 41.6248 2.56698 -2.9148 0
M  V30 478 H 43.3568 2.52907 -3.15944 0
M  V30 479 H 40.1118 1.11671 -4.60246 0
M  V30 480 H 40.5358 -0.371933 -6.75978 0
M  V30 481 H 45.1778 0.873237 -4.13684 0
M  V30 482 H 42.8958 -1.41466 -7.95621 0
M  V30 483 H 46.4818 -0.406731 -5.80377 0
M  V30 484 H 45.3618 -1.53464 -7.69037 0
M  V30 485 N 42.8649 1.48995 0.513639 0
M  V30 486 C 44.1419 1.48338 1.27495 0
M  V30 487 C 44.5219 0.204065 2.10111 0
M  V30 488 O 43.8699 -0.813881 2.13514 0
M  V30 489 C 44.0799 2.75498 2.14247 0
M  V30 490 C 45.4279 3.24484 2.73852 0
M  V30 491 O 46.4519 2.76528 2.24523 0
M  V30 492 O 45.3109 4.07974 3.6362 0
M  V30 493 H 42.4049 0.593149 0.576284 0
M  V30 494 H 44.9509 1.61246 0.528948 0
M  V30 495 H 43.7229 3.60109 1.53092 0
M  V30 496 H 43.3459 2.6539 2.96064 0
M  V30 497 N 44.343 -0.763751 1.37857 0
M  V30 498 C 45.759 -1.06542 1.18832 0
M  V30 499 C 45.959 -2.01478 0.0299722 0
M  V30 500 O 45.015 -2.4458 -0.627447 0
M  V30 501 C 46.328 -1.65525 2.51042 0
M  V30 502 C 47.876 -1.77745 2.57635 0
M  V30 503 C 48.351 -2.4014 3.89996 0
M  V30 504 N 49.842 -2.47582 3.91481 0
M  V30 505 C 50.577 -2.96732 4.9065 0
M  V30 506 N 50.073 -3.45993 6.00217 0
M  V30 507 N 51.866 -2.95679 4.78048 0
M  V30 508 H 44.017 -0.133556 2.1198 0
M  V30 509 H 46.28 -0.121879 0.940133 0
M  V30 510 H 45.986 -1.03236 3.36207 0
M  V30 511 H 45.86 -2.64719 2.68707 0
M  V30 512 H 48.247 -2.39164 1.72872 0
M  V30 513 H 48.328 -0.772836 2.43846 0
M  V30 514 H 47.972 -1.79358 4.75177 0
M  V30 515 H 47.902 -3.41223 4.01092 0
M  V30 516 H 50.393 -2.1273 3.12337 0
M  V30 517 H 50.706 -3.81922 6.7183 0
M  V30 518 H 49.051 -3.44077 6.03851 0
M  V30 519 H 52.242 -2.56499 3.91568 0
M  V30 520 H 52.415 -3.33672 5.55488 0
M  V30 521 N 45.8211 -1.22559 -0.990812 0
M  V30 522 C 46.7511 -1.0218 -2.09956 0
M  V30 523 C 47.7321 0.0579394 -1.70001 0
M  V30 524 O 48.9171 -0.104684 -1.93918 0
M  V30 525 C 46.0471 -0.601023 -3.4206 0
M  V30 526 C 45.0011 -1.62694 -3.95872 0
M  V30 527 C 44.3271 -1.06193 -5.24049 0
M  V30 528 C 45.6271 -3.01743 -4.2632 0
M  V30 529 H 47.3211 -1.94916 -2.27262 0
M  V30 530 H 44.8671 -0.938566 -1.09211 0
M  V30 531 H 46.8201 -0.445561 -4.19038 0
M  V30 532 H 45.5441 0.362005 -3.24588 0
M  V30 533 H 44.2031 -1.77021 -3.21028 0
M  V30 534 H 43.8511 -0.0901903 -5.02919 0
M  V30 535 H 43.5511 -1.74732 -5.61019 0
M  V30 536 H 45.0751 -0.918092 -6.03658 0
M  V30 537 H 46.4891 -2.90777 -4.94087 0
M  V30 538 H 44.8861 -3.67425 -4.74467 0
M  V30 539 H 45.9561 -3.51518 -3.34011 0
M  V30 540 N 47.2992 1.18797 -1.03562 0
M  V30 541 C 48.5272 1.92599 -0.755869 0
M  V30 542 C 48.9422 1.75886 0.686271 0
M  V30 543 O 48.2992 1.08517 1.46732 0
M  V30 544 C 48.3502 3.44159 -1.10619 0
M  V30 545 O 48.0712 3.60341 -2.4917 0
M  V30 546 C 49.5722 4.3507 -0.850214 0
M  V30 547 H 46.7922 0.611587 -0.276048 0
M  V30 548 H 49.3362 1.50742 -1.38192 0
M  V30 549 H 47.4912 3.83823 -0.525194 0
M  V30 550 H 47.9052 4.54128 -2.62427 0
M  V30 551 H 49.3792 5.39989 -1.14523 0
M  V30 552 H 49.8562 4.38673 0.215176 0
M  V30 553 H 50.4622 4.01097 -1.41426 0
M  V30 554 N 48.7773 0.814389 1.34928 0
M  V30 555 C 50.0253 0.397636 1.9815 0
M  V30 556 C 50.3463 -1.04069 1.64908 0
M  V30 557 O 49.6163 -1.72121 0.93548 0
M  V30 558 H 48.1963 0.144043 0.732981 0
M  V30 559 H 50.8583 1.04195 1.6471 0
M  V30 560 H 49.9543 0.509688 3.0791 0
M  V30 561 N 50.2554 -1.46986 0.568584 0
M  V30 562 C 51.2034 -2.31858 -0.185649 0
M  V30 563 C 52.1974 -1.43624 -0.898249 0
M  V30 564 O 53.4034 -1.60327 -0.818242 0
M  V30 565 H 49.7784 -0.747866 -0.0787399 0
M  V30 566 H 51.7494 -2.93303 0.549191 0
M  V30 567 C 50.4984 -3.26513 -1.19519 0
M  V30 568 H 49.8214 -3.94377 -0.656285 0
M  V30 569 H 51.2614 -3.88707 -1.6936 0
M  V30 570 C 49.7204 -2.50847 -2.24894 0
M  V30 571 O 50.2504 -2.26119 -3.32014 0
M  V30 572 N 48.4564 -2.11656 -1.99124 0
M  V30 573 H 48.0034 -2.31966 -1.12024 0
M  V30 574 H 47.9614 -1.61347 -2.69842 0
M  V30 575 N 51.7335 -0.305618 -1.54608 0
M  V30 576 C 52.9805 0.302298 -2.00231 0
M  V30 577 C 53.3085 1.5354 -1.19398 0
M  V30 578 O 52.5635 1.93973 -0.259423 0
M  V30 579 C 52.8625 0.698983 -3.50498 0
M  V30 580 C 52.5285 -0.432903 -4.48817 0
M  V30 581 C 51.1905 -0.743622 -4.75419 0
M  V30 582 C 53.5425 -1.19409 -5.07337 0
M  V30 583 C 50.8705 -1.81857 -5.57804 0
M  V30 584 C 53.2225 -2.25899 -5.90891 0
M  V30 585 C 51.8865 -2.57572 -6.15803 0
M  V30 586 H 51.1565 0.110619 -0.732697 0
M  V30 587 H 53.8035 -0.425674 -1.86709 0
M  V30 588 H 52.1085 1.50711 -3.61654 0
M  V30 589 H 53.8055 1.1806 -3.83227 0
M  V30 590 H 50.3955 -0.18063 -4.28219 0
M  V30 591 H 54.5795 -0.967295 -4.86782 0
M  V30 592 H 49.8355 -2.06864 -5.75341 0
M  V30 593 H 54.0095 -2.85335 -6.35261 0
M  V30 594 H 51.6365 -3.40998 -6.7943 0
M  V30 595 N 53.2116 1.57565 -0.0334293 0
M  V30 596 C 54.4576 1.93088 0.639417 0
M  V30 597 C 54.8126 0.910589 1.69488 0
M  V30 598 O 54.1056 -0.0727725 1.91462 0
M  V30 599 C 54.2996 3.33112 1.29504 0
M  V30 600 C 54.1286 4.48667 0.304604 0
M  V30 601 C 52.8986 5.05207 -0.0970777 0
M  V30 602 C 55.0966 5.1239 -0.442845 0
M  V30 603 N 53.0786 6.04286 -1.08223 0
M  V30 604 C 54.4496 6.06609 -1.28161 0
M  V30 605 C 56.5046 4.95352 -0.50308 0
M  V30 606 C 55.2076 6.85622 -2.17519 0
M  V30 607 C 57.2336 5.74978 -1.38401 0
M  V30 608 C 56.5956 6.68816 -2.21054 0
M  V30 609 H 52.6946 0.754335 0.206161 0
M  V30 610 H 55.2786 1.94435 -0.101613 0
M  V30 611 H 53.4496 3.32576 2.00618 0
M  V30 612 H 55.1816 3.55972 1.92525 0
M  V30 613 H 51.9366 4.72782 0.278255 0
M  V30 614 H 52.3606 6.58516 -1.57117 0
M  V30 615 H 57.0026 4.22625 0.121694 0
M  V30 616 H 54.7206 7.57652 -2.81049 0
M  V30 617 H 58.3066 5.63826 -1.43496 0
M  V30 618 H 57.1866 7.29355 -2.88116 0
M  V30 619 N 54.6897 -0.239769 1.55765 0
M  V30 620 C 55.6197 -1.30052 1.9393 0
M  V30 621 C 56.6007 -1.49839 0.805132 0
M  V30 622 O 57.7857 -1.62328 1.06599 0
M  V30 623 C 54.9157 -2.65391 2.2402 0
M  V30 624 C 53.8697 -2.60289 3.39755 0
M  V30 625 C 53.1957 -3.99489 3.55405 0
M  V30 626 C 54.4957 -2.16654 4.75246 0
M  V30 627 H 56.1897 -0.983573 2.82783 0
M  V30 628 H 53.7357 -0.471701 1.36055 0
M  V30 629 H 55.6887 -3.3974 2.49308 0
M  V30 630 H 54.4127 -2.98736 1.32 0
M  V30 631 H 53.0717 -1.88398 3.14487 0
M  V30 632 H 52.7197 -4.30112 2.60793 0
M  V30 633 H 52.4197 -3.96962 4.33238 0
M  V30 634 H 53.9437 -4.75528 3.83022 0
M  V30 635 H 55.3577 -2.80737 4.99859 0
M  V30 636 H 53.7547 -2.25223 5.56232 0
M  V30 637 H 54.8247 -1.11835 4.71827 0
M  V30 638 N 56.1678 -1.49265 -0.50573 0
M  V30 639 C 57.5788 -1.51769 -1.08734 0
M  V30 640 C 57.9298 -0.301192 -1.93874 0
M  V30 641 O 57.0548 0.589456 -2.08217 0
M  V30 642 C 57.6498 -2.75017 -1.97867 0
M  V30 643 C 56.2088 -2.80314 -2.51199 0
M  V30 644 C 55.3558 -2.4562 -1.28709 0
M  V30 645 H 58.3068 -1.56031 -0.289855 0
M  V30 646 H 58.3278 -2.5491 -2.82491 0
M  V30 647 H 57.8398 -3.63539 -1.35873 0
M  V30 648 H 55.9408 -1.96061 -3.16845 0
M  V30 649 H 56.0538 -3.82366 -2.88675 0
M  V30 650 H 54.4178 -1.97297 -1.61078 0
M  V30 651 H 55.2008 -3.36411 -0.6843 0
M  V30 652 N 57.6459 0.756429 -1.3826 0
M  V30 653 C 58.5559 1.9009 -1.37488 0
M  V30 654 C 59.5719 1.71855 -0.272366 0
M  V30 655 O 60.7479 1.94827 -0.510318 0
M  V30 656 C 57.8129 3.25421 -1.19592 0
M  V30 657 C 56.8739 3.56202 -2.39622 0
M  V30 658 C 56.1069 4.85075 -2.2257 0
M  V30 659 O 56.3299 5.57246 -1.21793 0
M  V30 660 O 55.2639 5.15269 -3.11098 0
M  V30 661 H 59.0899 1.93695 -2.33914 0
M  V30 662 H 56.6749 0.901313 -1.1915 0
M  V30 663 H 58.5569 4.06337 -1.11661 0
M  V30 664 H 57.2319 3.22634 -0.262486 0
M  V30 665 H 56.1389 2.75458 -2.53128 0
M  V30 666 H 57.4719 3.63747 -3.31586 0
M  V30 667 N 59.124 1.23083 0.984299 0
M  V30 668 C 60.071 1.00854 2.07598 0
M  V30 669 C 61.041 -0.0726709 1.65941 0
M  V30 670 O 62.226 0.0786535 1.90638 0
M  V30 671 C 59.366 0.601645 3.39815 0
M  V30 672 C 58.479 1.75456 3.94765 0
M  V30 673 C 57.614 1.29482 5.15177 0
M  V30 674 C 56.653 2.41873 5.62284 0
M  V30 675 N 55.79 1.96885 6.73929 0
M  V30 676 H 60.63 1.943 2.25946 0
M  V30 677 H 58.167 0.968001 1.10762 0
M  V30 678 H 60.125 0.346854 4.15756 0
M  V30 679 H 58.755 -0.295803 3.21442 0
M  V30 680 H 57.807 2.12346 3.15616 0
M  V30 681 H 59.119 2.59965 4.25699 0
M  V30 682 H 58.273 0.997923 5.98437 0
M  V30 683 H 57.012 0.420046 4.85888 0
M  V30 684 H 56.017 2.72342 4.77608 0
M  V30 685 H 57.242 3.29881 5.93595 0
M  V30 686 H 55.188 1.11782 6.46406 0
M  V30 687 H 55.105 2.74956 7.04227 0
M  V30 688 H 56.373 1.70289 7.60672 0
M  V30 689 N 60.6021 -1.18246 1.0419 0
M  V30 690 C 61.8481 -1.88536 0.747122 0
M  V30 691 C 62.1811 -1.80223 -0.723409 0
M  V30 692 O 61.4561 -1.20337 -1.52804 0
M  V30 693 C 61.7391 -3.38968 1.21544 0
M  V30 694 C 61.5921 -3.56084 2.74816 0
M  V30 695 C 62.9111 -4.32648 0.806482 0
M  V30 696 H 60.0301 -0.684619 0.272883 0
M  V30 697 H 62.6721 -1.39113 1.29413 0
M  V30 698 H 60.8221 -3.8119 0.750081 0
M  V30 699 H 62.4941 -3.22946 3.29399 0
M  V30 700 H 60.7371 -2.98699 3.14582 0
M  V30 701 H 61.4081 -4.61639 3.02644 0
M  V30 702 H 63.8841 -3.98211 1.20695 0
M  V30 703 H 62.7601 -5.36462 1.1619 0
M  V30 704 H 63.0211 -4.41146 -0.29029 0
M  V30 705 N 62.0802 -0.821533 -1.34494 0
M  V30 706 C 63.4912 -0.467956 -1.8074 0
M  V30 707 C 63.8422 1.01151 -1.68116 0
M  V30 708 O 62.9672 1.78707 -1.22036 0
M  V30 709 C 63.5622 -0.842627 -3.28154 0
M  V30 710 C 62.1212 -0.541439 -3.72485 0
M  V30 711 C 61.2682 -1.06028 -2.56229 0
M  V30 712 H 64.2192 -1.01183 -1.22261 0
M  V30 713 H 64.2402 -0.145876 -3.8022 0
M  V30 714 H 63.7522 -1.91945 -3.37311 0
M  V30 715 H 61.8532 0.526034 -3.68868 0
M  V30 716 H 61.9662 -1.08453 -4.66663 0
M  V30 717 H 60.3302 -0.481892 -2.501 0
M  V30 718 H 61.1132 -2.14352 -2.68157 0
M  V30 719 N 63.5583 1.46682 -0.576371 0
M  V30 720 C 64.8043 2.02712 -0.0596221 0
M  V30 721 C 65.1373 1.44765 1.29448 0
M  V30 722 O 64.4123 0.610355 1.84675 0
M  V30 723 C 64.6953 3.60098 0.0129503 0
M  V30 724 C 64.5483 4.28441 -1.3696 0
M  V30 725 C 65.8673 4.34224 0.71678 0
M  V30 726 H 62.9863 0.736637 -0.0231407 0
M  V30 727 H 65.6283 1.74898 -0.742351 0
M  V30 728 H 63.7783 3.83926 0.594378 0
M  V30 729 H 65.4503 4.15896 -1.9957 0
M  V30 730 H 63.6933 3.8805 -1.93907 0
M  V30 731 H 64.3643 5.3716 -1.27135 0
M  V30 732 H 66.8403 4.15503 0.222908 0
M  V30 733 H 65.7163 5.43936 0.73657 0
M  V30 734 H 65.9773 4.04823 1.77682 0
M  V30 735 N 65.0364 0.313813 1.54444 0
M  V30 736 C 66.2614 -0.296681 2.05267 0
M  V30 737 C 66.6864 -1.45757 1.18897 0
M  V30 738 O 66.0444 -1.80239 0.195886 0
M  V30 739 C 66.0924 -0.71831 3.53373 0
M  V30 740 O 65.1964 -1.82175 3.69981 0
M  V30 741 H 64.5374 -0.0554061 0.661684 0
M  V30 742 H 67.0674 0.459387 1.99376 0
M  V30 743 H 67.0774 -1.00364 3.95463 0
M  V30 744 H 65.7524 0.130821 4.15694 0
M  V30 745 H 64.3294 -1.53598 3.39797 0
M  V30 746 N 66.5145 -1.57545 0.0417849 0
M  V30 747 C 67.4625 -2.12148 -0.953723 0
M  V30 748 C 68.4565 -1.05104 -1.32852 0
M  V30 749 O 69.6625 -1.23524 -1.30927 0
M  V30 750 H 66.0375 -0.677957 -0.325389 0
M  V30 751 H 68.0085 -2.94707 -0.467991 0
M  V30 752 C 66.7575 -2.6739 -2.22257 0
M  V30 753 H 66.0805 -3.49413 -1.94295 0
M  V30 754 H 67.5205 -3.09227 -2.90094 0
M  V30 755 C 65.9795 -1.60723 -2.96091 0
M  V30 756 O 66.5095 -1.01449 -3.88679 0
M  V30 757 N 64.7155 -1.32466 -2.58652 0
M  V30 758 H 64.2625 -1.80856 -1.83437 0
M  V30 759 H 64.2205 -0.61325 -3.08361 0
M  V30 760 N 67.9926 0.231505 -1.5589 0
M  V30 761 C 69.2696 0.981096 -1.69215 0
M  V30 762 C 69.6496 2.02799 -0.586164 0
M  V30 763 O 68.9976 2.24823 0.408253 0
M  V30 764 C 69.2076 1.60054 -3.10135 0
M  V30 765 C 70.5556 2.09658 -3.69227 0
M  V30 766 O 71.5796 1.69967 -3.13033 0
M  V30 767 O 70.4386 2.8258 -4.67772 0
M  V30 768 H 67.5326 0.457653 -0.688827 0
M  V30 769 H 70.0786 0.224073 -1.68214 0
M  V30 770 H 68.8506 0.844105 -3.82087 0
M  V30 771 H 68.4736 2.42336 -3.15212 0
M  V30 772 N 69.4707 1.49531 0.497807 0
M  V30 773 C 70.4007 1.6935 1.60757 0
M  V30 774 C 71.3817 0.542218 1.61227 0
M  V30 775 O 72.5667 0.778417 1.77917 0
M  V30 776 C 69.6967 1.76298 2.99226 0
M  V30 777 C 68.6507 2.91248 3.13622 0
M  V30 778 C 67.9767 2.83312 4.53474 0
M  V30 779 C 69.2767 4.3214 2.93346 0
M  V30 780 H 70.9707 2.62263 1.44425 0
M  V30 781 H 68.5167 1.26208 0.693367 0
M  V30 782 H 70.4697 1.88749 3.76765 0
M  V30 783 H 69.1937 0.799871 3.16654 0
M  V30 784 H 67.8527 2.78404 2.38509 0
M  V30 785 H 67.5007 1.84902 4.67782 0
M  V30 786 H 67.2007 3.60465 4.64046 0
M  V30 787 H 68.7247 2.97775 5.33069 0
M  V30 788 H 70.1387 4.45649 3.60652 0
M  V30 789 H 68.5357 5.1054 3.15387 0
M  V30 790 H 69.6057 4.46363 1.89441 0
M  V30 791 N 70.9488 -0.749086 1.3866 0
M  V30 792 C 72.3598 -1.32664 1.31366 0
M  V30 793 C 72.7108 -1.96179 -0.028484 0
M  V30 794 O 71.8358 -1.9537 -0.93057 0
M  V30 795 C 72.4308 -2.41219 2.37905 0
M  V30 796 C 70.9898 -2.94684 2.34176 0
M  V30 797 C 70.1368 -1.68108 2.20533 0
M  V30 798 H 73.0878 -0.547628 1.48952 0
M  V30 799 H 73.1088 -3.21268 2.0388 0
M  V30 800 H 72.6208 -1.94962 3.35576 0
M  V30 801 H 70.7218 -3.45258 1.401 0
M  V30 802 H 70.8348 -3.48757 3.2849 0
M  V30 803 H 69.1988 -1.91907 1.67463 0
M  V30 804 H 69.9818 -1.23923 3.20153 0
M  V30 805 N 72.4269 -1.23603 -0.977757 0
M  V30 806 C 73.6519 -1.09735 -1.75991 0
M  V30 807 C 74.0769 0.346858 -1.84874 0
M  V30 808 O 73.4349 1.25093 -1.3123 0
M  V30 809 C 73.4829 -1.73051 -3.16363 0
M  V30 810 O 72.5869 -0.994452 -4.0023 0
M  V30 811 H 71.9279 -0.384476 -0.541364 0
M  V30 812 H 74.4579 -1.6371 -1.2272 0
M  V30 813 H 74.4679 -1.78398 -3.66931 0
M  V30 814 H 73.1429 -2.78137 -3.09213 0
M  V30 815 H 71.7199 -1.01812 -3.58732 0
M  V30 816 N 73.905 1.17692 -1.04816 0
M  V30 817 C 75.151 1.88389 -0.766892 0
M  V30 818 C 75.506 1.79282 0.698269 0
M  V30 819 O 74.799 1.18739 1.50372 0
M  V30 820 C 74.993 3.37462 -1.17703 0
M  V30 821 C 74.822 3.6108 -2.68051 0
M  V30 822 C 73.592 3.78018 -3.35307 0
M  V30 823 C 75.79 3.61039 -3.66273 0
M  V30 824 N 73.772 3.89444 -4.74559 0
M  V30 825 C 75.143 3.78269 -4.91235 0
M  V30 826 C 77.198 3.44168 -3.59796 0
M  V30 827 C 75.901 3.80376 -6.10497 0
M  V30 828 C 77.927 3.4756 -4.78493 0
M  V30 829 C 77.289 3.65295 -6.02278 0
M  V30 830 H 73.388 0.707651 -0.332798 0
M  V30 831 H 75.972 1.41314 -1.33934 0
M  V30 832 H 74.143 3.83214 -0.63257 0
M  V30 833 H 75.875 3.95759 -0.845989 0
M  V30 834 H 72.63 3.77714 -2.85708 0
M  V30 835 H 73.054 3.98962 -5.46954 0
M  V30 836 H 77.696 3.29396 -2.65062 0
M  V30 837 H 75.414 3.93933 -7.05579 0
M  V30 838 H 79 3.3577 -4.75131 0
M  V30 839 H 77.88 3.6782 -6.92588 0
M  V30 840 N 75.3831 0.828654 1.34056 0
M  V30 841 C 76.6311 0.41863 1.97717 0
M  V30 842 C 76.9521 -1.02314 1.66002 0
M  V30 843 O 76.2221 -1.71119 0.953683 0
M  V30 844 H 74.8021 0.151809 0.731412 0
M  V30 845 H 77.4641 1.05936 1.63596 0
M  V30 846 H 76.5601 0.542318 3.07352 0
M  V30 847 N 76.8612 -1.46375 0.584142 0
M  V30 848 C 78.0892 -2.06761 0.0759296 0
M  V30 849 C 78.5042 -1.43266 -1.22965 0
M  V30 850 O 77.8612 -0.538458 -1.74376 0
M  V30 851 C 77.9122 -3.61375 -0.0950384 0
M  V30 852 O 77.6332 -4.22495 1.15887 0
M  V30 853 C 79.1342 -4.38693 -0.637434 0
M  V30 854 H 76.3542 -0.668479 0.0581075 0
M  V30 855 H 78.8982 -1.8798 0.805218 0
M  V30 856 H 77.0532 -3.79578 -0.774554 0
M  V30 857 H 77.4672 -5.15385 0.973598 0
M  V30 858 H 78.9412 -5.47464 -0.706237 0
M  V30 859 H 79.4182 -4.06836 -1.65472 0
M  V30 860 H 80.0242 -4.25299 0.00725967 0
M  V30 861 N 78.3393 -0.321999 -1.54275 0
M  V30 862 C 79.2693 0.537411 -2.27231 0
M  V30 863 C 80.2503 1.12064 -1.27968 0
M  V30 864 O 81.4353 1.14606 -1.56777 0
M  V30 865 C 78.5653 1.69919 -3.02894 0
M  V30 866 C 77.5193 1.24534 -4.09482 0
M  V30 867 C 76.8453 2.49394 -4.72977 0
M  V30 868 C 78.1453 0.361335 -5.21049 0
M  V30 869 H 79.8393 -0.0711406 -2.99315 0
M  V30 870 H 77.3853 -0.0356555 -1.43956 0
M  V30 871 H 79.3383 2.30668 -3.52662 0
M  V30 872 H 78.0623 2.33431 -2.28424 0
M  V30 873 H 76.7213 0.660782 -3.60596 0
M  V30 874 H 76.3693 3.11265 -3.95124 0
M  V30 875 H 76.0693 2.19718 -5.44975 0
M  V30 876 H 77.5933 3.10908 -5.25517 0
M  V30 877 H 79.0073 0.875072 -5.66582 0
M  V30 878 H 77.4043 0.157428 -5.99893 0
M  V30 879 H 78.4743 -0.60822 -4.8107 0
M  V30 880 N 79.8174 1.5752 -0.0501392 0
M  V30 881 C 81.0454 1.96963 0.633492 0
M  V30 882 C 81.4604 0.927631 1.6444 0
M  V30 883 O 80.8174 -0.0882665 1.82286 0
M  V30 884 C 80.8684 3.36487 1.32132 0
M  V30 885 O 80.5894 4.36693 0.350894 0
M  V30 886 C 82.0904 3.90682 2.09481 0
M  V30 887 H 79.3104 0.648244 0.173266 0
M  V30 888 H 81.8544 2.0417 -0.116134 0
M  V30 889 H 80.0094 3.30434 2.02218 0
M  V30 890 H 80.4234 5.17702 0.841735 0
M  V30 891 H 81.8974 4.90591 2.5303 0
M  V30 892 H 82.3744 3.26053 2.94255 0
M  V30 893 H 82.9804 4.00069 1.44307 0
M  V30 894 N 81.2955 -0.223234 1.56011 0
M  V30 895 C 82.2585 -1.26014 1.9145 0
M  V30 896 C 83.2585 -1.3989 0.792937 0
M  V30 897 O 84.4485 -1.38184 1.0607 0
M  V30 898 C 81.5805 -2.63422 2.16383 0
M  V30 899 H 82.7735 -0.95796 2.84189 0
M  V30 900 H 80.3265 -0.463576 1.49267 0
M  V30 901 H 81.0615 -2.98741 1.2619 0
M  V30 902 H 80.8465 -2.54728 2.98088 0
M  V30 903 H 82.3365 -3.38249 2.44903 0
M  V30 904 N 82.7736 -1.49793 -0.48987 0
M  V30 905 C 83.9986 -1.63836 -1.27172 0
M  V30 906 C 84.4236 -0.31402 -1.8546 0
M  V30 907 O 83.7816 0.719803 -1.66399 0
M  V30 908 C 83.8296 -2.71797 -2.36978 0
M  V30 909 O 82.9336 -2.31744 -3.41128 0
M  V30 910 H 82.2746 -0.547997 -0.37496 0
M  V30 911 H 84.8046 -1.96053 -0.585191 0
M  V30 912 H 84.8146 -2.94305 -2.82575 0
M  V30 913 H 83.4896 -3.67923 -1.93921 0
M  V30 914 H 82.0666 -2.1961 -3.01373 0
M  V30 915 N 84.2517 0.741722 -1.39055 0
M  V30 916 C 85.1617 1.88621 -1.39496 0
M  V30 917 C 86.1777 1.71557 -0.290578 0
M  V30 918 O 87.3537 1.94275 -0.530954 0
M  V30 919 C 84.4187 3.24134 -1.23037 0
M  V30 920 C 83.4797 3.5364 -2.43387 0
M  V30 921 C 82.7127 4.82687 -2.27703 0
M  V30 922 O 82.9357 5.55922 -1.27696 0
M  V30 923 O 81.8697 5.1194 -3.16545 0
M  V30 924 H 85.6957 1.91203 -2.35956 0
M  V30 925 H 83.2807 0.888625 -1.20099 0
M  V30 926 H 85.1627 4.0513 -1.15964 0
M  V30 927 H 83.8377 3.22337 -0.296691 0
M  V30 928 H 82.7447 2.72758 -2.56035 0
M  V30 929 H 84.0777 3.60209 -3.35425 0
M  V30 930 N 85.7298 1.2412 0.971189 0
M  V30 931 C 86.6768 1.0305 2.06517 0
M  V30 932 C 87.6468 -0.0550666 1.66009 0
M  V30 933 O 88.8318 0.0988688 1.90544 0
M  V30 934 C 85.9718 0.637653 3.39158 0
M  V30 935 C 85.0848 1.79633 3.92882 0
M  V30 936 C 84.2198 1.34939 5.13775 0
M  V30 937 C 83.2588 2.47823 5.59687 0
M  V30 938 N 82.3958 2.04022 6.71803 0
M  V30 939 H 87.2358 1.96685 2.23873 0
M  V30 940 H 84.7728 0.979694 1.09729 0
M  V30 941 H 86.7308 0.390931 4.15364 0
M  V30 942 H 85.3608 -0.261693 3.21737 0
M  V30 943 H 84.4128 2.15681 3.13346 0
M  V30 944 H 85.7248 2.64466 4.22918 0
M  V30 945 H 84.8788 1.06134 5.97345 0
M  V30 946 H 83.6178 0.471557 4.85415 0
M  V30 947 H 82.6228 2.77392 4.74693 0
M  V30 948 H 83.8478 3.36158 5.90063 0
M  V30 949 H 81.7938 1.18632 6.45184 0
M  V30 950 H 81.7108 2.82409 7.01271 0
M  V30 951 H 82.9788 1.78347 7.58823 0
M  V30 952 N 87.2079 -1.17134 1.05439 0
M  V30 953 C 88.1399 -2.2078 0.615539 0
M  V30 954 C 89.1529 -1.59584 -0.322001 0
M  V30 955 O 90.3419 -1.78133 -0.114344 0
M  V30 956 C 87.4419 -3.38691 -0.118938 0
M  V30 957 C 86.6149 -4.29454 0.829924 0
M  V30 958 C 85.6739 -5.26024 0.136258 0
M  V30 959 O 84.6999 -5.63952 0.77115 0
M  V30 960 N 85.9019 -5.69487 -1.1254 0
M  V30 961 H 88.6669 -2.59052 1.50705 0
M  V30 962 H 86.2279 -1.32058 0.936603 0
M  V30 963 H 88.2199 -4.00329 -0.593179 0
M  V30 964 H 86.7899 -2.98996 -0.91215 0
M  V30 965 H 86.0099 -3.65211 1.48373 0
M  V30 966 H 87.2979 -4.86984 1.47392 0
M  V30 967 H 86.6959 -5.4075 -1.6615 0
M  V30 968 H 85.2529 -6.33257 -1.54366 0
M  V30 969 N 88.686 -0.835752 -1.33615 0
M  V30 970 C 89.616 -0.281739 -2.31794 0
M  V30 971 C 90.597 0.608833 -1.58831 0
M  V30 972 O 91.782 0.533035 -1.86741 0
M  V30 973 C 88.912 0.546612 -3.42971 0
M  V30 974 C 87.866 -0.247904 -4.27281 0
M  V30 975 C 87.192 0.704001 -5.30045 0
M  V30 976 C 88.492 -1.46324 -5.01385 0
M  V30 977 H 90.186 -1.10206 -2.78379 0
M  V30 978 H 87.732 -0.531388 -1.33837 0
M  V30 979 H 89.685 0.944467 -4.1068 0
M  V30 980 H 88.409 1.40011 -2.95067 0
M  V30 981 H 87.068 -0.627281 -3.61194 0
M  V30 982 H 86.716 1.55381 -4.78399 0
M  V30 983 H 86.416 0.176524 -5.87335 0
M  V30 984 H 87.94 1.09944 -6.0062 0
M  V30 985 H 89.354 -1.13871 -5.61877 0
M  V30 986 H 87.751 -1.92728 -5.6831 0
M  V30 987 H 88.821 -2.23467 -4.30338 0
M  V30 988 N 90.1641 1.46063 -0.591896 0
M  V30 989 C 91.3921 2.06717 -0.0868936 0
M  V30 990 C 91.8071 1.43916 1.22203 0
M  V30 991 O 91.1641 0.547698 1.74088 0
M  V30 992 C 91.2151 3.6142 0.0758725 0
M  V30 993 O 90.9361 4.21874 -1.18126 0
M  V30 994 C 92.4371 4.39025 0.61416 0
M  V30 995 H 89.6571 0.668162 -0.0616518 0
M  V30 996 H 92.2011 1.8755 -0.815175 0
M  V30 997 H 90.3561 3.79983 0.754413 0
M  V30 998 H 90.7701 5.14861 -1.00092 0
M  V30 999 H 92.2441 5.4783 0.677193 0
M  V30 1000 H 92.7211 4.07708 1.63312 0
M  V30 1001 H 93.3271 4.2529 -0.0298142 0
M  V30 1002 N 91.6422 0.330177 1.54103 0
M  V30 1003 C 92.5752 -0.575477 2.20825 0
M  V30 1004 C 93.5532 -1.11064 1.18758 0
M  V30 1005 O 94.7372 -1.17341 1.47524 0
M  V30 1006 C 91.8642 -1.79032 2.87516 0
M  V30 1007 C 90.9102 -1.38581 4.03358 0
M  V30 1008 S 91.7432 -0.416911 5.33875 0
M  V30 1009 C 92.8992 -1.63889 6.04062 0
M  V30 1010 H 93.1322 -0.00872114 2.97299 0
M  V30 1011 H 90.6652 0.114254 1.53977 0
M  V30 1012 H 92.6232 -2.48734 3.2656 0
M  V30 1013 H 91.2842 -2.32827 2.10832 0
M  V30 1014 H 90.4772 -2.29123 4.48908 0
M  V30 1015 H 90.0792 -0.768419 3.66021 0
M  V30 1016 H 92.3712 -2.57536 6.26643 0
M  V30 1017 H 93.3142 -1.22542 6.97416 0
M  V30 1018 H 93.7222 -1.82887 5.34053 0
M  V30 1019 N 93.1203 -1.57491 0.0584922 0
M  V30 1020 C 94.5363 -1.56792 -0.298091 0
M  V30 1021 C 94.7363 -1.06679 -1.70944 0
M  V30 1022 O 93.7923 -0.726672 -2.41818 0
M  V30 1023 C 95.1053 -3.00461 -0.119879 0
M  V30 1024 C 96.6533 -3.1242 -0.190428 0
M  V30 1025 C 97.1283 -4.57982 -0.0406567 0
M  V30 1026 N 98.6193 -4.63099 -0.0966958 0
M  V30 1027 C 99.3543 -5.734 -0.00502943 0
M  V30 1028 N 98.8503 -6.9266 0.139402 0
M  V30 1029 N 100.643 -5.62067 -0.0611391 0
M  V30 1030 H 92.7943 -1.88386 0.98105 0
M  V30 1031 H 95.0573 -0.867865 0.381463 0
M  V30 1032 H 94.7633 -3.41187 0.85349 0
M  V30 1033 H 94.6373 -3.66843 -0.877833 0
M  V30 1034 H 97.0243 -2.71589 -1.15427 0
M  V30 1035 H 97.1053 -2.48702 0.598405 0
M  V30 1036 H 96.7493 -4.995 0.919897 0
M  V30 1037 H 96.6793 -5.19715 -0.848727 0
M  V30 1038 H 99.1703 -3.77331 -0.207277 0
M  V30 1039 H 99.4833 -7.72536 0.201855 0
M  V30 1040 H 97.8283 -6.94781 0.174586 0
M  V30 1041 H 101.019 -4.67782 -0.172583 0
M  V30 1042 H 101.192 -6.47999 0.0137562 0
M  V30 1043 N 94.5984 0.214957 -1.56127 0
M  V30 1044 C 95.8444 0.939762 -1.79712 0
M  V30 1045 C 96.1774 1.83723 -0.629247 0
M  V30 1046 O 95.4524 1.90925 0.371197 0
M  V30 1047 C 95.7354 1.77306 -3.13424 0
M  V30 1048 C 95.5884 0.90164 -4.40671 0
M  V30 1049 C 96.9074 2.74956 -3.43638 0
M  V30 1050 H 94.0264 0.340214 -0.653776 0
M  V30 1051 H 96.6684 0.20824 -1.88855 0
M  V30 1052 H 94.8184 2.39673 -3.0576 0
M  V30 1053 H 96.4904 0.294206 -4.60361 0
M  V30 1054 H 94.7334 0.207368 -4.33304 0
M  V30 1055 H 95.4044 1.51923 -5.30682 0
M  V30 1056 H 97.8804 2.22724 -3.51473 0
M  V30 1057 H 96.7564 3.30358 -4.38355 0
M  V30 1058 H 97.0174 3.53023 -2.66134 0
M  V30 1059 N 96.0765 1.50051 0.48192 0
M  V30 1060 C 97.3235 1.60498 1.23477 0
M  V30 1061 C 97.6515 0.300331 1.92167 0
M  V30 1062 O 96.9065 -0.713094 1.82246 0
M  V30 1063 C 97.2055 2.72717 2.30998 0
M  V30 1064 C 96.8715 4.13572 1.79636 0
M  V30 1065 C 95.5335 4.519 1.65348 0
M  V30 1066 C 97.8855 5.01649 1.41412 0
M  V30 1067 C 95.2135 5.76057 1.11244 0
M  V30 1068 C 97.5655 6.26343 0.887538 0
M  V30 1069 C 96.2295 6.63483 0.731207 0
M  V30 1070 H 95.4995 0.587303 0.451836 0
M  V30 1071 H 98.1465 1.83948 0.532468 0
M  V30 1072 H 96.4515 2.43312 3.07094 0
M  V30 1073 H 98.1485 2.78006 2.88988 0
M  V30 1074 H 94.7385 3.83329 1.91721 0
M  V30 1075 H 98.9225 4.72679 1.51289 0
M  V30 1076 H 94.1785 6.03516 0.978686 0
M  V30 1077 H 98.3525 6.93958 0.582654 0
M  V30 1078 H 95.9795 7.59568 0.309806 0
M  V30 1079 N 97.5546 -0.734337 1.39446 0
M  V30 1080 C 98.7826 -1.52358 1.39981 0
M  V30 1081 C 99.1976 -1.88799 -0.0054975 0
M  V30 1082 O 98.5546 -1.54146 -0.976998 0
M  V30 1083 C 98.6056 -2.81072 2.27333 0
M  V30 1084 O 98.3266 -2.46178 3.62392 0
M  V30 1085 C 99.8276 -3.75096 2.36259 0
M  V30 1086 H 97.0476 -0.470806 0.478103 0
M  V30 1087 H 99.5916 -0.907339 1.83269 0
M  V30 1088 H 97.7466 -3.39026 1.87457 0
M  V30 1089 H 98.1606 -3.28866 4.08592 0
M  V30 1090 H 99.6346 -4.62305 3.01626 0
M  V30 1091 H 100.112 -4.16892 1.38194 0
M  V30 1092 H 100.718 -3.23061 2.76608 0
M  V30 1093 N 99.0327 -1.24633 -0.964593 0
M  V30 1094 C 100.281 -1.08573 -1.70459 0
M  V30 1095 C 100.602 0.375655 -1.91347 0
M  V30 1096 O 99.8717 1.26779 -1.49345 0
M  V30 1097 H 98.4517 -0.398784 -0.631649 0
M  V30 1098 H 101.114 -1.56601 -1.16026 0
M  V30 1099 H 100.21 -1.58623 -2.68785 0
M  V30 1100 N 100.511 1.16574 -1.06058 0
M  V30 1101 C 101.441 2.23057 -0.690488 0
M  V30 1102 C 102.422 1.67141 0.315901 0
M  V30 1103 O 103.607 1.93253 0.191556 0
M  V30 1104 C 100.737 3.47222 -0.073625 0
M  V30 1105 C 99.6908 4.16016 -1.00573 0
M  V30 1106 C 99.0168 5.34104 -0.252289 0
M  V30 1107 C 100.317 4.67264 -2.33371 0
M  V30 1108 H 102.011 2.54271 -1.58072 0
M  V30 1109 H 99.5568 1.22218 -0.76149 0
M  V30 1110 H 101.51 4.20939 0.19714 0
M  V30 1111 H 100.234 3.15302 0.85161 0
M  V30 1112 H 98.8928 3.44223 -1.2612 0
M  V30 1113 H 98.5408 4.98437 0.675988 0
M  V30 1114 H 98.2408 5.81072 -0.873455 0
M  V30 1115 H 99.7648 6.10599 0.0109857 0
M  V30 1116 H 101.179 5.32573 -2.12223 0
M  V30 1117 H 99.5758 5.24843 -2.90963 0
M  V30 1118 H 100.646 3.83602 -2.96611 0
M  V30 1119 N 101.989 0.842826 1.3317 0
M  V30 1120 C 103.217 0.454055 2.01856 0
M  V30 1121 C 103.632 -0.94587 1.63397 0
M  V30 1122 O 102.989 -1.61534 0.849302 0
M  V30 1123 C 103.04 0.569715 3.56982 0
M  V30 1124 O 102.761 1.91448 3.94055 0
M  V30 1125 C 104.262 0.178412 4.42941 0
M  V30 1126 H 101.482 0.17979 0.646465 0
M  V30 1127 H 104.026 1.1365 1.70012 0
M  V30 1128 H 102.181 -0.0648587 3.87346 0
M  V30 1129 H 102.595 1.90282 4.88767 0
M  V30 1130 H 104.069 0.310376 5.51127 0
M  V30 1131 H 104.546 -0.880056 4.30293 0
M  V30 1132 H 105.152 0.787579 4.17944 0
M  V30 1133 N 103.467 -1.45747 0.599634 0
M  V30 1134 C 104.397 -2.33235 -0.111306 0
M  V30 1135 C 105.378 -1.46359 -0.866781 0
M  V30 1136 O 106.563 -1.75146 -0.838904 0
M  V30 1137 C 103.693 -3.28932 -1.11451 0
M  V30 1138 C 102.647 -4.25381 -0.472772 0
M  V30 1139 C 101.973 -5.1071 -1.58365 0
M  V30 1140 C 103.273 -5.18831 0.600948 0
M  V30 1141 H 104.967 -2.92927 0.61919 0
M  V30 1142 H 102.513 -1.40857 0.299215 0
M  V30 1143 H 104.466 -3.89002 -1.62036 0
M  V30 1144 H 103.19 -2.67381 -1.8755 0
M  V30 1145 H 101.849 -3.66598 0.0121472 0
M  V30 1146 H 101.497 -4.45533 -2.33473 0
M  V30 1147 H 101.197 -5.7604 -1.15982 0
M  V30 1148 H 102.721 -5.73647 -2.09194 0
M  V30 1149 H 104.135 -5.73019 0.179491 0
M  V30 1150 H 102.532 -5.92595 0.946076 0
M  V30 1151 H 103.602 -4.6174 1.48068 0
M  V30 1152 N 104.945 -0.338344 -1.53925 0
M  V30 1153 C 105.875 0.51328 -2.27789 0
M  V30 1154 C 106.856 1.107 -1.29149 0
M  V30 1155 O 108.041 1.12937 -1.57984 0
M  V30 1156 C 105.171 1.66697 -3.04679 0
M  V30 1157 C 104.125 1.20183 -4.1078 0
M  V30 1158 C 103.451 2.44363 -4.75595 0
M  V30 1159 C 104.751 0.30605 -5.21403 0
M  V30 1160 H 106.445 -0.102883 -2.99223 0
M  V30 1161 H 103.991 -0.0509219 -1.4391 0
M  V30 1162 H 105.944 2.26915 -3.55088 0
M  V30 1163 H 104.668 2.30995 -2.30887 0
M  V30 1164 H 103.327 0.622499 -3.61276 0
M  V30 1165 H 102.975 3.07057 -3.98403 0
M  V30 1166 H 102.675 2.13925 -5.47275 0
M  V30 1167 H 104.199 3.05317 -5.28786 0
M  V30 1168 H 105.613 0.814929 -5.67478 0
M  V30 1169 H 104.01 0.0937929 -6.00027 0
M  V30 1170 H 105.08 -0.65921 -4.80398 0
M  V30 1171 N 106.423 1.57458 -0.0668435 0
M  V30 1172 C 107.7 1.8469 0.644132 0
M  V30 1173 C 108.08 0.958343 1.88093 0
M  V30 1174 O 107.428 0.0233579 2.28488 0
M  V30 1175 C 107.638 3.34767 0.986509 0
M  V30 1176 C 108.986 4.02159 1.36212 0
M  V30 1177 O 110.01 3.39484 1.07839 0
M  V30 1178 O 108.869 5.12694 1.89227 0
M  V30 1179 H 105.963 0.762816 0.319437 0
M  V30 1180 H 108.509 1.6942 -0.0973986 0
M  V30 1181 H 107.281 3.91151 0.107883 0
M  V30 1182 H 106.904 3.55281 1.78497 0
M  V30 1183 N 107.901 -0.206675 1.56239 0
M  V30 1184 C 109.129 -0.945345 1.8404 0
M  V30 1185 C 109.544 -1.77336 0.647885 0
M  V30 1186 O 108.901 -1.78425 -0.383511 0
M  V30 1187 C 108.952 -1.8509 3.10522 0
M  V30 1188 O 108.673 -1.05634 4.25174 0
M  V30 1189 C 110.174 -2.70222 3.51418 0
M  V30 1190 H 107.394 -0.276372 0.61144 0
M  V30 1191 H 109.938 -0.217417 2.03341 0
M  V30 1192 H 108.093 -2.53259 2.93153 0
M  V30 1193 H 108.507 -1.67238 4.97124 0
M  V30 1194 H 109.981 -3.29438 4.42916 0
M  V30 1195 H 110.458 -3.43358 2.73864 0
M  V30 1196 H 111.064 -2.07443 3.71278 0
M  V30 1197 N 109.379 -1.50304 -0.473955 0
M  V30 1198 C 110.628 -1.60392 -1.22301 0
M  V30 1199 C 110.941 -0.308411 -1.93153 0
M  V30 1200 O 112.147 -0.288156 -2.69966 0
M  V30 1201 C 110.603 -2.83109 -2.2221 0
M  V30 1202 C 110.211 -4.19524 -1.57173 0
M  V30 1203 C 111.955 -3.0254 -2.97775 0
M  V30 1204 C 109.862 -5.33431 -2.55353 0
M  V30 1205 H 108.792 -0.597286 -0.460179 0
M  V30 1206 H 111.443 -1.76731 -0.493803 0
M  V30 1207 H 109.825 -2.60322 -2.9841 0
M  V30 1208 H 110.999 -4.52554 -0.867824 0
M  V30 1209 H 109.314 -4.05674 -0.939002 0
M  V30 1210 H 111.911 -3.84811 -3.71248 0
M  V30 1211 H 112.254 -2.14154 -3.56992 0
M  V30 1212 H 112.787 -3.25494 -2.28688 0
M  V30 1213 H 109.526 -6.23962 -2.00878 0
M  V30 1214 H 109.046 -5.04823 -3.23904 0
M  V30 1215 H 110.725 -5.63887 -3.17239 0
M  V30 1216 N 110.857 0.726932 -1.39834 0
M  V30 1217 C 111.789 1.85147 -1.35104 0
M  V30 1218 C 112.802 1.60736 -0.258392 0
M  V30 1219 O 113.991 1.70821 -0.517931 0
M  V30 1220 C 111.091 3.21332 -1.07697 0
M  V30 1221 C 110.264 3.73033 -2.28396 0
M  V30 1222 C 109.323 4.87802 -1.97322 0
M  V30 1223 O 108.349 5.01043 -2.70083 0
M  V30 1224 N 109.551 5.72768 -0.944273 0
M  V30 1225 H 112.316 1.89706 -2.32017 0
M  V30 1226 H 109.877 0.908006 -1.3404 0
M  V30 1227 H 111.869 3.95691 -0.849144 0
M  V30 1228 H 110.439 3.11992 -0.194909 0
M  V30 1229 H 109.659 2.89934 -2.6708 0
M  V30 1230 H 110.947 4.0431 -3.08887 0
M  V30 1231 H 110.345 5.64669 -0.341427 0
M  V30 1232 H 108.902 6.4716 -0.776346 0
M  V30 1233 N 112.336 1.25143 0.95797 0
M  V30 1234 C 113.584 1.09476 1.69881 0
M  V30 1235 C 113.905 -0.365502 1.91544 0
M  V30 1236 O 113.175 -1.25985 1.50015 0
M  V30 1237 H 111.755 0.402128 0.629525 0
M  V30 1238 H 114.417 1.57214 1.15194 0
M  V30 1239 H 113.513 1.60046 2.6794 0
M  V30 1240 N 113.814 -1.1601 1.06675 0
M  V30 1241 C 115.042 -1.90527 0.806667 0
M  V30 1242 C 115.457 -1.77643 -0.639396 0
M  V30 1243 O 114.814 -1.12369 -1.43803 0
M  V30 1244 C 114.865 -3.41106 1.19705 0
M  V30 1245 O 114.586 -3.53608 2.58636 0
M  V30 1246 C 116.087 -4.32663 0.965266 0
M  V30 1247 H 113.307 -0.604053 0.292166 0
M  V30 1248 H 115.851 -1.47026 1.4214 0
M  V30 1249 H 114.006 -3.82296 0.626774 0
M  V30 1250 H 114.42 -4.47011 2.74375 0
M  V30 1251 H 115.894 -5.36763 1.288 0
M  V30 1252 H 116.371 -4.39089 -0.0987936 0
M  V30 1253 H 116.977 -3.97206 1.52011 0
M  V30 1254 N 115.292 -0.849877 -1.32721 0
M  V30 1255 C 116.538 -0.451591 -1.97708 0
M  V30 1256 C 116.871 0.989175 -1.6712 0
M  V30 1257 O 116.146 1.69334 -0.956891 0
M  V30 1258 C 116.429 -0.685598 -3.53513 0
M  V30 1259 C 116.282 -2.17444 -3.93749 0
M  V30 1260 C 117.601 -0.138874 -4.39881 0
M  V30 1261 H 114.72 -0.16555 -0.718166 0
M  V30 1262 H 117.362 -1.06742 -1.57182 0
M  V30 1263 H 115.512 -0.161416 -3.88165 0
M  V30 1264 H 117.184 -2.76433 -3.693 0
M  V30 1265 H 115.427 -2.65476 -3.43081 0
M  V30 1266 H 116.098 -2.28888 -5.02309 0
M  V30 1267 H 118.574 -0.587068 -4.11938 0
M  V30 1268 H 117.45 -0.332213 -5.47894 0
M  V30 1269 H 117.711 0.95806 -4.31594 0
M  V30 1270 N 116.77 1.45427 -0.607355 0
M  V30 1271 C 118.018 2.01841 -0.102253 0
M  V30 1272 C 118.339 1.47832 1.27164 0
M  V30 1273 O 117.609 0.672497 1.83995 0
M  V30 1274 H 116.189 0.746188 -0.0348101 0
M  V30 1275 H 118.851 1.78229 -0.7887 0
M  V30 1276 H 117.947 3.12057 -0.0518585 0
M  V30 1277 N 118.248 0.346503 1.53744 0
M  V30 1278 C 119.211 -0.496439 2.23759 0
M  V30 1279 C 120.211 -1.0252 1.2388 0
M  V30 1280 O 121.401 -0.913974 1.48297 0
M  V30 1281 C 118.533 -1.69187 2.95954 0
M  V30 1282 H 119.726 0.115952 2.99676 0
M  V30 1283 H 117.279 0.0978939 1.55993 0
M  V30 1284 H 118.014 -2.34288 2.24231 0
M  V30 1285 H 117.799 -1.31989 3.69217 0
M  V30 1286 H 119.289 -2.28969 3.49232 0
M  V30 1287 N 119.726 -1.57421 0.075193 0
M  V30 1288 C 120.972 -1.93905 -0.594025 0
M  V30 1289 C 121.305 -0.955701 -1.69056 0
M  V30 1290 O 120.58 0.0145373 -1.94495 0
M  V30 1291 C 120.863 -3.40638 -1.1678 0
M  V30 1292 C 120.716 -4.49733 -0.0776792 0
M  V30 1293 C 122.035 -3.88259 -2.07228 0
M  V30 1294 H 119.154 -0.705105 -0.214466 0
M  V30 1295 H 121.796 -1.8947 0.141854 0
M  V30 1296 H 119.946 -3.44549 -1.79494 0
M  V30 1297 H 121.618 -4.57942 0.555573 0
M  V30 1298 H 119.861 -4.29751 0.591286 0
M  V30 1299 H 120.532 -5.49549 -0.519603 0
M  V30 1300 H 123.008 -3.86376 -1.54445 0
M  V30 1301 H 121.884 -4.91533 -2.44308 0
M  V30 1302 H 122.145 -3.26396 -2.98191 0
M  V30 1303 N 121.204 0.198386 -1.56346 0
M  V30 1304 C 122.429 0.939682 -1.84891 0
M  V30 1305 C 122.854 1.76202 -0.658369 0
M  V30 1306 O 122.212 1.76993 0.392851 0
M  V30 1307 C 122.26 1.81428 -3.11635 0
M  V30 1308 O 121.364 2.91265 -2.91956 0
M  V30 1309 H 120.705 0.264807 -0.608912 0
M  V30 1310 H 123.235 0.204695 -2.03573 0
M  V30 1311 H 123.245 2.21958 -3.42343 0
M  V30 1312 H 121.92 1.21004 -3.97908 0
M  V30 1313 H 120.497 2.54514 -2.72538 0
M  V30 1314 N 122.682 1.50554 0.465978 0
M  V30 1315 C 123.612 1.72722 1.57128 0
M  V30 1316 C 124.593 0.576294 1.6004 0
M  V30 1317 O 125.778 0.81598 1.76225 0
M  V30 1318 C 122.908 1.82605 2.95419 0
M  V30 1319 C 121.862 2.97835 3.07373 0
M  V30 1320 C 121.188 2.92867 4.47363 0
M  V30 1321 C 122.488 4.38265 2.84114 0
M  V30 1322 H 124.182 2.65267 1.38829 0
M  V30 1323 H 121.728 1.2765 0.666441 0
M  V30 1324 H 123.681 1.96698 3.72677 0
M  V30 1325 H 122.405 0.866858 3.14886 0
M  V30 1326 H 121.064 2.83401 2.3255 0
M  V30 1327 H 120.712 1.94783 4.63755 0
M  V30 1328 H 120.412 3.70227 4.56296 0
M  V30 1329 H 121.936 3.09015 5.26633 0
M  V30 1330 H 123.35 4.53198 3.51118 0
M  V30 1331 H 121.747 5.17115 3.04487 0
M  V30 1332 H 122.817 4.50281 1.7993 0
M  V30 1333 N 124.16 -0.719506 1.40217 0
M  V30 1334 C 125.409 -1.47486 1.37589 0
M  V30 1335 C 125.722 -1.9559 -0.0201568 0
M  V30 1336 O 126.928 -2.70973 -0.169049 0
M  V30 1337 C 125.384 -2.66575 2.41796 0
M  V30 1338 C 124.992 -2.25358 3.87192 0
M  V30 1339 C 126.736 -3.4433 2.48269 0
M  V30 1340 C 124.643 -3.41262 4.83005 0
M  V30 1341 H 123.573 -0.553901 0.511576 0
M  V30 1342 H 126.224 -0.783427 1.65936 0
M  V30 1343 H 124.606 -3.3787 2.06543 0
M  V30 1344 H 125.78 -1.61509 4.31569 0
M  V30 1345 H 124.095 -1.60657 3.84159 0
M  V30 1346 H 126.692 -4.30569 3.17041 0
M  V30 1347 H 127.035 -3.87872 1.51198 0
M  V30 1348 H 127.568 -2.80076 2.82493 0
M  V30 1349 H 124.307 -3.02755 5.81394 0
M  V30 1350 H 123.827 -4.0404 4.43297 0
M  V30 1351 H 125.506 -4.07383 5.02641 0
M  V30 1352 N 125.638 -1.25649 -0.95132 0
M  V30 1353 C 127.049 -1.09654 -1.51106 0
M  V30 1354 C 127.4 0.326615 -1.93462 0
M  V30 1355 O 126.525 1.21697 -1.78938 0
M  V30 1356 C 127.12 -1.98437 -2.74605 0
M  V30 1357 C 125.679 -1.86618 -3.2688 0
M  V30 1358 C 124.826 -1.9239 -1.99703 0
M  V30 1359 H 127.777 -1.38887 -0.767865 0
M  V30 1360 H 127.798 -1.5263 -3.48546 0
M  V30 1361 H 127.31 -3.02009 -2.43746 0
M  V30 1362 H 125.411 -0.859421 -3.62553 0
M  V30 1363 H 125.524 -2.71607 -3.94673 0
M  V30 1364 H 123.888 -1.36317 -2.15151 0
M  V30 1365 H 124.671 -2.97573 -1.71188 0
M  V30 1366 N 127.117 1.15442 -1.07289 0
M  V30 1367 C 128.394 1.82306 -0.708792 0
M  V30 1368 C 128.774 1.94991 0.808807 0
M  V30 1369 O 128.122 1.50085 1.72298 0
M  V30 1370 C 128.332 3.18695 -1.42247 0
M  V30 1371 C 129.68 3.94341 -1.57417 0
M  V30 1372 O 130.704 3.28247 -1.38319 0
M  V30 1373 O 129.563 5.12839 -1.88834 0
M  V30 1374 H 126.657 0.787628 -0.252132 0
M  V30 1375 H 129.203 1.22559 -1.17377 0
M  V30 1376 H 127.975 3.04557 -2.45684 0
M  V30 1377 H 127.598 3.86128 -0.948223 0
M  V30 1378 N 128.595 0.856903 1.32268 0
M  V30 1379 C 129.558 0.308171 2.27119 0
M  V30 1380 C 130.558 -0.533421 1.51695 0
M  V30 1381 O 131.748 -0.344607 1.70757 0
M  V30 1382 C 128.88 -0.563757 3.36206 0
M  V30 1383 H 130.073 1.14535 2.77167 0
M  V30 1384 H 127.626 0.631421 1.42978 0
M  V30 1385 H 128.361 -1.42266 2.91429 0
M  V30 1386 H 128.146 0.0386749 3.92081 0
M  V30 1387 H 129.636 -0.940386 4.06874 0
M  V30 1388 N 130.073 -1.45103 0.615059 0
M  V30 1389 C 131.003 -2.33339 -0.0865619 0
M  V30 1390 C 131.984 -1.4727 -0.851209 0
M  V30 1391 O 133.169 -1.76026 -0.820281 0
M  V30 1392 C 130.299 -3.30095 -1.07956 0
M  V30 1393 C 129.253 -4.25858 -0.427628 0
M  V30 1394 C 128.579 -5.12361 -1.5294 0
M  V30 1395 C 129.879 -5.18165 0.655944 0
M  V30 1396 H 131.573 -2.92254 0.650224 0
M  V30 1397 H 129.119 -1.40532 0.314138 0
M  V30 1398 H 131.072 -3.90698 -1.57901 0
M  V30 1399 H 129.796 -2.69355 -1.84703 0
M  V30 1400 H 128.455 -3.66564 0.0510292 0
M  V30 1401 H 128.103 -4.47984 -2.28734 0
M  V30 1402 H 127.803 -5.77238 -1.09865 0
M  V30 1403 H 129.327 -5.75833 -2.03098 0
M  V30 1404 H 130.741 -5.72796 0.240257 0
M  V30 1405 H 129.138 -5.91559 1.00888 0
M  V30 1406 H 130.208 -4.60144 1.52957 0
M  V30 1407 N 131.551 -0.354651 -1.53558 0
M  V30 1408 C 132.779 0.239515 -2.05509 0
M  V30 1409 C 133.194 1.4333 -1.2289 0
M  V30 1410 O 132.551 1.80538 -0.266899 0
M  V30 1411 C 132.602 0.643719 -3.55723 0
M  V30 1412 O 132.323 -0.502602 -4.35207 0
M  V30 1413 C 133.824 1.29743 -4.23889 0
M  V30 1414 H 131.044 0.0442697 -0.669538 0
M  V30 1415 H 133.588 -0.509856 -1.98042 0
M  V30 1416 H 131.743 1.34302 -3.63376 0
M  V30 1417 H 132.157 -0.178172 -5.24197 0
M  V30 1418 H 133.631 1.53091 -5.30346 0
M  V30 1419 H 134.108 2.25441 -3.76926 0
M  V30 1420 H 134.714 0.639865 -4.20459 0
M  V30 1421 N 133.029 1.57378 -0.0835403 0
M  V30 1422 C 134.44 1.81261 0.447358 0
M  V30 1423 C 134.791 0.998331 1.68902 0
M  V30 1424 O 133.916 0.224282 2.15235 0
M  V30 1425 C 134.511 3.28767 0.818386 0
M  V30 1426 C 133.07 3.53455 1.29409 0
M  V30 1427 C 132.217 2.75831 0.285024 0
M  V30 1428 H 135.168 1.5566 -0.309115 0
M  V30 1429 H 135.189 3.41459 1.67887 0
M  V30 1430 H 134.701 3.88006 -0.0855019 0
M  V30 1431 H 132.802 2.99534 2.21608 0
M  V30 1432 H 132.915 4.62128 1.2639 0
M  V30 1433 H 131.279 2.42947 0.764767 0
M  V30 1434 H 132.062 3.37813 -0.611341 0
M  V30 1435 N 134.507 -0.190092 1.56449 0
M  V30 1436 C 135.457 -1.23977 1.91347 0
M  V30 1437 C 136.441 -1.40747 0.779693 0
M  V30 1438 O 137.633 -1.43033 1.04262 0
M  V30 1439 C 134.762 -2.58347 2.26079 0
M  V30 1440 C 133.848 -2.4535 3.45925 0
M  V30 1441 N 134.239 -2.02039 4.63696 0
M  V30 1442 C 132.537 -2.76229 3.50162 0
M  V30 1443 C 133.238 -2.01053 5.4585 0
M  V30 1444 N 132.214 -2.42747 4.8639 0
M  V30 1445 H 136.016 -0.896318 2.79899 0
M  V30 1446 H 133.53 -0.398496 1.57435 0
M  V30 1447 H 135.527 -3.34173 2.49267 0
M  V30 1448 H 134.187 -2.93512 1.38856 0
M  V30 1449 H 135.198 -1.7267 4.88268 0
M  V30 1450 H 131.875 -3.15556 2.73369 0
M  V30 1451 H 133.265 -1.69426 6.50188 0
M  V30 1452 N 135.985 -1.50799 -0.457987 0
M  V30 1453 C 136.895 -1.73426 -1.57989 0
M  V30 1454 C 137.911 -0.617745 -1.62665 0
M  V30 1455 O 139.087 -0.897614 -1.80291 0
M  V30 1456 C 136.152 -1.83557 -2.94122 0
M  V30 1457 C 135.213 -3.07345 -2.99729 0
M  V30 1458 C 134.446 -3.16983 -4.29368 0
M  V30 1459 O 134.669 -2.33077 -5.20607 0
M  V30 1460 O 133.603 -4.09812 -4.40837 0
M  V30 1461 H 137.429 -2.68555 -1.41817 0
M  V30 1462 H 135.014 -1.35052 -0.638859 0
M  V30 1463 H 136.896 -1.92326 -3.74952 0
M  V30 1464 H 135.571 -0.916137 -3.10465 0
M  V30 1465 H 134.478 -3.04068 -2.1793 0
M  V30 1466 H 135.811 -3.9891 -2.88326 0
M  V30 1467 N 137.463 0.71206 -1.40597 0
M  V30 1468 C 138.373 1.8562 -1.43466 0
M  V30 1469 C 139.389 1.70902 -0.326902 0
M  V30 1470 O 140.565 1.93105 -0.572043 0
M  V30 1471 C 137.63 3.21451 -1.29884 0
M  V30 1472 C 136.691 3.48398 -2.50833 0
M  V30 1473 C 135.924 4.77749 -2.3789 0
M  V30 1474 O 136.147 5.53089 -1.39459 0
M  V30 1475 O 135.081 5.05111 -3.27333 0
M  V30 1476 H 138.907 1.86155 -2.39958 0
M  V30 1477 H 136.492 0.86295 -1.21957 0
M  V30 1478 H 138.374 4.02579 -1.24531 0
M  V30 1479 H 137.049 3.21636 -0.364997 0
M  V30 1480 H 135.956 2.67265 -2.61763 0
M  V30 1481 H 137.289 3.53014 -3.4299 0
M  V30 1482 N 138.941 1.26152 0.944643 0
M  V30 1483 C 139.904 1.07474 2.0244 0
M  V30 1484 C 140.904 0.0242064 1.60782 0
M  V30 1485 O 142.094 0.267302 1.72137 0
M  V30 1486 C 139.226 0.633956 3.34953 0
M  V30 1487 H 140.419 2.03336 2.20442 0
M  V30 1488 H 137.972 1.087 1.12312 0
M  V30 1489 H 138.707 -0.326811 3.22649 0
M  V30 1490 H 138.492 1.39247 3.66542 0
M  V30 1491 H 139.982 0.52501 4.14287 0
M  V30 1492 N 140.419 -1.14872 1.07899 0
M  V30 1493 C 141.665 -1.86064 0.806725 0
M  V30 1494 C 141.998 -1.82434 -0.665706 0
M  V30 1495 O 141.273 -1.25138 -1.48899 0
M  V30 1496 C 141.556 -3.34929 1.32267 0
M  V30 1497 C 141.409 -3.47161 2.86006 0
M  V30 1498 C 142.728 -4.29863 0.943717 0
M  V30 1499 H 139.847 -0.675591 0.294526 0
M  V30 1500 H 142.489 -1.34925 1.33773 0
M  V30 1501 H 140.639 -3.78611 0.870974 0
M  V30 1502 H 142.311 -3.12302 3.39507 0
M  V30 1503 H 140.554 -2.88539 3.23925 0
M  V30 1504 H 141.225 -4.51777 3.17177 0
M  V30 1505 H 143.701 -3.9417 1.33302 0
M  V30 1506 H 142.577 -5.32494 1.33198 0
M  V30 1507 H 142.838 -4.41846 -0.149796 0
M  V30 1508 N 141.898 -0.863906 -1.31812 0
M  V30 1509 C 143.128 -0.485406 -2.00817 0
M  V30 1510 C 143.536 0.925007 -1.65046 0
M  V30 1511 O 142.879 1.61653 -0.872574 0
M  V30 1512 C 142.941 -0.555589 -3.55181 0
M  V30 1513 C 142.605 -1.92654 -4.14407 0
M  V30 1514 C 143.602 -2.89324 -4.31958 0
M  V30 1515 C 141.287 -2.2262 -4.50273 0
M  V30 1516 C 143.281 -4.14108 -4.84555 0
M  V30 1517 C 140.968 -3.47654 -5.02573 0
M  V30 1518 C 141.966 -4.43214 -5.19664 0
M  V30 1519 O 141.654 -5.66033 -5.70843 0
M  V30 1520 H 141.386 -0.188224 -0.649267 0
M  V30 1521 H 143.94 -1.16514 -1.69156 0
M  V30 1522 H 142.17 0.181037 -3.86276 0
M  V30 1523 H 143.859 -0.19138 -4.05449 0
M  V30 1524 H 144.625 -2.6748 -4.04573 0
M  V30 1525 H 140.504 -1.4902 -4.3625 0
M  V30 1526 H 144.048 -4.88703 -4.9781 0
M  V30 1527 H 139.945 -3.69345 -5.29391 0
M  V30 1528 H 140.713 -5.6812 -5.89222 0
M  V30 1529 N 143.376 1.44774 -0.622745 0
M  V30 1530 C 144.604 2.06487 -0.130722 0
M  V30 1531 C 145.019 1.46476 1.19123 0
M  V30 1532 O 144.376 0.584502 1.72887 0
M  V30 1533 C 144.427 3.615 -0.000807207 0
M  V30 1534 O 144.148 4.19274 -1.27048 0
M  V30 1535 C 145.649 4.40229 0.520898 0
M  V30 1536 H 142.869 0.666704 -0.0758106 0
M  V30 1537 H 145.413 1.85779 -0.854774 0
M  V30 1538 H 143.568 3.81498 0.673643 0
M  V30 1539 H 143.982 5.12622 -1.1099 0
M  V30 1540 H 145.456 5.49144 0.560838 0
M  V30 1541 H 145.933 4.1108 1.54627 0
M  V30 1542 H 146.539 4.25131 -0.120018 0
M  V30 1543 N 144.854 0.36279 1.53368 0
M  V30 1544 C 145.802 -0.500155 2.27159 0
M  V30 1545 C 146.796 -1.08575 1.3003 0
M  V30 1546 O 148.002 -1.02927 1.47668 0
M  V30 1547 H 144.377 -0.180009 0.730138 0
M  V30 1548 H 146.348 0.14401 2.98052 0
M  V30 1549 C 145.097 -1.62937 3.07159 0
M  V30 1550 H 144.42 -1.18806 3.8174 0
M  V30 1551 H 145.86 -2.20795 3.61975 0
M  V30 1552 C 144.319 -2.57007 2.17829 0
M  V30 1553 O 144.849 -3.59752 1.78721 0
M  V30 1554 N 143.055 -2.26131 1.82518 0
M  V30 1555 H 142.602 -1.42616 2.14519 0
M  V30 1556 H 142.56 -2.89327 1.23034 0
M  V30 1557 N 146.332 -1.57332 0.0918853 0
M  V30 1558 C 147.581 -1.93412 -0.572249 0
M  V30 1559 C 147.894 -0.975515 -1.69538 0
M  V30 1560 O 149.1 -1.22991 -2.42045 0
M  V30 1561 C 147.556 -3.43648 -1.0693 0
M  V30 1562 C 147.164 -4.47994 0.0239049 0
M  V30 1563 C 148.908 -3.88695 -1.70635 0
M  V30 1564 C 146.815 -5.89381 -0.488319 0
M  V30 1565 H 145.745 -0.721939 -0.217532 0
M  V30 1566 H 148.396 -1.82735 0.167369 0
M  V30 1567 H 146.778 -3.49466 -1.8625 0
M  V30 1568 H 147.952 -4.53815 0.799277 0
M  V30 1569 H 146.267 -4.12536 0.565946 0
M  V30 1570 H 148.864 -4.91725 -2.10025 0
M  V30 1571 H 149.207 -3.27166 -2.57426 0
M  V30 1572 H 149.74 -3.85564 -0.979023 0
M  V30 1573 H 146.479 -6.54602 0.342906 0
M  V30 1574 H 145.999 -5.87037 -1.23077 0
M  V30 1575 H 147.678 -6.39863 -0.958317 0
M  V30 1576 N 147.81 0.181792 -1.56548 0
M  V30 1577 C 148.773 1.20894 -1.94724 0
M  V30 1578 C 149.773 1.37738 -0.829747 0
M  V30 1579 O 150.963 1.35323 -1.09697 0
M  V30 1580 C 148.095 2.57593 -2.23291 0
M  V30 1581 H 149.288 0.882275 -2.86629 0
M  V30 1582 H 146.841 0.423838 -1.50444 0
M  V30 1583 H 147.576 2.95291 -1.34067 0
M  V30 1584 H 147.361 2.46735 -3.04736 0
M  V30 1585 H 148.851 3.31637 -2.53785 0
M  V30 1586 N 149.288 1.51039 0.449983 0
M  V30 1587 C 150.535 1.63081 1.20045 0
M  V30 1588 C 150.863 0.341024 1.91487 0
M  V30 1589 O 150.118 -0.674276 1.83717 0
M  V30 1590 C 150.417 2.77556 2.25161 0
M  V30 1591 C 150.083 4.17289 1.70823 0
M  V30 1592 C 148.745 4.55305 1.55725 0
M  V30 1593 C 151.097 5.04536 1.3074 0
M  V30 1594 C 148.425 5.78287 0.989999 0
M  V30 1595 C 150.777 6.28085 0.754482 0
M  V30 1596 C 149.441 6.64885 0.590308 0
M  V30 1597 H 148.711 0.596755 0.439277 0
M  V30 1598 H 151.358 1.85037 0.49333 0
M  V30 1599 H 149.663 2.49771 3.01863 0
M  V30 1600 H 151.36 2.84073 2.83026 0
M  V30 1601 H 147.95 3.8731 1.83546 0
M  V30 1602 H 152.134 4.75782 1.41229 0
M  V30 1603 H 147.39 6.05456 0.850451 0
M  V30 1604 H 151.564 6.95038 0.435324 0
M  V30 1605 H 149.191 7.60055 0.14862 0
M  V30 1606 N 150.766 -0.704594 1.40972 0
M  V30 1607 C 151.699 -1.82861 1.36518 0
M  V30 1608 C 152.677 -1.6091 0.23382 0
M  V30 1609 O 153.861 -1.83778 0.419271 0
M  V30 1610 C 150.988 -3.1939 1.12729 0
M  V30 1611 C 150.034 -3.60148 2.28463 0
M  V30 1612 S 150.867 -3.65994 3.90907 0
M  V30 1613 C 152.023 -5.05264 3.69403 0
M  V30 1614 H 152.256 -1.86361 2.3164 0
M  V30 1615 H 149.789 -0.872439 1.27389 0
M  V30 1616 H 151.747 -3.98211 0.996893 0
M  V30 1617 H 150.408 -3.1351 0.192427 0
M  V30 1618 H 149.601 -4.59309 2.07489 0
M  V30 1619 H 149.203 -2.88612 2.37863 0
M  V30 1620 H 151.495 -5.92504 3.28551 0
M  V30 1621 H 152.438 -5.31278 4.68134 0
M  V30 1622 H 152.846 -4.76377 3.02862 0
M  V30 1623 N 152.244 -1.26651 -0.937939 0
M  V30 1624 C 153.154 -1.10276 -2.07066 0
M  V30 1625 C 154.17 -0.0354197 -1.73964 0
M  V30 1626 O 155.346 -0.239816 -1.99967 0
M  V30 1627 C 152.411 -0.740887 -3.38691 0
M  V30 1628 C 151.472 -1.88799 -3.85556 0
M  V30 1629 C 150.705 -1.54329 -5.10899 0
M  V30 1630 O 150.928 -0.446494 -5.6865 0
M  V30 1631 O 149.862 -2.37911 -5.52885 0
M  V30 1632 H 153.688 -2.05309 -2.23789 0
M  V30 1633 H 151.273 -1.05743 -1.0554 0
M  V30 1634 H 153.155 -0.55195 -4.1777 0
M  V30 1635 H 151.83 0.180022 -3.23199 0
M  V30 1636 H 150.737 -2.13191 -3.07409 0
M  V30 1637 H 152.07 -2.78874 -4.05574 0
M  V30 1638 N 153.722 1.14298 -1.08507 0
M  V30 1639 C 154.947 1.8976 -0.837001 0
M  V30 1640 C 155.372 1.78097 0.605228 0
M  V30 1641 O 154.73 1.12188 1.4242 0
M  V30 1642 C 154.778 3.37685 -1.26495 0
M  V30 1643 O 153.882 4.10281 -0.417514 0
M  V30 1644 H 153.223 0.590365 -0.303917 0
M  V30 1645 H 155.753 1.44672 -1.44676 0
M  V30 1646 H 155.763 3.88501 -1.24625 0
M  V30 1647 H 154.438 3.45492 -2.31534 0
M  V30 1648 H 153.015 3.69536 -0.499722 0
M  V30 1649 N 155.201 0.870884 1.31352 0
M  V30 1650 C 156.447 0.482987 1.96965 0
M  V30 1651 C 156.78 -0.962462 1.68672 0
M  V30 1652 O 156.055 -1.6779 0.98371 0
M  V30 1653 C 156.338 0.741752 3.52378 0
M  V30 1654 C 156.191 2.2368 3.9024 0
M  V30 1655 C 157.51 0.208838 4.39604 0
M  V30 1656 H 154.629 0.176955 0.715441 0
M  V30 1657 H 157.271 1.09229 1.55464 0
M  V30 1658 H 155.421 0.223149 3.87859 0
M  V30 1659 H 157.093 2.82273 3.64856 0
M  V30 1660 H 155.336 2.70901 3.38814 0
M  V30 1661 H 156.007 2.3685 4.98604 0
M  V30 1662 H 158.483 0.652529 4.10952 0
M  V30 1663 H 157.359 0.419336 5.47296 0
M  V30 1664 H 157.62 -0.889275 4.33064 0
M  V30 1665 N 156.679 -1.44442 0.630414 0
M  V30 1666 C 157.629 -2.27794 -0.0968103 0
M  V30 1667 C 158.613 -1.38624 -0.816834 0
M  V30 1668 O 159.805 -1.62438 -0.70306 0
M  V30 1669 C 156.934 -3.25929 -1.07819 0
M  V30 1670 C 156.02 -4.22588 -0.357826 0
M  V30 1671 N 156.411 -5.0207 0.613169 0
M  V30 1672 C 154.709 -4.41914 -0.602365 0
M  V30 1673 C 155.41 -5.72351 1.03871 0
M  V30 1674 N 154.386 -5.42287 0.377642 0
M  V30 1675 H 158.188 -2.86653 0.648621 0
M  V30 1676 H 155.702 -1.55871 0.455862 0
M  V30 1677 H 157.699 -3.84399 -1.61378 0
M  V30 1678 H 156.359 -2.68631 -1.82393 0
M  V30 1679 H 157.37 -5.08331 0.990947 0
M  V30 1680 H 154.047 -3.95714 -1.33103 0
M  V30 1681 H 155.437 -6.4619 1.84086 0
M  V30 1682 N 158.157 -0.370918 -1.53173 0
M  V30 1683 C 159.12 0.460778 -2.24521 0
M  V30 1684 C 160.12 1.00536 -1.25496 0
M  V30 1685 O 161.31 0.890266 -1.49733 0
M  V30 1686 C 158.442 1.64457 -2.98608 0
M  V30 1687 H 159.635 -0.163613 -2.99453 0
M  V30 1688 H 157.188 -0.122699 -1.55818 0
M  V30 1689 H 157.923 2.30691 -2.2793 0
M  V30 1690 H 157.708 1.26099 -3.7127 0
M  V30 1691 H 159.198 2.23384 -3.5283 0
M  V30 1692 N 159.635 1.57281 -0.100228 0
M  V30 1693 C 160.582 2.14305 0.856858 0
M  V30 1694 C 161.552 1.06296 1.27634 0
M  V30 1695 O 162.737 1.34109 1.35718 0
M  V30 1696 C 159.877 2.73184 2.10866 0
M  V30 1697 C 158.99 3.95442 1.73925 0
M  V30 1698 C 158.125 4.42468 2.93931 0
M  V30 1699 C 157.164 5.57303 2.5314 0
M  V30 1700 N 156.301 5.99158 3.65997 0
M  V30 1701 H 161.141 2.95772 0.363726 0
M  V30 1702 H 158.678 1.46139 0.167858 0
M  V30 1703 H 160.636 3.05442 2.84185 0
M  V30 1704 H 159.266 1.94437 2.57671 0
M  V30 1705 H 158.318 3.69464 0.905554 0
M  V30 1706 H 159.63 4.78769 1.39935 0
M  V30 1707 H 158.784 4.76537 3.75496 0
M  V30 1708 H 157.523 3.58052 3.31134 0
M  V30 1709 H 156.528 5.22857 1.70003 0
M  V30 1710 H 157.753 6.43471 2.17075 0
M  V30 1711 H 155.699 5.17687 4.02909 0
M  V30 1712 H 155.616 6.77295 3.35869 0
M  V30 1713 H 156.884 6.3786 4.48057 0
M  V30 1714 N 161.113 -0.173488 1.56642 0
M  V30 1715 C 162.338 -0.910149 1.86363 0
M  V30 1716 C 162.763 -1.75132 0.686318 0
M  V30 1717 O 162.121 -1.77595 -0.364643 0
M  V30 1718 C 162.169 -1.76447 3.14482 0
M  V30 1719 O 161.273 -2.86584 2.96553 0
M  V30 1720 H 160.614 -0.255086 0.613047 0
M  V30 1721 H 163.144 -0.172283 2.03873 0
M  V30 1722 H 163.154 -2.16483 3.45831 0
M  V30 1723 H 161.829 -1.14658 3.99783 0
M  V30 1724 H 160.406 -2.50146 2.76553 0
M  V30 1725 N 162.591 -1.51276 -0.441967 0
M  V30 1726 C 163.821 -1.67273 -1.21257 0
M  V30 1727 C 164.229 -0.367624 -1.85594 0
M  V30 1728 O 163.572 0.663349 -1.71305 0
M  V30 1729 C 163.634 -2.72807 -2.34129 0
M  V30 1730 C 163.298 -4.1554 -1.90198 0
M  V30 1731 C 164.295 -5.00471 -1.40801 0
M  V30 1732 C 161.98 -4.61616 -1.9803 0
M  V30 1733 C 163.974 -6.29536 -0.998174 0
M  V30 1734 C 161.661 -5.90679 -1.56658 0
M  V30 1735 C 162.659 -6.74466 -1.07633 0
M  V30 1736 O 162.347 -8.01116 -0.668459 0
M  V30 1737 H 162.079 -0.564614 -0.371734 0
M  V30 1738 H 164.633 -1.9843 -0.530521 0
M  V30 1739 H 162.863 -2.36954 -3.05597 0
M  V30 1740 H 164.552 -2.77729 -2.96009 0
M  V30 1741 H 165.318 -4.66079 -1.34148 0
M  V30 1742 H 161.197 -3.96526 -2.35135 0
M  V30 1743 H 164.741 -6.94885 -0.61482 0
M  V30 1744 H 160.638 -6.24586 -1.62979 0
M  V30 1745 H 161.406 -8.14633 -0.794722 0
M  V30 1746 N 164.069 0.697108 -1.41344 0
M  V30 1747 C 165.294 1.49096 -1.44171 0
M  V30 1748 C 165.719 1.88038 -0.0481568 0
M  V30 1749 O 165.077 1.54525 0.948243 0
M  V30 1750 C 165.125 2.73088 -2.3549 0
M  V30 1751 O 164.229 3.70514 -1.81088 0
M  V30 1752 H 163.57 0.448801 -0.489361 0
M  V30 1753 H 166.1 0.856992 -1.85787 0
M  V30 1754 H 166.11 3.21413 -2.51312 0
M  V30 1755 H 164.785 2.44081 -3.36745 0
M  V30 1756 H 163.362 3.29441 -1.74708 0
M  V30 1757 N 165.547 1.27147 0.931209 0
M  V30 1758 C 166.772 1.16191 1.71797 0
M  V30 1759 C 167.197 -0.278004 1.86034 0
M  V30 1760 O 166.555 -1.20137 1.35782 0
M  V30 1761 C 166.603 1.84673 3.09723 0
M  V30 1762 O 165.707 1.14231 3.96264 0
M  V30 1763 H 165.048 0.404303 0.526721 0
M  V30 1764 H 167.578 1.68152 1.1656 0
M  V30 1765 H 167.588 1.91893 3.60057 0
M  V30 1766 H 166.263 2.89421 2.98677 0
M  V30 1767 H 164.84 1.15056 3.54706 0
M  V30 1768 N 167.025 -1.13721 1.09112 0
M  V30 1769 C 168.274 -1.84275 0.82009 0
M  V30 1770 C 168.587 -1.84253 -0.656509 0
M  V30 1771 O 169.793 -2.50668 -1.04296 0
M  V30 1772 C 168.249 -3.30825 1.41714 0
M  V30 1773 C 167.857 -3.39244 2.92605 0
M  V30 1774 C 169.601 -4.06443 1.22492 0
M  V30 1775 C 167.508 -4.80047 3.45411 0
M  V30 1776 H 166.438 -0.690387 0.30312 0
M  V30 1777 H 169.089 -1.28146 1.31343 0
M  V30 1778 H 167.471 -3.86737 0.851498 0
M  V30 1779 H 168.645 -2.93344 3.55367 0
M  V30 1780 H 166.96 -2.77088 3.10823 0
M  V30 1781 H 169.557 -5.10387 1.59402 0
M  V30 1782 H 169.9 -4.15972 0.165299 0
M  V30 1783 H 170.433 -3.56852 1.75788 0
M  V30 1784 H 167.172 -4.75709 4.50978 0
M  V30 1785 H 166.692 -5.26455 2.87411 0
M  V30 1786 H 168.371 -5.48957 3.42425 0
M  V30 1787 N 168.503 -0.877838 -1.30888 0
M  V30 1788 C 169.75 -0.492696 -1.96415 0
M  V30 1789 C 170.078 0.956671 -1.69346 0
M  V30 1790 O 169.333 1.68993 -0.986913 0
M  V30 1791 C 169.632 -0.705748 -3.50363 0
M  V30 1792 C 169.298 -2.1291 -3.97467 0
M  V30 1793 C 167.96 -2.51834 -4.1004 0
M  V30 1794 C 170.312 -3.05702 -4.22132 0
M  V30 1795 C 167.64 -3.82775 -4.44635 0
M  V30 1796 C 169.992 -4.36166 -4.58194 0
M  V30 1797 C 168.656 -4.74993 -4.68975 0
M  V30 1798 H 167.926 -0.18029 -0.718733 0
M  V30 1799 H 170.573 -1.11233 -1.55883 0
M  V30 1800 H 168.878 -0.00303058 -3.918 0
M  V30 1801 H 170.575 -0.387456 -3.99124 0
M  V30 1802 H 167.165 -1.81694 -3.88182 0
M  V30 1803 H 171.349 -2.76853 -4.11906 0
M  V30 1804 H 166.605 -4.12609 -4.51181 0
M  V30 1805 H 170.779 -5.08111 -4.76231 0
M  V30 1806 H 168.406 -5.76495 -4.95537 0
M  V30 1807 N 169.982 1.44106 -0.638065 0
M  V30 1808 C 171.207 2.0685 -0.150916 0
M  V30 1809 C 171.632 1.47417 1.16833 0
M  V30 1810 O 170.99 0.578264 1.71831 0
M  V30 1811 C 171.038 3.60555 -0.05708 0
M  V30 1812 O 170.142 4.00465 0.984972 0
M  V30 1813 H 169.483 0.658151 -0.0879399 0
M  V30 1814 H 172.013 1.84865 -0.876707 0
M  V30 1815 H 172.023 4.07789 0.131232 0
M  V30 1816 H 170.698 4.03193 -1.02021 0
M  V30 1817 H 169.275 3.64849 0.770672 0
M  V30 1818 N 171.46 0.379036 1.52974 0
M  V30 1819 C 172.688 -0.20679 2.05864 0
M  V30 1820 C 173.103 -1.41356 1.25155 0
M  V30 1821 O 172.46 -1.8009 0.295588 0
M  V30 1822 C 172.511 -0.587045 3.56702 0
M  V30 1823 O 172.232 0.571776 4.34353 0
M  V30 1824 C 173.733 -1.22983 4.25899 0
M  V30 1825 H 170.953 -0.0336123 0.670158 0
M  V30 1826 H 173.497 0.541298 1.97206 0
M  V30 1827 H 171.652 -1.28504 3.65466 0
M  V30 1828 H 172.066 0.261544 5.23847 0
M  V30 1829 H 173.54 -1.44635 5.32715 0
M  V30 1830 H 174.017 -2.19416 3.80465 0
M  V30 1831 H 174.623 -0.572892 4.21424 0
M  V30 1832 N 172.938 -1.57226 0.108567 0
M  V30 1833 C 173.868 -2.17778 -0.84232 0
M  V30 1834 C 174.849 -1.11487 -1.2847 0
M  V30 1835 O 176.034 -1.39681 -1.34918 0
M  V30 1836 C 173.164 -2.76888 -2.09644 0
M  V30 1837 C 172.118 -3.88669 -1.79221 0
M  V30 1838 C 171.444 -4.34541 -3.11574 0
M  V30 1839 C 172.744 -5.11251 -1.06864 0
M  V30 1840 H 174.438 -2.97489 -0.337774 0
M  V30 1841 H 171.984 -1.43097 -0.161025 0
M  V30 1842 H 173.937 -3.17904 -2.76614 0
M  V30 1843 H 172.661 -1.94451 -2.62405 0
M  V30 1844 H 171.32 -3.48213 -1.14644 0
M  V30 1845 H 170.968 -3.48977 -3.62249 0
M  V30 1846 H 170.668 -5.09914 -2.91996 0
M  V30 1847 H 172.192 -4.782 -3.7968 0
M  V30 1848 H 173.606 -5.49352 -1.63968 0
M  V30 1849 H 172.003 -5.9214 -0.974178 0
M  V30 1850 H 173.073 -4.8487 -0.0536168 0
M  V30 1851 N 174.416 0.165178 -1.56732 0
M  V30 1852 C 175.656 0.887231 -1.8414 0
M  V30 1853 C 176.02 1.79159 -0.690353 0
M  V30 1854 O 177.221 2.55172 -0.845032 0
M  V30 1855 C 175.492 1.65674 -3.16681 0
M  V30 1856 S 177.051 2.42671 -3.6559 0
M  V30 1857 H 173.869 0.297042 -0.645978 0
M  V30 1858 H 176.471 0.148439 -1.94936 0
M  V30 1859 H 175.175 0.983507 -3.98441 0
M  V30 1860 H 174.706 2.43679 -3.08843 0
M  V30 1861 H 176.721 3.67499 -3.33406 0
M  V30 1862 N 175.894 1.51508 0.433938 0
M  V30 1863 C 177.119 1.68443 1.21003 0
M  V30 1864 C 177.544 0.382636 1.84167 0
M  V30 1865 O 176.902 -0.65755 1.68956 0
M  V30 1866 C 176.95 2.80405 2.26727 0
M  V30 1867 O 176.054 2.44245 3.32292 0
M  V30 1868 H 175.395 0.561536 0.354363 0
M  V30 1869 H 177.925 1.9809 0.512024 0
M  V30 1870 H 177.935 3.0459 2.71457 0
M  V30 1871 H 176.61 3.74867 1.80132 0
M  V30 1872 H 175.187 2.30644 2.93015 0
M  V30 1873 N 177.372 -0.689602 1.41712 0
M  V30 1874 C 178.6 -1.47827 1.44758 0
M  V30 1875 C 179.015 -1.88721 0.0545703 0
M  V30 1876 O 178.372 -1.57176 -0.927463 0
M  V30 1877 C 178.423 -2.73698 2.3616 0
M  V30 1878 O 178.144 -2.34524 3.7004 0
M  V30 1879 C 179.645 -3.67389 2.48072 0
M  V30 1880 H 176.865 -0.455357 0.49284 0
M  V30 1881 H 179.409 -0.848574 1.86063 0
M  V30 1882 H 177.564 -3.32891 1.98148 0
M  V30 1883 H 177.978 -3.15701 4.18847 0
M  V30 1884 H 179.452 -4.52475 3.16181 0
M  V30 1885 H 179.929 -4.12284 1.51388 0
M  V30 1886 H 180.535 -3.14097 2.86746 0
M  V30 1887 N 178.85 -1.27639 -0.924453 0
M  V30 1888 C 179.813 -1.10681 -2.00705 0
M  V30 1889 C 180.813 -0.0497823 -1.60723 0
M  V30 1890 O 182.003 -0.294654 -1.7169 0
M  V30 1891 C 179.135 -0.687164 -3.33902 0
M  V30 1892 H 180.328 -2.06817 -2.17179 0
M  V30 1893 H 177.881 -1.10473 -1.10569 0
M  V30 1894 H 178.616 0.275439 -3.23128 0
M  V30 1895 H 178.401 -1.45061 -3.6428 0
M  V30 1896 H 179.891 -0.590853 -4.13399 0
M  V30 1897 N 180.328 1.1314 -1.09713 0
M  V30 1898 C 181.238 2.22242 -0.751367 0
M  V30 1899 C 182.254 1.72224 0.247938 0
M  V30 1900 O 183.43 2.01205 0.0885463 0
M  V30 1901 C 180.495 3.46231 -0.180274 0
M  V30 1902 C 179.556 4.11125 -1.2359 0
M  V30 1903 C 178.789 5.29195 -0.691966 0
M  V30 1904 O 179.012 5.68342 0.48414 0
M  V30 1905 O 177.946 5.84214 -1.44838 0
M  V30 1906 H 181.772 2.54197 -1.66186 0
M  V30 1907 H 179.357 1.21331 -0.871735 0
M  V30 1908 H 181.239 4.21185 0.134739 0
M  V30 1909 H 179.914 3.1597 0.703185 0
M  V30 1910 H 178.821 3.37985 -1.60366 0
M  V30 1911 H 180.154 4.45524 -2.09211 0
M  V30 1912 N 181.806 0.884767 1.30421 0
M  V30 1913 C 183.055 0.499164 1.95426 0
M  V30 1914 C 183.368 -0.95645 1.70621 0
M  V30 1915 O 184.574 -1.44889 2.29607 0
M  V30 1916 C 183.03 0.84177 3.49917 0
M  V30 1917 C 182.638 2.31514 3.83543 0
M  V30 1918 C 184.382 0.525355 4.21237 0
M  V30 1919 C 182.289 2.59939 5.31212 0
M  V30 1920 H 181.219 0.182944 0.73147 0
M  V30 1921 H 183.87 1.07971 1.48373 0
M  V30 1922 H 182.252 0.190311 3.95542 0
M  V30 1923 H 183.426 3.0109 3.48829 0
M  V30 1924 H 181.741 2.59907 3.25326 0
M  V30 1925 H 184.338 0.714762 5.29901 0
M  V30 1926 H 184.681 -0.535222 4.12845 0
M  V30 1927 H 185.214 1.134 3.81294 0
M  V30 1928 H 181.953 3.64736 5.44654 0
M  V30 1929 H 181.473 1.94972 5.67227 0
M  V30 1930 H 183.152 2.45429 5.98643 0
M  V30 1931 N 183.284 -1.43765 0.645699 0
M  V30 1932 C 184.561 -1.9541 0.0862963 0
M  V30 1933 C 184.941 -1.58725 -1.39175 0
M  V30 1934 O 184.289 -0.868581 -2.11348 0
M  V30 1935 C 184.499 -3.47488 0.324565 0
M  V30 1936 C 185.847 -4.24001 0.225497 0
M  V30 1937 O 186.871 -3.55274 0.256715 0
M  V30 1938 O 185.73 -5.46313 0.142801 0
M  V30 1939 H 182.824 -0.826882 -0.0139483 0
M  V30 1940 H 185.37 -1.53743 0.718415 0
M  V30 1941 H 184.142 -3.67289 1.3496 0
M  V30 1942 H 183.765 -3.96135 -0.340987 0
M  V30 1943 N 184.763 -0.387143 -1.52771 0
M  V30 1944 C 185.673 0.456442 -2.30117 0
M  V30 1945 C 186.689 1.07342 -1.36944 0
M  V30 1946 O 187.865 1.07971 -1.70013 0
M  V30 1947 C 184.93 1.56957 -3.09136 0
M  V30 1948 C 183.991 0.977916 -4.18014 0
M  V30 1949 C 183.224 2.038 -4.93256 0
M  V30 1950 O 183.447 3.25271 -4.68567 0
M  V30 1951 O 182.381 1.6565 -5.78657 0
M  V30 1952 H 186.207 -0.17359 -3.03203 0
M  V30 1953 H 183.792 -0.150919 -1.48636 0
M  V30 1954 H 185.674 2.21628 -3.58412 0
M  V30 1955 H 184.349 2.18461 -2.38865 0
M  V30 1956 H 183.256 0.294525 -3.72939 0
M  V30 1957 H 184.589 0.407128 -4.90513 0
M  V30 1958 N 186.241 1.57166 -0.116904 0
M  V30 1959 C 187.204 2.14039 0.819742 0
M  V30 1960 C 188.204 1.07477 1.19605 0
M  V30 1961 O 189.394 1.33263 1.1219 0
M  V30 1962 C 186.526 2.67891 2.10826 0
M  V30 1963 H 187.719 2.98128 0.325511 0
M  V30 1964 H 185.272 1.55739 0.132312 0
M  V30 1965 H 186.007 1.87384 2.64685 0
M  V30 1966 H 185.792 3.45823 1.84793 0
M  V30 1967 H 187.282 3.11809 2.77785 0
M  V30 1968 N 187.719 -0.156864 1.56817 0
M  V30 1969 C 188.966 -0.871125 1.82805 0
M  V30 1970 C 189.294 -1.81611 0.696262 0
M  V30 1971 O 188.549 -1.93141 -0.315459 0
M  V30 1972 C 188.848 -1.68737 3.1506 0
M  V30 1973 C 188.514 -0.890045 4.42028 0
M  V30 1974 C 187.176 -0.670042 4.76512 0
M  V30 1975 C 189.528 -0.331769 5.20143 0
M  V30 1976 C 186.856 0.119104 5.86579 0
M  V30 1977 C 189.208 0.444365 6.31037 0
M  V30 1978 C 187.872 0.675035 6.64078 0
M  V30 1979 H 187.142 -0.318767 0.668931 0
M  V30 1980 H 189.789 -0.135274 1.91022 0
M  V30 1981 H 188.094 -2.49304 3.0225 0
M  V30 1982 H 189.791 -2.24331 3.3238 0
M  V30 1983 H 186.381 -1.07157 4.14988 0
M  V30 1984 H 190.565 -0.489043 4.93885 0
M  V30 1985 H 185.821 0.307417 6.10627 0
M  V30 1986 H 189.995 0.884139 6.90765 0
M  V30 1987 H 187.622 1.28839 7.49203 0
M  V30 1988 N 189.197 -1.51736 -0.425897 0
M  V30 1989 C 190.613 -1.40166 -0.76326 0
M  V30 1990 C 190.813 -0.492962 -1.95377 0
M  V30 1991 O 189.869 0.0475815 -2.52455 0
M  V30 1992 C 191.182 -2.82403 -1.03291 0
M  V30 1993 C 192.73 -2.91632 -1.13665 0
M  V30 1994 C 193.205 -4.34801 -1.43916 0
M  V30 1995 N 194.696 -4.3796 -1.50816 0
M  V30 1996 C 195.431 -5.4578 -1.75817 0
M  V30 1997 N 194.927 -6.63744 -1.98534 0
M  V30 1998 N 196.72 -5.33274 -1.77694 0
M  V30 1999 H 188.871 -2.09361 0.358 0
M  V30 2000 H 191.134 -0.942941 0.0978094 0
M  V30 2001 H 190.84 -3.50943 -0.230696 0
M  V30 2002 H 190.714 -3.22428 -1.95754 0
M  V30 2003 H 193.101 -2.23284 -1.92947 0
M  V30 2004 H 193.182 -2.55088 -0.190756 0
M  V30 2005 H 192.826 -5.03703 -0.65157 0
M  V30 2006 H 192.756 -4.68868 -2.39729 0
M  V30 2007 H 195.247 -3.52919 -1.35118 0
M  V30 2008 H 195.56 -7.41704 -2.17013 0
M  V30 2009 H 193.905 -6.66839 -1.95832 0
M  V30 2010 H 197.096 -4.40098 -1.59473 0
M  V30 2011 H 197.269 -6.1738 -1.9684 0
M  V30 2012 N 190.675 0.682077 -1.42076 0
M  V30 2013 C 191.921 1.44283 -1.43366 0
M  V30 2014 C 192.276 1.92344 -0.0465775 0
M  V30 2015 O 191.569 1.67517 0.929973 0
M  V30 2016 C 191.763 2.66036 -2.38662 0
M  V30 2017 C 191.592 2.29889 -3.86499 0
M  V30 2018 C 190.362 2.19599 -4.55087 0
M  V30 2019 C 192.56 1.91999 -4.77117 0
M  V30 2020 N 190.542 1.76478 -5.87987 0
M  V30 2021 C 191.913 1.59741 -5.99068 0
M  V30 2022 C 193.968 1.78927 -4.64639 0
M  V30 2023 C 192.671 1.15723 -7.0993 0
M  V30 2024 C 194.697 1.36314 -5.75476 0
M  V30 2025 C 194.059 1.04975 -6.96534 0
M  V30 2026 H 190.158 0.524739 -0.579805 0
M  V30 2027 H 192.742 0.787834 -1.78048 0
M  V30 2028 H 190.913 3.29237 -2.06053 0
M  V30 2029 H 192.645 3.32588 -2.30581 0
M  V30 2030 H 189.4 2.38433 -4.09202 0
M  V30 2031 H 189.824 1.57362 -6.58458 0
M  V30 2032 H 194.466 2.01805 -3.7153 0
M  V30 2033 H 192.184 0.91591 -8.02893 0
M  V30 2034 H 195.77 1.26731 -5.6783 0
M  V30 2035 H 194.65 0.725017 -7.80841 0
M  V30 2036 N 192.153 1.28127 0.917671 0
M  V30 2037 C 193.378 1.18007 1.70555 0
M  V30 2038 C 193.803 -0.258257 1.86319 0
M  V30 2039 O 193.161 -1.1869 1.37049 0
M  V30 2040 C 193.209 1.87948 3.07746 0
M  V30 2041 O 192.313 1.18427 3.9503 0
M  V30 2042 H 191.654 0.409867 0.522403 0
M  V30 2043 H 194.184 1.69379 1.1477 0
M  V30 2044 H 194.194 1.95701 3.58001 0
M  V30 2045 H 192.869 2.92573 2.95591 0
M  V30 2046 H 191.446 1.18811 3.53466 0
M  V30 2047 N 193.631 -1.12557 1.10312 0
M  V30 2048 C 194.541 -2.21841 0.763142 0
M  V30 2049 C 195.557 -1.72354 -0.238801 0
M  V30 2050 O 196.733 -2.01249 -0.0778746 0
M  V30 2051 C 193.798 -3.46131 0.198632 0
M  V30 2052 C 192.859 -4.10464 1.25769 0
M  V30 2053 C 192.092 -5.28821 0.72002 0
M  V30 2054 O 192.315 -5.6859 -0.453993 0
M  V30 2055 O 191.249 -5.83437 1.47935 0
M  V30 2056 H 195.075 -2.53312 1.67532 0
M  V30 2057 H 192.66 -1.20867 0.878157 0
M  V30 2058 H 194.542 -4.2125 -0.112401 0
M  V30 2059 H 193.217 -3.16338 -0.686419 0
M  V30 2060 H 192.124 -3.3713 1.62156 0
M  V30 2061 H 193.457 -4.44408 2.11571 0
M  V30 2062 N 195.109 -0.891671 -1.2995 0
M  V30 2063 C 196.019 -0.367691 -2.31701 0
M  V30 2064 C 197.035 0.533486 -1.6562 0
M  V30 2065 O 198.211 0.424997 -1.96865 0
M  V30 2066 C 195.276 0.403406 -3.44345 0
M  V30 2067 C 194.337 -0.528328 -4.26037 0
M  V30 2068 C 193.57 0.206063 -5.33302 0
M  V30 2069 O 193.793 1.43119 -5.52153 0
M  V30 2070 O 192.727 -0.447281 -6.00236 0
M  V30 2071 H 196.553 -1.21163 -2.78484 0
M  V30 2072 H 194.138 -0.655725 -1.34241 0
M  V30 2073 H 196.02 0.839753 -4.12948 0
M  V30 2074 H 194.695 1.22354 -2.99685 0
M  V30 2075 H 193.602 -1.01362 -3.60106 0
M  V30 2076 H 194.935 -1.31465 -4.74318 0
M  V30 2077 N 196.587 1.43421 -0.653314 0
M  V30 2078 C 197.535 2.32546 0.0501531 0
M  V30 2079 C 198.529 1.48617 0.812985 0
M  V30 2080 O 199.735 1.64825 0.723375 0
M  V30 2081 H 196.11 0.751185 0.0350032 0
M  V30 2082 H 198.081 2.89602 -0.719261 0
M  V30 2083 C 196.83 3.32925 1.00279 0
M  V30 2084 H 196.153 3.97532 0.425236 0
M  V30 2085 H 197.593 3.9792 1.46409 0
M  V30 2086 C 196.052 2.63532 2.09886 0
M  V30 2087 O 196.582 2.45092 3.18265 0
M  V30 2088 N 194.788 2.22905 1.86445 0
M  V30 2089 H 194.335 2.38103 0.98309 0
M  V30 2090 H 194.293 1.76805 2.59976 0
M  V30 2091 N 198.065 0.39524 1.52563 0
M  V30 2092 C 199.013 -0.451859 2.28169 0
M  V30 2093 C 200.007 -1.05792 1.32304 0
M  V30 2094 O 201.213 -0.997718 1.49818 0
M  V30 2095 H 197.588 -0.164481 0.733792 0
M  V30 2096 H 199.559 0.207199 2.9768 0
M  V30 2097 C 198.308 -1.56385 3.10546 0
M  V30 2098 H 197.631 -1.10682 3.84174 0
M  V30 2099 H 199.071 -2.13067 3.66577 0
M  V30 2100 C 197.53 -2.52328 2.23231 0
M  V30 2101 O 198.06 -3.5588 1.86312 0
M  V30 2102 N 196.266 -2.22209 1.87274 0
M  V30 2103 H 195.813 -1.38033 2.17496 0
M  V30 2104 H 195.771 -2.86652 1.29143 0
M  V30 2105 N 199.544 -1.57102 0.125237 0
M  V30 2106 C 200.492 -2.16905 -0.839927 0
M  V30 2107 C 201.486 -1.11998 -1.27094 0
M  V30 2108 O 202.692 -1.3029 -1.24195 0
M  V30 2109 H 199.067 -0.694252 -0.288995 0
M  V30 2110 H 201.038 -2.96774 -0.311115 0
M  V30 2111 C 199.787 -2.78795 -2.07771 0
M  V30 2112 H 199.11 -3.59221 -1.755 0
M  V30 2113 H 200.55 -3.2417 -2.73295 0
M  V30 2114 C 199.009 -1.76193 -2.87155 0
M  V30 2115 O 199.539 -1.21909 -3.82755 0
M  V30 2116 N 197.745 -1.45991 -2.51267 0
M  V30 2117 H 197.292 -1.90325 -1.73592 0
M  V30 2118 H 197.25 -0.775844 -3.04677 0
M  V30 2119 N 201.022 0.148545 -1.56898 0
M  V30 2120 C 201.952 1.18524 -2.01182 0
M  V30 2121 C 202.933 1.4489 -0.891123 0
M  V30 2122 O 204.118 1.55836 -1.15882 0
M  V30 2123 C 201.248 2.51879 -2.39112 0
M  V30 2124 C 200.202 2.40038 -3.54353 0
M  V30 2125 C 199.528 3.78089 -3.78091 0
M  V30 2126 C 200.828 1.88577 -4.87069 0
M  V30 2127 H 202.522 0.817029 -2.88036 0
M  V30 2128 H 200.068 0.391575 -1.38574 0
M  V30 2129 H 202.021 3.24627 -2.68692 0
M  V30 2130 H 200.745 2.90532 -1.49193 0
M  V30 2131 H 199.404 1.69742 -3.24936 0
M  V30 2132 H 199.052 4.14175 -2.85426 0
M  V30 2133 H 198.752 3.71028 -4.55645 0
M  V30 2134 H 200.276 4.52387 -4.10095 0
M  V30 2135 H 201.69 2.51117 -5.15377 0
M  V30 2136 H 200.087 1.9241 -5.68417 0
M  V30 2137 H 201.157 0.84136 -4.77545 0
M  V30 2138 N 202.5 1.5196 0.417844 0
M  V30 2139 C 203.432 1.70895 1.52733 0
M  V30 2140 C 204.445 0.589405 1.51756 0
M  V30 2141 O 205.634 0.864312 1.56179 0
M  V30 2142 C 202.734 1.72627 2.91639 0
M  V30 2143 C 201.907 3.01479 3.16905 0
M  V30 2144 C 200.966 2.95139 4.35637 0
M  V30 2145 O 199.992 3.69059 4.3334 0
M  V30 2146 N 201.194 2.12328 5.40275 0
M  V30 2147 H 203.959 2.66612 1.36888 0
M  V30 2148 H 201.52 1.50089 0.607037 0
M  V30 2149 H 203.512 1.65928 3.6912 0
M  V30 2150 H 202.082 0.844216 3.00985 0
M  V30 2151 H 201.302 3.21895 2.27546 0
M  V30 2152 H 202.59 3.86736 3.30625 0
M  V30 2153 H 201.988 1.51685 5.44985 0
M  V30 2154 H 200.545 2.11494 6.16534 0
M  V30 2155 N 203.978 -0.674533 1.42435 0
M  V30 2156 C 205.394 -0.98769 1.25367 0
M  V30 2157 C 205.594 -2.00879 0.158044 0
M  V30 2158 O 204.65 -2.48075 -0.470633 0
M  V30 2159 C 205.963 -1.49224 2.6106 0
M  V30 2160 C 207.511 -1.61 2.68417 0
M  V30 2161 C 207.986 -2.14852 4.04478 0
M  V30 2162 N 209.477 -2.22185 4.06434 0
M  V30 2163 C 210.212 -2.64928 5.08528 0
M  V30 2164 N 209.708 -3.07121 6.21006 0
M  V30 2165 N 211.501 -2.64679 4.95885 0
M  V30 2166 H 203.652 0.00152503 2.124 0
M  V30 2167 H 205.915 -0.0618434 0.945981 0
M  V30 2168 H 205.621 -0.816453 3.42092 0
M  V30 2169 H 205.495 -2.47094 2.84999 0
M  V30 2170 H 207.882 -2.27686 1.87732 0
M  V30 2171 H 207.963 -0.616195 2.48267 0
M  V30 2172 H 207.607 -1.48775 4.85622 0
M  V30 2173 H 207.537 -3.15024 4.2198 0
M  V30 2174 H 210.028 -1.92435 3.25234 0
M  V30 2175 H 210.341 -3.38423 6.94759 0
M  V30 2176 H 208.686 -3.04978 6.24511 0
M  V30 2177 H 211.877 -2.31078 4.07088 0
M  V30 2178 H 212.05 -2.9767 5.75584 0
M  V30 2179 N 205.456 -1.28612 -0.910864 0
M  V30 2180 C 206.403 -1.12786 -2.01365 0
M  V30 2181 C 207.373 -0.024201 -1.66082 0
M  V30 2182 O 208.558 -0.189667 -1.89855 0
M  V30 2183 C 205.698 -0.798743 -3.35729 0
M  V30 2184 C 204.811 -1.98173 -3.83864 0
M  V30 2185 C 203.946 -1.59298 -5.06752 0
M  V30 2186 C 202.985 -2.74245 -5.47226 0
M  V30 2187 N 202.122 -2.35842 -6.61304 0
M  V30 2188 H 206.962 -2.07142 -2.14234 0
M  V30 2189 H 204.499 -1.03093 -1.0493 0
M  V30 2190 H 206.457 -0.588662 -4.13026 0
M  V30 2191 H 205.087 0.10789 -3.2262 0
M  V30 2192 H 204.139 -2.30386 -3.02699 0
M  V30 2193 H 205.451 -2.84343 -4.09818 0
M  V30 2194 H 204.605 -1.34513 -5.916 0
M  V30 2195 H 203.344 -0.702618 -4.82612 0
M  V30 2196 H 202.349 -2.99725 -4.60918 0
M  V30 2197 H 203.574 -3.63928 -5.73353 0
M  V30 2198 H 201.52 -1.49279 -6.38789 0
M  V30 2199 H 201.437 -3.15546 -6.86998 0
M  V30 2200 H 202.705 -2.14348 -7.4945 0
M  V30 2201 N 206.934 1.1197 -1.10907 0
M  V30 2202 C 207.897 2.16031 -0.765707 0
M  V30 2203 C 208.897 1.59393 0.212235 0
M  V30 2204 O 210.087 1.74196 -0.0115441 0
M  V30 2205 C 207.219 3.40632 -0.135053 0
M  V30 2206 H 208.412 2.47919 -1.68748 0
M  V30 2207 H 205.965 1.27061 -0.910226 0
M  V30 2208 H 206.7 3.14348 0.797218 0
M  V30 2209 H 206.485 3.8302 -0.838937 0
M  V30 2210 H 207.975 4.17505 0.0892469 0
M  V30 2211 N 208.412 0.89855 1.29475 0
M  V30 2212 C 209.359 0.373819 2.27753 0
M  V30 2213 C 210.329 -0.543444 1.56958 0
M  V30 2214 O 211.514 -0.468934 1.84948 0
M  V30 2215 C 208.654 -0.393648 3.42848 0
M  V30 2216 C 207.767 0.554379 4.28428 0
M  V30 2217 C 206.902 -0.230026 5.30702 0
M  V30 2218 C 205.941 0.712599 6.07938 0
M  V30 2219 N 205.078 -0.0373283 7.0209 0
M  V30 2220 H 209.918 1.21699 2.72017 0
M  V30 2221 H 207.455 0.611456 1.33789 0
M  V30 2222 H 209.413 -0.85466 4.08352 0
M  V30 2223 H 208.043 -1.20128 2.99615 0
M  V30 2224 H 207.095 1.13391 3.63107 0
M  V30 2225 H 208.407 1.27597 4.82204 0
M  V30 2226 H 207.561 -0.752288 6.02018 0
M  V30 2227 H 206.3 -0.984758 4.77654 0
M  V30 2228 H 205.305 1.24637 5.35486 0
M  V30 2229 H 206.53 1.46664 6.63074 0
M  V30 2230 H 204.476 -0.774348 6.51414 0
M  V30 2231 H 204.393 0.624374 7.53417 0
M  V30 2232 H 205.661 -0.539891 7.77628 0
M  V30 2233 N 209.89 -1.43072 0.660911 0
M  V30 2234 C 211.139 -2.00942 0.174735 0
M  V30 2235 C 211.452 -1.52797 -1.22117 0
M  V30 2236 O 212.658 -2.02991 -1.80297 0
M  V30 2237 C 211.114 -3.58948 0.261559 0
M  V30 2238 C 210.722 -4.16085 1.66064 0
M  V30 2239 C 212.466 -4.24173 -0.166617 0
M  V30 2240 C 210.373 -5.6641 1.70098 0
M  V30 2241 H 209.303 -0.751483 0.0615631 0
M  V30 2242 H 211.954 -1.63955 0.824069 0
M  V30 2243 H 210.336 -3.93372 -0.455421 0
M  V30 2244 H 211.51 -3.93147 2.40359 0
M  V30 2245 H 209.825 -3.6326 2.03546 0
M  V30 2246 H 212.422 -5.34471 -0.156433 0
M  V30 2247 H 212.765 -3.98647 -1.19943 0
M  V30 2248 H 213.298 -3.94659 0.498875 0
M  V30 2249 H 210.037 -5.96715 2.71315 0
M  V30 2250 H 209.557 -5.91382 1.00139 0
M  V30 2251 H 211.236 -6.30585 1.44816 0
M  V30 2252 N 211.368 -0.403325 -1.52352 0
M  V30 2253 C 212.614 0.174605 -2.02047 0
M  V30 2254 C 212.947 1.45282 -1.28867 0
M  V30 2255 O 212.222 1.90483 -0.393257 0
M  V30 2256 C 212.505 0.428238 -3.57545 0
M  V30 2257 C 212.358 -0.866248 -4.4138 0
M  V30 2258 C 213.677 1.21287 -4.23057 0
M  V30 2259 H 210.796 0.0619851 -0.734389 0
M  V30 2260 H 213.438 -0.53565 -1.82293 0
M  V30 2261 H 211.588 1.03327 -3.74507 0
M  V30 2262 H 213.26 -1.50265 -4.3614 0
M  V30 2263 H 211.503 -1.47851 -4.07827 0
M  V30 2264 H 212.174 -0.643249 -5.48239 0
M  V30 2265 H 214.65 0.700703 -4.10158 0
M  V30 2266 H 213.526 1.35909 -5.31808 0
M  V30 2267 H 213.787 2.23193 -3.81625 0
M  V30 2268 N 212.846 1.57033 -0.133567 0
M  V30 2269 C 213.779 2.11824 0.848872 0
M  V30 2270 C 214.757 1.03833 1.2513 0
M  V30 2271 O 215.941 1.31579 1.34978 0
M  V30 2272 C 213.068 2.62692 2.138 0
M  V30 2273 C 212.114 3.82705 1.88253 0
M  V30 2274 S 212.947 5.2438 1.08563 0
M  V30 2275 C 214.103 5.78627 2.38624 0
M  V30 2276 H 214.336 2.94824 0.38289 0
M  V30 2277 H 211.869 1.5419 0.0804796 0
M  V30 2278 H 213.827 2.92652 2.87863 0
M  V30 2279 H 212.488 1.79847 2.57515 0
M  V30 2280 H 211.681 4.16496 2.83809 0
M  V30 2281 H 211.283 3.53437 1.22305 0
M  V30 2282 H 213.575 5.8924 3.34369 0
M  V30 2283 H 214.518 6.76443 2.09358 0
M  V30 2284 H 214.926 5.06783 2.48658 0
M  V30 2285 N 214.325 -0.140222 1.56975 0
M  V30 2286 C 215.235 -1.19223 2.02047 0
M  V30 2287 C 216.251 -1.46612 0.937062 0
M  V30 2288 O 217.427 -1.58148 1.24704 0
M  V30 2289 C 214.492 -2.50414 2.39778 0
M  V30 2290 C 213.553 -2.30612 3.621 0
M  V30 2291 C 212.786 -3.55547 3.98023 0
M  V30 2292 O 213.009 -4.62004 3.34528 0
M  V30 2293 O 211.943 -3.47808 4.91237 0
M  V30 2294 H 215.769 -0.839559 2.91865 0
M  V30 2295 H 213.354 -0.349453 1.45256 0
M  V30 2296 H 215.236 -3.27747 2.64877 0
M  V30 2297 H 213.911 -2.85198 1.53114 0
M  V30 2298 H 212.818 -1.51207 3.4218 0
M  V30 2299 H 214.151 -2.00741 4.49404 0
M  V30 2300 N 215.803 -1.52179 -0.40978 0
M  V30 2301 C 217.033 -1.69807 -1.17682 0
M  V30 2302 C 217.441 -0.406908 -1.84773 0
M  V30 2303 O 216.784 0.626863 -1.72673 0
M  V30 2304 C 216.846 -2.77712 -2.2829 0
M  V30 2305 C 216.51 -4.19481 -1.81341 0
M  V30 2306 C 217.507 -5.03345 -1.30154 0
M  V30 2307 C 215.192 -4.65713 -1.88194 0
M  V30 2308 C 217.186 -6.31511 -0.864416 0
M  V30 2309 C 214.873 -5.93869 -1.44093 0
M  V30 2310 C 215.871 -6.76597 -0.933023 0
M  V30 2311 O 215.559 -8.02354 -0.49838 0
M  V30 2312 H 215.291 -0.572372 -0.359675 0
M  V30 2313 H 217.845 -1.99511 -0.488311 0
M  V30 2314 H 216.075 -2.43383 -3.00502 0
M  V30 2315 H 217.764 -2.83946 -2.90051 0
M  V30 2316 H 218.53 -4.68819 -1.24232 0
M  V30 2317 H 214.409 -4.01424 -2.26671 0
M  V30 2318 H 217.953 -6.96033 -0.467286 0
M  V30 2319 H 213.85 -6.27903 -1.49694 0
M  V30 2320 H 214.618 -8.16135 -0.621747 0
M  V30 2321 N 217.281 0.66697 -1.42791 0
M  V30 2322 C 218.511 1.45294 -1.46878 0
M  V30 2323 C 218.919 1.89027 -0.0809861 0
M  V30 2324 O 218.262 1.59219 0.916246 0
M  V30 2325 C 218.324 2.72908 -2.34012 0
M  V30 2326 C 217.988 2.51203 -3.81767 0
M  V30 2327 C 218.985 2.15302 -4.73224 0
M  V30 2328 C 216.67 2.65954 -4.26115 0
M  V30 2329 C 218.664 1.94431 -6.07022 0
M  V30 2330 C 216.351 2.44699 -5.59969 0
M  V30 2331 C 217.349 2.08992 -6.5024 0
M  V30 2332 O 217.037 1.87948 -7.81621 0
M  V30 2333 H 216.769 0.453306 -0.501487 0
M  V30 2334 H 219.323 0.826232 -1.88049 0
M  V30 2335 H 217.553 3.38089 -1.87703 0
M  V30 2336 H 219.242 3.34816 -2.29462 0
M  V30 2337 H 220.008 2.03495 -4.40244 0
M  V30 2338 H 215.887 2.92724 -3.56137 0
M  V30 2339 H 219.431 1.66484 -6.77443 0
M  V30 2340 H 215.328 2.56105 -5.9252 0
M  V30 2341 H 216.096 2.02483 -7.93059 0
M  V30 2342 N 218.759 1.29093 0.90403 0
M  V30 2343 C 220.175 1.07011 1.1841 0
M  V30 2344 C 220.375 -0.181358 2.00682 0
M  V30 2345 O 219.431 -0.880331 2.36657 0
M  V30 2346 C 220.744 2.32311 1.90924 0
M  V30 2347 C 222.292 2.37587 2.03768 0
M  V30 2348 C 222.767 3.62679 2.79693 0
M  V30 2349 N 224.258 3.63376 2.87249 0
M  V30 2350 C 224.993 4.56848 3.46522 0
M  V30 2351 N 224.489 5.60648 4.06996 0
M  V30 2352 N 226.282 4.44426 3.44154 0
M  V30 2353 H 218.433 2.09412 0.354993 0
M  V30 2354 H 220.696 0.922181 0.219742 0
M  V30 2355 H 220.402 3.23536 1.37905 0
M  V30 2356 H 220.276 2.39483 2.91424 0
M  V30 2357 H 222.663 1.46853 2.55965 0
M  V30 2358 H 222.744 2.34403 1.02415 0
M  V30 2359 H 222.388 4.53762 2.28173 0
M  V30 2360 H 222.318 3.63119 3.81381 0
M  V30 2361 H 224.809 2.88321 2.44293 0
M  V30 2362 H 225.122 6.28101 4.50232 0
M  V30 2363 H 223.467 5.64463 4.05471 0
M  V30 2364 H 226.658 3.62529 2.96126 0
M  V30 2365 H 226.831 5.17457 3.90054 0
M  V30 2366 N 220.237 -1.11381 1.11499 0
M  V30 2367 C 221.485 -1.8277 0.862524 0
M  V30 2368 C 221.806 -1.85097 -0.613534 0
M  V30 2369 O 221.076 -1.32198 -1.4457 0
M  V30 2370 H 219.656 -0.676823 0.316101 0
M  V30 2371 H 222.318 -1.34816 1.4075 0
M  V30 2372 H 221.414 -2.86614 1.23527 0
M  V30 2373 N 221.715 -0.905404 -1.28997 0
M  V30 2374 C 222.992 -0.453513 -1.9027 0
M  V30 2375 C 223.372 1.06721 -1.82137 0
M  V30 2376 O 222.72 1.91159 -1.25182 0
M  V30 2377 C 222.93 -0.974494 -3.35119 0
M  V30 2378 C 224.278 -1.0216 -4.12127 0
M  V30 2379 O 225.302 -0.922557 -3.44046 0
M  V30 2380 O 224.161 -1.17121 -5.33802 0
M  V30 2381 H 221.255 -0.142347 -0.814657 0
M  V30 2382 H 223.801 -0.995642 -1.37423 0
M  V30 2383 H 222.573 -2.01848 -3.35221 0
M  V30 2384 H 222.196 -0.412706 -3.95452 0
M  V30 2385 N 223.193 1.4272 -0.668489 0
M  V30 2386 C 224.103 2.34596 0.0139753 0
M  V30 2387 C 225.119 1.5474 0.795703 0
M  V30 2388 O 226.295 1.87334 0.739466 0
M  V30 2389 C 223.36 3.33202 0.957982 0
M  V30 2390 C 222.421 4.28957 0.17149 0
M  V30 2391 C 221.654 5.22853 1.07053 0
M  V30 2392 O 221.877 5.21531 2.31001 0
M  V30 2393 O 220.811 5.9952 0.534727 0
M  V30 2394 H 224.637 2.9448 -0.742661 0
M  V30 2395 H 222.222 1.43117 -0.428705 0
M  V30 2396 H 224.104 3.93796 1.50008 0
M  V30 2397 H 222.779 2.758 1.69458 0
M  V30 2398 H 221.686 3.71796 -0.414558 0
M  V30 2399 H 223.019 4.89383 -0.52586 0
M  V30 2400 N 224.671 0.411399 1.52136 0
M  V30 2401 C 226.082 -0.0576826 1.86611 0
M  V30 2402 C 226.433 -1.44238 1.33003 0
M  V30 2403 O 225.558 -2.05759 0.670228 0
M  V30 2404 C 226.153 -0.111448 3.38617 0
M  V30 2405 C 224.712 -0.52487 3.72723 0
M  V30 2406 C 223.859 0.299176 2.75681 0
M  V30 2407 H 226.81 0.628368 1.4573 0
M  V30 2408 H 226.831 -0.926252 3.69054 0
M  V30 2409 H 226.343 0.896488 3.77604 0
M  V30 2410 H 224.444 -1.53936 3.39315 0
M  V30 2411 H 224.557 -0.267681 4.78352 0
M  V30 2412 H 222.921 -0.238814 2.53578 0
M  V30 2413 H 223.704 1.3055 3.17508 0
M  V30 2414 N 226.149 -1.5696 0.141893 0
M  V30 2415 C 227.079 -2.19516 -0.795936 0
M  V30 2416 C 228.06 -1.14187 -1.26077 0
M  V30 2417 O 229.245 -1.42511 -1.31925 0
M  V30 2418 C 226.375 -2.81272 -2.03723 0
M  V30 2419 C 225.329 -3.92384 -1.70936 0
M  V30 2420 C 224.655 -4.41052 -3.02287 0
M  V30 2421 C 225.955 -5.13403 -0.959954 0
M  V30 2422 H 227.649 -2.98138 -0.274596 0
M  V30 2423 H 225.195 -1.43406 -0.130636 0
M  V30 2424 H 227.148 -3.237 -2.69808 0
M  V30 2425 H 225.872 -1.99973 -2.58221 0
M  V30 2426 H 224.531 -3.50566 -1.07232 0
M  V30 2427 H 224.179 -3.56582 -3.54765 0
M  V30 2428 H 223.879 -5.15993 -2.81114 0
M  V30 2429 H 225.403 -4.86146 -3.69451 0
M  V30 2430 H 226.817 -5.52706 -1.52279 0
M  V30 2431 H 225.214 -5.94073 -0.848357 0
M  V30 2432 H 226.284 -4.84875 0.0492434 0
M  V30 2433 N 227.627 0.131896 -1.57047 0
M  V30 2434 C 228.574 1.16236 -1.99393 0
M  V30 2435 C 229.544 1.41863 -0.863943 0
M  V30 2436 O 230.729 1.53946 -1.12718 0
M  V30 2437 C 227.869 2.48708 -2.39245 0
M  V30 2438 C 226.982 2.30127 -3.65603 0
M  V30 2439 C 226.117 3.55738 -3.94492 0
M  V30 2440 C 225.156 3.32259 -5.14073 0
M  V30 2441 N 224.293 4.50039 -5.38896 0
M  V30 2442 H 229.133 0.794251 -2.87221 0
M  V30 2443 H 226.67 0.380707 -1.42088 0
M  V30 2444 H 228.628 3.25969 -2.60384 0
M  V30 2445 H 227.258 2.83437 -1.54478 0
M  V30 2446 H 226.31 1.43845 -3.52154 0
M  V30 2447 H 227.622 2.08746 -4.5302 0
M  V30 2448 H 226.776 4.41423 -4.1621 0
M  V30 2449 H 225.515 3.80138 -3.05526 0
M  V30 2450 H 224.52 2.44963 -4.92212 0
M  V30 2451 H 225.745 3.09242 -6.04604 0
M  V30 2452 H 223.691 4.74584 -4.52886 0
M  V30 2453 H 223.608 4.31716 -6.2061 0
M  V30 2454 H 224.876 5.36895 -5.65123 0
M  V30 2455 N 229.106 1.52395 0.401703 0
M  V30 2456 C 230.522 1.41363 0.740864 0
M  V30 2457 C 230.722 0.523982 1.94568 0
M  V30 2458 O 229.778 -0.00741204 2.52499 0
M  V30 2459 C 231.091 2.84011 0.987847 0
M  V30 2460 C 232.639 2.93404 1.09011 0
M  V30 2461 C 233.114 4.37036 1.3698 0
M  V30 2462 N 234.605 4.40304 1.43829 0
M  V30 2463 C 235.34 5.48508 1.67112 0
M  V30 2464 N 234.836 6.66819 1.87949 0
M  V30 2465 N 236.629 5.36034 1.69187 0
M  V30 2466 H 228.78 2.08765 -0.391262 0
M  V30 2467 H 231.043 0.941265 -0.112798 0
M  V30 2468 H 230.749 3.51265 0.174835 0
M  V30 2469 H 230.623 3.25502 1.906 0
M  V30 2470 H 233.01 2.26325 1.8937 0
M  V30 2471 H 233.091 2.55359 0.15015 0
M  V30 2472 H 232.735 5.04676 0.571353 0
M  V30 2473 H 232.665 4.72623 2.3224 0
M  V30 2474 H 235.156 3.55024 1.29486 0
M  V30 2475 H 235.469 7.45063 2.05185 0
M  V30 2476 H 233.814 6.6987 1.85199 0
M  V30 2477 H 237.005 4.42579 1.52451 0
M  V30 2478 H 237.178 6.20434 1.86993 0
M  V30 2479 N 230.584 -0.659388 1.43143 0
M  V30 2480 C 231.531 -1.77249 1.47822 0
M  V30 2481 C 232.501 -1.62818 0.328558 0
M  V30 2482 O 233.686 -1.83151 0.534838 0
M  V30 2483 C 230.826 -3.15371 1.40126 0
M  V30 2484 C 229.939 -3.4098 2.65249 0
M  V30 2485 C 229.074 -4.68915 2.49584 0
M  V30 2486 C 228.113 -4.87608 3.70006 0
M  V30 2487 N 227.25 -6.06796 3.53189 0
M  V30 2488 H 232.09 -1.72584 2.42938 0
M  V30 2489 H 229.627 -0.842297 1.20598 0
M  V30 2490 H 231.585 -3.9521 1.33659 0
M  V30 2491 H 230.215 -3.19121 0.485964 0
M  V30 2492 H 229.267 -2.55282 2.8202 0
M  V30 2493 H 230.579 -3.50681 3.54717 0
M  V30 2494 H 229.733 -5.56871 2.4079 0
M  V30 2495 H 228.472 -4.61524 1.5763 0
M  V30 2496 H 227.477 -3.9809 3.79215 0
M  V30 2497 H 228.702 -4.96834 4.62961 0
M  V30 2498 H 226.648 -6.00549 2.63965 0
M  V30 2499 H 226.565 -6.17428 4.36255 0
M  V30 2500 H 227.833 -6.9739 3.48236 0
M  V30 2501 N 232.062 -1.29571 -0.897171 0
M  V30 2502 C 233.308 -1.17863 -1.65034 0
M  V30 2503 C 233.641 0.268729 -1.92332 0
M  V30 2504 O 232.916 1.19378 -1.53555 0
M  V30 2505 C 233.199 -1.995 -2.99786 0
M  V30 2506 C 233.052 -3.5239 -2.79538 0
M  V30 2507 C 234.371 -1.82335 -4.00552 0
M  V30 2508 H 231.49 -0.429528 -0.598895 0
M  V30 2509 H 234.132 -1.59072 -1.03905 0
M  V30 2510 H 232.282 -1.64485 -3.51962 0
M  V30 2511 H 233.954 -3.97401 -2.34244 0
M  V30 2512 H 232.197 -3.77187 -2.14273 0
M  V30 2513 H 232.868 -4.04787 -3.75302 0
M  V30 2514 H 235.344 -2.12924 -3.57495 0
M  V30 2515 H 234.22 -2.41801 -4.92771 0
M  V30 2516 H 234.481 -0.779209 -4.35179 0
M  V30 2517 N 233.54 1.10788 -1.12088 0
M  V30 2518 C 234.503 2.15207 -0.788577 0
M  V30 2519 C 235.503 1.59609 0.195317 0
M  V30 2520 O 236.693 1.74174 -0.0300193 0
M  V30 2521 C 233.825 3.4047 -0.171174 0
M  V30 2522 H 235.018 2.46116 -1.71368 0
M  V30 2523 H 232.571 1.26089 -0.923652 0
M  V30 2524 H 233.306 3.15176 0.763832 0
M  V30 2525 H 233.091 3.82109 -0.879514 0
M  V30 2526 H 234.581 4.17576 0.04496 0
M  V30 2527 N 235.018 0.912232 1.28515 0
M  V30 2528 C 236.243 0.559774 1.99703 0
M  V30 2529 C 236.668 -0.851393 1.67729 0
M  V30 2530 O 236.026 -1.56875 0.908834 0
M  V30 2531 C 236.074 0.773874 3.52198 0
M  V30 2532 O 235.178 -0.167842 4.12058 0
M  V30 2533 H 234.519 0.21723 0.627461 0
M  V30 2534 H 237.049 1.22725 1.63706 0
M  V30 2535 H 237.059 0.683386 4.02236 0
M  V30 2536 H 235.734 1.80261 3.74805 0
M  V30 2537 H 234.311 -0.0287509 3.72889 0
M  V30 2538 N 236.496 -1.42363 0.676048 0
M  V30 2539 C 237.724 -2.05859 0.207268 0
M  V30 2540 C 238.139 -1.50796 -1.13605 0
M  V30 2541 O 237.496 -0.648265 -1.70598 0
M  V30 2542 C 237.547 -3.61248 0.134975 0
M  V30 2543 O 237.268 -4.1427 1.42521 0
M  V30 2544 C 238.769 -4.41859 -0.357151 0
M  V30 2545 H 235.989 -0.663431 0.100503 0
M  V30 2546 H 238.533 -1.82479 0.923136 0
M  V30 2547 H 236.688 -3.83735 -0.531588 0
M  V30 2548 H 237.102 -5.0815 1.29939 0
M  V30 2549 H 238.576 -5.50847 -0.356641 0
M  V30 2550 H 239.053 -4.16536 -1.39264 0
M  V30 2551 H 239.659 -4.24392 0.27772 0
M  V30 2552 N 237.974 -0.419461 -1.51915 0
M  V30 2553 C 238.904 0.391813 -2.30189 0
M  V30 2554 C 239.885 1.03699 -1.34836 0
M  V30 2555 O 241.07 1.04403 -1.63748 0
M  V30 2556 C 238.2 1.50312 -3.13087 0
M  V30 2557 C 237.154 0.9824 -4.16573 0
M  V30 2558 C 236.48 2.18809 -4.8788 0
M  V30 2559 C 237.78 0.0292356 -5.22292 0
M  V30 2560 H 239.474 -0.26135 -2.98257 0
M  V30 2561 H 237.02 -0.127134 -1.43438 0
M  V30 2562 H 238.973 2.07773 -3.66617 0
M  V30 2563 H 237.697 2.18431 -2.42807 0
M  V30 2564 H 236.356 0.430119 -3.64068 0
M  V30 2565 H 236.004 2.85507 -4.14119 0
M  V30 2566 H 235.704 1.84615 -5.57845 0
M  V30 2567 H 237.228 2.76858 -5.44226 0
M  V30 2568 H 238.642 0.512976 -5.71 0
M  V30 2569 H 237.039 -0.2244 -5.9968 0
M  V30 2570 H 238.109 -0.912931 -4.76228 0
M  V30 2571 N 239.452 1.56882 -0.150215 0
M  V30 2572 C 240.382 2.19935 0.784284 0
M  V30 2573 C 241.363 1.14854 1.25469 0
M  V30 2574 O 242.548 1.43209 1.31168 0
M  V30 2575 C 239.678 2.82349 2.02229 0
M  V30 2576 C 238.632 3.93285 1.68853 0
M  V30 2577 C 237.958 4.42649 2.99944 0
M  V30 2578 C 239.258 5.13904 0.932714 0
M  V30 2579 H 240.952 2.9828 0.258781 0
M  V30 2580 H 238.498 1.43473 0.123029 0
M  V30 2581 H 240.451 3.25126 2.68088 0
M  V30 2582 H 239.175 2.0134 2.57157 0
M  V30 2583 H 237.834 3.5113 1.05371 0
M  V30 2584 H 237.482 3.58458 3.52869 0
M  V30 2585 H 237.182 5.17476 2.78374 0
M  V30 2586 H 238.706 4.88099 3.66868 0
M  V30 2587 H 240.12 5.53506 1.49345 0
M  V30 2588 H 238.517 5.94515 0.81684 0
M  V30 2589 H 239.587 4.84842 -0.0749568 0
M  V30 2590 N 240.93 -0.123565 1.57115 0
M  V30 2591 C 241.84 -1.17074 2.033 0
M  V30 2592 C 242.856 -1.4561 0.952559 0
M  V30 2593 O 244.032 -1.56817 1.26374 0
M  V30 2594 C 241.097 -2.47857 2.42421 0
M  V30 2595 C 240.158 -2.26758 3.64526 0
M  V30 2596 C 239.391 -3.51305 4.01771 0
M  V30 2597 O 239.614 -4.5843 3.39409 0
M  V30 2598 O 238.548 -3.42578 4.94898 0
M  V30 2599 H 242.374 -0.808555 2.92739 0
M  V30 2600 H 239.959 -0.334027 1.45618 0
M  V30 2601 H 241.841 -3.2492 2.68338 0
M  V30 2602 H 240.516 -2.83558 1.5613 0
M  V30 2603 H 239.423 -1.47569 3.43765 0
M  V30 2604 H 240.756 -1.95963 4.51508 0
M  V30 2605 N 242.408 -1.52605 -0.393616 0
M  V30 2606 C 243.633 -1.71592 -1.16495 0
M  V30 2607 C 244.058 -0.43133 -1.83088 0
M  V30 2608 O 243.416 0.612523 -1.7064 0
M  V30 2609 C 243.464 -2.86318 -2.19213 0
M  V30 2610 O 242.568 -2.52969 -3.257 0
M  V30 2611 H 241.909 -0.570734 -0.33935 0
M  V30 2612 H 244.439 -1.99377 -0.459324 0
M  V30 2613 H 244.449 -3.1168 -2.63286 0
M  V30 2614 H 243.124 -3.79511 -1.7013 0
M  V30 2615 H 241.701 -2.38332 -2.86797 0
M  V30 2616 N 243.887 0.651787 -1.4349 0
M  V30 2617 C 245.134 1.41167 -1.45183 0
M  V30 2618 C 245.462 1.94349 -0.0766601 0
M  V30 2619 O 244.717 1.72804 0.918555 0
M  V30 2620 C 245.016 2.60914 -2.44251 0
M  V30 2621 C 244.682 2.26142 -3.9009 0
M  V30 2622 C 243.344 2.16371 -4.2981 0
M  V30 2623 C 245.696 1.98334 -4.81989 0
M  V30 2624 C 243.024 1.7695 -5.5938 0
M  V30 2625 C 245.376 1.6041 -6.11924 0
M  V30 2626 C 244.04 1.49166 -6.5062 0
M  V30 2627 H 243.31 0.516566 -0.531263 0
M  V30 2628 H 245.957 0.741099 -1.76579 0
M  V30 2629 H 244.262 3.3311 -2.06265 0
M  V30 2630 H 245.959 3.19127 -2.42815 0
M  V30 2631 H 242.549 2.34658 -3.58655 0
M  V30 2632 H 246.733 2.04803 -4.52072 0
M  V30 2633 H 241.989 1.66831 -5.88198 0
M  V30 2634 H 246.163 1.37925 -6.82605 0
M  V30 2635 H 243.79 1.1839 -7.50925 0
M  V30 2636 N 245.365 1.30045 0.890287 0
M  V30 2637 C 246.295 1.18541 2.01172 0
M  V30 2638 C 247.276 0.0773356 1.69924 0
M  V30 2639 O 248.461 0.25845 1.92473 0
M  V30 2640 C 245.591 0.870941 3.36202 0
M  V30 2641 C 244.545 1.93637 3.81692 0
M  V30 2642 C 243.871 1.475 5.13953 0
M  V30 2643 C 245.171 3.34666 4.00994 0
M  V30 2644 H 246.865 2.12359 2.11054 0
M  V30 2645 H 244.411 1.02238 1.01407 0
M  V30 2646 H 246.364 0.777141 4.14172 0
M  V30 2647 H 245.088 -0.102926 3.26438 0
M  V30 2648 H 243.747 2.01972 3.05946 0
M  V30 2649 H 243.395 0.489551 5.00612 0
M  V30 2650 H 243.095 2.1876 5.4536 0
M  V30 2651 H 244.619 1.39489 5.94454 0
M  V30 2652 H 246.033 3.2912 4.69417 0
M  V30 2653 H 244.43 4.03966 4.43769 0
M  V30 2654 H 245.5 3.76949 3.05021 0
M  V30 2655 N 246.843 -1.10192 1.12674 0
M  V30 2656 C 248.09 -1.82205 0.883606 0
M  V30 2657 C 248.418 -1.8532 -0.590492 0
M  V30 2658 O 247.673 -1.31137 -1.45264 0
M  V30 2659 C 247.972 -3.28552 1.4067 0
M  V30 2660 C 247.638 -3.45582 2.89627 0
M  V30 2661 C 246.3 -3.49937 3.30299 0
M  V30 2662 C 248.652 -3.50768 3.85501 0
M  V30 2663 C 245.98 -3.57049 4.65546 0
M  V30 2664 C 248.332 -3.59414 5.20581 0
M  V30 2665 C 246.996 -3.62034 5.60792 0
M  V30 2666 H 246.266 -0.666735 0.323334 0
M  V30 2667 H 248.913 -1.29868 1.40736 0
M  V30 2668 H 247.218 -3.83473 0.80347 0
M  V30 2669 H 248.915 -3.82788 1.19475 0
M  V30 2670 H 245.505 -3.42871 2.57172 0
M  V30 2671 H 249.689 -3.46651 3.55171 0
M  V30 2672 H 244.945 -3.57361 4.96088 0
M  V30 2673 H 249.119 -3.62371 5.94693 0
M  V30 2674 H 246.746 -3.67298 6.6558 0
M  V30 2675 N 248.321 -0.919034 -1.28029 0
M  V30 2676 C 249.551 -0.570143 -1.98577 0
M  V30 2677 C 249.959 0.854172 -1.68821 0
M  V30 2678 O 249.302 1.57807 -0.940351 0
M  V30 2679 C 249.364 -0.705734 -3.52505 0
M  V30 2680 C 249.028 -2.10057 -4.05863 0
M  V30 2681 C 250.025 -3.07385 -4.19298 0
M  V30 2682 C 247.71 -2.41517 -4.40426 0
M  V30 2683 C 249.704 -4.34287 -4.66555 0
M  V30 2684 C 247.391 -3.68657 -4.87376 0
M  V30 2685 C 248.389 -4.64856 -5.00398 0
M  V30 2686 O 248.077 -5.89735 -5.46322 0
M  V30 2687 H 247.809 -0.215592 -0.6407 0
M  V30 2688 H 250.363 -1.23583 -1.64062 0
M  V30 2689 H 248.593 0.0170414 -3.86696 0
M  V30 2690 H 250.282 -0.363172 -4.04272 0
M  V30 2691 H 251.048 -2.84398 -3.92865 0
M  V30 2692 H 246.927 -1.67389 -4.29537 0
M  V30 2693 H 250.471 -5.09377 -4.76635 0
M  V30 2694 H 246.368 -3.91466 -5.13249 0
M  V30 2695 H 247.136 -5.92599 -5.64596 0
M  V30 2696 N 249.799 1.42003 -0.683588 0
M  V30 2697 C 251.024 2.06265 -0.216647 0
M  V30 2698 C 251.449 1.51059 1.12083 0
M  V30 2699 O 250.807 0.632638 1.69904 0
M  V30 2700 C 250.855 3.60191 -0.171759 0
M  V30 2701 O 249.959 4.03396 0.857069 0
M  V30 2702 H 249.3 0.65502 -0.108834 0
M  V30 2703 H 251.83 1.81982 -0.935077 0
M  V30 2704 H 251.84 4.08 0.0014303 0
M  V30 2705 H 250.515 3.99743 -1.14796 0
M  V30 2706 H 249.092 3.67117 0.654208 0
M  V30 2707 N 251.277 0.427512 1.51691 0
M  V30 2708 C 252.525 -0.141948 2.01601 0
M  V30 2709 C 252.846 -1.44067 1.31414 0
M  V30 2710 O 252.116 -1.90763 0.445658 0
M  V30 2711 H 250.696 -0.0554468 0.744939 0
M  V30 2712 H 253.358 0.567968 1.86441 0
M  V30 2713 H 252.454 -0.324913 3.10404 0
M  V30 2714 N 252.755 -1.56801 0.158532 0
M  V30 2715 C 254.002 -1.9649 -0.489679 0
M  V30 2716 C 254.33 -1.04394 -1.6411 0
M  V30 2717 O 253.585 -0.0754401 -1.95555 0
M  V30 2718 C 253.884 -3.4235 -1.02623 0
M  V30 2719 C 253.55 -4.50899 0.00794526 0
M  V30 2720 C 252.212 -4.80312 0.292207 0
M  V30 2721 C 254.564 -5.16333 0.710584 0
M  V30 2722 C 251.892 -5.72461 1.28472 0
M  V30 2723 C 254.244 -6.09553 1.69199 0
M  V30 2724 C 252.908 -6.37339 1.98383 0
M  V30 2725 H 252.178 -0.719009 -0.179186 0
M  V30 2726 H 254.825 -1.8989 0.247798 0
M  V30 2727 H 253.13 -3.45838 -1.84128 0
M  V30 2728 H 254.827 -3.70393 -1.53656 0
M  V30 2729 H 251.417 -4.28015 -0.22379 0
M  V30 2730 H 255.601 -4.93732 0.504174 0
M  V30 2731 H 250.857 -5.92278 1.51714 0
M  V30 2732 H 255.031 -6.59327 2.24189 0
M  V30 2733 H 252.658 -7.08546 2.7544 0
M  V30 2734 N 254.233 0.115231 -1.57178 0
M  V30 2735 C 255.463 0.835224 -1.88964 0
M  V30 2736 C 255.871 1.73774 -0.74829 0
M  V30 2737 O 255.214 1.81401 0.289739 0
M  V30 2738 C 255.276 1.7178 -3.15804 0
M  V30 2739 C 254.94 0.989198 -4.46166 0
M  V30 2740 C 255.937 0.328263 -5.18863 0
M  V30 2741 C 253.622 0.969256 -4.9286 0
M  V30 2742 C 255.616 -0.342873 -6.36477 0
M  V30 2743 C 253.303 0.294324 -6.10391 0
M  V30 2744 C 254.301 -0.360582 -6.82048 0
M  V30 2745 O 253.989 -1.02474 -7.97342 0
M  V30 2746 H 253.721 0.245197 -0.629964 0
M  V30 2747 H 256.275 0.10303 -2.05141 0
M  V30 2748 H 254.505 2.49173 -2.95719 0
M  V30 2749 H 256.194 2.31255 -3.33581 0
M  V30 2750 H 256.96 0.335263 -4.8384 0
M  V30 2751 H 252.839 1.46844 -4.36987 0
M  V30 2752 H 256.383 -0.854629 -6.92345 0
M  V30 2753 H 252.28 0.285099 -6.4487 0
M  V30 2754 H 253.048 -0.929594 -8.13204 0
M  V30 2755 N 255.711 1.52812 0.385517 0
M  V30 2756 C 256.641 1.80808 1.47752 0
M  V30 2757 C 257.622 0.660318 1.5676 0
M  V30 2758 O 258.807 0.908246 1.71652 0
M  V30 2759 C 255.937 1.98008 2.85324 0
M  V30 2760 C 254.891 3.13709 2.91154 0
M  V30 2761 C 254.217 3.16169 4.31209 0
M  V30 2762 C 255.517 4.52709 2.60483 0
M  V30 2763 H 257.211 2.72253 1.24573 0
M  V30 2764 H 254.757 1.31003 0.597839 0
M  V30 2765 H 256.71 2.16176 3.61726 0
M  V30 2766 H 255.434 1.03255 3.09848 0
M  V30 2767 H 254.093 2.95329 2.17201 0
M  V30 2768 H 253.741 2.19092 4.52778 0
M  V30 2769 H 253.441 3.93894 4.36029 0
M  V30 2770 H 254.965 3.36496 5.09512 0
M  V30 2771 H 256.379 4.71173 3.26602 0
M  V30 2772 H 254.776 5.32528 2.76648 0
M  V30 2773 H 255.846 4.59186 1.55809 0
M  V30 2774 N 257.189 -0.644168 1.43834 0
M  V30 2775 C 258.6 -1.22554 1.40845 0
M  V30 2776 C 258.951 -1.9585 0.117115 0
M  V30 2777 O 258.076 -2.01734 -0.783086 0
M  V30 2778 C 258.671 -2.22907 2.55143 0
M  V30 2779 C 257.23 -2.76501 2.5539 0
M  V30 2780 C 256.377 -1.51287 2.32396 0
M  V30 2781 H 259.328 -0.43563 1.52604 0
M  V30 2782 H 259.349 -3.05259 2.2715 0
M  V30 2783 H 258.861 -1.69533 3.49114 0
M  V30 2784 H 256.962 -3.33914 1.65324 0
M  V30 2785 H 257.075 -3.23429 3.53455 0
M  V30 2786 H 255.439 -1.78957 1.81236 0
M  V30 2787 H 256.222 -0.998336 3.28463 0
M  V30 2788 N 258.668 -1.30515 -0.883378 0
M  V30 2789 C 259.601 -1.11359 -1.99184 0
M  V30 2790 C 260.579 -0.0207858 -1.62587 0
M  V30 2791 O 261.763 -0.174646 -1.87689 0
M  V30 2792 C 258.89 -0.69871 -3.31415 0
M  V30 2793 C 257.936 -1.79261 -3.86998 0
M  V30 2794 S 258.769 -3.39536 -4.14096 0
M  V30 2795 C 259.925 -2.99954 -5.49344 0
M  V30 2796 H 260.158 -2.052 -2.15128 0
M  V30 2797 H 257.691 -1.14847 -1.03196 0
M  V30 2798 H 259.649 -0.466075 -4.07846 0
M  V30 2799 H 258.31 0.220368 -3.13326 0
M  V30 2800 H 257.503 -1.45464 -4.82552 0
M  V30 2801 H 257.105 -1.97961 -3.17313 0
M  V30 2802 H 259.397 -2.48013 -6.30473 0
M  V30 2803 H 260.34 -3.9442 -5.8808 0
M  V30 2804 H 260.748 -2.37775 -5.1198 0
M  V30 2805 N 260.146 1.09593 -1.13257 0
M  V30 2806 C 261.376 1.85231 -0.915049 0
M  V30 2807 C 261.784 1.81345 0.539498 0
M  V30 2808 O 261.127 1.20664 1.38513 0
M  V30 2809 C 261.189 3.34275 -1.3229 0
M  V30 2810 C 260.853 3.6191 -2.79052 0
M  V30 2811 C 261.85 3.57777 -3.77216 0
M  V30 2812 C 259.535 3.90309 -3.16171 0
M  V30 2813 C 261.529 3.81652 -5.1051 0
M  V30 2814 C 259.216 4.13839 -4.49644 0
M  V30 2815 C 260.214 4.09502 -5.46623 0
M  V30 2816 O 259.902 4.32426 -6.77689 0
M  V30 2817 H 259.634 0.591997 -0.326367 0
M  V30 2818 H 262.188 1.394 -1.50854 0
M  V30 2819 H 260.418 3.80805 -0.672667 0
M  V30 2820 H 262.107 3.9132 -1.07812 0
M  V30 2821 H 262.873 3.35865 -3.49885 0
M  V30 2822 H 258.752 3.92811 -2.41289 0
M  V30 2823 H 262.296 3.78182 -5.86195 0
M  V30 2824 H 258.193 4.35232 -4.767 0
M  V30 2825 H 258.961 4.49896 -6.83766 0
M  V30 2826 N 261.624 0.925811 1.2754 0
M  V30 2827 C 262.87 0.575575 1.95086 0
M  V30 2828 C 263.225 -0.873246 1.71441 0
M  V30 2829 O 262.518 -1.61443 1.03183 0
M  V30 2830 C 262.712 0.835296 3.47502 0
M  V30 2831 C 262.541 2.30781 3.85967 0
M  V30 2832 C 261.311 2.96017 4.09514 0
M  V30 2833 C 263.509 3.28519 3.95702 0
M  V30 2834 N 261.491 4.3344 4.34744 0
M  V30 2835 C 262.862 4.51146 4.25285 0
M  V30 2836 C 264.917 3.23753 3.7827 0
M  V30 2837 C 263.62 5.69606 4.39251 0
M  V30 2838 C 265.646 4.41523 3.9346 0
M  V30 2839 C 265.008 5.62928 4.23428 0
M  V30 2840 H 261.107 0.260711 0.737261 0
M  V30 2841 H 263.691 1.19204 1.53943 0
M  V30 2842 H 261.862 0.248005 3.87607 0
M  V30 2843 H 263.594 0.447878 4.02214 0
M  V30 2844 H 260.349 2.46695 4.04275 0
M  V30 2845 H 260.773 5.04528 4.5142 0
M  V30 2846 H 265.415 2.3096 3.54143 0
M  V30 2847 H 263.133 6.62866 4.62205 0
M  V30 2848 H 266.719 4.39351 3.81394 0
M  V30 2849 H 265.599 6.52538 4.34929 0
M  V30 2850 N 263.102 -1.41638 0.69111 0
M  V30 2851 C 264.327 -2.06148 0.227583 0
M  V30 2852 C 264.752 -1.51652 -1.11281 0
M  V30 2853 O 264.11 -0.64164 -1.69566 0
M  V30 2854 C 264.158 -3.60095 0.190858 0
M  V30 2855 O 263.262 -4.03845 -0.835664 0
M  V30 2856 H 262.603 -0.654434 0.112306 0
M  V30 2857 H 265.133 -1.81484 0.944714 0
M  V30 2858 H 265.143 -4.07995 0.020207 0
M  V30 2859 H 263.818 -3.99129 1.16915 0
M  V30 2860 H 262.395 -3.67458 -0.63473 0
M  V30 2861 N 264.58 -0.43555 -1.51462 0
M  V30 2862 C 265.805 0.132627 -2.06976 0
M  V30 2863 C 266.23 1.35848 -1.30104 0
M  V30 2864 O 265.588 1.78112 -0.338493 0
M  V30 2865 C 265.636 0.43523 -3.57964 0
M  V30 2866 O 264.74 1.52198 -3.83288 0
M  V30 2867 H 264.081 0.00265 -0.663995 0
M  V30 2868 H 266.611 -0.616369 -1.95095 0
M  V30 2869 H 266.621 0.686206 -4.02188 0
M  V30 2870 H 265.296 -0.460739 -4.1334 0
M  V30 2871 H 263.873 1.2611 -3.50928 0
M  V30 2872 N 266.058 1.56714 -0.166846 0
M  V30 2873 C 267.474 1.58473 0.189372 0
M  V30 2874 C 267.674 1.18201 1.63189 0
M  V30 2875 O 266.73 0.891528 2.36237 0
M  V30 2876 C 268.043 3.00573 -0.0873872 0
M  V30 2877 C 269.591 3.1299 -0.0252443 0
M  V30 2878 C 270.066 4.57174 -0.274934 0
M  V30 2879 N 271.557 4.62665 -0.222553 0
M  V30 2880 C 272.292 5.72072 -0.389985 0
M  V30 2881 N 271.788 6.90054 -0.616229 0
M  V30 2882 N 273.581 5.61153 -0.326202 0
M  V30 2883 H 265.732 1.8118 -1.10849 0
M  V30 2884 H 267.995 0.839525 -0.440342 0
M  V30 2885 H 267.701 3.34497 -1.0865 0
M  V30 2886 H 267.575 3.72019 0.623037 0
M  V30 2887 H 269.962 2.78895 0.96444 0
M  V30 2888 H 270.043 2.43989 -0.768309 0
M  V30 2889 H 269.687 4.91976 -1.26181 0
M  V30 2890 H 269.617 5.24328 0.48869 0
M  V30 2891 H 272.108 3.77863 -0.0531512 0
M  V30 2892 H 272.421 7.69311 -0.733559 0
M  V30 2893 H 270.766 6.91927 -0.652791 0
M  V30 2894 H 273.957 4.67859 -0.150072 0
M  V30 2895 H 274.13 6.46364 -0.460116 0
M  V30 2896 N 267.536 -0.106894 1.57237 0
M  V30 2897 C 268.499 -1.11466 2.0027 0
M  V30 2898 C 269.499 -1.33623 0.894519 0
M  V30 2899 O 270.689 -1.29935 1.16028 0
M  V30 2900 C 267.821 -2.46646 2.35327 0
M  V30 2901 H 269.014 -0.744516 2.90512 0
M  V30 2902 H 266.567 -0.351576 1.52295 0
M  V30 2903 H 267.302 -2.88558 1.48003 0
M  V30 2904 H 267.087 -2.31915 3.16161 0
M  V30 2905 H 268.577 -3.19151 2.69318 0
M  V30 2906 N 269.014 -1.53014 -0.377408 0
M  V30 2907 C 269.961 -1.78616 -1.46168 0
M  V30 2908 C 270.931 -0.629917 -1.53692 0
M  V30 2909 O 272.116 -0.870861 -1.69766 0
M  V30 2910 C 269.256 -1.97123 -2.8326 0
M  V30 2911 C 268.369 -3.24831 -2.84796 0
M  V30 2912 C 267.504 -3.33591 -4.13389 0
M  V30 2913 C 266.543 -4.55377 -4.09021 0
M  V30 2914 N 265.68 -4.61355 -5.29241 0
M  V30 2915 H 270.52 -2.71142 -1.23637 0
M  V30 2916 H 268.057 -1.34326 -0.599577 0
M  V30 2917 H 270.015 -2.05839 -3.62886 0
M  V30 2918 H 268.645 -1.07946 -3.04216 0
M  V30 2919 H 267.697 -3.25128 -1.97474 0
M  V30 2920 H 269.009 -4.14523 -2.77439 0
M  V30 2921 H 268.163 -3.41554 -5.01424 0
M  V30 2922 H 266.902 -2.41894 -4.23484 0
M  V30 2923 H 265.907 -4.47527 -3.19373 0
M  V30 2924 H 267.132 -5.48402 -4.00539 0
M  V30 2925 H 265.078 -3.72554 -5.39944 0
M  V30 2926 H 264.995 -5.44935 -5.24006 0
M  V30 2927 H 266.263 -4.73586 -6.19141 0
M  V30 2928 N 270.492 0.636531 -1.44174 0
M  V30 2929 C 271.422 1.76003 -1.53444 0
M  V30 2930 C 272.403 1.65619 -0.387841 0
M  V30 2931 O 273.588 1.84461 -0.607257 0
M  V30 2932 C 270.718 3.14511 -1.4731 0
M  V30 2933 C 269.672 3.39677 -2.60391 0
M  V30 2934 C 268.998 4.78159 -2.39308 0
M  V30 2935 C 270.298 3.32772 -4.02567 0
M  V30 2936 H 271.992 1.68501 -2.47483 0
M  V30 2937 H 269.538 0.809237 -1.19111 0
M  V30 2938 H 271.491 3.92878 -1.52397 0
M  V30 2939 H 270.215 3.22783 -0.49785 0
M  V30 2940 H 268.874 2.63688 -2.54684 0
M  V30 2941 H 268.522 4.83128 -1.39988 0
M  V30 2942 H 268.222 4.95956 -3.15122 0
M  V30 2943 H 269.746 5.58762 -2.46205 0
M  V30 2944 H 271.16 4.01051 -4.09672 0
M  V30 2945 H 269.557 3.62104 -4.7854 0
M  V30 2946 H 270.627 2.30669 -4.2652 0
M  V30 2947 N 271.97 1.30982 0.876444 0
M  V30 2948 C 273.198 1.23242 1.6619 0
M  V30 2949 C 273.613 -0.203345 1.87702 0
M  V30 2950 O 272.97 -1.13317 1.43057 0
M  V30 2951 C 273.021 1.96623 3.03351 0
M  V30 2952 O 272.742 3.34594 2.82804 0
M  V30 2953 C 274.243 1.95644 3.97792 0
M  V30 2954 H 271.463 0.426126 0.518322 0
M  V30 2955 H 274.007 1.7275 1.09442 0
M  V30 2956 H 272.162 1.50892 3.56806 0
M  V30 2957 H 272.576 3.71873 3.69879 0
M  V30 2958 H 274.05 2.51511 4.91372 0
M  V30 2959 H 274.527 0.937395 4.2908 0
M  V30 2960 H 275.133 2.41225 3.50272 0
M  V30 2961 N 273.449 -1.08991 1.13837 0
M  V30 2962 C 274.397 -2.17841 0.815347 0
M  V30 2963 C 275.391 -1.68164 -0.204233 0
M  V30 2964 O 276.597 -1.79897 -0.0609304 0
M  V30 2965 H 272.972 -0.710654 0.245915 0
M  V30 2966 H 274.943 -2.42315 1.74143 0
M  V30 2967 C 273.692 -3.46381 0.302614 0
M  V30 2968 H 273.015 -3.84979 1.0785 0
M  V30 2969 H 274.455 -4.23844 0.115074 0
M  V30 2970 C 272.914 -3.22556 -0.972591 0
M  V30 2971 O 273.444 -3.45599 -2.04754 0
M  V30 2972 N 271.65 -2.76134 -0.905455 0
M  V30 2973 H 271.197 -2.57582 -0.0305421 0
M  V30 2974 H 271.155 -2.60571 -1.75926 0
M  V30 2975 N 274.927 -0.932562 -1.27047 0
M  V30 2976 C 276.155 -0.592031 -1.98249 0
M  V30 2977 C 276.57 0.831062 -1.69525 0
M  V30 2978 O 275.927 1.55299 -0.958561 0
M  V30 2979 C 275.978 -0.814279 -3.5221 0
M  V30 2980 O 275.699 -2.18139 -3.7993 0
M  V30 2981 C 277.2 -0.483121 -4.4066 0
M  V30 2982 H 274.42 -0.223896 -0.632544 0
M  V30 2983 H 276.964 -1.25091 -1.61779 0
M  V30 2984 H 275.119 -0.20213 -3.86872 0
M  V30 2985 H 275.533 -2.235 -4.74498 0
M  V30 2986 H 277.007 -0.689298 -5.47679 0
M  V30 2987 H 277.484 0.581546 -4.35333 0
M  V30 2988 H 278.09 -1.07362 -4.11526 0
M  V30 2989 N 276.405 1.4127 -0.698611 0
M  V30 2990 C 277.368 2.29158 -0.044132 0
M  V30 2991 C 278.368 1.44529 0.704841 0
M  V30 2992 O 279.558 1.65643 0.539276 0
M  V30 2993 C 276.69 3.27459 0.947809 0
M  V30 2994 H 277.883 2.88529 -0.817994 0
M  V30 2995 H 275.436 1.49307 -0.46228 0
M  V30 2996 H 276.171 2.73073 1.74933 0
M  V30 2997 H 275.956 3.8991 0.41385 0
M  V30 2998 H 277.446 3.93311 1.40344 0
M  V30 2999 N 277.883 0.443576 1.51229 0
M  V30 3000 C 279.16 -0.181038 1.9476 0
M  V30 3001 C 279.54 -1.59523 1.38259 0
M  V30 3002 O 278.888 -2.2122 0.572198 0
M  V30 3003 C 279.098 -0.152422 3.48667 0
M  V30 3004 C 280.446 -0.354923 4.23114 0
M  V30 3005 O 281.47 -0.230257 3.55455 0
M  V30 3006 O 280.329 -0.603674 5.43156 0
M  V30 3007 H 277.423 -0.1266 0.817252 0
M  V30 3008 H 279.969 0.502004 1.62105 0
M  V30 3009 H 278.741 0.836022 3.82265 0
M  V30 3010 H 278.364 -0.878107 3.87782 0
M  V30 3011 N 279.361 -1.56624 0.175154 0
M  V30 3012 C 280.294 -2.14 -0.792412 0
M  V30 3013 C 281.272 -1.07114 -1.22333 0
M  V30 3014 O 282.456 -1.35112 -1.31442 0
M  V30 3015 C 279.583 -2.68268 -2.0676 0
M  V30 3016 C 278.629 -3.87562 -1.7804 0
M  V30 3017 S 279.462 -5.27074 -0.946222 0
M  V30 3018 C 280.618 -5.8475 -2.23199 0
M  V30 3019 H 280.851 -2.95736 -0.304588 0
M  V30 3020 H 278.384 -1.54349 -0.0395705 0
M  V30 3021 H 280.342 -3.00182 -2.80002 0
M  V30 3022 H 279.003 -1.86612 -2.52656 0
M  V30 3023 H 278.196 -4.23874 -2.72666 0
M  V30 3024 H 277.798 -3.56555 -1.12891 0
M  V30 3025 H 280.09 -5.97898 -3.18629 0
M  V30 3026 H 281.033 -6.81756 -1.91349 0
M  V30 3027 H 281.441 -5.13198 -2.35134 0
M  V30 3028 N 280.839 0.0985539 -1.57292 0
M  V30 3029 C 282.088 0.801358 -1.85098 0
M  V30 3030 C 282.401 1.80066 -0.763902 0
M  V30 3031 O 283.607 2.55112 -0.928981 0
M  V30 3032 C 282.063 1.47599 -3.28242 0
M  V30 3033 C 281.671 0.516624 -4.45011 0
M  V30 3034 C 283.415 2.16272 -3.65276 0
M  V30 3035 C 281.322 1.19564 -5.79188 0
M  V30 3036 H 280.252 0.303022 -0.69043 0
M  V30 3037 H 282.903 0.0542623 -1.8342 0
M  V30 3038 H 281.285 2.27042 -3.2445 0
M  V30 3039 H 282.459 -0.246065 -4.60143 0
M  V30 3040 H 280.774 -0.064227 -4.1635 0
M  V30 3041 H 283.371 2.67802 -4.62803 0
M  V30 3042 H 283.714 2.95009 -2.93727 0
M  V30 3043 H 284.247 1.43693 -3.70941 0
M  V30 3044 H 280.986 0.449157 -6.53959 0
M  V30 3045 H 280.506 1.92984 -5.67906 0
M  V30 3046 H 282.185 1.7231 -6.23633 0
M  V30 3047 N 282.317 1.53212 0.369288 0
M  V30 3048 C 283.733 1.42902 0.710712 0
M  V30 3049 C 283.933 0.565135 1.93413 0
M  V30 3050 O 282.989 0.0461484 2.52458 0
M  V30 3051 C 284.302 2.86042 0.927382 0
M  V30 3052 C 285.85 2.9565 1.02762 0
M  V30 3053 C 286.325 4.39843 1.27679 0
M  V30 3054 N 287.816 4.43256 1.34457 0
M  V30 3055 C 288.551 5.51929 1.55439 0
M  V30 3056 N 288.047 6.70655 1.73762 0
M  V30 3057 N 289.84 5.39502 1.57779 0
M  V30 3058 H 281.991 2.07888 -0.435457 0
M  V30 3059 H 284.254 0.938661 -0.132739 0
M  V30 3060 H 283.96 3.51557 0.100287 0
M  V30 3061 H 283.834 3.29472 1.83653 0
M  V30 3062 H 286.221 2.30291 1.84527 0
M  V30 3063 H 286.302 2.5562 0.0959504 0
M  V30 3064 H 285.946 5.05774 0.464175 0
M  V30 3065 H 285.876 4.77443 2.22162 0
M  V30 3066 H 288.367 3.5769 1.21926 0
M  V30 3067 H 288.68 7.49248 1.89335 0
M  V30 3068 H 287.025 6.73648 1.70948 0
M  V30 3069 H 290.216 4.45713 1.43029 0
M  V30 3070 H 290.389 6.2426 1.7379 0
M  V30 3071 N 283.795 -0.628877 1.44509 0
M  V30 3072 C 284.725 -1.75187 1.54376 0
M  V30 3073 C 285.706 -1.65411 0.396618 0
M  V30 3074 O 286.891 -1.84137 0.617031 0
M  V30 3075 C 284.021 -3.13725 1.48976 0
M  V30 3076 C 282.975 -3.38291 2.62189 0
M  V30 3077 C 282.301 -4.76883 2.41841 0
M  V30 3078 C 283.601 -3.30632 4.04326 0
M  V30 3079 H 285.295 -1.67187 2.48373 0
M  V30 3080 H 282.841 -0.802909 1.19538 0
M  V30 3081 H 284.794 -3.92064 1.54478 0
M  V30 3082 H 283.518 -3.22515 0.514961 0
M  V30 3083 H 282.177 -2.62334 2.56079 0
M  V30 3084 H 281.825 -4.82378 1.42548 0
M  V30 3085 H 281.525 -4.94278 3.17747 0
M  V30 3086 H 283.049 -5.57449 2.49165 0
M  V30 3087 H 284.463 -3.98873 4.11793 0
M  V30 3088 H 282.86 -3.59561 4.80454 0
M  V30 3089 H 283.93 -2.28404 4.27738 0
M  V30 3090 N 285.273 -1.31445 -0.869486 0
M  V30 3091 C 286.522 -1.20517 -1.61736 0
M  V30 3092 C 286.835 0.235341 -1.94179 0
M  V30 3093 O 288.041 0.466312 -2.67465 0
M  V30 3094 C 286.497 -2.10982 -2.91573 0
M  V30 3095 C 286.105 -3.60032 -2.66611 0
M  V30 3096 C 287.849 -2.08856 -3.69567 0
M  V30 3097 C 285.756 -4.42503 -3.92358 0
M  V30 3098 H 284.686 -0.447493 -0.606849 0
M  V30 3099 H 287.337 -1.56303 -0.96133 0
M  V30 3100 H 285.719 -1.68095 -3.58553 0
M  V30 3101 H 286.893 -4.11167 -2.08035 0
M  V30 3102 H 285.208 -3.64139 -2.0197 0
M  V30 3103 H 287.805 -2.67716 -4.62852 0
M  V30 3104 H 288.148 -1.07582 -4.02159 0
M  V30 3105 H 288.681 -2.49945 -3.09471 0
M  V30 3106 H 285.42 -5.44533 -3.64916 0
M  V30 3107 H 284.94 -3.96125 -4.50383 0
M  V30 3108 H 286.619 -4.54741 -4.60238 0
M  V30 3109 N 286.751 1.08385 -1.14413 0
M  V30 3110 C 288 1.80153 -0.907076 0
M  V30 3111 C 288.313 1.87176 0.567851 0
M  V30 3112 O 289.519 2.55359 0.922172 0
M  V30 3113 C 287.975 3.23687 -1.57336 0
M  V30 3114 C 287.583 3.24897 -3.08457 0
M  V30 3115 C 289.327 4.00136 -1.41744 0
M  V30 3116 C 287.234 4.6302 -3.67921 0
M  V30 3117 H 286.164 0.675139 -0.335714 0
M  V30 3118 H 288.815 1.21733 -1.37307 0
M  V30 3119 H 287.197 3.82234 -1.03505 0
M  V30 3120 H 288.371 2.76055 -3.68958 0
M  V30 3121 H 286.686 2.61943 -3.2369 0
M  V30 3122 H 289.283 5.02201 -1.83572 0
M  V30 3123 H 289.626 4.14709 -0.363576 0
M  V30 3124 H 290.159 3.48058 -1.92614 0
M  V30 3125 H 286.898 4.5365 -4.73161 0
M  V30 3126 H 286.418 5.12143 -3.12201 0
M  V30 3127 H 288.097 5.31994 -3.68227 0
M  V30 3128 N 288.23 0.939286 1.26551 0
M  V30 3129 C 289.646 0.641304 1.46149 0
M  V30 3130 C 289.846 -0.805964 1.84679 0
M  V30 3131 O 288.902 -1.58278 1.96734 0
M  V30 3132 C 290.215 1.6011 2.54529 0
M  V30 3133 C 291.763 1.6106 2.68382 0
M  V30 3134 C 292.238 2.55765 3.79932 0
M  V30 3135 N 293.729 2.5404 3.87322 0
M  V30 3136 C 294.464 3.24004 4.73085 0
M  V30 3137 N 293.96 4.03388 5.63249 0
M  V30 3138 N 295.753 3.12965 4.66914 0
M  V30 3139 H 287.904 1.87478 0.998285 0
M  V30 3140 H 290.167 0.805559 0.499779 0
M  V30 3141 H 289.873 2.63412 2.33039 0
M  V30 3142 H 289.747 1.35171 3.52149 0
M  V30 3143 H 292.134 0.584835 2.89247 0
M  V30 3144 H 292.215 1.90053 1.71212 0
M  V30 3145 H 291.859 3.58458 3.5982 0
M  V30 3146 H 291.789 2.24063 4.76554 0
M  V30 3147 H 294.28 1.96396 3.22858 0
M  V30 3148 H 294.593 4.5373 6.25579 0
M  V30 3149 H 292.938 4.07489 5.63008 0
M  V30 3150 H 296.129 2.50432 3.95476 0
M  V30 3151 H 296.302 3.67759 5.33533 0
M  V30 3152 N 289.708 -1.40897 0.706093 0
M  V30 3153 C 290.985 -1.94868 0.169099 0
M  V30 3154 C 291.365 -1.64485 -1.32318 0
M  V30 3155 O 290.713 -0.95744 -2.07474 0
M  V30 3156 C 290.923 -3.45798 0.471654 0
M  V30 3157 C 292.271 -4.22663 0.405127 0
M  V30 3158 O 293.295 -3.53865 0.407168 0
M  V30 3159 O 292.154 -5.45216 0.374383 0
M  V30 3160 H 289.248 -0.82673 0.0211352 0
M  V30 3161 H 291.794 -1.50558 0.782976 0
M  V30 3162 H 290.566 -3.61235 1.50416 0
M  V30 3163 H 290.189 -3.97225 -0.172666 0
M  V30 3164 N 291.186 -0.45159 -1.50991 0
M  V30 3165 C 292.096 0.358431 -2.31846 0
M  V30 3166 C 293.112 1.01438 -1.41373 0
M  V30 3167 O 294.288 1.00663 -1.74439 0
M  V30 3168 C 291.353 1.43704 -3.15515 0
M  V30 3169 C 290.414 0.799742 -4.21785 0
M  V30 3170 C 289.647 1.82696 -5.01456 0
M  V30 3171 O 289.87 3.05105 -4.81941 0
M  V30 3172 O 288.804 1.40958 -5.85162 0
M  V30 3173 H 292.63 -0.302032 -3.02194 0
M  V30 3174 H 290.215 -0.213825 -1.47862 0
M  V30 3175 H 292.097 2.06227 -3.67489 0
M  V30 3176 H 290.772 2.08133 -2.47916 0
M  V30 3177 H 289.679 0.136084 -3.73852 0
M  V30 3178 H 291.012 0.198718 -4.91799 0
M  V30 3179 N 292.664 1.56529 -0.183458 0
M  V30 3180 C 293.627 2.17324 0.728223 0
M  V30 3181 C 294.627 1.12453 1.14939 0
M  V30 3182 O 295.817 1.37902 1.06437 0
M  V30 3183 C 292.949 2.76591 1.99274 0
M  V30 3184 H 294.142 2.99241 0.198772 0
M  V30 3185 H 291.695 1.5616 0.0661391 0
M  V30 3186 H 292.43 1.98441 2.56499 0
M  V30 3187 H 292.215 3.5335 1.69959 0
M  V30 3188 H 293.705 3.23311 2.6431 0
M  V30 3189 N 294.142 -0.090211 1.57342 0
M  V30 3190 C 295.388 -0.793982 1.86611 0
M  V30 3191 C 295.721 -1.78142 0.773252 0
M  V30 3192 O 294.996 -1.93271 -0.218304 0
M  V30 3193 C 295.279 -1.51839 3.26523 0
M  V30 3194 C 295.132 -0.548609 4.46442 0
M  V30 3195 C 296.451 -2.46779 3.64401 0
M  V30 3196 H 293.57 -0.287186 0.678744 0
M  V30 3197 H 296.212 -0.0575076 1.89913 0
M  V30 3198 H 294.362 -2.14617 3.23839 0
M  V30 3199 H 296.034 0.0725513 4.61243 0
M  V30 3200 H 294.277 0.137614 4.33582 0
M  V30 3201 H 294.948 -1.09271 5.41076 0
M  V30 3202 H 297.424 -1.94089 3.68061 0
M  V30 3203 H 296.3 -2.94479 4.63221 0
M  V30 3204 H 296.561 -3.30758 2.93346 0
M  V30 3205 N 295.62 -1.53406 -0.361157 0
M  V30 3206 C 296.57 -1.76536 -1.44287 0
M  V30 3207 C 297.554 -0.620019 -1.48474 0
M  V30 3208 O 298.746 -0.878834 -1.53641 0
M  V30 3209 C 295.875 -1.96266 -2.81664 0
M  V30 3210 C 294.961 -3.16815 -2.81938 0
M  V30 3211 N 295.352 -4.38637 -2.51855 0
M  V30 3212 C 293.65 -3.17627 -3.13096 0
M  V30 3213 C 294.351 -5.20401 -2.59919 0
M  V30 3214 N 293.327 -4.56712 -2.94814 0
M  V30 3215 H 297.129 -2.68331 -1.19899 0
M  V30 3216 H 294.643 -1.52091 -0.56938 0
M  V30 3217 H 296.64 -2.10966 -3.59582 0
M  V30 3218 H 295.3 -1.05702 -3.07013 0
M  V30 3219 H 296.311 -4.66293 -2.25369 0
M  V30 3220 H 292.988 -2.36971 -3.43731 0
M  V30 3221 H 294.378 -6.27586 -2.39969 0
M  V30 3222 N 297.098 0.621204 -1.44841 0
M  V30 3223 C 298.346 1.37783 -1.47852 0
M  V30 3224 C 298.667 1.94653 -0.116224 0
M  V30 3225 O 297.937 1.76367 0.852737 0
M  V30 3226 H 296.517 0.511453 -0.544449 0
M  V30 3227 H 299.179 0.730446 -1.80694 0
M  V30 3228 H 298.275 2.20414 -2.20961 0
M  V30 3229 N 298.576 1.31904 0.862503 0
M  V30 3230 C 299.806 1.24817 1.64634 0
M  V30 3231 C 300.214 -0.187579 1.88268 0
M  V30 3232 O 299.557 -1.13253 1.44635 0
M  V30 3233 C 299.619 1.92996 3.03303 0
M  V30 3234 C 299.283 3.42336 3.02746 0
M  V30 3235 C 300.28 4.37956 2.80162 0
M  V30 3236 C 297.965 3.84147 3.2363 0
M  V30 3237 C 299.959 5.73361 2.78453 0
M  V30 3238 C 297.646 5.19663 3.21549 0
M  V30 3239 C 298.644 6.14081 2.98988 0
M  V30 3240 O 298.332 7.47118 2.96766 0
M  V30 3241 H 298.064 0.432222 0.519769 0
M  V30 3242 H 300.618 1.7445 1.08427 0
M  V30 3243 H 298.848 1.37922 3.61268 0
M  V30 3244 H 300.537 1.79723 3.63943 0
M  V30 3245 H 301.303 4.06981 2.63802 0
M  V30 3246 H 297.182 3.11083 3.40218 0
M  V30 3247 H 300.726 6.4703 2.60763 0
M  V30 3248 H 296.623 5.5027 3.37451 0
M  V30 3249 H 297.391 7.56382 3.12775 0
M  V30 3250 N 300.054 -1.07777 1.14986 0
M  V30 3251 C 301.284 -1.83752 0.944402 0
M  V30 3252 C 301.692 -1.8218 -0.51058 0
M  V30 3253 O 301.035 -1.22852 -1.36576 0
M  V30 3254 C 301.097 -3.32128 1.37592 0
M  V30 3255 C 300.761 -3.57425 2.84775 0
M  V30 3256 C 301.758 -3.5173 3.8286 0
M  V30 3257 C 299.443 -3.8523 3.2234 0
M  V30 3258 C 301.437 -3.73482 5.16517 0
M  V30 3259 C 299.124 -4.06634 4.56171 0
M  V30 3260 C 300.122 -4.00754 5.53069 0
M  V30 3261 O 299.81 -4.2159 6.84483 0
M  V30 3262 H 299.542 -0.58673 0.335744 0
M  V30 3263 H 302.096 -1.36982 1.53052 0
M  V30 3264 H 300.326 -3.79686 0.733165 0
M  V30 3265 H 302.015 -3.89555 1.14024 0
M  V30 3266 H 302.781 -3.30256 3.55184 0
M  V30 3267 H 298.66 -3.88923 2.47508 0
M  V30 3268 H 302.204 -3.68808 5.92137 0
M  V30 3269 H 298.101 -4.27593 4.83564 0
M  V30 3270 H 298.869 -4.38961 6.90837 0
M  V30 3271 N 301.532 -0.945985 -1.26051 0
M  V30 3272 C 302.781 -0.591836 -1.92822 0
M  V30 3273 C 303.094 0.873956 -1.7499 0
M  V30 3274 O 304.3 1.33769 -2.36259 0
M  V30 3275 C 302.756 -1.00776 -3.45503 0
M  V30 3276 C 302.364 -2.4955 -3.7206 0
M  V30 3277 C 304.108 -0.725735 -4.1825 0
M  V30 3278 C 302.015 -2.84988 -5.18205 0
M  V30 3279 H 300.945 -0.217635 -0.721908 0
M  V30 3280 H 303.596 -1.14927 -1.43052 0
M  V30 3281 H 301.978 -0.378812 -3.94184 0
M  V30 3282 H 303.152 -3.1739 -3.34066 0
M  V30 3283 H 301.467 -2.75133 -3.12555 0
M  V30 3284 H 304.064 -0.966771 -5.25887 0
M  V30 3285 H 304.407 0.337639 -4.14929 0
M  V30 3286 H 304.94 -1.31463 -3.7545 0
M  V30 3287 H 301.679 -3.90307 -5.26631 0
M  V30 3288 H 301.199 -2.21813 -5.57278 0
M  V30 3289 H 302.878 -2.73712 -5.86252 0
M  V30 3290 N 303.011 1.40521 -0.713556 0
M  V30 3291 C 304.259 2.00527 -0.251692 0
M  V30 3292 C 304.58 1.56857 1.15848 0
M  V30 3293 O 303.85 0.807127 1.785 0
M  V30 3294 H 302.43 0.741551 -0.0900646 0
M  V30 3295 H 305.092 1.71887 -0.918733 0
M  V30 3296 H 304.188 3.10813 -0.283192 0
M  V30 3297 N 304.489 0.459591 1.5075 0
M  V30 3298 C 305.719 -0.0972338 2.06371 0
M  V30 3299 C 306.127 -1.35074 1.32483 0
M  V30 3300 O 305.47 -1.79637 0.384226 0
M  V30 3301 C 305.532 -0.462759 3.56509 0
M  V30 3302 C 305.196 0.687084 4.51805 0
M  V30 3303 C 306.193 1.56578 4.95761 0
M  V30 3304 C 303.878 0.874144 4.94635 0
M  V30 3305 C 305.872 2.61604 5.81242 0
M  V30 3306 C 303.559 1.92765 5.79901 0
M  V30 3307 C 304.557 2.79697 6.23104 0
M  V30 3308 O 304.245 3.83235 7.06673 0
M  V30 3309 H 303.977 -0.00140687 0.675999 0
M  V30 3310 H 306.531 0.644011 1.95043 0
M  V30 3311 H 304.761 -1.25703 3.65699 0
M  V30 3312 H 306.45 -0.953323 3.94546 0
M  V30 3313 H 307.216 1.4329 4.6335 0
M  V30 3314 H 303.095 0.207006 4.60535 0
M  V30 3315 H 306.639 3.29489 6.14884 0
M  V30 3316 H 302.536 2.06064 6.11725 0
M  V30 3317 H 303.304 3.80084 7.24899 0
M  V30 3318 N 305.967 -1.56429 0.191757 0
M  V30 3319 C 306.914 -2.18936 -0.730454 0
M  V30 3320 C 307.884 -1.13557 -1.21219 0
M  V30 3321 O 309.069 -1.41794 -1.27668 0
M  V30 3322 C 306.209 -2.85013 -1.9458 0
M  V30 3323 C 305.322 -4.04909 -1.50574 0
M  V30 3324 C 304.457 -4.58853 -2.67634 0
M  V30 3325 C 303.496 -5.71114 -2.20217 0
M  V30 3326 N 302.633 -6.19478 -3.30442 0
M  V30 3327 H 307.473 -2.97389 -0.190664 0
M  V30 3328 H 305.01 -1.46869 -0.0823694 0
M  V30 3329 H 306.968 -3.21492 -2.65893 0
M  V30 3330 H 305.598 -2.09129 -2.45896 0
M  V30 3331 H 304.65 -3.74115 -0.688605 0
M  V30 3332 H 305.962 -4.86113 -1.11784 0
M  V30 3333 H 305.116 -4.97619 -3.47074 0
M  V30 3334 H 303.855 -3.76749 -3.09696 0
M  V30 3335 H 302.86 -5.31879 -1.3923 0
M  V30 3336 H 304.085 -6.55033 -1.79189 0
M  V30 3337 H 302.031 -5.40297 -3.72041 0
M  V30 3338 H 301.948 -6.95725 -2.9581 0
M  V30 3339 H 303.216 -6.62898 -4.10106 0
M  V30 3340 N 307.445 0.0818655 -1.57387 0
M  V30 3341 C 308.692 0.782914 -1.86753 0
M  V30 3342 C 309.02 1.78082 -0.782118 0
M  V30 3343 O 308.275 1.94426 0.22295 0
M  V30 3344 C 308.574 1.53513 -3.22752 0
M  V30 3345 C 308.24 0.678134 -4.45771 0
M  V30 3346 C 306.902 0.441929 -4.79166 0
M  V30 3347 C 309.254 0.0832243 -5.21134 0
M  V30 3348 C 306.582 -0.398833 -5.85343 0
M  V30 3349 C 308.934 -0.744935 -6.28199 0
M  V30 3350 C 307.598 -0.991107 -6.60101 0
M  V30 3351 H 306.868 0.286489 -0.683378 0
M  V30 3352 H 309.515 0.0439808 -1.91449 0
M  V30 3353 H 307.82 2.34599 -3.138 0
M  V30 3354 H 309.517 2.08218 -3.42705 0
M  V30 3355 H 306.107 0.872357 -4.19628 0
M  V30 3356 H 310.291 0.252847 -4.95655 0
M  V30 3357 H 305.547 -0.598405 -6.08465 0
M  V30 3358 H 309.721 -1.21271 -6.8576 0
M  V30 3359 H 307.348 -1.64437 -7.42202 0
M  V30 3360 N 308.923 1.53595 0.353017 0
M  V30 3361 C 309.855 1.77219 1.45348 0
M  V30 3362 C 310.868 0.65324 1.49119 0
M  V30 3363 O 312.057 0.929775 1.52373 0
M  V30 3364 C 309.157 1.84841 2.84055 0
M  V30 3365 C 308.33 3.14649 3.03833 0
M  V30 3366 C 307.389 3.13351 4.22727 0
M  V30 3367 O 306.415 3.87107 4.17297 0
M  V30 3368 N 307.617 2.35052 5.30783 0
M  V30 3369 H 310.382 2.72178 1.25457 0
M  V30 3370 H 307.943 1.52528 0.542833 0
M  V30 3371 H 309.935 1.81435 3.61751 0
M  V30 3372 H 308.505 0.971114 2.97133 0
M  V30 3373 H 307.725 3.31256 2.13689 0
M  V30 3374 H 309.013 4.00411 3.13925 0
M  V30 3375 H 308.411 1.74663 5.38061 0
M  V30 3376 H 306.968 2.37453 6.07009 0
M  V30 3377 N 310.401 -0.613514 1.45168 0
M  V30 3378 C 311.817 -0.933629 1.29443 0
M  V30 3379 C 312.017 -2.00028 0.243101 0
M  V30 3380 O 311.073 -2.49848 -0.364992 0
M  V30 3381 C 312.386 -1.38018 2.67155 0
M  V30 3382 C 313.934 -1.49471 2.75004 0
M  V30 3383 C 314.409 -1.97503 4.13227 0
M  V30 3384 N 315.9 -2.04746 4.15491 0
M  V30 3385 C 316.635 -2.43121 5.19307 0
M  V30 3386 N 316.131 -2.80506 6.33473 0
M  V30 3387 N 317.924 -2.43408 5.06664 0
M  V30 3388 H 310.075 0.0916097 2.12202 0
M  V30 3389 H 312.338 -0.0216655 0.947752 0
M  V30 3390 H 312.044 -0.670625 3.45247 0
M  V30 3391 H 311.918 -2.34784 2.95222 0
M  V30 3392 H 314.305 -2.19519 1.9722 0
M  V30 3393 H 314.386 -0.510342 2.50657 0
M  V30 3394 H 314.03 -1.28045 4.91495 0
M  V30 3395 H 313.96 -2.96843 4.34962 0
M  V30 3396 H 316.451 -1.78468 3.33103 0
M  V30 3397 H 316.764 -3.08652 7.08487 0
M  V30 3398 H 315.109 -2.78216 6.36884 0
M  V30 3399 H 318.3 -2.13604 4.16523 0
M  V30 3400 H 318.473 -2.72989 5.87691 0
M  V30 3401 N 311.879 -1.3236 -0.855495 0
M  V30 3402 C 313.127 -1.22629 -1.60644 0
M  V30 3403 C 313.448 0.212136 -1.93843 0
M  V30 3404 O 312.718 1.13666 -1.59552 0
M  V30 3405 H 311.298 -0.450882 -0.595579 0
M  V30 3406 H 313.96 -1.65871 -1.02337 0
M  V30 3407 H 313.056 -1.80832 -2.54374 0
M  V30 3408 N 313.357 1.07166 -1.15556 0
M  V30 3409 C 314.287 2.16403 -0.877046 0
M  V30 3410 C 315.268 1.69217 0.173111 0
M  V30 3411 O 316.453 1.94181 0.027084 0
M  V30 3412 C 313.583 3.45349 -0.367632 0
M  V30 3413 C 312.537 4.05995 -1.35468 0
M  V30 3414 C 311.863 5.30045 -0.704038 0
M  V30 3415 C 313.163 4.45804 -2.72132 0
M  V30 3416 H 314.857 2.39959 -1.79053 0
M  V30 3417 H 312.403 1.15325 -0.862331 0
M  V30 3418 H 314.356 4.21095 -0.160317 0
M  V30 3419 H 313.08 3.21385 0.581326 0
M  V30 3420 H 311.739 3.32296 -1.54839 0
M  V30 3421 H 311.387 5.02373 0.251128 0
M  V30 3422 H 311.087 5.71579 -1.36277 0
M  V30 3423 H 312.611 6.08495 -0.50654 0
M  V30 3424 H 314.025 5.12671 -2.56595 0
M  V30 3425 H 312.422 4.98296 -3.34397 0
M  V30 3426 H 313.492 3.57083 -3.28054 0
M  V30 3427 N 314.835 0.952656 1.25548 0
M  V30 3428 C 316.081 0.607272 1.93494 0
M  V30 3429 C 316.414 -0.853245 1.74452 0
M  V30 3430 O 315.689 -1.61194 1.08843 0
M  V30 3431 C 315.972 0.96435 3.46947 0
M  V30 3432 C 315.825 2.48045 3.75225 0
M  V30 3433 C 317.144 0.487987 4.37386 0
M  V30 3434 H 314.263 0.222096 0.702739 0
M  V30 3435 H 316.905 1.18895 1.48203 0
M  V30 3436 H 315.055 0.469361 3.85654 0
M  V30 3437 H 316.727 3.04905 3.46166 0
M  V30 3438 H 314.97 2.919 3.209 0
M  V30 3439 H 315.641 2.6808 4.82532 0
M  V30 3440 H 318.117 0.912558 4.0597 0
M  V30 3441 H 316.993 0.766547 5.43521 0
M  V30 3442 H 317.254 -0.612063 4.37843 0
M  V30 3443 N 316.313 -1.40141 0.720998 0
M  V30 3444 C 317.243 -2.33339 0.0867621 0
M  V30 3445 C 318.224 -1.53178 -0.739622 0
M  V30 3446 O 319.409 -1.81625 -0.687449 0
M  V30 3447 C 316.539 -3.37194 -0.831728 0
M  V30 3448 C 315.493 -4.27857 -0.110558 0
M  V30 3449 C 314.819 -5.22294 -1.14513 0
M  V30 3450 C 316.119 -5.11872 1.0385 0
M  V30 3451 H 317.813 -2.86626 0.865219 0
M  V30 3452 H 315.359 -1.37814 0.417516 0
M  V30 3453 H 317.312 -4.01335 -1.28485 0
M  V30 3454 H 316.036 -2.82314 -1.64214 0
M  V30 3455 H 314.695 -3.65176 0.322797 0
M  V30 3456 H 314.343 -4.63717 -1.94874 0
M  V30 3457 H 314.043 -5.83797 -0.667446 0
M  V30 3458 H 315.567 -5.89312 -1.59824 0
M  V30 3459 H 316.981 -5.69436 0.664482 0
M  V30 3460 H 315.378 -5.82445 1.4449 0
M  V30 3461 H 316.448 -4.4753 1.86668 0
M  V30 3462 N 317.792 -0.46758 -1.50504 0
M  V30 3463 C 319.038 0.0887532 -2.02606 0
M  V30 3464 C 319.371 1.39686 -1.34913 0
M  V30 3465 O 318.646 1.88644 -0.473694 0
M  V30 3466 C 318.929 0.276206 -3.59039 0
M  V30 3467 C 318.782 -1.05267 -4.37309 0
M  V30 3468 C 320.101 1.03235 -4.27821 0
M  V30 3469 H 317.22 0.0307814 -0.736357 0
M  V30 3470 H 319.862 -0.612485 -1.79857 0
M  V30 3471 H 318.012 0.8735 -3.78553 0
M  V30 3472 H 319.684 -1.68628 -4.29374 0
M  V30 3473 H 317.927 -1.65015 -4.01189 0
M  V30 3474 H 318.598 -0.875197 -5.45018 0
M  V30 3475 H 321.074 0.526111 -4.12761 0
M  V30 3476 H 319.95 1.1323 -5.37094 0
M  V30 3477 H 320.211 2.06806 -3.90748 0
M  V30 3478 N 319.27 1.56325 -0.20005 0
M  V30 3479 C 320.547 1.89484 0.48529 0
M  V30 3480 C 320.927 1.1143 1.79294 0
M  V30 3481 O 320.275 0.216919 2.27468 0
M  V30 3482 C 320.485 3.41923 0.699243 0
M  V30 3483 C 321.833 4.12256 1.01638 0
M  V30 3484 O 322.857 3.47402 0.786792 0
M  V30 3485 O 321.716 5.26887 1.45095 0
M  V30 3486 H 318.81 0.787144 0.253639 0
M  V30 3487 H 321.356 1.67985 -0.240633 0
M  V30 3488 H 320.128 3.90658 -0.224008 0
M  V30 3489 H 319.751 3.69131 1.47744 0
M  V30 3490 N 320.748 -0.0735177 1.57428 0
M  V30 3491 C 322.025 -0.805903 1.78226 0
M  V30 3492 C 322.405 -1.95874 0.787189 0
M  V30 3493 O 321.753 -2.2779 -0.180029 0
M  V30 3494 C 321.963 -1.28045 3.24662 0
M  V30 3495 C 323.311 -1.71453 3.88444 0
M  V30 3496 O 324.335 -1.37616 3.28543 0
M  V30 3497 O 323.194 -2.34093 4.93825 0
M  V30 3498 H 320.288 -0.386041 0.73137 0
M  V30 3499 H 322.834 -0.0537269 1.69615 0
M  V30 3500 H 321.606 -0.455476 3.8864 0
M  V30 3501 H 321.229 -2.094 3.37991 0
M  V30 3502 N 322.226 -1.5378 -0.344866 0
M  V30 3503 C 323.189 -1.80981 -1.40637 0
M  V30 3504 C 324.189 -0.680816 -1.45676 0
M  V30 3505 O 325.379 -0.949095 -1.46075 0
M  V30 3506 C 322.511 -1.95063 -2.79577 0
M  V30 3507 H 323.704 -2.75803 -1.17783 0
M  V30 3508 H 321.257 -1.45173 -0.579181 0
M  V30 3509 H 321.992 -1.02379 -3.07716 0
M  V30 3510 H 321.777 -2.77198 -2.77315 0
M  V30 3511 H 323.267 -2.17629 -3.56409 0
M  V30 3512 N 323.704 0.605807 -1.45491 0
M  V30 3513 C 325.12 0.926751 -1.29936 0
M  V30 3514 C 325.32 1.99896 -0.253706 0
M  V30 3515 O 324.376 2.50038 0.351737 0
M  V30 3516 C 325.689 1.36599 -2.67883 0
M  V30 3517 C 327.237 1.4801 -2.75793 0
M  V30 3518 C 327.712 1.95309 -4.14268 0
M  V30 3519 N 329.203 2.0254 -4.16571 0
M  V30 3520 C 329.938 2.40363 -5.20589 0
M  V30 3521 N 329.434 2.77143 -6.34952 0
M  V30 3522 N 331.227 2.40718 -5.07948 0
M  V30 3523 H 323.378 -0.102862 -2.12151 0
M  V30 3524 H 325.641 0.016639 -0.947854 0
M  V30 3525 H 325.347 0.652306 -3.45598 0
M  V30 3526 H 325.221 2.33215 -2.96463 0
M  V30 3527 H 327.608 2.1847 -1.98381 0
M  V30 3528 H 327.689 0.497041 -2.50925 0
M  V30 3529 H 327.333 1.25436 -4.92167 0
M  V30 3530 H 327.263 2.94532 -4.3653 0
M  V30 3531 H 329.754 1.76699 -3.34045 0
M  V30 3532 H 330.067 3.0489 -7.10114 0
M  V30 3533 H 328.412 2.74834 -6.3835 0
M  V30 3534 H 331.603 2.11392 -4.1765 0
M  V30 3535 H 331.776 2.69869 -5.89131 0
M  V30 3536 N 325.182 1.32811 0.848464 0
M  V30 3537 C 326.598 1.11937 1.13764 0
M  V30 3538 C 326.798 -0.0960789 2.01271 0
M  V30 3539 O 325.854 -0.779165 2.40178 0
M  V30 3540 C 327.167 2.402 1.809 0
M  V30 3541 C 328.715 2.46016 1.93508 0
M  V30 3542 C 329.19 3.74215 2.64059 0
M  V30 3543 N 330.681 3.75232 2.71579 0
M  V30 3544 C 331.416 4.71134 3.26833 0
M  V30 3545 N 330.912 5.77406 3.8285 0
M  V30 3546 N 332.705 4.58623 3.24995 0
M  V30 3547 H 324.856 2.1073 0.265855 0
M  V30 3548 H 327.119 0.930671 0.180431 0
M  V30 3549 H 326.825 3.29093 1.24058 0
M  V30 3550 H 326.699 2.51628 2.81004 0
M  V30 3551 H 329.086 1.57577 2.49506 0
M  V30 3552 H 329.167 2.38536 0.923811 0
M  V30 3553 H 328.811 4.63031 2.08722 0
M  V30 3554 H 328.741 3.78968 3.65637 0
M  V30 3555 H 331.232 2.98423 2.31845 0
M  V30 3556 H 331.545 6.46632 4.23187 0
M  V30 3557 H 329.89 5.81152 3.81165 0
M  V30 3558 H 333.081 3.74762 2.80484 0
M  V30 3559 H 333.254 5.33535 3.67756 0
M  V30 3560 N 326.66 -1.06551 1.16123 0
M  V30 3561 C 327.623 -2.12132 0.867906 0
M  V30 3562 C 328.623 -1.60224 -0.135944 0
M  V30 3563 O 329.813 -1.73943 0.0946422 0
M  V30 3564 C 326.945 -3.396 0.297419 0
M  V30 3565 H 328.138 -2.39586 1.80385 0
M  V30 3566 H 325.691 -1.22574 0.969812 0
M  V30 3567 H 326.426 -3.17794 -0.64633 0
M  V30 3568 H 326.211 -3.78581 1.02073 0
M  V30 3569 H 327.701 -4.17455 0.110052 0
M  V30 3570 N 328.138 -0.959301 -1.25041 0
M  V30 3571 C 329.048 -0.489994 -2.29426 0
M  V30 3572 C 330.064 0.444944 -1.68215 0
M  V30 3573 O 331.24 0.320046 -1.98841 0
M  V30 3574 C 328.305 0.220309 -3.45999 0
M  V30 3575 C 327.366 -0.753418 -4.22637 0
M  V30 3576 C 326.599 -0.076918 -5.33645 0
M  V30 3577 O 326.822 1.13649 -5.58963 0
M  V30 3578 O 325.756 -0.764824 -5.97021 0
M  V30 3579 H 329.582 -1.35755 -2.71669 0
M  V30 3580 H 327.167 -0.725961 -1.30576 0
M  V30 3581 H 329.049 0.619677 -4.16819 0
M  V30 3582 H 327.724 1.06296 -3.0575 0
M  V30 3583 H 326.631 -1.20308 -3.54227 0
M  V30 3584 H 327.964 -1.56423 -4.66683 0
M  V30 3585 N 329.616 1.39756 -0.72842 0
M  V30 3586 C 330.546 2.33289 -0.0991354 0
M  V30 3587 C 331.527 1.53568 0.731489 0
M  V30 3588 O 332.712 1.81987 0.677807 0
M  V30 3589 C 329.842 3.3763 0.813834 0
M  V30 3590 C 328.796 4.2791 0.0878663 0
M  V30 3591 C 328.122 5.22894 1.11741 0
M  V30 3592 C 329.422 5.11314 -1.06563 0
M  V30 3593 H 331.116 2.86163 -0.880408 0
M  V30 3594 H 328.662 1.37591 -0.424819 0
M  V30 3595 H 330.615 4.0201 1.26355 0
M  V30 3596 H 329.339 2.83181 1.62715 0
M  V30 3597 H 327.998 3.65 -0.342159 0
M  V30 3598 H 327.646 4.64744 1.92412 0
M  V30 3599 H 327.346 5.84143 0.636477 0
M  V30 3600 H 328.87 5.90151 1.56697 0
M  V30 3601 H 330.284 5.69076 -0.694671 0
M  V30 3602 H 328.681 5.81671 -1.47577 0
M  V30 3603 H 329.751 4.46534 -1.89038 0
M  V30 3604 N 331.094 0.475555 1.50254 0
M  V30 3605 C 332.041 -0.316293 2.28622 0
M  V30 3606 C 333.011 -0.983227 1.33873 0
M  V30 3607 O 334.196 -0.994805 1.62814 0
M  V30 3608 C 331.336 -1.38975 3.1588 0
M  V30 3609 C 330.449 -0.737146 4.25664 0
M  V30 3610 C 329.584 -1.78887 5.00173 0
M  V30 3611 C 328.623 -1.11676 6.01826 0
M  V30 3612 N 327.76 -2.11154 6.69596 0
M  V30 3613 H 332.6 0.358297 2.95838 0
M  V30 3614 H 330.137 0.188541 1.45887 0
M  V30 3615 H 332.095 -2.02383 3.64825 0
M  V30 3616 H 330.725 -2.03344 2.50701 0
M  V30 3617 H 329.777 0.0096065 3.80399 0
M  V30 3618 H 331.089 -0.206816 4.98371 0
M  V30 3619 H 330.243 -2.49865 5.52859 0
M  V30 3620 H 328.982 -2.35302 4.27182 0
M  V30 3621 H 327.987 -0.392633 5.48396 0
M  V30 3622 H 329.212 -0.55945 6.76792 0
M  V30 3623 H 327.158 -2.66577 5.99394 0
M  V30 3624 H 327.075 -1.63118 7.38193 0
M  V30 3625 H 328.343 -2.81497 7.26897 0
M  V30 3626 N 332.573 -1.56217 0.208337 0
M  V30 3627 C 333.483 -2.23316 -0.718836 0
M  V30 3628 C 334.499 -1.23648 -1.22422 0
M  V30 3629 O 335.675 -1.56423 -1.26861 0
M  V30 3630 C 332.74 -2.88968 -1.91568 0
M  V30 3631 C 331.801 -4.03943 -1.45357 0
M  V30 3632 C 331.034 -4.66455 -2.59337 0
M  V30 3633 O 331.257 -4.27919 -3.77149 0
M  V30 3634 O 330.191 -5.55686 -2.31293 0
M  V30 3635 H 334.017 -3.03182 -0.177315 0
M  V30 3636 H 331.602 -1.49384 -0.0215402 0
M  V30 3637 H 333.484 -3.30455 -2.61491 0
M  V30 3638 H 332.159 -2.12071 -2.44556 0
M  V30 3639 H 331.066 -3.67052 -0.722746 0
M  V30 3640 H 332.399 -4.82543 -0.970219 0
M  V30 3641 N 334.051 0.0651679 -1.57465 0
M  V30 3642 C 335.281 0.774683 -1.91526 0
M  V30 3643 C 335.689 1.71305 -0.803196 0
M  V30 3644 O 335.032 1.82231 0.231881 0
M  V30 3645 C 335.094 1.61645 -3.21109 0
M  V30 3646 C 334.758 0.846753 -4.49087 0
M  V30 3647 C 335.755 0.163024 -5.19644 0
M  V30 3648 C 333.44 0.811966 -4.95694 0
M  V30 3649 C 335.434 -0.54519 -6.35064 0
M  V30 3650 C 333.121 0.0999836 -6.11018 0
M  V30 3651 C 334.119 -0.577388 -6.80555 0
M  V30 3652 O 333.807 -1.27789 -7.93678 0
M  V30 3653 H 333.539 0.225031 -0.637446 0
M  V30 3654 H 336.093 0.0377134 -2.05365 0
M  V30 3655 H 334.323 2.39638 -3.03497 0
M  V30 3656 H 336.012 2.20525 -3.40769 0
M  V30 3657 H 336.778 0.181163 -4.84662 0
M  V30 3658 H 332.657 1.32867 -4.41438 0
M  V30 3659 H 336.201 -1.07446 -6.89276 0
M  V30 3660 H 332.098 0.0797945 -6.45451 0
M  V30 3661 H 332.866 -1.18784 -8.09835 0
M  V30 3662 N 335.529 1.53961 0.336706 0
M  V30 3663 C 336.757 1.75483 1.09605 0
M  V30 3664 C 337.172 0.4972 1.82136 0
M  V30 3665 O 336.529 -0.53149 1.74589 0
M  V30 3666 C 336.58 2.93943 2.10428 0
M  V30 3667 O 336.301 4.14842 1.40846 0
M  V30 3668 C 337.802 3.27571 2.98684 0
M  V30 3669 H 335.022 0.586166 0.326574 0
M  V30 3670 H 337.566 2.00808 0.38683 0
M  V30 3671 H 335.721 2.70929 2.76905 0
M  V30 3672 H 336.135 4.81383 2.08255 0
M  V30 3673 H 337.609 4.13791 3.6535 0
M  V30 3674 H 338.086 2.44168 3.65074 0
M  V30 3675 H 338.692 3.52615 2.37787 0
M  V30 3676 N 337.007 -0.598083 1.45811 0
M  V30 3677 C 338.237 -1.38121 1.53643 0
M  V30 3678 C 338.645 -1.88425 0.171081 0
M  V30 3679 O 337.988 -1.63409 -0.839237 0
M  V30 3680 C 338.05 -2.61432 2.46766 0
M  V30 3681 C 337.714 -2.32702 3.93318 0
M  V30 3682 C 338.711 -1.92479 4.82957 0
M  V30 3683 C 336.396 -2.45321 4.38318 0
M  V30 3684 C 338.39 -1.65248 6.15607 0
M  V30 3685 C 336.077 -2.17703 5.71007 0
M  V30 3686 C 337.075 -1.7773 6.5947 0
M  V30 3687 O 336.763 -1.50441 7.89698 0
M  V30 3688 H 336.495 -0.428863 0.522544 0
M  V30 3689 H 339.049 -0.73557 1.91777 0
M  V30 3690 H 337.279 -3.28749 2.0362 0
M  V30 3691 H 338.968 -3.23487 2.45175 0
M  V30 3692 H 339.734 -1.82258 4.49452 0
M  V30 3693 H 335.613 -2.75399 3.69697 0
M  V30 3694 H 339.157 -1.33973 6.84614 0
M  V30 3695 H 335.054 -2.27544 6.04065 0
M  V30 3696 H 335.822 -1.64415 8.01817 0
M  V30 3697 N 338.485 -1.33259 -0.841409 0
M  V30 3698 C 339.395 -1.25332 -1.98316 0
M  V30 3699 C 340.411 -0.164364 -1.73222 0
M  V30 3700 O 341.587 -0.387486 -1.97637 0
M  V30 3701 C 338.652 -0.990078 -3.32262 0
M  V30 3702 C 337.713 -2.16879 -3.70489 0
M  V30 3703 C 336.946 -1.91801 -4.98044 0
M  V30 3704 O 337.169 -0.867075 -5.63771 0
M  V30 3705 O 336.103 -2.78267 -5.33714 0
M  V30 3706 H 339.929 -2.21344 -2.07944 0
M  V30 3707 H 337.514 -1.1328 -0.974058 0
M  V30 3708 H 339.396 -0.860321 -4.12524 0
M  V30 3709 H 338.071 -0.0602155 -3.23644 0
M  V30 3710 H 336.978 -2.35407 -2.90748 0
M  V30 3711 H 338.311 -3.0819 -3.8377 0
M  V30 3712 N 339.963 1.05934 -1.16686 0
M  V30 3713 C 340.893 2.1546 -0.899949 0
M  V30 3714 C 341.874 1.69391 0.155154 0
M  V30 3715 O 343.059 1.94199 0.00648693 0
M  V30 3716 C 340.189 3.44939 -0.404241 0
M  V30 3717 C 339.143 4.04536 -1.39767 0
M  V30 3718 C 338.469 5.29268 -0.760216 0
M  V30 3719 C 339.769 4.42893 -2.76845 0
M  V30 3720 H 341.463 2.38046 -1.81588 0
M  V30 3721 H 339.009 1.14404 -0.874514 0
M  V30 3722 H 340.962 4.20901 -0.204971 0
M  V30 3723 H 339.686 3.21983 0.547206 0
M  V30 3724 H 338.345 3.30635 -1.58355 0
M  V30 3725 H 337.993 5.02611 0.197831 0
M  V30 3726 H 337.693 5.70101 -1.42332 0
M  V30 3727 H 339.217 6.07924 -0.57105 0
M  V30 3728 H 340.631 5.09921 -2.62019 0
M  V30 3729 H 339.028 4.94721 -3.39663 0
M  V30 3730 H 340.098 3.53584 -3.31823 0
M  V30 3731 N 341.441 0.965919 1.2453 0
M  V30 3732 C 342.371 0.513476 2.27784 0
M  V30 3733 C 343.352 -0.445974 1.6415 0
M  V30 3734 O 344.537 -0.342485 1.91156 0
M  V30 3735 C 341.667 -0.198839 3.4673 0
M  V30 3736 C 340.621 0.676456 4.2262 0
M  V30 3737 C 339.947 -0.167248 5.34438 0
M  V30 3738 C 341.247 1.96017 4.84123 0
M  V30 3739 H 342.941 1.3765 2.65881 0
M  V30 3740 H 340.487 0.663321 1.27813 0
M  V30 3741 H 342.44 -0.526567 4.18097 0
M  V30 3742 H 341.164 -1.0962 3.07654 0
M  V30 3743 H 339.823 0.98743 3.53052 0
M  V30 3744 H 339.471 -1.0647 4.91603 0
M  V30 3745 H 339.171 0.415181 5.86131 0
M  V30 3746 H 340.695 -0.489688 6.08633 0
M  V30 3747 H 342.109 1.69814 5.47573 0
M  V30 3748 H 340.506 2.48918 5.4604 0
M  V30 3749 H 341.576 2.65622 4.05676 0
M  V30 3750 N 342.919 -1.39368 0.735821 0
M  V30 3751 C 344.166 -2.00497 0.284123 0
M  V30 3752 C 344.494 -1.58387 -1.12889 0
M  V30 3753 O 343.749 -0.804359 -1.78406 0
M  V30 3754 C 344.048 -3.5583 0.334651 0
M  V30 3755 C 343.714 -4.17593 1.7008 0
M  V30 3756 C 342.376 -4.34176 2.07472 0
M  V30 3757 C 344.728 -4.51848 2.59775 0
M  V30 3758 C 342.056 -4.82304 3.34065 0
M  V30 3759 C 344.408 -5.01384 3.85741 0
M  V30 3760 C 343.072 -5.16175 4.23225 0
M  V30 3761 H 342.342 -0.73367 0.103968 0
M  V30 3762 H 344.989 -1.66683 0.942825 0
M  V30 3763 H 343.294 -3.89674 -0.407625 0
M  V30 3764 H 344.991 -4.00986 -0.0329927 0
M  V30 3765 H 341.581 -4.05087 1.40008 0
M  V30 3766 H 345.765 -4.38653 2.32157 0
M  V30 3767 H 341.021 -4.91941 3.63049 0
M  V30 3768 H 345.195 -5.26863 4.55399 0
M  V30 3769 H 342.822 -5.5323 5.21384 0
M  V30 3770 N 344.397 -0.483516 -1.5 0
M  V30 3771 C 345.307 0.309172 -2.32554 0
M  V30 3772 C 346.323 0.984159 -1.43493 0
M  V30 3773 O 347.499 0.969399 -1.76535 0
M  V30 3774 C 344.564 1.36979 -3.18493 0
M  V30 3775 C 343.625 0.710095 -4.23387 0
M  V30 3776 C 342.858 1.72018 -5.05218 0
M  V30 3777 O 343.081 2.94813 -4.88305 0
M  V30 3778 O 342.015 1.28515 -5.8802 0
M  V30 3779 H 345.841 -0.366064 -3.01486 0
M  V30 3780 H 343.426 -0.24514 -1.47375 0
M  V30 3781 H 345.308 1.98385 -3.71781 0
M  V30 3782 H 343.983 2.02828 -2.52275 0
M  V30 3783 H 342.89 0.0567539 -3.74057 0
M  V30 3784 H 344.223 0.0943557 -4.9211 0
M  V30 3785 N 345.875 1.56104 -0.216619 0
M  V30 3786 C 346.805 2.23063 0.690296 0
M  V30 3787 C 347.786 1.20072 1.20485 0
M  V30 3788 O 348.971 1.48643 1.24976 0
M  V30 3789 C 346.101 2.90672 1.90072 0
M  V30 3790 C 345.055 4.00092 1.5202 0
M  V30 3791 C 344.381 4.54972 2.80899 0
M  V30 3792 C 345.681 5.17398 0.71391 0
M  V30 3793 H 347.375 2.99109 0.132038 0
M  V30 3794 H 344.921 1.43866 0.0620664 0
M  V30 3795 H 346.874 3.36204 2.54057 0
M  V30 3796 H 345.598 2.12066 2.48386 0
M  V30 3797 H 344.257 3.55283 0.903839 0
M  V30 3798 H 343.905 3.73102 3.37348 0
M  V30 3799 H 343.605 5.28817 2.56176 0
M  V30 3800 H 345.129 5.0322 3.45836 0
M  V30 3801 H 346.543 5.59342 1.25735 0
M  V30 3802 H 344.94 5.97444 0.563951 0
M  V30 3803 H 346.01 4.84088 -0.280527 0
M  V30 3804 N 347.353 -0.0568162 1.57498 0
M  V30 3805 C 348.583 -0.764515 1.91934 0
M  V30 3806 C 348.991 -1.70877 0.81227 0
M  V30 3807 O 348.334 -1.82351 -0.222213 0
M  V30 3808 C 348.396 -1.5994 3.21962 0
M  V30 3809 C 348.06 -0.822925 4.4953 0
M  V30 3810 C 349.057 -0.135464 5.19723 0
M  V30 3811 C 346.742 -0.785666 4.96117 0
M  V30 3812 C 348.736 0.578861 6.34766 0
M  V30 3813 C 346.423 -0.0675784 6.11063 0
M  V30 3814 C 347.421 0.613471 6.80239 0
M  V30 3815 O 347.109 1.31996 7.92989 0
M  V30 3816 H 346.841 -0.221647 0.63863 0
M  V30 3817 H 349.395 -0.0268218 2.05382 0
M  V30 3818 H 347.625 -2.38026 3.04763 0
M  V30 3819 H 349.314 -2.18715 3.41934 0
M  V30 3820 H 350.08 -0.155458 4.84751 0
M  V30 3821 H 345.959 -1.30524 4.42136 0
M  V30 3822 H 349.503 1.111 6.88696 0
M  V30 3823 H 345.4 -0.0455636 6.45484 0
M  V30 3824 H 346.168 1.23077 8.09194 0
M  V30 3825 N 348.832 -1.54138 -0.328536 0
M  V30 3826 C 350.109 -1.62749 -1.08499 0
M  V30 3827 C 350.489 -0.458198 -2.06067 0
M  V30 3828 O 349.837 0.548046 -2.2183 0
M  V30 3829 C 350.047 -2.99519 -1.79135 0
M  V30 3830 C 351.395 -3.55394 -2.32337 0
M  V30 3831 O 352.419 -3.01792 -1.89209 0
M  V30 3832 O 351.278 -4.49186 -3.11279 0
M  V30 3833 H 348.372 -0.65886 -0.499832 0
M  V30 3834 H 350.918 -1.66484 -0.328826 0
M  V30 3835 H 349.69 -3.76061 -1.08139 0
M  V30 3836 H 349.313 -2.99441 -2.61574 0
M  V30 3837 N 350.31 0.590341 -1.46126 0
M  V30 3838 C 351.258 1.72105 -1.5647 0
M  V30 3839 C 352.252 1.63756 -0.433612 0
M  V30 3840 O 353.458 1.69342 -0.610194 0
M  V30 3841 H 349.833 0.568889 -0.491802 0
M  V30 3842 H 351.804 1.6051 -2.51553 0
M  V30 3843 C 350.553 3.10493 -1.56491 0
M  V30 3844 H 349.876 3.17583 -2.4286 0
M  V30 3845 H 351.316 3.8939 -1.67785 0
M  V30 3846 C 349.775 3.3563 -0.292231 0
M  V30 3847 O 350.305 3.96875 0.620739 0
M  V30 3848 N 348.511 2.90026 -0.182523 0
M  V30 3849 H 348.058 2.40367 -0.926356 0
M  V30 3850 H 348.016 3.07218 0.668152 0
M  V30 3851 N 351.788 1.33704 0.83433 0
M  V30 3852 C 352.698 1.26382 1.97648 0
M  V30 3853 C 353.714 0.173548 1.73132 0
M  V30 3854 O 354.89 0.397962 1.97429 0
M  V30 3855 C 351.955 1.00769 3.31733 0
M  V30 3856 C 351.016 2.1884 3.69334 0
M  V30 3857 C 350.249 1.9444 4.9702 0
M  V30 3858 O 350.472 0.896961 5.63303 0
M  V30 3859 O 349.406 2.81093 5.32231 0
M  V30 3860 H 353.232 2.22444 2.06767 0
M  V30 3861 H 350.817 1.13795 0.968037 0
M  V30 3862 H 352.699 0.882186 4.12062 0
M  V30 3863 H 351.374 0.0773783 3.23608 0
M  V30 3864 H 350.281 2.36946 2.89495 0
M  V30 3865 H 351.614 3.10221 3.82131 0
M  V30 3866 N 353.266 -1.05314 1.17247 0
M  V30 3867 C 354.512 -1.78557 0.961513 0
M  V30 3868 C 354.845 -1.87419 -0.508697 0
M  V30 3869 O 354.12 -1.37307 -1.37757 0
M  V30 3870 C 354.403 -3.22514 1.60176 0
M  V30 3871 C 354.256 -3.21673 3.14399 0
M  V30 3872 C 355.575 -4.20318 1.30463 0
M  V30 3873 H 352.694 -0.6482 0.350723 0
M  V30 3874 H 355.336 -1.23102 1.44727 0
M  V30 3875 H 353.486 -3.69867 1.18871 0
M  V30 3876 H 355.158 -2.82405 3.64753 0
M  V30 3877 H 353.401 -2.60048 3.47214 0
M  V30 3878 H 354.072 -4.23271 3.54324 0
M  V30 3879 H 356.548 -3.81454 1.66229 0
M  V30 3880 H 355.424 -5.19289 1.77848 0
M  V30 3881 H 355.685 -4.41526 0.22521 0
M  V30 3882 N 354.744 -0.972509 -1.24016 0
M  V30 3883 C 355.654 -0.5143 -2.28893 0
M  V30 3884 C 356.67 0.427078 -1.68677 0
M  V30 3885 O 357.846 0.298939 -1.99169 0
M  V30 3886 C 354.911 0.183598 -3.46214 0
M  V30 3887 C 353.972 -0.798202 -4.21814 0
M  V30 3888 C 353.205 -0.133514 -5.33533 0
M  V30 3889 O 353.428 1.07714 -5.60137 0
M  V30 3890 O 352.362 -0.828103 -5.96176 0
M  V30 3891 H 356.188 -1.38629 -2.70214 0
M  V30 3892 H 353.773 -0.739769 -1.29799 0
M  V30 3893 H 355.655 0.575433 -4.17453 0
M  V30 3894 H 354.33 1.03048 -3.0686 0
M  V30 3895 H 353.237 -1.24059 -3.52931 0
M  V30 3896 H 354.57 -1.61364 -4.64997 0
M  V30 3897 N 356.222 1.38976 -0.743202 0
M  V30 3898 C 357.452 2.04339 -0.304807 0
M  V30 3899 C 357.86 1.56162 1.06819 0
M  V30 3900 O 357.203 0.725284 1.68776 0
M  V30 3901 C 357.265 3.58716 -0.237369 0
M  V30 3902 C 356.929 4.29905 -1.55018 0
M  V30 3903 C 357.926 4.55987 -2.49744 0
M  V30 3904 C 355.611 4.68294 -1.81675 0
M  V30 3905 C 357.605 5.19478 -3.69353 0
M  V30 3906 C 355.292 5.31512 -3.0156 0
M  V30 3907 C 356.29 5.57037 -3.9522 0
M  V30 3908 O 355.978 6.18941 -5.12998 0
M  V30 3909 H 355.71 0.663439 -0.12971 0
M  V30 3910 H 358.264 1.78852 -1.01001 0
M  V30 3911 H 356.494 3.83133 0.524003 0
M  V30 3912 H 358.183 4.05543 0.170121 0
M  V30 3913 H 358.949 4.26767 -2.30423 0
M  V30 3914 H 354.828 4.47779 -1.09615 0
M  V30 3915 H 358.372 5.39318 -4.42473 0
M  V30 3916 H 354.269 5.60153 -3.20778 0
M  V30 3917 H 355.037 6.37433 -5.13441 0
M  V30 3918 N 357.7 0.491464 1.49741 0
M  V30 3919 C 358.928 -0.0535151 2.06831 0
M  V30 3920 C 359.343 -1.31683 1.35296 0
M  V30 3921 O 358.7 -1.77402 0.42836 0
M  V30 3922 C 358.751 -0.320835 3.60073 0
M  V30 3923 O 358.472 0.892394 4.28915 0
M  V30 3924 C 359.973 -0.910519 4.33848 0
M  V30 3925 H 357.193 0.0161909 0.670805 0
M  V30 3926 H 359.737 0.68609 1.92647 0
M  V30 3927 H 357.892 -1.0104 3.73991 0
M  V30 3928 H 358.306 0.649401 5.20464 0
M  V30 3929 H 359.78 -1.04721 5.41976 0
M  V30 3930 H 360.257 -1.90589 3.95692 0
M  V30 3931 H 360.863 -0.258712 4.24512 0
M  V30 3932 N 359.178 -1.55987 0.224894 0
M  V30 3933 C 360.11 -2.17722 -0.716224 0
M  V30 3934 C 361.123 -1.14723 -1.15509 0
M  V30 3935 O 362.312 -1.41688 -1.08567 0
M  V30 3936 C 359.412 -2.74873 -1.98238 0
M  V30 3937 C 358.585 -4.03074 -1.69853 0
M  V30 3938 C 357.644 -4.44757 -2.81208 0
M  V30 3939 O 356.67 -5.11587 -2.49534 0
M  V30 3940 N 357.872 -4.10716 -4.10235 0
M  V30 3941 H 360.637 -2.99109 -0.188123 0
M  V30 3942 H 358.198 -1.6184 0.0440123 0
M  V30 3943 H 360.19 -2.99727 -2.7193 0
M  V30 3944 H 358.76 -1.9777 -2.42086 0
M  V30 3945 H 357.98 -3.86041 -0.797875 0
M  V30 3946 H 359.268 -4.86701 -1.48324 0
M  V30 3947 H 358.666 -3.57019 -4.38809 0
M  V30 3948 H 357.223 -4.40455 -4.80461 0
M  V30 3949 N 360.656 0.0484629 -1.57525 0
M  V30 3950 C 361.933 0.777447 -1.79486 0
M  V30 3951 C 362.313 1.94597 -0.818251 0
M  V30 3952 O 361.661 2.28047 0.143767 0
M  V30 3953 C 361.871 1.22864 -3.26658 0
M  V30 3954 C 363.219 1.65251 -3.91123 0
M  V30 3955 O 364.243 1.32372 -3.3069 0
M  V30 3956 O 363.102 2.26207 -4.97486 0
M  V30 3957 H 360.196 0.374357 -0.737419 0
M  V30 3958 H 362.742 0.0267359 -1.69679 0
M  V30 3959 H 361.514 0.393589 -3.89316 0
M  V30 3960 H 361.137 2.03996 -3.41279 0
M  V30 3961 N 362.134 1.5431 0.320358 0
M  V30 3962 C 363.064 1.86912 1.3995 0
M  V30 3963 C 364.045 0.726211 1.53819 0
M  V30 3964 O 365.23 0.980233 1.67646 0
M  V30 3965 C 362.36 2.09932 2.7667 0
M  V30 3966 C 361.314 3.25776 2.77586 0
M  V30 3967 C 360.64 3.34173 4.17412 0
M  V30 3968 C 361.94 4.6335 2.41048 0
M  V30 3969 H 363.634 2.77292 1.12914 0
M  V30 3970 H 361.18 1.33421 0.541738 0
M  V30 3971 H 363.133 2.31324 3.52232 0
M  V30 3972 H 361.857 1.16304 3.0519 0
M  V30 3973 H 360.516 3.04276 2.04479 0
M  V30 3974 H 360.164 2.38098 4.43078 0
M  V30 3975 H 359.864 4.12033 4.18931 0
M  V30 3976 H 361.388 3.57803 4.94782 0
M  V30 3977 H 362.802 4.84602 3.06324 0
M  V30 3978 H 361.199 5.43782 2.53813 0
M  V30 3979 H 362.269 4.65381 1.36193 0
M  V30 3980 N 363.613 -0.582584 1.46437 0
M  V30 3981 C 364.843 -1.36484 1.55099 0
M  V30 3982 C 365.251 -1.88233 0.191056 0
M  V30 3983 O 364.594 -1.6429 -0.821858 0
M  V30 3984 C 364.656 -2.588 2.49525 0
M  V30 3985 C 364.32 -2.28517 3.95764 0
M  V30 3986 C 365.317 -1.87346 4.84972 0
M  V30 3987 C 363.002 -2.40658 4.40896 0
M  V30 3988 C 364.996 -1.5871 6.17325 0
M  V30 3989 C 362.683 -2.11635 5.73284 0
M  V30 3990 C 363.681 -1.70725 6.61318 0
M  V30 3991 O 363.369 -1.42057 7.91249 0
M  V30 3992 H 363.101 -0.423297 0.527063 0
M  V30 3993 H 365.655 -0.715188 1.92547 0
M  V30 3994 H 363.885 -3.26571 2.07095 0
M  V30 3995 H 365.574 -3.20868 2.48593 0
M  V30 3996 H 366.34 -1.77481 4.5136 0
M  V30 3997 H 362.219 -2.71463 3.72598 0
M  V30 3998 H 365.763 -1.26704 6.85997 0
M  V30 3999 H 361.66 -2.21124 6.06444 0
M  V30 4000 H 362.428 -1.55901 8.03515 0
M  V30 4001 N 365.091 -1.34144 -0.827227 0
M  V30 4002 C 366.368 -1.16844 -1.56865 0
M  V30 4003 C 366.748 0.260654 -2.09485 0
M  V30 4004 O 366.096 1.26138 -1.9053 0
M  V30 4005 C 366.306 -2.21939 -2.6934 0
M  V30 4006 C 367.654 -2.56695 -3.3822 0
M  V30 4007 O 368.678 -2.20695 -2.79593 0
M  V30 4008 O 367.537 -3.18518 -4.44082 0
M  V30 4009 H 364.631 -0.452669 -0.692112 0
M  V30 4010 H 367.177 -1.45763 -0.868973 0
M  V30 4011 H 365.949 -3.17882 -2.28182 0
M  V30 4012 H 365.572 -1.94172 -3.46962 0
M  V30 4013 N 366.569 1.04691 -1.17803 0
M  V30 4014 C 367.985 1.29963 -0.926379 0
M  V30 4015 C 368.185 1.97251 0.411635 0
M  V30 4016 O 367.241 2.24922 1.14744 0
M  V30 4017 C 368.554 2.16447 -2.08737 0
M  V30 4018 C 370.102 2.29814 -2.12496 0
M  V30 4019 C 370.577 3.19661 -3.27995 0
M  V30 4020 N 372.068 3.27247 -3.27816 0
M  V30 4021 C 372.803 3.96906 -4.13827 0
M  V30 4022 N 372.299 4.6895 -5.09959 0
M  V30 4023 N 374.092 3.93122 -4.01761 0
M  V30 4024 H 366.243 0.594182 -2.0392 0
M  V30 4025 H 368.506 0.324649 -0.890678 0
M  V30 4026 H 368.212 1.74304 -3.05469 0
M  V30 4027 H 368.086 3.17103 -2.04268 0
M  V30 4028 H 370.473 2.71196 -1.16347 0
M  V30 4029 H 370.554 1.2877 -2.21025 0
M  V30 4030 H 370.198 2.78991 -4.24413 0
M  V30 4031 H 370.128 4.20722 -3.16703 0
M  V30 4032 H 372.619 2.75921 -2.58217 0
M  V30 4033 H 372.932 5.19679 -5.71974 0
M  V30 4034 H 371.277 4.67875 -5.13924 0
M  V30 4035 H 374.468 3.35967 -3.2595 0
M  V30 4036 H 374.641 4.47139 -4.6901 0
M  V30 4037 N 368.047 0.979072 1.23499 0
M  V30 4038 C 369.293 0.648178 1.92163 0
M  V30 4039 C 369.626 -0.816049 1.76222 0
M  V30 4040 O 368.901 -1.58849 1.12237 0
M  V30 4041 C 369.184 1.03773 3.44824 0
M  V30 4042 C 369.037 2.55948 3.69879 0
M  V30 4043 C 370.356 0.580653 4.36253 0
M  V30 4044 H 367.475 0.236952 0.69787 0
M  V30 4045 H 370.117 1.22012 1.45647 0
M  V30 4046 H 368.267 0.551058 3.84572 0
M  V30 4047 H 369.939 3.12179 3.3962 0
M  V30 4048 H 368.182 2.98641 3.14636 0
M  V30 4049 H 368.853 2.78255 4.76737 0
M  V30 4050 H 371.329 0.998465 4.03943 0
M  V30 4051 H 370.205 0.881663 5.41773 0
M  V30 4052 H 370.466 -0.519052 4.39042 0
M  V30 4053 N 369.525 -1.3858 0.750561 0
M  V30 4054 C 370.773 -1.99789 0.30477 0
M  V30 4055 C 371.094 -1.59874 -1.11649 0
M  V30 4056 O 370.364 -0.85417 -1.76297 0
M  V30 4057 H 368.944 -0.738902 0.109694 0
M  V30 4058 H 371.606 -1.69391 0.963983 0
M  V30 4059 H 370.702 -3.09952 0.365499 0
M  V30 4060 N 371.003 -0.499398 -1.49478 0
M  V30 4061 C 371.933 0.269244 -2.31943 0
M  V30 4062 C 372.914 0.964054 -1.40143 0
M  V30 4063 O 374.099 0.955767 -1.69052 0
M  V30 4064 C 371.229 1.33504 -3.20615 0
M  V30 4065 C 370.183 0.760202 -4.21195 0
M  V30 4066 C 369.509 1.9264 -4.98792 0
M  V30 4067 C 370.809 -0.247661 -5.21712 0
M  V30 4068 H 372.503 -0.419082 -2.96452 0
M  V30 4069 H 370.049 -0.202988 -1.42562 0
M  V30 4070 H 372.002 1.88048 -3.77115 0
M  V30 4071 H 370.726 2.05253 -2.54045 0
M  V30 4072 H 369.385 0.23653 -3.65836 0
M  V30 4073 H 369.033 2.63154 -4.28671 0
M  V30 4074 H 368.733 1.54785 -5.66847 0
M  V30 4075 H 370.257 2.4762 -5.58137 0
M  V30 4076 H 371.671 0.209579 -5.72917 0
M  V30 4077 H 370.068 -0.541962 -5.97648 0
M  V30 4078 H 371.138 -1.16409 -4.7072 0
M  V30 4079 N 372.481 1.55866 -0.233164 0
M  V30 4080 C 373.709 2.02998 0.399905 0
M  V30 4081 C 374.124 1.11274 1.52524 0
M  V30 4082 O 373.481 0.124528 1.82075 0
M  V30 4083 C 373.532 3.4958 0.920639 0
M  V30 4084 O 373.253 4.37808 -0.159834 0
M  V30 4085 C 374.754 4.12411 1.62578 0
M  V30 4086 H 371.974 0.664006 0.0966281 0
M  V30 4087 H 374.518 2.0143 -0.353013 0
M  V30 4088 H 372.673 3.51727 1.62379 0
M  V30 4089 H 373.087 5.23981 0.23337 0
M  V30 4090 H 374.561 5.16711 1.94201 0
M  V30 4091 H 375.038 3.5809 2.54299 0
M  V30 4092 H 375.644 4.14148 0.967553 0
M  V30 4093 N 373.959 -0.0401083 1.57549 0
M  V30 4094 C 374.869 -1.06133 2.0922 0
M  V30 4095 C 375.885 -1.40356 1.0284 0
M  V30 4096 O 377.061 -1.49897 1.34509 0
M  V30 4097 C 374.126 -2.34658 2.55218 0
M  V30 4098 C 373.187 -2.07117 3.76033 0
M  V30 4099 C 372.42 -3.29514 4.19829 0
M  V30 4100 O 372.643 -4.39794 3.63232 0
M  V30 4101 O 371.577 -3.15863 5.12362 0
M  V30 4102 H 375.403 -0.652244 2.96613 0
M  V30 4103 H 372.988 -0.256368 1.47184 0
M  V30 4104 H 374.87 -3.10239 2.85184 0
M  V30 4105 H 373.545 -2.74883 1.70941 0
M  V30 4106 H 372.452 -1.29139 3.51104 0
M  V30 4107 H 373.785 -1.71754 4.61261 0
M  V30 4108 N 375.437 -1.54477 -0.31217 0
M  V30 4109 C 376.714 -1.63891 -1.06767 0
M  V30 4110 C 377.094 -0.480028 -2.0557 0
M  V30 4111 O 376.442 0.524487 -2.22399 0
M  V30 4112 C 376.652 -3.01402 -1.75948 0
M  V30 4113 C 378 -3.57838 -2.28554 0
M  V30 4114 O 379.024 -3.03782 -1.85998 0
M  V30 4115 O 377.883 -4.52462 -3.06497 0
M  V30 4116 H 374.977 -0.664125 -0.492816 0
M  V30 4117 H 377.523 -1.66823 -0.311149 0
M  V30 4118 H 376.295 -3.77187 -1.04144 0
M  V30 4119 H 375.918 -3.02199 -2.58383 0
M  V30 4120 N 376.915 0.57481 -1.46744 0
M  V30 4121 C 378.161 1.3347 -1.52688 0
M  V30 4122 C 378.494 1.93353 -0.181229 0
M  V30 4123 O 377.769 1.76912 0.808237 0
M  V30 4124 C 378.052 2.45811 -2.63152 0
M  V30 4125 C 377.905 1.90912 -4.07275 0
M  V30 4126 C 379.224 3.47822 -2.69644 0
M  V30 4127 H 376.343 0.483935 -0.555856 0
M  V30 4128 H 378.985 0.644968 -1.78718 0
M  V30 4129 H 377.135 3.04646 -2.41088 0
M  V30 4130 H 378.807 1.36473 -4.4065 0
M  V30 4131 H 377.05 1.21691 -4.16382 0
M  V30 4132 H 377.721 2.72042 -4.80309 0
M  V30 4133 H 380.197 2.9888 -2.895 0
M  V30 4134 H 379.073 4.23876 -3.48742 0
M  V30 4135 H 379.334 4.05555 -1.76005 0
M  V30 4136 N 378.394 1.34581 0.820102 0
M  V30 4137 C 379.341 1.2639 1.93117 0
M  V30 4138 C 380.311 0.138554 1.65521 0
M  V30 4139 O 381.496 0.320004 1.88097 0
M  V30 4140 C 378.636 1.02812 3.29429 0
M  V30 4141 C 377.749 2.24146 3.693 0
M  V30 4142 C 376.884 1.93829 4.94574 0
M  V30 4143 C 375.923 3.1129 5.27034 0
M  V30 4144 N 375.06 2.80838 6.43486 0
M  V30 4145 H 379.9 2.21408 1.99455 0
M  V30 4146 H 377.437 1.10077 0.975784 0
M  V30 4147 H 379.395 0.871788 4.0799 0
M  V30 4148 H 378.025 0.114612 3.22596 0
M  V30 4149 H 377.077 2.50691 2.86109 0
M  V30 4150 H 378.389 3.11899 3.89257 0
M  V30 4151 H 377.543 1.74948 5.80929 0
M  V30 4152 H 376.282 1.03341 4.76626 0
M  V30 4153 H 375.287 3.30764 4.39175 0
M  V30 4154 H 376.512 4.02561 5.4692 0
M  V30 4155 H 374.458 1.92929 6.26988 0
M  V30 4156 H 374.375 3.62123 6.63629 0
M  V30 4157 H 375.643 2.65467 7.32903 0
M  V30 4158 N 379.872 -1.04064 1.18357 0
M  V30 4159 C 380.819 -2.12077 0.910603 0
M  V30 4160 C 381.789 -1.65421 -0.15 0
M  V30 4161 O 382.974 -1.90797 -0.0103614 0
M  V30 4162 C 380.114 -3.42252 0.442472 0
M  V30 4163 C 379.227 -4.0252 1.5685 0
M  V30 4164 C 378.362 -5.20657 1.05309 0
M  V30 4165 C 377.401 -5.72955 2.1538 0
M  V30 4166 N 376.538 -6.8238 1.65233 0
M  V30 4167 H 381.378 -2.34764 1.83548 0
M  V30 4168 H 378.915 -1.15157 0.915279 0
M  V30 4169 H 380.873 -4.16921 0.152534 0
M  V30 4170 H 379.503 -3.19712 -0.445428 0
M  V30 4171 H 378.555 -3.25178 1.97391 0
M  V30 4172 H 379.867 -4.37362 2.39824 0
M  V30 4173 H 379.021 -6.0244 0.717677 0
M  V30 4174 H 377.76 -4.87318 0.19293 0
M  V30 4175 H 376.765 -4.89793 2.49766 0
M  V30 4176 H 377.99 -6.08337 3.01832 0
M  V30 4177 H 375.936 -6.50917 0.815064 0
M  V30 4178 H 375.853 -7.16286 2.41805 0
M  V30 4179 H 377.121 -7.67788 1.34619 0
M  V30 4180 N 381.35 -0.985608 -1.22978 0
M  V30 4181 C 382.597 -0.657386 -1.91532 0
M  V30 4182 C 382.925 0.809707 -1.76845 0
M  V30 4183 O 382.18 1.60021 -1.12658 0
M  V30 4184 C 382.479 -1.00014 -3.43121 0
M  V30 4185 C 382.145 -2.4583 -3.77993 0
M  V30 4186 C 380.807 -2.85679 -3.87222 0
M  V30 4187 C 383.159 -3.40378 -3.94705 0
M  V30 4188 C 380.487 -4.19081 -4.10595 0
M  V30 4189 C 382.839 -4.73429 -4.1958 0
M  V30 4190 C 381.503 -5.1303 -4.27032 0
M  V30 4191 H 380.773 -0.240555 -0.700867 0
M  V30 4192 H 383.42 -1.24044 -1.45895 0
M  V30 4193 H 381.725 -0.335072 -3.90365 0
M  V30 4194 H 383.422 -0.724322 -3.94404 0
M  V30 4195 H 380.012 -2.13939 -3.71387 0
M  V30 4196 H 384.196 -3.10766 -3.8696 0
M  V30 4197 H 379.452 -4.49362 -4.14589 0
M  V30 4198 H 383.626 -5.46644 -4.31455 0
M  V30 4199 H 381.253 -6.16418 -4.44896 0
M  V30 4200 N 382.828 1.3818 -0.7579 0
M  V30 4201 C 383.758 2.33027 -0.148597 0
M  V30 4202 C 384.739 1.55085 0.69875 0
M  V30 4203 O 385.924 1.83384 0.639053 0
M  V30 4204 C 383.054 3.3928 0.742034 0
M  V30 4205 C 382.008 4.28 -0.00291946 0
M  V30 4206 C 381.334 5.25146 1.00625 0
M  V30 4207 C 382.634 5.08938 -1.17385 0
M  V30 4208 H 384.328 2.84231 -0.940909 0
M  V30 4209 H 381.874 1.36659 -0.453908 0
M  V30 4210 H 383.827 4.046 1.17799 0
M  V30 4211 H 382.551 2.86569 1.56671 0
M  V30 4212 H 381.21 3.64192 -0.419504 0
M  V30 4213 H 380.858 4.68721 1.8251 0
M  V30 4214 H 380.558 5.85361 0.512428 0
M  V30 4215 H 382.082 5.93342 1.44143 0
M  V30 4216 H 383.496 5.67474 -0.815224 0
M  V30 4217 H 381.893 5.7841 -1.59882 0
M  V30 4218 H 382.963 4.42424 -1.98468 0
M  V30 4219 N 384.306 0.507319 1.49211 0
M  V30 4220 C 385.722 0.163682 1.58758 0
M  V30 4221 C 385.922 -1.33208 1.51188 0
M  V30 4222 O 384.978 -2.10855 1.38911 0
M  V30 4223 C 386.291 0.746095 2.91297 0
M  V30 4224 C 387.839 0.712773 3.04776 0
M  V30 4225 C 388.314 1.27336 4.39943 0
M  V30 4226 N 389.805 1.23433 4.46451 0
M  V30 4227 C 390.54 1.63821 5.495 0
M  V30 4228 N 390.036 2.11832 6.5962 0
M  V30 4229 N 391.829 1.55198 5.4025 0
M  V30 4230 H 383.98 1.47972 1.52375 0
M  V30 4231 H 386.243 0.614147 0.722168 0
M  V30 4232 H 385.949 1.79534 3.02424 0
M  V30 4233 H 385.823 0.210137 3.76614 0
M  V30 4234 H 388.21 -0.327656 2.93275 0
M  V30 4235 H 388.291 1.28595 2.21127 0
M  V30 4236 H 387.935 2.3126 4.52196 0
M  V30 4237 H 387.865 0.676066 5.22242 0
M  V30 4238 H 390.356 0.882627 3.67448 0
M  V30 4239 H 390.669 2.40703 7.34358 0
M  V30 4240 H 389.014 2.1581 6.60644 0
M  V30 4241 H 392.205 1.17505 4.53112 0
M  V30 4242 H 392.378 1.86997 6.20432 0
M  V30 4243 N 385.784 -1.5574 0.241426 0
M  V30 4244 C 387.014 -2.02913 -0.38857 0
M  V30 4245 C 387.422 -1.12014 -1.52478 0
M  V30 4246 O 386.765 -0.125903 -1.83268 0
M  V30 4247 C 386.827 -3.4636 -0.963075 0
M  V30 4248 C 386.491 -4.56982 0.0401916 0
M  V30 4249 C 387.488 -5.12941 0.847766 0
M  V30 4250 C 385.173 -5.0203 0.164699 0
M  V30 4251 C 387.167 -6.12437 1.76636 0
M  V30 4252 C 384.854 -6.01358 1.0868 0
M  V30 4253 C 385.852 -6.5644 1.88616 0
M  V30 4254 O 385.54 -7.53831 2.79273 0
M  V30 4255 H 385.272 -0.668983 -0.0971452 0
M  V30 4256 H 387.826 -2.02198 0.361248 0
M  V30 4257 H 386.056 -3.44206 -1.76235 0
M  V30 4258 H 387.745 -3.77065 -1.50257 0
M  V30 4259 H 388.511 -4.78974 0.762133 0
M  V30 4260 H 384.39 -4.58824 -0.447411 0
M  V30 4261 H 387.934 -6.55355 2.39071 0
M  V30 4262 H 383.831 -6.34746 1.17338 0
M  V30 4263 H 384.599 -7.71428 2.73572 0
M  V30 4264 N 387.262 0.0317525 -1.57568 0
M  V30 4265 C 388.21 1.05165 -2.07468 0
M  V30 4266 C 389.204 1.3761 -0.98792 0
M  V30 4267 O 390.41 1.36546 -1.17282 0
M  V30 4268 H 386.785 0.35666 -0.66204 0
M  V30 4269 H 388.756 0.604958 -2.92203 0
M  V30 4270 C 387.505 2.34488 -2.56731 0
M  V30 4271 H 386.828 2.10383 -3.39969 0
M  V30 4272 H 388.268 3.04203 -2.95358 0
M  V30 4273 C 386.727 3.03266 -1.46736 0
M  V30 4274 O 387.257 3.92988 -0.832069 0
M  V30 4275 N 385.463 2.6455 -1.20256 0
M  V30 4276 H 385.01 1.91674 -1.72102 0
M  V30 4277 H 384.968 3.10886 -0.468737 0
M  V30 4278 N 388.74 1.54641 0.303973 0
M  V30 4279 C 389.703 1.84646 1.35789 0
M  V30 4280 C 390.703 0.7192 1.4382 0
M  V30 4281 O 391.893 0.987491 1.43507 0
M  V30 4282 C 389.025 2.02407 2.74307 0
M  V30 4283 H 390.218 2.78829 1.10429 0
M  V30 4284 H 387.771 1.46658 0.540487 0
M  V30 4285 H 388.506 1.10502 3.04893 0
M  V30 4286 H 388.291 2.84453 2.69868 0
M  V30 4287 H 389.781 2.27002 3.50514 0
M  V30 4288 N 390.218 -0.567019 1.47046 0
M  V30 4289 C 391.166 -1.69593 1.59188 0
M  V30 4290 C 392.16 -1.63046 0.459609 0
M  V30 4291 O 393.366 -1.6835 0.637058 0
M  V30 4292 H 389.741 -0.560993 0.500791 0
M  V30 4293 H 391.712 -1.56488 2.54075 0
M  V30 4294 C 390.461 -3.07964 1.61411 0
M  V30 4295 H 389.784 -3.13679 2.47881 0
M  V30 4296 H 391.224 -3.86671 1.73958 0
M  V30 4297 C 389.683 -3.35123 0.34559 0
M  V30 4298 O 390.213 -3.97812 -0.557521 0
M  V30 4299 N 388.419 -2.89699 0.22864 0
M  V30 4300 H 387.966 -2.38863 0.964479 0
M  V30 4301 H 387.924 -3.08242 -0.619192 0
M  V30 4302 N 391.696 -1.35014 -0.812953 0
M  V30 4303 C 392.643 -1.27412 -1.92444 0
M  V30 4304 C 393.613 -0.14733 -1.65445 0
M  V30 4305 O 394.798 -0.329974 -1.87925 0
M  V30 4306 C 391.938 -1.04558 -3.28879 0
M  V30 4307 C 391.051 -2.26101 -3.68106 0
M  V30 4308 C 390.186 -1.96449 -4.9354 0
M  V30 4309 C 389.225 -3.14081 -5.25376 0
M  V30 4310 N 388.362 -2.84246 -6.41988 0
M  V30 4311 H 393.202 -2.22463 -1.98278 0
M  V30 4312 H 390.739 -1.10593 -0.969933 0
M  V30 4313 H 392.697 -0.893413 -4.07522 0
M  V30 4314 H 391.327 -0.131719 -3.22531 0
M  V30 4315 H 390.379 -2.52204 -2.84775 0
M  V30 4316 H 391.691 -3.13959 -3.87597 0
M  V30 4317 H 390.845 -1.78026 -5.79993 0
M  V30 4318 H 389.584 -1.05867 -4.76071 0
M  V30 4319 H 388.589 -3.33089 -4.37415 0
M  V30 4320 H 389.814 -4.05455 -5.44778 0
M  V30 4321 H 387.76 -1.96252 -6.25956 0
M  V30 4322 H 387.677 -3.65637 -6.61699 0
M  V30 4323 H 388.945 -2.6935 -7.31485 0
M  V30 4324 N 393.175 1.03435 -1.18907 0
M  V30 4325 C 394.138 2.09756 -0.923844 0
M  V30 4326 C 395.138 1.60528 0.093416 0
M  V30 4327 O 396.328 1.73631 -0.140727 0
M  V30 4328 C 393.46 3.38692 -0.387354 0
M  V30 4329 H 394.653 2.34719 -1.86674 0
M  V30 4330 H 392.206 1.19959 -1.00197 0
M  V30 4331 H 392.941 3.19396 0.561845 0
M  V30 4332 H 392.726 3.75742 -1.12074 0
M  V30 4333 H 394.216 4.17016 -0.220694 0
M  V30 4334 N 394.653 0.992116 1.22453 0
M  V30 4335 C 395.583 0.561677 2.26644 0
M  V30 4336 C 396.564 -0.411055 1.65059 0
M  V30 4337 O 397.749 -0.301861 1.9184 0
M  V30 4338 C 394.879 -0.125247 3.47074 0
M  V30 4339 C 393.833 0.765948 4.21091 0
M  V30 4340 C 393.159 -0.0538484 5.34673 0
M  V30 4341 C 394.459 2.06242 4.79856 0
M  V30 4342 H 396.153 1.43259 2.62902 0
M  V30 4343 H 393.699 0.690283 1.26377 0
M  V30 4344 H 395.652 -0.437764 4.1912 0
M  V30 4345 H 394.376 -1.03069 3.0991 0
M  V30 4346 H 393.035 1.0621 3.50878 0
M  V30 4347 H 392.683 -0.960188 4.9375 0
M  V30 4348 H 392.383 0.539415 5.85119 0
M  V30 4349 H 393.907 -0.360477 6.09535 0
M  V30 4350 H 395.321 1.8139 5.43848 0
M  V30 4351 H 393.718 2.60444 5.40638 0
M  V30 4352 H 394.788 2.74167 3.99951 0
M  V30 4353 N 396.131 -1.37776 0.765217 0
M  V30 4354 C 397.064 -2.28008 0.0935025 0
M  V30 4355 C 398.042 -1.45985 -0.716047 0
M  V30 4356 O 399.226 -1.75331 -0.692203 0
M  V30 4357 C 396.353 -3.27228 -0.874052 0
M  V30 4358 C 395.399 -4.26239 -0.149307 0
M  V30 4359 S 396.232 -5.22827 1.15809 0
M  V30 4360 C 397.388 -6.256 0.193906 0
M  V30 4361 H 397.621 -2.84631 0.858637 0
M  V30 4362 H 395.154 -1.43952 0.558313 0
M  V30 4363 H 397.112 -3.84902 -1.42691 0
M  V30 4364 H 395.773 -2.69565 -1.61225 0
M  V30 4365 H 394.966 -4.96213 -0.88254 0
M  V30 4366 H 394.568 -3.7252 0.332366 0
M  V30 4367 H 396.86 -6.74508 -0.636011 0
M  V30 4368 H 397.803 -7.02838 0.861638 0
M  V30 4369 H 398.211 -5.64173 -0.191975 0
M  V30 4370 N 397.609 -0.515225 -1.4894 0
M  V30 4371 C 398.557 0.269115 -2.31038 0
M  V30 4372 C 399.551 0.949443 -1.40292 0
M  V30 4373 O 400.757 0.87551 -1.57273 0
M  V30 4374 H 397.132 0.10565 -0.744542 0
M  V30 4375 H 399.103 -0.443096 -2.95092 0
M  V30 4376 C 397.852 1.31213 -3.21991 0
M  V30 4377 H 397.175 0.798034 -3.91754 0
M  V30 4378 H 398.615 1.83263 -3.82349 0
M  V30 4379 C 397.074 2.33791 -2.42576 0
M  V30 4380 O 397.604 3.3995 -2.14003 0
M  V30 4381 N 395.81 2.06625 -2.0434 0
M  V30 4382 H 395.357 1.20314 -2.27777 0
M  V30 4383 H 395.315 2.75483 -1.51514 0
M  V30 4384 N 399.087 1.5561 -0.249682 0
M  V30 4385 C 400.017 2.24477 0.642826 0
M  V30 4386 C 400.998 1.22601 1.17911 0
M  V30 4387 O 402.183 1.5126 1.21795 0
M  V30 4388 C 399.313 2.94638 1.83863 0
M  V30 4389 C 398.267 4.03227 1.435 0
M  V30 4390 C 397.593 4.60828 2.71186 0
M  V30 4391 C 398.893 5.18796 0.604002 0
M  V30 4392 H 400.587 2.99321 0.0685625 0
M  V30 4393 H 398.133 1.43965 0.0315363 0
M  V30 4394 H 400.086 3.41517 2.46868 0
M  V30 4395 H 398.81 2.17287 2.43832 0
M  V30 4396 H 397.469 3.57121 0.828275 0
M  V30 4397 H 397.117 3.80174 3.29358 0
M  V30 4398 H 396.817 5.34132 2.44901 0
M  V30 4399 H 398.341 5.10442 3.35084 0
M  V30 4400 H 399.755 5.61883 1.13842 0
M  V30 4401 H 398.152 5.98506 0.437097 0
M  V30 4402 H 399.222 4.83384 -0.383147 0
M  V30 4403 N 400.565 -0.0233959 1.57583 0
M  V30 4404 C 401.813 -0.711654 1.89156 0
M  V30 4405 C 402.134 -1.75591 0.848096 0
M  V30 4406 O 401.404 -1.95547 -0.117566 0
M  V30 4407 H 399.984 -0.265835 0.698098 0
M  V30 4408 H 402.646 0.0119948 1.94896 0
M  V30 4409 H 401.742 -1.19766 2.88206 0
M  V30 4410 N 402.043 -1.548 -0.295768 0
M  V30 4411 C 403.273 -1.78069 -1.04762 0
M  V30 4412 C 403.681 -0.542847 -1.81245 0
M  V30 4413 O 403.024 0.497051 -1.76848 0
M  V30 4414 C 403.086 -2.93881 -2.07061 0
M  V30 4415 C 402.75 -4.31777 -1.49725 0
M  V30 4416 C 403.747 -5.11613 -0.924581 0
M  V30 4417 C 401.432 -4.78389 -1.5313 0
M  V30 4418 C 403.426 -6.36184 -0.393594 0
M  V30 4419 C 401.113 -6.02921 -0.996447 0
M  V30 4420 C 402.111 -6.81654 -0.428569 0
M  V30 4421 O 401.799 -8.0384 0.0981593 0
M  V30 4422 H 401.531 -0.597475 -0.316226 0
M  V30 4423 H 404.085 -2.02584 -0.338973 0
M  V30 4424 H 402.315 -2.65003 -2.81621 0
M  V30 4425 H 404.004 -3.04679 -2.6819 0
M  V30 4426 H 404.77 -4.76743 -0.891136 0
M  V30 4427 H 400.649 -4.17132 -1.9627 0
M  V30 4428 H 404.193 -6.97582 0.0503014 0
M  V30 4429 H 400.09 -6.37277 -1.02706 0
M  V30 4430 H 400.858 -8.18499 -0.0146455 0
M  V30 4431 N 403.521 0.559213 -1.47345 0
M  V30 4432 C 404.431 1.69388 -1.62311 0
M  V30 4433 C 405.447 1.6648 -0.505993 0
M  V30 4434 O 406.623 1.85964 -0.773262 0
M  V30 4435 C 403.688 3.05894 -1.63185 0
M  V30 4436 C 402.749 3.19885 -2.86307 0
M  V30 4437 C 401.982 4.49879 -2.87131 0
M  V30 4438 O 402.205 5.35217 -1.97229 0
M  V30 4439 O 401.139 4.67618 -3.78968 0
M  V30 4440 H 404.965 1.59706 -2.58317 0
M  V30 4441 H 402.55 0.728989 -1.30407 0
M  V30 4442 H 404.432 3.87133 -1.66451 0
M  V30 4443 H 403.107 3.15964 -0.70345 0
M  V30 4444 H 402.014 2.38052 -2.88587 0
M  V30 4445 H 403.347 3.14718 -3.78435 0
M  V30 4446 N 404.999 1.35443 0.805782 0
M  V30 4447 C 405.962 1.28301 1.89925 0
M  V30 4448 C 406.962 0.194285 1.59622 0
M  V30 4449 O 408.152 0.448036 1.6834 0
M  V30 4450 C 405.284 0.984997 3.2636 0
M  V30 4451 H 406.477 2.2553 1.97677 0
M  V30 4452 H 404.03 1.19979 1.00173 0
M  V30 4453 H 404.765 0.016603 3.24296 0
M  V30 4454 H 404.55 1.77269 3.4974 0
M  V30 4455 H 406.04 0.960651 4.064 0
M  V30 4456 N 406.477 -1.02803 1.19454 0
M  V30 4457 C 407.407 -2.12999 0.956758 0
M  V30 4458 C 408.388 -1.69743 -0.110188 0
M  V30 4459 O 409.573 -1.94148 0.0450038 0
M  V30 4460 C 406.703 -3.43746 0.495553 0
M  V30 4461 C 405.657 -4.00688 1.50443 0
M  V30 4462 C 404.983 -5.27067 0.900275 0
M  V30 4463 C 406.283 -4.35397 2.8849 0
M  V30 4464 H 407.977 -2.33148 1.87836 0
M  V30 4465 H 405.523 -1.12045 0.904539 0
M  V30 4466 H 407.476 -4.2021 0.316493 0
M  V30 4467 H 406.2 -3.23321 -0.461646 0
M  V30 4468 H 404.859 -3.2632 1.67065 0
M  V30 4469 H 404.507 -5.02959 -0.064503 0
M  V30 4470 H 404.207 -5.66127 1.57397 0
M  V30 4471 H 405.731 -6.06196 0.73203 0
M  V30 4472 H 407.145 -5.02795 2.75446 0
M  V30 4473 H 405.542 -4.85541 3.52661 0
M  V30 4474 H 406.612 -3.44662 3.41081 0
M  V30 4475 N 407.956 -0.998596 -1.21925 0
M  V30 4476 C 409.203 -0.677663 -1.90824 0
M  V30 4477 C 409.531 0.790905 -1.77693 0
M  V30 4478 O 408.786 1.58817 -1.14349 0
M  V30 4479 C 409.085 -1.03648 -3.42041 0
M  V30 4480 C 408.751 -2.49825 -3.75364 0
M  V30 4481 C 407.413 -2.8977 -3.8417 0
M  V30 4482 C 409.765 -3.44545 -3.91073 0
M  V30 4483 C 407.093 -4.23412 -4.06127 0
M  V30 4484 C 409.445 -4.77853 -4.14535 0
M  V30 4485 C 408.109 -5.17531 -4.21566 0
M  V30 4486 H 407.379 -0.247975 -0.698276 0
M  V30 4487 H 410.026 -1.25584 -1.44571 0
M  V30 4488 H 408.331 -0.376457 -3.89987 0
M  V30 4489 H 410.028 -0.766113 -3.93614 0
M  V30 4490 H 406.618 -2.17866 -3.69097 0
M  V30 4491 H 410.802 -3.14853 -3.83642 0
M  V30 4492 H 406.058 -4.53734 -4.09799 0
M  V30 4493 H 410.232 -5.51189 -4.25633 0
M  V30 4494 H 407.859 -6.21102 -4.38333 0
M  V30 4495 N 409.434 1.37368 -0.772513 0
M  V30 4496 C 410.845 1.8231 -0.402493 0
M  V30 4497 C 411.196 1.6436 1.07146 0
M  V30 4498 O 410.321 1.15514 1.82991 0
M  V30 4499 C 410.916 3.30979 -0.723776 0
M  V30 4500 C 409.475 3.74195 -0.406802 0
M  V30 4501 C 408.622 2.59885 -0.967218 0
M  V30 4502 H 411.573 1.25829 -0.967099 0
M  V30 4503 H 411.594 3.80499 -0.00870832 0
M  V30 4504 H 411.106 3.44011 -1.7966 0
M  V30 4505 H 409.207 3.66732 0.658673 0
M  V30 4506 H 409.32 4.7027 -0.915588 0
M  V30 4507 H 407.684 2.51674 -0.391416 0
M  V30 4508 H 408.467 2.7571 -2.04546 0
M  V30 4509 N 410.912 0.523116 1.48665 0
M  V30 4510 C 412.328 0.180511 1.58576 0
M  V30 4511 C 412.528 -1.31597 1.52592 0
M  V30 4512 O 411.584 -2.0937 1.4114 0
M  V30 4513 C 412.897 0.776949 2.90489 0
M  V30 4514 C 414.445 0.745058 3.04003 0
M  V30 4515 C 414.92 1.31995 4.38567 0
M  V30 4516 N 416.411 1.28162 4.45117 0
M  V30 4517 C 417.146 1.6964 5.47731 0
M  V30 4518 N 416.642 2.18816 6.57337 0
M  V30 4519 N 418.435 1.6092 5.38573 0
M  V30 4520 H 410.586 1.4958 1.50797 0
M  V30 4521 H 412.849 0.621772 0.715614 0
M  V30 4522 H 412.555 1.82732 3.00503 0
M  V30 4523 H 412.429 0.25007 3.7637 0
M  V30 4524 H 414.816 -0.296532 2.93606 0
M  V30 4525 H 414.897 1.30933 2.1975 0
M  V30 4526 H 414.541 2.36043 4.49718 0
M  V30 4527 H 414.471 0.731418 5.21496 0
M  V30 4528 H 416.962 0.92155 3.66491 0
M  V30 4529 H 417.275 2.48478 7.31764 0
M  V30 4530 H 415.62 2.22805 6.58318 0
M  V30 4531 H 418.811 1.22304 4.5184 0
M  V30 4532 H 418.984 1.93567 6.18414 0
M  V30 4533 N 412.39 -1.55475 0.257931 0
M  V30 4534 C 413.667 -1.91155 -0.414629 0
M  V30 4535 C 414.047 -1.18008 -1.75035 0
M  V30 4536 O 413.395 -0.301193 -2.26506 0
M  V30 4537 C 413.605 -3.44283 -0.571859 0
M  V30 4538 C 414.953 -4.15744 -0.862678 0
M  V30 4539 O 415.977 -3.50083 -0.657314 0
M  V30 4540 O 414.836 -5.31909 -1.2544 0
M  V30 4541 H 411.93 -0.796016 -0.22425 0
M  V30 4542 H 414.476 -1.66976 0.302814 0
M  V30 4543 H 413.248 -3.89558 0.368844 0
M  V30 4544 H 412.871 -3.7436 -1.33943 0
M  V30 4545 N 413.868 0.0150385 -1.57593 0
M  V30 4546 C 414.778 1.02791 -2.10882 0
M  V30 4547 C 415.794 1.38702 -1.0506 0
M  V30 4548 O 416.97 1.47739 -1.36877 0
M  V30 4549 C 414.035 2.30568 -2.58919 0
M  V30 4550 C 413.096 2.01108 -3.79281 0
M  V30 4551 C 412.329 3.22794 -4.25018 0
M  V30 4552 O 412.552 4.33959 -3.70183 0
M  V30 4553 O 411.486 3.07672 -5.17322 0
M  V30 4554 H 415.312 0.604973 -2.97613 0
M  V30 4555 H 412.897 0.23292 -1.47573 0
M  V30 4556 H 414.779 3.05662 -2.90084 0
M  V30 4557 H 413.454 2.72129 -1.75293 0
M  V30 4558 H 412.361 1.23537 -3.53114 0
M  V30 4559 H 413.694 1.64394 -4.63935 0
M  V30 4560 N 415.346 1.54954 0.287554 0
M  V30 4561 C 416.574 1.78881 1.03967 0
M  V30 4562 C 416.989 0.554894 1.80462 0
M  V30 4563 O 416.346 -0.475676 1.76192 0
M  V30 4564 C 416.397 3.00488 2.0097 0
M  V30 4565 O 416.118 4.19113 1.27577 0
M  V30 4566 C 417.619 3.36907 2.88112 0
M  V30 4567 H 414.839 0.596259 0.307761 0
M  V30 4568 H 417.383 2.01937 0.322749 0
M  V30 4569 H 415.538 2.79601 2.68145 0
M  V30 4570 H 415.952 4.87765 1.92835 0
M  V30 4571 H 417.426 4.25205 3.52001 0
M  V30 4572 H 417.903 2.55659 3.57121 0
M  V30 4573 H 418.509 3.60001 2.26449 0
M  V30 4574 N 416.824 -0.551391 1.4764 0
M  V30 4575 C 418.101 -1.31229 1.45046 0
M  V30 4576 C 418.481 -2.10563 0.150527 0
M  V30 4577 O 417.829 -2.11374 -0.867956 0
M  V30 4578 C 418.039 -2.21189 2.69956 0
M  V30 4579 C 419.387 -2.82021 3.1741 0
M  V30 4580 O 420.411 -2.31488 2.70724 0
M  V30 4581 O 419.27 -3.73885 3.98588 0
M  V30 4582 H 416.364 -0.591193 0.578291 0
M  V30 4583 H 418.91 -0.569813 1.59847 0
M  V30 4584 H 417.682 -1.62207 3.56096 0
M  V30 4585 H 417.305 -3.02722 2.57769 0
M  V30 4586 N 418.302 -1.35869 -0.798587 0
M  V30 4587 C 419.548 -1.2978 -1.55836 0
M  V30 4588 C 419.881 0.125322 -1.93795 0
M  V30 4589 O 419.156 1.07658 -1.61987 0
M  V30 4590 C 419.439 -2.21188 -2.84162 0
M  V30 4591 C 419.292 -3.72155 -2.52628 0
M  V30 4592 C 420.611 -2.11545 -3.85923 0
M  V30 4593 H 417.73 -0.472769 -0.565383 0
M  V30 4594 H 420.372 -1.66341 -0.918192 0
M  V30 4595 H 418.522 -1.90139 -3.38791 0
M  V30 4596 H 420.194 -4.13682 -2.04121 0
M  V30 4597 H 418.437 -3.92042 -1.85704 0
M  V30 4598 H 419.108 -4.31511 -3.44242 0
M  V30 4599 H 421.584 -2.38855 -3.40716 0
M  V30 4600 H 420.46 -2.77688 -4.73477 0
M  V30 4601 H 420.721 -1.09987 -4.282 0
M  V30 4602 N 419.78 1.02168 -1.19998 0
M  V30 4603 C 420.728 2.12717 -0.940967 0
M  V30 4604 C 421.722 1.69069 0.105841 0
M  V30 4605 O 422.928 1.79946 -0.0440583 0
M  V30 4606 H 419.303 0.695108 -0.28693 0
M  V30 4607 H 421.274 2.3175 -1.87975 0
M  V30 4608 C 420.023 3.44027 -0.504049 0
M  V30 4609 H 419.346 3.78036 -1.30112 0
M  V30 4610 H 420.786 4.22452 -0.361991 0
M  V30 4611 C 419.245 3.27678 0.782878 0
M  V30 4612 O 419.775 3.56949 1.84256 0
M  V30 4613 N 417.981 2.80943 0.742921 0
M  V30 4614 H 417.528 2.57322 -0.119687 0
M  V30 4615 H 417.486 2.70385 1.60435 0
M  V30 4616 N 421.258 1.00505 1.21394 0
M  V30 4617 C 422.669 0.721082 1.72213 0
M  V30 4618 C 423.02 -0.761263 1.80829 0
M  V30 4619 O 422.145 -1.59464 1.46288 0
M  V30 4620 C 422.74 1.30228 3.12772 0
M  V30 4621 C 421.299 1.06743 3.60947 0
M  V30 4622 C 420.446 1.41507 2.38477 0
M  V30 4623 H 423.397 1.17594 1.06571 0
M  V30 4624 H 423.418 0.686955 3.74247 0
M  V30 4625 H 422.93 2.38115 3.06468 0
M  V30 4626 H 421.031 0.00572162 3.726 0
M  V30 4627 H 421.144 1.73936 4.46411 0
M  V30 4628 H 419.508 0.833852 2.40664 0
M  V30 4629 H 420.291 2.50424 2.34824 0
M  V30 4630 N 422.737 -1.36956 0.779787 0
M  V30 4631 C 423.7 -2.2851 0.177662 0
M  V30 4632 C 424.7 -1.48393 -0.619377 0
M  V30 4633 O 425.89 -1.68505 -0.441785 0
M  V30 4634 C 423.022 -3.32428 -0.755279 0
M  V30 4635 H 424.215 -2.83269 0.984823 0
M  V30 4636 H 421.768 -1.46358 0.548544 0
M  V30 4637 H 422.503 -2.82808 -1.58714 0
M  V30 4638 H 422.288 -3.91659 -0.185817 0
M  V30 4639 H 423.778 -4.00824 -1.17174 0
M  V30 4640 N 424.215 -0.530993 -1.48385 0
M  V30 4641 C 425.464 0.00474348 -2.01699 0
M  V30 4642 C 425.777 1.35227 -1.41325 0
M  V30 4643 O 426.983 1.97643 -1.86144 0
M  V30 4644 C 425.439 0.0588473 -3.59852 0
M  V30 4645 C 425.047 -1.28385 -4.2921 0
M  V30 4646 C 426.791 0.543358 -4.21008 0
M  V30 4647 C 424.698 -1.19028 -5.79298 0
M  V30 4648 H 423.628 0.00554317 -0.75398 0
M  V30 4649 H 426.279 -0.674924 -1.70637 0
M  V30 4650 H 424.661 0.803612 -3.8776 0
M  V30 4651 H 425.835 -2.04426 -4.12973 0
M  V30 4652 H 424.15 -1.70418 -3.7993 0
M  V30 4653 H 426.747 0.631351 -5.3096 0
M  V30 4654 H 427.09 1.54937 -3.86394 0
M  V30 4655 H 427.623 -0.145754 -3.97533 0
M  V30 4656 H 424.362 -2.17147 -6.18488 0
M  V30 4657 H 423.882 -0.471246 -5.97946 0
M  V30 4658 H 425.561 -0.881365 -6.40969 0
M  V30 4659 N 425.693 1.55336 -0.266172 0
M  V30 4660 C 426.623 2.25146 0.618981 0
M  V30 4661 C 427.604 1.23845 1.16604 0
M  V30 4662 O 428.789 1.52544 1.20183 0
M  V30 4663 C 425.919 2.96572 1.80728 0
M  V30 4664 C 424.873 4.04726 1.39215 0
M  V30 4665 C 424.199 4.63678 2.66283 0
M  V30 4666 C 425.499 5.19407 0.548942 0
M  V30 4667 H 427.193 2.99377 0.0368116 0
M  V30 4668 H 424.739 1.43991 0.0162651 0
M  V30 4669 H 426.692 3.44116 2.43232 0
M  V30 4670 H 425.416 2.19861 2.41514 0
M  V30 4671 H 424.075 3.57979 0.790351 0
M  V30 4672 H 423.723 3.83646 3.25308 0
M  V30 4673 H 423.423 5.367 2.39222 0
M  V30 4674 H 424.947 5.13967 3.29651 0
M  V30 4675 H 426.361 5.63059 1.07876 0
M  V30 4676 H 424.758 5.98936 0.373593 0
M  V30 4677 H 425.828 4.8295 -0.434394 0
M  V30 4678 N 427.171 -0.0066808 1.57599 0
M  V30 4679 C 428.396 -0.707738 1.94951 0
M  V30 4680 C 428.821 -1.66882 0.867868 0
M  V30 4681 O 428.179 -1.80457 -0.17458 0
M  V30 4682 C 428.227 -1.42162 3.31394 0
M  V30 4683 O 427.331 -2.53578 3.25226 0
M  V30 4684 H 426.672 -0.188752 0.636607 0
M  V30 4685 H 429.202 0.0445193 2.04552 0
M  V30 4686 H 429.212 -1.78655 3.66806 0
M  V30 4687 H 427.887 -0.716903 4.09675 0
M  V30 4688 H 426.464 -2.19463 3.01481 0
M  V30 4689 N 428.649 -1.55105 -0.279332 0
M  V30 4690 C 429.612 -1.86783 -1.32834 0
M  V30 4691 C 430.612 -0.74199 -1.42657 0
M  V30 4692 O 431.802 -1.0102 -1.41918 0
M  V30 4693 C 428.934 -2.06746 -2.71052 0
M  V30 4694 H 430.127 -2.8055 -1.05979 0
M  V30 4695 H 427.68 -1.47499 -0.517087 0
M  V30 4696 H 428.415 -1.15339 -3.03097 0
M  V30 4697 H 428.2 -2.88711 -2.65309 0
M  V30 4698 H 429.69 -2.32549 -3.46858 0
M  V30 4699 N 430.127 0.543554 -1.4793 0
M  V30 4700 C 431.057 1.65888 -1.64327 0
M  V30 4701 C 432.038 1.62818 -0.492383 0
M  V30 4702 O 433.223 1.80226 -0.723338 0
M  V30 4703 C 430.353 3.04506 -1.67013 0
M  V30 4704 C 429.307 3.2243 -2.81466 0
M  V30 4705 C 428.633 4.61972 -2.69233 0
M  V30 4706 C 429.933 3.06496 -4.22915 0
M  V30 4707 H 431.627 1.52421 -2.57698 0
M  V30 4708 H 429.173 0.731849 -1.24016 0
M  V30 4709 H 431.126 3.82391 -1.77074 0
M  V30 4710 H 429.85 3.18964 -0.70212 0
M  V30 4711 H 428.509 2.46957 -2.70938 0
M  V30 4712 H 428.157 4.73247 -1.7043 0
M  V30 4713 H 427.857 4.74911 -3.46025 0
M  V30 4714 H 429.381 5.41974 -2.81242 0
M  V30 4715 H 430.795 3.74186 -4.34348 0
M  V30 4716 H 429.192 3.30938 -5.006 0
M  V30 4717 H 430.262 2.03077 -4.40327 0
M  V30 4718 N 431.605 1.3629 0.791371 0
M  V30 4719 C 432.83 1.33726 1.58531 0
M  V30 4720 C 433.255 -0.0794933 1.87932 0
M  V30 4721 O 432.613 -1.05087 1.47738 0
M  V30 4722 C 432.661 2.16425 2.88431 0
M  V30 4723 O 431.765 1.5554 3.81944 0
M  V30 4724 H 431.106 0.457793 0.480959 0
M  V30 4725 H 433.636 1.79547 0.981031 0
M  V30 4726 H 433.646 2.28933 3.37718 0
M  V30 4727 H 432.321 3.19415 2.66359 0
M  V30 4728 H 430.898 1.51961 3.40532 0
M  V30 4729 N 433.083 -1.0153 1.20538 0
M  V30 4730 C 434.494 -1.56598 1.01657 0
M  V30 4731 C 434.845 -1.91505 -0.426668 0
M  V30 4732 O 433.97 -1.72375 -1.30827 0
M  V30 4733 C 434.565 -2.84542 1.83905 0
M  V30 4734 C 433.124 -3.36133 1.69386 0
M  V30 4735 C 432.271 -2.09427 1.81757 0
M  V30 4736 H 435.222 -0.838974 1.34711 0
M  V30 4737 H 435.243 -3.56004 1.34319 0
M  V30 4738 H 434.755 -2.59105 2.8894 0
M  V30 4739 H 432.856 -3.66528 0.669933 0
M  V30 4740 H 432.969 -4.08248 2.50739 0
M  V30 4741 H 431.333 -2.21941 1.24957 0
M  V30 4742 H 432.116 -1.86414 2.88279 0
M  V30 4743 N 434.561 -1.01147 -1.20859 0
M  V30 4744 C 435.509 -0.57059 -2.25493 0
M  V30 4745 C 436.503 0.388109 -1.64894 0
M  V30 4746 O 437.709 0.258592 -1.78133 0
M  V30 4747 H 434.084 -0.166191 -0.733406 0
M  V30 4748 H 436.055 -1.46411 -2.60012 0
M  V30 4749 C 434.804 0.0805241 -3.47607 0
M  V30 4750 H 434.127 -0.648156 -3.94511 0
M  V30 4751 H 435.567 0.352197 -4.22535 0
M  V30 4752 C 434.026 1.32175 -3.09889 0
M  V30 4753 O 434.556 2.41553 -3.20959 0
M  V30 4754 N 432.762 1.20392 -2.64488 0
M  V30 4755 H 432.309 0.313905 -2.5568 0
M  V30 4756 H 432.267 2.03541 -2.39621 0
M  V30 4757 N 436.039 1.36541 -0.78704 0
M  V30 4758 C 437.002 2.28413 -0.189778 0
M  V30 4759 C 438.002 1.48719 0.611499 0
M  V30 4760 O 439.192 1.68737 0.432842 0
M  V30 4761 C 436.324 3.32824 0.737638 0
M  V30 4762 H 437.517 2.82743 -0.999831 0
M  V30 4763 H 435.07 1.46065 -0.556298 0
M  V30 4764 H 435.805 2.83646 1.57212 0
M  V30 4765 H 435.59 3.91752 0.165044 0
M  V30 4766 H 437.08 4.0144 1.15047 0
M  V30 4767 N 437.518 0.538854 1.48102 0
M  V30 4768 C 438.795 -0.0568108 1.95517 0
M  V30 4769 C 439.175 -1.50408 1.48124 0
M  V30 4770 O 438.523 -2.17133 0.711727 0
M  V30 4771 C 438.733 0.0696262 3.48931 0
M  V30 4772 C 440.081 -0.0851202 4.24515 0
M  V30 4773 O 441.105 -0.0037347 3.562 0
M  V30 4774 O 439.964 -0.257025 5.45895 0
M  V30 4775 H 437.058 -0.0743695 0.823649 0
M  V30 4776 H 439.604 0.604081 1.58584 0
M  V30 4777 H 438.376 1.07744 3.76174 0
M  V30 4778 H 437.999 -0.629714 3.92582 0
M  V30 4779 N 438.996 -1.55193 0.274407 0
M  V30 4780 C 439.906 -2.26164 -0.623473 0
M  V30 4781 C 440.922 -1.28729 -1.17068 0
M  V30 4782 O 442.098 -1.61663 -1.20112 0
M  V30 4783 C 439.163 -2.96833 -1.7914 0
M  V30 4784 C 438.224 -4.09745 -1.28093 0
M  V30 4785 C 437.457 -4.77034 -2.3932 0
M  V30 4786 O 437.68 -4.4353 -3.5866 0
M  V30 4787 O 436.614 -5.64996 -2.07516 0
M  V30 4788 H 440.44 -3.03661 -0.0485661 0
M  V30 4789 H 438.025 -1.49341 0.0418382 0
M  V30 4790 H 439.907 -3.41248 -2.4724 0
M  V30 4791 H 438.582 -2.22253 -2.35341 0
M  V30 4792 H 437.489 -3.69787 -0.566416 0
M  V30 4793 H 438.822 -4.86224 -0.764683 0
M  V30 4794 N 440.474 -0.00167713 -1.576 0
M  V30 4795 C 441.422 1.0074 -2.09652 0
M  V30 4796 C 442.416 1.35483 -1.01689 0
M  V30 4797 O 443.622 1.34028 -1.20152 0
M  V30 4798 H 439.997 0.342537 -0.669457 0
M  V30 4799 H 441.968 0.542841 -2.93421 0
M  V30 4800 C 440.717 2.2899 -2.61647 0
M  V30 4801 H 440.04 2.03124 -3.44355 0
M  V30 4802 H 441.48 2.9787 -3.01744 0
M  V30 4803 C 439.939 3.00085 -1.53136 0
M  V30 4804 O 440.469 3.91135 -0.91524 0
M  V30 4805 N 438.675 2.6194 -1.25841 0
M  V30 4806 H 438.222 1.8798 -1.76129 0
M  V30 4807 H 438.18 3.09822 -0.534576 0
M  V30 4808 N 441.952 1.55251 0.271103 0
M  V30 4809 C 442.902 1.84649 1.33749 0
M  V30 4810 C 443.886 0.705529 1.44607 0
M  V30 4811 O 445.078 0.966916 1.48256 0
M  V30 4812 C 442.207 2.12354 2.69742 0
M  V30 4813 C 441.293 3.32714 2.62988 0
M  V30 4814 N 441.684 4.52575 2.25853 0
M  V30 4815 C 439.982 3.35341 2.94045 0
M  V30 4816 C 440.683 5.34669 2.29136 0
M  V30 4817 N 439.659 4.73123 2.67685 0
M  V30 4818 H 443.461 2.74865 1.0405 0
M  V30 4819 H 440.975 1.55152 0.479738 0
M  V30 4820 H 442.972 2.31572 3.4667 0
M  V30 4821 H 441.632 1.23422 3.00328 0
M  V30 4822 H 442.643 4.78639 1.978 0
M  V30 4823 H 439.32 2.56608 3.2933 0
M  V30 4824 H 440.71 6.40509 2.02971 0
M  V30 4825 N 443.43 -0.535701 1.48216 0
M  V30 4826 C 444.707 -1.29683 1.46429 0
M  V30 4827 C 445.087 -2.10391 0.172852 0
M  V30 4828 O 444.435 -2.12282 -0.845488 0
M  V30 4829 C 444.645 -2.18313 2.72287 0
M  V30 4830 C 445.993 -2.78639 3.20383 0
M  V30 4831 O 447.017 -2.28604 2.73164 0
M  V30 4832 O 445.876 -3.69636 4.02531 0
M  V30 4833 H 442.97 -0.585026 0.584529 0
M  V30 4834 H 445.516 -0.552827 1.60443 0
M  V30 4835 H 444.288 -1.58421 3.57797 0
M  V30 4836 H 443.911 -2.99971 2.60966 0
M  V30 4837 N 444.908 -1.36708 -0.784132 0
M  V30 4838 C 446.155 -1.31231 -1.54222 0
M  V30 4839 C 446.483 0.106864 -1.94206 0
M  V30 4840 O 445.738 1.07734 -1.63376 0
M  V30 4841 C 446.037 -2.18571 -2.82774 0
M  V30 4842 C 445.703 -3.67039 -2.61903 0
M  V30 4843 C 444.365 -4.07503 -2.55919 0
M  V30 4844 C 446.717 -4.61149 -2.4288 0
M  V30 4845 C 444.045 -5.40211 -2.28886 0
M  V30 4846 C 446.397 -5.94081 -2.17373 0
M  V30 4847 C 445.061 -6.33664 -2.09825 0
M  V30 4848 H 444.331 -0.48021 -0.56434 0
M  V30 4849 H 446.978 -1.68807 -0.904233 0
M  V30 4850 H 445.283 -1.73949 -3.51068 0
M  V30 4851 H 446.98 -2.11655 -3.40592 0
M  V30 4852 H 443.57 -3.34941 -2.67418 0
M  V30 4853 H 447.754 -4.30756 -2.46501 0
M  V30 4854 H 443.01 -5.69855 -2.21529 0
M  V30 4855 H 447.184 -6.66566 -2.01649 0
M  V30 4856 H 444.811 -7.36423 -1.88641 0
M  V30 4857 N 446.386 1.0089 -1.21074 0
M  V30 4858 C 447.633 1.74607 -1.0256 0
M  V30 4859 C 447.961 1.89426 0.44136 0
M  V30 4860 O 447.216 1.42266 1.34384 0
M  V30 4861 C 447.515 3.16335 -1.66334 0
M  V30 4862 C 447.181 3.21474 -3.16173 0
M  V30 4863 C 445.843 3.22583 -3.57062 0
M  V30 4864 C 448.195 3.19025 -4.12156 0
M  V30 4865 C 445.523 3.18925 -4.92446 0
M  V30 4866 C 447.875 3.16909 -5.47496 0
M  V30 4867 C 446.539 3.16326 -5.87787 0
M  V30 4868 H 445.809 0.638933 -0.375294 0
M  V30 4869 H 448.456 1.18274 -1.50611 0
M  V30 4870 H 446.761 3.75876 -1.10566 0
M  V30 4871 H 448.458 3.72083 -1.49516 0
M  V30 4872 H 445.048 3.2135 -2.83605 0
M  V30 4873 H 449.232 3.17332 -3.81595 0
M  V30 4874 H 444.488 3.16809 -5.22917 0
M  V30 4875 H 448.662 3.13968 -6.21609 0
M  V30 4876 H 446.289 3.13246 -6.92662 0
M  V30 4877 N 447.864 1.01787 1.20321 0
M  V30 4878 C 449.089 0.727009 1.9424 0
M  V30 4879 C 449.514 -0.706179 1.74341 0
M  V30 4880 O 448.872 -1.48609 1.03852 0
M  V30 4881 C 448.92 1.06958 3.44372 0
M  V30 4882 O 448.024 0.181983 4.11998 0
M  V30 4883 H 447.365 0.269626 0.606793 0
M  V30 4884 H 449.895 1.36158 1.52716 0
M  V30 4885 H 449.905 1.02182 3.94997 0
M  V30 4886 H 448.58 2.11378 3.58179 0
M  V30 4887 H 447.157 0.287378 3.71791 0
M  V30 4888 N 449.342 -1.36122 0.79427 0
M  V30 4889 C 450.59 -1.98718 0.368177 0
M  V30 4890 C 450.911 -1.63345 -1.06506 0
M  V30 4891 O 450.181 -0.909825 -1.73491 0
M  V30 4892 H 448.761 -0.735038 0.133146 0
M  V30 4893 H 451.423 -1.66239 1.01739 0
M  V30 4894 H 450.519 -3.08633 0.463923 0
M  V30 4895 N 450.82 -0.546701 -1.47814 0
M  V30 4896 C 452.045 -0.021268 -2.07389 0
M  V30 4897 C 452.47 1.25822 -1.39822 0
M  V30 4898 O 451.828 1.75111 -0.46968 0
M  V30 4899 C 451.876 0.168502 -3.60206 0
M  V30 4900 O 450.98 1.23347 -3.93522 0
M  V30 4901 H 450.321 -0.0466108 -0.662362 0
M  V30 4902 H 452.851 -0.759387 -1.89985 0
M  V30 4903 H 452.861 0.385982 -4.0617 0
M  V30 4904 H 451.536 -0.766075 -4.08784 0
M  V30 4905 H 450.113 0.997319 -3.59316 0
M  V30 4906 N 452.299 1.55045 -0.282633 0
M  V30 4907 C 453.547 1.99365 0.331334 0
M  V30 4908 C 453.868 1.1725 1.55812 0
M  V30 4909 O 453.138 0.263871 1.94115 0
M  V30 4910 H 451.718 0.736397 0.125414 0
M  V30 4911 H 454.38 1.90964 -0.389711 0
M  V30 4912 H 453.476 3.0596 0.616036 0
M  V30 4913 N 453.777 0.010035 1.57597 0
M  V30 4914 C 455.002 -0.687021 1.95691 0
M  V30 4915 C 455.427 -1.65952 0.885519 0
M  V30 4916 O 454.785 -1.80633 -0.15543 0
M  V30 4917 C 454.833 -1.3864 3.32884 0
M  V30 4918 O 453.937 -2.50115 3.27897 0
M  V30 4919 H 453.278 -0.181989 0.638573 0
M  V30 4920 H 455.808 0.0662122 2.04493 0
M  V30 4921 H 455.818 -1.74754 3.6868 0
M  V30 4922 H 454.493 -0.673411 4.10412 0
M  V30 4923 H 453.07 -2.16253 3.03791 0
M  V30 4924 N 455.255 -1.55392 -0.262866 0
M  V30 4925 C 456.48 -1.80847 -1.01533 0
M  V30 4926 C 456.905 -0.584946 -1.78774 0
M  V30 4927 O 456.263 0.465701 -1.75217 0
M  V30 4928 C 456.311 -3.03866 -1.94159 0
M  V30 4929 O 455.415 -2.79662 -3.03089 0
M  V30 4930 H 454.756 -0.597441 -0.289759 0
M  V30 4931 H 457.286 -2.02553 -0.288698 0
M  V30 4932 H 457.296 -3.32872 -2.35924 0
M  V30 4933 H 455.971 -3.92564 -1.37354 0
M  V30 4934 H 454.548 -2.61781 -2.65566 0
M  V30 4935 N 456.733 0.527833 -1.48498 0
M  V30 4936 C 457.963 1.30633 -1.60058 0
M  V30 4937 C 458.371 1.87394 -0.260786 0
M  V30 4938 O 457.714 1.67227 0.760317 0
M  V30 4939 C 457.776 2.49361 -2.58958 0
M  V30 4940 C 457.44 2.13671 -4.03972 0
M  V30 4941 C 458.437 1.69217 -4.91591 0
M  V30 4942 C 456.122 2.24129 -4.49524 0
M  V30 4943 C 458.116 1.35689 -6.2279 0
M  V30 4944 C 455.803 1.90212 -5.80743 0
M  V30 4945 C 456.801 1.46063 -6.67199 0
M  V30 4946 O 456.489 1.12593 -7.95976 0
M  V30 4947 H 456.221 0.403444 -0.54241 0
M  V30 4948 H 458.775 0.643233 -1.95068 0
M  V30 4949 H 457.005 3.18659 -2.19073 0
M  V30 4950 H 458.694 3.11421 -2.6033 0
M  V30 4951 H 459.46 1.60607 -4.57636 0
M  V30 4952 H 455.339 2.57447 -3.82416 0
M  V30 4953 H 458.883 1.01157 -6.90227 0
M  V30 4954 H 454.78 1.98464 -6.14233 0
M  V30 4955 H 455.548 1.25972 -8.08748 0
M  V30 4956 N 458.211 1.37122 0.776871 0
M  V30 4957 C 459.457 1.32243 1.53752 0
M  V30 4958 C 459.79 -0.0944745 1.9397 0
M  V30 4959 O 459.065 -1.05068 1.6368 0
M  V30 4960 C 459.348 2.25681 2.80607 0
M  V30 4961 C 459.201 3.76127 2.46676 0
M  V30 4962 C 460.52 2.17657 3.82509 0
M  V30 4963 H 457.639 0.481704 0.557791 0
M  V30 4964 H 460.281 1.6778 0.891612 0
M  V30 4965 H 458.431 1.95505 3.35723 0
M  V30 4966 H 460.103 4.16877 1.97513 0
M  V30 4967 H 458.346 3.94946 1.79443 0
M  V30 4968 H 459.017 4.36933 3.37333 0
M  V30 4969 H 461.493 2.44245 3.36873 0
M  V30 4970 H 460.369 2.85185 4.69 0
M  V30 4971 H 460.63 1.16785 4.26396 0
M  V30 4972 N 459.689 -1.00246 1.21608 0
M  V30 4973 C 460.938 -1.73476 1.02902 0
M  V30 4974 C 461.251 -1.90643 -0.437561 0
M  V30 4975 O 462.457 -2.61105 -0.74407 0
M  V30 4976 C 460.913 -3.12079 1.79261 0
M  V30 4977 C 460.521 -3.02877 3.30106 0
M  V30 4978 C 462.265 -3.89421 1.68972 0
M  V30 4979 C 460.172 -4.36575 3.98944 0
M  V30 4980 H 459.102 -0.650408 0.381425 0
M  V30 4981 H 461.753 -1.11985 1.45367 0
M  V30 4982 H 460.135 -3.74196 1.2959 0
M  V30 4983 H 461.309 -2.49983 3.87098 0
M  V30 4984 H 459.624 -2.39022 3.40965 0
M  V30 4985 H 462.221 -4.88362 2.17731 0
M  V30 4986 H 462.564 -4.1122 0.648397 0
M  V30 4987 H 463.097 -3.33963 2.16133 0
M  V30 4988 H 459.836 -4.19978 5.03288 0
M  V30 4989 H 459.356 -4.8942 3.4674 0
M  V30 4990 H 461.035 -5.05364 4.04 0
M  V30 4991 N 461.167 -1.02423 -1.1978 0
M  V30 4992 C 462.415 -0.716569 -1.8897 0
M  V30 4993 C 462.736 0.756769 -1.79716 0
M  V30 4994 O 462.006 1.5449 -1.20456 0
M  V30 4995 H 460.586 -0.262062 -0.699523 0
M  V30 4996 H 463.248 -1.29747 -1.45436 0
M  V30 4997 H 462.344 -1.00675 -2.95417 0
M  V30 4998 N 462.645 1.35699 -0.801477 0
M  V30 4999 C 463.592 2.29876 -0.206294 0
M  V30 5000 C 464.562 1.52565 0.656752 0
M  V30 5001 O 465.747 1.81024 0.602906 0
M  V30 5002 C 462.887 3.39052 0.643272 0
M  V30 5003 C 462 4.31335 -0.239644 0
M  V30 5004 C 461.135 5.27599 0.61744 0
M  V30 5005 C 460.174 6.11521 -0.26619 0
M  V30 5006 N 459.311 6.99938 0.550571 0
M  V30 5007 H 464.151 2.80187 -1.01484 0
M  V30 5008 H 461.688 1.37902 -0.511997 0
M  V30 5009 H 463.646 4.0101 1.15094 0
M  V30 5010 H 462.276 2.9003 1.41713 0
M  V30 5011 H 461.328 3.70426 -0.865381 0
M  V30 5012 H 462.64 4.90243 -0.919985 0
M  V30 5013 H 461.794 5.94906 1.19045 0
M  V30 5014 H 460.533 4.69176 1.33137 0
M  V30 5015 H 459.538 5.43166 -0.851507 0
M  V30 5016 H 460.763 6.72022 -0.9779 0
M  V30 5017 H 458.709 6.44008 1.24856 0
M  V30 5018 H 458.626 7.55966 -0.071832 0
M  V30 5019 H 459.894 7.71599 1.10702 0
M  V30 5020 N 464.123 0.554532 1.47522 0
M  V30 5021 C 465.086 -0.184174 2.28459 0
M  V30 5022 C 466.086 -0.845195 1.36796 0
M  V30 5023 O 467.276 -0.701467 1.59452 0
M  V30 5024 C 464.408 -1.26903 3.16399 0
M  V30 5025 H 465.601 0.526751 2.95238 0
M  V30 5026 H 463.154 0.311375 1.53167 0
M  V30 5027 H 463.889 -2.01244 2.54306 0
M  V30 5028 H 463.674 -0.799883 3.83854 0
M  V30 5029 H 465.164 -1.78794 3.77389 0
M  V30 5030 N 465.601 -1.54893 0.290851 0
M  V30 5031 C 466.847 -2.0023 -0.321867 0
M  V30 5032 C 467.18 -1.179 -1.54316 0
M  V30 5033 O 466.455 -0.25293 -1.92848 0
M  V30 5034 C 466.738 -3.53456 -0.688515 0
M  V30 5035 C 466.591 -4.46532 0.541209 0
M  V30 5036 C 467.91 -4.13057 -1.51895 0
M  V30 5037 H 465.029 -0.727891 -0.115515 0
M  V30 5038 H 467.671 -1.85722 0.400931 0
M  V30 5039 H 465.821 -3.6595 -1.30433 0
M  V30 5040 H 467.493 -4.4596 1.17973 0
M  V30 5041 H 465.736 -4.17545 1.17636 0
M  V30 5042 H 466.407 -5.51475 0.240675 0
M  V30 5043 H 468.883 -4.03937 -0.99872 0
M  V30 5044 H 467.759 -5.20448 -1.74429 0
M  V30 5045 H 468.02 -3.64284 -2.50498 0
M  V30 5046 N 467.08 -0.0183926 -1.57589 0
M  V30 5047 C 468.326 0.663543 -1.91638 0
M  V30 5048 C 468.659 1.72392 -0.894134 0
M  V30 5049 O 467.934 1.94316 0.0846449 0
M  V30 5050 C 468.217 1.28984 -3.36207 0
M  V30 5051 C 468.07 0.239761 -4.49161 0
M  V30 5052 C 469.389 2.2109 -3.80536 0
M  V30 5053 H 466.508 0.239746 -0.696915 0
M  V30 5054 H 469.15 -0.073456 -1.89858 0
M  V30 5055 H 467.3 1.91799 -3.37854 0
M  V30 5056 H 468.972 -0.390119 -4.59647 0
M  V30 5057 H 467.215 -0.435972 -4.31604 0
M  V30 5058 H 467.886 0.717383 -5.47319 0
M  V30 5059 H 470.362 1.68273 -3.80557 0
M  V30 5060 H 469.238 2.61869 -4.82406 0
M  V30 5061 H 469.499 3.09764 -3.15434 0
M  V30 5062 N 468.558 1.5553 0.254621 0
M  V30 5063 C 469.786 1.81046 1.00149 0
M  V30 5064 C 470.201 0.593047 1.79244 0
M  V30 5065 O 469.558 -0.438196 1.77161 0
M  V30 5066 C 469.609 3.04684 1.94551 0
M  V30 5067 O 469.33 4.21725 1.18658 0
M  V30 5068 C 470.831 3.42943 2.80901 0
M  V30 5069 H 468.051 0.602653 0.295044 0
M  V30 5070 H 470.595 2.02576 0.279842 0
M  V30 5071 H 468.75 2.85226 2.62154 0
M  V30 5072 H 469.164 4.91746 1.82445 0
M  V30 5073 H 470.638 4.32576 3.42902 0
M  V30 5074 H 471.115 2.63176 3.51617 0
M  V30 5075 H 471.721 3.64724 2.18762 0
M  V30 5076 N 470.036 -0.519951 1.48776 0
M  V30 5077 C 470.946 -1.65025 1.66745 0
M  V30 5078 C 471.962 -1.6508 0.549954 0
M  V30 5079 O 473.138 -1.83848 0.822295 0
M  V30 5080 C 470.203 -3.0146 1.71238 0
M  V30 5081 C 469.264 -3.12182 2.94688 0
M  V30 5082 C 468.497 -4.42109 2.98958 0
M  V30 5083 O 468.72 -5.29799 2.1135 0
M  V30 5084 O 467.654 -4.57406 3.91233 0
M  V30 5085 H 471.48 -1.52801 2.62461 0
M  V30 5086 H 469.065 -0.694157 1.32294 0
M  V30 5087 H 470.947 -3.82584 1.76657 0
M  V30 5088 H 469.622 -3.13988 0.786975 0
M  V30 5089 H 468.529 -2.30316 2.94797 0
M  V30 5090 H 469.862 -3.04574 3.86646 0
M  V30 5091 N 471.514 -1.37532 -0.769588 0
M  V30 5092 C 472.791 -1.23392 -1.51768 0
M  V30 5093 C 473.171 0.17157 -2.10402 0
M  V30 5094 O 472.519 1.17943 -1.95708 0
M  V30 5095 C 472.729 -2.33163 -2.59685 0
M  V30 5096 C 474.077 -2.70809 -3.27028 0
M  V30 5097 O 475.101 -2.32355 -2.69981 0
M  V30 5098 O 473.96 -3.37066 -4.30173 0
M  V30 5099 H 471.054 -0.481617 -0.67229 0
M  V30 5100 H 473.6 -1.49318 -0.806368 0
M  V30 5101 H 472.372 -3.27273 -2.14494 0
M  V30 5102 H 471.995 -2.08713 -3.38415 0
M  V30 5103 N 472.992 0.995999 -1.22138 0
M  V30 5104 C 473.902 2.11985 -1.00496 0
M  V30 5105 C 474.918 1.7394 0.0457701 0
M  V30 5106 O 476.094 2.00868 -0.146273 0
M  V30 5107 C 473.159 3.41779 -0.582086 0
M  V30 5108 C 472.22 3.93943 -1.70608 0
M  V30 5109 C 471.453 5.17542 -1.30328 0
M  V30 5110 O 471.676 5.70114 -0.180743 0
M  V30 5111 O 470.61 5.63382 -2.11861 0
M  V30 5112 H 474.436 2.33123 -1.94647 0
M  V30 5113 H 472.021 1.10358 -1.00705 0
M  V30 5114 H 473.903 4.1989 -0.356467 0
M  V30 5115 H 472.578 3.22007 0.330592 0
M  V30 5116 H 471.485 3.17019 -1.98619 0
M  V30 5117 H 472.818 4.18141 -2.59651 0
M  V30 5118 N 474.47 1.03057 1.19235 0
M  V30 5119 C 475.747 0.642608 1.84743 0
M  V30 5120 C 476.127 -0.878577 1.91948 0
M  V30 5121 O 475.475 -1.77597 1.43776 0
M  V30 5122 C 475.685 1.30665 3.23616 0
M  V30 5123 C 477.033 1.43098 3.9976 0
M  V30 5124 O 478.057 1.26396 3.3302 0
M  V30 5125 O 476.916 1.70223 5.19313 0
M  V30 5126 H 474.01 0.223573 0.796206 0
M  V30 5127 H 476.556 1.12883 1.26711 0
M  V30 5128 H 475.328 2.34544 3.13217 0
M  V30 5129 H 474.951 0.808405 3.89295 0
M  V30 5130 N 475.948 -1.35272 0.808662 0
M  V30 5131 C 477.194 -1.99434 0.399717 0
M  V30 5132 C 477.549 -1.62992 -1.02232 0
M  V30 5133 O 476.842 -0.884091 -1.69983 0
M  V30 5134 C 477.036 -3.53556 0.522798 0
M  V30 5135 C 476.865 -4.04969 1.95525 0
M  V30 5136 C 475.635 -4.34228 2.58407 0
M  V30 5137 C 477.833 -4.23362 2.92009 0
M  V30 5138 N 475.815 -4.71585 3.93041 0
M  V30 5139 C 477.186 -4.63739 4.11517 0
M  V30 5140 C 479.241 -4.05576 2.88813 0
M  V30 5141 C 477.944 -4.88189 5.28265 0
M  V30 5142 C 479.97 -4.31184 4.04765 0
M  V30 5143 C 479.332 -4.71834 5.23022 0
M  V30 5144 H 475.431 -0.757534 0.19408 0
M  V30 5145 H 478.015 -1.63939 1.05034 0
M  V30 5146 H 476.186 -3.88277 -0.0978471 0
M  V30 5147 H 477.918 -4.04604 0.0882378 0
M  V30 5148 H 474.673 -4.24621 2.09747 0
M  V30 5149 H 475.097 -4.9452 4.62363 0
M  V30 5150 H 479.739 -3.73288 1.98535 0
M  V30 5151 H 477.457 -5.1935 6.19113 0
M  V30 5152 H 481.043 -4.18972 4.03675 0
M  V30 5153 H 479.923 -4.91263 6.11253 0
M  V30 5154 N 477.426 -0.562348 -1.47226 0
M  V30 5155 C 478.703 0.0256985 -1.95583 0
M  V30 5156 C 479.083 1.48032 -1.50498 0
M  V30 5157 O 478.431 2.15973 -0.746181 0
M  V30 5158 C 478.641 -0.125129 -3.48776 0
M  V30 5159 C 479.989 0.0175728 -4.24596 0
M  V30 5160 O 481.013 -0.0529341 -3.56161 0
M  V30 5161 O 479.872 0.170145 -5.46235 0
M  V30 5162 H 476.966 0.0612565 -0.824728 0
M  V30 5163 H 479.512 -0.629233 -1.57603 0
M  V30 5164 H 478.284 -1.13715 -3.74412 0
M  V30 5165 H 477.907 0.567178 -3.93534 0
M  V30 5166 N 478.904 1.54736 -0.299062 0
M  V30 5167 C 480.151 2.00101 0.310784 0
M  V30 5168 C 480.479 1.18746 1.54045 0
M  V30 5169 O 479.734 0.251198 1.94081 0
M  V30 5170 C 480.033 3.50199 0.713835 0
M  V30 5171 C 479.699 4.48997 -0.413873 0
M  V30 5172 C 478.361 4.7573 -0.723462 0
M  V30 5173 C 480.713 5.07839 -1.17257 0
M  V30 5174 C 478.041 5.5857 -1.79491 0
M  V30 5175 C 480.393 5.91844 -2.23392 0
M  V30 5176 C 479.057 6.16889 -2.54959 0
M  V30 5177 H 478.327 0.732221 0.113724 0
M  V30 5178 H 480.974 1.86888 -0.417756 0
M  V30 5179 H 479.279 3.61012 1.52243 0
M  V30 5180 H 480.976 3.82723 1.19684 0
M  V30 5181 H 477.566 4.28292 -0.162476 0
M  V30 5182 H 481.75 4.87188 -0.946651 0
M  V30 5183 H 477.006 5.76213 -2.04423 0
M  V30 5184 H 481.18 6.36465 -2.8264 0
M  V30 5185 H 478.807 6.80869 -3.38114 0
M  V30 5186 O 480.421 0.165592 1.60649 0
M  V30 5187 H 481.112 -0.425141 1.88977 0
M  V30 END ATOM
M  V30 BEGIN BOND
M  V30 END BOND
M  V30 END CTAB
M  END
$$$$
