drugbank_target|O00182 Galectin-9 (DB04472)
 OpenBabel12092120513D

  0  0  0     0  0            999 V3000
M  V30 BEGIN CTAB
M  V30 COUNTS 5518 5609 0 0 0
M  V30 BEGIN ATOM
M  V30 1 H -0.908 1.98254 -0.117106 0
M  V30 2 N 0 1.576 0 0
M  V30 3 C 0.933 2.03868 1.02534 0
M  V30 4 C 1.911 0.928543 1.3348 0
M  V30 5 O 3.095 1.19667 1.45644 0
M  V30 6 C 0.222 2.43627 2.35294 0
M  V30 7 C -0.732 3.65373 2.2001 0
M  V30 8 S 0.101 5.13292 1.52614 0
M  V30 9 C 1.257 5.56322 2.86805 0
M  V30 10 H 1.49 2.90518 0.631377 0
M  V30 11 H -0.977 1.52953 0.210867 0
M  V30 12 H 0.981 2.67203 3.11629 0
M  V30 13 H -0.358 1.57376 2.7183 0
M  V30 14 H -1.165 3.90944 3.18086 0
M  V30 15 H -1.563 3.418 1.51819 0
M  V30 16 H 0.729 5.58782 3.83104 0
M  V30 17 H 1.672 6.56266 2.65933 0
M  V30 18 H 2.08 4.83886 2.90714 0
M  V30 19 N 1.4781 -0.272755 1.55222 0
M  V30 20 C 2.4411 -1.32041 1.87344 0
M  V30 21 C 3.4411 -1.42342 0.74803 0
M  V30 22 O 4.6311 -1.41488 1.0162 0
M  V30 23 C 1.7631 -2.70173 2.07893 0
M  V30 24 H 2.9561 -1.04789 2.80997 0
M  V30 25 H 0.5091 -0.51083 1.47717 0
M  V30 26 H 1.2441 -3.02605 1.16622 0
M  V30 27 H 1.0291 -2.64082 2.89833 0
M  V30 28 H 2.5191 -3.45869 2.34017 0
M  V30 29 N 2.9562 -1.48159 -0.537278 0
M  V30 30 C 4.2032 -1.55804 -1.29349 0
M  V30 31 C 4.5312 -0.228802 -1.9315 0
M  V30 32 O 3.7862 0.780242 -1.79473 0
M  V30 33 C 4.0852 -2.63956 -2.40961 0
M  V30 34 C 3.7512 -4.0662 -1.94861 0
M  V30 35 C 2.4132 -4.45452 -1.82006 0
M  V30 36 C 4.7652 -4.96055 -1.59933 0
M  V30 37 C 2.0932 -5.71531 -1.32547 0
M  V30 38 C 4.4452 -6.22617 -1.11939 0
M  V30 39 C 3.1092 -6.60312 -0.976951 0
M  V30 40 H 2.3792 -0.570129 -0.473322 0
M  V30 41 H 5.0262 -1.81845 -0.600372 0
M  V30 42 H 3.3312 -2.31747 -3.15912 0
M  V30 43 H 5.0282 -2.67089 -2.99107 0
M  V30 44 H 1.6182 -3.75949 -2.05815 0
M  V30 45 H 5.8022 -4.66738 -1.68728 0
M  V30 46 H 1.0582 -5.99468 -1.202 0
M  V30 47 H 5.2322 -6.91318 -0.839811 0
M  V30 48 H 2.8592 -7.57895 -0.591501 0
M  V30 49 N 4.4343 0.785586 -1.36625 0
M  V30 50 C 5.6593 1.57963 -1.34397 0
M  V30 51 C 6.0843 1.87964 0.071526 0
M  V30 52 O 5.4423 1.48182 1.0446 0
M  V30 53 C 5.4903 2.87511 -2.17646 0
M  V30 54 O 4.5943 3.81281 -1.57158 0
M  V30 55 H 3.9353 0.479014 -0.459828 0
M  V30 56 H 6.4653 0.973411 -1.79961 0
M  V30 57 H 6.4753 3.36745 -2.30362 0
M  V30 58 H 5.1503 2.65002 -3.20541 0
M  V30 59 H 3.7273 3.39885 -1.53403 0
M  V30 60 N 5.9124 1.20967 1.01018 0
M  V30 61 C 7.1604 1.02172 1.74371 0
M  V30 62 C 7.4814 -0.446414 1.89821 0
M  V30 63 O 6.7514 -1.32234 1.44537 0
M  V30 64 H 5.3314 0.375066 0.646014 0
M  V30 65 H 7.9934 1.52187 1.21758 0
M  V30 66 H 7.0894 1.48538 2.74487 0
M  V30 67 N 7.3905 -1.2043 1.01659 0
M  V30 68 C 8.6155 -1.94318 0.724942 0
M  V30 69 C 9.0405 -1.74266 -0.708034 0
M  V30 70 O 8.3985 -1.03694 -1.48719 0
M  V30 71 C 8.4465 -3.44486 1.06591 0
M  V30 72 O 7.5505 -4.12017 0.177599 0
M  V30 73 H 6.8915 -0.60708 0.26898 0
M  V30 74 H 9.4215 -1.52861 1.35995 0
M  V30 75 H 9.4315 -3.95106 1.01762 0
M  V30 76 H 8.1065 -3.58404 2.10997 0
M  V30 77 H 6.6835 -3.71821 0.283421 0
M  V30 78 N 8.8686 -0.792821 -1.36206 0
M  V30 79 C 9.8006 -0.151469 -2.28699 0
M  V30 80 C 10.8136 0.641262 -1.49638 0
M  V30 81 O 12.0026 0.475885 -1.72039 0
M  V30 82 C 9.1026 0.808424 -3.29117 0
M  V30 83 C 8.2756 0.0650202 -4.37352 0
M  V30 84 C 7.3346 0.941358 -5.17711 0
M  V30 85 O 6.3606 0.397352 -5.67811 0
M  V30 86 N 7.5626 2.2652 -5.3448 0
M  V30 87 H 10.3276 -0.945982 -2.84379 0
M  V30 88 H 7.8886 -0.647032 -1.48409 0
M  V30 89 H 9.8806 1.3986 -3.79765 0
M  V30 90 H 8.4506 1.5038 -2.74052 0
M  V30 91 H 7.6706 -0.706255 -3.87822 0
M  V30 92 H 8.9586 -0.447847 -5.06825 0
M  V30 93 H 8.3566 2.73128 -4.95396 0
M  V30 94 H 6.9136 2.80493 -5.88359 0
M  V30 95 N 10.3467 1.47872 -0.545128 0
M  V30 96 C 11.3097 2.28337 0.198717 0
M  V30 97 C 12.3097 1.36255 0.853888 0
M  V30 98 O 13.4997 1.59003 0.711606 0
M  V30 99 C 10.6317 3.15585 1.28915 0
M  V30 100 H 11.8247 2.95567 -0.507941 0
M  V30 101 H 9.3777 1.53362 -0.301616 0
M  V30 102 H 10.1127 2.53019 2.02859 0
M  V30 103 H 9.8977 3.83337 0.824309 0
M  V30 104 H 11.3877 3.76243 1.81194 0
M  V30 105 N 11.8248 0.280983 1.55075 0
M  V30 106 C 13.2358 -0.215629 1.85451 0
M  V30 107 C 13.5868 -1.54991 1.203 0
M  V30 108 O 12.7118 -2.10699 0.493435 0
M  V30 109 C 13.3068 -0.398026 3.36454 0
M  V30 110 C 11.8658 -0.838866 3.66933 0
M  V30 111 C 11.0128 0.064458 2.77225 0
M  V30 112 H 13.9638 0.502601 1.50531 0
M  V30 113 H 13.9848 -1.23569 3.59876 0
M  V30 114 H 13.4968 0.573241 3.83843 0
M  V30 115 H 11.5978 -1.8214 3.25048 0
M  V30 116 H 11.7108 -0.672123 4.74362 0
M  V30 117 H 10.0748 -0.452863 2.50642 0
M  V30 118 H 10.8578 1.03172 3.2743 0
M  V30 119 N 13.3029 -1.57598 0.00835791 0
M  V30 120 C 14.5329 -1.94931 -0.684496 0
M  V30 121 C 14.9409 -0.882233 -1.67372 0
M  V30 122 O 14.2839 0.146621 -1.83114 0
M  V30 123 C 14.3459 -3.283 -1.4649 0
M  V30 124 C 14.0099 -4.52548 -0.63634 0
M  V30 125 C 15.0069 -5.19839 0.0795586 0
M  V30 126 C 12.6919 -4.98942 -0.579849 0
M  V30 127 C 14.6859 -6.3183 0.840843 0
M  V30 128 C 12.3729 -6.10819 0.185155 0
M  V30 129 C 13.3709 -6.77121 0.894227 0
M  V30 130 O 13.0589 -7.86853 1.64673 0
M  V30 131 H 12.7909 -0.647249 -0.19505 0
M  V30 132 H 15.3449 -2.05318 0.0581272 0
M  V30 133 H 13.5749 -3.14345 -2.2522 0
M  V30 134 H 15.2639 -3.50685 -2.04389 0
M  V30 135 H 16.0299 -4.84979 0.0451202 0
M  V30 136 H 11.9089 -4.47155 -1.1213 0
M  V30 137 H 15.4529 -6.83513 1.39483 0
M  V30 138 H 11.3499 -6.4512 0.221384 0
M  V30 139 H 12.1179 -8.03412 1.56432 0
M  V30 140 N 14.781 0.264519 -1.55364 0
M  V30 141 C 15.711 1.33121 -1.91836 0
M  V30 142 C 16.692 1.51101 -0.781192 0
M  V30 143 O 17.877 1.64003 -1.04003 0
M  V30 144 C 15.007 2.68921 -2.19769 0
M  V30 145 C 13.961 2.65661 -3.35571 0
M  V30 146 C 13.287 4.05093 -3.49004 0
M  V30 147 C 14.587 2.24187 -4.71739 0
M  V30 148 H 16.281 1.02844 -2.81182 0
M  V30 149 H 13.827 0.493286 -1.35287 0
M  V30 150 H 15.78 3.43663 -2.43872 0
M  V30 151 H 14.504 3.00799 -1.27231 0
M  V30 152 H 13.163 1.93377 -3.1145 0
M  V30 153 H 12.811 4.34206 -2.53917 0
M  V30 154 H 12.511 4.03804 -4.26868 0
M  V30 155 H 14.035 4.81561 -3.75408 0
M  V30 156 H 15.449 2.88654 -4.9533 0
M  V30 157 H 13.846 2.34044 -5.52579 0
M  V30 158 H 14.916 1.19327 -4.69988 0
M  V30 159 N 16.2591 1.48442 0.529413 0
M  V30 160 C 17.4841 1.60406 1.31471 0
M  V30 161 C 17.9091 0.264738 1.86228 0
M  V30 162 O 17.2671 -0.763668 1.64432 0
M  V30 163 C 17.3151 2.65419 2.44101 0
M  V30 164 O 16.4191 2.22618 3.47153 0
M  V30 165 H 15.7601 0.537863 0.389357 0
M  V30 166 H 18.2901 1.94432 0.636965 0
M  V30 167 H 18.3001 2.86709 2.90279 0
M  V30 168 H 16.9751 3.62652 2.03608 0
M  V30 169 H 15.5521 2.11543 3.0709 0
M  V30 170 N 17.7372 -0.778329 1.37039 0
M  V30 171 C 19.1482 -1.35421 1.28523 0
M  V30 172 C 19.4992 -1.96075 -0.0700901 0
M  V30 173 O 18.6242 -1.93352 -0.971801 0
M  V30 174 C 19.2192 -2.46211 2.32735 0
M  V30 175 C 17.7782 -2.99585 2.27873 0
M  V30 176 C 16.9252 -1.72748 2.16918 0
M  V30 177 H 19.8762 -0.5791 1.47757 0
M  V30 178 H 19.8972 -3.2552 1.9702 0
M  V30 179 H 19.4092 -2.02036 3.31365 0
M  V30 180 H 17.5102 -3.48152 1.32745 0
M  V30 181 H 17.6232 -3.55646 3.21018 0
M  V30 182 H 15.9872 -1.95416 1.63354 0
M  V30 183 H 16.7702 -1.30686 3.17452 0
M  V30 184 N 19.2153 -1.21501 -1.00376 0
M  V30 185 C 20.1783 -0.976927 -2.07337 0
M  V30 186 C 21.1783 0.0525322 -1.60714 0
M  V30 187 O 22.3683 -0.184869 -1.73216 0
M  V30 188 C 19.5003 -0.473423 -3.37597 0
M  V30 189 H 20.6933 -1.92587 -2.29892 0
M  V30 190 H 18.2463 -1.03217 -1.17371 0
M  V30 191 H 18.9813 0.480379 -3.20722 0
M  V30 192 H 18.7663 -1.216 -3.72768 0
M  V30 193 H 20.2563 -0.32675 -4.1632 0
M  V30 194 N 20.6934 1.19889 -1.02296 0
M  V30 195 C 21.9394 1.89701 -0.717033 0
M  V30 196 C 22.2724 1.7905 0.751989 0
M  V30 197 O 21.5474 1.17891 1.547 0
M  V30 198 C 21.8304 3.40858 -1.16136 0
M  V30 199 C 21.6834 3.60411 -2.69117 0
M  V30 200 C 23.0024 4.33876 -0.737549 0
M  V30 201 H 20.1214 0.688874 -0.261957 0
M  V30 202 H 22.7634 1.41154 -1.27183 0
M  V30 203 H 20.9134 3.82335 -0.689342 0
M  V30 204 H 22.5854 3.28145 -3.2422 0
M  V30 205 H 20.8284 3.03665 -3.0979 0
M  V30 206 H 21.4994 4.66396 -2.95261 0
M  V30 207 H 23.9754 4.00081 -1.14344 0
M  V30 208 H 22.8514 5.38242 -1.0764 0
M  V30 209 H 23.1124 4.40628 0.360436 0
M  V30 210 N 22.1715 0.800033 1.35784 0
M  V30 211 C 23.5825 0.439142 1.81462 0
M  V30 212 C 23.9335 -1.03813 1.66485 0
M  V30 213 O 23.0585 -1.80626 1.19177 0
M  V30 214 C 23.6535 0.790314 3.29453 0
M  V30 215 C 22.2125 0.482111 3.733 0
M  V30 216 C 21.3595 1.01938 2.57883 0
M  V30 217 H 24.3105 0.992254 1.23855 0
M  V30 218 H 24.3315 0.0853677 3.80404 0
M  V30 219 H 23.8435 1.86554 3.40322 0
M  V30 220 H 21.9445 -0.584652 3.67984 0
M  V30 221 H 22.0575 1.01015 4.6833 0
M  V30 222 H 20.4215 0.442043 2.50835 0
M  V30 223 H 21.2045 2.10059 2.71533 0
M  V30 224 N 23.6496 -1.47581 0.552962 0
M  V30 225 C 24.8966 -2.02482 0.0273243 0
M  V30 226 C 25.2246 -1.42776 -1.32081 0
M  V30 227 O 24.4796 -0.571393 -1.87173 0
M  V30 228 C 24.7786 -3.57199 -0.119728 0
M  V30 229 C 24.4446 -4.35804 1.15697 0
M  V30 230 C 23.1066 -4.57 1.50681 0
M  V30 231 C 25.4586 -4.81167 2.00319 0
M  V30 232 C 22.7866 -5.20807 2.70142 0
M  V30 233 C 25.1386 -5.46293 3.18978 0
M  V30 234 C 23.8026 -5.65722 3.54281 0
M  V30 235 H 23.0726 -0.740933 0.00999866 0
M  V30 236 H 25.7196 -1.77302 0.72362 0
M  V30 237 H 24.0246 -3.81348 -0.89896 0
M  V30 238 H 25.7216 -3.97324 -0.541718 0
M  V30 239 H 22.3116 -4.19582 0.874561 0
M  V30 240 H 26.4956 -4.64574 1.74599 0
M  V30 241 H 21.7516 -5.34045 2.97668 0
M  V30 242 H 25.9256 -5.80407 3.84838 0
M  V30 243 H 23.5526 -6.14936 4.46942 0
M  V30 244 N 25.1277 -0.289203 -1.54924 0
M  V30 245 C 26.3527 0.329299 -2.04769 0
M  V30 246 C 26.7777 1.4763 -1.16564 0
M  V30 247 O 26.1357 1.80527 -0.167186 0
M  V30 248 C 26.1837 0.774438 -3.52186 0
M  V30 249 O 25.2877 1.88038 -3.67036 0
M  V30 250 H 24.6287 0.0659259 -0.660719 0
M  V30 251 H 27.1587 -0.42761 -2.00082 0
M  V30 252 H 27.1687 1.06642 -3.93816 0
M  V30 253 H 25.8437 -0.0646707 -4.1585 0
M  V30 254 H 24.4207 1.58985 -3.3731 0
M  V30 255 N 26.6058 1.57591 -0.0167156 0
M  V30 256 C 27.8538 1.90906 0.663285 0
M  V30 257 C 28.1748 0.892509 1.73376 0
M  V30 258 O 27.4448 -0.0677623 1.95783 0
M  V30 259 H 26.0248 0.704637 0.247983 0
M  V30 260 H 28.6868 1.94803 -0.0615909 0
M  V30 261 H 27.7828 2.9116 1.12393 0
M  V30 262 N 28.0839 -0.256276 1.55502 0
M  V30 263 C 29.3119 -1.00342 1.8094 0
M  V30 264 C 29.7269 -1.79307 0.59114 0
M  V30 265 O 29.0839 -1.77114 -0.440081 0
M  V30 266 C 29.1349 -1.94875 3.04476 0
M  V30 267 O 28.8559 -1.19107 4.21598 0
M  V30 268 C 30.3569 -2.81266 3.42644 0
M  V30 269 H 27.5769 -0.295685 0.602338 0
M  V30 270 H 30.1209 -0.281998 2.02546 0
M  V30 271 H 28.2759 -2.62457 2.84947 0
M  V30 272 H 28.6899 -1.82969 4.91551 0
M  V30 273 H 30.1639 -3.43362 4.32211 0
M  V30 274 H 30.6409 -3.51897 2.62802 0
M  V30 275 H 31.2469 -2.1915 3.64491 0
M  V30 276 N 29.562 -1.4872 -0.521534 0
M  V30 277 C 30.811 -1.56419 -1.27341 0
M  V30 278 C 31.124 -0.246805 -1.94037 0
M  V30 279 O 32.33 -0.202122 -2.70747 0
M  V30 280 C 30.786 -2.75896 -2.31105 0
M  V30 281 C 30.394 -4.14311 -1.70441 0
M  V30 282 C 32.138 -2.92913 -3.07249 0
M  V30 283 C 30.045 -5.25038 -2.72194 0
M  V30 284 H 28.975 -0.582344 -0.478949 0
M  V30 285 H 31.626 -1.75071 -0.549779 0
M  V30 286 H 30.008 -2.50697 -3.06541 0
M  V30 287 H 31.182 -4.49564 -1.01136 0
M  V30 288 H 29.497 -4.02482 -1.06759 0
M  V30 289 H 32.094 -3.72805 -3.83302 0
M  V30 290 H 32.437 -2.02689 -3.63625 0
M  V30 291 H 32.97 -3.18054 -2.38928 0
M  V30 292 H 29.709 -6.17255 -2.20627 0
M  V30 293 H 29.229 -4.94263 -3.39801 0
M  V30 294 H 30.908 -5.53508 -3.35019 0
M  V30 295 N 31.0401 0.771051 -1.3745 0
M  V30 296 C 31.9721 1.89352 -1.29146 0
M  V30 297 C 32.9851 1.61477 -0.207124 0
M  V30 298 O 34.1741 1.72382 -0.463324 0
M  V30 299 C 31.2741 3.24596 -0.974195 0
M  V30 300 C 30.4471 3.80111 -2.16413 0
M  V30 301 C 29.5061 4.93832 -1.81703 0
M  V30 302 O 28.5321 5.09382 -2.54006 0
M  V30 303 N 29.7341 5.75483 -0.761573 0
M  V30 304 H 32.4991 1.96991 -2.25864 0
M  V30 305 H 30.0601 0.950191 -1.31084 0
M  V30 306 H 32.0521 3.98193 -0.722828 0
M  V30 307 H 30.6221 3.12454 -0.0955527 0
M  V30 308 H 29.8421 2.98284 -2.57721 0
M  V30 309 H 31.1301 4.13932 -2.95867 0
M  V30 310 H 30.5281 5.65469 -0.161609 0
M  V30 311 H 29.0851 6.49302 -0.570064 0
M  V30 312 N 32.5182 1.22032 0.997298 0
M  V30 313 C 33.7662 1.04016 1.73278 0
M  V30 314 C 34.0872 -0.426255 1.90284 0
M  V30 315 O 33.3572 -1.30694 1.45931 0
M  V30 316 H 31.9372 0.381897 0.642 0
M  V30 317 H 34.5992 1.5347 1.20137 0
M  V30 318 H 33.6952 1.51441 2.72896 0
M  V30 319 N 33.9963 -1.19345 1.0293 0
M  V30 320 C 35.2443 -1.88665 0.724574 0
M  V30 321 C 35.5653 -1.80036 -0.749144 0
M  V30 322 O 34.8353 -1.2111 -1.53978 0
M  V30 323 H 33.4153 -0.698406 0.265025 0
M  V30 324 H 36.0773 -1.44885 1.30362 0
M  V30 325 H 35.1733 -2.94987 1.01926 0
M  V30 326 N 35.4744 -0.807222 -1.35358 0
M  V30 327 C 36.4044 -0.232509 -2.3234 0
M  V30 328 C 37.3854 0.642386 -1.57504 0
M  V30 329 O 38.5704 0.572526 -1.85569 0
M  V30 330 C 35.7004 0.619238 -3.41735 0
M  V30 331 C 34.6544 -0.157215 -4.27711 0
M  V30 332 C 33.9804 0.816273 -5.28433 0
M  V30 333 C 35.2804 -1.35656 -5.04376 0
M  V30 334 H 36.9744 -1.04276 -2.80654 0
M  V30 335 H 34.5204 -0.50288 -1.34934 0
M  V30 336 H 36.4734 1.03137 -4.08584 0
M  V30 337 H 35.1974 1.46239 -2.92031 0
M  V30 338 H 33.8564 -0.550525 -3.62443 0
M  V30 339 H 33.5044 1.65494 -4.74996 0
M  V30 340 H 33.2044 0.301067 -5.86828 0
M  V30 341 H 34.7284 1.22659 -5.98153 0
M  V30 342 H 36.1424 -1.01927 -5.64166 0
M  V30 343 H 34.5394 -1.8063 -5.7227 0
M  V30 344 H 35.6094 -2.14288 -4.34981 0
M  V30 345 N 36.9525 1.47285 -0.560781 0
M  V30 346 C 37.8845 2.28118 0.222438 0
M  V30 347 C 38.8975 1.37219 0.876056 0
M  V30 348 O 40.0865 1.62011 0.749307 0
M  V30 349 C 37.1865 3.1159 1.33285 0
M  V30 350 C 36.3595 4.30473 0.77534 0
M  V30 351 C 35.4185 4.95513 1.77069 0
M  V30 352 O 34.4445 5.53792 1.31539 0
M  V30 353 N 35.6465 4.90531 3.10418 0
M  V30 354 H 38.4115 2.95976 -0.470958 0
M  V30 355 H 35.9725 1.56955 -0.39709 0
M  V30 356 H 37.9645 3.51967 1.99752 0
M  V30 357 H 36.5345 2.45951 1.92943 0
M  V30 358 H 35.7545 3.94144 -0.0662113 0
M  V30 359 H 37.0425 5.07362 0.382272 0
M  V30 360 H 36.4405 4.44389 3.5005 0
M  V30 361 H 34.9975 5.34917 3.72434 0
M  V30 362 N 38.4306 0.297415 1.54768 0
M  V30 363 C 39.7076 -0.365847 1.92148 0
M  V30 364 C 40.0876 -1.71975 1.22424 0
M  V30 365 O 39.4356 -2.25666 0.358739 0
M  V30 366 C 39.6456 -0.484056 3.45627 0
M  V30 367 C 40.9936 -0.756594 4.17805 0
M  V30 368 O 42.0176 -0.568007 3.51642 0
M  V30 369 O 40.8766 -1.11863 5.34929 0
M  V30 370 H 37.9706 -0.203919 0.801465 0
M  V30 371 H 40.5166 0.34521 1.66152 0
M  V30 372 H 39.2886 0.467865 3.88493 0
M  V30 373 H 38.9116 -1.24372 3.77647 0
M  V30 374 N 39.9087 -1.5758 0.0250728 0
M  V30 375 C 41.1567 -1.91255 -0.653151 0
M  V30 376 C 41.4777 -0.901691 -1.729 0
M  V30 377 O 40.7477 0.0573785 -1.95816 0
M  V30 378 H 39.3277 -0.705942 -0.244243 0
M  V30 379 H 41.9897 -1.94767 0.0719209 0
M  V30 380 H 41.0857 -2.91752 -1.10847 0
M  V30 381 N 41.3868 0.248026 -1.55636 0
M  V30 382 C 42.3168 1.31079 -1.93237 0
M  V30 383 C 43.2978 1.50264 -0.797174 0
M  V30 384 O 44.4828 1.62891 -1.05737 0
M  V30 385 C 41.6128 2.66575 -2.22609 0
M  V30 386 C 40.5668 2.62087 -3.3837 0
M  V30 387 C 39.8928 4.01369 -3.53281 0
M  V30 388 C 41.1928 2.19171 -4.7409 0
M  V30 389 H 42.8868 0.998556 -2.82257 0
M  V30 390 H 40.4328 0.47891 -1.35803 0
M  V30 391 H 42.3858 3.41057 -2.47503 0
M  V30 392 H 41.1098 2.99432 -1.30414 0
M  V30 393 H 39.7688 1.90063 -3.13483 0
M  V30 394 H 39.4168 4.31489 -2.58508 0
M  V30 395 H 39.1168 3.99254 -4.31127 0
M  V30 396 H 40.6408 4.77552 -3.80495 0
M  V30 397 H 42.0548 2.83384 -4.98363 0
M  V30 398 H 40.4518 2.2817 -5.5503 0
M  V30 399 H 41.5218 1.14336 -4.71227 0
M  V30 400 N 42.8649 1.48995 0.513639 0
M  V30 401 C 43.7969 1.60836 1.63293 0
M  V30 402 C 44.8099 0.491701 1.55197 0
M  V30 403 O 45.9989 0.763238 1.6136 0
M  V30 404 C 43.0989 1.53731 3.02027 0
M  V30 405 C 42.2719 2.80715 3.35437 0
M  V30 406 C 41.3309 2.66837 4.53525 0
M  V30 407 O 40.3569 3.40753 4.55934 0
M  V30 408 N 41.5589 1.77539 5.52684 0
M  V30 409 H 44.3239 2.57366 1.53566 0
M  V30 410 H 41.8849 1.45925 0.701259 0
M  V30 411 H 43.8769 1.42118 3.78926 0
M  V30 412 H 42.4469 0.651092 3.05744 0
M  V30 413 H 41.6669 3.06772 2.47557 0
M  V30 414 H 42.9549 3.64927 3.54551 0
M  V30 415 H 42.3529 1.16719 5.53528 0
M  V30 416 H 40.9099 1.71856 6.28736 0
M  V30 417 N 44.343 -0.763751 1.37857 0
M  V30 418 C 45.592 -1.51789 1.32827 0
M  V30 419 C 45.905 -1.95426 -0.0823719 0
M  V30 420 O 47.111 -2.70298 -0.255172 0
M  V30 421 C 45.567 -2.74133 2.33193 0
M  V30 422 C 45.175 -2.37562 3.79827 0
M  V30 423 C 46.919 -3.52054 2.37188 0
M  V30 424 C 44.826 -3.56456 4.71904 0
M  V30 425 H 43.756 -0.569896 0.493695 0
M  V30 426 H 46.407 -0.835822 1.63359 0
M  V30 427 H 44.789 -3.4427 1.9569 0
M  V30 428 H 45.963 -1.75157 4.26212 0
M  V30 429 H 44.278 -1.72798 3.78853 0
M  V30 430 H 46.875 -4.40437 3.03182 0
M  V30 431 H 47.218 -3.92486 1.38782 0
M  V30 432 H 47.751 -2.88921 2.7344 0
M  V30 433 H 44.49 -3.21099 5.71468 0
M  V30 434 H 44.01 -4.17938 4.30218 0
M  V30 435 H 45.689 -4.23168 4.89426 0
M  V30 436 N 45.8211 -1.22559 -0.990812 0
M  V30 437 C 47.0491 -1.07779 -1.76611 0
M  V30 438 C 47.4641 0.371513 -1.85109 0
M  V30 439 O 46.8211 1.25737 -1.32274 0
M  V30 440 C 46.8721 -1.68512 -3.19822 0
M  V30 441 O 46.5931 -3.07774 -3.1178 0
M  V30 442 C 48.0941 -1.59035 -4.13791 0
M  V30 443 H 45.3141 -0.377729 -0.554583 0
M  V30 444 H 47.8581 -1.62195 -1.24551 0
M  V30 445 H 46.0131 -1.18154 -3.68942 0
M  V30 446 H 46.4271 -3.37062 -4.01858 0
M  V30 447 H 47.9011 -2.0625 -5.1202 0
M  V30 448 H 48.3781 -0.547273 -4.35777 0
M  V30 449 H 48.9841 -2.08709 -3.70568 0
M  V30 450 N 47.2992 1.18797 -1.03562 0
M  V30 451 C 48.5452 1.8893 -0.737113 0
M  V30 452 C 48.8782 1.79837 0.732956 0
M  V30 453 O 48.1532 1.19525 1.5344 0
M  V30 454 C 48.4362 3.39607 -1.19745 0
M  V30 455 C 48.2892 3.57537 -2.72924 0
M  V30 456 C 49.6082 4.33069 -0.783526 0
M  V30 457 H 46.7272 0.686057 -0.269249 0
M  V30 458 H 49.3692 1.39797 -1.28673 0
M  V30 459 H 47.5192 3.81583 -0.729855 0
M  V30 460 H 49.1912 3.24688 -3.27682 0
M  V30 461 H 47.4342 3.00363 -3.12993 0
M  V30 462 H 48.1052 4.63238 -3.00191 0
M  V30 463 H 50.5812 3.98846 -1.18581 0
M  V30 464 H 49.4572 5.3707 -1.13343 0
M  V30 465 H 49.7182 4.40986 0.313681 0
M  V30 466 N 48.7773 0.814389 1.34928 0
M  V30 467 C 49.7253 0.218424 2.31572 0
M  V30 468 C 50.7193 -0.636128 1.57002 0
M  V30 469 O 51.9253 -0.52842 1.72069 0
M  V30 470 H 48.3003 0.0518799 0.750208 0
M  V30 471 H 50.2713 1.04852 2.79372 0
M  V30 472 C 49.0203 -0.61207 3.4227 0
M  V30 473 H 48.3433 0.0361578 3.99784 0
M  V30 474 H 49.7833 -0.995317 4.12152 0
M  V30 475 C 48.2423 -1.78087 2.85984 0
M  V30 476 O 48.7723 -2.8787 2.80168 0
M  V30 477 N 46.9783 -1.59488 2.42924 0
M  V30 478 H 46.5253 -0.701874 2.47854 0
M  V30 479 H 46.4833 -2.37846 2.05613 0
M  V30 480 N 50.2554 -1.46986 0.568584 0
M  V30 481 C 51.5034 -2.02041 0.0487022 0
M  V30 482 C 51.8244 -1.44408 -1.31039 0
M  V30 483 O 51.0944 -0.623477 -1.85714 0
M  V30 484 H 49.6744 -0.746849 0.015014 0
M  V30 485 H 52.3364 -1.80257 0.741168 0
M  V30 486 H 51.4324 -3.12085 -0.0308961 0
M  V30 487 N 51.7335 -0.305618 -1.54608 0
M  V30 488 C 52.9615 0.304775 -2.04643 0
M  V30 489 C 53.3765 1.47167 -1.18268 0
M  V30 490 O 52.7335 1.81296 -0.209328 0
M  V30 491 C 52.7845 0.756564 -3.53495 0
M  V30 492 O 52.5055 -0.36389 -4.36586 0
M  V30 493 C 54.0065 1.43163 -4.19546 0
M  V30 494 H 51.2265 0.0655481 -0.667791 0
M  V30 495 H 53.7705 -0.446592 -1.99564 0
M  V30 496 H 51.9255 1.45794 -3.58919 0
M  V30 497 H 52.3395 -0.0113121 -5.24499 0
M  V30 498 H 53.8135 1.69886 -5.25207 0
M  V30 499 H 54.2905 2.37318 -3.69563 0
M  V30 500 H 54.8965 0.773307 -4.18211 0
M  V30 501 N 53.2116 1.57565 -0.0334293 0
M  V30 502 C 54.4576 1.92262 0.645226 0
M  V30 503 C 54.7906 0.910543 1.71531 0
M  V30 504 O 54.0656 -0.066099 1.94388 0
M  V30 505 C 54.3486 3.37422 1.2577 0
M  V30 506 C 54.2016 4.49369 0.196891 0
M  V30 507 C 55.5206 3.82628 2.17449 0
M  V30 508 H 52.6396 0.699171 0.233085 0
M  V30 509 H 55.2816 1.89779 -0.0915694 0
M  V30 510 H 53.4316 3.39669 1.88566 0
M  V30 511 H 55.1036 4.59254 -0.433962 0
M  V30 512 H 53.3466 4.31168 -0.477137 0
M  V30 513 H 54.0176 5.47978 0.665124 0
M  V30 514 H 56.4936 3.82145 1.64634 0
M  V30 515 H 55.3696 4.84883 2.57254 0
M  V30 516 H 55.6306 3.18376 3.0674 0
M  V30 517 N 54.6897 -0.239769 1.55765 0
M  V30 518 C 55.6197 -1.30052 1.9393 0
M  V30 519 C 56.6007 -1.49839 0.805132 0
M  V30 520 O 57.7857 -1.62328 1.06599 0
M  V30 521 C 54.9157 -2.65391 2.2402 0
M  V30 522 C 53.8697 -2.60289 3.39755 0
M  V30 523 C 53.1957 -3.99489 3.55405 0
M  V30 524 C 54.4957 -2.16654 4.75246 0
M  V30 525 H 56.1897 -0.983573 2.82783 0
M  V30 526 H 53.7357 -0.471701 1.36055 0
M  V30 527 H 55.6887 -3.3974 2.49308 0
M  V30 528 H 54.4127 -2.98736 1.32 0
M  V30 529 H 53.0717 -1.88398 3.14487 0
M  V30 530 H 52.7197 -4.30112 2.60793 0
M  V30 531 H 52.4197 -3.96962 4.33238 0
M  V30 532 H 53.9437 -4.75528 3.83022 0
M  V30 533 H 55.3577 -2.80737 4.99859 0
M  V30 534 H 53.7547 -2.25223 5.56232 0
M  V30 535 H 54.8247 -1.11835 4.71827 0
M  V30 536 N 56.1678 -1.49265 -0.50573 0
M  V30 537 C 57.3928 -1.62478 -1.28902 0
M  V30 538 C 57.8178 -0.294332 -1.85783 0
M  V30 539 O 57.1758 0.737412 -1.65626 0
M  V30 540 C 57.2238 -2.69268 -2.39848 0
M  V30 541 O 56.3278 -2.28113 -3.43567 0
M  V30 542 H 55.6688 -0.54399 -0.380751 0
M  V30 543 H 58.1988 -1.95421 -0.605952 0
M  V30 544 H 58.2088 -2.91291 -2.85681 0
M  V30 545 H 56.8838 -3.65846 -1.97812 0
M  V30 546 H 55.4608 -2.16401 -3.03685 0
M  V30 547 N 57.6459 0.756429 -1.3826 0
M  V30 548 C 58.8709 1.55077 -1.37717 0
M  V30 549 C 59.2959 1.88073 0.03164 0
M  V30 550 O 58.6539 1.50364 1.01293 0
M  V30 551 C 58.7019 2.8283 -2.23695 0
M  V30 552 O 57.8059 3.77862 -1.6521 0
M  V30 553 H 57.1469 0.469152 -0.469885 0
M  V30 554 H 59.6769 0.935019 -1.81985 0
M  V30 555 H 59.6869 3.31783 -2.37453 0
M  V30 556 H 58.3619 2.58144 -3.2609 0
M  V30 557 H 56.9389 3.36555 -1.60578 0
M  V30 558 N 59.124 1.23083 0.984299 0
M  V30 559 C 60.349 1.088 1.76571 0
M  V30 560 C 60.774 -0.356657 1.84688 0
M  V30 561 O 60.132 -1.25788 1.30565 0
M  V30 562 C 60.18 1.71371 3.17277 0
M  V30 563 O 59.284 0.973213 4.00752 0
M  V30 564 H 58.625 0.381599 0.543395 0
M  V30 565 H 61.155 1.63057 1.23587 0
M  V30 566 H 61.165 1.76449 3.67872 0
M  V30 567 H 59.84 2.76493 3.10684 0
M  V30 568 H 58.417 0.999078 3.59267 0
M  V30 569 N 60.6021 -1.18246 1.0419 0
M  V30 570 C 61.8501 -1.87886 0.744543 0
M  V30 571 C 62.1711 -1.8082 -0.730006 0
M  V30 572 O 61.4411 -1.22736 -1.52685 0
M  V30 573 H 60.0211 -0.695556 0.272417 0
M  V30 574 H 62.6831 -1.43494 1.31892 0
M  V30 575 H 61.7791 -2.9389 1.05049 0
M  V30 576 N 62.0802 -0.821533 -1.34494 0
M  V30 577 C 63.3082 -0.421884 -2.02553 0
M  V30 578 C 63.7232 0.971745 -1.61872 0
M  V30 579 O 63.0802 1.62864 -0.823496 0
M  V30 580 C 63.1312 -0.51285 -3.57844 0
M  V30 581 O 62.8522 -1.85155 -3.97051 0
M  V30 582 C 64.3532 -0.107921 -4.43169 0
M  V30 583 H 61.5732 -0.169482 -0.649243 0
M  V30 584 H 64.1172 -1.1093 -1.71798 0
M  V30 585 H 62.2722 0.126474 -3.87193 0
M  V30 586 H 62.6862 -1.82482 -4.91732 0
M  V30 587 H 64.1602 -0.222657 -5.51551 0
M  V30 588 H 64.6372 0.948401 -4.28838 0
M  V30 589 H 65.2432 -0.720989 -4.19144 0
M  V30 590 N 63.5583 1.46682 -0.576371 0
M  V30 591 C 64.9743 1.57822 -0.237562 0
M  V30 592 C 65.1743 1.57237 1.26011 0
M  V30 593 O 64.2303 1.48596 2.04146 0
M  V30 594 C 65.5433 2.87499 -0.881168 0
M  V30 595 C 67.0913 3.01119 -0.85417 0
M  V30 596 C 67.5663 4.33524 -1.4772 0
M  V30 597 N 69.0573 4.40207 -1.44125 0
M  V30 598 C 69.7923 5.4126 -1.89276 0
M  V30 599 N 69.2883 6.49021 -2.42371 0
M  V30 600 N 71.0813 5.32422 -1.80231 0
M  V30 601 H 63.2323 1.45306 -1.54919 0
M  V30 602 H 65.4953 0.692733 -0.647167 0
M  V30 603 H 65.2013 2.9372 -1.93447 0
M  V30 604 H 65.0753 3.75224 -0.385592 0
M  V30 605 H 67.4623 2.94485 0.190491 0
M  V30 606 H 67.5433 2.14887 -1.3877 0
M  V30 607 H 67.1873 4.40916 -2.52103 0
M  V30 608 H 67.1173 5.1852 -0.918947 0
M  V30 609 H 69.6083 3.62931 -1.05307 0
M  V30 610 H 69.9213 7.2233 -2.74698 0
M  V30 611 H 68.2663 6.49858 -2.46393 0
M  V30 612 H 71.4573 4.47137 -1.38514 0
M  V30 613 H 71.6303 6.11034 -2.15735 0
M  V30 614 N 65.0364 0.313813 1.54444 0
M  V30 615 C 66.2834 -0.291675 2.00388 0
M  V30 616 C 66.6114 -1.52904 1.2021 0
M  V30 617 O 65.8664 -1.93833 0.269707 0
M  V30 618 C 66.1654 -0.680386 3.50864 0
M  V30 619 C 65.8314 0.456699 4.48581 0
M  V30 620 C 64.4934 0.768824 4.75018 0
M  V30 621 C 66.8454 1.22098 5.06697 0
M  V30 622 C 64.1734 1.84812 5.56831 0
M  V30 623 C 66.5254 2.29029 5.89685 0
M  V30 624 C 65.1894 2.60834 6.14428 0
M  V30 625 H 64.4594 -0.106732 0.733273 0
M  V30 626 H 67.1064 0.43557 1.86481 0
M  V30 627 H 65.4114 -1.48791 3.62448 0
M  V30 628 H 67.1084 -1.16026 3.83847 0
M  V30 629 H 63.6984 0.203337 4.28117 0
M  V30 630 H 67.8824 0.993096 4.86263 0
M  V30 631 H 63.1384 2.09912 5.74236 0
M  V30 632 H 67.3124 2.887 6.33739 0
M  V30 633 H 64.9394 3.44596 6.77612 0
M  V30 634 N 66.5145 -1.57545 0.0417849 0
M  V30 635 C 67.4775 -2.09885 -0.92093 0
M  V30 636 C 68.4775 -1.01648 -1.24596 0
M  V30 637 O 69.6675 -1.27759 -1.1842 0
M  V30 638 C 66.7995 -2.57527 -2.23367 0
M  V30 639 H 67.9925 -2.96236 -0.467382 0
M  V30 640 H 65.5455 -1.5493 -0.206467 0
M  V30 641 H 66.2805 -1.74542 -2.73323 0
M  V30 642 H 66.0655 -3.36613 -2.01083 0
M  V30 643 H 67.5555 -2.98201 -2.92346 0
M  V30 644 N 67.9926 0.231505 -1.5589 0
M  V30 645 C 69.2386 0.95877 -1.78705 0
M  V30 646 C 69.5716 1.8438 -0.609725 0
M  V30 647 O 68.8466 1.90521 0.391426 0
M  V30 648 C 69.1296 1.8062 -3.11526 0
M  V30 649 C 68.9826 0.948328 -4.39689 0
M  V30 650 C 70.3016 2.78585 -3.40703 0
M  V30 651 H 67.4206 0.347129 -0.650131 0
M  V30 652 H 70.0626 0.228259 -1.88624 0
M  V30 653 H 68.2126 2.42902 -3.03201 0
M  V30 654 H 69.8846 0.343016 -4.60023 0
M  V30 655 H 68.1276 0.253314 -4.3306 0
M  V30 656 H 68.7986 1.57543 -5.29041 0
M  V30 657 H 71.2746 2.26439 -3.49091 0
M  V30 658 H 70.1506 3.34988 -4.34826 0
M  V30 659 H 70.4116 3.55825 -2.62375 0
M  V30 660 N 69.4707 1.49531 0.497807 0
M  V30 661 C 70.4187 1.66926 1.61983 0
M  V30 662 C 71.4127 0.535167 1.60724 0
M  V30 663 O 72.6187 0.714896 1.65195 0
M  V30 664 H 68.9937 0.526415 0.537021 0
M  V30 665 H 70.9647 2.61098 1.44465 0
M  V30 666 C 69.7137 1.75602 3.00099 0
M  V30 667 H 69.0367 2.62244 3.01775 0
M  V30 668 H 70.4767 1.91807 3.78135 0
M  V30 669 C 68.9357 0.501543 3.33146 0
M  V30 670 O 69.4657 -0.371342 3.9998 0
M  V30 671 N 67.6717 0.363531 2.88317 0
M  V30 672 H 67.2187 1.07485 2.34104 0
M  V30 673 H 67.1767 -0.474728 3.10795 0
M  V30 674 N 70.9488 -0.749086 1.3866 0
M  V30 675 C 72.1958 -1.50833 1.35114 0
M  V30 676 C 72.5238 -1.94415 -0.0574049 0
M  V30 677 O 71.7788 -1.66065 -1.03541 0
M  V30 678 C 72.0778 -2.7712 2.25697 0
M  V30 679 C 71.7438 -2.52477 3.73585 0
M  V30 680 C 70.4058 -2.45466 4.13884 0
M  V30 681 C 72.7578 -2.31066 4.67181 0
M  V30 682 C 70.0858 -2.15064 5.45861 0
M  V30 683 C 72.4378 -2.02183 5.9942 0
M  V30 684 C 71.1018 -1.93631 6.38798 0
M  V30 685 H 70.3718 -0.551936 0.494416 0
M  V30 686 H 73.0188 -0.860979 1.71054 0
M  V30 687 H 71.3238 -3.46528 1.82827 0
M  V30 688 H 73.0208 -3.35096 2.20254 0
M  V30 689 H 69.6108 -2.58807 3.41638 0
M  V30 690 H 73.7948 -2.35459 4.3689 0
M  V30 691 H 69.0508 -2.06954 5.75308 0
M  V30 692 H 73.2248 -1.8462 6.71482 0
M  V30 693 H 70.8518 -1.69839 7.40985 0
M  V30 694 N 72.4269 -1.23603 -0.977757 0
M  V30 695 C 73.3589 -0.977369 -2.07317 0
M  V30 696 C 74.3719 0.0495845 -1.62724 0
M  V30 697 O 75.5609 -0.186261 -1.77526 0
M  V30 698 C 72.6609 -0.451216 -3.35883 0
M  V30 699 C 71.8339 -1.53896 -4.09432 0
M  V30 700 C 70.8929 -1.01721 -5.16274 0
M  V30 701 O 69.9189 -1.70676 -5.43009 0
M  V30 702 N 71.1209 0.153594 -5.80297 0
M  V30 703 H 73.8859 -1.92047 -2.30082 0
M  V30 704 H 71.4469 -1.14497 -1.14465 0
M  V30 705 H 73.4389 -0.0871574 -4.04606 0
M  V30 706 H 72.0089 0.397368 -3.10064 0
M  V30 707 H 71.2289 -2.07566 -3.35127 0
M  V30 708 H 72.5169 -2.27037 -4.55337 0
M  V30 709 H 71.9149 0.730323 -5.60966 0
M  V30 710 H 70.4719 0.458892 -6.50183 0
M  V30 711 N 73.905 1.17692 -1.04816 0
M  V30 712 C 75.133 1.91786 -0.776254 0
M  V30 713 C 75.548 1.76604 0.667577 0
M  V30 714 O 74.905 1.10067 1.45573 0
M  V30 715 C 74.956 3.42967 -1.14263 0
M  V30 716 O 74.677 3.57678 -2.52978 0
M  V30 717 C 76.178 4.34144 -0.896311 0
M  V30 718 H 73.398 0.608624 -0.282519 0
M  V30 719 H 75.942 1.49268 -1.39783 0
M  V30 720 H 74.097 3.83245 -0.565874 0
M  V30 721 H 74.511 4.51319 -2.67229 0
M  V30 722 H 75.985 5.38744 -1.20244 0
M  V30 723 H 76.462 4.38876 0.168636 0
M  V30 724 H 77.068 3.99574 -1.45672 0
M  V30 725 N 75.3831 0.828654 1.34056 0
M  V30 726 C 76.6311 0.41863 1.97717 0
M  V30 727 C 76.9521 -1.02314 1.66002 0
M  V30 728 O 76.2221 -1.71119 0.953683 0
M  V30 729 H 74.8021 0.151809 0.731412 0
M  V30 730 H 77.4641 1.05936 1.63596 0
M  V30 731 H 76.5601 0.542318 3.07352 0
M  V30 732 N 76.8612 -1.46375 0.584142 0
M  V30 733 C 78.1082 -2.02378 0.0702675 0
M  V30 734 C 78.4362 -1.45545 -1.29023 0
M  V30 735 O 77.6912 -0.610967 -1.85918 0
M  V30 736 C 77.9902 -3.57373 -0.0439342 0
M  V30 737 C 77.6562 -4.33252 1.24915 0
M  V30 738 C 76.3182 -4.53701 1.60341 0
M  V30 739 C 78.6702 -4.7681 2.1048 0
M  V30 740 C 75.9982 -5.1496 2.81128 0
M  V30 741 C 78.3502 -5.39404 3.30494 0
M  V30 742 C 77.0142 -5.5808 3.66201 0
M  V30 743 H 76.2842 -0.740554 0.0257127 0
M  V30 744 H 78.9312 -1.75727 0.761065 0
M  V30 745 H 77.2362 -3.83169 -0.817869 0
M  V30 746 H 78.9332 -3.98384 -0.457318 0
M  V30 747 H 75.5232 -4.17633 0.963364 0
M  V30 748 H 79.7072 -4.60766 1.84414 0
M  V30 749 H 74.9632 -5.27611 3.08928 0
M  V30 750 H 79.1372 -5.72114 3.97063 0
M  V30 751 H 76.7642 -6.05318 4.59885 0
M  V30 752 N 78.3393 -0.321999 -1.54275 0
M  V30 753 C 79.5643 0.285791 -2.05422 0
M  V30 754 C 79.9893 1.45124 -1.19669 0
M  V30 755 O 79.3473 1.80132 -0.205441 0
M  V30 756 C 79.3953 0.69956 -3.53749 0
M  V30 757 O 78.4993 1.8021 -3.70942 0
M  V30 758 H 77.8403 0.0518962 -0.661969 0
M  V30 759 H 80.3703 -0.469954 -1.9913 0
M  V30 760 H 80.3803 0.982649 -3.9599 0
M  V30 761 H 79.0553 -0.152864 -4.15619 0
M  V30 762 H 77.6323 1.51794 -3.40607 0
M  V30 763 N 79.8174 1.5752 -0.0501392 0
M  V30 764 C 81.0654 1.9227 0.622642 0
M  V30 765 C 81.3864 0.929083 1.71444 0
M  V30 766 O 80.6564 -0.0262186 1.95882 0
M  V30 767 H 79.2364 0.709739 0.232981 0
M  V30 768 H 81.8984 1.94628 -0.102898 0
M  V30 769 H 80.9944 2.93479 1.06191 0
M  V30 770 N 81.2955 -0.223234 1.56011 0
M  V30 771 C 82.2435 -1.29627 1.93131 0
M  V30 772 C 83.2375 -1.48608 0.813146 0
M  V30 773 O 84.4435 -1.49802 0.997966 0
M  V30 774 H 80.8185 -0.434563 0.613726 0
M  V30 775 H 82.7895 -0.955995 2.82672 0
M  V30 776 C 81.5385 -2.63983 2.26292 0
M  V30 777 H 80.8615 -2.50185 3.11846 0
M  V30 778 H 82.3015 -3.3788 2.56151 0
M  V30 779 C 80.7605 -3.18866 1.08747 0
M  V30 780 O 81.2905 -4.00192 0.347727 0
M  V30 781 N 79.4965 -2.77217 0.871743 0
M  V30 782 H 79.0435 -2.1119 1.47501 0
M  V30 783 H 79.0015 -3.1428 0.0869905 0
M  V30 784 N 82.7736 -1.49793 -0.48987 0
M  V30 785 C 84.0506 -1.50348 -1.25119 0
M  V30 786 C 84.4306 -0.237466 -2.0976 0
M  V30 787 O 83.7786 0.77981 -2.14782 0
M  V30 788 C 83.9886 -2.78872 -2.09837 0
M  V30 789 C 85.3366 -3.288 -2.68655 0
M  V30 790 O 86.3606 -2.80065 -2.20096 0
M  V30 791 O 85.2196 -4.13707 -3.57083 0
M  V30 792 H 82.3136 -0.602242 -0.566775 0
M  V30 793 H 84.8596 -1.62067 -0.503229 0
M  V30 794 H 83.6316 -3.62499 -1.47343 0
M  V30 795 H 83.2546 -2.70066 -2.91805 0
M  V30 796 N 84.2517 0.741722 -1.39055 0
M  V30 797 C 85.5007 1.49656 -1.35225 0
M  V30 798 C 85.8137 1.95533 0.0512708 0
M  V30 799 O 87.0197 2.7067 0.212138 0
M  V30 800 C 85.4757 2.70389 -2.37525 0
M  V30 801 C 85.0837 2.31489 -3.83558 0
M  V30 802 C 86.8277 3.48236 -2.42759 0
M  V30 803 C 84.7347 3.48903 -4.77515 0
M  V30 804 H 83.6647 0.56197 -0.502699 0
M  V30 805 H 86.3157 0.809727 -1.64668 0
M  V30 806 H 84.6977 3.41113 -2.01142 0
M  V30 807 H 85.8717 1.68354 -4.28945 0
M  V30 808 H 84.1867 1.66749 -3.81554 0
M  V30 809 H 86.7837 4.35558 -3.1015 0
M  V30 810 H 87.1267 3.90229 -1.45008 0
M  V30 811 H 87.6597 2.84535 -2.78002 0
M  V30 812 H 84.3987 3.11966 -5.76504 0
M  V30 813 H 83.9187 4.11041 -4.36813 0
M  V30 814 H 85.5977 4.15328 -4.96096 0
M  V30 815 N 85.7298 1.2412 0.971189 0
M  V30 816 C 86.6928 1.03156 2.04674 0
M  V30 817 C 87.6928 -0.00990322 1.60797 0
M  V30 818 O 88.8828 0.230729 1.72665 0
M  V30 819 C 86.0148 0.562765 3.36223 0
M  V30 820 H 87.2078 1.98614 2.24705 0
M  V30 821 H 84.7608 1.06293 1.14593 0
M  V30 822 H 85.4958 -0.395176 3.21883 0
M  V30 823 H 85.2808 1.31441 3.69413 0
M  V30 824 H 86.7708 0.437015 4.15307 0
M  V30 825 N 87.2079 -1.17134 1.05439 0
M  V30 826 C 88.4549 -1.87456 0.765942 0
M  V30 827 C 88.7829 -1.81189 -0.707153 0
M  V30 828 O 88.0379 -1.21633 -1.5331 0
M  V30 829 C 88.3369 -3.36833 1.19491 0
M  V30 830 C 88.0029 -3.63301 2.67063 0
M  V30 831 C 86.6649 -3.70234 3.07376 0
M  V30 832 C 89.0169 -3.74575 3.62413 0
M  V30 833 C 86.3449 -3.85933 4.41896 0
M  V30 834 C 88.6969 -3.91793 4.9667 0
M  V30 835 C 87.3609 -3.96966 5.36633 0
M  V30 836 H 86.6309 -0.685948 0.280278 0
M  V30 837 H 89.2779 -1.38556 1.32192 0
M  V30 838 H 87.5829 -3.87807 0.557969 0
M  V30 839 H 89.2799 -3.89611 0.948893 0
M  V30 840 H 85.8699 -3.58532 2.34846 0
M  V30 841 H 90.0539 -3.68537 3.32406 0
M  V30 842 H 85.3099 -3.88187 4.72357 0
M  V30 843 H 89.4839 -3.99458 5.70444 0
M  V30 844 H 87.1109 -4.08883 6.40874 0
M  V30 845 N 88.686 -0.835752 -1.33615 0
M  V30 846 C 89.636 -0.238856 -2.26745 0
M  V30 847 C 90.62 0.604343 -1.49119 0
M  V30 848 O 91.812 0.456822 -1.71003 0
M  V30 849 C 88.941 0.587725 -3.38232 0
M  V30 850 C 88.027 -0.266811 -4.2326 0
M  V30 851 N 88.418 -1.34403 -4.87616 0
M  V30 852 C 86.716 -0.0533131 -4.45968 0
M  V30 853 C 87.417 -1.86819 -5.50884 0
M  V30 854 N 86.393 -1.17013 -5.30857 0
M  V30 855 H 90.195 -1.06266 -2.74016 0
M  V30 856 H 87.709 -0.679881 -1.47483 0
M  V30 857 H 89.706 1.03161 -4.03935 0
M  V30 858 H 88.366 1.40954 -2.9251 0
M  V30 859 H 89.377 -1.7269 -4.88261 0
M  V30 860 H 86.054 0.735312 -4.10974 0
M  V30 861 H 87.444 -2.7701 -6.1214 0
M  V30 862 N 90.1641 1.46063 -0.591896 0
M  V30 863 C 91.4111 2.02338 -0.0809991 0
M  V30 864 C 91.7391 1.46228 1.28249 0
M  V30 865 O 90.9941 0.620818 1.85592 0
M  V30 866 C 91.2931 3.57391 0.0249813 0
M  V30 867 C 90.9591 4.32583 -1.27211 0
M  V30 868 C 89.6211 4.52844 -1.62745 0
M  V30 869 C 91.9731 4.75687 -2.13005 0
M  V30 870 C 89.3011 5.13462 -2.83855 0
M  V30 871 C 91.6531 5.37644 -3.3335 0
M  V30 872 C 90.3171 5.5613 -3.69155 0
M  V30 873 H 89.5871 0.740407 -0.0296397 0
M  V30 874 H 92.2341 1.75321 -0.770374 0
M  V30 875 H 90.5391 3.83597 0.797537 0
M  V30 876 H 92.2361 3.98621 0.436184 0
M  V30 877 H 88.8261 4.17116 -0.985499 0
M  V30 878 H 93.0101 4.59782 -1.86855 0
M  V30 879 H 88.2661 5.25965 -3.11722 0
M  V30 880 H 92.4401 5.7 -4.00092 0
M  V30 881 H 90.0671 6.0287 -4.63089 0
M  V30 882 N 91.6422 0.330177 1.54103 0
M  V30 883 C 92.5902 -0.548226 2.26047 0
M  V30 884 C 93.5842 -1.11309 1.27698 0
M  V30 885 O 94.7902 -1.06036 1.45452 0
M  V30 886 H 91.1652 -0.195456 0.726155 0
M  V30 887 H 93.1362 0.0807567 2.98291 0
M  V30 888 C 91.8852 -1.69415 3.03634 0
M  V30 889 H 91.2082 -1.26876 3.79134 0
M  V30 890 H 92.6482 -2.28423 3.5721 0
M  V30 891 C 91.1072 -2.61569 2.12328 0
M  V30 892 O 91.6372 -3.63462 1.7105 0
M  V30 893 N 89.8432 -2.29952 1.77681 0
M  V30 894 H 89.3902 -1.47134 2.11446 0
M  V30 895 H 89.3482 -2.91871 1.16869 0
M  V30 896 N 93.1203 -1.57491 0.0584922 0
M  V30 897 C 94.5313 -1.80526 -0.476138 0
M  V30 898 C 94.8823 -0.971334 -1.70469 0
M  V30 899 O 94.0073 -0.190012 -2.15564 0
M  V30 900 C 94.6023 -3.27424 -0.870587 0
M  V30 901 C 93.1613 -3.51351 -1.35015 0
M  V30 902 C 92.3083 -2.75343 -0.32887 0
M  V30 903 H 95.2593 -1.56133 0.284312 0
M  V30 904 H 95.2803 -3.38745 -1.73299 0
M  V30 905 H 94.7923 -3.88093 0.0237627 0
M  V30 906 H 92.8933 -2.95971 -2.26345 0
M  V30 907 H 93.0063 -4.60059 -1.33726 0
M  V30 908 H 91.3703 -2.417 -0.803321 0
M  V30 909 H 92.1533 -3.38743 0.557521 0
M  V30 910 N 94.5984 0.214957 -1.56127 0
M  V30 911 C 96.0144 0.564948 -1.49267 0
M  V30 912 C 96.2144 1.86827 -0.754838 0
M  V30 913 O 95.2704 2.50745 -0.297198 0
M  V30 914 C 96.5834 0.638071 -2.93852 0
M  V30 915 C 98.1314 0.728253 -3.0441 0
M  V30 916 C 98.6064 0.832663 -4.50367 0
M  V30 917 N 100.097 0.896712 -4.54437 0
M  V30 918 C 100.832 0.997324 -5.6466 0
M  V30 919 N 100.328 1.06147 -6.8462 0
M  V30 920 N 102.121 1.03297 -5.52527 0
M  V30 921 H 94.2724 -0.640211 -2.02522 0
M  V30 922 H 96.5354 -0.225507 -0.920788 0
M  V30 923 H 96.2414 -0.250126 -3.50809 0
M  V30 924 H 96.1154 1.49947 -3.46115 0
M  V30 925 H 98.5024 1.60689 -2.47514 0
M  V30 926 H 98.5834 -0.158952 -2.55306 0
M  V30 927 H 98.2274 -0.0415417 -5.07883 0
M  V30 928 H 98.1574 1.73538 -4.97184 0
M  V30 929 H 100.648 0.857188 -3.6805 0
M  V30 930 H 100.961 1.1382 -7.64372 0
M  V30 931 H 99.3064 1.03049 -6.87318 0
M  V30 932 H 102.497 0.979558 -4.57736 0
M  V30 933 H 102.67 1.10793 -6.38458 0
M  V30 934 N 96.0765 1.50051 0.48192 0
M  V30 935 C 97.3235 1.60498 1.23477 0
M  V30 936 C 97.6515 0.300331 1.92167 0
M  V30 937 O 96.9065 -0.713094 1.82246 0
M  V30 938 C 97.2055 2.72717 2.30998 0
M  V30 939 C 96.8715 4.13572 1.79636 0
M  V30 940 C 95.5335 4.519 1.65348 0
M  V30 941 C 97.8855 5.01649 1.41412 0
M  V30 942 C 95.2135 5.76057 1.11244 0
M  V30 943 C 97.5655 6.26343 0.887538 0
M  V30 944 C 96.2295 6.63483 0.731207 0
M  V30 945 H 95.4995 0.587303 0.451836 0
M  V30 946 H 98.1465 1.83948 0.532468 0
M  V30 947 H 96.4515 2.43312 3.07094 0
M  V30 948 H 98.1485 2.78006 2.88988 0
M  V30 949 H 94.7385 3.83329 1.91721 0
M  V30 950 H 98.9225 4.72679 1.51289 0
M  V30 951 H 94.1785 6.03516 0.978686 0
M  V30 952 H 98.3525 6.93958 0.582654 0
M  V30 953 H 95.9795 7.59568 0.309806 0
M  V30 954 N 97.5546 -0.734337 1.39446 0
M  V30 955 C 98.4646 -1.87879 1.40495 0
M  V30 956 C 99.4806 -1.714 0.299672 0
M  V30 957 O 100.657 -1.93991 0.541249 0
M  V30 958 C 97.7216 -3.23477 1.24754 0
M  V30 959 C 96.7826 -3.52344 2.45259 0
M  V30 960 C 96.0156 -4.81473 2.30259 0
M  V30 961 O 96.2386 -5.55237 1.30643 0
M  V30 962 O 95.1726 -5.10254 3.19256 0
M  V30 963 H 98.9986 -1.89949 2.36966 0
M  V30 964 H 96.5836 -0.882243 1.20569 0
M  V30 965 H 98.4656 -4.04509 1.18111 0
M  V30 966 H 97.1406 -3.22176 0.313781 0
M  V30 967 H 96.0476 -2.71396 2.57478 0
M  V30 968 H 97.3806 -3.58426 3.37331 0
M  V30 969 N 99.0327 -1.24633 -0.964593 0
M  V30 970 C 100.31 -0.995809 -1.68354 0
M  V30 971 C 100.69 0.480964 -2.05548 0
M  V30 972 O 100.038 1.45599 -1.76105 0
M  V30 973 C 100.248 -1.92177 -2.91323 0
M  V30 974 C 101.596 -2.19446 -3.63495 0
M  V30 975 O 102.62 -1.89855 -3.01386 0
M  V30 976 O 101.479 -2.69714 -4.75307 0
M  V30 977 H 98.5727 -0.376854 -0.736146 0
M  V30 978 H 101.119 -1.35745 -1.0184 0
M  V30 979 H 99.8907 -2.91938 -2.60553 0
M  V30 980 H 99.5137 -1.56349 -3.65569 0
M  V30 981 N 100.511 1.16574 -1.06058 0
M  V30 982 C 101.759 1.86677 -0.77434 0
M  V30 983 C 102.08 1.81959 0.701147 0
M  V30 984 O 101.35 1.2515 1.50713 0
M  V30 985 H 99.9298 0.691134 -0.283449 0
M  V30 986 H 102.592 1.41378 -1.34158 0
M  V30 987 H 101.688 2.92181 -1.09711 0
M  V30 988 N 101.989 0.842826 1.3317 0
M  V30 989 C 103.237 0.439577 1.97262 0
M  V30 990 C 103.558 -1.00548 1.67078 0
M  V30 991 O 102.828 -1.70098 0.971779 0
M  V30 992 H 101.408 0.159558 0.72976 0
M  V30 993 H 104.07 1.07665 1.62463 0
M  V30 994 H 103.166 0.574886 3.0676 0
M  V30 995 N 103.467 -1.45747 0.599634 0
M  V30 996 C 104.697 -2.06369 0.0977132 0
M  V30 997 C 105.105 -1.44624 -1.21985 0
M  V30 998 O 104.448 -0.551831 -1.75216 0
M  V30 999 C 104.51 -3.59284 -0.124673 0
M  V30 1000 C 104.174 -4.43318 1.10987 0
M  V30 1001 C 105.171 -4.78796 2.02609 0
M  V30 1002 C 102.856 -4.84194 1.33647 0
M  V30 1003 C 104.85 -5.53997 3.15224 0
M  V30 1004 C 102.537 -5.5915 2.46565 0
M  V30 1005 C 103.535 -5.93968 3.37182 0
M  V30 1006 O 103.223 -6.67405 4.48136 0
M  V30 1007 H 102.955 -0.673122 0.0623153 0
M  V30 1008 H 105.509 -1.88104 0.824981 0
M  V30 1009 H 103.739 -3.75919 -0.906745 0
M  V30 1010 H 105.428 -4.01775 -0.577201 0
M  V30 1011 H 106.194 -4.47781 1.86325 0
M  V30 1012 H 102.073 -4.56534 0.64016 0
M  V30 1013 H 105.617 -5.81091 3.85978 0
M  V30 1014 H 101.514 -5.89579 2.62805 0
M  V30 1015 H 102.282 -6.85847 4.46717 0
M  V30 1016 N 104.945 -0.338344 -1.53925 0
M  V30 1017 C 106.191 0.260143 -2.01125 0
M  V30 1018 C 106.524 1.50617 -1.22589 0
M  V30 1019 O 105.799 1.91979 -0.312113 0
M  V30 1020 C 106.082 0.579499 -3.55407 0
M  V30 1021 C 105.935 -0.678264 -4.44657 0
M  V30 1022 C 107.254 1.39122 -4.17532 0
M  V30 1023 H 104.373 0.0930772 -0.731099 0
M  V30 1024 H 107.015 -0.457852 -1.84401 0
M  V30 1025 H 105.165 1.19118 -3.69788 0
M  V30 1026 H 106.837 -1.31631 -4.42121 0
M  V30 1027 H 105.08 -1.3042 -4.13731 0
M  V30 1028 H 105.751 -0.410143 -5.50474 0
M  V30 1029 H 108.227 0.874035 -4.06817 0
M  V30 1030 H 107.103 1.58342 -5.25565 0
M  V30 1031 H 107.364 2.39178 -3.71815 0
M  V30 1032 N 106.423 1.57458 -0.0668435 0
M  V30 1033 C 107.669 1.93587 0.6043 0
M  V30 1034 C 108.002 0.946722 1.69561 0
M  V30 1035 O 107.277 -0.0248516 1.94484 0
M  V30 1036 C 107.56 3.40014 1.18585 0
M  V30 1037 C 107.413 4.49685 0.101529 0
M  V30 1038 C 108.732 3.87154 2.09284 0
M  V30 1039 H 105.851 0.703958 0.218202 0
M  V30 1040 H 108.493 1.89542 -0.131804 0
M  V30 1041 H 106.643 3.43592 1.81319 0
M  V30 1042 H 108.315 4.5823 -0.531279 0
M  V30 1043 H 106.558 4.30059 -0.568487 0
M  V30 1044 H 107.229 5.49266 0.54874 0
M  V30 1045 H 109.705 3.85551 1.56491 0
M  V30 1046 H 108.581 4.90231 2.46911 0
M  V30 1047 H 108.842 3.2481 2.99918 0
M  V30 1048 N 107.901 -0.206675 1.56239 0
M  V30 1049 C 109.141 -0.93574 1.81723 0
M  V30 1050 C 109.505 -1.80927 0.642609 0
M  V30 1051 O 110.706 -2.57323 0.777081 0
M  V30 1052 C 108.977 -1.74012 3.12177 0
M  V30 1053 S 110.536 -2.52279 3.59028 0
M  V30 1054 H 107.354 -0.314065 0.637875 0
M  V30 1055 H 109.956 -0.200071 1.94474 0
M  V30 1056 H 108.66 -1.0888 3.95693 0
M  V30 1057 H 108.191 -2.51782 3.02274 0
M  V30 1058 H 110.206 -3.76209 3.23545 0
M  V30 1059 N 109.379 -1.50304 -0.473955 0
M  V30 1060 C 110.327 -1.69482 -1.59307 0
M  V30 1061 C 111.321 -0.560669 -1.59853 0
M  V30 1062 O 112.527 -0.741087 -1.64036 0
M  V30 1063 H 108.902 -0.534892 -0.528578 0
M  V30 1064 H 110.873 -2.63364 -1.40293 0
M  V30 1065 C 109.622 -1.80354 -2.97267 0
M  V30 1066 H 108.945 -2.67012 -2.97564 0
M  V30 1067 H 110.385 -1.97798 -3.75036 0
M  V30 1068 C 108.844 -0.55448 -3.32306 0
M  V30 1069 O 109.374 0.307661 -4.0052 0
M  V30 1070 N 107.58 -0.409354 -2.87702 0
M  V30 1071 H 107.127 -1.11196 -2.32364 0
M  V30 1072 H 107.085 0.425223 -3.11511 0
M  V30 1073 N 110.857 0.726932 -1.39834 0
M  V30 1074 C 112.085 1.51613 -1.40787 0
M  V30 1075 C 112.5 1.88799 -0.00451505 0
M  V30 1076 O 111.857 1.54662 0.968809 0
M  V30 1077 C 111.908 2.79863 -2.28821 0
M  V30 1078 O 111.629 2.44253 -3.63692 0
M  V30 1079 C 113.13 3.73837 -2.38245 0
M  V30 1080 H 110.35 0.468264 -0.480593 0
M  V30 1081 H 112.894 0.897607 -1.83748 0
M  V30 1082 H 111.049 3.38027 -1.89252 0
M  V30 1083 H 111.463 3.26695 -4.1033 0
M  V30 1084 H 112.937 4.60699 -3.04073 0
M  V30 1085 H 113.414 4.16153 -1.40403 0
M  V30 1086 H 114.02 3.21589 -2.78317 0
M  V30 1087 N 112.336 1.25143 0.95797 0
M  V30 1088 C 113.752 1.01892 1.22842 0
M  V30 1089 C 113.952 -0.266311 1.99732 0
M  V30 1090 O 113.008 -0.979913 2.3271 0
M  V30 1091 C 114.321 2.24004 2.00606 0
M  V30 1092 C 115.869 2.28731 2.13662 0
M  V30 1093 C 116.344 3.5049 2.94823 0
M  V30 1094 N 117.835 3.50866 3.02403 0
M  V30 1095 C 118.57 4.4174 3.65586 0
M  V30 1096 N 118.066 5.42882 4.30408 0
M  V30 1097 N 119.859 4.29429 3.62694 0
M  V30 1098 H 112.01 2.07718 0.443493 0
M  V30 1099 H 114.273 0.912031 0.258657 0
M  V30 1100 H 113.979 3.17395 1.51503 0
M  V30 1101 H 113.853 2.26907 3.01319 0
M  V30 1102 H 116.24 1.35865 2.61963 0
M  V30 1103 H 116.321 2.29848 1.12265 0
M  V30 1104 H 115.965 4.43676 2.47213 0
M  V30 1105 H 115.895 3.46617 3.96439 0
M  V30 1106 H 118.386 2.777 2.56302 0
M  V30 1107 H 118.699 6.0844 4.76467 0
M  V30 1108 H 117.044 5.46758 4.29047 0
M  V30 1109 H 120.235 3.49643 3.11236 0
M  V30 1110 H 120.408 5.00448 4.1165 0
M  V30 1111 N 113.814 -1.1601 1.06675 0
M  V30 1112 C 114.746 -2.20115 0.638921 0
M  V30 1113 C 115.759 -1.59916 -0.305057 0
M  V30 1114 O 116.948 -1.78245 -0.0954446 0
M  V30 1115 C 114.048 -3.38798 -0.0830083 0
M  V30 1116 C 113.221 -4.2855 0.875426 0
M  V30 1117 C 112.28 -5.25849 0.192042 0
M  V30 1118 O 111.306 -5.63102 0.830921 0
M  V30 1119 N 112.508 -5.70648 -1.06493 0
M  V30 1120 H 115.273 -2.57439 1.53444 0
M  V30 1121 H 112.834 -1.31057 0.950557 0
M  V30 1122 H 114.826 -4.00936 -0.550685 0
M  V30 1123 H 113.396 -2.99947 -0.880386 0
M  V30 1124 H 112.616 -3.63617 1.52238 0
M  V30 1125 H 113.904 -4.85393 1.52548 0
M  V30 1126 H 113.302 -5.42482 -1.60405 0
M  V30 1127 H 111.859 -6.34859 -1.47641 0
M  V30 1128 N 115.292 -0.849877 -1.32721 0
M  V30 1129 C 116.24 -0.279745 -2.30912 0
M  V30 1130 C 117.234 0.594278 -1.58634 0
M  V30 1131 O 118.44 0.482613 -1.73409 0
M  V30 1132 H 114.815 -0.0717521 -0.748569 0
M  V30 1133 H 116.786 -1.12222 -2.76494 0
M  V30 1134 C 115.535 0.521108 -3.43773 0
M  V30 1135 H 114.858 -0.142141 -3.99547 0
M  V30 1136 H 116.298 0.885693 -4.14646 0
M  V30 1137 C 114.757 1.70442 -2.90605 0
M  V30 1138 O 115.287 2.8034 -2.87702 0
M  V30 1139 N 113.493 1.52991 -2.47067 0
M  V30 1140 H 113.04 0.635914 -2.49628 0
M  V30 1141 H 112.998 2.32311 -2.11847 0
M  V30 1142 N 116.77 1.45427 -0.607355 0
M  V30 1143 C 118.018 2.01841 -0.102253 0
M  V30 1144 C 118.339 1.47832 1.27164 0
M  V30 1145 O 117.609 0.672497 1.83995 0
M  V30 1146 H 116.189 0.746188 -0.0348101 0
M  V30 1147 H 118.851 1.78229 -0.7887 0
M  V30 1148 H 117.947 3.12057 -0.0518585 0
M  V30 1149 N 118.248 0.346503 1.53744 0
M  V30 1150 C 119.473 -0.253074 2.0585 0
M  V30 1151 C 119.898 -1.43202 1.21962 0
M  V30 1152 O 119.256 -1.79783 0.234073 0
M  V30 1153 C 119.304 -0.643193 3.54817 0
M  V30 1154 O 118.408 -1.74286 3.73762 0
M  V30 1155 H 117.749 -0.0413583 0.662711 0
M  V30 1156 H 120.279 0.501574 1.98357 0
M  V30 1157 H 120.289 -0.919526 3.97503 0
M  V30 1158 H 118.964 0.218966 4.15323 0
M  V30 1159 H 117.541 -1.46356 3.42979 0
M  V30 1160 N 119.726 -1.57421 0.075193 0
M  V30 1161 C 120.972 -1.94716 -0.587998 0
M  V30 1162 C 121.327 -0.955205 -1.67014 0
M  V30 1163 O 120.62 0.0219842 -1.91587 0
M  V30 1164 C 120.814 -3.36428 -1.20626 0
M  V30 1165 C 120.643 -4.49317 -0.185541 0
M  V30 1166 C 119.413 -5.04772 0.23099 0
M  V30 1167 C 121.611 -5.11036 0.57854 0
M  V30 1168 N 119.593 -6.01204 1.24206 0
M  V30 1169 C 120.964 -6.02998 1.44199 0
M  V30 1170 C 123.019 -4.93844 0.634237 0
M  V30 1171 C 121.722 -6.79614 2.3562 0
M  V30 1172 C 123.748 -5.71106 1.53597 0
M  V30 1173 C 123.11 -6.6272 2.38709 0
M  V30 1174 H 119.209 -0.759536 -0.186089 0
M  V30 1175 H 121.793 -1.94097 0.153128 0
M  V30 1176 H 119.964 -3.37778 -1.9173 0
M  V30 1177 H 121.696 -3.60951 -1.8302 0
M  V30 1178 H 118.451 -4.73353 -0.152807 0
M  V30 1179 H 118.875 -6.54119 1.74521 0
M  V30 1180 H 123.517 -4.22799 -0.00960004 0
M  V30 1181 H 121.235 -7.49934 3.01038 0
M  V30 1182 H 124.821 -5.59824 1.58394 0
M  V30 1183 H 123.701 -7.2146 3.07352 0
M  V30 1184 N 121.204 0.198386 -1.56346 0
M  V30 1185 C 122.452 0.91747 -1.80075 0
M  V30 1186 C 122.773 1.83929 -0.647692 0
M  V30 1187 O 122.043 1.93029 0.334166 0
M  V30 1188 H 120.623 0.341774 -0.664228 0
M  V30 1189 H 123.285 0.204684 -1.93822 0
M  V30 1190 H 122.381 1.51055 -2.7311 0
M  V30 1191 N 122.682 1.50554 0.465978 0
M  V30 1192 C 124.093 1.54599 1.04671 0
M  V30 1193 C 124.444 0.352488 1.93008 0
M  V30 1194 O 123.569 -0.534044 2.09707 0
M  V30 1195 C 124.164 2.80166 1.90505 0
M  V30 1196 C 122.723 2.86876 2.43678 0
M  V30 1197 C 121.87 2.48947 1.22151 0
M  V30 1198 H 124.821 1.56744 0.248384 0
M  V30 1199 H 124.842 2.62311 2.75633 0
M  V30 1200 H 124.354 3.67013 1.26186 0
M  V30 1201 H 122.455 2.04393 3.11536 0
M  V30 1202 H 122.568 3.89885 2.78436 0
M  V30 1203 H 120.932 2.01498 1.5579 0
M  V30 1204 H 121.715 3.38107 0.594866 0
M  V30 1205 N 124.16 -0.719506 1.40217 0
M  V30 1206 C 125.07 -1.86378 1.42479 0
M  V30 1207 C 126.086 -1.71073 0.317834 0
M  V30 1208 O 127.262 -1.93406 0.561794 0
M  V30 1209 C 124.327 -3.22136 1.28178 0
M  V30 1210 C 123.388 -3.49723 2.48982 0
M  V30 1211 C 122.621 -4.79004 2.35353 0
M  V30 1212 O 122.844 -5.53821 1.36524 0
M  V30 1213 O 121.778 -5.06839 3.2465 0
M  V30 1214 H 125.604 -1.87425 2.38968 0
M  V30 1215 H 123.189 -0.869405 1.21498 0
M  V30 1216 H 125.071 -4.03234 1.22395 0
M  V30 1217 H 123.746 -3.21825 0.347934 0
M  V30 1218 H 122.653 -2.6865 2.60342 0
M  V30 1219 H 123.986 -3.54828 3.41113 0
M  V30 1220 N 125.638 -1.25649 -0.95132 0
M  V30 1221 C 126.548 -1.08073 -2.08224 0
M  V30 1222 C 127.564 -0.0169666 -1.73992 0
M  V30 1223 O 128.74 -0.218593 -2.0021 0
M  V30 1224 C 125.805 -0.704922 -3.39458 0
M  V30 1225 C 124.866 -1.84699 -3.87537 0
M  V30 1226 C 124.099 -1.48902 -5.12508 0
M  V30 1227 O 124.322 -0.386156 -5.69091 0
M  V30 1228 O 123.256 -2.32033 -5.55378 0
M  V30 1229 H 127.082 -2.02924 -2.25954 0
M  V30 1230 H 124.667 -1.04618 -1.06656 0
M  V30 1231 H 126.549 -0.507609 -4.18332 0
M  V30 1232 H 125.224 0.214291 -3.2299 0
M  V30 1233 H 124.131 -2.09919 -3.09653 0
M  V30 1234 H 125.464 -2.74557 -4.08509 0
M  V30 1235 N 127.117 1.15442 -1.07289 0
M  V30 1236 C 128.533 1.38201 -0.798288 0
M  V30 1237 C 128.733 1.92429 0.597769 0
M  V30 1238 O 127.789 2.12962 1.3566 0
M  V30 1239 C 129.102 2.35357 -1.87156 0
M  V30 1240 C 130.65 2.49021 -1.89624 0
M  V30 1241 C 131.125 3.49468 -2.96034 0
M  V30 1242 N 132.616 3.57003 -2.95132 0
M  V30 1243 C 133.351 4.34543 -3.74112 0
M  V30 1244 N 132.847 5.15421 -4.6294 0
M  V30 1245 N 134.64 4.29625 -3.62462 0
M  V30 1246 H 126.791 0.78584 -1.97328 0
M  V30 1247 H 129.054 0.408065 -0.855679 0
M  V30 1248 H 128.76 2.02626 -2.87464 0
M  V30 1249 H 128.634 3.35129 -1.73114 0
M  V30 1250 H 131.021 2.81051 -0.899687 0
M  V30 1251 H 131.102 1.4925 -2.07745 0
M  V30 1252 H 130.746 3.18173 -3.95889 0
M  V30 1253 H 130.676 4.48992 -2.75161 0
M  V30 1254 H 133.167 2.99276 -2.30743 0
M  V30 1255 H 133.48 5.7183 -5.19837 0
M  V30 1256 H 131.825 5.14729 -4.66989 0
M  V30 1257 H 135.016 3.65505 -2.92444 0
M  V30 1258 H 135.189 4.89807 -4.24256 0
M  V30 1259 N 128.595 0.856903 1.32268 0
M  V30 1260 C 129.542 0.301172 2.28827 0
M  V30 1261 C 130.512 -0.593104 1.5515 0
M  V30 1262 O 131.697 -0.527537 1.83362 0
M  V30 1263 C 128.837 -0.502523 3.41422 0
M  V30 1264 C 127.95 0.417797 4.29975 0
M  V30 1265 C 127.085 -0.398749 5.29701 0
M  V30 1266 C 126.124 0.518827 6.09897 0
M  V30 1267 N 125.261 -0.260674 7.01616 0
M  V30 1268 H 130.101 1.12983 2.75751 0
M  V30 1269 H 127.638 0.568582 1.35667 0
M  V30 1270 H 129.596 -0.984141 4.05426 0
M  V30 1271 H 128.226 -1.29599 2.95642 0
M  V30 1272 H 127.278 1.01781 3.66531 0
M  V30 1273 H 128.59 1.12191 4.86019 0
M  V30 1274 H 127.744 -0.943435 5.9932 0
M  V30 1275 H 126.483 -1.13622 4.7428 0
M  V30 1276 H 125.488 1.07538 5.39181 0
M  V30 1277 H 126.713 1.25495 6.67404 0
M  V30 1278 H 124.659 -0.981198 6.4862 0
M  V30 1279 H 124.576 0.384364 7.55022 0
M  V30 1280 H 125.844 -0.787014 7.75517 0
M  V30 1281 N 130.073 -1.45103 0.615059 0
M  V30 1282 C 131.301 -2.06553 0.11977 0
M  V30 1283 C 131.716 -1.45842 -1.19898 0
M  V30 1284 O 131.073 -0.575325 -1.73194 0
M  V30 1285 C 131.124 -3.61495 -0.018364 0
M  V30 1286 O 130.845 -4.19942 1.24822 0
M  V30 1287 C 132.346 -4.39947 -0.544237 0
M  V30 1288 H 129.566 -0.667096 0.0722739 0
M  V30 1289 H 132.11 -1.8623 0.84491 0
M  V30 1290 H 130.265 -3.81135 -0.693865 0
M  V30 1291 H 130.679 -5.13204 1.0827 0
M  V30 1292 H 132.153 -5.48838 -0.589953 0
M  V30 1293 H 132.63 -4.10255 -1.56805 0
M  V30 1294 H 133.236 -4.25188 0.0974703 0
M  V30 1295 N 131.551 -0.354651 -1.53558 0
M  V30 1296 C 132.501 0.513179 -2.2215 0
M  V30 1297 C 133.485 1.05734 -1.21281 0
M  V30 1298 O 134.677 0.989202 -1.46778 0
M  V30 1299 C 131.806 1.65798 -3.00609 0
M  V30 1300 C 130.892 1.12722 -4.08845 0
M  V30 1301 N 131.283 0.318563 -5.04796 0
M  V30 1302 C 129.581 1.40307 -4.23356 0
M  V30 1303 C 130.282 0.0292224 -5.81693 0
M  V30 1304 N 129.258 0.623891 -5.40008 0
M  V30 1305 H 133.06 -0.111586 -2.93688 0
M  V30 1306 H 130.574 -0.162091 -1.61589 0
M  V30 1307 H 132.571 2.29176 -3.48258 0
M  V30 1308 H 131.231 2.28591 -2.306 0
M  V30 1309 H 132.242 -0.0413091 -5.17884 0
M  V30 1310 H 128.919 2.03458 -3.6457 0
M  V30 1311 H 130.309 -0.623808 -6.68998 0
M  V30 1312 N 133.029 1.57378 -0.0835403 0
M  V30 1313 C 133.962 2.09016 0.915833 0
M  V30 1314 C 134.94 0.997993 1.2837 0
M  V30 1315 O 136.124 1.27219 1.39096 0
M  V30 1316 C 133.251 2.55757 2.22049 0
M  V30 1317 C 132.297 3.76522 2.00333 0
M  V30 1318 S 133.13 5.20661 1.25191 0
M  V30 1319 C 134.286 5.70743 2.56912 0
M  V30 1320 H 134.519 2.93457 0.476492 0
M  V30 1321 H 132.052 1.53856 0.129493 0
M  V30 1322 H 134.01 2.83346 2.97027 0
M  V30 1323 H 132.671 1.71564 2.63106 0
M  V30 1324 H 131.864 4.07256 2.96916 0
M  V30 1325 H 131.466 3.49367 1.33488 0
M  V30 1326 H 133.758 5.78304 3.52946 0
M  V30 1327 H 134.701 6.6944 2.30772 0
M  V30 1328 H 135.109 4.98616 2.64655 0
M  V30 1329 N 134.507 -0.190092 1.56449 0
M  V30 1330 C 135.918 -0.754312 1.70784 0
M  V30 1331 C 136.269 -1.83631 0.690951 0
M  V30 1332 O 135.394 -2.15868 -0.151604 0
M  V30 1333 C 135.989 -1.37503 3.09642 0
M  V30 1334 C 134.548 -1.88628 3.25725 0
M  V30 1335 C 133.695 -0.758098 2.66736 0
M  V30 1336 H 136.646 0.0350524 1.58661 0
M  V30 1337 H 136.667 -2.2445 3.0725 0
M  V30 1338 H 136.179 -0.587302 3.83631 0
M  V30 1339 H 134.28 -2.70103 2.56661 0
M  V30 1340 H 134.393 -2.04462 4.3328 0
M  V30 1341 H 132.757 -1.17369 2.26046 0
M  V30 1342 H 133.54 0.0174705 3.43296 0
M  V30 1343 N 135.985 -1.50799 -0.457987 0
M  V30 1344 C 137.232 -1.62442 -1.20908 0
M  V30 1345 C 137.56 -0.330865 -1.91665 0
M  V30 1346 O 136.815 0.68401 -1.83357 0
M  V30 1347 C 137.114 -2.76358 -2.2663 0
M  V30 1348 C 136.78 -4.16378 -1.73033 0
M  V30 1349 C 135.442 -4.54473 -1.58138 0
M  V30 1350 C 137.794 -5.03836 -1.33413 0
M  V30 1351 C 135.122 -5.77754 -1.02065 0
M  V30 1352 C 137.474 -6.27676 -0.78778 0
M  V30 1353 C 136.138 -6.64562 -0.625561 0
M  V30 1354 H 135.408 -0.594417 -0.442435 0
M  V30 1355 H 138.055 -1.84772 -0.503136 0
M  V30 1356 H 136.36 -2.48167 -3.03184 0
M  V30 1357 H 138.057 -2.82568 -2.84528 0
M  V30 1358 H 134.647 -3.86331 -1.85598 0
M  V30 1359 H 138.831 -4.75026 -1.4375 0
M  V30 1360 H 134.087 -6.04997 -0.882547 0
M  V30 1361 H 138.261 -6.94797 -0.472177 0
M  V30 1362 H 135.888 -7.59965 -0.188926 0
M  V30 1363 N 137.463 0.71206 -1.40597 0
M  V30 1364 C 138.395 1.83704 -1.37061 0
M  V30 1365 C 139.408 1.60453 -0.275426 0
M  V30 1366 O 140.597 1.70262 -0.53602 0
M  V30 1367 C 137.697 3.20172 -1.11099 0
M  V30 1368 C 136.87 3.7059 -2.3234 0
M  V30 1369 C 135.929 4.85681 -2.02485 0
M  V30 1370 O 134.955 4.9815 -2.75382 0
M  V30 1371 N 136.157 5.71735 -1.00497 0
M  V30 1372 H 138.922 1.87235 -2.34016 0
M  V30 1373 H 136.483 0.893739 -1.34996 0
M  V30 1374 H 138.475 3.94768 -0.891064 0
M  V30 1375 H 137.045 3.11767 -0.227989 0
M  V30 1376 H 136.265 2.87085 -2.7014 0
M  V30 1377 H 137.553 4.01011 -3.13157 0
M  V30 1378 H 136.951 5.64275 -0.401298 0
M  V30 1379 H 135.508 6.463 -0.844942 0
M  V30 1380 N 138.941 1.26152 0.944643 0
M  V30 1381 C 139.888 1.07408 2.04285 0
M  V30 1382 C 140.858 -0.0198413 1.66088 0
M  V30 1383 O 142.043 0.139264 1.90291 0
M  V30 1384 C 139.183 0.70945 3.37729 0
M  V30 1385 C 138.296 1.87926 3.88983 0
M  V30 1386 C 137.431 1.45807 5.10797 0
M  V30 1387 C 136.47 2.5964 5.54305 0
M  V30 1388 N 135.607 2.18226 6.67324 0
M  V30 1389 H 140.447 2.01389 2.1965 0
M  V30 1390 H 137.984 1.00275 1.07626 0
M  V30 1391 H 139.942 0.478948 4.14442 0
M  V30 1392 H 138.572 -0.193389 3.2222 0
M  V30 1393 H 137.624 2.22279 3.08701 0
M  V30 1394 H 138.936 2.73377 4.17213 0
M  V30 1395 H 138.09 1.18781 5.94959 0
M  V30 1396 H 136.829 0.574414 4.84305 0
M  V30 1397 H 135.834 2.87399 4.68702 0
M  V30 1398 H 137.059 3.48599 5.828 0
M  V30 1399 H 135.005 1.3229 6.42523 0
M  V30 1400 H 134.922 2.97221 6.95123 0
M  V30 1401 H 136.19 1.94403 7.54869 0
M  V30 1402 N 140.419 -1.14872 1.07899 0
M  V30 1403 C 141.667 -1.85422 0.803941 0
M  V30 1404 C 141.988 -1.83051 -0.67211 0
M  V30 1405 O 141.258 -1.27532 -1.48703 0
M  V30 1406 H 139.838 -0.686537 0.294408 0
M  V30 1407 H 142.5 -1.39226 1.3639 0
M  V30 1408 H 141.596 -2.90399 1.14346 0
M  V30 1409 N 141.898 -0.863906 -1.31812 0
M  V30 1410 C 142.831 -0.259963 -2.26714 0
M  V30 1411 C 143.809 0.607392 -1.50829 0
M  V30 1412 O 144.993 0.562155 -1.79922 0
M  V30 1413 C 142.12 0.632456 -3.32743 0
M  V30 1414 C 141.166 -0.162743 -4.26189 0
M  V30 1415 S 141.999 -1.53726 -5.12961 0
M  V30 1416 C 143.155 -0.650803 -6.22507 0
M  V30 1417 H 143.388 -1.06445 -2.77591 0
M  V30 1418 H 140.921 -0.662071 -1.39485 0
M  V30 1419 H 142.879 1.14167 -3.94305 0
M  V30 1420 H 141.54 1.41083 -2.80632 0
M  V30 1421 H 140.733 0.517366 -5.01338 0
M  V30 1422 H 140.335 -0.60385 -3.69093 0
M  V30 1423 H 142.627 0.141134 -6.77353 0
M  V30 1424 H 143.57 -1.37322 -6.94657 0
M  V30 1425 H 143.978 -0.221041 -5.64067 0
M  V30 1426 N 143.376 1.44774 -0.622745 0
M  V30 1427 C 144.787 1.85546 -0.207226 0
M  V30 1428 C 145.138 1.52093 1.23944 0
M  V30 1429 O 144.263 0.95492 1.94191 0
M  V30 1430 C 144.858 3.36781 -0.369313 0
M  V30 1431 C 143.417 3.76399 -0.00836847 0
M  V30 1432 C 142.564 2.68664 -0.686651 0
M  V30 1433 H 145.515 1.3536 -0.828454 0
M  V30 1434 H 145.536 3.78453 0.394162 0
M  V30 1435 H 145.048 3.61098 -1.42231 0
M  V30 1436 H 143.149 3.57698 1.04322 0
M  V30 1437 H 143.262 4.7732 -0.412584 0
M  V30 1438 H 141.626 2.54404 -0.122777 0
M  V30 1439 H 142.409 2.95815 -1.74208 0
M  V30 1440 N 144.854 0.36279 1.53368 0
M  V30 1441 C 146.101 -0.227776 2.01215 0
M  V30 1442 C 146.429 -1.49003 1.25014 0
M  V30 1443 O 145.684 -1.92876 0.331236 0
M  V30 1444 C 145.983 -0.568417 3.52851 0
M  V30 1445 C 145.649 0.59918 4.46901 0
M  V30 1446 C 144.311 0.919559 4.72332 0
M  V30 1447 C 146.663 1.38156 5.02556 0
M  V30 1448 C 143.991 2.02434 5.5067 0
M  V30 1449 C 146.343 2.47674 5.821 0
M  V30 1450 C 145.007 2.8025 6.05819 0
M  V30 1451 H 144.277 -0.083349 0.736297 0
M  V30 1452 H 146.924 0.494677 1.85001 0
M  V30 1453 H 145.229 -1.37185 3.66998 0
M  V30 1454 H 146.926 -1.03756 3.87344 0
M  V30 1455 H 143.516 0.339437 4.27254 0
M  V30 1456 H 147.7 1.14729 4.82857 0
M  V30 1457 H 142.956 2.28075 5.67267 0
M  V30 1458 H 147.13 3.08716 6.24234 0
M  V30 1459 H 144.757 3.65979 6.66306 0
M  V30 1460 N 146.332 -1.57332 0.0918853 0
M  V30 1461 C 147.609 -1.85691 -0.614668 0
M  V30 1462 C 147.989 -0.988146 -1.86545 0
M  V30 1463 O 147.337 -0.0597055 -2.28422 0
M  V30 1464 C 147.547 -3.36294 -0.933126 0
M  V30 1465 C 148.895 -4.04275 -1.29796 0
M  V30 1466 O 149.919 -3.41157 -1.02424 0
M  V30 1467 O 148.778 -5.1564 -1.81047 0
M  V30 1468 H 145.872 -0.767802 -0.307261 0
M  V30 1469 H 148.418 -1.69244 0.12434 0
M  V30 1470 H 147.19 -3.91273 -0.0456404 0
M  V30 1471 H 146.813 -3.58076 -1.72822 0
M  V30 1472 N 147.81 0.181792 -1.56548 0
M  V30 1473 C 148.74 1.22765 -1.98623 0
M  V30 1474 C 149.721 1.46747 -0.860189 0
M  V30 1475 O 150.906 1.58259 -1.12551 0
M  V30 1476 C 148.036 2.56894 -2.33715 0
M  V30 1477 C 146.99 2.475 -3.49182 0
M  V30 1478 C 146.316 3.86023 -3.69986 0
M  V30 1479 C 147.616 1.98866 -4.82959 0
M  V30 1480 H 149.31 0.877942 -2.86239 0
M  V30 1481 H 146.856 0.42088 -1.37712 0
M  V30 1482 H 148.809 3.30253 -2.61746 0
M  V30 1483 H 147.533 2.93632 -1.42997 0
M  V30 1484 H 146.192 1.76596 -3.21262 0
M  V30 1485 H 145.84 4.20136 -2.76576 0
M  V30 1486 H 145.54 3.80609 -4.47672 0
M  V30 1487 H 147.064 4.60984 -4.00407 0
M  V30 1488 H 148.478 2.61992 -5.09934 0
M  V30 1489 H 146.875 2.04424 -5.64208 0
M  V30 1490 H 147.945 0.942465 -4.75653 0
M  V30 1491 N 149.288 1.51039 0.449983 0
M  V30 1492 C 150.528 1.64732 1.21007 0
M  V30 1493 C 150.892 0.349865 1.88785 0
M  V30 1494 O 152.093 0.362431 2.66345 0
M  V30 1495 C 150.364 2.80902 2.20973 0
M  V30 1496 S 151.923 3.14851 3.05638 0
M  V30 1497 H 148.741 0.5805 0.410538 0
M  V30 1498 H 151.343 1.88901 0.503634 0
M  V30 1499 H 150.047 3.73627 1.69796 0
M  V30 1500 H 149.578 2.58882 2.96215 0
M  V30 1501 H 151.593 2.60306 4.22439 0
M  V30 1502 N 150.766 -0.704594 1.40972 0
M  V30 1503 C 152.013 -1.46458 1.39844 0
M  V30 1504 C 152.341 -1.94499 0.00447594 0
M  V30 1505 O 151.596 -1.69275 -0.982057 0
M  V30 1506 C 151.895 -2.698 2.34399 0
M  V30 1507 C 151.561 -2.40464 3.81429 0
M  V30 1508 C 150.223 -2.32174 4.21484 0
M  V30 1509 C 152.575 -2.16086 4.74296 0
M  V30 1510 C 149.903 -1.97589 5.52427 0
M  V30 1511 C 152.255 -1.83011 6.05549 0
M  V30 1512 C 150.919 -1.7321 6.44635 0
M  V30 1513 H 150.189 -0.535927 0.511725 0
M  V30 1514 H 152.836 -0.806124 1.73706 0
M  V30 1515 H 151.141 -3.40536 1.93759 0
M  V30 1516 H 152.838 -3.27919 2.30804 0
M  V30 1517 H 149.428 -2.47808 3.49699 0
M  V30 1518 H 153.612 -2.2144 4.4416 0
M  V30 1519 H 148.868 -1.88547 5.81601 0
M  V30 1520 H 153.042 -1.63164 6.77016 0
M  V30 1521 H 150.669 -1.46179 7.46013 0
M  V30 1522 N 152.244 -1.26651 -0.937939 0
M  V30 1523 C 153.174 -1.10993 -2.05433 0
M  V30 1524 C 154.155 -0.0142161 -1.70094 0
M  V30 1525 O 155.34 -0.186837 -1.93299 0
M  V30 1526 C 152.47 -0.745561 -3.39203 0
M  V30 1527 C 151.424 -1.79337 -3.88616 0
M  V30 1528 C 150.75 -1.28324 -5.19073 0
M  V30 1529 C 152.05 -3.19553 -4.13138 0
M  V30 1530 H 153.744 -2.0438 -2.1879 0
M  V30 1531 H 151.29 -0.984041 -1.05131 0
M  V30 1532 H 153.243 -0.622888 -4.16771 0
M  V30 1533 H 151.967 0.22401 -3.25831 0
M  V30 1534 H 150.626 -1.90477 -3.13231 0
M  V30 1535 H 150.274 -0.303414 -5.02084 0
M  V30 1536 H 149.974 -1.98369 -5.53103 0
M  V30 1537 H 151.498 -1.1733 -5.99221 0
M  V30 1538 H 152.912 -3.11471 -4.81309 0
M  V30 1539 H 151.309 -3.87218 -4.58457 0
M  V30 1540 H 152.379 -3.65368 -3.18801 0
M  V30 1541 N 153.722 1.14298 -1.08507 0
M  V30 1542 C 154.968 1.85633 -0.816581 0
M  V30 1543 C 155.301 1.82784 0.656021 0
M  V30 1544 O 154.576 1.25926 1.48233 0
M  V30 1545 C 154.859 3.34223 -1.34041 0
M  V30 1546 C 154.712 3.45639 -2.87843 0
M  V30 1547 C 156.031 4.29356 -0.9665 0
M  V30 1548 H 153.15 0.67402 -0.298104 0
M  V30 1549 H 155.792 1.34214 -1.34487 0
M  V30 1550 H 153.942 3.78144 -0.89104 0
M  V30 1551 H 155.614 3.10498 -3.41158 0
M  V30 1552 H 153.857 2.86817 -3.25451 0
M  V30 1553 H 154.528 4.50089 -3.19569 0
M  V30 1554 H 157.004 3.93457 -1.35391 0
M  V30 1555 H 155.88 5.3178 -1.3602 0
M  V30 1556 H 156.141 4.41919 0.126362 0
M  V30 1557 N 155.201 0.870884 1.31352 0
M  V30 1558 C 156.133 0.28455 2.27427 0
M  V30 1559 C 157.146 -0.552927 1.53123 0
M  V30 1560 O 158.335 -0.374771 1.74521 0
M  V30 1561 C 155.435 -0.615164 3.3327 0
M  V30 1562 C 154.608 0.190079 4.36987 0
M  V30 1563 C 153.667 -0.637917 5.22319 0
M  V30 1564 O 152.693 -0.065626 5.69162 0
M  V30 1565 N 153.895 -1.94973 5.46778 0
M  V30 1566 H 156.66 1.11017 2.7838 0
M  V30 1567 H 154.221 0.732458 1.44384 0
M  V30 1568 H 156.213 -1.1748 3.87273 0
M  V30 1569 H 154.783 -1.34146 2.82354 0
M  V30 1570 H 154.003 0.931165 3.83044 0
M  V30 1571 H 155.291 0.742579 5.03352 0
M  V30 1572 H 154.689 -2.4378 5.10478 0
M  V30 1573 H 153.246 -2.45713 6.03712 0
M  V30 1574 N 156.679 -1.44442 0.630414 0
M  V30 1575 C 157.904 -2.06927 0.139944 0
M  V30 1576 C 158.329 -1.46795 -1.17613 0
M  V30 1577 O 157.687 -0.569144 -1.72135 0
M  V30 1578 C 157.735 -3.6058 0.0379581 0
M  V30 1579 O 156.839 -3.99937 -1.0062 0
M  V30 1580 H 156.18 -0.658608 0.0844483 0
M  V30 1581 H 158.71 -1.85327 0.866891 0
M  V30 1582 H 158.72 -4.07714 -0.152856 0
M  V30 1583 H 157.395 -4.03728 0.998809 0
M  V30 1584 H 155.972 -3.64436 -0.79001 0
M  V30 1585 N 158.157 -0.370918 -1.53173 0
M  V30 1586 C 159.382 0.220293 -2.06227 0
M  V30 1587 C 159.807 1.41243 -1.24225 0
M  V30 1588 O 159.165 1.79387 -0.262645 0
M  V30 1589 C 159.213 0.586663 -3.55796 0
M  V30 1590 O 158.317 1.68317 -3.76488 0
M  V30 1591 H 157.658 0.0308099 -0.663285 0
M  V30 1592 H 160.188 -0.533068 -1.97534 0
M  V30 1593 H 160.198 0.85617 -3.98916 0
M  V30 1594 H 158.873 -0.285013 -4.14922 0
M  V30 1595 H 157.45 1.40881 -3.45264 0
M  V30 1596 N 159.635 1.57281 -0.100228 0
M  V30 1597 C 160.912 1.86014 0.604812 0
M  V30 1598 C 161.292 0.998025 1.86018 0
M  V30 1599 O 160.64 0.0718184 2.28387 0
M  V30 1600 C 160.85 3.36784 0.915278 0
M  V30 1601 C 162.198 4.04957 1.27651 0
M  V30 1602 O 163.222 3.41695 1.00613 0
M  V30 1603 O 162.081 5.16593 1.7831 0
M  V30 1604 H 159.175 0.76942 0.303185 0
M  V30 1605 H 161.721 1.69176 -0.133313 0
M  V30 1606 H 160.493 3.91292 0.0248896 0
M  V30 1607 H 160.116 3.58987 1.70921 0
M  V30 1608 N 161.113 -0.173488 1.56642 0
M  V30 1609 C 162.36 -0.890465 1.81871 0
M  V30 1610 C 162.688 -1.82339 0.67696 0
M  V30 1611 O 161.943 -1.92795 -0.335926 0
M  V30 1612 C 162.242 -1.72069 3.13252 0
M  V30 1613 C 161.908 -0.936878 4.41059 0
M  V30 1614 C 160.57 -0.720545 4.75775 0
M  V30 1615 C 162.922 -0.386919 5.19762 0
M  V30 1616 C 160.25 0.0568829 5.86672 0
M  V30 1617 C 162.602 0.37741 6.31473 0
M  V30 1618 C 161.266 0.604563 6.64757 0
M  V30 1619 H 160.536 -0.325844 0.665512 0
M  V30 1620 H 163.183 -0.155527 1.90867 0
M  V30 1621 H 161.488 -2.52496 2.99588 0
M  V30 1622 H 163.185 -2.27844 3.29982 0
M  V30 1623 H 159.775 -1.11553 4.13828 0
M  V30 1624 H 163.959 -0.541398 4.93338 0
M  V30 1625 H 159.215 0.242635 6.10918 0
M  V30 1626 H 163.389 0.810825 6.91664 0
M  V30 1627 H 161.016 1.20885 7.50527 0
M  V30 1628 N 162.591 -1.51276 -0.441967 0
M  V30 1629 C 163.538 -1.72256 -1.53612 0
M  V30 1630 C 164.508 -0.564164 -1.56225 0
M  V30 1631 O 165.693 -0.798074 -1.73307 0
M  V30 1632 C 162.833 -1.84932 -2.91366 0
M  V30 1633 C 161.946 -3.12459 -2.98317 0
M  V30 1634 C 161.081 -3.15758 -4.27166 0
M  V30 1635 C 160.12 -4.37619 -4.27967 0
M  V30 1636 N 159.257 -4.38493 -5.48333 0
M  V30 1637 H 164.097 -2.65654 -1.35026 0
M  V30 1638 H 161.634 -1.31662 -0.656009 0
M  V30 1639 H 163.592 -1.90263 -3.7129 0
M  V30 1640 H 162.222 -0.949461 -3.08521 0
M  V30 1641 H 161.274 -3.1646 -2.11086 0
M  V30 1642 H 162.586 -4.02382 -2.94771 0
M  V30 1643 H 161.74 -3.19979 -5.15459 0
M  V30 1644 H 160.479 -2.23715 -4.33362 0
M  V30 1645 H 159.484 -4.33579 -3.38067 0
M  V30 1646 H 160.709 -5.30921 -4.23438 0
M  V30 1647 H 158.655 -3.49318 -5.55259 0
M  V30 1648 H 158.572 -5.22219 -5.46647 0
M  V30 1649 H 159.84 -4.469 -6.38671 0
M  V30 1650 N 164.069 0.697108 -1.41344 0
M  V30 1651 C 165.315 1.4593 -1.40827 0
M  V30 1652 C 165.648 1.94193 -0.0167098 0
M  V30 1653 O 164.923 1.69425 0.955263 0
M  V30 1654 C 165.206 2.67229 -2.41373 0
M  V30 1655 C 165.059 2.24741 -3.8963 0
M  V30 1656 C 166.378 3.69423 -2.39196 0
M  V30 1657 H 163.497 0.529303 -0.512842 0
M  V30 1658 H 166.139 0.794112 -1.72609 0
M  V30 1659 H 164.289 3.23982 -2.14401 0
M  V30 1660 H 165.961 1.73327 -4.27499 0
M  V30 1661 H 164.204 1.56542 -4.0457 0
M  V30 1662 H 164.875 3.1177 -4.55525 0
M  V30 1663 H 167.351 3.2234 -2.63128 0
M  V30 1664 H 166.227 4.51907 -3.11563 0
M  V30 1665 H 166.488 4.19012 -1.41001 0
M  V30 1666 N 165.547 1.27147 0.931209 0
M  V30 1667 C 166.48 1.0389 2.0318 0
M  V30 1668 C 167.458 -0.0395716 1.62552 0
M  V30 1669 O 168.642 0.104867 1.88208 0
M  V30 1670 C 165.769 0.575227 3.3378 0
M  V30 1671 C 164.815 1.64774 3.93385 0
M  V30 1672 S 165.648 3.23933 4.26413 0
M  V30 1673 C 166.804 2.79358 5.60098 0
M  V30 1674 H 167.037 1.97075 2.22596 0
M  V30 1675 H 164.57 1.10938 1.07387 0
M  V30 1676 H 166.528 0.314385 4.09294 0
M  V30 1677 H 165.189 -0.336505 3.12292 0
M  V30 1678 H 164.382 1.27454 4.87618 0
M  V30 1679 H 163.984 1.86048 3.24441 0
M  V30 1680 H 166.276 2.24443 6.39243 0
M  V30 1681 H 167.219 3.72322 6.02314 0
M  V30 1682 H 167.627 2.1861 5.20452 0
M  V30 1683 N 167.025 -1.13721 1.09112 0
M  V30 1684 C 168.271 -1.85198 0.826414 0
M  V30 1685 C 168.604 -1.83129 -0.646319 0
M  V30 1686 O 167.879 -1.2671 -1.47563 0
M  V30 1687 C 168.162 -3.33507 1.35812 0
M  V30 1688 C 168.015 -3.44108 2.89672 0
M  V30 1689 C 169.334 -4.28838 0.989256 0
M  V30 1690 H 166.453 -0.67243 0.301675 0
M  V30 1691 H 169.095 -1.33499 1.35197 0
M  V30 1692 H 167.245 -3.77666 0.911082 0
M  V30 1693 H 168.917 -3.08684 3.428 0
M  V30 1694 H 167.16 -2.85087 3.26967 0
M  V30 1695 H 167.831 -4.48388 3.21951 0
M  V30 1696 H 170.307 -3.92734 1.37475 0
M  V30 1697 H 169.183 -5.31051 1.38838 0
M  V30 1698 H 169.444 -4.4198 -0.102924 0
M  V30 1699 N 168.503 -0.877838 -1.30888 0
M  V30 1700 C 169.451 -0.328662 -2.30266 0
M  V30 1701 C 170.445 0.560496 -1.59859 0
M  V30 1702 O 171.651 0.445722 -1.74394 0
M  V30 1703 H 168.026 -0.0876142 -0.746879 0
M  V30 1704 H 169.997 -1.18061 -2.74051 0
M  V30 1705 C 168.746 0.448071 -3.44801 0
M  V30 1706 H 168.069 -0.226859 -3.99156 0
M  V30 1707 H 169.509 0.797541 -4.16432 0
M  V30 1708 C 167.968 1.64239 -2.94155 0
M  V30 1709 O 168.498 2.74175 -2.93583 0
M  V30 1710 N 166.704 1.47716 -2.50256 0
M  V30 1711 H 166.251 0.582821 -2.5092 0
M  V30 1712 H 166.209 2.27765 -2.16727 0
M  V30 1713 N 169.982 1.44106 -0.638065 0
M  V30 1714 C 171.23 2.01579 -0.145043 0
M  V30 1715 C 171.551 1.50496 1.24 0
M  V30 1716 O 170.821 0.711374 1.82527 0
M  V30 1717 H 169.401 0.745282 -0.05063 0
M  V30 1718 H 172.063 1.76516 -0.826327 0
M  V30 1719 H 171.159 3.11877 -0.118039 0
M  V30 1720 N 171.46 0.379036 1.52974 0
M  V30 1721 C 172.709 -0.207612 2.00629 0
M  V30 1722 C 173.022 -1.48758 1.27006 0
M  V30 1723 O 174.228 -2.15365 1.65318 0
M  V30 1724 C 172.684 -0.42053 3.57435 0
M  V30 1725 C 172.292 0.845587 4.39948 0
M  V30 1726 C 174.036 -0.964102 4.13407 0
M  V30 1727 C 171.943 0.601513 5.88333 0
M  V30 1728 H 170.873 -0.0813591 0.749598 0
M  V30 1729 H 173.524 0.499853 1.76561 0
M  V30 1730 H 171.906 -1.18959 3.7771 0
M  V30 1731 H 173.08 1.61848 4.31442 0
M  V30 1732 H 171.395 1.31336 3.95145 0
M  V30 1733 H 173.992 -1.16225 5.21916 0
M  V30 1734 H 174.335 -1.93019 3.68849 0
M  V30 1735 H 174.868 -0.25487 3.96983 0
M  V30 1736 H 171.607 1.53831 6.37194 0
M  V30 1737 H 171.127 -0.132628 5.99653 0
M  V30 1738 H 172.806 0.232134 6.46583 0
M  V30 1739 N 172.938 -1.57226 0.108567 0
M  V30 1740 C 173.868 -2.17778 -0.84232 0
M  V30 1741 C 174.849 -1.11487 -1.2847 0
M  V30 1742 O 176.034 -1.39681 -1.34918 0
M  V30 1743 C 173.164 -2.76888 -2.09644 0
M  V30 1744 C 172.118 -3.88669 -1.79221 0
M  V30 1745 C 171.444 -4.34541 -3.11574 0
M  V30 1746 C 172.744 -5.11251 -1.06864 0
M  V30 1747 H 174.438 -2.97489 -0.337774 0
M  V30 1748 H 171.984 -1.43097 -0.161025 0
M  V30 1749 H 173.937 -3.17904 -2.76614 0
M  V30 1750 H 172.661 -1.94451 -2.62405 0
M  V30 1751 H 171.32 -3.48213 -1.14644 0
M  V30 1752 H 170.968 -3.48977 -3.62249 0
M  V30 1753 H 170.668 -5.09914 -2.91996 0
M  V30 1754 H 172.192 -4.782 -3.7968 0
M  V30 1755 H 173.606 -5.49352 -1.63968 0
M  V30 1756 H 172.003 -5.9214 -0.974178 0
M  V30 1757 H 173.073 -4.8487 -0.0536168 0
M  V30 1758 N 174.416 0.165178 -1.56732 0
M  V30 1759 C 175.663 0.880807 -1.8234 0
M  V30 1760 C 175.991 1.81977 -0.686621 0
M  V30 1761 O 175.246 1.92971 0.325697 0
M  V30 1762 C 175.545 1.70405 -3.1416 0
M  V30 1763 C 175.211 0.913475 -4.4155 0
M  V30 1764 C 173.873 0.695303 -4.7615 0
M  V30 1765 C 176.225 0.359349 -5.1996 0
M  V30 1766 C 173.553 -0.0879947 -5.86634 0
M  V30 1767 C 175.905 -0.410893 -6.31264 0
M  V30 1768 C 174.569 -0.639808 -6.64427 0
M  V30 1769 H 173.839 0.32231 -0.667231 0
M  V30 1770 H 176.486 0.145402 -1.90947 0
M  V30 1771 H 174.791 2.50903 -3.00923 0
M  V30 1772 H 176.488 2.26091 -3.31186 0
M  V30 1773 H 173.078 1.09357 -4.14414 0
M  V30 1774 H 177.262 0.515228 -4.93618 0
M  V30 1775 H 172.518 -0.27503 -6.10781 0
M  V30 1776 H 176.692 -0.847494 -6.91224 0
M  V30 1777 H 174.319 -1.24864 -7.49875 0
M  V30 1778 N 175.894 1.51508 0.433938 0
M  V30 1779 C 177.14 1.64588 1.18484 0
M  V30 1780 C 177.473 0.362666 1.90784 0
M  V30 1781 O 176.748 -0.637892 1.83742 0
M  V30 1782 C 177.031 2.85149 2.19913 0
M  V30 1783 C 176.884 4.23456 1.51674 0
M  V30 1784 C 178.203 3.01227 3.20858 0
M  V30 1785 H 175.322 0.598994 0.429389 0
M  V30 1786 H 177.964 1.84002 0.473647 0
M  V30 1787 H 176.114 2.68729 2.80566 0
M  V30 1788 H 177.786 4.51552 0.943322 0
M  V30 1789 H 176.029 4.25998 0.819035 0
M  V30 1790 H 176.7 5.03812 2.2556 0
M  V30 1791 H 179.176 3.16382 2.70263 0
M  V30 1792 H 178.052 3.87141 3.89118 0
M  V30 1793 H 178.313 2.13447 3.8716 0
M  V30 1794 N 177.372 -0.689602 1.41712 0
M  V30 1795 C 178.304 -1.815 1.39966 0
M  V30 1796 C 179.317 -1.59995 0.300917 0
M  V30 1797 O 180.506 -1.69387 0.563039 0
M  V30 1798 C 177.606 -3.18364 1.16179 0
M  V30 1799 C 176.779 -3.66847 2.38206 0
M  V30 1800 C 175.838 -4.82398 2.10186 0
M  V30 1801 O 174.864 -4.93706 2.83272 0
M  V30 1802 N 176.066 -5.70064 1.0958 0
M  V30 1803 H 178.831 -1.83488 2.36965 0
M  V30 1804 H 176.392 -0.872149 1.36401 0
M  V30 1805 H 178.384 -3.93301 0.953756 0
M  V30 1806 H 176.954 -3.11365 0.27756 0
M  V30 1807 H 176.174 -2.82751 2.74673 0
M  V30 1808 H 177.462 -3.95978 3.19498 0
M  V30 1809 H 176.86 -5.63565 0.491019 0
M  V30 1810 H 175.417 -6.44874 0.947656 0
M  V30 1811 N 178.85 -1.27639 -0.924453 0
M  V30 1812 C 180.08 -1.16819 -1.70402 0
M  V30 1813 C 180.488 0.277191 -1.87158 0
M  V30 1814 O 179.831 1.20025 -1.39067 0
M  V30 1815 C 179.893 -1.78305 -3.12166 0
M  V30 1816 C 179.557 -3.27502 -3.18734 0
M  V30 1817 C 180.554 -4.2409 -3.00738 0
M  V30 1818 C 178.239 -3.68269 -3.4159 0
M  V30 1819 C 180.233 -5.59422 -3.05492 0
M  V30 1820 C 177.92 -5.0373 -3.45977 0
M  V30 1821 C 178.918 -5.99116 -3.27946 0
M  V30 1822 O 178.606 -7.32108 -3.32074 0
M  V30 1823 H 178.338 -0.406931 -0.539799 0
M  V30 1824 H 180.892 -1.69078 -1.16626 0
M  V30 1825 H 179.122 -1.20528 -3.67437 0
M  V30 1826 H 180.811 -1.62154 -3.72103 0
M  V30 1827 H 181.577 -3.93931 -2.82919 0
M  V30 1828 H 177.456 -2.94496 -3.54673 0
M  V30 1829 H 181 -6.33852 -2.91337 0
M  V30 1830 H 176.897 -5.33543 -3.63321 0
M  V30 1831 H 177.665 -7.40598 -3.48507 0
M  V30 1832 N 180.328 1.1314 -1.09713 0
M  V30 1833 C 181.575 1.84484 -0.834987 0
M  V30 1834 C 181.903 1.83689 0.639418 0
M  V30 1835 O 181.158 1.2724 1.4869 0
M  V30 1836 C 181.457 3.32167 -1.3191 0
M  V30 1837 C 181.123 3.53139 -2.80363 0
M  V30 1838 C 179.785 3.58571 -3.20905 0
M  V30 1839 C 182.137 3.60866 -3.76065 0
M  V30 1840 C 179.465 3.69267 -4.55916 0
M  V30 1841 C 181.817 3.73089 -5.10869 0
M  V30 1842 C 180.481 3.76775 -5.50996 0
M  V30 1843 H 179.751 0.675073 -0.305544 0
M  V30 1844 H 182.398 1.33554 -1.37243 0
M  V30 1845 H 180.703 3.85469 -0.701517 0
M  V30 1846 H 182.4 3.85821 -1.09284 0
M  V30 1847 H 178.99 3.49569 -2.47991 0
M  V30 1848 H 183.174 3.55946 -3.45855 0
M  V30 1849 H 178.43 3.70388 -4.86438 0
M  V30 1850 H 182.604 3.78011 -5.84877 0
M  V30 1851 H 180.231 3.84815 -6.55608 0
M  V30 1852 N 181.806 0.884767 1.30421 0
M  V30 1853 C 182.756 0.322846 2.25703 0
M  V30 1854 C 183.74 -0.548582 1.51259 0
M  V30 1855 O 184.932 -0.39304 1.72581 0
M  V30 1856 C 182.061 -0.461787 3.4018 0
M  V30 1857 C 181.147 0.423717 4.21978 0
M  V30 1858 N 181.538 1.52408 4.82292 0
M  V30 1859 C 179.836 0.218795 4.45463 0
M  V30 1860 C 180.537 2.07136 5.43571 0
M  V30 1861 N 179.513 1.36635 5.26148 0
M  V30 1862 H 183.315 1.16363 2.69883 0
M  V30 1863 H 180.829 0.73415 1.44859 0
M  V30 1864 H 182.826 -0.880985 4.07485 0
M  V30 1865 H 181.486 -1.30001 2.9754 0
M  V30 1866 H 182.497 1.90693 4.81515 0
M  V30 1867 H 179.174 -0.582275 4.1342 0
M  V30 1868 H 180.564 2.99538 6.01437 0
M  V30 1869 N 183.284 -1.43765 0.645699 0
M  V30 1870 C 184.7 -1.56509 0.312591 0
M  V30 1871 C 184.9 -1.6307 -1.18365 0
M  V30 1872 O 183.956 -1.58167 -1.96824 0
M  V30 1873 C 185.269 -2.82968 1.01733 0
M  V30 1874 C 186.817 -2.96701 0.996865 0
M  V30 1875 C 187.292 -4.25982 1.68236 0
M  V30 1876 N 188.783 -4.32829 1.64964 0
M  V30 1877 C 189.518 -5.31613 2.14885 0
M  V30 1878 N 189.014 -6.36718 2.73061 0
M  V30 1879 N 190.807 -5.23217 2.05428 0
M  V30 1880 H 182.958 -1.3775 1.61675 0
M  V30 1881 H 185.221 -0.661067 0.679481 0
M  V30 1882 H 184.927 -2.84156 2.0724 0
M  V30 1883 H 184.801 -3.72957 0.564177 0
M  V30 1884 H 187.188 -2.95058 -0.0497719 0
M  V30 1885 H 187.269 -2.08022 1.48865 0
M  V30 1886 H 186.913 -4.28386 2.72852 0
M  V30 1887 H 186.843 -5.13545 1.16529 0
M  V30 1888 H 189.334 -3.57493 1.22503 0
M  V30 1889 H 189.647 -7.08401 3.08848 0
M  V30 1890 H 187.992 -6.37362 2.77118 0
M  V30 1891 H 191.183 -4.40019 1.59689 0
M  V30 1892 H 191.356 -6.00045 2.44643 0
M  V30 1893 N 184.763 -0.387143 -1.52771 0
M  V30 1894 C 186.009 0.196025 -2.0185 0
M  V30 1895 C 186.342 1.46641 -1.27319 0
M  V30 1896 O 185.617 1.90889 -0.373032 0
M  V30 1897 C 185.9 0.466136 -3.5707 0
M  V30 1898 C 185.753 -0.819385 -4.42274 0
M  V30 1899 C 187.072 1.25768 -4.21747 0
M  V30 1900 H 184.191 0.0697708 -0.73369 0
M  V30 1901 H 186.833 -0.516286 -1.82851 0
M  V30 1902 H 184.983 1.07293 -3.7339 0
M  V30 1903 H 186.655 -1.4563 -4.37709 0
M  V30 1904 H 184.898 -1.43517 -4.09372 0
M  V30 1905 H 185.569 -0.585065 -5.48891 0
M  V30 1906 H 188.045 0.744167 -4.09391 0
M  V30 1907 H 186.921 1.41541 -5.30337 0
M  V30 1908 H 187.182 2.27228 -3.79236 0
M  V30 1909 N 186.241 1.57166 -0.116904 0
M  V30 1910 C 187.652 1.82169 0.408809 0
M  V30 1911 C 188.003 1.03393 1.66746 0
M  V30 1912 O 187.128 0.269886 2.1471 0
M  V30 1913 C 187.723 3.30429 0.748466 0
M  V30 1914 C 186.282 3.5612 1.21882 0
M  V30 1915 C 185.429 2.76374 0.226452 0
M  V30 1916 H 188.38 1.5497 -0.342063 0
M  V30 1917 H 188.401 3.44943 1.60607 0
M  V30 1918 H 187.913 3.87737 -0.167784 0
M  V30 1919 H 186.014 3.04168 2.15204 0
M  V30 1920 H 186.127 4.64705 1.16559 0
M  V30 1921 H 184.491 2.44515 0.713063 0
M  V30 1922 H 185.274 3.3644 -0.682859 0
M  V30 1923 N 187.719 -0.156864 1.56817 0
M  V30 1924 C 188.966 -0.871125 1.82805 0
M  V30 1925 C 189.294 -1.81611 0.696262 0
M  V30 1926 O 188.549 -1.93141 -0.315459 0
M  V30 1927 C 188.848 -1.68737 3.1506 0
M  V30 1928 C 188.514 -0.890045 4.42028 0
M  V30 1929 C 187.176 -0.670042 4.76512 0
M  V30 1930 C 189.528 -0.331769 5.20143 0
M  V30 1931 C 186.856 0.119104 5.86579 0
M  V30 1932 C 189.208 0.444365 6.31037 0
M  V30 1933 C 187.872 0.675035 6.64078 0
M  V30 1934 H 187.142 -0.318767 0.668931 0
M  V30 1935 H 189.789 -0.135274 1.91022 0
M  V30 1936 H 188.094 -2.49304 3.0225 0
M  V30 1937 H 189.791 -2.24331 3.3238 0
M  V30 1938 H 186.381 -1.07157 4.14988 0
M  V30 1939 H 190.565 -0.489043 4.93885 0
M  V30 1940 H 185.821 0.307417 6.10627 0
M  V30 1941 H 189.995 0.884139 6.90765 0
M  V30 1942 H 187.622 1.28839 7.49203 0
M  V30 1943 N 189.197 -1.51736 -0.425897 0
M  V30 1944 C 190.147 -1.70258 -1.51645 0
M  V30 1945 C 191.131 -0.556488 -1.5097 0
M  V30 1946 O 192.323 -0.812879 -1.5723 0
M  V30 1947 C 189.452 -1.84143 -2.89735 0
M  V30 1948 C 188.538 -3.04572 -2.95122 0
M  V30 1949 N 188.929 -4.2756 -2.70233 0
M  V30 1950 C 187.227 -3.04061 -3.26286 0
M  V30 1951 C 187.928 -5.08908 -2.81757 0
M  V30 1952 N 186.904 -4.43797 -3.13919 0
M  V30 1953 H 190.706 -2.63004 -1.31172 0
M  V30 1954 H 188.22 -1.4954 -0.633375 0
M  V30 1955 H 190.217 -1.95525 -3.68206 0
M  V30 1956 H 188.877 -0.925857 -3.1122 0
M  V30 1957 H 189.888 -4.56315 -2.44943 0
M  V30 1958 H 186.565 -2.22179 -3.53473 0
M  V30 1959 H 187.955 -6.16843 -2.66372 0
M  V30 1960 N 190.675 0.682077 -1.42076 0
M  V30 1961 C 192.091 0.994324 -1.24841 0
M  V30 1962 C 192.291 2.0096 -0.147389 0
M  V30 1963 O 191.347 2.47822 0.483782 0
M  V30 1964 C 192.66 1.50607 -2.60265 0
M  V30 1965 C 194.208 1.62421 -2.6756 0
M  V30 1966 C 194.683 2.16994 -4.03333 0
M  V30 1967 N 196.174 2.24337 -4.0525 0
M  V30 1968 C 196.909 2.67621 -5.07116 0
M  V30 1969 N 196.405 3.1041 -6.19368 0
M  V30 1970 N 198.198 2.67305 -4.94474 0
M  V30 1971 H 190.349 0.00973908 -2.12398 0
M  V30 1972 H 192.612 0.0668593 -0.945639 0
M  V30 1973 H 192.318 0.834583 -3.41654 0
M  V30 1974 H 192.192 2.48602 -2.83684 0
M  V30 1975 H 194.579 2.28678 -1.86521 0
M  V30 1976 H 194.66 0.629352 -2.47937 0
M  V30 1977 H 194.304 1.51349 -4.84826 0
M  V30 1978 H 194.234 3.17258 -4.20304 0
M  V30 1979 H 196.725 1.94158 -3.24209 0
M  V30 1980 H 197.038 3.42103 -6.92954 0
M  V30 1981 H 195.383 3.08286 -6.22884 0
M  V30 1982 H 198.574 2.33233 -4.05857 0
M  V30 1983 H 198.747 3.00718 -5.73997 0
M  V30 1984 N 192.153 1.28127 0.917671 0
M  V30 1985 C 193.399 1.15223 1.66888 0
M  V30 1986 C 193.732 -0.299293 1.9188 0
M  V30 1987 O 193.007 -1.21805 1.51637 0
M  V30 1988 C 193.29 1.94706 3.02922 0
M  V30 1989 C 193.143 3.47898 2.85109 0
M  V30 1990 C 194.462 1.75939 4.03402 0
M  V30 1991 H 191.581 0.419946 0.605652 0
M  V30 1992 H 194.223 1.57398 1.06423 0
M  V30 1993 H 192.373 1.58864 3.54534 0
M  V30 1994 H 194.045 3.93624 2.40537 0
M  V30 1995 H 192.288 3.7373 2.20246 0
M  V30 1996 H 192.959 3.98765 3.81694 0
M  V30 1997 H 195.435 2.07209 3.60837 0
M  V30 1998 H 194.311 2.33931 4.96556 0
M  V30 1999 H 194.572 0.709877 4.36364 0
M  V30 2000 N 193.631 -1.12557 1.10312 0
M  V30 2001 C 194.908 -1.80363 0.756878 0
M  V30 2002 C 195.288 -1.97067 -0.756824 0
M  V30 2003 O 194.636 -1.54601 -1.68259 0
M  V30 2004 C 194.846 -3.14812 1.50647 0
M  V30 2005 C 196.194 -3.90029 1.67817 0
M  V30 2006 O 197.218 -3.24464 1.46974 0
M  V30 2007 O 196.077 -5.07652 2.02365 0
M  V30 2008 H 193.171 -0.780667 0.272926 0
M  V30 2009 H 195.717 -1.19404 1.20586 0
M  V30 2010 H 194.489 -2.97936 2.53672 0
M  V30 2011 H 194.112 -3.83478 1.05026 0
M  V30 2012 N 195.109 -0.891671 -1.2995 0
M  V30 2013 C 196.337 -0.52866 -2.00032 0
M  V30 2014 C 196.752 0.884574 -1.66795 0
M  V30 2015 O 196.109 1.5827 -0.908669 0
M  V30 2016 C 196.16 -0.701814 -3.54622 0
M  V30 2017 O 195.881 -2.05942 -3.86678 0
M  V30 2018 C 197.382 -0.342683 -4.41973 0
M  V30 2019 H 194.602 -0.203659 -0.639347 0
M  V30 2020 H 197.146 -1.19881 -1.65677 0
M  V30 2021 H 195.301 -0.0789468 -3.8732 0
M  V30 2022 H 195.715 -2.08291 -4.81368 0
M  V30 2023 H 197.189 -0.514709 -5.49595 0
M  V30 2024 H 197.666 0.71975 -4.33262 0
M  V30 2025 H 198.272 -0.942154 -4.14733 0
M  V30 2026 N 196.587 1.43421 -0.653314 0
M  V30 2027 C 197.836 2.01032 -0.164076 0
M  V30 2028 C 198.149 1.52147 1.22926 0
M  V30 2029 O 199.355 2.02031 1.81371 0
M  V30 2030 C 197.811 3.59082 -0.24252 0
M  V30 2031 C 197.419 4.1696 -1.63855 0
M  V30 2032 C 199.163 4.24079 0.18911 0
M  V30 2033 C 197.07 5.67304 -1.67092 0
M  V30 2034 H 196 0.751798 -0.0575769 0
M  V30 2035 H 198.651 1.6439 -0.815362 0
M  V30 2036 H 197.033 3.93125 0.476276 0
M  V30 2037 H 198.207 3.94416 -2.38271 0
M  V30 2038 H 196.522 3.64335 -2.01616 0
M  V30 2039 H 199.119 5.34381 0.184775 0
M  V30 2040 H 199.462 3.98005 1.22056 0
M  V30 2041 H 199.995 3.94918 -0.477938 0
M  V30 2042 H 196.734 5.98145 -2.68146 0
M  V30 2043 H 196.254 5.91904 -0.970014 0
M  V30 2044 H 197.933 6.31344 -1.4147 0
M  V30 2045 N 198.065 0.39524 1.52563 0
M  V30 2046 C 199.29 -0.187456 2.06551 0
M  V30 2047 C 199.715 -1.39249 1.26457 0
M  V30 2048 O 199.073 -1.78947 0.291151 0
M  V30 2049 C 199.121 -0.529985 3.56684 0
M  V30 2050 O 198.225 -1.62307 3.79118 0
M  V30 2051 H 197.566 -0.0202537 0.663691 0
M  V30 2052 H 200.096 0.564426 1.96661 0
M  V30 2053 H 200.106 -0.792598 4.00227 0
M  V30 2054 H 198.781 0.350987 4.14416 0
M  V30 2055 H 197.358 -1.3537 3.47461 0
M  V30 2056 N 199.544 -1.57102 0.125237 0
M  V30 2057 C 200.79 -1.95697 -0.532035 0
M  V30 2058 C 201.123 -1.009 -1.6593 0
M  V30 2059 O 200.398 -0.047347 -1.94442 0
M  V30 2060 C 200.681 -3.44181 -1.05884 0
M  V30 2061 C 200.534 -4.49752 0.0654392 0
M  V30 2062 C 201.853 -3.94655 -1.9477 0
M  V30 2063 H 198.972 -0.711571 -0.191925 0
M  V30 2064 H 201.614 -1.88923 0.20206 0
M  V30 2065 H 199.764 -3.50085 -1.68442 0
M  V30 2066 H 201.436 -4.55943 0.700982 0
M  V30 2067 H 199.679 -4.27653 0.727709 0
M  V30 2068 H 200.35 -5.50924 -0.344505 0
M  V30 2069 H 202.826 -3.91094 -1.42074 0
M  V30 2070 H 201.702 -4.99057 -2.28546 0
M  V30 2071 H 201.963 -3.35718 -2.87656 0
M  V30 2072 N 201.022 0.148545 -1.56898 0
M  V30 2073 C 201.97 1.20265 -1.99096 0
M  V30 2074 C 202.964 1.44559 -0.883123 0
M  V30 2075 O 204.17 1.4487 -1.0683 0
M  V30 2076 H 200.545 0.404786 -0.63376 0
M  V30 2077 H 202.516 0.82004 -2.86911 0
M  V30 2078 C 201.265 2.52886 -2.3863 0
M  V30 2079 H 200.588 2.35021 -3.23427 0
M  V30 2080 H 202.028 3.25274 -2.7198 0
M  V30 2081 C 200.487 3.13315 -1.23837 0
M  V30 2082 O 201.017 3.98077 -0.538268 0
M  V30 2083 N 199.223 2.72742 -1.00301 0
M  V30 2084 H 198.77 2.03912 -1.5741 0
M  V30 2085 H 198.728 3.13507 -0.236838 0
M  V30 2086 N 202.5 1.5196 0.417844 0
M  V30 2087 C 203.748 1.65263 1.16329 0
M  V30 2088 C 204.069 0.380634 1.91249 0
M  V30 2089 O 203.339 -0.604214 1.86349 0
M  V30 2090 H 201.919 0.60912 0.432414 0
M  V30 2091 H 204.581 1.88969 0.477162 0
M  V30 2092 H 203.677 2.4896 1.88217 0
M  V30 2093 N 203.978 -0.674533 1.42435 0
M  V30 2094 C 205.203 -1.46784 1.46524 0
M  V30 2095 C 205.628 -1.87938 0.078066 0
M  V30 2096 O 204.986 -1.56014 -0.92354 0
M  V30 2097 C 205.034 -2.69307 2.39805 0
M  V30 2098 O 204.138 -3.67587 1.86959 0
M  V30 2099 H 203.479 -0.440959 0.496439 0
M  V30 2100 H 206.009 -0.827326 1.87127 0
M  V30 2101 H 206.019 -3.17374 2.56393 0
M  V30 2102 H 204.694 -2.38692 3.40586 0
M  V30 2103 H 203.271 -3.2662 1.79927 0
M  V30 2104 N 205.456 -1.28612 -0.910864 0
M  V30 2105 C 206.702 -1.16106 -1.66274 0
M  V30 2106 C 207.035 0.289113 -1.92036 0
M  V30 2107 O 206.31 1.21 -1.52281 0
M  V30 2108 C 206.593 -1.96309 -3.01885 0
M  V30 2109 C 206.446 -3.49405 -2.8326 0
M  V30 2110 C 207.765 -1.78076 -4.02463 0
M  V30 2111 H 204.884 -0.423152 -0.603417 0
M  V30 2112 H 207.526 -1.57961 -1.05586 0
M  V30 2113 H 205.676 -1.60742 -3.53687 0
M  V30 2114 H 207.348 -3.94894 -2.38446 0
M  V30 2115 H 205.591 -3.74893 -2.18261 0
M  V30 2116 H 206.262 -4.00784 -3.79574 0
M  V30 2117 H 208.738 -2.0912 -3.59733 0
M  V30 2118 H 207.614 -2.36561 -4.95308 0
M  V30 2119 H 207.875 -0.733008 -4.35981 0
M  V30 2120 N 206.934 1.1197 -1.10907 0
M  V30 2121 C 207.866 2.17592 -0.720175 0
M  V30 2122 C 208.879 1.60938 0.245495 0
M  V30 2123 O 210.068 1.78476 0.0292245 0
M  V30 2124 C 207.168 3.38873 -0.0427917 0
M  V30 2125 C 206.341 4.25006 -1.03388 0
M  V30 2126 C 205.4 5.24774 -0.387075 0
M  V30 2127 O 204.426 5.59631 -1.03934 0
M  V30 2128 N 205.628 5.74208 0.852407 0
M  V30 2129 H 208.393 2.51567 -1.62893 0
M  V30 2130 H 205.954 1.27439 -0.998543 0
M  V30 2131 H 207.946 4.02703 0.401501 0
M  V30 2132 H 206.516 3.03007 0.768456 0
M  V30 2133 H 205.736 3.57716 -1.65629 0
M  V30 2134 H 207.024 4.79397 -1.70458 0
M  V30 2135 H 206.422 5.48062 1.40161 0
M  V30 2136 H 204.979 6.39901 1.23977 0
M  V30 2137 N 208.412 0.89855 1.29475 0
M  V30 2138 C 209.342 0.39201 2.30186 0
M  V30 2139 C 210.323 -0.532359 1.61555 0
M  V30 2140 O 211.508 -0.443331 1.89072 0
M  V30 2141 C 208.638 -0.382353 3.45189 0
M  V30 2142 C 207.592 0.451483 4.25612 0
M  V30 2143 C 206.918 -0.450307 5.328 0
M  V30 2144 C 208.218 1.70079 4.93832 0
M  V30 2145 H 209.912 1.23362 2.72804 0
M  V30 2146 H 207.458 0.594638 1.31149 0
M  V30 2147 H 209.411 -0.747451 4.14718 0
M  V30 2148 H 208.135 -1.25774 3.01411 0
M  V30 2149 H 206.794 0.798897 3.57789 0
M  V30 2150 H 206.442 -1.32379 4.85268 0
M  V30 2151 H 206.142 0.103902 5.87508 0
M  V30 2152 H 207.666 -0.811623 6.05182 0
M  V30 2153 H 209.08 1.40549 5.55805 0
M  V30 2154 H 207.477 2.19623 5.58467 0
M  V30 2155 H 208.547 2.43744 4.19186 0
M  V30 2156 N 209.89 -1.43072 0.660911 0
M  V30 2157 C 211.115 -2.06584 0.183805 0
M  V30 2158 C 211.54 -1.49257 -1.14472 0
M  V30 2159 O 210.898 -0.605528 -1.70889 0
M  V30 2160 C 210.946 -3.60418 0.114434 0
M  V30 2161 O 210.05 -4.01981 -0.921137 0
M  V30 2162 H 209.391 -0.656669 0.0983994 0
M  V30 2163 H 211.921 -1.83447 0.906006 0
M  V30 2164 H 211.931 -4.07946 -0.0663394 0
M  V30 2165 H 210.606 -4.01519 1.08422 0
M  V30 2166 H 209.183 -3.66029 -0.71253 0
M  V30 2167 N 211.368 -0.403325 -1.52352 0
M  V30 2168 C 212.598 0.17376 -2.05868 0
M  V30 2169 C 213.006 1.39898 -1.27378 0
M  V30 2170 O 212.349 1.80939 -0.31729 0
M  V30 2171 C 212.411 0.594756 -3.54546 0
M  V30 2172 C 212.075 -0.518926 -4.54044 0
M  V30 2173 C 213.072 -1.3807 -5.01231 0
M  V30 2174 C 210.757 -0.689961 -4.97539 0
M  V30 2175 C 212.751 -2.39852 -5.90551 0
M  V30 2176 C 210.438 -1.71109 -5.86656 0
M  V30 2177 C 211.436 -2.56378 -6.33056 0
M  V30 2178 O 211.124 -3.56743 -7.20409 0
M  V30 2179 H 210.856 0.0264951 -0.675481 0
M  V30 2180 H 213.41 -0.571179 -1.97299 0
M  V30 2181 H 211.64 1.39189 -3.60782 0
M  V30 2182 H 213.329 1.0991 -3.90736 0
M  V30 2183 H 214.095 -1.25994 -4.68349 0
M  V30 2184 H 209.974 -0.035939 -4.60986 0
M  V30 2185 H 213.518 -3.06441 -6.26689 0
M  V30 2186 H 209.415 -1.83218 -6.18952 0
M  V30 2187 H 210.183 -3.52918 -7.38506 0
M  V30 2188 N 212.846 1.57033 -0.133567 0
M  V30 2189 C 214.095 1.94861 0.520768 0
M  V30 2190 C 214.408 1.02012 1.66892 0
M  V30 2191 O 215.614 1.29365 2.38699 0
M  V30 2192 C 214.07 3.46362 0.977809 0
M  V30 2193 C 213.678 4.47773 -0.142674 0
M  V30 2194 C 215.422 3.93083 1.60269 0
M  V30 2195 C 213.329 5.90468 0.331883 0
M  V30 2196 H 212.259 0.727453 0.198315 0
M  V30 2197 H 214.91 1.82227 -0.215759 0
M  V30 2198 H 213.292 3.54282 1.7692 0
M  V30 2199 H 214.466 4.51536 -0.919317 0
M  V30 2200 H 212.781 4.10891 -0.675124 0
M  V30 2201 H 215.378 4.97121 1.96914 0
M  V30 2202 H 215.721 3.33876 2.48662 0
M  V30 2203 H 216.254 3.88025 0.876453 0
M  V30 2204 H 212.993 6.53463 -0.516341 0
M  V30 2205 H 212.513 5.90094 1.07469 0
M  V30 2206 H 214.192 6.42179 0.788332 0
M  V30 2207 N 214.325 -0.140222 1.56975 0
M  V30 2208 C 215.55 -0.870414 1.88251 0
M  V30 2209 C 215.975 -1.73637 0.723312 0
M  V30 2210 O 215.333 -1.78329 -0.32689 0
M  V30 2211 C 215.381 -1.69737 3.18154 0
M  V30 2212 O 214.485 -2.80229 3.02565 0
M  V30 2213 H 213.826 -0.242025 0.61832 0
M  V30 2214 H 216.356 -0.128999 2.04193 0
M  V30 2215 H 216.366 -2.09099 3.50345 0
M  V30 2216 H 215.041 -1.06152 4.02125 0
M  V30 2217 H 213.618 -2.44224 2.81796 0
M  V30 2218 N 215.803 -1.52179 -0.40978 0
M  V30 2219 C 217.05 -1.66206 -1.15679 0
M  V30 2220 C 217.378 -0.391674 -1.90516 0
M  V30 2221 O 216.633 0.62533 -1.8544 0
M  V30 2222 C 216.932 -2.83428 -2.17723 0
M  V30 2223 C 216.598 -4.21672 -1.59699 0
M  V30 2224 C 215.26 -4.59274 -1.43599 0
M  V30 2225 C 217.612 -5.07825 -1.17317 0
M  V30 2226 C 214.94 -5.80709 -0.836328 0
M  V30 2227 C 217.292 -6.29864 -0.587691 0
M  V30 2228 C 215.956 -6.66216 -0.413818 0
M  V30 2229 H 215.226 -0.608192 -0.423301 0
M  V30 2230 H 217.873 -1.86279 -0.444097 0
M  V30 2231 H 216.178 -2.57687 -2.95135 0
M  V30 2232 H 217.875 -2.91477 -2.75394 0
M  V30 2233 H 214.465 -3.9204 -1.73213 0
M  V30 2234 H 218.649 -4.79359 -1.28565 0
M  V30 2235 H 213.905 -6.07498 -0.689626 0
M  V30 2236 H 218.079 -6.95948 -0.250894 0
M  V30 2237 H 215.706 -7.60182 0.0529471 0
M  V30 2238 N 217.281 0.66697 -1.42791 0
M  V30 2239 C 218.213 1.7925 -1.42836 0
M  V30 2240 C 219.226 1.59496 -0.326333 0
M  V30 2241 O 220.415 1.6847 -0.589916 0
M  V30 2242 C 217.515 3.16476 -1.21229 0
M  V30 2243 C 216.688 3.63011 -2.44013 0
M  V30 2244 C 215.747 4.78993 -2.17834 0
M  V30 2245 O 214.773 4.89137 -2.91091 0
M  V30 2246 N 215.975 5.68248 -1.18635 0
M  V30 2247 H 218.74 1.79695 -2.39854 0
M  V30 2248 H 216.301 0.850338 -1.37771 0
M  V30 2249 H 218.293 3.91734 -1.01621 0
M  V30 2250 H 216.863 3.10884 -0.32706 0
M  V30 2251 H 216.083 2.78346 -2.79137 0
M  V30 2252 H 217.371 3.90845 -3.25757 0
M  V30 2253 H 216.769 5.62712 -0.580615 0
M  V30 2254 H 215.326 6.43285 -1.05013 0
M  V30 2255 N 218.759 1.29093 0.90403 0
M  V30 2256 C 219.707 1.13727 2.02901 0
M  V30 2257 C 220.701 0.0539853 1.69314 0
M  V30 2258 O 221.907 0.213469 1.7873 0
M  V30 2259 H 218.282 0.35117 0.664969 0
M  V30 2260 H 220.253 2.08982 2.13001 0
M  V30 2261 C 219.002 0.826066 3.37745 0
M  V30 2262 H 218.325 1.65164 3.64089 0
M  V30 2263 H 219.765 0.758559 4.17159 0
M  V30 2264 C 218.224 -0.470541 3.33598 0
M  V30 2265 O 218.754 -1.49792 3.72727 0
M  V30 2266 N 216.96 -0.474812 2.86695 0
M  V30 2267 H 216.507 0.361692 2.55048 0
M  V30 2268 H 216.465 -1.34236 2.84303 0
M  V30 2269 N 220.237 -1.11381 1.11499 0
M  V30 2270 C 221.648 -1.6465 0.880191 0
M  V30 2271 C 221.999 -1.87199 -0.587434 0
M  V30 2272 O 221.124 -1.60667 -1.44966 0
M  V30 2273 C 221.719 -2.99105 1.59128 0
M  V30 2274 C 220.278 -3.49279 1.40289 0
M  V30 2275 C 219.425 -2.24077 1.63354 0
M  V30 2276 H 222.376 -0.950123 1.27116 0
M  V30 2277 H 222.397 -3.66107 1.03664 0
M  V30 2278 H 221.909 -2.82661 2.65941 0
M  V30 2279 H 220.01 -3.70887 0.356888 0
M  V30 2280 H 220.123 -4.2803 2.15238 0
M  V30 2281 H 218.487 -2.31733 1.05698 0
M  V30 2282 H 219.27 -2.10175 2.71443 0
M  V30 2283 N 221.715 -0.905404 -1.28997 0
M  V30 2284 C 223.131 -0.60233 -1.47798 0
M  V30 2285 C 223.331 0.854645 -1.82478 0
M  V30 2286 O 222.387 1.63439 -1.92468 0
M  V30 2287 C 223.7 -1.53306 -2.58685 0
M  V30 2288 C 225.248 -1.53887 -2.72558 0
M  V30 2289 C 225.723 -2.45602 -3.86579 0
M  V30 2290 N 227.214 -2.43681 -3.93921 0
M  V30 2291 C 227.949 -3.11347 -4.81509 0
M  V30 2292 N 227.445 -3.88313 -5.73746 0
M  V30 2293 N 229.238 -3.00476 -4.75048 0
M  V30 2294 H 221.389 -1.84765 -1.04764 0
M  V30 2295 H 223.652 -0.792025 -0.520961 0
M  V30 2296 H 223.358 -2.57141 -2.39941 0
M  V30 2297 H 223.232 -1.25787 -3.55609 0
M  V30 2298 H 225.619 -0.507941 -2.90696 0
M  V30 2299 H 225.7 -1.85447 -1.76191 0
M  V30 2300 H 225.344 -3.48792 -3.69197 0
M  V30 2301 H 225.274 -2.11349 -4.82327 0
M  V30 2302 H 227.765 -1.87767 -3.27951 0
M  V30 2303 H 228.078 -4.36985 -6.37389 0
M  V30 2304 H 226.423 -3.92419 -5.73614 0
M  V30 2305 H 229.614 -2.39858 -4.01977 0
M  V30 2306 H 229.787 -3.53485 -5.43095 0
M  V30 2307 N 223.193 1.4272 -0.668489 0
M  V30 2308 C 224.421 2.05966 -0.196348 0
M  V30 2309 C 224.836 1.50191 1.14403 0
M  V30 2310 O 224.193 0.639208 1.7094 0
M  V30 2311 C 224.244 3.61314 -0.115815 0
M  V30 2312 O 223.965 4.1502 -1.40322 0
M  V30 2313 C 225.466 4.41663 0.380579 0
M  V30 2314 H 222.686 0.663954 -0.0969829 0
M  V30 2315 H 225.23 1.82966 -0.913446 0
M  V30 2316 H 223.385 3.83448 0.551931 0
M  V30 2317 H 223.799 5.08832 -1.27243 0
M  V30 2318 H 225.273 5.5065 0.385848 0
M  V30 2319 H 225.75 4.15792 1.41471 0
M  V30 2320 H 226.356 4.24534 -0.255209 0
M  V30 2321 N 224.671 0.411399 1.52136 0
M  V30 2322 C 225.917 -0.163888 2.02137 0
M  V30 2323 C 226.25 -1.44597 1.29636 0
M  V30 2324 O 225.525 -1.90272 0.403353 0
M  V30 2325 C 225.808 -0.40927 3.57767 0
M  V30 2326 C 225.661 0.889643 4.40914 0
M  V30 2327 C 226.98 -1.19042 4.23694 0
M  V30 2328 H 224.099 -0.0580896 0.734707 0
M  V30 2329 H 226.741 0.54531 1.82007 0
M  V30 2330 H 224.891 -1.0134 3.7505 0
M  V30 2331 H 226.563 1.52575 4.35337 0
M  V30 2332 H 224.806 1.50011 4.07037 0
M  V30 2333 H 225.477 0.672314 5.4789 0
M  V30 2334 H 227.953 -0.678942 4.10524 0
M  V30 2335 H 226.829 -1.33086 5.32522 0
M  V30 2336 H 227.09 -2.21166 3.82803 0
M  V30 2337 N 226.149 -1.5696 0.141893 0
M  V30 2338 C 227.56 -1.82797 -0.379776 0
M  V30 2339 C 227.911 -1.06033 -1.6508 0
M  V30 2340 O 227.036 -0.304011 -2.14254 0
M  V30 2341 C 227.631 -3.31578 -0.695802 0
M  V30 2342 C 226.19 -3.58014 -1.16201 0
M  V30 2343 C 225.337 -2.76699 -0.182455 0
M  V30 2344 H 228.288 -1.54406 0.366675 0
M  V30 2345 H 228.309 -3.47454 -1.55099 0
M  V30 2346 H 227.821 -3.87421 0.229449 0
M  V30 2347 H 225.922 -3.07553 -2.10338 0
M  V30 2348 H 226.035 -4.66501 -1.09151 0
M  V30 2349 H 224.399 -2.45618 -0.674072 0
M  V30 2350 H 225.182 -3.35311 0.736297 0
M  V30 2351 N 227.627 0.131896 -1.57047 0
M  V30 2352 C 228.873 0.843179 -1.84441 0
M  V30 2353 C 229.206 1.80129 -0.725749 0
M  V30 2354 O 228.481 1.92624 0.269469 0
M  V30 2355 C 228.764 1.60442 -3.22382 0
M  V30 2356 C 228.617 0.666782 -4.4483 0
M  V30 2357 C 229.936 2.56354 -3.5773 0
M  V30 2358 H 227.055 0.305081 -0.670891 0
M  V30 2359 H 229.697 0.107839 -1.89694 0
M  V30 2360 H 227.847 2.23128 -3.18035 0
M  V30 2361 H 229.519 0.0497646 -4.61273 0
M  V30 2362 H 227.762 -0.022609 -4.33794 0
M  V30 2363 H 228.433 1.23579 -5.37989 0
M  V30 2364 H 230.909 2.0378 -3.62785 0
M  V30 2365 H 229.785 3.06657 -4.5525 0
M  V30 2366 H 230.046 3.38419 -2.84473 0
M  V30 2367 N 229.106 1.52395 0.401703 0
M  V30 2368 C 230.038 1.72505 1.50912 0
M  V30 2369 C 231.051 0.605468 1.51122 0
M  V30 2370 O 232.24 0.880828 1.55254 0
M  V30 2371 C 229.34 1.75711 2.89791 0
M  V30 2372 C 228.513 3.04824 3.1369 0
M  V30 2373 C 227.572 2.99743 4.32482 0
M  V30 2374 O 226.598 3.73635 4.29402 0
M  V30 2375 N 227.8 2.18047 5.37992 0
M  V30 2376 H 230.565 2.68049 1.34052 0
M  V30 2377 H 228.126 1.50724 0.591084 0
M  V30 2378 H 230.118 1.69834 3.6734 0
M  V30 2379 H 228.688 0.876092 3.00072 0
M  V30 2380 H 227.908 3.2429 2.24119 0
M  V30 2381 H 229.196 3.90221 3.26504 0
M  V30 2382 H 228.594 1.57456 5.43345 0
M  V30 2383 H 227.151 2.18021 6.14256 0
M  V30 2384 N 230.584 -0.659388 1.43143 0
M  V30 2385 C 231.995 -1.24041 1.39537 0
M  V30 2386 C 232.346 -1.95963 0.0963364 0
M  V30 2387 O 231.471 -2.00892 -0.804438 0
M  V30 2388 C 232.066 -2.25601 2.52764 0
M  V30 2389 C 230.625 -2.79195 2.52443 0
M  V30 2390 C 229.772 -1.53743 2.30778 0
M  V30 2391 H 232.723 -0.451792 1.52133 0
M  V30 2392 H 232.744 -3.07651 2.23899 0
M  V30 2393 H 232.256 -1.73226 3.47296 0
M  V30 2394 H 230.357 -3.35649 1.61773 0
M  V30 2395 H 230.47 -3.2716 3.50004 0
M  V30 2396 H 228.834 -1.80869 1.79328 0
M  V30 2397 H 229.617 -1.03312 3.27386 0
M  V30 2398 N 232.062 -1.29571 -0.897171 0
M  V30 2399 C 233.025 -1.14913 -1.98312 0
M  V30 2400 C 234.025 -0.0838629 -1.60581 0
M  V30 2401 O 235.215 -0.331006 -1.71026 0
M  V30 2402 C 232.347 -0.757835 -3.3237 0
M  V30 2403 H 233.54 -2.11377 -2.12743 0
M  V30 2404 H 231.093 -1.12793 -1.08201 0
M  V30 2405 H 231.828 0.206837 -3.2364 0
M  V30 2406 H 231.613 -1.52755 -3.61121 0
M  V30 2407 H 233.103 -0.678408 -4.12053 0
M  V30 2408 N 233.54 1.10788 -1.12088 0
M  V30 2409 C 234.787 1.82671 -0.873931 0
M  V30 2410 C 235.115 1.85004 0.600311 0
M  V30 2411 O 234.37 1.30365 1.45957 0
M  V30 2412 C 234.669 3.29294 -1.38926 0
M  V30 2413 C 234.335 3.47113 -2.87791 0
M  V30 2414 C 232.997 3.51684 -3.28439 0
M  V30 2415 C 235.349 3.52808 -3.83635 0
M  V30 2416 C 232.677 3.59513 -4.63646 0
M  V30 2417 C 235.029 3.62169 -5.18668 0
M  V30 2418 C 233.693 3.65003 -5.58864 0
M  V30 2419 H 232.963 0.668441 -0.319794 0
M  V30 2420 H 235.61 1.30613 -1.40045 0
M  V30 2421 H 233.915 3.83894 -0.783122 0
M  V30 2422 H 235.612 3.83416 -1.17443 0
M  V30 2423 H 232.202 3.4423 -2.5535 0
M  V30 2424 H 236.386 3.4853 -3.53328 0
M  V30 2425 H 231.642 3.59987 -4.94185 0
M  V30 2426 H 235.816 3.6552 -5.92763 0
M  V30 2427 H 233.443 3.70822 -6.63623 0
M  V30 2428 N 235.018 0.912232 1.28515 0
M  V30 2429 C 236.243 0.559774 1.99703 0
M  V30 2430 C 236.668 -0.851393 1.67729 0
M  V30 2431 O 236.026 -1.56875 0.908834 0
M  V30 2432 C 236.074 0.773874 3.52198 0
M  V30 2433 O 235.178 -0.167842 4.12058 0
M  V30 2434 H 234.519 0.21723 0.627461 0
M  V30 2435 H 237.049 1.22725 1.63706 0
M  V30 2436 H 237.059 0.683386 4.02236 0
M  V30 2437 H 235.734 1.80261 3.74805 0
M  V30 2438 H 234.311 -0.0287509 3.72889 0
M  V30 2439 N 236.496 -1.42363 0.676048 0
M  V30 2440 C 237.724 -2.05859 0.207268 0
M  V30 2441 C 238.139 -1.50796 -1.13605 0
M  V30 2442 O 237.496 -0.648265 -1.70598 0
M  V30 2443 C 237.547 -3.61248 0.134975 0
M  V30 2444 O 237.268 -4.1427 1.42521 0
M  V30 2445 C 238.769 -4.41859 -0.357151 0
M  V30 2446 H 235.989 -0.663431 0.100503 0
M  V30 2447 H 238.533 -1.82479 0.923136 0
M  V30 2448 H 236.688 -3.83735 -0.531588 0
M  V30 2449 H 237.102 -5.0815 1.29939 0
M  V30 2450 H 238.576 -5.50847 -0.356641 0
M  V30 2451 H 239.053 -4.16536 -1.39264 0
M  V30 2452 H 239.659 -4.24392 0.27772 0
M  V30 2453 N 237.974 -0.419461 -1.51915 0
M  V30 2454 C 239.22 0.153166 -2.02221 0
M  V30 2455 C 239.553 1.43907 -1.30401 0
M  V30 2456 O 238.828 1.90055 -0.413438 0
M  V30 2457 C 239.111 0.390291 -3.57979 0
M  V30 2458 C 238.964 -0.913014 -4.40436 0
M  V30 2459 C 240.283 1.16794 -4.2432 0
M  V30 2460 H 237.402 0.0541924 -0.735005 0
M  V30 2461 H 240.044 -0.554955 -1.81715 0
M  V30 2462 H 238.194 0.993491 -3.75582 0
M  V30 2463 H 239.866 -1.54882 -4.34522 0
M  V30 2464 H 238.109 -1.52168 -4.06236 0
M  V30 2465 H 238.78 -0.701361 -5.47526 0
M  V30 2466 H 241.256 0.657161 -4.10878 0
M  V30 2467 H 240.132 1.3026 -5.3322 0
M  V30 2468 H 240.393 2.19132 -3.83971 0
M  V30 2469 N 239.452 1.56882 -0.150215 0
M  V30 2470 C 240.863 1.82995 0.370076 0
M  V30 2471 C 241.214 1.06907 1.64515 0
M  V30 2472 O 240.339 0.315369 2.1409 0
M  V30 2473 C 240.934 3.31942 0.678208 0
M  V30 2474 C 239.493 3.58625 1.14301 0
M  V30 2475 C 238.64 2.76792 0.167778 0
M  V30 2476 H 241.591 1.54209 -0.374858 0
M  V30 2477 H 241.612 3.48272 1.53254 0
M  V30 2478 H 241.124 3.87294 -0.249991 0
M  V30 2479 H 239.225 3.08664 2.08704 0
M  V30 2480 H 239.338 4.67073 1.06676 0
M  V30 2481 H 237.702 2.45972 0.661037 0
M  V30 2482 H 238.485 3.34916 -0.754069 0
M  V30 2483 N 240.93 -0.123565 1.57115 0
M  V30 2484 C 242.177 -0.832153 1.84612 0
M  V30 2485 C 242.505 -1.80093 0.734627 0
M  V30 2486 O 241.76 -1.93766 -0.27442 0
M  V30 2487 C 242.059 -1.62016 3.18568 0
M  V30 2488 C 241.725 -0.796084 4.43817 0
M  V30 2489 C 240.387 -0.568816 4.77826 0
M  V30 2490 C 242.739 -0.221364 5.2073 0
M  V30 2491 C 240.067 0.243499 5.86194 0
M  V30 2492 C 242.419 0.578117 6.29953 0
M  V30 2493 C 241.083 0.815744 6.62497 0
M  V30 2494 H 240.353 -0.304507 0.675542 0
M  V30 2495 H 243 -0.0947248 1.91266 0
M  V30 2496 H 241.305 -2.42837 3.0747 0
M  V30 2497 H 243.002 -2.17231 3.37064 0
M  V30 2498 H 239.592 -0.983307 4.17168 0
M  V30 2499 H 243.776 -0.384173 4.94811 0
M  V30 2500 H 239.032 0.436871 6.09837 0
M  V30 2501 H 243.206 1.03046 6.88734 0
M  V30 2502 H 240.833 1.44701 7.46301 0
M  V30 2503 N 242.408 -1.52605 -0.393616 0
M  V30 2504 C 243.633 -1.71592 -1.16495 0
M  V30 2505 C 244.058 -0.43133 -1.83088 0
M  V30 2506 O 243.416 0.612523 -1.7064 0
M  V30 2507 C 243.464 -2.86318 -2.19213 0
M  V30 2508 O 242.568 -2.52969 -3.257 0
M  V30 2509 H 241.909 -0.570734 -0.33935 0
M  V30 2510 H 244.439 -1.99377 -0.459324 0
M  V30 2511 H 244.449 -3.1168 -2.63286 0
M  V30 2512 H 243.124 -3.79511 -1.7013 0
M  V30 2513 H 241.701 -2.38332 -2.86797 0
M  V30 2514 N 243.887 0.651787 -1.4349 0
M  V30 2515 C 244.819 1.77725 -1.44729 0
M  V30 2516 C 245.832 1.59141 -0.343231 0
M  V30 2517 O 247.021 1.67835 -0.607751 0
M  V30 2518 C 244.121 3.15172 -1.24579 0
M  V30 2519 C 243.294 3.60402 -2.47849 0
M  V30 2520 C 242.353 4.76656 -2.22902 0
M  V30 2521 O 241.379 4.86022 -2.96263 0
M  V30 2522 N 242.581 5.66958 -1.24656 0
M  V30 2523 H 245.346 1.77141 -2.41746 0
M  V30 2524 H 242.907 0.835678 -1.38665 0
M  V30 2525 H 244.899 3.90634 -1.0577 0
M  V30 2526 H 243.469 3.1052 -0.360015 0
M  V30 2527 H 242.689 2.75369 -2.82073 0
M  V30 2528 H 243.977 3.87368 -3.29884 0
M  V30 2529 H 243.375 5.62065 -0.640265 0
M  V30 2530 H 241.932 6.42135 -1.1183 0
M  V30 2531 N 245.365 1.30045 0.890287 0
M  V30 2532 C 246.776 1.16738 1.45702 0
M  V30 2533 C 247.127 -0.233939 1.948 0
M  V30 2534 O 246.252 -1.13021 1.84541 0
M  V30 2535 C 246.847 2.11313 2.64825 0
M  V30 2536 C 245.406 2.02001 3.17604 0
M  V30 2537 C 244.553 2.01699 1.90296 0
M  V30 2538 H 247.504 1.42392 0.700726 0
M  V30 2539 H 247.525 1.69086 3.40867 0
M  V30 2540 H 247.037 3.13294 2.2906 0
M  V30 2541 H 245.138 1.03142 3.5804 0
M  V30 2542 H 245.251 2.90128 3.81264 0
M  V30 2543 H 243.615 1.46427 2.08402 0
M  V30 2544 H 244.398 3.05402 1.56795 0
M  V30 2545 N 246.843 -1.10192 1.12674 0
M  V30 2546 C 248.089 -1.82475 0.884915 0
M  V30 2547 C 248.422 -1.85093 -0.58773 0
M  V30 2548 O 247.697 -1.3134 -1.43457 0
M  V30 2549 C 247.98 -3.29018 1.46353 0
M  V30 2550 C 247.833 -3.34718 3.00473 0
M  V30 2551 C 249.152 -4.25473 1.12519 0
M  V30 2552 H 246.271 -0.662492 0.322915 0
M  V30 2553 H 248.913 -1.2913 1.39375 0
M  V30 2554 H 247.063 -3.74576 1.03077 0
M  V30 2555 H 248.735 -2.97622 3.52447 0
M  V30 2556 H 246.978 -2.74541 3.35872 0
M  V30 2557 H 247.649 -4.37918 3.36053 0
M  V30 2558 H 250.125 -3.88161 1.499 0
M  V30 2559 H 249.001 -5.26365 1.55663 0
M  V30 2560 H 249.262 -4.42084 0.0377407 0
M  V30 2561 N 248.321 -0.919034 -1.28029 0
M  V30 2562 C 249.561 -0.562107 -1.96519 0
M  V30 2563 C 249.925 0.878784 -1.70708 0
M  V30 2564 O 251.126 1.34355 -2.32813 0
M  V30 2565 C 249.397 -0.868953 -3.46676 0
M  V30 2566 S 250.956 -0.619237 -4.34409 0
M  V30 2567 H 247.774 -0.2078 -0.679956 0
M  V30 2568 H 250.376 -1.18562 -1.55446 0
M  V30 2569 H 249.08 -1.91547 -3.62957 0
M  V30 2570 H 248.611 -0.234301 -3.92702 0
M  V30 2571 H 250.626 0.526995 -4.93394 0
M  V30 2572 N 249.799 1.42003 -0.683588 0
M  V30 2573 C 251.046 2.01413 -0.209514 0
M  V30 2574 C 251.374 1.54088 1.1869 0
M  V30 2575 O 250.629 0.737591 1.81268 0
M  V30 2576 C 250.928 3.56827 -0.202357 0
M  V30 2577 C 250.594 4.23617 -1.54464 0
M  V30 2578 C 249.256 4.41577 -1.91215 0
M  V30 2579 C 251.608 4.61178 -2.42826 0
M  V30 2580 C 248.936 4.9437 -3.15935 0
M  V30 2581 C 251.288 5.15355 -3.66867 0
M  V30 2582 C 249.952 5.31528 -4.03776 0
M  V30 2583 H 249.222 0.737023 -0.0766668 0
M  V30 2584 H 251.869 1.70067 -0.880312 0
M  V30 2585 H 250.174 3.87892 0.551969 0
M  V30 2586 H 251.871 4.00588 0.181793 0
M  V30 2587 H 248.461 4.10004 -1.24877 0
M  V30 2588 H 252.645 4.46968 -2.15717 0
M  V30 2589 H 247.901 5.05076 -3.44541 0
M  V30 2590 H 252.075 5.43402 -4.35531 0
M  V30 2591 H 249.702 5.72199 -5.00492 0
M  V30 2592 N 251.277 0.427512 1.51691 0
M  V30 2593 C 252.688 -0.0378867 1.86662 0
M  V30 2594 C 253.039 -1.42819 1.34525 0
M  V30 2595 O 252.164 -2.05037 0.692014 0
M  V30 2596 C 252.759 -0.0755266 3.38716 0
M  V30 2597 C 251.318 -0.485309 3.73258 0
M  V30 2598 C 250.465 0.328399 2.75349 0
M  V30 2599 H 253.416 0.64379 1.45055 0
M  V30 2600 H 253.437 -0.887056 3.70016 0
M  V30 2601 H 252.949 0.936487 3.76632 0
M  V30 2602 H 251.05 -1.50329 3.40928 0
M  V30 2603 H 251.163 -0.21693 4.78609 0
M  V30 2604 H 249.527 -0.211905 2.53817 0
M  V30 2605 H 250.31 1.3391 3.16106 0
M  V30 2606 N 252.755 -1.56801 0.158532 0
M  V30 2607 C 254.166 -1.83189 -0.360366 0
M  V30 2608 C 254.517 -1.07778 -1.63946 0
M  V30 2609 O 253.642 -0.326718 -2.13919 0
M  V30 2610 C 254.237 -3.32297 -0.660595 0
M  V30 2611 C 252.796 -3.59227 -1.12398 0
M  V30 2612 C 251.943 -2.76877 -0.153097 0
M  V30 2613 H 254.894 -1.54008 0.383031 0
M  V30 2614 H 254.915 -3.4908 -1.51405 0
M  V30 2615 H 254.427 -3.87156 0.270527 0
M  V30 2616 H 252.528 -3.09766 -2.07064 0
M  V30 2617 H 252.641 -4.67632 -1.04197 0
M  V30 2618 H 251.005 -2.46319 -0.647983 0
M  V30 2619 H 251.788 -3.34511 0.77182 0
M  V30 2620 N 254.233 0.115231 -1.57178 0
M  V30 2621 C 255.649 0.468877 -1.52557 0
M  V30 2622 C 255.849 1.81649 -0.872125 0
M  V30 2623 O 254.905 2.48347 -0.45606 0
M  V30 2624 C 256.218 0.4499 -2.97315 0
M  V30 2625 C 257.766 0.533185 -3.08425 0
M  V30 2626 C 258.241 0.54456 -4.54751 0
M  V30 2627 N 259.732 0.605892 -4.5922 0
M  V30 2628 C 260.467 0.636203 -5.6986 0
M  V30 2629 N 259.963 0.623931 -6.89985 0
M  V30 2630 N 261.756 0.679496 -5.57978 0
M  V30 2631 H 253.907 -0.767712 -1.9804 0
M  V30 2632 H 256.17 -0.283609 -0.904583 0
M  V30 2633 H 255.876 -0.472721 -3.48509 0
M  V30 2634 H 255.75 1.27632 -3.5495 0
M  V30 2635 H 258.137 1.44623 -2.57232 0
M  V30 2636 H 258.218 -0.320995 -2.53778 0
M  V30 2637 H 257.862 -0.364452 -5.06591 0
M  V30 2638 H 257.792 1.41568 -5.07214 0
M  V30 2639 H 260.283 0.621386 -3.72756 0
M  V30 2640 H 260.596 0.649787 -7.70063 0
M  V30 2641 H 258.941 0.591296 -6.9248 0
M  V30 2642 H 262.132 0.686472 -4.63039 0
M  V30 2643 H 262.305 0.69965 -6.44212 0
M  V30 2644 N 255.711 1.52812 0.385517 0
M  V30 2645 C 257.122 1.5993 0.963293 0
M  V30 2646 C 257.473 0.454302 1.90868 0
M  V30 2647 O 256.598 -0.422132 2.12243 0
M  V30 2648 C 257.193 2.89871 1.75387 0
M  V30 2649 C 255.752 2.99389 2.28129 0
M  V30 2650 C 254.899 2.55071 1.08783 0
M  V30 2651 H 257.85 1.5784 0.164948 0
M  V30 2652 H 257.871 2.76553 2.61341 0
M  V30 2653 H 257.383 3.73186 1.06554 0
M  V30 2654 H 255.484 2.20619 3.00263 0
M  V30 2655 H 255.597 4.04096 2.57377 0
M  V30 2656 H 253.961 2.09473 1.4489 0
M  V30 2657 H 254.744 3.40785 0.414807 0
M  V30 2658 N 257.189 -0.644168 1.43834 0
M  V30 2659 C 258.605 -0.960875 1.27434 0
M  V30 2660 C 258.805 -2.00499 0.200618 0
M  V30 2661 O 257.861 -2.49018 -0.417906 0
M  V30 2662 C 259.174 -1.43653 2.64167 0
M  V30 2663 C 260.722 -1.55271 2.71772 0
M  V30 2664 C 261.197 -2.06224 4.08944 0
M  V30 2665 N 262.688 -2.13513 4.11055 0
M  V30 2666 C 263.423 -2.54081 5.14033 0
M  V30 2667 N 262.919 -2.9388 6.27381 0
M  V30 2668 N 264.712 -2.54101 5.01387 0
M  V30 2669 H 256.863 0.0465779 2.12349 0
M  V30 2670 H 259.126 -0.0417638 0.94708 0
M  V30 2671 H 258.832 -0.743706 3.43747 0
M  V30 2672 H 258.706 -2.40993 2.90176 0
M  V30 2673 H 261.093 -2.23653 1.92519 0
M  V30 2674 H 261.174 -0.563395 2.49519 0
M  V30 2675 H 260.818 -1.38441 4.88668 0
M  V30 2676 H 260.748 -3.06003 4.28567 0
M  V30 2677 H 263.239 -1.85493 3.29242 0
M  V30 2678 H 263.552 -3.2361 7.01781 0
M  V30 2679 H 261.897 -2.91663 6.30839 0
M  V30 2680 H 265.088 -2.22391 4.11898 0
M  V30 2681 H 265.261 -2.85394 5.81768 0
M  V30 2682 N 258.668 -1.30515 -0.883378 0
M  V30 2683 C 259.916 -1.19194 -1.63209 0
M  V30 2684 C 260.237 0.253205 -1.93349 0
M  V30 2685 O 259.507 1.17025 -1.57105 0
M  V30 2686 H 258.087 -0.438148 -0.605009 0
M  V30 2687 H 260.749 -1.63663 -1.05832 0
M  V30 2688 H 259.845 -1.75396 -2.58153 0
M  V30 2689 N 260.146 1.09593 -1.13257 0
M  V30 2690 C 261.562 1.33775 -0.870423 0
M  V30 2691 C 261.762 1.95327 0.494926 0
M  V30 2692 O 260.818 2.19853 1.2418 0
M  V30 2693 C 262.131 2.25106 -1.99369 0
M  V30 2694 C 263.679 2.3862 -2.02558 0
M  V30 2695 C 264.154 3.33285 -3.14142 0
M  V30 2696 N 265.645 3.40857 -3.13641 0
M  V30 2697 C 266.38 4.14101 -3.96621 0
M  V30 2698 N 265.876 4.90157 -4.8961 0
M  V30 2699 N 267.669 4.09808 -3.84726 0
M  V30 2700 H 259.82 0.680136 -2.01216 0
M  V30 2701 H 262.083 0.362133 -0.876107 0
M  V30 2702 H 261.789 1.87103 -2.97801 0
M  V30 2703 H 261.663 3.25481 -1.90635 0
M  V30 2704 H 264.05 2.75887 -1.0474 0
M  V30 2705 H 264.131 1.38028 -2.15364 0
M  V30 2706 H 263.775 2.96741 -4.12198 0
M  V30 2707 H 263.705 4.33776 -2.98574 0
M  V30 2708 H 266.196 2.86624 -2.46282 0
M  V30 2709 H 266.509 5.4347 -5.49418 0
M  V30 2710 H 264.854 4.89251 -4.93617 0
M  V30 2711 H 268.045 3.4949 -3.11408 0
M  V30 2712 H 268.218 4.66629 -4.49623 0
M  V30 2713 N 261.624 0.925811 1.2754 0
M  V30 2714 C 263.04 0.625767 1.46821 0
M  V30 2715 C 263.24 -0.825506 1.83814 0
M  V30 2716 O 262.296 -1.60356 1.95044 0
M  V30 2717 C 263.609 1.57402 2.56213 0
M  V30 2718 C 265.157 1.58204 2.70075 0
M  V30 2719 C 265.632 2.51721 3.82623 0
M  V30 2720 N 267.123 2.49917 3.89994 0
M  V30 2721 C 267.858 3.18968 4.76494 0
M  V30 2722 N 267.354 3.97391 5.67496 0
M  V30 2723 N 269.147 3.07996 4.70208 0
M  V30 2724 H 261.298 1.86409 1.01811 0
M  V30 2725 H 263.561 0.800213 0.508295 0
M  V30 2726 H 263.267 2.60925 2.35819 0
M  V30 2727 H 263.141 1.31428 3.53563 0
M  V30 2728 H 265.528 0.554124 2.89851 0
M  V30 2729 H 265.609 1.88226 1.73218 0
M  V30 2730 H 265.253 3.54622 3.63601 0
M  V30 2731 H 265.183 2.18996 4.78903 0
M  V30 2732 H 267.674 1.9296 3.24923 0
M  V30 2733 H 267.987 4.4707 6.30356 0
M  V30 2734 H 266.332 4.01495 5.67298 0
M  V30 2735 H 269.523 2.46223 3.9811 0
M  V30 2736 H 269.696 3.6208 5.37403 0
M  V30 2737 N 263.102 -1.41638 0.69111 0
M  V30 2738 C 264.034 -2.29194 -0.0161523 0
M  V30 2739 C 265.047 -1.44549 -0.748955 0
M  V30 2740 O 266.236 -1.681 -0.6004 0
M  V30 2741 C 263.336 -3.22325 -1.0469 0
M  V30 2742 C 262.509 -4.35706 -0.384621 0
M  V30 2743 C 261.568 -5.09443 -1.31737 0
M  V30 2744 O 260.594 -5.63386 -0.811451 0
M  V30 2745 N 261.796 -5.16487 -2.64993 0
M  V30 2746 H 264.561 -2.90534 0.735523 0
M  V30 2747 H 262.122 -1.52742 0.53679 0
M  V30 2748 H 264.114 -3.68522 -1.67252 0
M  V30 2749 H 262.684 -2.62323 -1.70015 0
M  V30 2750 H 261.904 -3.91948 0.420804 0
M  V30 2751 H 263.192 -5.08743 0.0760765 0
M  V30 2752 H 262.59 -4.741 -3.08619 0
M  V30 2753 H 261.147 -5.66276 -3.22761 0
M  V30 2754 N 264.58 -0.43555 -1.51462 0
M  V30 2755 C 265.527 0.376797 -2.27703 0
M  V30 2756 C 266.497 1.01838 -1.31219 0
M  V30 2757 O 267.682 1.03762 -1.60119 0
M  V30 2758 C 264.822 1.47301 -3.12084 0
M  V30 2759 C 263.935 0.849744 -4.2356 0
M  V30 2760 C 263.07 1.92086 -4.95254 0
M  V30 2761 C 262.109 1.27593 -5.98654 0
M  V30 2762 N 261.246 2.28833 -6.63762 0
M  V30 2763 H 266.086 -0.279734 -2.96684 0
M  V30 2764 H 263.623 -0.149795 -1.46335 0
M  V30 2765 H 265.581 2.11984 -3.59331 0
M  V30 2766 H 264.211 2.0992 -2.45221 0
M  V30 2767 H 263.263 0.0912529 -3.80291 0
M  V30 2768 H 264.575 0.338878 -4.97648 0
M  V30 2769 H 263.729 2.64435 -5.46039 0
M  V30 2770 H 262.468 2.46545 -4.20793 0
M  V30 2771 H 261.473 0.537893 -5.47162 0
M  V30 2772 H 262.698 0.738693 -6.7507 0
M  V30 2773 H 260.644 2.82375 -5.92115 0
M  V30 2774 H 260.561 1.82632 -7.33608 0
M  V30 2775 H 261.829 3.00671 -7.19178 0
M  V30 2776 N 266.058 1.56714 -0.166846 0
M  V30 2777 C 267.469 1.83378 0.350646 0
M  V30 2778 C 267.82 1.08646 1.63372 0
M  V30 2779 O 266.945 0.338058 2.13743 0
M  V30 2780 C 267.54 3.32643 0.642963 0
M  V30 2781 C 266.099 3.59818 1.10491 0
M  V30 2782 C 265.246 2.76954 0.138411 0
M  V30 2783 H 268.197 1.53803 -0.391193 0
M  V30 2784 H 268.218 3.49878 1.49551 0
M  V30 2785 H 267.73 3.87007 -0.291055 0
M  V30 2786 H 265.831 3.1086 2.05418 0
M  V30 2787 H 265.944 4.68178 1.01716 0
M  V30 2788 H 264.308 2.4666 0.634911 0
M  V30 2789 H 265.091 3.34097 -0.789549 0
M  V30 2790 N 267.536 -0.106894 1.57237 0
M  V30 2791 C 268.947 -0.662723 1.74542 0
M  V30 2792 C 269.298 -1.7971 0.787319 0
M  V30 2793 O 268.423 -2.16368 -0.0369636 0
M  V30 2794 C 269.018 -1.20896 3.16496 0
M  V30 2795 C 267.577 -1.71096 3.35266 0
M  V30 2796 C 266.724 -0.615642 2.7038 0
M  V30 2797 H 269.675 0.119106 1.58252 0
M  V30 2798 H 269.696 -2.07847 3.18716 0
M  V30 2799 H 269.208 -0.383122 3.86204 0
M  V30 2800 H 267.309 -2.56119 2.70618 0
M  V30 2801 H 267.422 -1.81208 4.43509 0
M  V30 2802 H 265.786 -1.05222 2.31949 0
M  V30 2803 H 266.569 0.199419 3.4272 0
M  V30 2804 N 269.014 -1.53014 -0.377408 0
M  V30 2805 C 270.262 -1.6829 -1.11906 0
M  V30 2806 C 270.583 -0.431206 -1.90173 0
M  V30 2807 O 269.853 0.554595 -1.87886 0
M  V30 2808 H 268.433 -0.620371 -0.416112 0
M  V30 2809 H 271.095 -1.90167 -0.426893 0
M  V30 2810 H 270.191 -2.53862 -1.8155 0
M  V30 2811 N 270.492 0.636531 -1.44174 0
M  V30 2812 C 271.738 1.39826 -1.4689 0
M  V30 2813 C 272.071 1.93947 -0.0990585 0
M  V30 2814 O 271.346 1.73325 0.882544 0
M  V30 2815 C 271.629 2.56751 -2.5249 0
M  V30 2816 C 271.482 2.08014 -3.98811 0
M  V30 2817 C 272.801 3.58946 -2.54649 0
M  V30 2818 H 269.92 0.507075 -0.53483 0
M  V30 2819 H 272.562 0.720188 -1.75822 0
M  V30 2820 H 270.712 3.14597 -2.2795 0
M  V30 2821 H 272.384 1.5504 -4.34466 0
M  V30 2822 H 270.627 1.39242 -4.10846 0
M  V30 2823 H 271.298 2.92169 -4.68339 0
M  V30 2824 H 273.774 3.1089 -2.76563 0
M  V30 2825 H 272.65 4.38286 -3.3045 0
M  V30 2826 H 272.911 4.12655 -1.58646 0
M  V30 2827 N 271.97 1.30982 0.876444 0
M  V30 2828 C 273.216 1.21484 1.63136 0
M  V30 2829 C 273.571 -0.226339 1.91064 0
M  V30 2830 O 272.864 -1.15788 1.52656 0
M  V30 2831 C 273.058 1.98572 2.9716 0
M  V30 2832 C 272.887 3.50039 2.82317 0
M  V30 2833 C 271.657 4.19393 2.81847 0
M  V30 2834 C 273.855 4.45111 2.57644 0
M  V30 2835 N 271.837 5.57061 2.57985 0
M  V30 2836 C 273.208 5.70402 2.42986 0
M  V30 2837 C 275.263 4.3461 2.42937 0
M  V30 2838 C 273.966 6.8638 2.15115 0
M  V30 2839 C 275.992 5.50365 2.16454 0
M  V30 2840 C 275.354 6.74642 2.02578 0
M  V30 2841 H 271.453 0.499632 0.601575 0
M  V30 2842 H 274.037 1.65094 1.03209 0
M  V30 2843 H 272.208 1.5734 3.55104 0
M  V30 2844 H 273.94 1.81146 3.61895 0
M  V30 2845 H 270.695 3.71303 2.93991 0
M  V30 2846 H 271.119 6.29529 2.49043 0
M  V30 2847 H 275.761 3.39199 2.52396 0
M  V30 2848 H 273.479 7.81824 2.04394 0
M  V30 2849 H 277.065 5.44154 2.05884 0
M  V30 2850 H 275.945 7.62699 1.82374 0
M  V30 2851 N 273.449 -1.08991 1.13837 0
M  V30 2852 C 274.86 -1.62746 0.914917 0
M  V30 2853 C 275.211 -1.88403 -0.547594 0
M  V30 2854 O 274.336 -1.63706 -1.41525 0
M  V30 2855 C 274.931 -2.95662 1.65437 0
M  V30 2856 C 273.49 -3.46225 1.47666 0
M  V30 2857 C 272.637 -2.20562 1.6807 0
M  V30 2858 H 275.588 -0.922946 1.29102 0
M  V30 2859 H 275.609 -3.63825 1.11407 0
M  V30 2860 H 275.121 -2.76956 2.71877 0
M  V30 2861 H 273.222 -3.70046 0.435478 0
M  V30 2862 H 273.335 -4.23368 2.24268 0
M  V30 2863 H 271.699 -2.29439 1.10589 0
M  V30 2864 H 272.482 -2.0437 2.7584 0
M  V30 2865 N 274.927 -0.932562 -1.27047 0
M  V30 2866 C 275.89 -0.440064 -2.24936 0
M  V30 2867 C 276.89 0.444071 -1.54547 0
M  V30 2868 O 278.08 0.244465 -1.72476 0
M  V30 2869 C 275.212 0.36678 -3.38921 0
M  V30 2870 H 276.405 -1.305 -2.70018 0
M  V30 2871 H 273.958 -0.713707 -1.39054 0
M  V30 2872 H 274.693 1.25033 -2.99228 0
M  V30 2873 H 274.478 -0.267204 -3.91188 0
M  V30 2874 H 275.968 0.701567 -4.11665 0
M  V30 2875 N 276.405 1.4127 -0.698611 0
M  V30 2876 C 277.353 2.32588 -0.023855 0
M  V30 2877 C 278.347 1.51128 0.765292 0
M  V30 2878 O 279.553 1.67043 0.670571 0
M  V30 2879 H 275.928 0.751918 0.0110871 0
M  V30 2880 H 277.899 2.87167 -0.811031 0
M  V30 2881 C 276.648 3.35947 0.896369 0
M  V30 2882 H 275.971 3.98684 0.298548 0
M  V30 2883 H 277.411 4.02376 1.33676 0
M  V30 2884 C 275.87 2.70076 2.01396 0
M  V30 2885 O 276.4 2.55093 3.10307 0
M  V30 2886 N 274.606 2.28724 1.79259 0
M  V30 2887 H 274.153 2.4111 0.906841 0
M  V30 2888 H 274.111 1.84986 2.54219 0
M  V30 2889 N 277.883 0.443576 1.51229 0
M  V30 2890 C 279.294 -0.0180867 1.86691 0
M  V30 2891 C 279.645 -1.41384 1.36033 0
M  V30 2892 O 278.77 -2.04291 0.713722 0
M  V30 2893 C 279.365 -0.039597 3.38777 0
M  V30 2894 C 277.924 -0.445692 3.73752 0
M  V30 2895 C 277.071 0.357584 2.74985 0
M  V30 2896 H 280.022 0.659138 1.44364 0
M  V30 2897 H 280.043 -0.847761 3.70936 0
M  V30 2898 H 279.555 0.976382 3.75617 0
M  V30 2899 H 277.656 -1.46704 3.42503 0
M  V30 2900 H 277.769 -0.166155 4.78812 0
M  V30 2901 H 276.133 -0.184973 2.54027 0
M  V30 2902 H 276.916 1.37256 3.14668 0
M  V30 2903 N 279.361 -1.56624 0.175154 0
M  V30 2904 C 280.324 -2.16934 -0.739738 0
M  V30 2905 C 281.324 -1.11842 -1.15533 0
M  V30 2906 O 282.514 -1.37335 -1.07167 0
M  V30 2907 C 279.646 -2.75531 -2.00738 0
M  V30 2908 H 280.839 -2.99131 -0.214639 0
M  V30 2909 H 278.392 -1.56123 -0.0744197 0
M  V30 2910 H 279.127 -1.97078 -2.57548 0
M  V30 2911 H 278.912 -3.52444 -1.71831 0
M  V30 2912 H 280.402 -3.21904 -2.66021 0
M  V30 2913 N 280.839 0.0985539 -1.57292 0
M  V30 2914 C 282.25 0.653457 -1.74891 0
M  V30 2915 C 282.601 1.7929 -0.796838 0
M  V30 2916 O 281.726 2.16385 0.0254886 0
M  V30 2917 C 282.321 1.19216 -3.17133 0
M  V30 2918 C 280.88 1.69316 -3.36168 0
M  V30 2919 C 280.027 0.601294 -2.70702 0
M  V30 2920 H 282.978 -0.127497 -1.58187 0
M  V30 2921 H 282.999 2.06154 -3.19814 0
M  V30 2922 H 282.511 0.362635 -3.86402 0
M  V30 2923 H 280.612 2.5468 -2.71972 0
M  V30 2924 H 280.725 1.78853 -4.44464 0
M  V30 2925 H 279.089 1.0399 -2.32504 0
M  V30 2926 H 279.872 -0.217592 -3.4261 0
M  V30 2927 N 282.317 1.53212 0.369288 0
M  V30 2928 C 283.566 1.68436 1.10961 0
M  V30 2929 C 283.879 0.440738 1.9057 0
M  V30 2930 O 285.085 0.473446 2.6734 0
M  V30 2931 C 283.541 2.97744 2.0218 0
M  V30 2932 C 283.149 4.29355 1.279 0
M  V30 2933 C 284.893 3.22334 2.76226 0
M  V30 2934 C 282.8 5.49755 2.17999 0
M  V30 2935 H 281.73 0.627568 0.41794 0
M  V30 2936 H 284.381 1.79713 0.370884 0
M  V30 2937 H 282.763 2.8026 2.79768 0
M  V30 2938 H 283.937 4.57458 0.554007 0
M  V30 2939 H 282.252 4.11179 0.657311 0
M  V30 2940 H 284.849 4.09471 3.43857 0
M  V30 2941 H 285.192 2.38238 3.41392 0
M  V30 2942 H 285.725 3.40475 2.05723 0
M  V30 2943 H 282.464 6.36318 1.57417 0
M  V30 2944 H 281.984 5.25937 2.88359 0
M  V30 2945 H 283.663 5.84401 2.77641 0
M  V30 2946 N 283.795 -0.628877 1.44509 0
M  V30 2947 C 285.023 -1.41554 1.50897 0
M  V30 2948 C 285.438 -1.8832 0.134564 0
M  V30 2949 O 284.795 -1.60969 -0.859965 0
M  V30 2950 C 284.846 -2.63435 2.47556 0
M  V30 2951 O 284.567 -2.18619 3.79654 0
M  V30 2952 C 286.068 -3.56537 2.63431 0
M  V30 2953 H 283.288 -0.434044 0.511709 0
M  V30 2954 H 285.832 -0.768895 1.89495 0
M  V30 2955 H 283.987 -3.24187 2.12089 0
M  V30 2956 H 284.401 -2.97652 4.31861 0
M  V30 2957 H 285.875 -4.38657 3.35088 0
M  V30 2958 H 286.352 -4.05493 1.68738 0
M  V30 2959 H 286.958 -3.01653 2.9981 0
M  V30 2960 N 285.273 -1.31445 -0.869486 0
M  V30 2961 C 286.205 -1.14955 -1.98287 0
M  V30 2962 C 287.218 -0.0885037 -1.62559 0
M  V30 2963 O 288.407 -0.336044 -1.75308 0
M  V30 2964 C 285.507 -0.734255 -3.3085 0
M  V30 2965 C 284.68 -1.88042 -3.94917 0
M  V30 2966 C 283.739 -1.4511 -5.05796 0
M  V30 2967 O 282.765 -2.16082 -5.2659 0
M  V30 2968 N 283.967 -0.338763 -5.79511 0
M  V30 2969 H 286.732 -2.10856 -2.12979 0
M  V30 2970 H 284.293 -1.23786 -1.04349 0
M  V30 2971 H 286.285 -0.42975 -4.02412 0
M  V30 2972 H 284.855 0.133158 -3.12316 0
M  V30 2973 H 284.075 -2.35222 -3.1633 0
M  V30 2974 H 285.363 -2.6481 -4.34457 0
M  V30 2975 H 284.761 0.252274 -5.65137 0
M  V30 2976 H 283.318 -0.0937925 -6.51733 0
M  V30 2977 N 286.751 1.08385 -1.14413 0
M  V30 2978 C 287.979 1.84517 -0.936001 0
M  V30 2979 C 288.394 1.81626 0.515503 0
M  V30 2980 O 287.751 1.22008 1.35721 0
M  V30 2981 C 287.802 3.32049 -1.42918 0
M  V30 2982 O 287.523 3.34951 -2.82381 0
M  V30 2983 C 289.024 4.24986 -1.26103 0
M  V30 2984 H 286.244 0.582491 -0.333084 0
M  V30 2985 H 288.788 1.36885 -1.5193 0
M  V30 2986 H 286.943 3.7707 -0.888641 0
M  V30 2987 H 287.357 4.27048 -3.04517 0
M  V30 2988 H 288.831 5.26615 -1.6547 0
M  V30 2989 H 289.308 4.38726 -0.20392 0
M  V30 2990 H 289.914 3.85791 -1.79012 0
M  V30 2991 N 288.23 0.939286 1.26551 0
M  V30 2992 C 289.476 0.586715 1.94128 0
M  V30 2993 C 289.809 -0.8717 1.73537 0
M  V30 2994 O 289.084 -1.62339 1.07127 0
M  V30 2995 C 289.367 0.927497 3.4795 0
M  V30 2996 C 289.22 2.44052 3.77834 0
M  V30 2997 C 290.539 0.441569 4.37879 0
M  V30 2998 H 287.658 0.21463 0.705055 0
M  V30 2999 H 290.3 1.17316 1.49455 0
M  V30 3000 H 288.45 0.428431 3.8613 0
M  V30 3001 H 290.122 3.01216 3.4938 0
M  V30 3002 H 288.365 2.8848 3.23978 0
M  V30 3003 H 289.036 2.62947 4.85348 0
M  V30 3004 H 291.512 0.869448 4.06915 0
M  V30 3005 H 290.388 0.708856 5.44304 0
M  V30 3006 H 290.649 -0.658467 4.37169 0
M  V30 3007 N 289.708 -1.40897 0.706093 0
M  V30 3008 C 290.957 -2.00284 0.238574 0
M  V30 3009 C 291.27 -1.56604 -1.17194 0
M  V30 3010 O 292.476 -2.08624 -1.73748 0
M  V30 3011 C 290.932 -3.57934 0.375623 0
M  V30 3012 C 290.54 -4.10591 1.79217 0
M  V30 3013 C 292.284 -4.24488 -0.0315857 0
M  V30 3014 C 290.191 -5.60712 1.88032 0
M  V30 3015 H 289.121 -0.749144 0.0854398 0
M  V30 3016 H 291.772 -1.61251 0.875813 0
M  V30 3017 H 290.154 -3.94622 -0.330042 0
M  V30 3018 H 291.328 -3.85301 2.52745 0
M  V30 3019 H 289.643 -3.56601 2.15 0
M  V30 3020 H 292.24 -5.34698 0.0136842 0
M  V30 3021 H 292.583 -4.02261 -1.072 0
M  V30 3022 H 293.116 -3.92873 0.624181 0
M  V30 3023 H 289.855 -5.87781 2.90161 0
M  V30 3024 H 289.375 -5.87896 1.18903 0
M  V30 3025 H 291.054 -6.25658 1.64805 0
M  V30 3026 N 291.186 -0.45159 -1.50991 0
M  V30 3027 C 292.136 0.370861 -2.24964 0
M  V30 3028 C 293.12 0.978074 -1.2776 0
M  V30 3029 O 294.312 0.893854 -1.52772 0
M  V30 3030 C 291.441 1.46344 -3.10545 0
M  V30 3031 C 290.527 0.864924 -4.15187 0
M  V30 3032 N 290.918 -0.00311354 -5.058 0
M  V30 3033 C 289.216 1.13099 -4.31422 0
M  V30 3034 C 289.917 -0.340772 -5.80701 0
M  V30 3035 N 288.893 0.279203 -5.42883 0
M  V30 3036 H 292.695 -0.298134 -2.92384 0
M  V30 3037 H 290.209 -0.264528 -1.60231 0
M  V30 3038 H 292.206 2.06565 -3.62128 0
M  V30 3039 H 290.866 2.13463 -2.4467 0
M  V30 3040 H 291.877 -0.37058 -5.16572 0
M  V30 3041 H 288.554 1.79861 -3.76771 0
M  V30 3042 H 289.944 -1.048 -6.63677 0
M  V30 3043 N 292.664 1.56529 -0.183458 0
M  V30 3044 C 293.892 2.01623 0.464285 0
M  V30 3045 C 294.307 1.06366 1.55986 0
M  V30 3046 O 293.664 0.0665398 1.82379 0
M  V30 3047 C 293.715 3.46475 1.03139 0
M  V30 3048 O 293.436 4.38095 -0.0204675 0
M  V30 3049 C 294.937 4.0703 1.75617 0
M  V30 3050 H 292.157 0.660596 0.117704 0
M  V30 3051 H 294.701 2.02451 -0.288751 0
M  V30 3052 H 292.856 3.46383 1.73486 0
M  V30 3053 H 293.27 5.22973 0.399952 0
M  V30 3054 H 294.744 5.10271 2.10542 0
M  V30 3055 H 295.221 3.49819 2.65563 0
M  V30 3056 H 295.827 4.1086 1.09882 0
M  V30 3057 N 294.142 -0.090211 1.57342 0
M  V30 3058 C 295.388 -0.793982 1.86611 0
M  V30 3059 C 295.721 -1.78142 0.773252 0
M  V30 3060 O 294.996 -1.93271 -0.218304 0
M  V30 3061 C 295.279 -1.51839 3.26523 0
M  V30 3062 C 295.132 -0.548609 4.46442 0
M  V30 3063 C 296.451 -2.46779 3.64401 0
M  V30 3064 H 293.57 -0.287186 0.678744 0
M  V30 3065 H 296.212 -0.0575076 1.89913 0
M  V30 3066 H 294.362 -2.14617 3.23839 0
M  V30 3067 H 296.034 0.0725513 4.61243 0
M  V30 3068 H 294.277 0.137614 4.33582 0
M  V30 3069 H 294.948 -1.09271 5.41076 0
M  V30 3070 H 297.424 -1.94089 3.68061 0
M  V30 3071 H 296.3 -2.94479 4.63221 0
M  V30 3072 H 296.561 -3.30758 2.93346 0
M  V30 3073 N 295.62 -1.53406 -0.361157 0
M  V30 3074 C 296.552 -1.76446 -1.46286 0
M  V30 3075 C 297.565 -0.645322 -1.49464 0
M  V30 3076 O 298.754 -0.921681 -1.52864 0
M  V30 3077 C 295.854 -1.83332 -2.85031 0
M  V30 3078 C 295.027 -3.13033 -3.05498 0
M  V30 3079 C 294.086 -3.11104 -4.24383 0
M  V30 3080 O 293.112 -3.84888 -4.19344 0
M  V30 3081 N 294.314 -2.32234 -5.32022 0
M  V30 3082 H 297.079 -2.71508 -1.26899 0
M  V30 3083 H 294.64 -1.52238 -0.550915 0
M  V30 3084 H 296.632 -1.79514 -3.62708 0
M  V30 3085 H 295.202 -0.955342 -2.97644 0
M  V30 3086 H 294.422 -3.30119 -2.15442 0
M  V30 3087 H 295.71 -3.9874 -3.16044 0
M  V30 3088 H 295.108 -1.71807 -5.38979 0
M  V30 3089 H 293.665 -2.3423 -6.08259 0
M  V30 3090 N 297.098 0.621204 -1.44841 0
M  V30 3091 C 298.323 1.41244 -1.51871 0
M  V30 3092 C 298.748 1.87519 -0.147764 0
M  V30 3093 O 298.106 1.59334 0.865 0
M  V30 3094 C 298.154 2.60221 -2.49634 0
M  V30 3095 O 297.258 3.60395 -2.00473 0
M  V30 3096 H 296.599 0.42223 -0.512463 0
M  V30 3097 H 299.129 0.757305 -1.90069 0
M  V30 3098 H 299.139 3.0764 -2.67996 0
M  V30 3099 H 297.814 2.25887 -3.4921 0
M  V30 3100 H 296.391 3.19717 -1.91925 0
M  V30 3101 N 298.576 1.31904 0.862503 0
M  V30 3102 C 299.539 1.20131 1.95195 0
M  V30 3103 C 300.539 0.126409 1.60302 0
M  V30 3104 O 301.729 0.376234 1.70089 0
M  V30 3105 C 298.861 0.845691 3.30244 0
M  V30 3106 H 300.054 2.16943 2.07064 0
M  V30 3107 H 297.607 1.15622 1.05172 0
M  V30 3108 H 298.342 -0.120957 3.24074 0
M  V30 3109 H 298.127 1.62276 3.56944 0
M  V30 3110 H 299.617 0.787418 4.10109 0
M  V30 3111 N 300.054 -1.07777 1.14986 0
M  V30 3112 C 301.465 -1.61766 0.932127 0
M  V30 3113 C 301.816 -1.88974 -0.527581 0
M  V30 3114 O 300.941 -1.65198 -1.39781 0
M  V30 3115 C 301.536 -2.93891 1.68563 0
M  V30 3116 C 300.095 -3.44639 1.5133 0
M  V30 3117 C 299.242 -2.18767 1.704 0
M  V30 3118 H 302.193 -0.909201 1.30074 0
M  V30 3119 H 302.214 -3.62623 1.15259 0
M  V30 3120 H 301.726 -2.74057 2.74799 0
M  V30 3121 H 299.827 -3.69564 0.474702 0
M  V30 3122 H 299.94 -4.20966 2.28746 0
M  V30 3123 H 298.304 -2.28253 1.13016 0
M  V30 3124 H 299.087 -2.01433 2.77992 0
M  V30 3125 N 301.532 -0.945985 -1.26051 0
M  V30 3126 C 302.78 -0.594941 -1.93145 0
M  V30 3127 C 303.101 0.86953 -1.7454 0
M  V30 3128 O 302.371 1.61838 -1.10387 0
M  V30 3129 H 300.951 -0.217044 -0.714773 0
M  V30 3130 H 303.613 -1.20235 -1.53393 0
M  V30 3131 H 302.709 -0.816835 -3.01221 0
M  V30 3132 N 303.011 1.40521 -0.713556 0
M  V30 3133 C 303.943 2.29191 -0.0203126 0
M  V30 3134 C 304.956 1.45723 0.725864 0
M  V30 3135 O 306.145 1.69033 0.573581 0
M  V30 3136 C 303.245 3.2395 0.995486 0
M  V30 3137 C 302.418 4.36262 0.315256 0
M  V30 3138 C 301.477 5.11474 1.23616 0
M  V30 3139 O 300.503 5.64606 0.721719 0
M  V30 3140 N 301.705 5.20638 2.56743 0
M  V30 3141 H 304.47 2.89327 -0.781652 0
M  V30 3142 H 302.031 1.51869 -0.561022 0
M  V30 3143 H 304.023 3.71137 1.61368 0
M  V30 3144 H 302.593 2.64995 1.6582 0
M  V30 3145 H 301.813 3.91228 -0.483106 0
M  V30 3146 H 303.101 5.08558 -0.157004 0
M  V30 3147 H 302.499 4.7895 3.01037 0
M  V30 3148 H 301.056 5.71339 3.13712 0
M  V30 3149 N 304.489 0.459591 1.5075 0
M  V30 3150 C 305.422 -0.386257 2.24907 0
M  V30 3151 C 306.4 -1.006 1.27744 0
M  V30 3152 O 307.584 -1.04416 1.56938 0
M  V30 3153 C 304.711 -1.54021 3.01654 0
M  V30 3154 C 303.757 -1.03898 4.13651 0
M  V30 3155 S 304.59 0.0370501 5.35487 0
M  V30 3156 C 305.746 -1.12105 6.15779 0
M  V30 3157 H 305.979 0.243272 2.96303 0
M  V30 3158 H 303.512 0.244339 1.52454 0
M  V30 3159 H 305.47 -2.20163 3.46466 0
M  V30 3160 H 304.131 -2.14121 2.29806 0
M  V30 3161 H 303.324 -1.90254 4.66711 0
M  V30 3162 H 302.926 -0.45545 3.71216 0
M  V30 3163 H 305.218 -2.03501 6.46215 0
M  V30 3164 H 306.161 -0.62995 7.05292 0
M  V30 3165 H 306.569 -1.36967 5.47631 0
M  V30 3166 N 305.967 -1.56429 0.191757 0
M  V30 3167 C 307.214 -1.97485 -0.447891 0
M  V30 3168 C 307.542 -1.07852 -1.61859 0
M  V30 3169 O 306.797 -0.116903 -1.95351 0
M  V30 3170 C 307.096 -3.44449 -0.953384 0
M  V30 3171 C 306.762 -4.50781 0.103586 0
M  V30 3172 C 305.424 -4.79584 0.394023 0
M  V30 3173 C 307.776 -5.1471 0.819946 0
M  V30 3174 C 305.104 -5.69607 1.40585 0
M  V30 3175 C 307.456 -6.05827 1.8209 0
M  V30 3176 C 306.12 -6.32987 2.11857 0
M  V30 3177 H 305.39 -0.722648 -0.163895 0
M  V30 3178 H 308.037 -1.89322 0.28802 0
M  V30 3179 H 306.342 -3.49666 -1.76751 0
M  V30 3180 H 308.039 -3.73569 -1.45765 0
M  V30 3181 H 304.629 -4.28394 -0.132951 0
M  V30 3182 H 308.813 -4.92552 0.608789 0
M  V30 3183 H 304.069 -5.88926 1.64243 0
M  V30 3184 H 308.243 -6.54424 2.38123 0
M  V30 3185 H 305.87 -7.02544 2.90407 0
M  V30 3186 N 307.445 0.0818655 -1.57387 0
M  V30 3187 C 308.67 0.799946 -1.91352 0
M  V30 3188 C 309.095 1.70833 -0.787258 0
M  V30 3189 O 308.453 1.79419 0.26048 0
M  V30 3190 C 308.501 1.57812 -3.24234 0
M  V30 3191 O 307.605 2.68806 -3.12757 0
M  V30 3192 H 306.946 0.21891 -0.626877 0
M  V30 3193 H 309.476 0.0531256 -2.04531 0
M  V30 3194 H 309.486 1.95952 -3.57864 0
M  V30 3195 H 308.161 0.911548 -4.05788 0
M  V30 3196 H 306.738 2.33597 -2.90666 0
M  V30 3197 N 308.923 1.53595 0.353017 0
M  V30 3198 C 310.151 1.74311 1.1146 0
M  V30 3199 C 310.566 0.477854 1.82653 0
M  V30 3200 O 309.923 -0.549977 1.74016 0
M  V30 3201 C 309.974 2.91694 2.13534 0
M  V30 3202 O 309.695 4.13325 1.45238 0
M  V30 3203 C 311.196 3.24384 3.02142 0
M  V30 3204 H 308.416 0.582669 0.332773 0
M  V30 3205 H 310.96 2.00386 0.408107 0
M  V30 3206 H 309.115 2.67977 2.79763 0
M  V30 3207 H 309.529 4.79148 2.13349 0
M  V30 3208 H 311.003 4.09893 3.69718 0
M  V30 3209 H 311.48 2.40282 3.67643 0
M  V30 3210 H 312.086 3.50073 2.41514 0
M  V30 3211 N 310.401 -0.613514 1.45168 0
M  V30 3212 C 311.812 -1.19539 1.43413 0
M  V30 3213 C 312.163 -1.95558 0.158632 0
M  V30 3214 O 311.288 -2.0335 -0.740119 0
M  V30 3215 C 311.883 -2.17445 2.59813 0
M  V30 3216 C 310.442 -2.71022 2.61197 0
M  V30 3217 C 309.589 -1.46323 2.35552 0
M  V30 3218 H 312.54 -0.403163 1.53494 0
M  V30 3219 H 312.561 -3.00373 2.33574 0
M  V30 3220 H 312.073 -1.62089 3.52631 0
M  V30 3221 H 310.174 -3.30332 1.7237 0
M  V30 3222 H 310.287 -3.15859 3.60236 0
M  V30 3223 H 308.651 -1.75072 1.84992 0
M  V30 3224 H 309.434 -0.92844 3.30507 0
M  V30 3225 N 311.879 -1.3236 -0.855495 0
M  V30 3226 C 312.842 -1.21164 -1.94556 0
M  V30 3227 C 313.842 -0.134908 -1.60233 0
M  V30 3228 O 315.032 -0.385249 -1.69887 0
M  V30 3229 C 312.164 -0.863192 -3.29791 0
M  V30 3230 H 313.357 -2.18038 -2.05911 0
M  V30 3231 H 310.91 -1.16179 -1.04557 0
M  V30 3232 H 311.645 0.103769 -3.24134 0
M  V30 3233 H 311.43 -1.64166 -3.56078 0
M  V30 3234 H 312.92 -0.809156 -4.09686 0
M  V30 3235 N 313.357 1.07166 -1.15556 0
M  V30 3236 C 314.606 1.79181 -0.926132 0
M  V30 3237 C 314.919 1.87768 0.547967 0
M  V30 3238 O 316.125 2.56323 0.895036 0
M  V30 3239 C 314.581 3.22 -1.60761 0
M  V30 3240 C 314.189 3.21607 -3.11886 0
M  V30 3241 C 315.933 3.9861 -1.4598 0
M  V30 3242 C 313.84 4.59092 -3.72812 0
M  V30 3243 H 312.77 0.67154 -0.342856 0
M  V30 3244 H 315.421 1.2027 -1.3859 0
M  V30 3245 H 313.803 3.81115 -1.07553 0
M  V30 3246 H 314.977 2.72127 -3.71865 0
M  V30 3247 H 313.292 2.58495 -3.2645 0
M  V30 3248 H 315.889 5.00225 -1.88888 0
M  V30 3249 H 316.232 4.143 -0.407541 0
M  V30 3250 H 316.765 3.45996 -1.96295 0
M  V30 3251 H 313.504 4.48606 -4.77946 0
M  V30 3252 H 313.024 5.08803 -3.17616 0
M  V30 3253 H 314.703 5.28059 -3.73848 0
M  V30 3254 N 314.835 0.952656 1.25548 0
M  V30 3255 C 316.246 0.647392 1.75116 0
M  V30 3256 C 316.597 -0.837274 1.77438 0
M  V30 3257 O 315.722 -1.65525 1.39393 0
M  V30 3258 C 316.317 1.16845 3.18014 0
M  V30 3259 C 314.876 0.913382 3.6515 0
M  V30 3260 C 314.023 1.31265 2.44264 0
M  V30 3261 H 316.974 1.12968 1.11462 0
M  V30 3262 H 316.995 0.527606 3.76824 0
M  V30 3263 H 316.507 2.24902 3.16292 0
M  V30 3264 H 314.608 -0.152316 3.72289 0
M  V30 3265 H 314.721 1.54845 4.53387 0
M  V30 3266 H 313.085 0.731028 2.43984 0
M  V30 3267 H 313.868 2.40239 2.45234 0
M  V30 3268 N 316.313 -1.40141 0.720998 0
M  V30 3269 C 317.724 -1.83678 0.334553 0
M  V30 3270 C 318.075 -1.6027 -1.13173 0
M  V30 3271 O 317.2 -1.08643 -1.87152 0
M  V30 3272 C 317.795 -3.33437 0.600437 0
M  V30 3273 C 316.354 -3.75447 0.267642 0
M  V30 3274 C 315.501 -2.63296 0.870097 0
M  V30 3275 H 318.452 -1.29331 0.919732 0
M  V30 3276 H 318.473 -3.80269 -0.132517 0
M  V30 3277 H 317.985 -3.50442 1.66768 0
M  V30 3278 H 316.086 -3.64035 -0.794329 0
M  V30 3279 H 316.199 -4.73344 0.74042 0
M  V30 3280 H 314.563 -2.52954 0.297739 0
M  V30 3281 H 315.346 -2.83112 1.94172 0
M  V30 3282 N 317.792 -0.46758 -1.50504 0
M  V30 3283 C 318.725 0.374324 -2.25109 0
M  V30 3284 C 319.703 0.99921 -1.28275 0
M  V30 3285 O 320.887 1.03583 -1.57489 0
M  V30 3286 C 318.014 1.52419 -3.02467 0
M  V30 3287 C 317.06 1.01702 -4.14197 0
M  V30 3288 S 317.893 -0.0654477 -5.3546 0
M  V30 3289 C 319.049 1.08837 -6.16365 0
M  V30 3290 H 319.282 -0.258983 -2.9617 0
M  V30 3291 H 316.815 -0.252421 -1.52323 0
M  V30 3292 H 318.773 2.18322 -3.47628 0
M  V30 3293 H 317.434 2.129 -2.30938 0
M  V30 3294 H 316.627 1.87776 -4.67714 0
M  V30 3295 H 316.229 0.435757 -3.71453 0
M  V30 3296 H 318.521 2.00071 -6.47285 0
M  V30 3297 H 319.464 0.592538 -7.05616 0
M  V30 3298 H 319.872 1.34061 -5.4835 0
M  V30 3299 N 319.27 1.56325 -0.20005 0
M  V30 3300 C 320.203 2.15234 0.758267 0
M  V30 3301 C 321.181 1.09046 1.20614 0
M  V30 3302 O 322.365 1.37186 1.29276 0
M  V30 3303 C 319.492 2.71524 2.02466 0
M  V30 3304 C 318.538 3.90345 1.71852 0
M  V30 3305 S 319.371 5.28513 0.862249 0
M  V30 3306 C 320.527 5.88227 2.13868 0
M  V30 3307 H 320.76 2.96183 0.2575 0
M  V30 3308 H 318.293 1.54393 0.0150099 0
M  V30 3309 H 320.251 3.04598 2.75191 0
M  V30 3310 H 318.912 1.90607 2.49655 0
M  V30 3311 H 318.105 4.28158 2.65888 0
M  V30 3312 H 317.707 3.58306 1.07205 0
M  V30 3313 H 319.999 6.02891 3.09076 0
M  V30 3314 H 320.942 6.84714 1.80479 0
M  V30 3315 H 321.35 5.16874 2.2694 0
M  V30 3316 N 320.748 -0.0735177 1.57428 0
M  V30 3317 C 321.978 -0.78483 1.91112 0
M  V30 3318 C 322.386 -1.71729 0.7941 0
M  V30 3319 O 321.729 -1.82105 -0.241542 0
M  V30 3320 C 321.791 -1.63346 3.20247 0
M  V30 3321 C 321.455 -0.870557 4.48632 0
M  V30 3322 C 322.452 -0.19058 5.19551 0
M  V30 3323 C 320.137 -0.838242 4.95256 0
M  V30 3324 C 322.131 0.511503 6.35344 0
M  V30 3325 C 319.818 -0.132386 6.10957 0
M  V30 3326 C 320.816 0.541288 6.80852 0
M  V30 3327 O 320.504 1.23578 7.94345 0
M  V30 3328 H 320.236 -0.228408 0.636244 0
M  V30 3329 H 322.79 -0.0486039 2.05342 0
M  V30 3330 H 321.02 -2.41245 3.02222 0
M  V30 3331 H 322.709 -2.22329 3.39595 0
M  V30 3332 H 323.475 -0.206864 4.84559 0
M  V30 3333 H 319.354 -1.35206 4.40727 0
M  V30 3334 H 322.898 1.03789 6.89836 0
M  V30 3335 H 318.795 -0.114023 6.45399 0
M  V30 3336 H 319.563 1.14487 8.10454 0
M  V30 3337 N 322.226 -1.5378 -0.344866 0
M  V30 3338 C 323.637 -1.62428 -0.920552 0
M  V30 3339 C 323.988 -0.504747 -1.89596 0
M  V30 3340 O 323.113 0.365711 -2.13287 0
M  V30 3341 C 323.708 -2.94419 -1.67639 0
M  V30 3342 C 322.267 -3.05333 -2.20111 0
M  V30 3343 C 321.414 -2.57866 -1.01982 0
M  V30 3344 H 324.365 -1.58222 -0.123042 0
M  V30 3345 H 324.386 -2.83384 -2.53917 0
M  V30 3346 H 323.898 -3.7588 -0.966224 0
M  V30 3347 H 321.999 -2.28502 -2.94308 0
M  V30 3348 H 322.112 -4.10778 -2.46573 0
M  V30 3349 H 320.476 -2.13241 -1.39285 0
M  V30 3350 H 321.259 -3.41765 -0.324308 0
M  V30 3351 N 323.704 0.605807 -1.45491 0
M  V30 3352 C 324.654 1.71074 -1.50724 0
M  V30 3353 C 325.638 1.5658 -0.37033 0
M  V30 3354 O 326.83 1.65887 -0.617299 0
M  V30 3355 C 323.959 3.0983 -1.47852 0
M  V30 3356 C 323.045 3.29704 -2.66751 0
M  V30 3357 N 323.436 3.19831 -3.91844 0
M  V30 3358 C 321.734 3.60579 -2.62486 0
M  V30 3359 C 322.435 3.41083 -4.71208 0
M  V30 3360 N 321.411 3.65157 -4.02693 0
M  V30 3361 H 325.213 1.61937 -2.45263 0
M  V30 3362 H 322.727 0.80912 -1.40808 0
M  V30 3363 H 324.724 3.89101 -1.49686 0
M  V30 3364 H 323.384 3.20115 -0.543714 0
M  V30 3365 H 324.395 2.98194 -4.23439 0
M  V30 3366 H 321.072 3.7769 -1.77922 0
M  V30 3367 H 322.462 3.38828 -5.80211 0
M  V30 3368 N 325.182 1.32811 0.848464 0
M  V30 3369 C 326.593 1.21315 1.41914 0
M  V30 3370 C 326.944 -0.171847 1.95446 0
M  V30 3371 O 326.069 -1.07093 1.88043 0
M  V30 3372 C 326.664 2.19631 2.57968 0
M  V30 3373 C 325.223 2.12003 3.11017 0
M  V30 3374 C 324.37 2.07651 1.83783 0
M  V30 3375 H 327.321 1.44549 0.655071 0
M  V30 3376 H 327.342 1.79845 3.35315 0
M  V30 3377 H 326.854 3.20423 2.18976 0
M  V30 3378 H 324.955 1.14481 3.54577 0
M  V30 3379 H 325.068 3.02111 3.71841 0
M  V30 3380 H 323.432 1.52983 2.03638 0
M  V30 3381 H 324.215 3.10235 1.47 0
M  V30 3382 N 326.66 -1.06551 1.16123 0
M  V30 3383 C 327.623 -2.12132 0.867906 0
M  V30 3384 C 328.623 -1.60224 -0.135944 0
M  V30 3385 O 329.813 -1.73943 0.0946422 0
M  V30 3386 C 326.945 -3.396 0.297419 0
M  V30 3387 H 328.138 -2.39586 1.80385 0
M  V30 3388 H 325.691 -1.22574 0.969812 0
M  V30 3389 H 326.426 -3.17794 -0.64633 0
M  V30 3390 H 326.211 -3.78581 1.02073 0
M  V30 3391 H 327.701 -4.17455 0.110052 0
M  V30 3392 N 328.138 -0.959301 -1.25041 0
M  V30 3393 C 329.368 -0.63303 -1.96663 0
M  V30 3394 C 329.776 0.800031 -1.71453 0
M  V30 3395 O 329.119 1.54736 -0.99008 0
M  V30 3396 C 329.181 -0.817523 -3.50081 0
M  V30 3397 C 328.845 -2.22863 -3.98975 0
M  V30 3398 C 329.842 -3.20569 -4.09306 0
M  V30 3399 C 327.527 -2.55407 -4.32519 0
M  V30 3400 C 329.521 -4.4891 -4.52503 0
M  V30 3401 C 327.208 -3.83976 -4.754 0
M  V30 3402 C 328.206 -4.8054 -4.85356 0
M  V30 3403 O 327.894 -6.06817 -5.27284 0
M  V30 3404 H 327.626 -0.235866 -0.633516 0
M  V30 3405 H 330.18 -1.2874 -1.60047 0
M  V30 3406 H 328.41 -0.105992 -3.86555 0
M  V30 3407 H 330.099 -0.491604 -4.02912 0
M  V30 3408 H 330.865 -2.96753 -3.83618 0
M  V30 3409 H 326.744 -1.8097 -4.23994 0
M  V30 3410 H 330.288 -5.24283 -4.60188 0
M  V30 3411 H 326.185 -4.07596 -5.00535 0
M  V30 3412 H 326.953 -6.10262 -5.45457 0
M  V30 3413 N 329.616 1.39756 -0.72842 0
M  V30 3414 C 331.027 1.83498 -0.344289 0
M  V30 3415 C 331.378 1.60868 1.12321 0
M  V30 3416 O 330.503 1.09634 1.86573 0
M  V30 3417 C 331.098 3.33114 -0.618112 0
M  V30 3418 C 329.657 3.753 -0.287549 0
M  V30 3419 C 328.804 2.62831 -0.884048 0
M  V30 3420 H 331.755 1.28842 -0.926578 0
M  V30 3421 H 331.776 3.80334 0.112349 0
M  V30 3422 H 331.288 3.49553 -1.68625 0
M  V30 3423 H 329.389 3.64451 0.775012 0
M  V30 3424 H 329.502 4.72945 -0.765512 0
M  V30 3425 H 327.866 2.52792 -0.311149 0
M  V30 3426 H 328.649 2.82078 -1.95671 0
M  V30 3427 N 331.094 0.475555 1.50254 0
M  V30 3428 C 332.027 -0.362381 2.25304 0
M  V30 3429 C 333.005 -0.992393 1.28803 0
M  V30 3430 O 334.189 -1.02746 1.58036 0
M  V30 3431 C 331.316 -1.50813 3.03271 0
M  V30 3432 C 330.362 -0.995044 4.1473 0
M  V30 3433 S 331.195 0.0938436 5.35418 0
M  V30 3434 C 332.351 -1.05567 6.16933 0
M  V30 3435 H 332.584 0.274686 2.96028 0
M  V30 3436 H 330.117 0.260495 1.52187 0
M  V30 3437 H 332.075 -2.16476 3.48781 0
M  V30 3438 H 330.736 -2.11672 2.32064 0
M  V30 3439 H 329.929 -1.85293 4.68703 0
M  V30 3440 H 329.531 -0.416052 3.71679 0
M  V30 3441 H 331.823 -1.96636 6.48337 0
M  V30 3442 H 332.766 -0.555109 7.05921 0
M  V30 3443 H 333.174 -1.31151 5.49053 0
M  V30 3444 N 332.573 -1.56217 0.208337 0
M  V30 3445 C 333.984 -1.84243 -0.301904 0
M  V30 3446 C 334.335 -1.12939 -1.60434 0
M  V30 3447 O 333.46 -0.39461 -2.12772 0
M  V30 3448 C 334.055 -3.34231 -0.554543 0
M  V30 3449 C 332.614 -3.62621 -1.00912 0
M  V30 3450 C 331.761 -2.77224 -0.064933 0
M  V30 3451 H 334.712 -1.52712 0.431833 0
M  V30 3452 H 334.733 -3.5372 -1.40223 0
M  V30 3453 H 334.245 -3.86099 0.393561 0
M  V30 3454 H 332.346 -3.16197 -1.97104 0
M  V30 3455 H 332.459 -4.7071 -0.892674 0
M  V30 3456 H 330.823 -2.48256 -0.56929 0
M  V30 3457 H 331.606 -3.31887 0.877851 0
M  V30 3458 N 334.051 0.0651679 -1.57465 0
M  V30 3459 C 335.298 0.763063 -1.87573 0
M  V30 3460 C 335.626 1.77242 -0.800961 0
M  V30 3461 O 334.881 1.94651 0.202316 0
M  V30 3462 C 335.18 1.50081 -3.24362 0
M  V30 3463 C 334.846 0.630816 -4.46466 0
M  V30 3464 C 333.508 0.391082 -4.79608 0
M  V30 3465 C 335.86 0.0279465 -5.21193 0
M  V30 3466 C 333.188 -0.460894 -5.84887 0
M  V30 3467 C 335.54 -0.811522 -6.27373 0
M  V30 3468 C 334.204 -1.06106 -6.59013 0
M  V30 3469 H 333.474 0.279224 -0.686378 0
M  V30 3470 H 336.121 0.0236726 -1.91485 0
M  V30 3471 H 334.426 2.31258 -3.16271 0
M  V30 3472 H 336.123 2.04571 -3.44894 0
M  V30 3473 H 332.713 0.8278 -4.2053 0
M  V30 3474 H 336.897 0.200262 -4.95896 0
M  V30 3475 H 332.153 -0.662907 -6.07796 0
M  V30 3476 H 336.327 -1.28537 -6.84435 0
M  V30 3477 H 333.954 -1.723 -7.40417 0
M  V30 3478 N 335.529 1.53961 0.336706 0
M  V30 3479 C 336.778 1.70751 1.07363 0
M  V30 3480 C 337.091 0.481061 1.89592 0
M  V30 3481 O 338.297 0.530046 2.66276 0
M  V30 3482 C 336.753 3.01965 1.95818 0
M  V30 3483 C 336.361 4.31971 1.18764 0
M  V30 3484 C 338.105 3.28121 2.69327 0
M  V30 3485 C 336.012 5.54255 2.06289 0
M  V30 3486 H 334.942 0.636292 0.404535 0
M  V30 3487 H 337.593 1.80459 0.332681 0
M  V30 3488 H 335.975 2.86132 2.7376 0
M  V30 3489 H 337.149 4.5853 0.456849 0
M  V30 3490 H 335.464 4.12481 0.569946 0
M  V30 3491 H 338.061 4.16673 3.35094 0
M  V30 3492 H 338.404 2.45426 3.36261 0
M  V30 3493 H 338.937 3.44762 1.98454 0
M  V30 3494 H 335.676 6.39513 1.43885 0
M  V30 3495 H 335.196 5.31935 2.77138 0
M  V30 3496 H 336.875 5.90159 2.65182 0
M  V30 3497 N 337.007 -0.598083 1.45811 0
M  V30 3498 C 338.235 -1.38322 1.53866 0
M  V30 3499 C 338.65 -1.87992 0.174479 0
M  V30 3500 O 338.007 -1.62756 -0.825627 0
M  V30 3501 C 338.058 -2.58125 2.53089 0
M  V30 3502 O 337.779 -2.10516 3.84206 0
M  V30 3503 C 339.28 -3.50869 2.70935 0
M  V30 3504 H 336.5 -0.423093 0.520801 0
M  V30 3505 H 339.044 -0.728527 1.91083 0
M  V30 3506 H 337.199 -3.19615 2.18917 0
M  V30 3507 H 337.613 -2.88425 4.38077 0
M  V30 3508 H 339.087 -4.31451 3.44317 0
M  V30 3509 H 339.564 -4.01822 1.77301 0
M  V30 3510 H 340.17 -2.95225 3.06141 0
M  V30 3511 N 338.485 -1.33259 -0.841409 0
M  V30 3512 C 339.713 -1.27605 -1.62864 0
M  V30 3513 C 340.128 0.153507 -1.88175 0
M  V30 3514 O 339.485 1.09485 -1.46011 0
M  V30 3515 C 339.536 -2.04596 -2.98031 0
M  V30 3516 O 339.257 -3.41975 -2.73834 0
M  V30 3517 C 340.758 -2.06122 -3.92465 0
M  V30 3518 H 337.978 -0.439718 -0.506842 0
M  V30 3519 H 340.522 -1.75591 -1.04824 0
M  V30 3520 H 338.677 -1.60299 -3.5268 0
M  V30 3521 H 339.091 -3.81549 -3.59889 0
M  V30 3522 H 340.565 -2.64451 -4.84531 0
M  V30 3523 H 341.042 -1.05083 -4.26444 0
M  V30 3524 H 341.648 -2.50427 -3.43753 0
M  V30 3525 N 339.963 1.05934 -1.16686 0
M  V30 3526 C 341.212 1.78188 -0.945085 0
M  V30 3527 C 341.525 1.88338 0.528021 0
M  V30 3528 O 342.731 2.57258 0.867799 0
M  V30 3529 C 341.187 3.20277 -1.64167 0
M  V30 3530 C 340.795 3.18281 -3.15279 0
M  V30 3531 C 342.539 3.97039 -1.502 0
M  V30 3532 C 340.446 4.55112 -3.7766 0
M  V30 3533 H 339.376 0.667866 -0.349959 0
M  V30 3534 H 342.027 1.18794 -1.39858 0
M  V30 3535 H 340.409 3.79952 -1.11589 0
M  V30 3536 H 341.583 2.68167 -3.74731 0
M  V30 3537 H 339.898 2.55018 -3.29173 0
M  V30 3538 H 342.495 4.98194 -1.94183 0
M  V30 3539 H 342.838 4.13845 -0.451461 0
M  V30 3540 H 343.371 3.43894 -1.99954 0
M  V30 3541 H 340.11 4.43512 -4.82677 0
M  V30 3542 H 339.63 5.05406 -3.22994 0
M  V30 3543 H 341.309 5.24064 -3.79428 0
M  V30 3544 N 341.441 0.965919 1.2453 0
M  V30 3545 C 342.371 0.513476 2.27784 0
M  V30 3546 C 343.352 -0.445974 1.6415 0
M  V30 3547 O 344.537 -0.342485 1.91156 0
M  V30 3548 C 341.667 -0.198839 3.4673 0
M  V30 3549 C 340.621 0.676456 4.2262 0
M  V30 3550 C 339.947 -0.167248 5.34438 0
M  V30 3551 C 341.247 1.96017 4.84123 0
M  V30 3552 H 342.941 1.3765 2.65881 0
M  V30 3553 H 340.487 0.663321 1.27813 0
M  V30 3554 H 342.44 -0.526567 4.18097 0
M  V30 3555 H 341.164 -1.0962 3.07654 0
M  V30 3556 H 339.823 0.98743 3.53052 0
M  V30 3557 H 339.471 -1.0647 4.91603 0
M  V30 3558 H 339.171 0.415181 5.86131 0
M  V30 3559 H 340.695 -0.489688 6.08633 0
M  V30 3560 H 342.109 1.69814 5.47573 0
M  V30 3561 H 340.506 2.48918 5.4604 0
M  V30 3562 H 341.576 2.65622 4.05676 0
M  V30 3563 N 342.919 -1.39368 0.735821 0
M  V30 3564 C 344.167 -2.00101 0.283562 0
M  V30 3565 C 344.488 -1.5868 -1.13338 0
M  V30 3566 O 343.758 -0.835423 -1.77193 0
M  V30 3567 H 342.338 -0.740024 0.101851 0
M  V30 3568 H 345 -1.70404 0.945962 0
M  V30 3569 H 344.096 -3.10323 0.332604 0
M  V30 3570 N 344.397 -0.483516 -1.5 0
M  V30 3571 C 345.645 0.067027 -2.01989 0
M  V30 3572 C 345.966 1.3909 -1.36671 0
M  V30 3573 O 345.236 1.88978 -0.516152 0
M  V30 3574 H 343.816 0.0277606 -0.746484 0
M  V30 3575 H 346.478 -0.636773 -1.84204 0
M  V30 3576 H 345.574 0.209484 -3.11396 0
M  V30 3577 N 345.875 1.56104 -0.216619 0
M  V30 3578 C 346.805 2.23063 0.690296 0
M  V30 3579 C 347.786 1.20072 1.20485 0
M  V30 3580 O 348.971 1.48643 1.24976 0
M  V30 3581 C 346.101 2.90672 1.90072 0
M  V30 3582 C 345.055 4.00092 1.5202 0
M  V30 3583 C 344.381 4.54972 2.80899 0
M  V30 3584 C 345.681 5.17398 0.71391 0
M  V30 3585 H 347.375 2.99109 0.132038 0
M  V30 3586 H 344.921 1.43866 0.0620664 0
M  V30 3587 H 346.874 3.36204 2.54057 0
M  V30 3588 H 345.598 2.12066 2.48386 0
M  V30 3589 H 344.257 3.55283 0.903839 0
M  V30 3590 H 343.905 3.73102 3.37348 0
M  V30 3591 H 343.605 5.28817 2.56176 0
M  V30 3592 H 345.129 5.0322 3.45836 0
M  V30 3593 H 346.543 5.59342 1.25735 0
M  V30 3594 H 344.94 5.97444 0.563951 0
M  V30 3595 H 346.01 4.84088 -0.280527 0
M  V30 3596 N 347.353 -0.0568162 1.57498 0
M  V30 3597 C 348.583 -0.764515 1.91934 0
M  V30 3598 C 348.991 -1.70877 0.81227 0
M  V30 3599 O 348.334 -1.82351 -0.222213 0
M  V30 3600 C 348.396 -1.5994 3.21962 0
M  V30 3601 C 348.06 -0.822925 4.4953 0
M  V30 3602 C 349.057 -0.135464 5.19723 0
M  V30 3603 C 346.742 -0.785666 4.96117 0
M  V30 3604 C 348.736 0.578861 6.34766 0
M  V30 3605 C 346.423 -0.0675784 6.11063 0
M  V30 3606 C 347.421 0.613471 6.80239 0
M  V30 3607 O 347.109 1.31996 7.92989 0
M  V30 3608 H 346.841 -0.221647 0.63863 0
M  V30 3609 H 349.395 -0.0268218 2.05382 0
M  V30 3610 H 347.625 -2.38026 3.04763 0
M  V30 3611 H 349.314 -2.18715 3.41934 0
M  V30 3612 H 350.08 -0.155458 4.84751 0
M  V30 3613 H 345.959 -1.30524 4.42136 0
M  V30 3614 H 349.503 1.111 6.88696 0
M  V30 3615 H 345.4 -0.0455636 6.45484 0
M  V30 3616 H 346.168 1.23077 8.09194 0
M  V30 3617 N 348.832 -1.54138 -0.328536 0
M  V30 3618 C 350.243 -1.63395 -0.903272 0
M  V30 3619 C 350.594 -0.524828 -1.8905 0
M  V30 3620 O 349.719 0.343068 -2.13663 0
M  V30 3621 C 350.314 -2.9618 -1.64507 0
M  V30 3622 C 348.873 -3.0765 -2.1686 0
M  V30 3623 C 348.02 -2.58933 -0.992416 0
M  V30 3624 H 350.971 -1.58344 -0.106253 0
M  V30 3625 H 350.992 -2.86061 -2.50897 0
M  V30 3626 H 350.504 -3.76884 -0.926302 0
M  V30 3627 H 348.605 -2.31611 -2.91868 0
M  V30 3628 H 348.718 -4.1337 -2.42202 0
M  V30 3629 H 347.082 -2.14706 -1.37016 0
M  V30 3630 H 347.865 -3.42089 -0.288041 0
M  V30 3631 N 350.31 0.590341 -1.46126 0
M  V30 3632 C 351.535 1.37991 -1.54833 0
M  V30 3633 C 351.96 1.87163 -0.187506 0
M  V30 3634 O 351.318 1.61133 0.831008 0
M  V30 3635 C 351.366 2.54867 -2.55098 0
M  V30 3636 O 350.47 3.56061 -2.08073 0
M  V30 3637 H 349.811 0.411265 -0.521303 0
M  V30 3638 H 352.341 0.716819 -1.91632 0
M  V30 3639 H 352.351 3.01886 -2.74461 0
M  V30 3640 H 351.026 2.18429 -3.53923 0
M  V30 3641 H 349.603 3.15574 -1.98664 0
M  V30 3642 N 351.788 1.33704 0.83433 0
M  V30 3643 C 352.735 1.24335 1.94447 0
M  V30 3644 C 353.705 0.120991 1.65659 0
M  V30 3645 O 354.89 0.300035 1.88426 0
M  V30 3646 C 352.03 0.993124 3.30501 0
M  V30 3647 C 351.143 2.20217 3.71657 0
M  V30 3648 C 350.278 1.88572 4.96602 0
M  V30 3649 C 349.317 3.05683 5.30306 0
M  V30 3650 N 348.454 2.73997 6.46429 0
M  V30 3651 H 353.294 2.1928 2.01792 0
M  V30 3652 H 350.831 1.09035 0.987404 0
M  V30 3653 H 352.789 0.828467 4.08892 0
M  V30 3654 H 351.419 0.0803902 3.227 0
M  V30 3655 H 350.471 2.47642 2.88752 0
M  V30 3656 H 351.783 3.07752 3.92543 0
M  V30 3657 H 350.937 1.68776 5.82752 0
M  V30 3658 H 349.676 0.982799 4.77695 0
M  V30 3659 H 348.681 3.26088 4.42659 0
M  V30 3660 H 349.906 3.96737 5.51159 0
M  V30 3661 H 347.852 1.86268 6.28999 0
M  V30 3662 H 347.769 3.55064 6.67432 0
M  V30 3663 H 349.037 2.57679 7.35678 0
M  V30 3664 N 353.266 -1.05314 1.17247 0
M  V30 3665 C 354.491 -1.82509 0.985148 0
M  V30 3666 C 354.916 -1.82343 -0.461788 0
M  V30 3667 O 354.274 -1.23151 -1.33055 0
M  V30 3668 C 354.322 -3.26566 1.52929 0
M  V30 3669 O 353.426 -4.05666 0.742225 0
M  V30 3670 H 352.767 -0.564347 0.349869 0
M  V30 3671 H 355.297 -1.32718 1.55715 0
M  V30 3672 H 355.307 -3.77369 1.55103 0
M  V30 3673 H 353.982 -3.26001 2.58256 0
M  V30 3674 H 352.559 -3.64397 0.791794 0
M  V30 3675 N 354.744 -0.972509 -1.24016 0
M  V30 3676 C 355.993 -0.632603 -1.91523 0
M  V30 3677 C 356.306 0.836641 -1.76804 0
M  V30 3678 O 357.512 1.28728 -2.39043 0
M  V30 3679 C 355.968 -1.08082 -3.43287 0
M  V30 3680 C 355.576 -2.57386 -3.66683 0
M  V30 3681 C 357.32 -0.814288 -4.16617 0
M  V30 3682 C 355.227 -2.95915 -5.12043 0
M  V30 3683 H 354.157 -0.232898 -0.717129 0
M  V30 3684 H 356.808 -1.17936 -1.40582 0
M  V30 3685 H 355.19 -0.462339 -3.93292 0
M  V30 3686 H 356.364 -3.24405 -3.27258 0
M  V30 3687 H 354.679 -2.81701 -3.06649 0
M  V30 3688 H 357.276 -1.0781 -5.23718 0
M  V30 3689 H 357.619 0.24955 -4.15551 0
M  V30 3690 H 358.152 -1.39397 -3.72577 0
M  V30 3691 H 354.891 -4.0139 -5.18234 0
M  V30 3692 H 354.411 -2.33584 -5.52448 0
M  V30 3693 H 356.09 -2.86086 -5.80314 0
M  V30 3694 N 356.222 1.38976 -0.743202 0
M  V30 3695 C 357.152 2.33171 -0.123873 0
M  V30 3696 C 358.133 1.54336 0.71516 0
M  V30 3697 O 359.318 1.82696 0.658467 0
M  V30 3698 C 356.448 3.38474 0.777978 0
M  V30 3699 C 355.402 4.27979 0.0424758 0
M  V30 3700 C 354.728 5.2405 1.06189 0
M  V30 3701 C 356.028 5.10155 -1.1198 0
M  V30 3702 H 357.722 2.85213 -0.910709 0
M  V30 3703 H 355.268 1.37133 -0.439388 0
M  V30 3704 H 357.221 4.03328 1.22084 0
M  V30 3705 H 355.945 2.84891 1.59702 0
M  V30 3706 H 354.604 3.64616 -0.380853 0
M  V30 3707 H 354.252 4.66758 1.87472 0
M  V30 3708 H 353.952 5.84785 0.574485 0
M  V30 3709 H 355.476 5.9178 1.50428 0
M  V30 3710 H 356.89 5.68307 -0.75499 0
M  V30 3711 H 355.287 5.80073 -1.53738 0
M  V30 3712 H 356.357 4.44504 -1.93764 0
M  V30 3713 N 357.7 0.491464 1.49741 0
M  V30 3714 C 358.63 -0.28154 2.31796 0
M  V30 3715 C 359.611 -0.971473 1.3963 0
M  V30 3716 O 360.796 -0.964719 1.68543 0
M  V30 3717 C 357.926 -1.35203 3.19902 0
M  V30 3718 C 356.88 -0.782529 4.20786 0
M  V30 3719 C 356.206 -1.95283 4.97764 0
M  V30 3720 C 357.506 0.21999 5.21837 0
M  V30 3721 H 359.2 0.403355 2.96671 0
M  V30 3722 H 356.746 0.195425 1.42668 0
M  V30 3723 H 358.699 -1.90045 3.76113 0
M  V30 3724 H 357.423 -2.06598 2.52953 0
M  V30 3725 H 356.082 -0.255928 3.65706 0
M  V30 3726 H 355.73 -2.65423 4.2727 0
M  V30 3727 H 355.43 -1.57789 5.66018 0
M  V30 3728 H 356.954 -2.50577 5.56816 0
M  V30 3729 H 358.368 -0.23996 5.72798 0
M  V30 3730 H 356.765 0.51026 5.97927 0
M  V30 3731 H 357.835 1.13911 4.7133 0
M  V30 3732 N 359.178 -1.55987 0.224894 0
M  V30 3733 C 360.403 -2.03232 -0.41369 0
M  V30 3734 C 360.828 -1.10359 -1.52323 0
M  V30 3735 O 360.186 -0.092395 -1.81064 0
M  V30 3736 C 360.234 -3.48682 -0.919405 0
M  V30 3737 O 359.338 -3.58947 -2.03054 0
M  V30 3738 H 358.679 -0.657428 -0.0931903 0
M  V30 3739 H 361.209 -2.01679 0.34451 0
M  V30 3740 H 361.219 -3.8907 -1.22835 0
M  V30 3741 H 359.894 -4.15761 -0.107339 0
M  V30 3742 H 358.471 -3.30448 -1.72796 0
M  V30 3743 N 360.656 0.0484629 -1.57525 0
M  V30 3744 C 361.904 0.741657 -1.88 0
M  V30 3745 C 362.225 1.76918 -0.820054 0
M  V30 3746 O 361.495 1.95335 0.148661 0
M  V30 3747 H 360.075 0.276908 -0.69378 0
M  V30 3748 H 362.737 0.019013 -1.94891 0
M  V30 3749 H 361.833 1.24336 -2.86264 0
M  V30 3750 N 362.134 1.5431 0.320358 0
M  V30 3751 C 363.362 1.76636 1.07738 0
M  V30 3752 C 363.777 0.51649 1.81598 0
M  V30 3753 O 363.134 -0.512942 1.75143 0
M  V30 3754 C 363.185 2.96158 2.07299 0
M  V30 3755 O 362.906 4.16313 1.36438 0
M  V30 3756 C 364.407 3.3072 2.95193 0
M  V30 3757 H 361.627 0.589597 0.320339 0
M  V30 3758 H 364.171 2.01207 0.36551 0
M  V30 3759 H 362.326 2.73851 2.74016 0
M  V30 3760 H 362.74 4.83565 2.03138 0
M  V30 3761 H 364.214 4.17643 3.60941 0
M  V30 3762 H 364.691 2.48026 3.62463 0
M  V30 3763 H 365.297 3.55117 2.34034 0
M  V30 3764 N 363.613 -0.582584 1.46437 0
M  V30 3765 C 364.859 -1.34278 1.51978 0
M  V30 3766 C 365.192 -1.93446 0.170973 0
M  V30 3767 O 364.467 -1.76481 -0.817608 0
M  V30 3768 C 364.75 -2.47203 2.61845 0
M  V30 3769 C 364.603 -1.93069 4.06257 0
M  V30 3770 C 365.922 -3.49247 2.67795 0
M  V30 3771 H 363.041 -0.486876 0.553282 0
M  V30 3772 H 365.683 -0.654437 1.78374 0
M  V30 3773 H 363.833 -3.0592 2.39469 0
M  V30 3774 H 365.505 -1.38808 4.3992 0
M  V30 3775 H 363.748 -1.23898 4.1573 0
M  V30 3776 H 364.419 -2.74586 4.7886 0
M  V30 3777 H 366.895 -3.00411 2.8791 0
M  V30 3778 H 365.771 -4.25719 3.46489 0
M  V30 3779 H 366.032 -4.06482 1.73852 0
M  V30 3780 N 365.091 -1.34144 -0.827227 0
M  V30 3781 C 366.021 -1.28005 -1.95287 0
M  V30 3782 C 367.002 -0.158321 -1.69362 0
M  V30 3783 O 368.187 -0.349987 -1.9102 0
M  V30 3784 C 365.317 -1.03036 -3.31664 0
M  V30 3785 C 364.271 -2.11628 -3.72019 0
M  V30 3786 C 363.597 -1.71854 -5.0633 0
M  V30 3787 C 364.897 -3.53417 -3.8457 0
M  V30 3788 H 366.591 -2.22187 -2.00682 0
M  V30 3789 H 364.137 -1.0696 -0.964135 0
M  V30 3790 H 366.09 -0.973863 -4.09993 0
M  V30 3791 H 364.814 -0.0529391 -3.26557 0
M  V30 3792 H 363.473 -2.16339 -2.95961 0
M  V30 3793 H 363.121 -0.727841 -4.97706 0
M  V30 3794 H 362.821 -2.44531 -5.34302 0
M  V30 3795 H 364.345 -1.67692 -5.87122 0
M  V30 3796 H 365.759 -3.51142 -4.5318 0
M  V30 3797 H 364.156 -4.24679 -4.2399 0
M  V30 3798 H 365.226 -3.91072 -2.86689 0
M  V30 3799 N 366.569 1.04691 -1.17803 0
M  V30 3800 C 367.98 1.59238 -0.974689 0
M  V30 3801 C 368.331 1.90306 0.477292 0
M  V30 3802 O 367.456 1.68846 1.35352 0
M  V30 3803 C 368.051 2.89318 -1.76296 0
M  V30 3804 C 366.61 3.40506 -1.60414 0
M  V30 3805 C 365.757 2.14172 -1.76141 0
M  V30 3806 H 368.708 0.874395 -1.32439 0
M  V30 3807 H 368.729 3.5944 -1.24833 0
M  V30 3808 H 368.241 2.66675 -2.81968 0
M  V30 3809 H 366.342 3.68175 -0.572519 0
M  V30 3810 H 366.455 4.14753 -2.39827 0
M  V30 3811 H 364.819 2.25176 -1.19028 0
M  V30 3812 H 365.602 1.93992 -2.83235 0
M  V30 3813 N 368.047 0.979072 1.23499 0
M  V30 3814 C 369.272 0.664845 1.96455 0
M  V30 3815 C 369.697 -0.761287 1.72006 0
M  V30 3816 O 369.055 -1.51837 0.990713 0
M  V30 3817 C 369.103 0.959479 3.47601 0
M  V30 3818 O 368.207 0.0508168 4.12369 0
M  V30 3819 H 367.548 0.250185 0.615064 0
M  V30 3820 H 370.078 1.31231 1.5697 0
M  V30 3821 H 370.088 0.895642 3.98048 0
M  V30 3822 H 368.763 1.99876 3.64723 0
M  V30 3823 H 367.34 0.16895 3.72517 0
M  V30 3824 N 369.525 -1.3858 0.750561 0
M  V30 3825 C 370.488 -2.28836 0.129152 0
M  V30 3826 C 371.488 -1.47045 -0.650714 0
M  V30 3827 O 372.678 -1.6753 -0.477428 0
M  V30 3828 C 369.81 -3.30751 -0.825622 0
M  V30 3829 H 371.003 -2.85294 0.924516 0
M  V30 3830 H 368.556 -1.47489 0.517376 0
M  V30 3831 H 369.291 -2.79378 -1.64677 0
M  V30 3832 H 369.076 -3.91177 -0.268852 0
M  V30 3833 H 370.566 -3.98249 -1.2565 0
M  V30 3834 N 371.003 -0.499398 -1.49478 0
M  V30 3835 C 371.935 0.316575 -2.27003 0
M  V30 3836 C 372.948 0.932047 -1.33479 0
M  V30 3837 O 374.137 0.815658 -1.58774 0
M  V30 3838 C 371.237 1.46055 -3.05812 0
M  V30 3839 C 370.41 0.952679 -4.26899 0
M  V30 3840 C 369.469 1.97407 -4.87767 0
M  V30 3841 O 368.495 1.54326 -5.4788 0
M  V30 3842 N 369.697 3.30436 -4.77276 0
M  V30 3843 H 372.462 -0.348168 -2.97671 0
M  V30 3844 H 370.023 -0.33185 -1.58463 0
M  V30 3845 H 372.015 2.14135 -3.43407 0
M  V30 3846 H 370.585 2.02948 -2.37762 0
M  V30 3847 H 369.805 0.0968248 -3.94081 0
M  V30 3848 H 371.093 0.59174 -5.05347 0
M  V30 3849 H 370.491 3.68126 -4.29534 0
M  V30 3850 H 369.048 3.94235 -5.19059 0
M  V30 3851 N 372.481 1.55866 -0.233164 0
M  V30 3852 C 373.897 1.59133 0.121988 0
M  V30 3853 C 374.097 1.25016 1.58029 0
M  V30 3854 O 373.153 0.990922 2.32243 0
M  V30 3855 C 374.466 2.99932 -0.214792 0
M  V30 3856 C 376.014 3.12601 -0.157971 0
M  V30 3857 C 376.489 4.55597 -0.46859 0
M  V30 3858 N 377.98 4.61305 -0.418585 0
M  V30 3859 C 378.715 5.69903 -0.63227 0
M  V30 3860 N 378.211 6.86819 -0.90835 0
M  V30 3861 N 380.004 5.59264 -0.563913 0
M  V30 3862 H 372.155 1.76315 -1.18434 0
M  V30 3863 H 374.418 0.820093 -0.475553 0
M  V30 3864 H 374.124 3.29588 -1.22739 0
M  V30 3865 H 373.998 3.74327 0.464691 0
M  V30 3866 H 376.385 2.82735 0.845283 0
M  V30 3867 H 376.466 2.40511 -0.871102 0
M  V30 3868 H 376.11 4.86182 -1.46934 0
M  V30 3869 H 376.04 5.25928 0.265865 0
M  V30 3870 H 378.531 3.77297 -0.213368 0
M  V30 3871 H 378.844 7.65507 -1.05919 0
M  V30 3872 H 377.189 6.88536 -0.945673 0
M  V30 3873 H 380.38 4.66802 -0.348372 0
M  V30 3874 H 380.553 6.43831 -0.733847 0
M  V30 3875 N 373.959 -0.0401083 1.57549 0
M  V30 3876 C 375.206 -0.733125 1.88763 0
M  V30 3877 C 375.534 -1.75946 0.829058 0
M  V30 3878 O 374.789 -1.94949 -0.171323 0
M  V30 3879 C 375.088 -1.44902 3.26708 0
M  V30 3880 C 374.754 -0.559707 4.47413 0
M  V30 3881 C 373.416 -0.314731 4.8017 0
M  V30 3882 C 375.768 0.0549743 5.21171 0
M  V30 3883 C 373.096 0.553886 5.8408 0
M  V30 3884 C 375.448 0.911229 6.26003 0
M  V30 3885 C 374.112 1.16577 6.57241 0
M  V30 3886 H 373.382 -0.268269 0.690733 0
M  V30 3887 H 376.029 0.00679408 1.91499 0
M  V30 3888 H 374.334 -2.26197 3.1991 0
M  V30 3889 H 376.031 -1.99058 3.48105 0
M  V30 3890 H 372.621 -0.760793 4.21794 0
M  V30 3891 H 376.805 -0.121344 4.96152 0
M  V30 3892 H 372.061 0.759518 6.06664 0
M  V30 3893 H 376.235 1.3941 6.82303 0
M  V30 3894 H 373.862 1.84058 7.37582 0
M  V30 3895 N 375.437 -1.54477 -0.31217 0
M  V30 3896 C 376.387 -1.81037 -1.38598 0
M  V30 3897 C 377.371 -0.666941 -1.46426 0
M  V30 3898 O 378.563 -0.927269 -1.50767 0
M  V30 3899 C 375.692 -2.05127 -2.75277 0
M  V30 3900 C 374.778 -3.25624 -2.71716 0
M  V30 3901 N 375.169 -4.46428 -2.37773 0
M  V30 3902 C 373.467 -3.27427 -3.02833 0
M  V30 3903 C 374.168 -5.28406 -2.43232 0
M  V30 3904 N 373.144 -4.6586 -2.80135 0
M  V30 3905 H 376.946 -2.7201 -1.11301 0
M  V30 3906 H 374.46 -1.53826 -0.520705 0
M  V30 3907 H 376.457 -2.22299 -3.52688 0
M  V30 3908 H 375.117 -1.15416 -3.03495 0
M  V30 3909 H 376.128 -4.73227 -2.1042 0
M  V30 3910 H 372.805 -2.47786 -3.36018 0
M  V30 3911 H 374.195 -6.34903 -2.19882 0
M  V30 3912 N 376.915 0.57481 -1.46744 0
M  V30 3913 C 378.164 1.32898 -1.51727 0
M  V30 3914 C 378.477 1.948 -0.176692 0
M  V30 3915 O 379.683 2.71299 -0.104385 0
M  V30 3916 C 378.139 2.40901 -2.67385 0
M  V30 3917 C 377.747 1.85266 -4.07898 0
M  V30 3918 C 379.491 3.17609 -2.81646 0
M  V30 3919 C 377.398 2.90945 -5.14883 0
M  V30 3920 H 376.328 0.499631 -0.564699 0
M  V30 3921 H 378.979 0.612536 -1.72975 0
M  V30 3922 H 377.361 3.15379 -2.39483 0
M  V30 3923 H 378.535 1.17278 -4.45626 0
M  V30 3924 H 376.85 1.21199 -3.98371 0
M  V30 3925 H 379.447 3.96493 -3.58744 0
M  V30 3926 H 379.79 3.70696 -1.89448 0
M  V30 3927 H 380.323 2.50239 -3.09233 0
M  V30 3928 H 377.062 2.42736 -6.089 0
M  V30 3929 H 376.582 3.57398 -4.81691 0
M  V30 3930 H 378.261 3.54755 -5.41071 0
M  V30 3931 N 378.394 1.34581 0.820102 0
M  V30 3932 C 379.342 1.26401 1.95258 0
M  V30 3933 C 380.336 0.161553 1.68628 0
M  V30 3934 O 381.542 0.326703 1.7701 0
M  V30 3935 H 377.917 0.392749 0.64129 0
M  V30 3936 H 379.888 2.22105 1.99279 0
M  V30 3937 C 378.637 1.03919 3.31807 0
M  V30 3938 H 377.96 1.87984 3.52848 0
M  V30 3939 H 379.4 1.02232 4.11491 0
M  V30 3940 C 377.859 -0.257433 3.35915 0
M  V30 3941 O 378.389 -1.25784 3.81499 0
M  V30 3942 N 376.595 -0.291524 2.89134 0
M  V30 3943 H 376.142 0.523161 2.52232 0
M  V30 3944 H 376.1 -1.15883 2.92264 0
M  V30 3945 N 379.872 -1.04064 1.18357 0
M  V30 3946 C 380.802 -2.14001 0.934113 0
M  V30 3947 C 381.783 -1.69616 -0.128186 0
M  V30 3948 O 382.968 -1.94185 0.0244093 0
M  V30 3949 C 380.098 -3.44253 0.459066 0
M  V30 3950 C 379.052 -4.02261 1.46185 0
M  V30 3951 C 378.378 -5.27992 0.844322 0
M  V30 3952 C 379.678 -4.38432 2.83856 0
M  V30 3953 H 381.372 -2.35127 1.85352 0
M  V30 3954 H 378.918 -1.12998 0.892604 0
M  V30 3955 H 380.871 -4.20522 0.271907 0
M  V30 3956 H 379.595 -3.22813 -0.495912 0
M  V30 3957 H 378.254 -3.28074 1.63595 0
M  V30 3958 H 377.902 -5.02862 -0.117845 0
M  V30 3959 H 377.602 -5.67765 1.51384 0
M  V30 3960 H 379.126 -6.06938 0.667693 0
M  V30 3961 H 380.54 -5.05688 2.70098 0
M  V30 3962 H 378.937 -4.89254 3.47491 0
M  V30 3963 H 380.007 -3.4826 3.37406 0
M  V30 3964 N 381.35 -0.985608 -1.22978 0
M  V30 3965 C 382.59 -0.665487 -1.93263 0
M  V30 3966 C 382.954 0.78706 -1.75127 0
M  V30 3967 O 384.155 1.21826 -2.39608 0
M  V30 3968 C 382.426 -1.0515 -3.41582 0
M  V30 3969 S 383.985 -0.848637 -4.30516 0
M  V30 3970 H 380.803 -0.24355 -0.667985 0
M  V30 3971 H 383.405 -1.26635 -1.48942 0
M  V30 3972 H 382.109 -2.10517 -3.52293 0
M  V30 3973 H 381.64 -0.442134 -3.90908 0
M  V30 3974 H 383.655 0.264717 -4.95493 0
M  V30 3975 N 382.828 1.3818 -0.7579 0
M  V30 3976 C 384.053 2.04827 -0.325679 0
M  V30 3977 C 384.478 1.56788 1.03919 0
M  V30 3978 O 383.836 0.721811 1.66312 0
M  V30 3979 C 383.884 3.58774 -0.362447 0
M  V30 3980 O 382.988 4.07372 0.642033 0
M  V30 3981 H 382.329 0.64833 -0.143402 0
M  V30 3982 H 384.859 1.7677 -1.03023 0
M  V30 3983 H 384.869 4.07434 -0.214844 0
M  V30 3984 H 383.544 3.93096 -1.35824 0
M  V30 3985 H 382.121 3.70068 0.458688 0
M  V30 3986 N 384.306 0.507319 1.49211 0
M  V30 3987 C 385.554 -0.0348839 2.0207 0
M  V30 3988 C 385.875 -1.36898 1.38866 0
M  V30 3989 O 385.145 -1.88133 0.546151 0
M  V30 3990 H 383.725 -0.0158812 0.746831 0
M  V30 3991 H 386.387 0.665998 1.83168 0
M  V30 3992 H 385.483 -0.159917 3.1169 0
M  V30 3993 N 385.784 -1.5574 0.241426 0
M  V30 3994 C 386.732 -2.22538 -0.676718 0
M  V30 3995 C 387.726 -1.21117 -1.18436 0
M  V30 3996 O 388.932 -1.39144 -1.14188 0
M  V30 3997 H 385.307 -0.713776 -0.236701 0
M  V30 3998 H 387.278 -2.98264 -0.0901187 0
M  V30 3999 C 386.027 -2.93439 -1.86518 0
M  V30 4000 H 385.35 -3.7125 -1.4837 0
M  V30 4001 H 386.79 -3.43549 -2.48495 0
M  V30 4002 C 385.249 -1.97008 -2.73294 0
M  V30 4003 O 385.779 -1.49965 -3.72657 0
M  V30 4004 N 383.985 -1.64227 -2.39745 0
M  V30 4005 H 383.532 -2.02677 -1.58996 0
M  V30 4006 H 383.49 -0.999708 -2.98083 0
M  V30 4007 N 387.262 0.0317525 -1.57568 0
M  V30 4008 C 388.212 1.04101 -2.02847 0
M  V30 4009 C 389.196 1.3219 -0.917317 0
M  V30 4010 O 390.388 1.31819 -1.18121 0
M  V30 4011 C 387.517 2.34295 -2.5092 0
M  V30 4012 C 386.603 2.09308 -3.68851 0
M  V30 4013 N 386.994 1.5437 -4.81667 0
M  V30 4014 C 385.292 2.39604 -3.76172 0
M  V30 4015 C 385.993 1.45126 -5.63306 0
M  V30 4016 N 384.969 1.92589 -5.08341 0
M  V30 4017 H 388.771 0.610217 -2.87495 0
M  V30 4018 H 386.285 0.238108 -1.60645 0
M  V30 4019 H 388.282 3.07404 -2.81617 0
M  V30 4020 H 386.942 2.78055 -1.67677 0
M  V30 4021 H 387.953 1.22678 -5.03161 0
M  V30 4022 H 384.63 2.86457 -3.03724 0
M  V30 4023 H 386.02 1.03163 -6.63933 0
M  V30 4024 N 388.74 1.54641 0.303973 0
M  V30 4025 C 389.989 1.7299 1.03717 0
M  V30 4026 C 390.302 0.521168 1.88529 0
M  V30 4027 O 391.508 0.586408 2.65092 0
M  V30 4028 C 389.964 3.06051 1.89369 0
M  V30 4029 C 389.572 4.34393 1.09574 0
M  V30 4030 C 391.316 3.3376 2.62306 0
M  V30 4031 C 389.223 5.58506 1.94486 0
M  V30 4032 H 388.153 0.64473 0.390947 0
M  V30 4033 H 390.804 1.81124 0.294328 0
M  V30 4034 H 389.186 2.91874 2.67629 0
M  V30 4035 H 390.36 4.59396 0.359485 0
M  V30 4036 H 388.675 4.13597 0.482324 0
M  V30 4037 H 391.272 4.23687 3.26181 0
M  V30 4038 H 391.615 2.52503 3.3098 0
M  V30 4039 H 392.148 3.48894 1.91097 0
M  V30 4040 H 388.887 6.42422 1.30287 0
M  V30 4041 H 388.407 5.37694 2.65792 0
M  V30 4042 H 390.086 5.95651 2.52605 0
M  V30 4043 N 390.218 -0.567019 1.47046 0
M  V30 4044 C 391.181 -1.65696 1.58359 0
M  V30 4045 C 392.181 -1.54097 0.459441 0
M  V30 4046 O 393.371 -1.58432 0.724225 0
M  V30 4047 C 390.503 -3.05197 1.51879 0
M  V30 4048 H 391.696 -1.57019 2.5551 0
M  V30 4049 H 389.249 -0.786148 1.3509 0
M  V30 4050 H 389.984 -3.19417 0.560673 0
M  V30 4051 H 389.769 -3.15025 2.33455 0
M  V30 4052 H 391.259 -3.84511 1.62913 0
M  V30 4053 N 391.696 -1.35014 -0.812953 0
M  V30 4054 C 392.943 -1.27931 -1.56971 0
M  V30 4055 C 393.271 0.148034 -1.93936 0
M  V30 4056 O 392.526 1.11175 -1.61054 0
M  V30 4057 C 392.825 -2.12524 -2.87347 0
M  V30 4058 C 392.491 -3.61401 -2.6963 0
M  V30 4059 C 391.153 -4.01983 -2.64506 0
M  V30 4060 C 393.505 -4.55894 -2.52607 0
M  V30 4061 C 390.833 -5.35235 -2.40293 0
M  V30 4062 C 393.185 -5.89336 -2.29925 0
M  V30 4063 C 391.849 -6.2907 -2.23219 0
M  V30 4064 H 391.119 -0.468131 -0.574399 0
M  V30 4065 H 393.766 -1.66851 -0.939836 0
M  V30 4066 H 392.071 -1.66463 -3.54679 0
M  V30 4067 H 393.768 -2.04383 -3.45005 0
M  V30 4068 H 390.358 -3.29193 -2.74463 0
M  V30 4069 H 394.542 -4.25431 -2.55583 0
M  V30 4070 H 389.798 -5.65028 -2.33566 0
M  V30 4071 H 393.972 -6.62139 -2.15743 0
M  V30 4072 H 391.599 -7.32256 -2.04219 0
M  V30 4073 N 393.175 1.03435 -1.18907 0
M  V30 4074 C 394.125 2.09924 -0.889706 0
M  V30 4075 C 395.109 1.60261 0.143216 0
M  V30 4076 O 396.301 1.76892 -0.0617122 0
M  V30 4077 C 393.43 3.40669 -0.424168 0
M  V30 4078 C 392.516 3.97082 -1.48952 0
M  V30 4079 N 392.907 4.27227 -2.70759 0
M  V30 4080 C 391.205 4.25029 -1.35152 0
M  V30 4081 C 391.906 4.7246 -3.39347 0
M  V30 4082 N 390.882 4.7366 -2.66735 0
M  V30 4083 H 394.684 2.31116 -1.81555 0
M  V30 4084 H 392.198 1.21246 -1.08042 0
M  V30 4085 H 394.195 4.16461 -0.191176 0
M  V30 4086 H 392.855 3.20901 0.495263 0
M  V30 4087 H 393.866 4.16678 -3.0757 0
M  V30 4088 H 390.543 4.14554 -0.495126 0
M  V30 4089 H 391.933 5.04751 -4.43481 0
M  V30 4090 N 394.653 0.992116 1.22453 0
M  V30 4091 C 395.583 0.561677 2.26644 0
M  V30 4092 C 396.564 -0.411055 1.65059 0
M  V30 4093 O 397.749 -0.301861 1.9184 0
M  V30 4094 C 394.879 -0.125247 3.47074 0
M  V30 4095 C 393.833 0.765948 4.21091 0
M  V30 4096 C 393.159 -0.0538484 5.34673 0
M  V30 4097 C 394.459 2.06242 4.79856 0
M  V30 4098 H 396.153 1.43259 2.62902 0
M  V30 4099 H 393.699 0.690283 1.26377 0
M  V30 4100 H 395.652 -0.437764 4.1912 0
M  V30 4101 H 394.376 -1.03069 3.0991 0
M  V30 4102 H 393.035 1.0621 3.50878 0
M  V30 4103 H 392.683 -0.960188 4.9375 0
M  V30 4104 H 392.383 0.539415 5.85119 0
M  V30 4105 H 393.907 -0.360477 6.09535 0
M  V30 4106 H 395.321 1.8139 5.43848 0
M  V30 4107 H 393.718 2.60444 5.40638 0
M  V30 4108 H 394.788 2.74167 3.99951 0
M  V30 4109 N 396.131 -1.37776 0.765217 0
M  V30 4110 C 397.079 -2.32209 0.134798 0
M  V30 4111 C 398.073 -1.54607 -0.692315 0
M  V30 4112 O 399.279 -1.70052 -0.590109 0
M  V30 4113 H 395.654 -0.751591 0.0248005 0
M  V30 4114 H 397.625 -2.8297 0.947119 0
M  V30 4115 C 396.374 -3.39841 -0.735063 0
M  V30 4116 H 395.697 -3.99654 -0.107991 0
M  V30 4117 H 397.137 -4.08296 -1.14326 0
M  V30 4118 C 395.596 -2.79378 -1.88281 0
M  V30 4119 O 396.126 -2.69608 -2.97783 0
M  V30 4120 N 394.332 -2.37016 -1.68142 0
M  V30 4121 H 393.879 -2.45162 -0.790772 0
M  V30 4122 H 393.837 -1.96905 -2.45104 0
M  V30 4123 N 397.609 -0.515225 -1.4894 0
M  V30 4124 C 399.02 -0.0710067 -1.86565 0
M  V30 4125 C 399.371 1.34733 -1.42623 0
M  V30 4126 O 398.496 2.00653 -0.810379 0
M  V30 4127 C 399.091 -0.122083 -3.3858 0
M  V30 4128 C 397.65 0.266863 -3.75453 0
M  V30 4129 C 396.797 -0.488376 -2.72966 0
M  V30 4130 H 399.748 -0.727266 -1.41055 0
M  V30 4131 H 399.769 0.669818 -3.74558 0
M  V30 4132 H 399.281 -1.15448 -3.70531 0
M  V30 4133 H 397.382 1.30196 -3.49113 0
M  V30 4134 H 397.495 -0.0624811 -4.79059 0
M  V30 4135 H 395.859 0.0635622 -2.54621 0
M  V30 4136 H 396.642 -1.52113 -3.07761 0
M  V30 4137 N 399.087 1.5561 -0.249682 0
M  V30 4138 C 400.503 1.59254 0.105103 0
M  V30 4139 C 400.703 1.26685 1.56694 0
M  V30 4140 O 399.759 1.0155 2.31179 0
M  V30 4141 C 401.072 2.99687 -0.246592 0
M  V30 4142 C 402.62 3.12416 -0.191118 0
M  V30 4143 C 403.095 4.55074 -0.516885 0
M  V30 4144 N 404.586 4.60835 -0.467489 0
M  V30 4145 C 405.321 5.69201 -0.69268 0
M  V30 4146 N 404.817 6.85817 -0.981146 0
M  V30 4147 N 406.61 5.58635 -0.623198 0
M  V30 4148 H 398.761 1.75049 -1.20298 0
M  V30 4149 H 401.024 0.815003 -0.484225 0
M  V30 4150 H 400.73 3.28267 -1.26228 0
M  V30 4151 H 400.604 3.74798 0.424962 0
M  V30 4152 H 402.991 2.83615 0.815247 0
M  V30 4153 H 403.072 2.39573 -0.896563 0
M  V30 4154 H 402.716 4.84596 -1.52082 0
M  V30 4155 H 402.646 5.26181 0.210068 0
M  V30 4156 H 405.137 3.7705 -0.253373 0
M  V30 4157 H 405.45 7.64341 -1.14032 0
M  V30 4158 H 403.795 6.87494 -1.01865 0
M  V30 4159 H 406.986 4.66406 -0.397863 0
M  V30 4160 H 407.159 6.43017 -0.802093 0
M  V30 4161 N 400.565 -0.0233959 1.57583 0
M  V30 4162 C 401.812 -0.713063 1.8953 0
M  V30 4163 C 402.14 -1.75056 0.847673 0
M  V30 4164 O 401.395 -1.95119 -0.150636 0
M  V30 4165 C 401.694 -1.41428 3.28227 0
M  V30 4166 C 401.36 -0.512222 4.47981 0
M  V30 4167 C 400.022 -0.263785 4.80476 0
M  V30 4168 C 402.374 0.110248 5.21083 0
M  V30 4169 C 399.702 0.615804 5.83459 0
M  V30 4170 C 402.054 0.977573 6.25001 0
M  V30 4171 C 400.718 1.23542 6.55968 0
M  V30 4172 H 399.988 -0.260928 0.69354 0
M  V30 4173 H 402.635 0.0271047 1.91481 0
M  V30 4174 H 400.94 -2.22791 3.22291 0
M  V30 4175 H 402.637 -1.95355 3.50196 0
M  V30 4176 H 399.227 -0.716013 4.22577 0
M  V30 4177 H 403.411 -0.0687137 4.96252 0
M  V30 4178 H 398.667 0.82382 6.05824 0
M  V30 4179 H 402.841 1.46638 6.80786 0
M  V30 4180 H 400.468 1.91871 7.35588 0
M  V30 4181 N 402.043 -1.548 -0.295768 0
M  V30 4182 C 403.32 -1.65014 -1.05023 0
M  V30 4183 C 403.7 -0.501805 -2.05049 0
M  V30 4184 O 403.048 0.500869 -2.22943 0
M  V30 4185 C 403.258 -3.03252 -1.72741 0
M  V30 4186 C 404.606 -3.60242 -2.24746 0
M  V30 4187 O 405.63 -3.05737 -1.82765 0
M  V30 4188 O 404.489 -4.55687 -3.01681 0
M  V30 4189 H 401.583 -0.669314 -0.485744 0
M  V30 4190 H 404.129 -1.67144 -0.293438 0
M  V30 4191 H 402.901 -3.7827 -1.00138 0
M  V30 4192 H 402.524 -3.04922 -2.55163 0
M  V30 4193 N 403.521 0.559213 -1.47345 0
M  V30 4194 C 404.431 1.69388 -1.62311 0
M  V30 4195 C 405.447 1.6648 -0.505993 0
M  V30 4196 O 406.623 1.85964 -0.773262 0
M  V30 4197 C 403.688 3.05894 -1.63185 0
M  V30 4198 C 402.749 3.19885 -2.86307 0
M  V30 4199 C 401.982 4.49879 -2.87131 0
M  V30 4200 O 402.205 5.35217 -1.97229 0
M  V30 4201 O 401.139 4.67618 -3.78968 0
M  V30 4202 H 404.965 1.59706 -2.58317 0
M  V30 4203 H 402.55 0.728989 -1.30407 0
M  V30 4204 H 404.432 3.87133 -1.66451 0
M  V30 4205 H 403.107 3.15964 -0.70345 0
M  V30 4206 H 402.014 2.38052 -2.88587 0
M  V30 4207 H 403.347 3.14718 -3.78435 0
M  V30 4208 N 404.999 1.35443 0.805782 0
M  V30 4209 C 405.947 1.28465 1.93906 0
M  V30 4210 C 406.941 0.17943 1.68447 0
M  V30 4211 O 408.147 0.345459 1.76654 0
M  V30 4212 H 404.522 0.399528 0.637088 0
M  V30 4213 H 406.493 2.24206 1.96912 0
M  V30 4214 C 405.242 1.07432 3.30687 0
M  V30 4215 H 404.565 1.91716 3.50835 0
M  V30 4216 H 406.005 1.06591 4.10383 0
M  V30 4217 C 404.464 -0.22179 3.36169 0
M  V30 4218 O 404.994 -1.21731 3.82811 0
M  V30 4219 N 403.2 -0.260841 2.89427 0
M  V30 4220 H 402.747 0.549884 2.51663 0
M  V30 4221 H 402.705 -1.12777 2.93477 0
M  V30 4222 N 406.477 -1.02803 1.19454 0
M  V30 4223 C 407.44 -2.09264 0.934955 0
M  V30 4224 C 408.44 -1.60576 -0.0849015 0
M  V30 4225 O 409.63 -1.73554 0.149933 0
M  V30 4226 C 406.762 -3.38482 0.40531 0
M  V30 4227 H 407.955 -2.33726 1.87916 0
M  V30 4228 H 405.508 -1.19426 1.00832 0
M  V30 4229 H 406.243 -3.19689 -0.544899 0
M  V30 4230 H 406.028 -3.75142 1.14065 0
M  V30 4231 H 407.518 -4.16894 0.242806 0
M  V30 4232 N 407.956 -0.998596 -1.21925 0
M  V30 4233 C 409.202 -0.678667 -1.91107 0
M  V30 4234 C 409.535 0.78791 -1.77498 0
M  V30 4235 O 408.81 1.57043 -1.1475 0
M  V30 4236 C 409.093 -1.09245 -3.43129 0
M  V30 4237 C 408.946 -2.61801 -3.6576 0
M  V30 4238 C 410.265 -0.649984 -4.35274 0
M  V30 4239 H 407.384 -0.248025 -0.694012 0
M  V30 4240 H 410.026 -1.24314 -1.43688 0
M  V30 4241 H 408.176 -0.612171 -3.83647 0
M  V30 4242 H 409.848 -3.17543 -3.34611 0
M  V30 4243 H 408.091 -3.03609 -3.09845 0
M  V30 4244 H 408.762 -2.85804 -4.7225 0
M  V30 4245 H 411.238 -1.0626 -4.02303 0
M  V30 4246 H 410.114 -0.967743 -5.40302 0
M  V30 4247 H 410.375 0.449139 -4.39813 0
M  V30 4248 N 409.434 1.37368 -0.772513 0
M  V30 4249 C 410.68 1.99969 -0.337681 0
M  V30 4250 C 411.013 1.61184 1.08321 0
M  V30 4251 O 410.288 0.858395 1.74533 0
M  V30 4252 C 410.571 3.56858 -0.482121 0
M  V30 4253 C 410.424 4.0555 -1.94549 0
M  V30 4254 C 411.743 4.39955 0.113143 0
M  V30 4255 H 408.862 0.726464 -0.124171 0
M  V30 4256 H 411.504 1.63034 -0.975699 0
M  V30 4257 H 409.654 3.88452 0.0610361 0
M  V30 4258 H 411.326 3.84518 -2.54841 0
M  V30 4259 H 409.569 3.57715 -2.45403 0
M  V30 4260 H 410.24 5.14587 -1.9976 0
M  V30 4261 H 412.716 4.14623 -0.35031 0
M  V30 4262 H 411.592 5.48897 -0.0180514 0
M  V30 4263 H 411.853 4.25403 1.20354 0
M  V30 4264 N 410.912 0.523116 1.48665 0
M  V30 4265 C 412.328 0.180511 1.58576 0
M  V30 4266 C 412.528 -1.31597 1.52592 0
M  V30 4267 O 411.584 -2.0937 1.4114 0
M  V30 4268 C 412.897 0.776949 2.90489 0
M  V30 4269 C 414.445 0.745058 3.04003 0
M  V30 4270 C 414.92 1.31995 4.38567 0
M  V30 4271 N 416.411 1.28162 4.45117 0
M  V30 4272 C 417.146 1.6964 5.47731 0
M  V30 4273 N 416.642 2.18816 6.57337 0
M  V30 4274 N 418.435 1.6092 5.38573 0
M  V30 4275 H 410.586 1.4958 1.50797 0
M  V30 4276 H 412.849 0.621772 0.715614 0
M  V30 4277 H 412.555 1.82732 3.00503 0
M  V30 4278 H 412.429 0.25007 3.7637 0
M  V30 4279 H 414.816 -0.296532 2.93606 0
M  V30 4280 H 414.897 1.30933 2.1975 0
M  V30 4281 H 414.541 2.36043 4.49718 0
M  V30 4282 H 414.471 0.731418 5.21496 0
M  V30 4283 H 416.962 0.92155 3.66491 0
M  V30 4284 H 417.275 2.48478 7.31764 0
M  V30 4285 H 415.62 2.22805 6.58318 0
M  V30 4286 H 418.811 1.22304 4.5184 0
M  V30 4287 H 418.984 1.93567 6.18414 0
M  V30 4288 N 412.39 -1.55475 0.257931 0
M  V30 4289 C 413.338 -2.23244 -0.653076 0
M  V30 4290 C 414.332 -1.22366 -1.17144 0
M  V30 4291 O 415.538 -1.40347 -1.12706 0
M  V30 4292 H 411.913 -0.716247 -0.229117 0
M  V30 4293 H 413.884 -2.98343 -0.0584788 0
M  V30 4294 C 412.633 -2.95401 -1.83395 0
M  V30 4295 H 411.956 -3.72802 -1.44424 0
M  V30 4296 H 413.396 -3.46165 -2.44838 0
M  V30 4297 C 411.855 -1.99895 -2.71189 0
M  V30 4298 O 412.385 -1.53909 -3.71046 0
M  V30 4299 N 410.591 -1.6676 -2.3799 0
M  V30 4300 H 410.138 -2.04352 -1.56837 0
M  V30 4301 H 410.096 -1.03127 -2.97005 0
M  V30 4302 N 413.868 0.0150385 -1.57593 0
M  V30 4303 C 415.096 0.714395 -1.94175 0
M  V30 4304 C 415.511 1.68135 -0.858841 0
M  V30 4305 O 414.868 1.81766 0.163567 0
M  V30 4306 C 414.919 1.45933 -3.30735 0
M  V30 4307 O 414.64 0.531167 -4.34868 0
M  V30 4308 C 416.141 2.25456 -3.81686 0
M  V30 4309 H 413.361 0.199923 -0.640525 0
M  V30 4310 H 415.905 -0.0316096 -2.04476 0
M  V30 4311 H 414.06 2.15709 -3.21789 0
M  V30 4312 H 414.474 1.05509 -5.13778 0
M  V30 4313 H 415.948 2.731 -4.79709 0
M  V30 4314 H 416.425 3.07485 -3.13607 0
M  V30 4315 H 417.031 1.60727 -3.9376 0
M  V30 4316 N 415.346 1.54954 0.287554 0
M  V30 4317 C 416.278 1.83224 1.37701 0
M  V30 4318 C 417.291 0.715898 1.46215 0
M  V30 4319 O 418.48 0.993565 1.48292 0
M  V30 4320 C 415.58 1.96723 2.75959 0
M  V30 4321 C 414.753 3.27253 2.90215 0
M  V30 4322 C 413.812 3.30998 4.09056 0
M  V30 4323 O 412.838 4.04457 4.00503 0
M  V30 4324 N 414.04 2.57353 5.20336 0
M  V30 4325 H 416.805 2.77254 1.138 0
M  V30 4326 H 414.366 1.54694 0.477652 0
M  V30 4327 H 416.358 1.96615 3.5373 0
M  V30 4328 H 414.928 1.09626 2.92747 0
M  V30 4329 H 414.148 3.40022 1.99447 0
M  V30 4330 H 415.436 4.13365 2.96659 0
M  V30 4331 H 414.834 1.97327 5.30169 0
M  V30 4332 H 413.391 2.62984 5.96391 0
M  V30 4333 N 416.824 -0.551391 1.4764 0
M  V30 4334 C 418.073 -1.30467 1.53822 0
M  V30 4335 C 418.386 -1.94495 0.207661 0
M  V30 4336 O 419.592 -2.71099 0.147533 0
M  V30 4337 C 418.048 -2.36616 2.71184 0
M  V30 4338 C 417.656 -1.78754 4.10793 0
M  V30 4339 C 419.4 -3.13088 2.86663 0
M  V30 4340 C 417.307 -2.82717 5.19447 0
M  V30 4341 H 416.237 -0.490584 0.572576 0
M  V30 4342 H 418.888 -0.58494 1.73927 0
M  V30 4343 H 417.27 -3.11529 2.4447 0
M  V30 4344 H 418.444 -1.10173 4.47435 0
M  V30 4345 H 416.759 -1.14846 4.00249 0
M  V30 4346 H 419.356 -3.90736 3.65007 0
M  V30 4347 H 419.699 -3.67635 1.95321 0
M  V30 4348 H 420.232 -2.45288 3.13175 0
M  V30 4349 H 416.971 -2.33018 6.12685 0
M  V30 4350 H 416.491 -3.4969 4.87316 0
M  V30 4351 H 418.17 -3.46102 5.46646 0
M  V30 4352 N 418.302 -1.35869 -0.798587 0
M  V30 4353 C 419.579 -1.20145 -1.54352 0
M  V30 4354 C 419.959 0.216161 -2.0999 0
M  V30 4355 O 419.307 1.22068 -1.93162 0
M  V30 4356 C 419.517 -2.27602 -2.64572 0
M  V30 4357 C 420.865 -2.63811 -3.32699 0
M  V30 4358 O 421.889 -2.26576 -2.74849 0
M  V30 4359 O 420.748 -3.27866 -4.37226 0
M  V30 4360 H 417.842 -0.467248 -0.682355 0
M  V30 4361 H 420.388 -1.47574 -0.837859 0
M  V30 4362 H 419.16 -3.2265 -2.21388 0
M  V30 4363 H 418.783 -2.01488 -3.42766 0
M  V30 4364 N 419.78 1.02168 -1.19998 0
M  V30 4365 C 420.728 2.12717 -0.940967 0
M  V30 4366 C 421.722 1.69069 0.105841 0
M  V30 4367 O 422.928 1.79946 -0.0440583 0
M  V30 4368 H 419.303 0.695108 -0.28693 0
M  V30 4369 H 421.274 2.3175 -1.87975 0
M  V30 4370 C 420.023 3.44027 -0.504049 0
M  V30 4371 H 419.346 3.78036 -1.30112 0
M  V30 4372 H 420.786 4.22452 -0.361991 0
M  V30 4373 C 419.245 3.27678 0.782878 0
M  V30 4374 O 419.775 3.56949 1.84256 0
M  V30 4375 N 417.981 2.80943 0.742921 0
M  V30 4376 H 417.528 2.57322 -0.119687 0
M  V30 4377 H 417.486 2.70385 1.60435 0
M  V30 4378 N 421.258 1.00505 1.21394 0
M  V30 4379 C 422.483 0.706367 1.95001 0
M  V30 4380 C 422.908 -0.72463 1.73582 0
M  V30 4381 O 422.266 -1.49702 1.0227 0
M  V30 4382 C 422.314 1.03299 3.45487 0
M  V30 4383 O 421.418 0.138275 4.12168 0
M  V30 4384 H 420.759 0.263175 0.609619 0
M  V30 4385 H 423.289 1.34531 1.54151 0
M  V30 4386 H 423.299 0.979872 3.96059 0
M  V30 4387 H 421.974 2.07567 3.60401 0
M  V30 4388 H 420.551 0.247928 3.72075 0
M  V30 4389 N 422.737 -1.36956 0.779787 0
M  V30 4390 C 423.983 -2.00237 0.357324 0
M  V30 4391 C 424.338 -1.60787 -1.05666 0
M  V30 4392 O 423.631 -0.847836 -1.71821 0
M  V30 4393 C 423.825 -3.54585 0.447686 0
M  V30 4394 C 423.654 -4.09025 1.86891 0
M  V30 4395 C 422.424 -4.39612 2.49138 0
M  V30 4396 C 424.622 -4.29461 2.82963 0
M  V30 4397 N 422.604 -4.79816 3.82949 0
M  V30 4398 C 423.975 -4.72363 4.01588 0
M  V30 4399 C 426.03 -4.1161 2.80145 0
M  V30 4400 C 424.733 -4.99284 5.17791 0
M  V30 4401 C 426.759 -4.39672 3.95528 0
M  V30 4402 C 426.121 -4.82822 5.12896 0
M  V30 4403 H 422.22 -0.76148 0.177968 0
M  V30 4404 H 424.804 -1.6613 1.01533 0
M  V30 4405 H 422.975 -3.87982 -0.180184 0
M  V30 4406 H 424.707 -4.047 0.0023955 0
M  V30 4407 H 421.462 -4.28975 2.00693 0
M  V30 4408 H 421.886 -5.04216 4.51769 0
M  V30 4409 H 426.528 -3.77415 1.90572 0
M  V30 4410 H 424.246 -5.32365 6.07958 0
M  V30 4411 H 427.832 -4.27441 3.94697 0
M  V30 4412 H 426.712 -5.04118 6.00695 0
M  V30 4413 N 424.215 -0.530993 -1.48385 0
M  V30 4414 C 425.463 0.00273189 -2.021 0
M  V30 4415 C 425.784 1.34672 -1.41027 0
M  V30 4416 O 425.054 1.8724 -0.576012 0
M  V30 4417 H 423.634 0.00399774 -0.746989 0
M  V30 4418 H 426.296 -0.695054 -1.82085 0
M  V30 4419 H 425.392 0.11031 -3.11905 0
M  V30 4420 N 425.693 1.55336 -0.266172 0
M  V30 4421 C 426.918 2.04258 0.359661 0
M  V30 4422 C 427.343 1.14359 1.49344 0
M  V30 4423 O 426.701 0.140369 1.80756 0
M  V30 4424 C 426.749 3.50997 0.826635 0
M  V30 4425 O 425.853 3.64204 1.93466 0
M  V30 4426 H 425.194 0.659668 0.075727 0
M  V30 4427 H 427.724 2.00694 -0.39786 0
M  V30 4428 H 427.734 3.9219 1.12477 0
M  V30 4429 H 426.409 4.159 -0.00293032 0
M  V30 4430 H 424.986 3.34913 1.63974 0
M  V30 4431 N 427.171 -0.0066808 1.57599 0
M  V30 4432 C 428.081 -1.01671 2.11424 0
M  V30 4433 C 429.097 -1.38143 1.05795 0
M  V30 4434 O 430.273 -1.47011 1.37658 0
M  V30 4435 C 427.338 -2.29192 2.60139 0
M  V30 4436 C 426.399 -1.99094 3.80342 0
M  V30 4437 C 425.632 -3.20535 4.26724 0
M  V30 4438 O 425.855 -4.3199 3.72479 0
M  V30 4439 O 424.789 -3.04924 5.18946 0
M  V30 4440 H 428.615 -0.589181 2.9793 0
M  V30 4441 H 426.2 -0.225091 1.47695 0
M  V30 4442 H 428.082 -3.0412 2.917 0
M  V30 4443 H 426.757 -2.71195 1.76733 0
M  V30 4444 H 425.664 -1.21663 3.53764 0
M  V30 4445 H 426.997 -1.61931 4.648 0
M  V30 4446 N 428.649 -1.55105 -0.279332 0
M  V30 4447 C 429.559 -1.90638 -1.36727 0
M  V30 4448 C 430.575 -0.802899 -1.54368 0
M  V30 4449 O 431.751 -1.10138 -1.68616 0
M  V30 4450 C 428.816 -2.16547 -2.70755 0
M  V30 4451 C 427.877 -3.40146 -2.61915 0
M  V30 4452 C 427.11 -3.6481 -3.8955 0
M  V30 4453 O 427.333 -2.92095 -4.89935 0
M  V30 4454 O 426.267 -4.58343 -3.90135 0
M  V30 4455 H 430.093 -2.83237 -1.09591 0
M  V30 4456 H 427.678 -1.4157 -0.477306 0
M  V30 4457 H 429.56 -2.34665 -3.50014 0
M  V30 4458 H 428.235 -1.27131 -2.9769 0
M  V30 4459 H 427.142 -3.2737 -1.81052 0
M  V30 4460 H 428.475 -4.29761 -2.3993 0
M  V30 4461 N 430.127 0.543554 -1.4793 0
M  V30 4462 C 431.543 0.870806 -1.3375 0
M  V30 4463 C 431.743 1.9864 -0.338261 0
M  V30 4464 O 430.799 2.51305 0.245371 0
M  V30 4465 C 432.112 1.25114 -2.73435 0
M  V30 4466 C 433.66 1.3618 -2.81823 0
M  V30 4467 C 434.135 1.77563 -4.22179 0
M  V30 4468 N 435.626 1.8469 -4.24787 0
M  V30 4469 C 436.361 2.18067 -5.30315 0
M  V30 4470 N 435.857 2.49963 -6.46135 0
M  V30 4471 N 437.65 2.18958 -5.17701 0
M  V30 4472 H 429.801 -0.19275 -2.11524 0
M  V30 4473 H 432.064 -0.0235777 -0.947707 0
M  V30 4474 H 431.77 0.50514 -3.48053 0
M  V30 4475 H 431.644 2.20431 -3.06088 0
M  V30 4476 H 434.031 2.09859 -2.07468 0
M  V30 4477 H 434.112 0.390169 -2.52807 0
M  V30 4478 H 433.756 1.04449 -4.97044 0
M  V30 4479 H 433.686 2.75753 -4.48629 0
M  V30 4480 H 436.177 1.62372 -3.41239 0
M  V30 4481 H 436.49 2.74497 -7.22406 0
M  V30 4482 H 434.835 2.47513 -6.49432 0
M  V30 4483 H 438.026 1.93488 -4.2624 0
M  V30 4484 H 438.199 2.44639 -6.00047 0
M  V30 4485 N 431.605 1.3629 0.791371 0
M  V30 4486 C 432.83 1.33726 1.58531 0
M  V30 4487 C 433.255 -0.0794933 1.87932 0
M  V30 4488 O 432.613 -1.05087 1.47738 0
M  V30 4489 C 432.661 2.16425 2.88431 0
M  V30 4490 O 431.765 1.5554 3.81944 0
M  V30 4491 H 431.106 0.457793 0.480959 0
M  V30 4492 H 433.636 1.79547 0.981031 0
M  V30 4493 H 433.646 2.28933 3.37718 0
M  V30 4494 H 432.321 3.19415 2.66359 0
M  V30 4495 H 430.898 1.51961 3.40532 0
M  V30 4496 N 433.083 -1.0153 1.20538 0
M  V30 4497 C 434.013 -2.11972 0.979295 0
M  V30 4498 C 434.994 -1.6985 -0.0921787 0
M  V30 4499 O 436.179 -1.94089 0.0655932 0
M  V30 4500 C 433.309 -3.43201 0.531984 0
M  V30 4501 C 432.263 -3.9907 1.54685 0
M  V30 4502 C 431.589 -5.26082 0.956127 0
M  V30 4503 C 432.889 -4.32313 2.93092 0
M  V30 4504 H 434.583 -2.31143 1.90298 0
M  V30 4505 H 432.129 -1.11079 0.916372 0
M  V30 4506 H 434.082 -4.1985 0.361044 0
M  V30 4507 H 432.806 -3.23792 -0.427327 0
M  V30 4508 H 431.465 -3.2453 1.70517 0
M  V30 4509 H 431.113 -5.02999 -0.0111538 0
M  V30 4510 H 430.813 -5.64426 1.63393 0
M  V30 4511 H 432.337 -6.05386 0.796284 0
M  V30 4512 H 433.751 -4.99845 2.80763 0
M  V30 4513 H 432.148 -4.81774 3.57791 0
M  V30 4514 H 433.218 -3.41025 3.44717 0
M  V30 4515 N 434.561 -1.01147 -1.20859 0
M  V30 4516 C 435.972 -0.730205 -1.71828 0
M  V30 4517 C 436.323 0.751662 -1.8123 0
M  V30 4518 O 435.448 1.58686 -1.47132 0
M  V30 4519 C 436.043 -1.31885 -3.12077 0
M  V30 4520 C 434.602 -1.08656 -3.60376 0
M  V30 4521 C 433.749 -1.42769 -2.37723 0
M  V30 4522 H 436.7 -1.18158 -1.05945 0
M  V30 4523 H 436.721 -0.706793 -3.73878 0
M  V30 4524 H 436.233 -2.39737 -3.05201 0
M  V30 4525 H 434.334 -0.0254814 -3.72591 0
M  V30 4526 H 434.447 -1.76301 -4.45483 0
M  V30 4527 H 432.811 -0.846603 -2.40218 0
M  V30 4528 H 433.594 -2.51666 -2.33493 0
M  V30 4529 N 436.039 1.36541 -0.78704 0
M  V30 4530 C 437.455 1.52571 -0.46844 0
M  V30 4531 C 437.655 1.7415 1.01361 0
M  V30 4532 O 436.711 1.77163 1.79915 0
M  V30 4533 C 438.024 2.71299 -1.29682 0
M  V30 4534 C 439.572 2.85169 -1.29027 0
M  V30 4535 C 440.047 4.06898 -2.10233 0
M  V30 4536 N 441.538 4.1404 -2.07666 0
M  V30 4537 C 442.273 5.07301 -2.67271 0
M  V30 4538 N 441.769 6.06021 -3.35724 0
M  V30 4539 N 443.562 4.99898 -2.57018 0
M  V30 4540 H 435.713 1.20788 -1.74711 0
M  V30 4541 H 437.976 0.589364 -0.742532 0
M  V30 4542 H 437.682 2.61868 -2.34773 0
M  V30 4543 H 437.556 3.6539 -0.936479 0
M  V30 4544 H 439.943 2.94062 -0.247284 0
M  V30 4545 H 440.024 1.91992 -1.69035 0
M  V30 4546 H 439.668 3.98766 -3.1456 0
M  V30 4547 H 439.598 4.99218 -1.67597 0
M  V30 4548 H 442.089 3.43357 -1.57843 0
M  V30 4549 H 442.402 6.73741 -3.78541 0
M  V30 4550 H 440.747 6.06253 -3.39826 0
M  V30 4551 H 443.938 4.21724 -2.03142 0
M  V30 4552 H 444.111 5.72392 -3.03761 0
M  V30 4553 N 437.518 0.538854 1.48102 0
M  V30 4554 C 438.465 -0.219042 2.29758 0
M  V30 4555 C 439.435 -0.925562 1.37922 0
M  V30 4556 O 440.62 -0.924855 1.66886 0
M  V30 4557 C 437.76 -1.25452 3.2149 0
M  V30 4558 C 436.873 -0.555943 4.28408 0
M  V30 4559 C 436.008 -1.57512 5.0731 0
M  V30 4560 C 435.047 -0.860498 6.06021 0
M  V30 4561 N 434.184 -1.82564 6.77949 0
M  V30 4562 H 439.024 0.483449 2.94052 0
M  V30 4563 H 436.561 0.250247 1.44956 0
M  V30 4564 H 438.519 -1.86727 3.7308 0
M  V30 4565 H 437.149 -1.92528 2.591 0
M  V30 4566 H 436.201 0.170938 3.80016 0
M  V30 4567 H 437.513 0.00474616 4.988 0
M  V30 4568 H 436.667 -2.26191 5.62959 0
M  V30 4569 H 435.406 -2.16972 4.36778 0
M  V30 4570 H 434.411 -0.159686 5.49568 0
M  V30 4571 H 435.636 -0.271897 6.78555 0
M  V30 4572 H 433.582 -2.40915 6.10161 0
M  V30 4573 H 433.499 -1.31662 7.44447 0
M  V30 4574 H 434.767 -2.50414 7.38182 0
M  V30 4575 N 438.996 -1.55193 0.274407 0
M  V30 4576 C 439.929 -2.18606 -0.654712 0
M  V30 4577 C 440.907 -1.14677 -1.15273 0
M  V30 4578 O 442.091 -1.43198 -1.22583 0
M  V30 4579 C 439.218 -2.80875 -1.89281 0
M  V30 4580 C 438.264 -3.981 -1.53032 0
M  V30 4581 S 439.097 -5.32025 -0.609107 0
M  V30 4582 C 440.253 -5.97761 -1.85559 0
M  V30 4583 H 440.486 -2.97074 -0.115894 0
M  V30 4584 H 438.019 -1.54288 0.05867 0
M  V30 4585 H 439.977 -3.17381 -2.60345 0
M  V30 4586 H 438.638 -2.02302 -2.40277 0
M  V30 4587 H 437.831 -4.40356 -2.45158 0
M  V30 4588 H 437.433 -3.63013 -0.899874 0
M  V30 4589 H 439.725 -6.16951 -2.7996 0
M  V30 4590 H 440.668 -6.92545 -1.47605 0
M  V30 4591 H 441.076 -5.27113 -2.02021 0
M  V30 4592 N 440.474 -0.00167713 -1.576 0
M  V30 4593 C 441.885 0.54091 -1.78693 0
M  V30 4594 C 442.236 1.7386 -0.909247 0
M  V30 4595 O 441.361 2.16109 -0.112176 0
M  V30 4596 C 441.956 0.98806 -3.24072 0
M  V30 4597 C 440.515 1.47594 -3.46256 0
M  V30 4598 C 439.662 0.42792 -2.73978 0
M  V30 4599 H 442.613 -0.22784 -1.57056 0
M  V30 4600 H 442.634 1.85398 -3.32277 0
M  V30 4601 H 442.146 0.116164 -3.87926 0
M  V30 4602 H 440.247 2.36868 -2.87618 0
M  V30 4603 H 440.36 1.50225 -4.54939 0
M  V30 4604 H 438.724 0.889934 -2.38647 0
M  V30 4605 H 439.507 -0.435038 -3.40532 0
M  V30 4606 N 441.952 1.55251 0.271103 0
M  V30 4607 C 443.199 1.75946 1.00245 0
M  V30 4608 C 443.527 0.561611 1.86215 0
M  V30 4609 O 442.782 -0.455832 1.90317 0
M  V30 4610 C 443.081 3.01879 1.91321 0
M  V30 4611 C 442.747 4.34337 1.21086 0
M  V30 4612 C 441.409 4.70338 1.01666 0
M  V30 4613 C 443.761 5.16325 0.71119 0
M  V30 4614 C 441.089 5.8588 0.310099 0
M  V30 4615 C 443.441 6.32597 0.0182157 0
M  V30 4616 C 442.105 6.67236 -0.18768 0
M  V30 4617 H 441.375 0.643833 0.366824 0
M  V30 4618 H 444.022 1.89521 0.27458 0
M  V30 4619 H 442.327 2.83212 2.70736 0
M  V30 4620 H 444.024 3.15088 2.48033 0
M  V30 4621 H 440.614 4.06043 1.37213 0
M  V30 4622 H 444.798 4.88987 0.848844 0
M  V30 4623 H 440.054 6.1124 0.139873 0
M  V30 4624 H 444.228 6.9538 -0.376711 0
M  V30 4625 H 441.855 7.56618 -0.73715 0
M  V30 4626 N 443.43 -0.535701 1.48216 0
M  V30 4627 C 444.676 -1.29375 1.56173 0
M  V30 4628 C 445.009 -1.92804 0.232429 0
M  V30 4629 O 444.284 -1.78992 -0.761048 0
M  V30 4630 C 444.567 -2.38747 2.69577 0
M  V30 4631 C 444.42 -1.80046 4.12193 0
M  V30 4632 C 445.739 -3.40551 2.78771 0
M  V30 4633 H 442.858 -0.469027 0.568491 0
M  V30 4634 H 445.5 -0.597358 1.80365 0
M  V30 4635 H 443.65 -2.98147 2.4908 0
M  V30 4636 H 445.322 -1.24742 4.44114 0
M  V30 4637 H 443.565 -1.10609 4.19462 0
M  V30 4638 H 444.236 -2.59212 4.87353 0
M  V30 4639 H 446.712 -2.91099 2.97322 0
M  V30 4640 H 445.588 -4.1448 3.59857 0
M  V30 4641 H 445.849 -4.00746 1.86696 0
M  V30 4642 N 444.908 -1.36708 -0.784132 0
M  V30 4643 C 446.324 -1.17237 -1.08294 0
M  V30 4644 C 446.524 -5.93947e-05 -2.015 0
M  V30 4645 O 445.58 0.663686 -2.43622 0
M  V30 4646 C 446.893 -2.48557 -1.69233 0
M  V30 4647 C 448.441 -2.54968 -1.8155 0
M  V30 4648 C 448.916 -3.86388 -2.45904 0
M  V30 4649 N 450.407 -3.87762 -2.53367 0
M  V30 4650 C 451.142 -4.86191 -3.03983 0
M  V30 4651 N 450.638 -5.95015 -3.54866 0
M  V30 4652 N 452.431 -4.73606 -3.02743 0
M  V30 4653 H 444.582 -2.11758 -0.16501 0
M  V30 4654 H 446.845 -0.93822 -0.135822 0
M  V30 4655 H 446.551 -3.34638 -1.08215 0
M  V30 4656 H 446.425 -2.64748 -2.68679 0
M  V30 4657 H 448.812 -1.69302 -2.41704 0
M  V30 4658 H 448.893 -2.42672 -0.80895 0
M  V30 4659 H 448.537 -4.72462 -1.86392 0
M  V30 4660 H 448.467 -3.95982 -3.4714 0
M  V30 4661 H 450.958 -3.09145 -2.17343 0
M  V30 4662 H 451.271 -6.66086 -3.91854 0
M  V30 4663 H 449.616 -5.98676 -3.53003 0
M  V30 4664 H 452.807 -3.87717 -2.62284 0
M  V30 4665 H 452.98 -5.50473 -3.41881 0
M  V30 4666 N 446.386 1.0089 -1.21074 0
M  V30 4667 C 447.634 1.74262 -1.02358 0
M  V30 4668 C 447.955 1.89869 0.444393 0
M  V30 4669 O 447.225 1.44677 1.32081 0
M  V30 4670 H 445.805 0.645615 -0.375754 0
M  V30 4671 H 448.467 1.21596 -1.52317 0
M  V30 4672 H 447.563 2.74328 -1.4883 0
M  V30 4673 N 447.864 1.01787 1.20321 0
M  V30 4674 C 448.796 0.547357 2.22568 0
M  V30 4675 C 449.809 -0.370922 1.58518 0
M  V30 4676 O 450.998 -0.169067 1.77698 0
M  V30 4677 C 448.098 -0.223031 3.38165 0
M  V30 4678 C 447.271 0.697472 4.31803 0
M  V30 4679 C 446.33 -0.025562 5.26194 0
M  V30 4680 O 445.356 0.597367 5.66057 0
M  V30 4681 N 446.558 -1.29999 5.65757 0
M  V30 4682 H 449.323 1.42668 2.63564 0
M  V30 4683 H 446.884 0.895552 1.34876 0
M  V30 4684 H 448.876 -0.716002 3.98316 0
M  V30 4685 H 447.446 -1.00366 2.9605 0
M  V30 4686 H 446.666 1.37073 3.69601 0
M  V30 4687 H 447.954 1.32347 4.91286 0
M  V30 4688 H 447.352 -1.827 5.35385 0
M  V30 4689 H 445.909 -1.73766 6.28211 0
M  V30 4690 N 449.342 -1.36122 0.79427 0
M  V30 4691 C 450.567 -2.03891 0.379871 0
M  V30 4692 C 450.992 -1.59488 -0.997251 0
M  V30 4693 O 450.35 -0.765652 -1.64339 0
M  V30 4694 C 450.398 -3.57687 0.457442 0
M  V30 4695 O 449.502 -4.08931 -0.5338 0
M  V30 4696 H 448.843 -0.6443 0.160541 0
M  V30 4697 H 451.373 -1.73976 1.07673 0
M  V30 4698 H 451.383 -4.06721 0.322792 0
M  V30 4699 H 450.058 -3.89357 1.46199 0
M  V30 4700 H 448.635 -3.71154 -0.360409 0
M  V30 4701 N 450.82 -0.546701 -1.47814 0
M  V30 4702 C 452.067 -0.0187407 -2.02491 0
M  V30 4703 C 452.395 1.32685 -1.42215 0
M  V30 4704 O 451.65 1.87413 -0.563454 0
M  V30 4705 C 451.949 0.134869 -3.57145 0
M  V30 4706 C 451.615 -1.13849 -4.3629 0
M  V30 4707 C 450.277 -1.48743 -4.57634 0
M  V30 4708 C 452.629 -1.98277 -4.82012 0
M  V30 4709 C 449.957 -2.67932 -5.21948 0
M  V30 4710 C 452.309 -3.16659 -5.4764 0
M  V30 4711 C 450.973 -3.51879 -5.67219 0
M  V30 4712 H 450.243 -0.0068577 -0.740968 0
M  V30 4713 H 452.89 -0.716097 -1.77607 0
M  V30 4714 H 451.195 0.915118 -3.80963 0
M  V30 4715 H 452.892 0.558556 -3.97091 0
M  V30 4716 H 449.482 -0.856767 -4.19949 0
M  V30 4717 H 453.666 -1.72628 -4.6531 0
M  V30 4718 H 448.922 -2.95401 -5.35302 0
M  V30 4719 H 453.096 -3.82374 -5.82033 0
M  V30 4720 H 450.723 -4.44331 -6.16825 0
M  V30 4721 N 452.299 1.55045 -0.282633 0
M  V30 4722 C 453.524 2.04628 0.337977 0
M  V30 4723 C 453.949 1.15937 1.48123 0
M  V30 4724 O 453.307 0.159532 1.80597 0
M  V30 4725 C 453.355 3.51854 0.78936 0
M  V30 4726 O 452.459 3.66236 1.89592 0
M  V30 4727 H 451.8 0.660434 0.0687261 0
M  V30 4728 H 454.33 2.00261 -0.419124 0
M  V30 4729 H 454.34 3.93361 1.08311 0
M  V30 4730 H 453.015 4.15873 -0.0470419 0
M  V30 4731 H 451.592 3.36633 1.60413 0
M  V30 4732 N 453.777 0.010035 1.57597 0
M  V30 4733 C 455.023 -0.673697 1.91283 0
M  V30 4734 C 455.356 -1.72863 0.884979 0
M  V30 4735 O 454.631 -1.94268 -0.0949487 0
M  V30 4736 C 454.914 -1.30766 3.35518 0
M  V30 4737 C 454.767 -0.263578 4.49027 0
M  V30 4738 C 456.086 -2.23105 3.79358 0
M  V30 4739 H 453.205 -0.243439 0.695634 0
M  V30 4740 H 455.847 0.0633864 1.89894 0
M  V30 4741 H 453.997 -1.93588 3.36832 0
M  V30 4742 H 455.669 0.365738 4.59848 0
M  V30 4743 H 453.912 0.413077 4.31829 0
M  V30 4744 H 454.583 -0.746398 5.4693 0
M  V30 4745 H 457.059 -1.70289 3.79659 0
M  V30 4746 H 455.935 -2.64424 4.81011 0
M  V30 4747 H 456.196 -3.11433 3.13787 0
M  V30 4748 N 455.255 -1.55392 -0.262866 0
M  V30 4749 C 456.501 -1.77657 -0.990424 0
M  V30 4750 C 456.856 -0.576333 -1.83565 0
M  V30 4751 O 456.149 0.430795 -1.86694 0
M  V30 4752 C 456.343 -3.02889 -1.89718 0
M  V30 4753 C 456.172 -4.34979 -1.14121 0
M  V30 4754 C 454.942 -4.98052 -0.852768 0
M  V30 4755 C 457.14 -5.11597 -0.526625 0
M  V30 4756 N 455.122 -6.13859 -0.0710649 0
M  V30 4757 C 456.493 -6.19883 0.12042 0
M  V30 4758 C 458.548 -4.95992 -0.435485 0
M  V30 4759 C 457.251 -7.14262 0.849833 0
M  V30 4760 C 459.277 -5.90735 0.280359 0
M  V30 4761 C 458.639 -6.98417 0.916103 0
M  V30 4762 H 454.738 -0.702242 -0.344064 0
M  V30 4763 H 457.322 -1.92887 -0.265088 0
M  V30 4764 H 455.493 -2.89017 -2.59468 0
M  V30 4765 H 457.225 -3.13516 -2.5591 0
M  V30 4766 H 453.98 -4.5916 -1.16058 0
M  V30 4767 H 454.404 -6.76302 0.307413 0
M  V30 4768 H 459.046 -4.12832 -0.912671 0
M  V30 4769 H 456.764 -7.96935 1.33867 0
M  V30 4770 H 460.35 -5.80738 0.351332 0
M  V30 4771 H 459.23 -7.70467 1.46119 0
M  V30 4772 N 456.733 0.527833 -1.48498 0
M  V30 4773 C 457.982 1.28003 -1.55878 0
M  V30 4774 C 458.295 1.9414 -0.238577 0
M  V30 4775 O 459.501 2.7083 -0.190643 0
M  V30 4776 C 457.957 2.32272 -2.74914 0
M  V30 4777 C 457.565 1.72196 -4.13585 0
M  V30 4778 C 459.309 3.08488 -2.91608 0
M  V30 4779 C 457.216 2.74417 -5.23879 0
M  V30 4780 H 456.146 0.481413 -0.580308 0
M  V30 4781 H 458.797 0.557195 -1.74836 0
M  V30 4782 H 457.179 3.07601 -2.49395 0
M  V30 4783 H 458.353 1.03041 -4.49132 0
M  V30 4784 H 456.668 1.08464 -4.02025 0
M  V30 4785 H 459.265 3.84879 -3.71177 0
M  V30 4786 H 459.608 3.64481 -2.01145 0
M  V30 4787 H 460.141 2.40274 -3.17038 0
M  V30 4788 H 456.88 2.23242 -6.16314 0
M  V30 4789 H 456.4 3.41893 -4.92818 0
M  V30 4790 H 458.079 3.37362 -5.52083 0
M  V30 4791 N 458.211 1.37122 0.776871 0
M  V30 4792 C 459.141 1.35164 1.90402 0
M  V30 4793 C 460.122 0.221069 1.68657 0
M  V30 4794 O 461.307 0.420642 1.8959 0
M  V30 4795 C 458.437 1.15274 3.27611 0
M  V30 4796 C 457.391 2.25289 3.63908 0
M  V30 4797 C 456.717 1.90527 4.99603 0
M  V30 4798 C 458.017 3.67446 3.71188 0
M  V30 4799 H 459.711 2.29482 1.92297 0
M  V30 4800 H 457.257 1.10465 0.923773 0
M  V30 4801 H 459.21 1.12536 4.06096 0
M  V30 4802 H 457.934 0.174102 3.26136 0
M  V30 4803 H 456.593 2.27174 2.87728 0
M  V30 4804 H 456.241 0.91206 4.94662 0
M  V30 4805 H 455.941 2.64193 5.24858 0
M  V30 4806 H 457.465 1.89367 5.80493 0
M  V30 4807 H 458.879 3.67719 4.39836 0
M  V30 4808 H 457.276 4.40123 4.07936 0
M  V30 4809 H 458.346 4.01443 2.71977 0
M  V30 4810 N 459.689 -1.00246 1.21608 0
M  V30 4811 C 460.929 -1.75589 1.04631 0
M  V30 4812 C 461.293 -1.87513 -0.412648 0
M  V30 4813 O 462.494 -2.59444 -0.703003 0
M  V30 4814 C 460.765 -3.12893 1.72722 0
M  V30 4815 S 462.324 -4.04095 1.71034 0
M  V30 4816 H 459.142 -0.604133 0.374892 0
M  V30 4817 H 461.744 -1.19927 1.54395 0
M  V30 4818 H 460.448 -3.0185 2.78055 0
M  V30 4819 H 459.979 -3.73628 1.23149 0
M  V30 4820 H 461.994 -4.9045 0.753231 0
M  V30 4821 N 461.167 -1.02423 -1.1978 0
M  V30 4822 C 462.077 -0.610919 -2.26506 0
M  V30 4823 C 463.093 0.355152 -1.70337 0
M  V30 4824 O 464.269 0.214195 -2.00258 0
M  V30 4825 C 461.334 0.0365921 -3.46681 0
M  V30 4826 C 460.395 -0.976389 -4.18049 0
M  V30 4827 C 459.628 -0.359683 -5.32487 0
M  V30 4828 O 459.851 0.838601 -5.64202 0
M  V30 4829 O 458.785 -1.08022 -5.92127 0
M  V30 4830 H 462.611 -1.49965 -2.64091 0
M  V30 4831 H 460.196 -0.794156 -1.26545 0
M  V30 4832 H 462.078 0.39786 -4.19518 0
M  V30 4833 H 460.753 0.899398 -3.10954 0
M  V30 4834 H 459.66 -1.38916 -3.47352 0
M  V30 4835 H 460.993 -1.80941 -4.57735 0
M  V30 4836 N 462.645 1.35699 -0.801477 0
M  V30 4837 C 463.608 2.28199 -0.213994 0
M  V30 4838 C 464.608 1.49359 0.595691 0
M  V30 4839 O 465.798 1.69186 0.414921 0
M  V30 4840 C 462.93 3.33587 0.702297 0
M  V30 4841 H 464.123 2.81666 -1.02976 0
M  V30 4842 H 461.676 1.45467 -0.571759 0
M  V30 4843 H 462.411 2.85297 1.54195 0
M  V30 4844 H 462.196 3.91906 0.123484 0
M  V30 4845 H 463.686 4.02638 1.10783 0
M  V30 4846 N 464.123 0.554532 1.47522 0
M  V30 4847 C 465.073 -0.215008 2.26984 0
M  V30 4848 C 466.057 -0.88774 1.34194 0
M  V30 4849 O 467.249 -0.786489 1.58567 0
M  V30 4850 C 464.378 -1.24604 3.19889 0
M  V30 4851 C 463.464 -0.576857 4.20159 0
M  V30 4852 N 463.855 0.351541 5.04577 0
M  V30 4853 C 462.153 -0.831104 4.38188 0
M  V30 4854 C 462.854 0.739995 5.76974 0
M  V30 4855 N 461.83 0.0954407 5.43516 0
M  V30 4856 H 465.632 0.498843 2.89636 0
M  V30 4857 H 463.146 0.374279 1.58028 0
M  V30 4858 H 465.143 -1.81128 3.75498 0
M  V30 4859 H 463.803 -1.96101 2.58794 0
M  V30 4860 H 464.814 0.725556 5.12792 0
M  V30 4861 H 461.491 -1.53479 3.88266 0
M  V30 4862 H 462.881 1.50271 6.5488 0
M  V30 4863 N 465.601 -1.54893 0.290851 0
M  V30 4864 C 466.841 -2.01842 -0.322388 0
M  V30 4865 C 467.205 -1.17477 -1.51865 0
M  V30 4866 O 468.406 -1.54077 -2.20258 0
M  V30 4867 C 466.677 -3.50874 -0.679844 0
M  V30 4868 S 468.236 -4.19796 -1.27739 0
M  V30 4869 H 465.054 -0.704005 -0.0994866 0
M  V30 4870 H 467.656 -1.91015 0.416358 0
M  V30 4871 H 466.36 -4.09915 0.199435 0
M  V30 4872 H 465.891 -3.65717 -1.44964 0
M  V30 4873 H 467.906 -4.24729 -2.56554 0
M  V30 4874 N 467.08 -0.0183926 -1.57589 0
M  V30 4875 C 468.01 0.965596 -2.12599 0
M  V30 4876 C 468.991 1.34641 -1.0395 0
M  V30 4877 O 470.176 1.42693 -1.31729 0
M  V30 4878 C 467.306 2.25149 -2.64434 0
M  V30 4879 C 466.26 2.01175 -3.77773 0
M  V30 4880 C 465.586 3.35937 -4.15994 0
M  V30 4881 C 466.886 1.35953 -5.04296 0
M  V30 4882 H 468.58 0.507504 -2.95067 0
M  V30 4883 H 466.126 0.242671 -1.41941 0
M  V30 4884 H 468.079 2.94357 -3.01549 0
M  V30 4885 H 466.803 2.73105 -1.79112 0
M  V30 4886 H 465.462 1.34388 -3.4108 0
M  V30 4887 H 465.11 3.81631 -3.27669 0
M  V30 4888 H 464.81 3.20705 -4.92364 0
M  V30 4889 H 466.334 4.0643 -4.55683 0
M  V30 4890 H 467.748 1.95144 -5.39065 0
M  V30 4891 H 466.145 1.31152 -5.85593 0
M  V30 4892 H 467.215 0.331071 -4.83768 0
M  V30 4893 N 468.558 1.5553 0.254621 0
M  V30 4894 C 469.505 1.89666 1.31512 0
M  V30 4895 C 470.475 0.750057 1.482 0
M  V30 4896 O 471.66 1.00301 1.62309 0
M  V30 4897 C 468.8 2.19009 2.667 0
M  V30 4898 C 467.913 3.46435 2.58083 0
M  V30 4899 C 467.048 3.65386 3.85573 0
M  V30 4900 C 466.087 4.8644 3.71541 0
M  V30 4901 N 465.224 5.01952 4.90906 0
M  V30 4902 H 470.064 2.80109 1.017 0
M  V30 4903 H 467.601 1.38666 0.490938 0
M  V30 4904 H 469.559 2.34025 3.45381 0
M  V30 4905 H 468.189 1.31779 2.94676 0
M  V30 4906 H 467.241 3.39792 1.71013 0
M  V30 4907 H 468.553 4.35258 2.43622 0
M  V30 4908 H 467.707 3.80319 4.72697 0
M  V30 4909 H 466.446 2.74781 4.02922 0
M  V30 4910 H 465.451 4.71491 2.82801 0
M  V30 4911 H 466.676 5.78497 3.55694 0
M  V30 4912 H 464.622 4.14283 5.08631 0
M  V30 4913 H 464.539 5.84851 4.79046 0
M  V30 4914 H 465.807 5.21289 5.7955 0
M  V30 4915 N 470.036 -0.519951 1.48776 0
M  V30 4916 C 471.282 -1.27711 1.57536 0
M  V30 4917 C 471.615 -1.92547 0.252866 0
M  V30 4918 O 470.89 -1.7979 -0.742021 0
M  V30 4919 C 471.173 -2.35875 2.72094 0
M  V30 4920 C 471.026 -1.75664 4.1408 0
M  V30 4921 C 472.345 -3.37575 2.82367 0
M  V30 4922 H 469.464 -0.462971 0.573434 0
M  V30 4923 H 472.106 -0.578194 1.80989 0
M  V30 4924 H 470.256 -2.95488 2.52228 0
M  V30 4925 H 471.928 -1.20025 4.45412 0
M  V30 4926 H 470.171 -1.06154 4.20611 0
M  V30 4927 H 470.842 -2.54029 4.90075 0
M  V30 4928 H 473.318 -2.87929 3.00393 0
M  V30 4929 H 472.194 -4.1064 3.64233 0
M  V30 4930 H 472.455 -3.98743 1.90936 0
M  V30 4931 N 471.514 -1.37532 -0.769588 0
M  V30 4932 C 472.477 -1.33292 -1.86456 0
M  V30 4933 C 473.477 -0.236537 -1.59051 0
M  V30 4934 O 474.667 -0.492511 -1.67093 0
M  V30 4935 C 471.799 -1.07118 -3.23633 0
M  V30 4936 H 472.992 -2.30692 -1.91628 0
M  V30 4937 H 470.545 -1.22593 -0.969572 0
M  V30 4938 H 471.28 -0.102578 -3.24138 0
M  V30 4939 H 471.065 -1.86479 -3.44917 0
M  V30 4940 H 472.555 -1.06806 -4.03711 0
M  V30 4941 N 472.992 0.995999 -1.22138 0
M  V30 4942 C 474.238 1.73767 -1.04561 0
M  V30 4943 C 474.571 1.89633 0.418698 0
M  V30 4944 O 473.846 1.43723 1.3105 0
M  V30 4945 C 474.129 3.14505 -1.75382 0
M  V30 4946 C 473.982 3.06306 -3.29388 0
M  V30 4947 C 475.301 4.13615 -1.50369 0
M  V30 4948 H 472.42 0.630728 -0.38125 0
M  V30 4949 H 475.062 1.16057 -1.50435 0
M  V30 4950 H 473.212 3.63775 -1.36383 0
M  V30 4951 H 474.884 2.64681 -3.77812 0
M  V30 4952 H 473.127 2.43186 -3.59226 0
M  V30 4953 H 473.798 4.05884 -3.74116 0
M  V30 4954 H 476.274 3.73089 -1.84239 0
M  V30 4955 H 475.15 5.10212 -2.02421 0
M  V30 4956 H 475.411 4.39949 -0.435611 0
M  V30 4957 N 474.47 1.03057 1.19235 0
M  V30 4958 C 475.747 0.642608 1.84743 0
M  V30 4959 C 476.127 -0.878577 1.91948 0
M  V30 4960 O 475.475 -1.77597 1.43776 0
M  V30 4961 C 475.685 1.30665 3.23616 0
M  V30 4962 C 477.033 1.43098 3.9976 0
M  V30 4963 O 478.057 1.26396 3.3302 0
M  V30 4964 O 476.916 1.70223 5.19313 0
M  V30 4965 H 474.01 0.223573 0.796206 0
M  V30 4966 H 476.556 1.12883 1.26711 0
M  V30 4967 H 475.328 2.34544 3.13217 0
M  V30 4968 H 474.951 0.808405 3.89295 0
M  V30 4969 N 475.948 -1.35272 0.808662 0
M  V30 4970 C 477.196 -1.98316 0.389233 0
M  V30 4971 C 477.517 -1.64465 -1.04767 0
M  V30 4972 O 476.787 -0.928175 -1.72516 0
M  V30 4973 H 475.367 -0.733585 0.140935 0
M  V30 4974 H 478.029 -1.6515 1.03496 0
M  V30 4975 H 477.125 -3.08123 0.496631 0
M  V30 4976 N 477.426 -0.562348 -1.47226 0
M  V30 4977 C 478.358 0.220011 -2.28142 0
M  V30 4978 C 479.371 0.874596 -1.37312 0
M  V30 4979 O 480.56 0.747583 -1.62091 0
M  V30 4980 C 477.66 1.32953 -3.11732 0
M  V30 4981 C 476.833 0.770759 -4.30556 0
M  V30 4982 C 475.892 1.76541 -4.95701 0
M  V30 4983 O 474.918 1.3095 -5.53932 0
M  V30 4984 N 476.12 3.09896 -4.90861 0
M  V30 4985 H 478.885 -0.474107 -2.95926 0
M  V30 4986 H 476.446 -0.398761 -1.56912 0
M  V30 4987 H 478.438 1.99378 -3.5218 0
M  V30 4988 H 477.008 1.92681 -2.46156 0
M  V30 4989 H 476.228 -0.0704056 -3.94137 0
M  V30 4990 H 477.516 0.376872 -5.07402 0
M  V30 4991 H 476.914 3.49577 -4.44761 0
M  V30 4992 H 475.471 3.71865 -5.35313 0
M  V30 4993 N 478.904 1.54736 -0.299062 0
M  V30 4994 C 479.854 2.20155 0.592932 0
M  V30 4995 C 480.838 1.1739 1.10038 0
M  V30 4996 O 482.03 1.43116 1.04147 0
M  V30 4997 C 479.159 2.94437 1.76527 0
M  V30 4998 C 478.245 4.04516 1.27388 0
M  V30 4999 N 478.636 5.03319 0.500339 0
M  V30 5000 C 476.934 4.18022 1.55478 0
M  V30 5001 C 477.635 5.81209 0.238909 0
M  V30 5002 N 476.611 5.37408 0.818163 0
M  V30 5003 H 480.413 2.93899 -0.00563596 0
M  V30 5004 H 477.927 1.62068 -0.103732 0
M  V30 5005 H 479.924 3.3977 2.41582 0
M  V30 5006 H 478.584 2.22209 2.36756 0
M  V30 5007 H 479.595 5.17696 0.145419 0
M  V30 5008 H 476.272 3.56998 2.16469 0
M  V30 5009 H 477.662 6.70812 -0.382223 0
M  V30 5010 N 480.382 0.0267497 1.57577 0
M  V30 5011 C 481.312 -0.954308 2.13108 0
M  V30 5012 C 482.293 -1.34088 1.04663 0
M  V30 5013 O 483.478 -1.41992 1.32484 0
M  V30 5014 C 480.608 -2.23744 2.65624 0
M  V30 5015 C 479.562 -1.99168 3.78835 0
M  V30 5016 C 478.888 -3.33726 4.17769 0
M  V30 5017 C 480.188 -1.33277 5.0501 0
M  V30 5018 H 481.882 -0.491848 2.95332 0
M  V30 5019 H 479.428 -0.23514 1.42067 0
M  V30 5020 H 481.381 -2.92754 3.03106 0
M  V30 5021 H 480.105 -2.72151 1.80558 0
M  V30 5022 H 478.764 -1.32577 3.41788 0
M  V30 5023 H 478.412 -3.79888 3.29688 0
M  V30 5024 H 478.112 -3.18089 4.94058 0
M  V30 5025 H 479.636 -4.04008 4.57832 0
M  V30 5026 H 481.05 -1.92283 5.40093 0
M  V30 5027 H 479.447 -1.28045 5.8628 0
M  V30 5028 H 480.517 -0.305411 4.83937 0
M  V30 5029 N 481.861 -1.55662 -0.24637 0
M  V30 5030 C 483.108 -1.77519 -0.974335 0
M  V30 5031 C 483.436 -0.591165 -1.85298 0
M  V30 5032 O 482.691 0.425497 -1.91018 0
M  V30 5033 C 482.99 -3.04885 -1.86494 0
M  V30 5034 C 482.656 -4.36209 -1.14161 0
M  V30 5035 C 481.318 -4.71896 -0.941701 0
M  V30 5036 C 483.67 -5.17391 -0.628957 0
M  V30 5037 C 480.998 -5.86299 -0.216852 0
M  V30 5038 C 483.35 -6.32546 0.0824273 0
M  V30 5039 C 482.014 -6.66853 0.293807 0
M  V30 5040 H 481.284 -0.649588 -0.356535 0
M  V30 5041 H 483.931 -1.89934 -0.244394 0
M  V30 5042 H 482.236 -2.87484 -2.66196 0
M  V30 5043 H 483.933 -3.18994 -2.42989 0
M  V30 5044 H 480.523 -4.08174 -1.30736 0
M  V30 5045 H 484.707 -4.90276 -0.770943 0
M  V30 5046 H 479.963 -6.11385 -0.0426124 0
M  V30 5047 H 484.137 -6.94693 0.487292 0
M  V30 5048 H 481.764 -7.55349 0.857428 0
M  V30 5049 N 483.339 0.512053 -1.4905 0
M  V30 5050 C 484.249 1.64139 -1.67617 0
M  V30 5051 C 485.265 1.64786 -0.558701 0
M  V30 5052 O 486.441 1.8341 -0.832034 0
M  V30 5053 C 483.506 3.00548 -1.72835 0
M  V30 5054 C 482.567 3.10615 -2.96339 0
M  V30 5055 C 481.8 4.40517 -3.01298 0
M  V30 5056 O 482.023 5.28671 -2.14157 0
M  V30 5057 O 480.957 4.55325 -3.93653 0
M  V30 5058 H 484.783 1.51407 -2.63267 0
M  V30 5059 H 482.368 0.687131 -1.32661 0
M  V30 5060 H 484.25 3.81641 -1.78683 0
M  V30 5061 H 482.925 3.13566 -0.803616 0
M  V30 5062 H 481.832 2.2875 -2.96014 0
M  V30 5063 H 483.165 3.0252 -3.88256 0
M  V30 5064 N 484.817 1.37938 0.762283 0
M  V30 5065 C 486.047 1.36685 1.54922 0
M  V30 5066 C 486.455 -0.0474099 1.89141 0
M  V30 5067 O 485.798 -1.02213 1.52638 0
M  V30 5068 C 485.86 2.14963 2.88152 0
M  V30 5069 C 485.524 3.6385 2.76518 0
M  V30 5070 C 486.521 4.57531 2.46904 0
M  V30 5071 C 484.206 4.07095 2.94243 0
M  V30 5072 C 486.2 5.92436 2.35156 0
M  V30 5073 C 483.887 5.42083 2.82116 0
M  V30 5074 C 484.885 6.34567 2.52614 0
M  V30 5075 O 484.573 7.67073 2.40529 0
M  V30 5076 H 484.305 0.469586 0.486276 0
M  V30 5077 H 486.859 1.82012 0.951876 0
M  V30 5078 H 485.089 1.6434 3.50042 0
M  V30 5079 H 486.778 2.06224 3.49609 0
M  V30 5080 H 487.544 4.25428 2.32886 0
M  V30 5081 H 483.423 3.35462 3.16206 0
M  V30 5082 H 486.967 6.64591 2.12049 0
M  V30 5083 H 482.864 5.73785 2.95704 0
M  V30 5084 H 483.632 7.77499 2.55807 0
M  V30 5085 N 486.295 -0.989507 1.22664 0
M  V30 5086 C 487.525 -1.7624 1.0781 0
M  V30 5087 C 487.933 -1.85466 -0.374036 0
M  V30 5088 O 487.276 -1.32645 -1.27087 0
M  V30 5089 C 487.338 -3.21007 1.61849 0
M  V30 5090 C 487.002 -3.35316 3.10503 0
M  V30 5091 C 487.999 -3.22362 4.07896 0
M  V30 5092 C 485.684 -3.60258 3.50028 0
M  V30 5093 C 487.678 -3.34139 5.42798 0
M  V30 5094 C 485.365 -3.71676 4.85078 0
M  V30 5095 C 486.363 -3.58625 5.81272 0
M  V30 5096 O 486.051 -3.69655 7.1387 0
M  V30 5097 H 485.783 -0.560209 0.378341 0
M  V30 5098 H 488.337 -1.25252 1.62792 0
M  V30 5099 H 486.567 -3.73202 1.01279 0
M  V30 5100 H 488.256 -3.80024 1.42606 0
M  V30 5101 H 489.022 -3.03 3.78703 0
M  V30 5102 H 484.901 -3.69492 2.75675 0
M  V30 5103 H 488.445 -3.23869 6.17863 0
M  V30 5104 H 484.342 -3.90545 5.1395 0
M  V30 5105 H 485.11 -3.86507 7.21495 0
M  V30 5106 N 487.773 -1.03688 -1.18687 0
M  V30 5107 C 488.723 -0.595067 -2.20098 0
M  V30 5108 C 489.707 0.360465 -1.5681 0
M  V30 5109 O 490.899 0.180136 -1.76081 0
M  V30 5110 C 488.028 0.0444495 -3.43271 0
M  V30 5111 C 487.114 -0.934002 -4.13687 0
M  V30 5112 N 487.505 -2.09957 -4.60165 0
M  V30 5113 C 485.803 -0.759177 -4.39491 0
M  V30 5114 C 486.504 -2.71735 -5.1433 0
M  V30 5115 N 485.48 -1.99638 -5.05614 0
M  V30 5116 H 489.282 -1.48336 -2.5372 0
M  V30 5117 H 486.796 -0.904949 -1.3485 0
M  V30 5118 H 488.793 0.37864 -4.15177 0
M  V30 5119 H 487.453 0.928325 -3.11147 0
M  V30 5120 H 488.464 -2.47863 -4.54735 0
M  V30 5121 H 485.141 0.0749292 -4.17433 0
M  V30 5122 H 486.531 -3.70492 -5.60523 0
M  V30 5123 N 489.251 1.34841 -0.815825 0
M  V30 5124 C 490.667 1.51543 -0.500697 0
M  V30 5125 C 490.867 1.76261 0.976444 0
M  V30 5126 O 489.923 1.8094 1.76117 0
M  V30 5127 C 491.236 2.68487 -1.35407 0
M  V30 5128 C 492.784 2.82368 -1.35046 0
M  V30 5129 C 493.259 4.02347 -2.18816 0
M  V30 5130 N 494.75 4.09542 -2.16402 0
M  V30 5131 C 495.485 5.01517 -2.77971 0
M  V30 5132 N 494.981 5.98763 -3.48503 0
M  V30 5133 N 496.774 4.94334 -2.67563 0
M  V30 5134 H 488.925 1.17055 -1.77234 0
M  V30 5135 H 491.188 0.573481 -0.754866 0
M  V30 5136 H 490.894 2.56829 -2.40274 0
M  V30 5137 H 490.768 3.63321 -1.01377 0
M  V30 5138 H 493.155 2.93471 -0.309604 0
M  V30 5139 H 493.236 1.88363 -1.73069 0
M  V30 5140 H 492.88 3.92004 -3.22948 0
M  V30 5141 H 492.81 4.95551 -1.78148 0
M  V30 5142 H 495.301 3.39932 -1.65091 0
M  V30 5143 H 495.614 6.6556 -3.92747 0
M  V30 5144 H 493.959 5.98909 -3.52609 0
M  V30 5145 H 497.15 4.1732 -2.12041 0
M  V30 5146 H 497.323 5.6582 -3.15834 0
M  V30 5147 N 490.729 0.570148 1.46925 0
M  V30 5148 C 491.659 -0.158274 2.32963 0
M  V30 5149 C 492.64 -0.896093 1.44583 0
M  V30 5150 O 493.825 -0.874022 1.7342 0
M  V30 5151 C 490.955 -1.18055 3.26619 0
M  V30 5152 C 489.909 -0.558379 4.24342 0
M  V30 5153 C 489.235 -1.68623 5.07415 0
M  V30 5154 C 490.535 0.496295 5.19937 0
M  V30 5155 H 492.229 0.560046 2.94115 0
M  V30 5156 H 489.775 0.270775 1.41431 0
M  V30 5157 H 491.728 -1.69841 3.85658 0
M  V30 5158 H 490.452 -1.92899 2.63548 0
M  V30 5159 H 489.111 -0.0617157 3.66548 0
M  V30 5160 H 488.759 -2.42402 4.40738 0
M  V30 5161 H 488.459 -1.27564 5.73586 0
M  V30 5162 H 489.983 -2.20709 5.69315 0
M  V30 5163 H 491.397 0.0640052 5.73264 0
M  V30 5164 H 489.794 0.82649 5.94381 0
M  V30 5165 H 490.864 1.38735 4.6463 0
M  V30 5166 N 492.207 -1.54576 0.307264 0
M  V30 5167 C 493.623 -1.59534 -0.0459251 0
M  V30 5168 C 493.823 -1.32414 -1.51884 0
M  V30 5169 O 492.879 -1.1006 -2.27251 0
M  V30 5170 C 494.192 -2.98566 0.357649 0
M  V30 5171 C 495.74 -3.11491 0.306937 0
M  V30 5172 C 496.215 -4.52842 0.685427 0
M  V30 5173 N 497.706 -4.58782 0.638203 0
M  V30 5174 C 498.441 -5.66238 0.903458 0
M  V30 5175 N 497.937 -6.81703 1.23501 0
M  V30 5176 N 499.73 -5.55937 0.830102 0
M  V30 5177 H 491.881 -1.70464 1.26712 0
M  V30 5178 H 494.144 -0.79647 0.514139 0
M  V30 5179 H 493.85 -3.23356 1.38325 0
M  V30 5180 H 493.724 -3.76117 -0.285565 0
M  V30 5181 H 496.111 -2.86446 -0.709424 0
M  V30 5182 H 496.192 -2.36081 0.984861 0
M  V30 5183 H 495.836 -4.78618 1.69963 0
M  V30 5184 H 495.766 -5.26598 -0.0146346 0
M  V30 5185 H 498.257 -3.75849 0.393138 0
M  V30 5186 H 498.57 -7.59582 1.42322 0
M  V30 5187 H 496.915 -6.8324 1.27311 0
M  V30 5188 H 500.106 -4.64608 0.570693 0
M  V30 5189 H 500.279 -6.39597 1.04019 0
M  V30 5190 N 493.685 -0.035106 -1.57561 0
M  V30 5191 C 494.633 0.962707 -2.11742 0
M  V30 5192 C 495.627 1.33296 -1.0454 0
M  V30 5193 O 496.833 1.31449 -1.22968 0
M  V30 5194 H 493.208 0.32826 -0.676572 0
M  V30 5195 H 495.179 0.48048 -2.94506 0
M  V30 5196 C 493.928 2.23388 -2.66445 0
M  V30 5197 H 493.251 1.95774 -3.48587 0
M  V30 5198 H 494.691 2.91402 -3.07995 0
M  V30 5199 C 493.15 2.96769 -1.59467 0
M  V30 5200 O 493.68 3.89105 -0.998 0
M  V30 5201 N 491.886 2.59212 -1.31369 0
M  V30 5202 H 491.433 1.84202 -1.80076 0
M  V30 5203 H 491.391 3.08618 -0.600173 0
M  V30 5204 N 495.163 1.55791 0.238111 0
M  V30 5205 C 496.093 1.94068 1.29846 0
M  V30 5206 C 497.074 0.806726 1.49753 0
M  V30 5207 O 498.259 1.06772 1.62214 0
M  V30 5208 C 495.389 2.24302 2.65153 0
M  V30 5209 C 494.343 3.40032 2.59927 0
M  V30 5210 C 493.669 3.55829 3.99111 0
M  V30 5211 C 494.969 4.75476 2.16148 0
M  V30 5212 H 496.663 2.82887 0.980563 0
M  V30 5213 H 494.209 1.36105 0.470253 0
M  V30 5214 H 496.162 2.4967 3.39475 0
M  V30 5215 H 494.886 1.32318 2.98596 0
M  V30 5216 H 493.545 3.14687 1.88063 0
M  V30 5217 H 493.193 2.6125 4.29834 0
M  V30 5218 H 492.893 4.3366 3.96501 0
M  V30 5219 H 494.417 3.83528 4.7512 0
M  V30 5220 H 495.831 5.00158 2.80205 0
M  V30 5221 H 494.228 5.56472 2.24631 0
M  V30 5222 H 495.298 4.71946 1.11333 0
M  V30 5223 N 496.642 -0.504142 1.49319 0
M  V30 5224 C 498.053 -1.08572 1.51885 0
M  V30 5225 C 498.404 -1.93842 0.303255 0
M  V30 5226 O 497.529 -2.0828 -0.58724 0
M  V30 5227 C 498.124 -1.97574 2.75227 0
M  V30 5228 C 496.683 -2.509 2.80581 0
M  V30 5229 C 495.83 -1.28447 2.45757 0
M  V30 5230 H 498.781 -0.288194 1.56061 0
M  V30 5231 H 498.802 -2.82219 2.55211 0
M  V30 5232 H 498.314 -1.35486 3.63683 0
M  V30 5233 H 496.415 -3.16636 1.96398 0
M  V30 5234 H 496.528 -2.88268 3.82673 0
M  V30 5235 H 494.892 -1.60868 1.97468 0
M  V30 5236 H 495.675 -0.68072 3.36483 0
M  V30 5237 N 498.12 -1.38341 -0.754957 0
M  V30 5238 C 499.348 -1.37704 -1.54419 0
M  V30 5239 C 499.763 0.0335243 -1.8877 0
M  V30 5240 O 499.12 0.999773 -1.52679 0
M  V30 5241 C 499.171 -2.23136 -2.84416 0
M  V30 5242 O 498.892 -3.58697 -2.51531 0
M  V30 5243 C 500.393 -2.30664 -3.78562 0
M  V30 5244 H 497.613 -0.471061 -0.477852 0
M  V30 5245 H 500.157 -1.81902 -0.934446 0
M  V30 5246 H 498.312 -1.82403 -3.41772 0
M  V30 5247 H 498.726 -4.03665 -3.34896 0
M  V30 5248 H 500.2 -2.9473 -4.66732 0
M  V30 5249 H 500.677 -1.3199 -4.18898 0
M  V30 5250 H 501.283 -2.71781 -3.27131 0
M  V30 5251 N 499.598 0.982988 -1.23187 0
M  V30 5252 C 500.847 1.71817 -1.05649 0
M  V30 5253 C 501.16 1.91315 0.407176 0
M  V30 5254 O 502.366 2.62256 0.702436 0
M  V30 5255 C 500.822 3.09188 -1.84203 0
M  V30 5256 C 500.43 2.97586 -3.34882 0
M  V30 5257 C 502.174 3.86684 -1.75146 0
M  V30 5258 C 500.081 4.30173 -4.05839 0
M  V30 5259 H 499.011 0.644258 -0.391724 0
M  V30 5260 H 501.662 1.09659 -1.4713 0
M  V30 5261 H 500.044 3.72087 -1.35527 0
M  V30 5262 H 501.218 2.43793 -3.91026 0
M  V30 5263 H 499.533 2.33567 -3.44725 0
M  V30 5264 H 502.13 4.84836 -2.25473 0
M  V30 5265 H 502.473 4.10136 -0.713737 0
M  V30 5266 H 503.006 3.30482 -2.21419 0
M  V30 5267 H 499.745 4.11918 -5.09906 0
M  V30 5268 H 499.265 4.83841 -3.54482 0
M  V30 5269 H 500.944 4.98873 -4.11989 0
M  V30 5270 N 501.076 1.04316 1.18135 0
M  V30 5271 C 502.024 0.630175 2.23901 0
M  V30 5272 C 503.018 -0.344254 1.65865 0
M  V30 5273 O 504.224 -0.211273 1.78756 0
M  V30 5274 H 500.599 0.185578 0.728742 0
M  V30 5275 H 502.57 1.53253 2.56039 0
M  V30 5276 C 501.319 0.011666 3.47698 0
M  V30 5277 H 500.642 0.752526 3.92654 0
M  V30 5278 H 502.082 -0.240046 4.2332 0
M  V30 5279 C 500.541 -1.23913 3.13285 0
M  V30 5280 O 501.071 -2.32959 3.27251 0
M  V30 5281 N 499.277 -1.13338 2.67587 0
M  V30 5282 H 498.824 -0.246006 2.56423 0
M  V30 5283 H 498.782 -1.97116 2.44934 0
M  V30 5284 N 502.554 -1.34406 0.822964 0
M  V30 5285 C 503.97 -1.51275 0.508727 0
M  V30 5286 C 504.17 -1.76776 -0.967083 0
M  V30 5287 O 503.226 -1.81871 -1.75155 0
M  V30 5288 C 504.539 -2.67765 1.36829 0
M  V30 5289 C 506.087 -2.81647 1.36542 0
M  V30 5290 C 506.562 -4.01181 2.20947 0
M  V30 5291 N 508.053 -4.08388 2.18571 0
M  V30 5292 C 508.788 -5.00036 2.80627 0
M  V30 5293 N 508.284 -5.96906 3.51674 0
M  V30 5294 N 510.077 -4.92908 2.70181 0
M  V30 5295 H 502.228 -1.16113 1.77852 0
M  V30 5296 H 504.491 -0.56947 0.757897 0
M  V30 5297 H 504.197 -2.55551 2.41633 0
M  V30 5298 H 504.071 -3.62779 1.03303 0
M  V30 5299 H 506.458 -2.93303 0.325163 0
M  V30 5300 H 506.539 -1.87443 1.74066 0
M  V30 5301 H 506.183 -3.90286 3.25022 0
M  V30 5302 H 506.113 -4.94599 1.80774 0
M  V30 5303 H 508.604 -3.39051 1.66891 0
M  V30 5304 H 508.917 -6.63468 3.96271 0
M  V30 5305 H 507.262 -5.9703 3.5578 0
M  V30 5306 H 510.453 -4.1619 2.14251 0
M  V30 5307 H 510.626 -5.64137 3.18831 0
M  V30 5308 N 504.032 -0.577932 -1.46621 0
M  V30 5309 C 504.962 0.145917 -2.33044 0
M  V30 5310 C 505.943 0.888412 -1.45056 0
M  V30 5311 O 507.128 0.864812 -1.73881 0
M  V30 5312 C 504.258 1.16322 -3.27241 0
M  V30 5313 C 503.212 0.535868 -4.24632 0
M  V30 5314 C 502.538 1.65929 -5.08303 0
M  V30 5315 C 503.838 -0.523861 -5.19666 0
M  V30 5316 H 505.532 -0.575636 -2.93814 0
M  V30 5317 H 503.078 -0.278272 -1.41286 0
M  V30 5318 H 505.031 1.67793 -3.86553 0
M  V30 5319 H 503.755 1.91498 -2.64567 0
M  V30 5320 H 502.414 0.0422759 -3.66576 0
M  V30 5321 H 502.062 2.40061 -4.42018 0
M  V30 5322 H 501.762 1.2452 -5.74255 0
M  V30 5323 H 503.286 2.17686 -5.70478 0
M  V30 5324 H 504.7 -0.0944059 -5.73222 0
M  V30 5325 H 503.097 -0.858 -5.93935 0
M  V30 5326 H 504.167 -1.41197 -4.63887 0
M  V30 5327 N 505.51 1.54411 -0.315457 0
M  V30 5328 C 506.42 2.27737 0.56329 0
M  V30 5329 C 507.436 1.31787 1.13614 0
M  V30 5330 O 508.612 1.64791 1.15784 0
M  V30 5331 C 505.677 3.01478 1.71207 0
M  V30 5332 C 504.738 4.12997 1.17185 0
M  V30 5333 C 503.971 4.83212 2.26588 0
M  V30 5334 O 504.194 4.52884 3.46775 0
M  V30 5335 O 503.128 5.70299 1.92463 0
M  V30 5336 H 506.954 3.03683 -0.0319614 0
M  V30 5337 H 504.539 1.49178 -0.0814188 0
M  V30 5338 H 506.421 3.47683 2.38106 0
M  V30 5339 H 505.096 2.28414 2.29366 0
M  V30 5340 H 504.003 3.71159 0.468174 0
M  V30 5341 H 505.336 4.8808 0.635501 0
M  V30 5342 N 506.988 0.0434614 1.5754 0
M  V30 5343 C 508.234 -0.632971 1.92669 0
M  V30 5344 C 508.567 -1.70947 0.921446 0
M  V30 5345 O 507.842 -1.94426 -0.0537202 0
M  V30 5346 C 508.125 -1.23619 3.38216 0
M  V30 5347 C 507.978 -0.168274 4.49485 0
M  V30 5348 C 509.297 -2.15008 3.84005 0
M  V30 5349 H 506.416 -0.228629 0.700641 0
M  V30 5350 H 509.058 0.103651 1.89717 0
M  V30 5351 H 507.208 -1.864 3.40863 0
M  V30 5352 H 508.88 0.463196 4.58969 0
M  V30 5353 H 507.123 0.504581 4.30855 0
M  V30 5354 H 507.794 -0.630218 5.48391 0
M  V30 5355 H 510.27 -1.62198 3.83185 0
M  V30 5356 H 509.146 -2.54161 4.86511 0
M  V30 5357 H 509.407 -3.04707 3.20322 0
M  V30 5358 N 508.466 -1.55915 -0.229846 0
M  V30 5359 C 509.714 -1.7819 -0.953565 0
M  V30 5360 C 510.035 -0.610504 -1.85197 0
M  V30 5361 O 509.305 0.372988 -1.92316 0
M  V30 5362 H 507.885 -0.657208 -0.355087 0
M  V30 5363 H 510.547 -1.9337 -0.243693 0
M  V30 5364 H 509.643 -2.70011 -1.56527 0
M  V30 5365 N 509.944 0.496216 -1.49584 0
M  V30 5366 C 511.192 1.24756 -1.58998 0
M  V30 5367 C 511.513 1.92968 -0.280775 0
M  V30 5368 O 510.783 1.82959 0.700198 0
M  V30 5369 H 509.363 0.463471 -0.585836 0
M  V30 5370 H 512.025 0.574678 -1.86235 0
M  V30 5371 H 511.121 2.00895 -2.38847 0
M  V30 5372 N 511.423 1.38739 0.74761 0
M  V30 5373 C 512.7 1.25791 1.49786 0
M  V30 5374 C 513.08 -0.138075 2.10648 0
M  V30 5375 O 512.428 -1.14815 1.9756 0
M  V30 5376 C 512.638 2.37265 2.55942 0
M  V30 5377 C 513.986 2.75978 3.22679 0
M  V30 5378 O 515.01 2.36621 2.6625 0
M  V30 5379 O 513.869 3.43867 4.24756 0
M  V30 5380 H 510.963 0.492251 0.664543 0
M  V30 5381 H 513.509 1.50582 0.782511 0
M  V30 5382 H 512.281 3.30644 2.0926 0
M  V30 5383 H 511.904 2.14071 3.35051 0
M  V30 5384 N 512.901 -0.976442 1.23707 0
M  V30 5385 C 514.15 -1.71254 1.06559 0
M  V30 5386 C 514.463 -1.91528 -0.397024 0
M  V30 5387 O 515.669 -2.62625 -0.688518 0
M  V30 5388 C 514.125 -3.08207 1.8584 0
M  V30 5389 C 513.733 -2.95806 3.36456 0
M  V30 5390 C 515.477 -3.85749 1.77194 0
M  V30 5391 C 513.384 -4.28015 4.08114 0
M  V30 5392 H 512.314 -0.642171 0.395136 0
M  V30 5393 H 514.965 -1.08877 1.4771 0
M  V30 5394 H 513.347 -3.71363 1.37498 0
M  V30 5395 H 514.521 -2.41716 3.92314 0
M  V30 5396 H 512.836 -2.31736 3.45959 0
M  V30 5397 H 515.433 -4.83633 2.28041 0
M  V30 5398 H 515.776 -4.09752 0.735477 0
M  V30 5399 H 516.309 -3.29303 2.23169 0
M  V30 5400 H 513.048 -4.09208 5.12083 0
M  V30 5401 H 512.568 -4.81955 3.57043 0
M  V30 5402 H 514.247 -4.96681 4.14629 0
M  V30 5403 N 514.379 -1.04941 -1.1758 0
M  V30 5404 C 515.311 -0.606174 -2.21039 0
M  V30 5405 C 516.324 0.328763 -1.59446 0
M  V30 5406 O 517.513 0.121895 -1.78083 0
M  V30 5407 C 514.613 0.133294 -3.38638 0
M  V30 5408 C 513.786 -0.811711 -4.29802 0
M  V30 5409 C 512.845 -0.113958 -5.26077 0
M  V30 5410 O 511.871 -0.747237 -5.64274 0
M  V30 5411 N 513.073 1.14953 -5.69004 0
M  V30 5412 H 515.838 -1.49606 -2.59689 0
M  V30 5413 H 513.399 -0.930997 -1.32454 0
M  V30 5414 H 515.391 0.610144 -4.00074 0
M  V30 5415 H 513.961 0.924816 -2.98607 0
M  V30 5416 H 513.181 -1.46824 -3.65837 0
M  V30 5417 H 514.469 -1.45326 -4.87604 0
M  V30 5418 H 513.867 1.68441 -5.40041 0
M  V30 5419 H 512.424 1.57049 -6.32597 0
M  V30 5420 N 515.857 1.33968 -0.830081 0
M  V30 5421 C 516.787 2.31911 -0.271911 0
M  V30 5422 C 517.768 1.58571 0.61556 0
M  V30 5423 O 518.953 1.86514 0.540946 0
M  V30 5424 C 516.083 3.42737 0.561146 0
M  V30 5425 C 515.037 4.27383 -0.229789 0
M  V30 5426 C 514.363 5.29742 0.726463 0
M  V30 5427 C 515.663 5.02 -1.44197 0
M  V30 5428 H 517.357 2.78844 -1.09025 0
M  V30 5429 H 514.903 1.34061 -0.52571 0
M  V30 5430 H 516.856 4.10276 0.961867 0
M  V30 5431 H 515.58 2.94471 1.41261 0
M  V30 5432 H 514.239 3.61456 -0.611964 0
M  V30 5433 H 513.887 4.77736 1.57408 0
M  V30 5434 H 513.587 5.87255 0.20142 0
M  V30 5435 H 515.111 6.00149 1.12489 0
M  V30 5436 H 516.525 5.62355 -1.11488 0
M  V30 5437 H 514.922 5.69122 -1.90317 0
M  V30 5438 H 515.992 4.31281 -2.2164 0
M  V30 5439 N 517.335 0.585699 1.46312 0
M  V30 5440 C 518.563 0.0781299 2.06752 0
M  V30 5441 C 518.978 -1.22812 1.43396 0
M  V30 5442 O 518.335 -1.74318 0.540314 0
M  V30 5443 C 518.386 -0.0911927 3.61385 0
M  V30 5444 O 518.107 1.16336 4.22371 0
M  V30 5445 C 519.608 -0.632765 4.38761 0
M  V30 5446 H 516.828 0.0588188 0.668417 0
M  V30 5447 H 519.372 0.807218 1.87894 0
M  V30 5448 H 517.527 -0.770514 3.7966 0
M  V30 5449 H 517.941 0.979082 5.15281 0
M  V30 5450 H 519.415 -0.70041 5.47538 0
M  V30 5451 H 519.892 -1.65039 4.07012 0
M  V30 5452 H 520.498 0.0117856 4.25298 0
M  V30 5453 N 518.813 -1.54241 0.323641 0
M  V30 5454 C 519.763 -2.21071 -0.557833 0
M  V30 5455 C 520.747 -1.19126 -1.08157 0
M  V30 5456 O 521.939 -1.44755 -1.01857 0
M  V30 5457 C 519.068 -2.97208 -1.71821 0
M  V30 5458 C 518.154 -4.06491 -1.20936 0
M  V30 5459 N 518.545 -5.04052 -0.420202 0
M  V30 5460 C 516.843 -4.20443 -1.48808 0
M  V30 5461 C 517.544 -5.81516 -0.146413 0
M  V30 5462 N 516.52 -5.38641 -0.732562 0
M  V30 5463 H 520.322 -2.93853 0.0523921 0
M  V30 5464 H 517.836 -1.61883 0.129502 0
M  V30 5465 H 519.833 -3.4357 -2.36146 0
M  V30 5466 H 518.493 -2.25947 -2.33191 0
M  V30 5467 H 519.504 -5.17862 -0.0630401 0
M  V30 5468 H 516.181 -3.60396 -2.10762 0
M  V30 5469 H 517.571 -6.70119 0.488895 0
M  V30 5470 N 520.291 -0.0518155 -1.57515 0
M  V30 5471 C 521.537 0.622745 -1.93002 0
M  V30 5472 C 521.87 1.70456 -0.930499 0
M  V30 5473 O 521.145 1.94452 0.0434086 0
M  V30 5474 C 521.428 1.21824 -3.38867 0
M  V30 5475 C 521.281 0.144434 -4.49568 0
M  V30 5476 C 522.6 2.12968 -3.8514 0
M  V30 5477 H 519.719 0.22491 -0.701844 0
M  V30 5478 H 522.361 -0.113711 -1.89659 0
M  V30 5479 H 520.511 1.8459 -3.41846 0
M  V30 5480 H 522.183 -0.48753 -4.58717 0
M  V30 5481 H 520.426 -0.527424 -4.30582 0
M  V30 5482 H 521.097 0.601127 -5.48717 0
M  V30 5483 H 523.573 1.60163 -3.8404 0
M  V30 5484 H 522.449 2.51578 -4.87852 0
M  V30 5485 H 522.71 3.03004 -3.21934 0
M  V30 5486 N 521.769 1.56035 0.221574 0
M  V30 5487 C 522.701 1.889 1.29805 0
M  V30 5488 C 523.714 0.777269 1.43047 0
M  V30 5489 O 524.903 1.05557 1.43945 0
M  V30 5490 C 522.003 2.0825 2.67367 0
M  V30 5491 C 521.176 3.39267 2.76073 0
M  V30 5492 C 520.235 3.48049 3.94649 0
M  V30 5493 O 519.261 4.2108 3.82988 0
M  V30 5494 N 520.463 2.79191 5.08953 0
M  V30 5495 H 523.228 2.81831 1.01938 0
M  V30 5496 H 520.789 1.5658 0.411612 0
M  V30 5497 H 522.781 2.11441 3.45072 0
M  V30 5498 H 521.351 1.21944 2.87834 0
M  V30 5499 H 520.571 3.48175 1.84846 0
M  V30 5500 H 521.859 4.25575 2.7886 0
M  V30 5501 H 521.257 2.19635 5.21322 0
M  V30 5502 H 519.814 2.88043 5.84701 0
M  V30 5503 N 523.247 -0.488276 1.49845 0
M  V30 5504 C 524.475 -1.26527 1.63702 0
M  V30 5505 C 524.89 -1.8618 0.313447 0
M  V30 5506 O 524.247 -1.68432 -0.702624 0
M  V30 5507 C 524.298 -2.3864 2.71538 0
M  V30 5508 O 524.019 -1.81437 3.98763 0
M  V30 5509 C 525.52 -3.29805 2.96215 0
M  V30 5510 H 522.74 -0.383295 0.55075 0
M  V30 5511 H 525.284 -0.584779 1.95961 0
M  V30 5512 H 523.439 -3.02496 2.42023 0
M  V30 5513 H 523.853 -2.55135 4.58265 0
M  V30 5514 H 525.327 -4.04722 3.75372 0
M  V30 5515 H 525.804 -3.87563 2.06619 0
M  V30 5516 H 526.41 -2.71703 3.27196 0
M  V30 5517 O 524.764 -1.48549 -0.633678 0
M  V30 5518 H 525.455 -1.447 -1.28769 0
M  V30 END ATOM
M  V30 BEGIN BOND
M  V30 END BOND
M  V30 END CTAB
M  END
$$$$
