drugbank_target|P08306 Cytochrome c oxidase subunit 2 (DB04147)
 OpenBabel12092120483D

  0  0  0     0  0            999 V3000
M  V30 BEGIN CTAB
M  V30 COUNTS 4599 4660 0 0 0
M  V30 BEGIN ATOM
M  V30 1 H -0.908 1.98254 -0.117106 0
M  V30 2 N 0 1.576 0 0
M  V30 3 C 0.933 2.03868 1.02534 0
M  V30 4 C 1.911 0.928543 1.3348 0
M  V30 5 O 3.095 1.19667 1.45644 0
M  V30 6 C 0.222 2.43627 2.35294 0
M  V30 7 C -0.732 3.65373 2.2001 0
M  V30 8 S 0.101 5.13292 1.52614 0
M  V30 9 C 1.257 5.56322 2.86805 0
M  V30 10 H 1.49 2.90518 0.631377 0
M  V30 11 H -0.977 1.52953 0.210867 0
M  V30 12 H 0.981 2.67203 3.11629 0
M  V30 13 H -0.358 1.57376 2.7183 0
M  V30 14 H -1.165 3.90944 3.18086 0
M  V30 15 H -1.563 3.418 1.51819 0
M  V30 16 H 0.729 5.58782 3.83104 0
M  V30 17 H 1.672 6.56266 2.65933 0
M  V30 18 H 2.08 4.83886 2.90714 0
M  V30 19 N 1.4781 -0.272755 1.55222 0
M  V30 20 C 2.4111 -1.3627 1.83046 0
M  V30 21 C 3.3891 -1.47536 0.683521 0
M  V30 22 O 4.5731 -1.64157 0.926545 0
M  V30 23 C 1.7001 -2.73908 1.99229 0
M  V30 24 C 0.7461 -2.79925 3.21783 0
M  V30 25 S 1.5791 -2.39146 4.79134 0
M  V30 26 C 2.7351 -3.78758 4.9829 0
M  V30 27 H 2.9681 -1.12464 2.75207 0
M  V30 28 H 0.5011 -0.472398 1.46996 0
M  V30 29 H 2.4591 -3.53171 2.09238 0
M  V30 30 H 1.1201 -2.94965 1.07956 0
M  V30 31 H 0.3131 -3.80946 3.29994 0
M  V30 32 H -0.0849 -2.08683 3.10367 0
M  V30 33 H 2.2071 -4.7403 4.84047 0
M  V30 34 H 3.1501 -3.75499 6.00338 0
M  V30 35 H 3.5581 -3.70072 4.26271 0
M  V30 36 N 2.9562 -1.48159 -0.537278 0
M  V30 37 C 3.9192 -1.61665 -1.62472 0
M  V30 38 C 4.9192 -0.490395 -1.5314 0
M  V30 39 O 6.1092 -0.755998 -1.5694 0
M  V30 40 C 3.2412 -1.57997 -3.02076 0
M  V30 41 H 4.4342 -2.58621 -1.51839 0
M  V30 42 H 1.9872 -1.36647 -0.758771 0
M  V30 43 H 2.7222 -0.624913 -3.18222 0
M  V30 44 H 2.5072 -2.39755 -3.10258 0
M  V30 45 H 3.9972 -1.70627 -3.81151 0
M  V30 46 N 4.4343 0.785586 -1.36625 0
M  V30 47 C 5.6833 1.53883 -1.30396 0
M  V30 48 C 5.9963 1.95271 0.113452 0
M  V30 49 O 7.2023 2.69858 0.298142 0
M  V30 50 C 5.6583 2.77808 -2.28802 0
M  V30 51 C 5.2663 2.43574 -3.75999 0
M  V30 52 C 7.0103 3.55783 -2.31558 0
M  V30 53 C 4.9173 3.63919 -4.66173 0
M  V30 54 H 3.8473 0.577678 -0.484566 0
M  V30 55 H 6.4983 0.861705 -1.62009 0
M  V30 56 H 4.8803 3.47339 -1.90188 0
M  V30 57 H 6.0543 1.81916 -4.23371 0
M  V30 58 H 4.3693 1.78803 -3.76056 0
M  V30 59 H 6.9663 4.45205 -2.96137 0
M  V30 60 H 7.3093 3.94644 -1.3252 0
M  V30 61 H 7.8423 2.93235 -2.68809 0
M  V30 62 H 4.5813 3.3015 -5.66287 0
M  V30 63 H 4.1013 4.2473 -4.23515 0
M  V30 64 H 5.7803 4.30901 -4.82632 0
M  V30 65 N 5.9124 1.20967 1.01018 0
M  V30 66 C 6.8754 0.965918 2.07853 0
M  V30 67 C 7.8754 -0.0610545 1.60684 0
M  V30 68 O 9.0654 0.175681 1.73312 0
M  V30 69 C 6.1974 0.455513 3.37843 0
M  V30 70 H 7.3904 1.91365 2.3091 0
M  V30 71 H 4.9434 1.02594 1.17916 0
M  V30 72 H 5.6784 -0.497381 3.20463 0
M  V30 73 H 5.4634 1.19622 3.73407 0
M  V30 74 H 6.9534 0.304667 4.16487 0
M  V30 75 N 7.3905 -1.2043 1.01659 0
M  V30 76 C 8.6185 -1.93777 0.725132 0
M  V30 77 C 9.0335 -1.74772 -0.714166 0
M  V30 78 O 8.3905 -1.06169 -1.4844 0
M  V30 79 C 8.4415 -3.45876 1.05129 0
M  V30 80 O 8.1625 -3.6426 2.43406 0
M  V30 81 C 9.6635 -4.36368 0.780891 0
M  V30 82 H 6.8835 -0.615901 0.266284 0
M  V30 83 H 9.4275 -1.52922 1.35776 0
M  V30 84 H 7.5825 -3.8461 0.464065 0
M  V30 85 H 7.9965 -4.58246 2.55169 0
M  V30 86 H 9.4705 -5.41743 1.05918 0
M  V30 87 H 9.9475 -4.38275 -0.284937 0
M  V30 88 H 10.5535 -4.03296 1.35027 0
M  V30 89 N 8.8686 -0.792821 -1.36206 0
M  V30 90 C 9.8156 -0.191653 -2.30003 0
M  V30 91 C 10.7856 0.666453 -1.52143 0
M  V30 92 O 11.9706 0.61442 -1.80636 0
M  V30 93 C 9.1106 0.664848 -3.38635 0
M  V30 94 C 8.2236 -0.212175 -4.31479 0
M  V30 95 C 7.3586 0.651022 -5.27196 0
M  V30 96 C 6.3976 -0.227247 -6.11678 0
M  V30 97 N 5.5346 0.595127 -6.99573 0
M  V30 98 H 10.3746 -0.996978 -2.80828 0
M  V30 99 H 7.9116 -0.503206 -1.38225 0
M  V30 100 H 9.8696 1.17645 -4.00269 0
M  V30 101 H 8.4996 1.43557 -2.89122 0
M  V30 102 H 7.5516 -0.841777 -3.70969 0
M  V30 103 H 8.8636 -0.888751 -4.90818 0
M  V30 104 H 8.0176 1.2283 -5.94136 0
M  V30 105 H 6.7566 1.36121 -4.68319 0
M  V30 106 H 5.7616 -0.816904 -5.43697 0
M  V30 107 H 6.9866 -0.93509 -6.72631 0
M  V30 108 H 4.9326 1.28955 -6.432 0
M  V30 109 H 4.8496 -0.0236952 -7.55996 0
M  V30 110 H 6.1176 1.15613 -7.70879 0
M  V30 111 N 10.3467 1.47872 -0.545128 0
M  V30 112 C 11.7627 1.5829 -0.204032 0
M  V30 113 C 11.9627 1.54529 1.29317 0
M  V30 114 O 11.0187 1.44232 2.07252 0
M  V30 115 C 12.3317 2.89304 -0.819987 0
M  V30 116 C 13.8797 3.02864 -0.790105 0
M  V30 117 C 14.3547 4.3656 -1.38491 0
M  V30 118 N 15.8457 4.43165 -1.34755 0
M  V30 119 C 16.5807 5.45153 -1.77753 0
M  V30 120 N 16.0767 6.54016 -2.2855 0
M  V30 121 N 17.8697 5.36125 -1.68897 0
M  V30 122 H 10.0207 1.4856 -1.51802 0
M  V30 123 H 12.2837 0.706305 -0.632327 0
M  V30 124 H 11.9897 2.97757 -1.87173 0
M  V30 125 H 11.8637 3.75957 -0.305915 0
M  V30 126 H 14.2507 2.94014 0.252913 0
M  V30 127 H 14.3317 2.17782 -1.34181 0
M  V30 128 H 13.9757 4.46164 -2.42693 0
M  V30 129 H 13.9057 5.20353 -0.808754 0
M  V30 130 H 16.3967 3.65083 -0.975855 0
M  V30 131 H 16.7097 7.27994 -2.59314 0
M  V30 132 H 15.0547 6.54938 -2.32553 0
M  V30 133 H 18.2457 4.49975 -1.28998 0
M  V30 134 H 18.4187 6.15472 -2.02726 0
M  V30 135 N 11.8248 0.280983 1.55075 0
M  V30 136 C 13.2408 -0.0729964 1.59433 0
M  V30 137 C 13.4408 -1.5411 1.29817 0
M  V30 138 O 12.4968 -2.29086 1.06187 0
M  V30 139 C 13.8098 0.306921 2.9913 0
M  V30 140 C 15.3578 0.254023 3.11968 0
M  V30 141 C 15.8328 0.608467 4.5394 0
M  V30 142 N 17.3238 0.560241 4.59799 0
M  V30 143 C 18.0588 0.80722 5.6769 0
M  V30 144 N 17.5548 1.11912 6.83701 0
M  V30 145 N 19.3478 0.735623 5.57266 0
M  V30 146 H 11.4988 1.238 1.7259 0
M  V30 147 H 13.7618 0.500547 0.805082 0
M  V30 148 H 13.4678 1.32816 3.25657 0
M  V30 149 H 13.3418 -0.349363 3.75579 0
M  V30 150 H 15.7288 -0.75794 2.852 0
M  V30 151 H 15.8098 0.944649 2.37718 0
M  V30 152 H 15.4538 1.61814 4.81434 0
M  V30 153 H 15.3838 -0.104013 5.26497 0
M  V30 154 H 17.8748 0.329288 3.76463 0
M  V30 155 H 18.1878 1.29409 7.61888 0
M  V30 156 H 16.5328 1.15695 6.85303 0
M  V30 157 H 19.7238 0.491752 4.6551 0
M  V30 158 H 19.8968 0.931482 6.4127 0
M  V30 159 N 13.3029 -1.57598 0.00835791 0
M  V30 160 C 14.5509 -1.90551 -0.6734 0
M  V30 161 C 14.8719 -0.883301 -1.73847 0
M  V30 162 O 14.1419 0.0781442 -1.95744 0
M  V30 163 H 12.7219 -0.703312 -0.251717 0
M  V30 164 H 15.3839 -1.94833 0.0512592 0
M  V30 165 H 14.4799 -2.9056 -1.13935 0
M  V30 166 N 14.781 0.264519 -1.55364 0
M  V30 167 C 16.027 0.99646 -1.76631 0
M  V30 168 C 16.36 1.85632 -0.570478 0
M  V30 169 O 15.635 1.89647 0.43175 0
M  V30 170 C 15.918 1.87187 -3.07625 0
M  V30 171 C 15.771 1.04138 -4.37579 0
M  V30 172 C 17.09 2.85749 -3.34717 0
M  V30 173 H 14.209 0.360841 -0.642622 0
M  V30 174 H 16.851 0.268218 -1.88097 0
M  V30 175 H 15.001 2.49279 -2.9798 0
M  V30 176 H 16.673 0.440517 -4.59192 0
M  V30 177 H 14.916 0.345115 -4.32425 0
M  V30 178 H 15.587 1.68729 -5.2558 0
M  V30 179 H 18.063 2.33793 -3.4421 0
M  V30 180 H 16.939 3.44136 -4.27623 0
M  V30 181 H 17.2 3.61311 -2.54768 0
M  V30 182 N 16.2591 1.48442 0.529413 0
M  V30 183 C 17.2221 1.62524 1.61612 0
M  V30 184 C 18.2221 0.498509 1.52877 0
M  V30 185 O 19.4121 0.76431 1.56537 0
M  V30 186 C 16.5441 1.59597 3.01233 0
M  V30 187 H 17.7371 2.59423 1.50465 0
M  V30 188 H 15.2901 1.37047 0.751514 0
M  V30 189 H 16.0251 0.641781 3.17886 0
M  V30 190 H 15.8101 2.41397 3.08982 0
M  V30 191 H 17.3001 1.72646 3.80241 0
M  V30 192 N 17.7372 -0.778329 1.37039 0
M  V30 193 C 18.7002 -1.87301 1.32102 0
M  V30 194 C 19.7002 -1.59198 0.226405 0
M  V30 195 O 20.8902 -1.67403 0.481861 0
M  V30 196 C 18.0222 -3.24309 1.05055 0
M  V30 197 H 19.2152 -1.93093 2.29467 0
M  V30 198 H 16.7682 -0.977358 1.21973 0
M  V30 199 H 17.5032 -3.24196 0.0819373 0
M  V30 200 H 17.2882 -3.46098 1.84279 0
M  V30 201 H 18.7782 -4.04382 1.04234 0
M  V30 202 N 19.2153 -1.21501 -1.00376 0
M  V30 203 C 20.4613 -1.03452 -1.74429 0
M  V30 204 C 20.7943 0.430764 -1.89362 0
M  V30 205 O 20.0693 1.31962 -1.42886 0
M  V30 206 C 20.3523 -1.73375 -3.15615 0
M  V30 207 C 20.2053 -3.27431 -3.08397 0
M  V30 208 C 21.5243 -1.47732 -4.14564 0
M  V30 209 H 18.6433 -0.377226 -0.633143 0
M  V30 210 H 21.2853 -1.49693 -1.17013 0
M  V30 211 H 19.4353 -1.34064 -3.64636 0
M  V30 212 H 21.1073 -3.76119 -2.67081 0
M  V30 213 H 19.3503 -3.5767 -2.45468 0
M  V30 214 H 20.0213 -3.71524 -4.08258 0
M  V30 215 H 22.4973 -1.8186 -3.74254 0
M  V30 216 H 21.3733 -1.99169 -5.11491 0
M  V30 217 H 21.6343 -0.407589 -4.40217 0
M  V30 218 N 20.6934 1.19889 -1.02296 0
M  V30 219 C 21.6264 2.21639 -0.543282 0
M  V30 220 C 22.6044 1.57275 0.412698 0
M  V30 221 O 23.7884 1.85568 0.331198 0
M  V30 222 C 20.9154 3.38057 0.208571 0
M  V30 223 C 19.9614 4.20751 -0.697933 0
M  V30 224 S 20.7944 4.89529 -2.17075 0
M  V30 225 C 21.9504 6.09363 -1.42923 0
M  V30 226 H 22.1834 2.61984 -1.40541 0
M  V30 227 H 19.7164 1.30041 -0.832387 0
M  V30 228 H 21.6744 4.05539 0.63624 0
M  V30 229 H 20.3354 2.96159 1.04635 0
M  V30 230 H 19.5284 5.03862 -0.117831 0
M  V30 231 H 19.1304 3.58556 -1.06366 0
M  V30 232 H 21.4224 6.73742 -0.712637 0
M  V30 233 H 22.3654 6.71845 -2.23673 0
M  V30 234 H 22.7734 5.56798 -0.929327 0
M  V30 235 N 22.1715 0.800033 1.35784 0
M  V30 236 C 23.3965 0.388511 2.03729 0
M  V30 237 C 23.8215 -0.990481 1.5991 0
M  V30 238 O 23.1795 -1.64013 0.772612 0
M  V30 239 C 23.2275 0.4726 3.5749 0
M  V30 240 O 22.3315 -0.51646 4.09153 0
M  V30 241 H 21.6725 0.163271 0.643614 0
M  V30 242 H 24.2025 1.0841 1.73518 0
M  V30 243 H 24.2125 0.34003 4.06581 0
M  V30 244 H 22.8875 1.47848 3.88734 0
M  V30 245 H 21.4645 -0.344673 3.71304 0
M  V30 246 N 23.6496 -1.47581 0.552962 0
M  V30 247 C 24.5796 -2.32762 -0.185451 0
M  V30 248 C 25.5606 -1.43527 -0.912905 0
M  V30 249 O 26.7456 -1.72388 -0.894201 0
M  V30 250 C 23.8756 -3.25219 -1.21859 0
M  V30 251 C 22.8296 -4.23661 -0.607864 0
M  V30 252 C 22.1556 -5.05413 -1.74533 0
M  V30 253 C 23.4556 -5.20481 0.435582 0
M  V30 254 H 25.1496 -2.94749 0.525684 0
M  V30 255 H 22.6956 -1.41738 0.254251 0
M  V30 256 H 24.6486 -3.8365 -1.7433 0
M  V30 257 H 23.3726 -2.61279 -1.95961 0
M  V30 258 H 22.0316 -3.66451 -0.104489 0
M  V30 259 H 21.6796 -4.3788 -2.47529 0
M  V30 260 H 21.3796 -5.72059 -1.34249 0
M  V30 261 H 22.9036 -5.66701 -2.27338 0
M  V30 262 H 24.3176 -5.733 -0.00290157 0
M  V30 263 H 22.7146 -5.95305 0.757067 0
M  V30 264 H 23.7846 -4.66217 1.33303 0
M  V30 265 N 25.1277 -0.289203 -1.54924 0
M  V30 266 C 26.3757 0.322879 -1.99504 0
M  V30 267 C 26.6967 1.55313 -1.1791 0
M  V30 268 O 25.9667 1.94001 -0.272097 0
M  V30 269 H 24.5467 0.122291 -0.736922 0
M  V30 270 H 27.2087 -0.397802 -1.90797 0
M  V30 271 H 26.3047 0.603061 -3.06218 0
M  V30 272 N 26.6058 1.57591 -0.0167156 0
M  V30 273 C 27.8518 1.91567 0.665582 0
M  V30 274 C 28.1848 0.892298 1.72487 0
M  V30 275 O 27.4598 -0.0867127 1.94307 0
M  V30 276 C 27.7428 3.36069 1.29342 0
M  V30 277 C 27.5958 4.49135 0.244541 0
M  V30 278 C 28.9148 3.803 2.21495 0
M  V30 279 H 26.0338 0.69666 0.240488 0
M  V30 280 H 28.6758 1.89866 -0.0714356 0
M  V30 281 H 26.8258 3.3765 1.92158 0
M  V30 282 H 28.4978 4.59689 -0.385228 0
M  V30 283 H 26.7408 4.3165 -0.431379 0
M  V30 284 H 27.4118 5.47242 0.723207 0
M  V30 285 H 29.8878 3.80377 1.68678 0
M  V30 286 H 28.7638 4.82127 2.62382 0
M  V30 287 H 29.0248 3.15104 3.101 0
M  V30 288 N 28.0839 -0.256276 1.55502 0
M  V30 289 C 29.0469 -1.30047 1.88734 0
M  V30 290 C 30.0469 -1.4154 0.763086 0
M  V30 291 O 31.2369 -1.40403 1.03115 0
M  V30 292 C 28.3689 -2.67953 2.10747 0
M  V30 293 H 29.5619 -1.01802 2.82093 0
M  V30 294 H 27.1149 -0.495134 1.4825 0
M  V30 295 H 27.8499 -3.01351 1.19825 0
M  V30 296 H 27.6349 -2.60993 2.92617 0
M  V30 297 H 29.1249 -3.43368 2.37673 0
M  V30 298 N 29.562 -1.4872 -0.521534 0
M  V30 299 C 30.79 -1.60843 -1.30142 0
M  V30 300 C 31.205 -0.271897 -1.86832 0
M  V30 301 O 30.562 0.739969 -1.66825 0
M  V30 302 C 30.613 -2.66155 -2.4463 0
M  V30 303 O 30.334 -3.94623 -1.90275 0
M  V30 304 C 31.835 -2.88795 -3.36322 0
M  V30 305 H 29.055 -0.542075 -0.395468 0
M  V30 306 H 31.599 -1.94609 -0.628285 0
M  V30 307 H 29.754 -2.35224 -3.07812 0
M  V30 308 H 30.168 -4.52468 -2.65279 0
M  V30 309 H 31.642 -3.66264 -4.12983 0
M  V30 310 H 32.119 -1.97934 -3.9207 0
M  V30 311 H 32.725 -3.21063 -2.78924 0
M  V30 312 N 31.0401 0.771051 -1.3745 0
M  V30 313 C 31.9731 1.89166 -1.27638 0
M  V30 314 C 32.9511 1.61842 -0.156782 0
M  V30 315 O 34.1351 1.85569 -0.331111 0
M  V30 316 C 31.2621 3.24405 -0.973621 0
M  V30 317 C 30.3081 3.70638 -2.1102 0
M  V30 318 S 31.1411 3.84228 -3.73 0
M  V30 319 C 32.2971 5.22313 -3.44876 0
M  V30 320 H 32.5301 1.972 -2.22485 0
M  V30 321 H 30.0631 0.932224 -1.23081 0
M  V30 322 H 32.0211 4.02514 -0.805766 0
M  V30 323 H 30.6821 3.14071 -0.0426279 0
M  V30 324 H 29.8751 4.68685 -1.85338 0
M  V30 325 H 29.4771 2.99632 -2.23822 0
M  V30 326 H 31.7691 6.07505 -2.99908 0
M  V30 327 H 32.7121 5.53008 -4.42253 0
M  V30 328 H 33.1201 4.90284 -2.79789 0
M  V30 329 N 32.5182 1.22032 0.997298 0
M  V30 330 C 33.7462 1.06841 1.7718 0
M  V30 331 C 34.1612 -0.381325 1.84909 0
M  V30 332 O 33.5182 -1.26437 1.31605 0
M  V30 333 C 33.5692 1.66814 3.20711 0
M  V30 334 O 33.2902 3.06116 3.13408 0
M  V30 335 C 34.7912 1.56838 4.14628 0
M  V30 336 H 32.0112 0.374782 0.556578 0
M  V30 337 H 34.5552 1.61532 1.2541 0
M  V30 338 H 32.7102 1.16196 3.69564 0
M  V30 339 H 33.1242 3.34926 4.0364 0
M  V30 340 H 34.5982 2.03532 5.13107 0
M  V30 341 H 35.0752 0.524155 4.36061 0
M  V30 342 H 35.6812 2.06741 3.7167 0
M  V30 343 N 33.9963 -1.19345 1.0293 0
M  V30 344 C 34.9593 -2.20793 0.615069 0
M  V30 345 C 35.9593 -1.57553 -0.321533 0
M  V30 346 O 37.1493 -1.73862 -0.108483 0
M  V30 347 C 34.2813 -3.40754 -0.0999222 0
M  V30 348 H 35.4743 -2.58955 1.51269 0
M  V30 349 H 33.0273 -1.3303 0.820534 0
M  V30 350 H 33.7623 -3.0811 -1.01187 0
M  V30 351 H 33.5473 -3.87889 0.57309 0
M  V30 352 H 35.0373 -4.15898 -0.376645 0
M  V30 353 N 35.4744 -0.807222 -1.35358 0
M  V30 354 C 36.7204 -0.388463 -1.99045 0
M  V30 355 C 37.0534 1.04184 -1.63888 0
M  V30 356 O 36.3284 1.72292 -0.902535 0
M  V30 357 C 36.6114 -0.572783 -3.55515 0
M  V30 358 C 36.4644 -2.04807 -4.00468 0
M  V30 359 C 37.7834 0.00114064 -4.401 0
M  V30 360 H 34.9024 -0.142619 -0.723069 0
M  V30 361 H 37.5444 -1.01687 -1.60498 0
M  V30 362 H 35.6944 -0.0378425 -3.88482 0
M  V30 363 H 37.3664 -2.64544 -3.77908 0
M  V30 364 H 35.6094 -2.54427 -3.51353 0
M  V30 365 H 36.2804 -2.12792 -5.09337 0
M  V30 366 H 38.7564 -0.455716 -4.13597 0
M  V30 367 H 37.6324 -0.157737 -5.48673 0
M  V30 368 H 37.8934 1.09488 -4.28328 0
M  V30 369 N 36.9525 1.47285 -0.560781 0
M  V30 370 C 38.3635 1.86258 -0.128343 0
M  V30 371 C 38.7145 1.46699 1.30284 0
M  V30 372 O 37.8395 0.871698 1.98067 0
M  V30 373 C 38.4345 3.38044 -0.22614 0
M  V30 374 C 36.9935 3.76096 0.151283 0
M  V30 375 C 36.1405 2.71335 -0.572084 0
M  V30 376 H 39.0915 1.38752 -0.770297 0
M  V30 377 H 39.1125 3.76441 0.554322 0
M  V30 378 H 38.6245 3.66806 -1.26788 0
M  V30 379 H 36.7255 3.52951 1.19399 0
M  V30 380 H 36.8385 4.78641 -0.209765 0
M  V30 381 H 35.2025 2.54696 -0.0147653 0
M  V30 382 H 35.9855 3.02938 -1.61504 0
M  V30 383 N 38.4306 0.297415 1.54768 0
M  V30 384 C 39.3936 -0.567375 2.22066 0
M  V30 385 C 40.3936 -1.06409 1.20556 0
M  V30 386 O 41.5836 -0.960691 1.45315 0
M  V30 387 C 38.7156 -1.78517 2.90421 0
M  V30 388 H 39.9086 0.0205534 2.99893 0
M  V30 389 H 37.4616 0.0482163 1.56226 0
M  V30 390 H 38.1966 -2.41303 2.16664 0
M  V30 391 H 37.9816 -1.43669 3.64831 0
M  V30 392 H 39.4716 -2.39964 3.41771 0
M  V30 393 N 39.9087 -1.5758 0.0250728 0
M  V30 394 C 40.8387 -2.13007 -0.956575 0
M  V30 395 C 41.8197 -1.0452 -1.342 0
M  V30 396 O 43.0047 -1.32332 -1.42133 0
M  V30 397 C 40.1347 -2.65386 -2.24026 0
M  V30 398 C 39.0887 -3.78623 -1.99571 0
M  V30 399 C 38.4147 -4.17414 -3.3417 0
M  V30 400 C 39.7147 -5.04867 -1.33814 0
M  V30 401 H 41.4087 -2.9528 -0.494991 0
M  V30 402 H 38.9547 -1.42042 -0.236651 0
M  V30 403 H 40.9077 -3.02794 -2.93076 0
M  V30 404 H 39.6317 -1.80268 -2.72343 0
M  V30 405 H 38.2907 -3.41646 -1.32941 0
M  V30 406 H 37.9387 -3.29284 -3.80238 0
M  V30 407 H 37.6387 -4.93719 -3.18615 0
M  V30 408 H 39.1627 -4.57402 -4.04495 0
M  V30 409 H 40.5767 -5.39888 -1.92857 0
M  V30 410 H 38.9737 -5.86144 -1.28669 0
M  V30 411 H 40.0437 -4.83904 -0.310561 0
M  V30 412 N 41.3868 0.248026 -1.55636 0
M  V30 413 C 42.3498 1.29044 -1.89421 0
M  V30 414 C 43.3498 1.41134 -0.770581 0
M  V30 415 O 44.5398 1.39854 -1.03858 0
M  V30 416 C 41.6718 2.66831 -2.12165 0
M  V30 417 H 42.8648 1.00305 -2.82629 0
M  V30 418 H 40.4178 0.487265 -1.48511 0
M  V30 419 H 41.1528 3.00711 -1.21422 0
M  V30 420 H 40.9378 2.59438 -2.93997 0
M  V30 421 H 42.4278 3.42103 -2.3949 0
M  V30 422 N 42.8649 1.48995 0.513639 0
M  V30 423 C 43.7969 1.60836 1.63293 0
M  V30 424 C 44.8099 0.491701 1.55197 0
M  V30 425 O 45.9989 0.763238 1.6136 0
M  V30 426 C 43.0989 1.53731 3.02027 0
M  V30 427 C 42.2719 2.80715 3.35437 0
M  V30 428 C 41.3309 2.66837 4.53525 0
M  V30 429 O 40.3569 3.40753 4.55934 0
M  V30 430 N 41.5589 1.77539 5.52684 0
M  V30 431 H 44.3239 2.57366 1.53566 0
M  V30 432 H 41.8849 1.45925 0.701259 0
M  V30 433 H 43.8769 1.42118 3.78926 0
M  V30 434 H 42.4469 0.651092 3.05744 0
M  V30 435 H 41.6669 3.06772 2.47557 0
M  V30 436 H 42.9549 3.64927 3.54551 0
M  V30 437 H 42.3529 1.16719 5.53528 0
M  V30 438 H 40.9099 1.71856 6.28736 0
M  V30 439 N 44.343 -0.763751 1.37857 0
M  V30 440 C 45.62 -1.51244 1.24035 0
M  V30 441 C 46 -2.10472 -0.162649 0
M  V30 442 O 45.348 -1.96206 -1.17112 0
M  V30 443 C 45.558 -2.58694 2.34261 0
M  V30 444 C 46.906 -3.25878 2.72193 0
M  V30 445 O 47.93 -2.68993 2.33497 0
M  V30 446 O 46.789 -4.2874 3.38887 0
M  V30 447 H 43.883 -0.670243 0.484462 0
M  V30 448 H 46.429 -0.800031 1.49658 0
M  V30 449 H 45.201 -2.13105 3.2818 0
M  V30 450 H 44.824 -3.37527 2.10146 0
M  V30 451 N 45.8211 -1.22559 -0.990812 0
M  V30 452 C 47.0671 -1.05297 -1.73322 0
M  V30 453 C 47.4001 0.410655 -1.89808 0
M  V30 454 O 46.6751 1.30439 -1.44277 0
M  V30 455 C 46.9581 -1.76713 -3.13759 0
M  V30 456 C 46.8111 -3.30684 -3.04907 0
M  V30 457 C 48.1301 -1.52121 -4.12974 0
M  V30 458 H 45.2491 -0.38392 -0.629106 0
M  V30 459 H 47.8911 -1.50926 -1.15418 0
M  V30 460 H 46.0411 -1.37924 -3.63193 0
M  V30 461 H 47.7131 -3.7893 -2.63077 0
M  V30 462 H 45.9561 -3.60253 -2.41661 0
M  V30 463 H 46.6271 -3.75833 -4.04294 0
M  V30 464 H 49.1031 -1.85819 -3.72304 0
M  V30 465 H 47.9791 -2.04582 -5.0935 0
M  V30 466 H 48.2401 -0.454257 -4.3976 0
M  V30 467 N 47.2992 1.18797 -1.03562 0
M  V30 468 C 48.2292 2.24472 -0.643019 0
M  V30 469 C 49.2102 1.66433 0.351283 0
M  V30 470 O 50.3952 1.92803 0.232505 0
M  V30 471 C 47.5252 3.473 4.24935e-05 0
M  V30 472 C 46.4792 4.18055 -0.917257 0
M  V30 473 C 45.8052 5.34519 -0.138941 0
M  V30 474 C 47.1052 4.72109 -2.23407 0
M  V30 475 H 48.7992 2.57566 -1.52643 0
M  V30 476 H 46.3452 1.23806 -0.735394 0
M  V30 477 H 48.2982 4.20426 0.286383 0
M  V30 478 H 47.0222 3.13424 0.918299 0
M  V30 479 H 45.6812 3.46821 -1.1879 0
M  V30 480 H 45.3292 4.96891 0.781562 0
M  V30 481 H 45.0292 5.82794 -0.750005 0
M  V30 482 H 46.5532 6.10438 0.1405 0
M  V30 483 H 47.9672 5.36955 -2.00879 0
M  V30 484 H 46.3642 5.30897 -2.79765 0
M  V30 485 H 47.4342 3.89807 -2.88407 0
M  V30 486 N 48.7773 0.814389 1.34928 0
M  V30 487 C 50.0253 0.397636 1.9815 0
M  V30 488 C 50.3463 -1.04069 1.64908 0
M  V30 489 O 49.6163 -1.72121 0.93548 0
M  V30 490 H 48.1963 0.144043 0.732981 0
M  V30 491 H 50.8583 1.04195 1.6471 0
M  V30 492 H 49.9543 0.509688 3.0791 0
M  V30 493 N 50.2554 -1.46986 0.568584 0
M  V30 494 C 51.5324 -1.95592 -0.0174074 0
M  V30 495 C 51.9124 -1.51124 -1.47393 0
M  V30 496 O 51.2604 -0.755329 -2.15655 0
M  V30 497 C 51.4704 -3.48719 0.139913 0
M  V30 498 C 52.8184 -4.246 0.000426376 0
M  V30 499 O 53.8424 -3.56135 0.0680316 0
M  V30 500 O 52.7014 -5.46302 -0.146988 0
M  V30 501 H 49.7954 -0.82498 -0.0577599 0
M  V30 502 H 52.3414 -1.57335 0.635909 0
M  V30 503 H 51.1134 -3.73927 1.15301 0
M  V30 504 H 50.7364 -3.93771 -0.550491 0
M  V30 505 N 51.7335 -0.305618 -1.54608 0
M  V30 506 C 52.6635 0.561482 -2.26649 0
M  V30 507 C 53.6445 1.13415 -1.26772 0
M  V30 508 O 54.8295 1.16262 -1.55553 0
M  V30 509 C 51.9595 1.73122 -3.01075 0
M  V30 510 C 50.9135 1.2887 -4.08138 0
M  V30 511 C 50.2395 2.54396 -4.70305 0
M  V30 512 C 51.5395 0.416578 -5.20636 0
M  V30 513 H 53.2335 -0.0393902 -2.99374 0
M  V30 514 H 50.7795 -0.020385 -1.43986 0
M  V30 515 H 52.7325 2.34396 -3.50195 0
M  V30 516 H 51.4565 2.3584 -2.25936 0
M  V30 517 H 50.1155 0.698991 -3.59875 0
M  V30 518 H 49.7635 3.15439 -3.918 0
M  V30 519 H 49.4635 2.25486 -5.42614 0
M  V30 520 H 50.9875 3.16464 -5.2219 0
M  V30 521 H 52.4015 0.935116 -5.65622 0
M  V30 522 H 50.7985 0.221046 -5.99693 0
M  V30 523 H 51.8685 -0.557162 -4.81688 0
M  V30 524 N 53.2116 1.57565 -0.0334293 0
M  V30 525 C 54.6226 1.79746 0.504798 0
M  V30 526 C 54.9736 0.944091 1.71992 0
M  V30 527 O 54.0986 0.155694 2.15839 0
M  V30 528 C 54.6936 3.25997 0.922567 0
M  V30 529 C 53.2526 3.49159 1.40588 0
M  V30 530 C 52.3996 2.74785 0.372633 0
M  V30 531 H 55.3506 1.56565 -0.259436 0
M  V30 532 H 55.3716 3.35945 1.78666 0
M  V30 533 H 54.8836 3.88081 0.0379825 0
M  V30 534 H 52.9846 2.92332 2.31025 0
M  V30 535 H 53.0976 4.57873 1.41028 0
M  V30 536 H 51.4616 2.40391 0.841672 0
M  V30 537 H 52.2446 3.39587 -0.503559 0
M  V30 538 N 54.6897 -0.239769 1.55765 0
M  V30 539 C 55.9357 -0.968234 1.78194 0
M  V30 540 C 56.2687 -1.84701 0.599938 0
M  V30 541 O 55.5437 -1.9031 -0.401524 0
M  V30 542 C 55.8267 -1.8227 3.10564 0
M  V30 543 C 55.6797 -0.971633 4.3918 0
M  V30 544 C 56.9987 -2.80388 3.39221 0
M  V30 545 H 54.1177 -0.350572 0.648281 0
M  V30 546 H 56.7597 -0.238259 1.885 0
M  V30 547 H 54.9097 -2.44507 3.01908 0
M  V30 548 H 56.5817 -0.367408 4.59835 0
M  V30 549 H 54.8247 -0.276276 4.32919 0
M  V30 550 H 55.4957 -1.60346 5.28198 0
M  V30 551 H 57.9717 -2.28287 3.47885 0
M  V30 552 H 56.8477 -3.3729 4.33044 0
M  V30 553 H 57.1087 -3.57212 2.60484 0
M  V30 554 N 56.1678 -1.49265 -0.50573 0
M  V30 555 C 57.4168 -1.57761 -1.25675 0
M  V30 556 C 57.7298 -0.267371 -1.93764 0
M  V30 557 O 58.9358 -0.230827 -2.70517 0
M  V30 558 C 57.3918 -2.78332 -2.28165 0
M  V30 559 C 56.9998 -4.16096 -1.66037 0
M  V30 560 C 58.7438 -2.96155 -3.04125 0
M  V30 561 C 56.6508 -5.27895 -2.6661 0
M  V30 562 H 55.5808 -0.587391 -0.472745 0
M  V30 563 H 58.2318 -1.75644 -0.53118 0
M  V30 564 H 56.6138 -2.53934 -3.03865 0
M  V30 565 H 57.7878 -4.50612 -0.963622 0
M  V30 566 H 56.1028 -4.03591 -1.02484 0
M  V30 567 H 58.6998 -3.76849 -3.79327 0
M  V30 568 H 59.0428 -2.06534 -3.61455 0
M  V30 569 H 59.5758 -3.2057 -2.35541 0
M  V30 570 H 56.3148 -6.1956 -2.14068 0
M  V30 571 H 55.8348 -4.97839 -3.34539 0
M  V30 572 H 57.5138 -5.57031 -3.29129 0
M  V30 573 N 57.6459 0.756429 -1.3826 0
M  V30 574 C 58.8939 1.51248 -1.34047 0
M  V30 575 C 59.2149 1.94875 0.0698372 0
M  V30 576 O 58.4849 1.67436 1.01696 0
M  V30 577 H 57.0649 0.561018 -0.493222 0
M  V30 578 H 59.7269 0.899347 -1.7291 0
M  V30 579 H 58.8229 2.40472 -1.98947 0
M  V30 580 N 59.124 1.23083 0.984299 0
M  V30 581 C 60.071 1.00854 2.07598 0
M  V30 582 C 61.041 -0.0726709 1.65941 0
M  V30 583 O 62.226 0.0786535 1.90638 0
M  V30 584 C 59.366 0.601645 3.39815 0
M  V30 585 C 58.479 1.75456 3.94765 0
M  V30 586 C 57.614 1.29482 5.15177 0
M  V30 587 C 56.653 2.41873 5.62284 0
M  V30 588 N 55.79 1.96885 6.73929 0
M  V30 589 H 60.63 1.943 2.25946 0
M  V30 590 H 58.167 0.968001 1.10762 0
M  V30 591 H 60.125 0.346854 4.15756 0
M  V30 592 H 58.755 -0.295803 3.21442 0
M  V30 593 H 57.807 2.12346 3.15616 0
M  V30 594 H 59.119 2.59965 4.25699 0
M  V30 595 H 58.273 0.997923 5.98437 0
M  V30 596 H 57.012 0.420046 4.85888 0
M  V30 597 H 56.017 2.72342 4.77608 0
M  V30 598 H 57.242 3.29881 5.93595 0
M  V30 599 H 55.188 1.11782 6.46406 0
M  V30 600 H 55.105 2.74956 7.04227 0
M  V30 601 H 56.373 1.70289 7.60672 0
M  V30 602 N 60.6021 -1.18246 1.0419 0
M  V30 603 C 62.0131 -1.69914 0.773698 0
M  V30 604 C 62.3641 -1.83085 -0.705297 0
M  V30 605 O 61.4891 -1.51123 -1.5489 0
M  V30 606 C 62.0841 -3.08619 1.39784 0
M  V30 607 C 60.6431 -3.57494 1.17792 0
M  V30 608 C 59.7901 -2.34013 1.48773 0
M  V30 609 H 62.7411 -1.02904 1.20816 0
M  V30 610 H 62.7621 -3.71958 0.801714 0
M  V30 611 H 62.2741 -2.99001 2.47426 0
M  V30 612 H 60.3751 -3.72406 0.120295 0
M  V30 613 H 60.4881 -4.40852 1.87581 0
M  V30 614 H 58.8521 -2.37986 0.907463 0
M  V30 615 H 59.6351 -2.27013 2.57527 0
M  V30 616 N 62.0802 -0.821533 -1.34494 0
M  V30 617 C 63.3262 -0.409552 -1.98622 0
M  V30 618 C 63.6592 1.0244 -1.64984 0
M  V30 619 O 62.9342 1.71325 -0.920758 0
M  V30 620 C 63.2172 -0.610458 -3.54888 0
M  V30 621 C 63.0702 -2.09043 -3.98273 0
M  V30 622 C 64.3892 -0.0455379 -4.40076 0
M  V30 623 H 61.5082 -0.15028 -0.721516 0
M  V30 624 H 64.1502 -1.03384 -1.59411 0
M  V30 625 H 62.3002 -0.079044 -3.8842 0
M  V30 626 H 63.9722 -2.68537 -3.75081 0
M  V30 627 H 62.2152 -2.58139 -3.48635 0
M  V30 628 H 62.8862 -2.18182 -5.07051 0
M  V30 629 H 65.3622 -0.499557 -4.1309 0
M  V30 630 H 64.2382 -0.215922 -5.48475 0
M  V30 631 H 64.4992 1.04939 -4.29465 0
M  V30 632 N 63.5583 1.46682 -0.576371 0
M  V30 633 C 64.5063 2.31953 0.17335 0
M  V30 634 C 65.5003 1.44098 0.89062 0
M  V30 635 O 66.7063 1.60759 0.809728 0
M  V30 636 H 63.0813 0.748273 0.0747727 0
M  V30 637 H 65.0523 2.93007 -0.564738 0
M  V30 638 C 63.8013 3.27142 1.17786 0
M  V30 639 H 63.1243 3.94719 0.635361 0
M  V30 640 H 64.5643 3.896 1.67296 0
M  V30 641 C 63.0233 2.52036 2.23561 0
M  V30 642 O 63.5533 2.27877 3.3081 0
M  V30 643 N 61.7593 2.12709 1.97998 0
M  V30 644 H 61.3063 2.32557 1.10792 0
M  V30 645 H 61.2643 1.62776 2.68982 0
M  V30 646 N 65.0364 0.313813 1.54444 0
M  V30 647 C 66.2844 -0.291099 1.99993 0
M  V30 648 C 66.6054 -1.53418 1.20366 0
M  V30 649 O 65.8754 -1.93544 0.302927 0
M  V30 650 H 64.4554 -0.110552 0.738774 0
M  V30 651 H 67.1174 0.428106 1.9014 0
M  V30 652 H 66.2134 -0.554268 3.07139 0
M  V30 653 N 66.5145 -1.57545 0.0417849 0
M  V30 654 C 67.7625 -1.91937 -0.632829 0
M  V30 655 C 68.0835 -0.919978 -1.71934 0
M  V30 656 O 67.3535 0.0366064 -1.95866 0
M  V30 657 H 65.9335 -0.708493 -0.236742 0
M  V30 658 H 68.5955 -1.9468 0.0925745 0
M  V30 659 H 67.6915 -2.92912 -1.07746 0
M  V30 660 N 67.9926 0.231505 -1.5589 0
M  V30 661 C 68.9256 1.31369 -1.86595 0
M  V30 662 C 69.9036 1.45671 -0.722397 0
M  V30 663 O 71.0876 1.61642 -0.969743 0
M  V30 664 C 68.2146 2.68529 -2.06421 0
M  V30 665 C 67.2606 2.71295 -3.29092 0
M  V30 666 S 68.0936 2.26358 -4.85306 0
M  V30 667 C 69.2496 3.65414 -5.08157 0
M  V30 668 H 69.4826 1.05128 -2.78092 0
M  V30 669 H 67.0156 0.433259 -1.48197 0
M  V30 670 H 68.9736 3.47499 -2.18528 0
M  V30 671 H 67.6346 2.91999 -1.15738 0
M  V30 672 H 66.8276 3.72063 -3.39978 0
M  V30 673 H 66.4296 2.0038 -3.15791 0
M  V30 674 H 68.7216 4.6103 -4.96445 0
M  V30 675 H 69.6646 3.5945 -6.10083 0
M  V30 676 H 70.0726 3.5864 -4.35933 0
M  V30 677 N 69.4707 1.49531 0.497807 0
M  V30 678 C 70.4187 1.66926 1.61983 0
M  V30 679 C 71.4127 0.535167 1.60724 0
M  V30 680 O 72.6187 0.714896 1.65195 0
M  V30 681 H 68.9937 0.526415 0.537021 0
M  V30 682 H 70.9647 2.61098 1.44465 0
M  V30 683 C 69.7137 1.75602 3.00099 0
M  V30 684 H 69.0367 2.62244 3.01775 0
M  V30 685 H 70.4767 1.91807 3.78135 0
M  V30 686 C 68.9357 0.501543 3.33146 0
M  V30 687 O 69.4657 -0.371342 3.9998 0
M  V30 688 N 67.6717 0.363531 2.88317 0
M  V30 689 H 67.2187 1.07485 2.34104 0
M  V30 690 H 67.1767 -0.474728 3.10795 0
M  V30 691 N 70.9488 -0.749086 1.3866 0
M  V30 692 C 72.1958 -1.50833 1.35114 0
M  V30 693 C 72.5238 -1.94415 -0.0574049 0
M  V30 694 O 71.7788 -1.66065 -1.03541 0
M  V30 695 C 72.0778 -2.7712 2.25697 0
M  V30 696 C 71.7438 -2.52477 3.73585 0
M  V30 697 C 70.4058 -2.45466 4.13884 0
M  V30 698 C 72.7578 -2.31066 4.67181 0
M  V30 699 C 70.0858 -2.15064 5.45861 0
M  V30 700 C 72.4378 -2.02183 5.9942 0
M  V30 701 C 71.1018 -1.93631 6.38798 0
M  V30 702 H 70.3718 -0.551936 0.494416 0
M  V30 703 H 73.0188 -0.860979 1.71054 0
M  V30 704 H 71.3238 -3.46528 1.82827 0
M  V30 705 H 73.0208 -3.35096 2.20254 0
M  V30 706 H 69.6108 -2.58807 3.41638 0
M  V30 707 H 73.7948 -2.35459 4.3689 0
M  V30 708 H 69.0508 -2.06954 5.75308 0
M  V30 709 H 73.2248 -1.8462 6.71482 0
M  V30 710 H 70.8518 -1.69839 7.40985 0
M  V30 711 N 72.4269 -1.23603 -0.977757 0
M  V30 712 C 73.3589 -0.977369 -2.07317 0
M  V30 713 C 74.3719 0.0495845 -1.62724 0
M  V30 714 O 75.5609 -0.186261 -1.77526 0
M  V30 715 C 72.6609 -0.451216 -3.35883 0
M  V30 716 C 71.8339 -1.53896 -4.09432 0
M  V30 717 C 70.8929 -1.01721 -5.16274 0
M  V30 718 O 69.9189 -1.70676 -5.43009 0
M  V30 719 N 71.1209 0.153594 -5.80297 0
M  V30 720 H 73.8859 -1.92047 -2.30082 0
M  V30 721 H 71.4469 -1.14497 -1.14465 0
M  V30 722 H 73.4389 -0.0871574 -4.04606 0
M  V30 723 H 72.0089 0.397368 -3.10064 0
M  V30 724 H 71.2289 -2.07566 -3.35127 0
M  V30 725 H 72.5169 -2.27037 -4.55337 0
M  V30 726 H 71.9149 0.730323 -5.60966 0
M  V30 727 H 70.4719 0.458892 -6.50183 0
M  V30 728 N 73.905 1.17692 -1.04816 0
M  V30 729 C 75.316 1.69501 -0.782698 0
M  V30 730 C 75.667 1.83456 0.695577 0
M  V30 731 O 74.792 1.51942 1.54086 0
M  V30 732 C 75.387 3.07874 -1.41419 0
M  V30 733 C 73.946 3.56864 -1.19686 0
M  V30 734 C 73.093 2.3322 -1.50012 0
M  V30 735 H 76.044 1.02262 -1.2136 0
M  V30 736 H 76.065 3.71528 -0.821428 0
M  V30 737 H 75.577 2.97685 -2.49009 0
M  V30 738 H 73.678 3.72337 -0.140043 0
M  V30 739 H 73.791 4.39851 -1.89916 0
M  V30 740 H 72.155 2.37501 -0.920071 0
M  V30 741 H 72.938 2.25644 -2.58727 0
M  V30 742 N 75.3831 0.828654 1.34056 0
M  V30 743 C 76.3461 0.259927 2.27721 0
M  V30 744 C 77.3461 -0.565478 1.50529 0
M  V30 745 O 78.5361 -0.38075 1.69988 0
M  V30 746 C 75.6681 -0.634944 3.34935 0
M  V30 747 H 76.8611 1.0863 2.79534 0
M  V30 748 H 74.4141 0.600951 1.44285 0
M  V30 749 H 75.1491 -1.48416 2.88346 0
M  V30 750 H 74.9341 -0.0444999 3.92075 0
M  V30 751 H 76.4241 -1.02648 4.04788 0
M  V30 752 N 76.8612 -1.46375 0.584142 0
M  V30 753 C 78.0862 -2.07268 0.0740405 0
M  V30 754 C 78.5112 -1.42979 -1.22223 0
M  V30 755 O 77.8692 -0.514092 -1.73859 0
M  V30 756 C 77.9172 -3.60518 -0.0767769 0
M  V30 757 O 77.0212 -3.96533 -1.13292 0
M  V30 758 H 76.3622 -0.660961 0.0634524 0
M  V30 759 H 78.8922 -1.87991 0.807492 0
M  V30 760 H 78.9022 -4.07021 -0.282489 0
M  V30 761 H 77.5772 -4.06702 0.86986 0
M  V30 762 H 76.1542 -3.61738 -0.905553 0
M  V30 763 N 78.3393 -0.321999 -1.54275 0
M  V30 764 C 79.5643 0.285791 -2.05422 0
M  V30 765 C 79.9893 1.45124 -1.19669 0
M  V30 766 O 79.3473 1.80132 -0.205441 0
M  V30 767 C 79.3953 0.69956 -3.53749 0
M  V30 768 O 78.4993 1.8021 -3.70942 0
M  V30 769 H 77.8403 0.0518962 -0.661969 0
M  V30 770 H 80.3703 -0.469954 -1.9913 0
M  V30 771 H 80.3803 0.982649 -3.9599 0
M  V30 772 H 79.0553 -0.152864 -4.15619 0
M  V30 773 H 77.6323 1.51794 -3.40607 0
M  V30 774 N 79.8174 1.5752 -0.0501392 0
M  V30 775 C 81.2284 1.80271 0.485705 0
M  V30 776 C 81.5794 0.96228 1.70981 0
M  V30 777 O 80.7044 0.178578 2.15662 0
M  V30 778 C 81.2994 3.26957 0.887938 0
M  V30 779 C 79.8584 3.5063 1.36877 0
M  V30 780 C 79.0054 2.75165 0.343468 0
M  V30 781 H 81.9564 1.56281 -0.276028 0
M  V30 782 H 81.9774 3.37821 1.75093 0
M  V30 783 H 81.4894 3.881 -0.0031809 0
M  V30 784 H 79.5904 2.94766 2.27911 0
M  V30 785 H 79.7034 4.59343 1.36164 0
M  V30 786 H 78.0674 2.4127 0.816128 0
M  V30 787 H 78.8504 3.39034 -0.539548 0
M  V30 788 N 81.2955 -0.223234 1.56011 0
M  V30 789 C 82.2255 -1.27988 1.95298 0
M  V30 790 C 83.2065 -1.48976 0.820979 0
M  V30 791 O 84.3915 -1.61188 1.08315 0
M  V30 792 C 81.5215 -2.63 2.26822 0
M  V30 793 C 80.4755 -2.56671 3.42497 0
M  V30 794 C 79.8015 -3.95697 3.59622 0
M  V30 795 C 81.1015 -2.11601 4.77517 0
M  V30 796 H 82.7955 -0.953525 2.8381 0
M  V30 797 H 80.3415 -0.457244 1.36548 0
M  V30 798 H 82.2945 -3.37077 2.52898 0
M  V30 799 H 81.0185 -2.9732 1.35161 0
M  V30 800 H 79.6775 -1.85051 3.16467 0
M  V30 801 H 79.3255 -4.27322 2.6534 0
M  V30 802 H 79.0255 -3.92345 4.37424 0
M  V30 803 H 80.5495 -4.71438 3.88044 0
M  V30 804 H 81.9635 -2.7542 5.02809 0
M  V30 805 H 80.3605 -2.19311 5.5859 0
M  V30 806 H 81.4305 -1.06824 4.72987 0
M  V30 807 N 82.7736 -1.49793 -0.48987 0
M  V30 808 C 83.7366 -1.66752 -1.57246 0
M  V30 809 C 84.7366 -0.538867 -1.51502 0
M  V30 810 O 85.9266 -0.805545 -1.54456 0
M  V30 811 C 83.0586 -1.67528 -2.96896 0
M  V30 812 H 84.2516 -2.63321 -1.43534 0
M  V30 813 H 81.8046 -1.38992 -0.714914 0
M  V30 814 H 82.5396 -0.725837 -3.16073 0
M  V30 815 H 82.3246 -2.49504 -3.02473 0
M  V30 816 H 83.8146 -1.82667 -3.7553 0
M  V30 817 N 84.2517 0.741722 -1.39055 0
M  V30 818 C 85.2017 1.84661 -1.33732 0
M  V30 819 C 86.1857 1.59397 -0.219401 0
M  V30 820 O 87.3777 1.71015 -0.456375 0
M  V30 821 C 84.5067 3.22512 -1.17647 0
M  V30 822 C 83.5927 3.53628 -2.34112 0
M  V30 823 N 83.9837 3.55723 -3.59576 0
M  V30 824 C 82.2817 3.83956 -2.26923 0
M  V30 825 C 82.9827 3.84443 -4.36553 0
M  V30 826 N 81.9587 4.01877 -3.66055 0
M  V30 827 H 85.7607 1.84576 -2.28711 0
M  V30 828 H 83.2747 0.939647 -1.32455 0
M  V30 829 H 85.2717 4.01597 -1.11917 0
M  V30 830 H 83.9317 3.2384 -0.236124 0
M  V30 831 H 84.9427 3.37196 -3.93089 0
M  V30 832 H 81.6197 3.92929 -1.41113 0
M  V30 833 H 83.0097 3.92588 -5.45274 0
M  V30 834 N 85.7298 1.2412 0.971189 0
M  V30 835 C 87.0068 0.986867 1.6888 0
M  V30 836 C 87.3868 -0.491857 2.0529 0
M  V30 837 O 86.7348 -1.46531 1.75331 0
M  V30 838 C 86.9448 1.9063 2.92338 0
M  V30 839 C 88.2928 2.17515 3.64654 0
M  V30 840 O 89.3168 1.88254 3.02388 0
M  V30 841 O 88.1758 2.6719 4.7673 0
M  V30 842 H 85.2698 0.372944 0.738134 0
M  V30 843 H 87.8158 1.35203 1.02559 0
M  V30 844 H 86.5878 2.90552 2.62097 0
M  V30 845 H 86.2108 1.54408 3.66393 0
M  V30 846 N 87.2079 -1.17134 1.05439 0
M  V30 847 C 88.1399 -2.2078 0.615539 0
M  V30 848 C 89.1529 -1.59584 -0.322001 0
M  V30 849 O 90.3419 -1.78133 -0.114344 0
M  V30 850 C 87.4419 -3.38691 -0.118938 0
M  V30 851 C 86.6149 -4.29454 0.829924 0
M  V30 852 C 85.6739 -5.26024 0.136258 0
M  V30 853 O 84.6999 -5.63952 0.77115 0
M  V30 854 N 85.9019 -5.69487 -1.1254 0
M  V30 855 H 88.6669 -2.59052 1.50705 0
M  V30 856 H 86.2279 -1.32058 0.936603 0
M  V30 857 H 88.2199 -4.00329 -0.593179 0
M  V30 858 H 86.7899 -2.98996 -0.91215 0
M  V30 859 H 86.0099 -3.65211 1.48373 0
M  V30 860 H 87.2979 -4.86984 1.47392 0
M  V30 861 H 86.6959 -5.4075 -1.6615 0
M  V30 862 H 85.2529 -6.33257 -1.54366 0
M  V30 863 N 88.686 -0.835752 -1.33615 0
M  V30 864 C 89.618 -0.224151 -2.28101 0
M  V30 865 C 90.631 0.593331 -1.51603 0
M  V30 866 O 91.82 0.420911 -1.73466 0
M  V30 867 C 88.92 0.703309 -3.31522 0
M  V30 868 C 88.093 -0.0741528 -4.37337 0
M  V30 869 C 87.152 0.776176 -5.20444 0
M  V30 870 O 86.178 0.216506 -5.68788 0
M  V30 871 N 87.38 2.09401 -5.41416 0
M  V30 872 H 90.145 -1.03598 -2.81225 0
M  V30 873 H 87.706 -0.69392 -1.46275 0
M  V30 874 H 89.698 1.27707 -3.84022 0
M  V30 875 H 88.268 1.41585 -2.78698 0
M  V30 876 H 87.488 -0.82928 -3.85378 0
M  V30 877 H 88.776 -0.608863 -5.05144 0
M  V30 878 H 88.174 2.57229 -5.03835 0
M  V30 879 H 86.731 2.61633 -5.96985 0
M  V30 880 N 90.1641 1.46063 -0.591896 0
M  V30 881 C 91.4101 2.03203 -0.0894879 0
M  V30 882 C 91.7651 1.45407 1.25994 0
M  V30 883 O 91.0581 0.61326 1.8152 0
M  V30 884 C 91.2521 3.57391 0.0249813 0
M  V30 885 C 91.0811 4.30142 -1.3118 0
M  V30 886 C 89.8511 4.68688 -1.88838 0
M  V30 887 C 92.0491 4.63098 -2.23708 0
M  V30 888 N 90.0311 5.26228 -3.1616 0
M  V30 889 C 91.4021 5.21305 -3.3562 0
M  V30 890 C 93.4571 4.45031 -2.23274 0
M  V30 891 C 92.1601 5.63351 -4.47245 0
M  V30 892 C 94.1861 4.881 -3.33935 0
M  V30 893 C 93.5481 5.46386 -4.44569 0
M  V30 894 H 89.6471 0.778323 -0.0757431 0
M  V30 895 H 92.2311 1.78094 -0.78681 0
M  V30 896 H 90.4021 3.82195 0.69149 0
M  V30 897 H 92.1341 4.0118 0.532613 0
M  V30 898 H 88.8891 4.5174 -1.42223 0
M  V30 899 H 89.3131 5.59512 -3.8115 0
M  V30 900 H 93.9551 3.99295 -1.39008 0
M  V30 901 H 91.6731 6.08061 -5.32247 0
M  V30 902 H 95.2591 4.75866 -3.34728 0
M  V30 903 H 94.1391 5.79102 -5.28782 0
M  V30 904 N 91.6422 0.330177 1.54103 0
M  V30 905 C 92.5722 -0.525353 2.27513 0
M  V30 906 C 93.5532 -1.11383 1.2856 0
M  V30 907 O 94.7382 -1.13773 1.57383 0
M  V30 908 C 91.8682 -1.6831 3.03791 0
M  V30 909 C 90.8222 -1.2236 4.10137 0
M  V30 910 C 90.1482 -2.46882 4.74293 0
M  V30 911 C 91.4482 -0.333697 5.21233 0
M  V30 912 H 93.1422 0.087013 2.99274 0
M  V30 913 H 90.6882 0.0432893 1.43935 0
M  V30 914 H 92.6412 -2.28795 3.5388 0
M  V30 915 H 91.3652 -2.32216 2.29659 0
M  V30 916 H 90.0242 -0.64165 3.60941 0
M  V30 917 H 89.6722 -3.09165 3.96769 0
M  V30 918 H 89.3722 -2.16825 5.46133 0
M  V30 919 H 90.8962 -3.08117 5.27159 0
M  V30 920 H 92.3102 -0.845013 5.67038 0
M  V30 921 H 90.7072 -0.125612 5.99969 0
M  V30 922 H 91.7772 0.633724 4.80741 0
M  V30 923 N 93.1203 -1.57491 0.0584922 0
M  V30 924 C 94.3973 -1.84346 -0.653918 0
M  V30 925 C 94.7773 -0.948355 -1.88599 0
M  V30 926 O 94.1253 -0.0112403 -2.28497 0
M  V30 927 C 94.3353 -3.34239 -1.00425 0
M  V30 928 C 95.6833 -4.01431 -1.38342 0
M  V30 929 O 96.7073 -3.38907 -1.09637 0
M  V30 930 O 95.5663 -5.11683 -1.91943 0
M  V30 931 H 92.6603 -0.761112 -0.323478 0
M  V30 932 H 95.2063 -1.6947 0.0884125 0
M  V30 933 H 93.9783 -3.91089 -0.128625 0
M  V30 934 H 93.6013 -3.54329 -1.80378 0
M  V30 935 N 94.5984 0.214957 -1.56127 0
M  V30 936 C 95.5484 1.27006 -1.8935 0
M  V30 937 C 96.5324 1.41969 -0.757202 0
M  V30 938 O 97.7244 1.44673 -1.01973 0
M  V30 939 C 94.8534 2.61911 -2.2194 0
M  V30 940 C 93.9394 2.50822 -3.41978 0
M  V30 941 N 94.3304 2.09391 -4.60423 0
M  V30 942 C 92.6284 2.81765 -3.45723 0
M  V30 943 C 93.3294 2.09712 -5.42582 0
M  V30 944 N 92.3054 2.50454 -4.82466 0
M  V30 945 H 96.1074 0.940734 -2.78437 0
M  V30 946 H 93.6214 0.423492 -1.56781 0
M  V30 947 H 95.6184 3.38096 -2.43919 0
M  V30 948 H 94.2784 2.95684 -1.34169 0
M  V30 949 H 95.2894 1.80416 -4.85459 0
M  V30 950 H 91.9664 3.19865 -2.68314 0
M  V30 951 H 93.3564 1.79748 -6.4741 0
M  V30 952 N 96.0765 1.50051 0.48192 0
M  V30 953 C 97.3235 1.60498 1.23477 0
M  V30 954 C 97.6515 0.300331 1.92167 0
M  V30 955 O 96.9065 -0.713094 1.82246 0
M  V30 956 C 97.2055 2.72717 2.30998 0
M  V30 957 C 96.8715 4.13572 1.79636 0
M  V30 958 C 95.5335 4.519 1.65348 0
M  V30 959 C 97.8855 5.01649 1.41412 0
M  V30 960 C 95.2135 5.76057 1.11244 0
M  V30 961 C 97.5655 6.26343 0.887538 0
M  V30 962 C 96.2295 6.63483 0.731207 0
M  V30 963 H 95.4995 0.587303 0.451836 0
M  V30 964 H 98.1465 1.83948 0.532468 0
M  V30 965 H 96.4515 2.43312 3.07094 0
M  V30 966 H 98.1485 2.78006 2.88988 0
M  V30 967 H 94.7385 3.83329 1.91721 0
M  V30 968 H 98.9225 4.72679 1.51289 0
M  V30 969 H 94.1785 6.03516 0.978686 0
M  V30 970 H 98.3525 6.93958 0.582654 0
M  V30 971 H 95.9795 7.59568 0.309806 0
M  V30 972 N 97.5546 -0.734337 1.39446 0
M  V30 973 C 98.8006 -1.49613 1.36908 0
M  V30 974 C 99.1336 -1.94169 -0.0347829 0
M  V30 975 O 98.4086 -1.66833 -0.999847 0
M  V30 976 C 98.6916 -2.73534 2.34203 0
M  V30 977 C 98.5446 -2.34993 3.83534 0
M  V30 978 C 99.8636 -3.75635 2.29317 0
M  V30 979 H 96.9826 -0.542714 0.498629 0
M  V30 980 H 99.6246 -0.839597 1.70443 0
M  V30 981 H 97.7746 -3.29553 2.05736 0
M  V30 982 H 99.4466 -1.84601 4.22753 0
M  V30 983 H 97.6896 -1.67213 4.00278 0
M  V30 984 H 98.3606 -3.23738 4.47099 0
M  V30 985 H 100.837 -3.29203 2.54489 0
M  V30 986 H 99.7126 -4.60008 2.99472 0
M  V30 987 H 99.9736 -4.22603 1.29842 0
M  V30 988 N 99.0327 -1.24633 -0.964593 0
M  V30 989 C 99.9627 -1.06611 -2.07741 0
M  V30 990 C 100.944 0.0218666 -1.70086 0
M  V30 991 O 102.129 -0.145793 -1.93652 0
M  V30 992 C 99.2587 -0.673444 -3.40708 0
M  V30 993 C 98.2127 -1.71054 -3.92332 0
M  V30 994 C 97.5387 -1.17285 -5.21678 0
M  V30 995 C 98.8387 -3.10718 -4.19824 0
M  V30 996 H 100.533 -1.99693 -2.23076 0
M  V30 997 H 98.0787 -0.96152 -1.07195 0
M  V30 998 H 100.032 -0.534345 -4.17998 0
M  V30 999 H 98.7557 0.293073 -3.25282 0
M  V30 1000 H 97.4147 -1.83791 -3.17201 0
M  V30 1001 H 97.0627 -0.196847 -5.02615 0
M  V30 1002 H 96.7627 -1.86592 -5.57187 0
M  V30 1003 H 98.2867 -1.04593 -6.01575 0
M  V30 1004 H 99.7007 -3.01192 -4.87808 0
M  V30 1005 H 98.0977 -3.77406 -4.66567 0
M  V30 1006 H 99.1677 -3.58524 -3.26479 0
M  V30 1007 N 100.511 1.16574 -1.06058 0
M  V30 1008 C 101.741 1.90675 -0.795397 0
M  V30 1009 C 102.149 1.77547 0.653735 0
M  V30 1010 O 101.492 1.11611 1.45907 0
M  V30 1011 C 101.554 3.42011 -1.10764 0
M  V30 1012 C 101.218 3.78924 -2.55471 0
M  V30 1013 C 102.215 3.81042 -3.53699 0
M  V30 1014 C 99.8998 4.09626 -2.90708 0
M  V30 1015 C 101.894 4.13346 -4.85205 0
M  V30 1016 C 99.5808 4.41597 -4.22416 0
M  V30 1017 C 100.579 4.43436 -5.19474 0
M  V30 1018 O 100.267 4.74649 -6.48817 0
M  V30 1019 H 99.9988 0.611554 -0.288058 0
M  V30 1020 H 102.553 1.48711 -1.41683 0
M  V30 1021 H 100.783 3.84312 -0.429128 0
M  V30 1022 H 102.472 3.97384 -0.827077 0
M  V30 1023 H 103.238 3.57437 -3.27817 0
M  V30 1024 H 99.1168 4.07361 -2.15819 0
M  V30 1025 H 102.661 4.14696 -5.60957 0
M  V30 1026 H 98.5578 4.64667 -4.48056 0
M  V30 1027 H 99.3258 4.9247 -6.5377 0
M  V30 1028 N 101.989 0.842826 1.3317 0
M  V30 1029 C 103.238 0.436738 1.96915 0
M  V30 1030 C 103.551 -1.01025 1.67491 0
M  V30 1031 O 104.757 -1.5212 2.24881 0
M  V30 1032 C 103.213 0.730021 3.52418 0
M  V30 1033 C 102.821 2.19195 3.90714 0
M  V30 1034 C 104.565 0.391076 4.22695 0
M  V30 1035 C 102.472 2.42907 5.39212 0
M  V30 1036 H 101.402 0.15958 0.736919 0
M  V30 1037 H 104.053 1.03196 1.51733 0
M  V30 1038 H 102.435 0.0643755 3.95948 0
M  V30 1039 H 103.609 2.8984 3.58231 0
M  V30 1040 H 101.924 2.49425 3.33431 0
M  V30 1041 H 104.521 0.545817 5.31907 0
M  V30 1042 H 104.864 -0.666294 4.10933 0
M  V30 1043 H 105.397 1.01212 3.84709 0
M  V30 1044 H 102.136 3.47224 5.55982 0
M  V30 1045 H 101.656 1.76827 5.73142 0
M  V30 1046 H 103.335 2.2626 6.06148 0
M  V30 1047 N 103.467 -1.45747 0.599634 0
M  V30 1048 C 104.716 -2.01502 0.0893511 0
M  V30 1049 C 105.029 -1.4748 -1.28488 0
M  V30 1050 O 106.235 -1.95161 -1.88745 0
M  V30 1051 C 104.691 -3.59735 0.109082 0
M  V30 1052 C 104.299 -4.22754 1.48267 0
M  V30 1053 C 106.043 -4.23085 -0.346374 0
M  V30 1054 C 103.95 -5.73115 1.45921 0
M  V30 1055 H 102.88 -0.753417 0.0296347 0
M  V30 1056 H 105.531 -1.67303 0.753788 0
M  V30 1057 H 103.913 -3.91087 -0.621854 0
M  V30 1058 H 105.087 -4.02987 2.23468 0
M  V30 1059 H 103.402 -3.71567 1.87955 0
M  V30 1060 H 105.999 -5.33327 -0.38298 0
M  V30 1061 H 106.342 -3.93201 -1.36743 0
M  V30 1062 H 106.875 -3.9642 0.331038 0
M  V30 1063 H 103.614 -6.07685 2.45762 0
M  V30 1064 H 103.134 -5.95097 0.749665 0
M  V30 1065 H 104.813 -6.3616 1.17941 0
M  V30 1066 N 104.945 -0.338344 -1.53925 0
M  V30 1067 C 106.173 0.261298 -2.05243 0
M  V30 1068 C 106.588 1.44625 -1.21363 0
M  V30 1069 O 105.945 1.80811 -0.247736 0
M  V30 1070 C 105.996 0.681412 -3.5502 0
M  V30 1071 O 105.717 -0.456414 -4.35716 0
M  V30 1072 C 107.218 1.34232 -4.22489 0
M  V30 1073 H 104.438 0.0513685 -0.669031 0
M  V30 1074 H 106.982 -0.488822 -1.98572 0
M  V30 1075 H 105.137 1.38148 -3.61931 0
M  V30 1076 H 105.551 -0.122564 -5.24357 0
M  V30 1077 H 107.025 1.58708 -5.28693 0
M  V30 1078 H 107.502 2.29426 -3.74514 0
M  V30 1079 H 108.108 0.684424 -4.19757 0
M  V30 1080 N 106.423 1.57458 -0.0668435 0
M  V30 1081 C 107.386 2.11323 0.887422 0
M  V30 1082 C 108.386 1.03618 1.22964 0
M  V30 1083 O 109.576 1.29626 1.16373 0
M  V30 1084 C 106.708 2.61048 2.19242 0
M  V30 1085 H 107.901 2.96942 0.420194 0
M  V30 1086 H 105.454 1.55239 0.181793 0
M  V30 1087 H 106.189 1.78868 2.70512 0
M  V30 1088 H 105.974 3.39769 1.95702 0
M  V30 1089 H 107.464 3.02814 2.87565 0
M  V30 1090 N 107.901 -0.206675 1.56239 0
M  V30 1091 C 109.147 -0.930218 1.80208 0
M  V30 1092 C 109.48 -1.83387 0.638981 0
M  V30 1093 O 108.755 -1.91119 -0.361066 0
M  V30 1094 C 109.038 -1.75641 3.1436 0
M  V30 1095 C 108.891 -0.878257 4.41142 0
M  V30 1096 C 110.21 -2.73129 3.45092 0
M  V30 1097 H 107.329 -0.336742 0.655571 0
M  V30 1098 H 109.971 -0.198222 1.88963 0
M  V30 1099 H 108.121 -2.38048 3.07027 0
M  V30 1100 H 109.793 -0.269787 4.6051 0
M  V30 1101 H 108.036 -0.184385 4.33408 0
M  V30 1102 H 108.707 -1.49106 5.3148 0
M  V30 1103 H 111.183 -2.20856 3.52649 0
M  V30 1104 H 110.059 -3.28028 4.40101 0
M  V30 1105 H 110.32 -3.51606 2.68003 0
M  V30 1106 N 109.379 -1.50304 -0.473955 0
M  V30 1107 C 110.607 -1.64902 -1.24959 0
M  V30 1108 C 111.022 -0.331198 -1.85872 0
M  V30 1109 O 110.379 0.68652 -1.69095 0
M  V30 1110 C 110.43 -2.73803 -2.36038 0
M  V30 1111 O 110.151 -4.00477 -1.77624 0
M  V30 1112 C 111.652 -2.99349 -3.26964 0
M  V30 1113 H 108.872 -0.554383 -0.378022 0
M  V30 1114 H 111.416 -1.9651 -0.566054 0
M  V30 1115 H 109.571 -2.44898 -3.00173 0
M  V30 1116 H 109.985 -4.60678 -2.5075 0
M  V30 1117 H 111.459 -3.79217 -4.01121 0
M  V30 1118 H 111.936 -2.10307 -3.85574 0
M  V30 1119 H 112.542 -3.29774 -2.68569 0
M  V30 1120 N 110.857 0.726932 -1.39834 0
M  V30 1121 C 112.106 1.48214 -1.36805 0
M  V30 1122 C 112.419 1.95576 0.0305291 0
M  V30 1123 O 113.625 2.7088 0.183417 0
M  V30 1124 C 112.081 2.67854 -2.40379 0
M  V30 1125 C 111.689 2.27408 -3.85992 0
M  V30 1126 C 113.433 3.45641 -2.46439 0
M  V30 1127 C 111.34 3.43819 -4.81189 0
M  V30 1128 H 110.27 0.556606 -0.508631 0
M  V30 1129 H 112.921 0.792216 -1.65518 0
M  V30 1130 H 111.303 3.3896 -2.04749 0
M  V30 1131 H 112.477 1.63795 -4.30706 0
M  V30 1132 H 110.792 1.62692 -3.83302 0
M  V30 1133 H 113.389 4.32244 -3.14753 0
M  V30 1134 H 113.732 3.88669 -1.49139 0
M  V30 1135 H 114.265 2.8157 -2.81004 0
M  V30 1136 H 111.004 3.05834 -5.79781 0
M  V30 1137 H 110.524 4.06385 -4.41148 0
M  V30 1138 H 112.203 4.10043 -5.00474 0
M  V30 1139 N 112.336 1.25143 0.95797 0
M  V30 1140 C 113.583 1.09692 1.70217 0
M  V30 1141 C 113.911 -0.362654 1.91089 0
M  V30 1142 O 113.166 -1.28386 1.47701 0
M  V30 1143 C 113.465 1.79272 3.09187 0
M  V30 1144 C 113.131 3.29196 3.08125 0
M  V30 1145 C 111.793 3.70096 3.07543 0
M  V30 1146 C 114.145 4.24995 3.0171 0
M  V30 1147 C 111.473 5.05213 2.9829 0
M  V30 1148 C 113.825 5.60132 2.93999 0
M  V30 1149 C 112.489 6.00365 2.9175 0
M  V30 1150 H 111.759 0.401393 0.622868 0
M  V30 1151 H 114.406 1.55372 1.11945 0
M  V30 1152 H 112.711 1.26014 3.70982 0
M  V30 1153 H 114.408 1.64773 3.65583 0
M  V30 1154 H 110.998 2.96651 3.09348 0
M  V30 1155 H 115.182 3.9439 3.01281 0
M  V30 1156 H 110.438 5.35569 2.94916 0
M  V30 1157 H 114.612 6.3406 2.87996 0
M  V30 1158 H 112.239 7.05023 2.84336 0
M  V30 1159 N 113.814 -1.1601 1.06675 0
M  V30 1160 C 115.06 -1.86909 0.786945 0
M  V30 1161 C 115.393 -1.81717 -0.685018 0
M  V30 1162 O 114.668 -1.23551 -1.50218 0
M  V30 1163 C 114.951 -3.36313 1.28707 0
M  V30 1164 C 114.804 -3.50175 2.82308 0
M  V30 1165 C 116.123 -4.3084 0.898071 0
M  V30 1166 H 113.242 -0.678677 0.287343 0
M  V30 1167 H 115.884 -1.36336 1.32334 0
M  V30 1168 H 114.034 -3.79513 0.830768 0
M  V30 1169 H 115.706 -3.15886 3.36175 0
M  V30 1170 H 113.949 -2.91959 3.20847 0
M  V30 1171 H 114.62 -4.55116 3.12368 0
M  V30 1172 H 117.096 -3.95561 1.29114 0
M  V30 1173 H 115.972 -5.33876 1.27543 0
M  V30 1174 H 116.233 -4.41662 -0.196651 0
M  V30 1175 N 115.292 -0.849877 -1.32721 0
M  V30 1176 C 116.532 -0.457146 -1.99222 0
M  V30 1177 C 116.896 0.968038 -1.6581 0
M  V30 1178 O 118.097 1.46507 -2.25364 0
M  V30 1179 C 116.368 -0.683966 -3.50794 0
M  V30 1180 S 117.927 -0.388095 -4.3708 0
M  V30 1181 H 114.745 -0.171464 -0.690015 0
M  V30 1182 H 117.347 -1.10155 -1.61512 0
M  V30 1183 H 116.051 -1.72038 -3.726 0
M  V30 1184 H 115.582 -0.0258086 -3.93392 0
M  V30 1185 H 117.597 0.787791 -4.89906 0
M  V30 1186 N 116.77 1.45427 -0.607355 0
M  V30 1187 C 117.7 2.3329 0.0989352 0
M  V30 1188 C 118.681 1.46816 0.859007 0
M  V30 1189 O 119.866 1.75588 0.829604 0
M  V30 1190 C 116.996 3.29518 1.09705 0
M  V30 1191 C 115.95 4.25626 0.450206 0
M  V30 1192 C 115.276 5.11542 1.55655 0
M  V30 1193 C 116.576 5.18505 -0.628455 0
M  V30 1194 H 118.27 2.92595 -0.634716 0
M  V30 1195 H 115.816 1.40696 -0.306681 0
M  V30 1196 H 117.769 3.89855 1.59971 0
M  V30 1197 H 116.493 2.68372 1.86129 0
M  V30 1198 H 115.152 3.66586 -0.0315886 0
M  V30 1199 H 114.8 4.46765 2.31107 0
M  V30 1200 H 114.5 5.76647 1.12925 0
M  V30 1201 H 116.024 5.74748 2.06148 0
M  V30 1202 H 117.438 5.72916 -0.209877 0
M  V30 1203 H 115.835 5.92085 -0.977489 0
M  V30 1204 H 116.905 4.60948 -1.50514 0
M  V30 1205 N 118.248 0.346503 1.53744 0
M  V30 1206 C 119.178 -0.501193 2.28058 0
M  V30 1207 C 120.159 -1.10014 1.29734 0
M  V30 1208 O 121.344 -1.12097 1.58581 0
M  V30 1209 C 118.474 -1.65078 3.05559 0
M  V30 1210 C 117.428 -1.18003 4.11411 0
M  V30 1211 C 116.754 -2.41837 4.76884 0
M  V30 1212 C 118.054 -0.278394 5.21558 0
M  V30 1213 H 119.748 0.11875 2.99164 0
M  V30 1214 H 117.294 0.0585531 1.43881 0
M  V30 1215 H 119.247 -2.25028 3.56287 0
M  V30 1216 H 117.971 -2.29767 2.32109 0
M  V30 1217 H 116.63 -0.603331 3.61601 0
M  V30 1218 H 116.278 -3.0494 4.00026 0
M  V30 1219 H 115.978 -2.1102 5.48402 0
M  V30 1220 H 117.502 -3.02508 5.30397 0
M  V30 1221 H 118.916 -0.784823 5.67903 0
M  V30 1222 H 117.313 -0.0619707 6.00068 0
M  V30 1223 H 118.383 0.684677 4.80042 0
M  V30 1224 N 119.726 -1.57421 0.075193 0
M  V30 1225 C 120.656 -2.15942 -0.888324 0
M  V30 1226 C 121.637 -1.08737 -1.30806 0
M  V30 1227 O 122.822 -1.36787 -1.37851 0
M  V30 1228 C 119.952 -2.72379 -2.1547 0
M  V30 1229 C 118.906 -3.8478 -1.87425 0
M  V30 1230 C 118.232 -4.27834 -3.20721 0
M  V30 1231 C 119.532 -5.08869 -1.17684 0
M  V30 1232 H 121.226 -2.96705 -0.400799 0
M  V30 1233 H 118.772 -1.42723 -0.191342 0
M  V30 1234 H 120.725 -3.11965 -2.83295 0
M  V30 1235 H 119.449 -1.88841 -2.6647 0
M  V30 1236 H 118.108 -3.45703 -1.22004 0
M  V30 1237 H 117.756 -3.41214 -3.6957 0
M  V30 1238 H 117.456 -5.03605 -3.02746 0
M  V30 1239 H 118.98 -4.70039 -3.89738 0
M  V30 1240 H 120.394 -5.4575 -1.75584 0
M  V30 1241 H 118.791 -5.8994 -1.09956 0
M  V30 1242 H 119.861 -4.84648 -0.156453 0
M  V30 1243 N 121.204 0.198386 -1.56346 0
M  V30 1244 C 122.134 1.24865 -1.9731 0
M  V30 1245 C 123.115 1.47651 -0.844576 0
M  V30 1246 O 124.3 1.59444 -1.10866 0
M  V30 1247 C 121.43 2.59358 -2.30977 0
M  V30 1248 C 120.384 2.5119 -3.46537 0
M  V30 1249 C 119.71 3.89926 -3.65871 0
M  V30 1250 C 121.01 2.03977 -4.80823 0
M  V30 1251 H 122.704 0.908252 -2.85291 0
M  V30 1252 H 120.25 0.435462 -1.37258 0
M  V30 1253 H 122.203 3.33011 -2.58228 0
M  V30 1254 H 120.927 2.95132 -1.39874 0
M  V30 1255 H 119.586 1.79993 -3.19371 0
M  V30 1256 H 119.234 4.23046 -2.72105 0
M  V30 1257 H 118.934 3.85336 -4.4361 0
M  V30 1258 H 120.458 4.65205 -3.95495 0
M  V30 1259 H 121.872 2.67386 -5.07127 0
M  V30 1260 H 120.269 2.10397 -5.62008 0
M  V30 1261 H 121.339 0.992861 -4.74626 0
M  V30 1262 N 122.682 1.50554 0.465978 0
M  V30 1263 C 123.931 1.61038 1.21448 0
M  V30 1264 C 124.244 0.31865 1.92987 0
M  V30 1265 O 125.45 0.302469 2.6981 0
M  V30 1266 C 123.906 2.84283 2.20706 0
M  V30 1267 C 123.514 4.20352 1.54946 0
M  V30 1268 C 125.258 3.04115 2.96166 0
M  V30 1269 C 123.165 5.34778 2.5252 0
M  V30 1270 H 122.095 0.599718 0.457005 0
M  V30 1271 H 124.746 1.7699 0.484424 0
M  V30 1272 H 123.128 2.61901 2.97025 0
M  V30 1273 H 124.302 4.53008 0.843811 0
M  V30 1274 H 122.617 4.06167 0.917475 0
M  V30 1275 H 125.214 3.86774 3.69202 0
M  V30 1276 H 125.557 2.16045 3.55852 0
M  V30 1277 H 126.09 3.26702 2.26959 0
M  V30 1278 H 122.829 6.25018 1.97566 0
M  V30 1279 H 122.349 5.06534 3.21222 0
M  V30 1280 H 124.028 5.65561 3.14245 0
M  V30 1281 N 124.16 -0.719506 1.40217 0
M  V30 1282 C 125.4 -1.49181 1.39729 0
M  V30 1283 C 125.764 -1.92 -0.00250614 0
M  V30 1284 O 126.965 -2.68473 -0.132479 0
M  V30 1285 C 125.236 -2.68767 2.35582 0
M  V30 1286 S 126.795 -3.58224 2.53418 0
M  V30 1287 H 123.613 -0.510091 0.495307 0
M  V30 1288 H 126.215 -0.841724 1.76452 0
M  V30 1289 H 124.919 -2.35475 3.36124 0
M  V30 1290 H 124.45 -3.38691 2.0013 0
M  V30 1291 H 126.465 -4.63033 1.78367 0
M  V30 1292 N 125.638 -1.25649 -0.95132 0
M  V30 1293 C 126.887 -1.09988 -1.69073 0
M  V30 1294 C 127.2 0.358355 -1.92289 0
M  V30 1295 O 128.406 0.635466 -2.63958 0
M  V30 1296 C 126.862 -1.92012 -3.044 0
M  V30 1297 C 126.47 -3.42347 -2.88968 0
M  V30 1298 C 128.214 -1.8493 -3.82101 0
M  V30 1299 C 126.121 -4.16655 -4.19705 0
M  V30 1300 H 125.051 -0.407993 -0.63408 0
M  V30 1301 H 127.702 -1.49873 -1.05879 0
M  V30 1302 H 126.084 -1.44952 -3.68517 0
M  V30 1303 H 127.258 -3.97104 -2.33762 0
M  V30 1304 H 125.573 -3.50557 -2.24719 0
M  V30 1305 H 128.17 -2.37739 -4.78941 0
M  V30 1306 H 128.513 -0.817883 -4.08187 0
M  V30 1307 H 129.046 -2.29758 -3.2474 0
M  V30 1308 H 125.785 -5.20224 -3.98807 0
M  V30 1309 H 125.305 -3.66681 -4.74663 0
M  V30 1310 H 126.984 -4.24551 -4.88227 0
M  V30 1311 N 127.117 1.15442 -1.07289 0
M  V30 1312 C 128.363 1.86489 -0.796846 0
M  V30 1313 C 128.696 1.82078 0.675371 0
M  V30 1314 O 127.971 1.24346 1.4956 0
M  V30 1315 C 128.254 3.35626 -1.30489 0
M  V30 1316 C 128.107 3.48673 -2.84161 0
M  V30 1317 C 129.426 4.30357 -0.920907 0
M  V30 1318 H 126.545 0.677144 -0.290939 0
M  V30 1319 H 129.187 1.35633 -1.33056 0
M  V30 1320 H 127.337 3.79068 -0.850883 0
M  V30 1321 H 129.009 3.14099 -3.37846 0
M  V30 1322 H 127.252 2.90253 -3.22391 0
M  V30 1323 H 127.923 4.53453 -3.14777 0
M  V30 1324 H 130.399 3.94871 -1.3121 0
M  V30 1325 H 129.275 5.33193 -1.30372 0
M  V30 1326 H 129.536 4.4176 0.173226 0
M  V30 1327 N 128.595 0.856903 1.32268 0
M  V30 1328 C 130.011 0.547061 1.49931 0
M  V30 1329 C 130.211 -0.921781 1.7918 0
M  V30 1330 O 129.267 -1.70469 1.8627 0
M  V30 1331 C 130.58 1.43599 2.64196 0
M  V30 1332 C 132.128 1.43665 2.78081 0
M  V30 1333 C 132.603 2.31085 3.95428 0
M  V30 1334 N 134.094 2.28893 4.02694 0
M  V30 1335 C 134.829 2.93262 4.92732 0
M  V30 1336 N 134.325 3.66751 5.87763 0
M  V30 1337 N 136.118 2.82638 4.85873 0
M  V30 1338 H 128.269 1.8075 1.11549 0
M  V30 1339 H 130.532 0.772144 0.549997 0
M  V30 1340 H 130.238 2.48058 2.49319 0
M  V30 1341 H 130.112 1.12502 3.60032 0
M  V30 1342 H 132.499 0.399701 2.92381 0
M  V30 1343 H 132.58 1.7878 1.82952 0
M  V30 1344 H 132.224 3.34849 3.81888 0
M  V30 1345 H 132.154 1.93302 4.89839 0
M  V30 1346 H 134.645 1.75466 3.34694 0
M  V30 1347 H 134.958 4.13027 6.53168 0
M  V30 1348 H 133.303 3.70859 5.87783 0
M  V30 1349 H 136.494 2.24774 4.10602 0
M  V30 1350 H 136.667 3.33084 5.55841 0
M  V30 1351 N 130.073 -1.45103 0.615059 0
M  V30 1352 C 131.32 -2.02183 0.113179 0
M  V30 1353 C 131.648 -1.48249 -1.25906 0
M  V30 1354 O 130.903 -0.650265 -1.84581 0
M  V30 1355 C 131.202 -3.57386 0.0318797 0
M  V30 1356 C 130.868 -4.30505 1.34077 0
M  V30 1357 C 129.53 -4.50197 1.69929 0
M  V30 1358 C 131.882 -4.72238 2.20546 0
M  V30 1359 C 129.21 -5.08881 2.91988 0
M  V30 1360 C 131.562 -5.32272 3.41861 0
M  V30 1361 C 130.226 -5.50187 3.77956 0
M  V30 1362 H 129.496 -0.739842 0.0414151 0
M  V30 1363 H 132.143 -1.74073 0.798168 0
M  V30 1364 H 130.448 -3.84817 -0.736409 0
M  V30 1365 H 132.145 -3.99264 -0.372712 0
M  V30 1366 H 128.735 -4.15496 1.05173 0
M  V30 1367 H 132.919 -4.56751 1.94146 0
M  V30 1368 H 128.175 -5.20939 3.2005 0
M  V30 1369 H 132.349 -5.63563 4.09109 0
M  V30 1370 H 129.976 -5.95427 4.72622 0
M  V30 1371 N 131.551 -0.354651 -1.53558 0
M  V30 1372 C 132.499 0.512195 -2.26891 0
M  V30 1373 C 133.493 1.09263 -1.29452 0
M  V30 1374 O 134.699 1.03709 -1.47121 0
M  V30 1375 H 131.074 0.183878 -0.729173 0
M  V30 1376 H 133.045 -0.128202 -2.98124 0
M  V30 1377 C 131.794 1.64563 -3.06291 0
M  V30 1378 H 131.117 1.20829 -3.81104 0
M  V30 1379 H 132.557 2.22711 -3.60799 0
M  V30 1380 C 131.016 2.58158 -2.16462 0
M  V30 1381 O 131.546 3.60695 -1.76811 0
M  V30 1382 N 129.752 2.27096 -1.81317 0
M  V30 1383 H 129.299 1.43751 -2.1376 0
M  V30 1384 H 129.257 2.89975 -1.21498 0
M  V30 1385 N 133.029 1.57378 -0.0835403 0
M  V30 1386 C 134.445 1.57246 0.273109 0
M  V30 1387 C 134.645 1.09385 1.69225 0
M  V30 1388 O 133.701 0.765051 2.40631 0
M  V30 1389 C 135.014 3.00614 0.0720628 0
M  V30 1390 C 136.562 3.12684 0.1407 0
M  V30 1391 C 137.037 4.57989 -0.0322094 0
M  V30 1392 N 138.528 4.63194 0.0230085 0
M  V30 1393 C 139.263 5.73335 -0.0861941 0
M  V30 1394 N 138.759 6.9235 -0.24958 0
M  V30 1395 N 140.552 5.62093 -0.0282886 0
M  V30 1396 H 132.703 1.86801 -1.0109 0
M  V30 1397 H 134.966 0.861687 -0.395222 0
M  V30 1398 H 134.672 3.39786 -0.907662 0
M  V30 1399 H 134.546 3.68193 0.81936 0
M  V30 1400 H 136.933 2.73391 1.11092 0
M  V30 1401 H 137.014 2.47719 -0.637896 0
M  V30 1402 H 136.658 4.97973 -0.999247 0
M  V30 1403 H 136.588 5.21 0.765937 0
M  V30 1404 H 139.079 3.77613 0.14722 0
M  V30 1405 H 139.392 7.72117 -0.324733 0
M  V30 1406 H 137.737 6.94415 -0.285097 0
M  V30 1407 H 140.928 4.67997 0.0981408 0
M  V30 1408 H 141.101 6.47895 -0.116845 0
M  V30 1409 N 134.507 -0.190092 1.56449 0
M  V30 1410 C 135.923 -0.54113 1.50146 0
M  V30 1411 C 136.123 -1.85603 0.784465 0
M  V30 1412 O 135.179 -2.5024 0.337051 0
M  V30 1413 C 136.492 -0.591241 2.9483 0
M  V30 1414 C 138.04 -0.679732 3.0553 0
M  V30 1415 C 138.515 -0.760908 4.51635 0
M  V30 1416 N 140.006 -0.824302 4.55806 0
M  V30 1417 C 140.741 -0.907365 5.66175 0
M  V30 1418 N 140.237 -0.952422 6.86222 0
M  V30 1419 N 142.03 -0.94494 5.541 0
M  V30 1420 H 134.181 0.67235 2.01478 0
M  V30 1421 H 136.444 0.240127 0.917084 0
M  V30 1422 H 136.15 0.305905 3.50367 0
M  V30 1423 H 136.024 -1.44422 3.48457 0
M  V30 1424 H 138.411 -1.56731 2.50039 0
M  V30 1425 H 138.492 0.199549 2.5502 0
M  V30 1426 H 138.136 0.122336 5.07753 0
M  V30 1427 H 138.066 -1.65606 4.99882 0
M  V30 1428 H 140.557 -0.798526 3.69367 0
M  V30 1429 H 140.87 -1.01645 7.66086 0
M  V30 1430 H 139.215 -0.921014 6.8887 0
M  V30 1431 H 142.406 -0.906612 4.59236 0
M  V30 1432 H 142.579 -1.00622 6.4014 0
M  V30 1433 N 135.985 -1.50799 -0.457987 0
M  V30 1434 C 136.948 -1.7005 -1.53674 0
M  V30 1435 C 137.948 -0.570881 -1.50325 0
M  V30 1436 O 139.138 -0.838126 -1.52712 0
M  V30 1437 C 136.27 -1.73788 -2.93276 0
M  V30 1438 H 137.463 -2.66306 -1.37917 0
M  V30 1439 H 135.016 -1.40477 -0.685271 0
M  V30 1440 H 135.751 -0.792717 -3.14462 0
M  V30 1441 H 135.536 -2.55864 -2.97113 0
M  V30 1442 H 137.026 -1.90591 -3.71571 0
M  V30 1443 N 137.463 0.71206 -1.40597 0
M  V30 1444 C 138.411 1.84746 -1.41321 0
M  V30 1445 C 139.405 1.66842 -0.293268 0
M  V30 1446 O 140.611 1.73904 -0.464481 0
M  V30 1447 H 136.986 0.608522 -0.441819 0
M  V30 1448 H 138.957 1.81252 -2.37045 0
M  V30 1449 C 137.706 3.22638 -1.29614 0
M  V30 1450 H 137.029 3.37023 -2.15071 0
M  V30 1451 H 138.469 4.02209 -1.3418 0
M  V30 1452 C 136.928 3.36899 -0.00673121 0
M  V30 1453 O 137.458 3.90186 0.954859 0
M  V30 1454 N 135.664 2.9053 0.0639327 0
M  V30 1455 H 135.211 2.47353 -0.719311 0
M  V30 1456 H 135.169 3.0045 0.926118 0
M  V30 1457 N 138.941 1.26152 0.944643 0
M  V30 1458 C 140.352 1.10454 1.50522 0
M  V30 1459 C 140.703 -0.31635 1.93633 0
M  V30 1460 O 139.828 -1.20746 1.79581 0
M  V30 1461 C 140.423 1.99891 2.73549 0
M  V30 1462 C 138.982 1.88348 3.25886 0
M  V30 1463 C 138.129 1.93447 1.9868 0
M  V30 1464 H 141.08 1.39292 0.760489 0
M  V30 1465 H 141.101 1.54477 3.47732 0
M  V30 1466 H 140.613 3.03297 2.42141 0
M  V30 1467 H 138.714 0.878636 3.62092 0
M  V30 1468 H 138.827 2.73696 3.93227 0
M  V30 1469 H 137.191 1.37456 2.14425 0
M  V30 1470 H 137.974 2.98476 1.69607 0
M  V30 1471 N 140.419 -1.14872 1.07899 0
M  V30 1472 C 141.665 -1.86064 0.806725 0
M  V30 1473 C 141.998 -1.82434 -0.665706 0
M  V30 1474 O 141.273 -1.25138 -1.48899 0
M  V30 1475 C 141.556 -3.34929 1.32267 0
M  V30 1476 C 141.409 -3.47161 2.86006 0
M  V30 1477 C 142.728 -4.29863 0.943717 0
M  V30 1478 H 139.847 -0.675591 0.294526 0
M  V30 1479 H 142.489 -1.34925 1.33773 0
M  V30 1480 H 140.639 -3.78611 0.870974 0
M  V30 1481 H 142.311 -3.12302 3.39507 0
M  V30 1482 H 140.554 -2.88539 3.23925 0
M  V30 1483 H 141.225 -4.51777 3.17177 0
M  V30 1484 H 143.701 -3.9417 1.33302 0
M  V30 1485 H 142.577 -5.32494 1.33198 0
M  V30 1486 H 142.838 -4.41846 -0.149796 0
M  V30 1487 N 141.898 -0.863906 -1.31812 0
M  V30 1488 C 143.309 -0.52522 -1.7916 0
M  V30 1489 C 143.66 0.957518 -1.71248 0
M  V30 1490 O 142.785 1.74734 -1.27659 0
M  V30 1491 C 143.38 -0.9466 -3.25307 0
M  V30 1492 C 141.939 -0.659668 -3.70574 0
M  V30 1493 C 141.086 -1.14126 -2.52726 0
M  V30 1494 H 144.037 -1.05022 -1.1898 0
M  V30 1495 H 144.058 -0.266766 -3.79564 0
M  V30 1496 H 143.57 -2.02579 -3.31034 0
M  V30 1497 H 141.671 0.408416 -3.70355 0
M  V30 1498 H 141.784 -1.23245 -4.62977 0
M  V30 1499 H 140.148 -0.561216 -2.4844 0
M  V30 1500 H 140.931 -2.22775 -2.61201 0
M  V30 1501 N 143.376 1.44774 -0.622745 0
M  V30 1502 C 144.339 2.29069 0.0774015 0
M  V30 1503 C 145.339 1.4059 0.780461 0
M  V30 1504 O 146.529 1.62551 0.626322 0
M  V30 1505 C 143.661 3.21974 1.12006 0
M  V30 1506 H 144.854 2.92459 -0.663901 0
M  V30 1507 H 142.407 1.51548 -0.382486 0
M  V30 1508 H 143.142 2.63417 1.89162 0
M  V30 1509 H 142.927 3.87168 0.619951 0
M  V30 1510 H 144.417 3.85318 1.60995 0
M  V30 1511 N 144.854 0.36279 1.53368 0
M  V30 1512 C 146.27 0.0116182 1.59596 0
M  V30 1513 C 146.47 -1.47012 1.37803 0
M  V30 1514 O 145.526 -2.23136 1.18181 0
M  V30 1515 C 146.839 0.465052 2.97082 0
M  V30 1516 C 148.387 0.419033 3.10182 0
M  V30 1517 C 148.862 0.848235 4.50077 0
M  V30 1518 N 150.353 0.803183 4.56183 0
M  V30 1519 C 151.088 1.107 5.62613 0
M  V30 1520 N 150.584 1.47996 6.76808 0
M  V30 1521 N 152.377 1.02998 5.52583 0
M  V30 1522 H 144.528 1.32775 1.65785 0
M  V30 1523 H 146.791 0.542518 0.777417 0
M  V30 1524 H 146.497 1.49892 3.18159 0
M  V30 1525 H 146.371 -0.149786 3.76902 0
M  V30 1526 H 148.758 -0.605696 2.88817 0
M  V30 1527 H 148.839 1.06933 2.32377 0
M  V30 1528 H 148.483 1.87107 4.7218 0
M  V30 1529 H 148.413 0.175218 5.26308 0
M  V30 1530 H 150.904 0.52838 3.74188 0
M  V30 1531 H 151.217 1.69613 7.53957 0
M  V30 1532 H 149.562 1.51859 6.78206 0
M  V30 1533 H 152.753 0.737817 4.62249 0
M  V30 1534 H 152.926 1.2701 6.35431 0
M  V30 1535 N 146.332 -1.57332 0.0918853 0
M  V30 1536 C 147.579 -1.94236 -0.572577 0
M  V30 1537 C 147.907 -0.973398 -1.6839 0
M  V30 1538 O 147.162 0.00756912 -1.95699 0
M  V30 1539 C 147.461 -3.37689 -1.17051 0
M  V30 1540 C 147.127 -4.50527 -0.183304 0
M  V30 1541 C 145.789 -4.81119 0.0882276 0
M  V30 1542 C 148.141 -5.18883 0.49095 0
M  V30 1543 C 145.469 -5.77395 1.04076 0
M  V30 1544 C 147.821 -6.1618 1.43193 0
M  V30 1545 C 146.485 -6.45179 1.71173 0
M  V30 1546 H 145.755 -0.710762 -0.209521 0
M  V30 1547 H 148.402 -1.9077 0.167036 0
M  V30 1548 H 146.707 -3.37718 -1.9863 0
M  V30 1549 H 148.404 -3.63543 -1.69227 0
M  V30 1550 H 144.994 -4.26681 -0.405124 0
M  V30 1551 H 149.178 -4.95427 0.294312 0
M  V30 1552 H 144.434 -5.98179 1.26457 0
M  V30 1553 H 148.608 -6.68243 1.96023 0
M  V30 1554 H 146.235 -7.1959 2.4514 0
M  V30 1555 N 147.81 0.181792 -1.56548 0
M  V30 1556 C 149.038 0.915947 -1.85521 0
M  V30 1557 C 149.453 1.76282 -0.676016 0
M  V30 1558 O 148.81 1.79012 0.355077 0
M  V30 1559 C 148.861 1.80126 -3.13427 0
M  V30 1560 O 148.582 0.988562 -4.26801 0
M  V30 1561 C 150.083 2.64597 -3.55673 0
M  V30 1562 H 147.303 0.26661 -0.61576 0
M  V30 1563 H 149.847 0.185039 -2.03661 0
M  V30 1564 H 148.002 2.48563 -2.97145 0
M  V30 1565 H 148.416 1.59308 -4.99721 0
M  V30 1566 H 149.89 3.2235 -4.48101 0
M  V30 1567 H 150.367 3.38958 -2.79292 0
M  V30 1568 H 150.973 2.0151 -3.74532 0
M  V30 1569 N 149.288 1.51039 0.449983 0
M  V30 1570 C 150.238 1.67824 1.54335 0
M  V30 1571 C 151.222 0.5324 1.51836 0
M  V30 1572 O 152.414 0.787762 1.58503 0
M  V30 1573 C 149.543 1.7951 2.92628 0
M  V30 1574 C 148.629 2.99838 2.9993 0
M  V30 1575 N 149.02 4.23207 2.77001 0
M  V30 1576 C 147.318 2.98832 3.31082 0
M  V30 1577 C 148.019 5.04361 2.89818 0
M  V30 1578 N 146.995 4.38746 3.2094 0
M  V30 1579 H 150.797 2.60884 1.35339 0
M  V30 1580 H 148.311 1.48513 0.657085 0
M  V30 1581 H 150.308 1.89642 3.7127 0
M  V30 1582 H 148.968 0.876227 3.12654 0
M  V30 1583 H 149.979 4.5236 2.52172 0
M  V30 1584 H 146.656 2.16527 3.56963 0
M  V30 1585 H 148.046 6.12528 2.76151 0
M  V30 1586 N 150.766 -0.704594 1.40972 0
M  V30 1587 C 151.714 -1.83994 1.42299 0
M  V30 1588 C 152.708 -1.66684 0.302111 0
M  V30 1589 O 153.914 -1.73655 0.473697 0
M  V30 1590 H 150.289 -0.606171 0.44504 0
M  V30 1591 H 152.26 -1.79992 2.38003 0
M  V30 1592 C 151.009 -3.21946 1.31323 0
M  V30 1593 H 150.332 -3.35878 2.16855 0
M  V30 1594 H 151.772 -4.01491 1.36311 0
M  V30 1595 C 150.231 -3.36891 0.0245977 0
M  V30 1596 O 150.761 -3.90687 -0.934153 0
M  V30 1597 N 148.967 -2.90559 -0.0485243 0
M  V30 1598 H 148.514 -2.46968 0.732419 0
M  V30 1599 H 148.472 -3.00937 -0.910171 0
M  V30 1600 N 152.244 -1.26651 -0.937939 0
M  V30 1601 C 153.472 -1.15173 -1.7188 0
M  V30 1602 C 153.887 0.292668 -1.86518 0
M  V30 1603 O 153.244 1.20014 -1.37488 0
M  V30 1604 C 153.295 -1.81925 -3.12387 0
M  V30 1605 O 153.016 -3.2072 -2.98446 0
M  V30 1606 C 154.517 -1.76442 -4.06673 0
M  V30 1607 H 151.737 -0.400911 -0.538063 0
M  V30 1608 H 154.281 -1.67332 -1.1756 0
M  V30 1609 H 152.436 -1.33696 -3.63599 0
M  V30 1610 H 152.85 -3.53802 -3.872 0
M  V30 1611 H 154.324 -2.27781 -5.02812 0
M  V30 1612 H 154.801 -0.731608 -4.33064 0
M  V30 1613 H 155.407 -2.24238 -3.61382 0
M  V30 1614 N 153.722 1.14298 -1.08507 0
M  V30 1615 C 155.133 1.66926 -0.836227 0
M  V30 1616 C 155.484 1.85576 0.63686 0
M  V30 1617 O 154.609 1.56767 1.49175 0
M  V30 1618 C 155.204 3.03219 -1.51142 0
M  V30 1619 C 153.763 3.52876 -1.30979 0
M  V30 1620 C 152.91 2.2833 -1.57356 0
M  V30 1621 H 155.861 0.983491 -1.24552 0
M  V30 1622 H 155.882 3.68726 -0.939211 0
M  V30 1623 H 155.394 2.89612 -2.58353 0
M  V30 1624 H 153.495 3.71703 -0.258429 0
M  V30 1625 H 153.608 4.33586 -2.03814 0
M  V30 1626 H 151.972 2.34454 -0.995164 0
M  V30 1627 H 152.755 2.17298 -2.65775 0
M  V30 1628 N 155.201 0.870884 1.31352 0
M  V30 1629 C 156.45 0.478408 1.95944 0
M  V30 1630 C 156.763 -0.974493 1.69597 0
M  V30 1631 O 157.969 -1.47316 2.28058 0
M  V30 1632 C 156.425 0.804609 3.50791 0
M  V30 1633 C 156.033 2.27433 3.85977 0
M  V30 1634 C 157.777 0.480648 4.2177 0
M  V30 1635 C 155.684 2.5429 5.33939 0
M  V30 1636 H 154.614 0.175175 0.733369 0
M  V30 1637 H 157.265 1.06391 1.4951 0
M  V30 1638 H 155.647 0.148347 3.95722 0
M  V30 1639 H 156.821 2.97373 3.52002 0
M  V30 1640 H 155.136 2.56442 3.28065 0
M  V30 1641 H 157.733 0.658519 5.30629 0
M  V30 1642 H 158.076 -0.578979 4.12254 0
M  V30 1643 H 158.609 1.09349 3.82476 0
M  V30 1644 H 155.348 3.58939 5.48491 0
M  V30 1645 H 154.868 1.88945 5.69263 0
M  V30 1646 H 156.547 2.39066 6.01212 0
M  V30 1647 N 156.679 -1.44442 0.630414 0
M  V30 1648 C 157.589 -2.34476 -0.0761693 0
M  V30 1649 C 158.605 -1.52576 -0.836449 0
M  V30 1650 O 159.781 -1.85307 -0.788874 0
M  V30 1651 C 156.846 -3.30545 -1.04599 0
M  V30 1652 C 155.907 -4.28352 -0.28516 0
M  V30 1653 C 155.14 -5.19831 -1.20878 0
M  V30 1654 O 155.363 -5.15223 -2.44747 0
M  V30 1655 O 154.297 -5.97892 -0.693491 0
M  V30 1656 H 158.123 -2.96345 0.664324 0
M  V30 1657 H 155.708 -1.44203 0.39061 0
M  V30 1658 H 157.59 -3.89681 -1.60396 0
M  V30 1659 H 156.265 -2.7121 -1.76711 0
M  V30 1660 H 155.172 -3.72764 0.315837 0
M  V30 1661 H 156.505 -4.90605 0.395924 0
M  V30 1662 N 158.157 -0.370918 -1.53173 0
M  V30 1663 C 159.403 0.217423 -2.01631 0
M  V30 1664 C 159.736 1.47983 -1.25756 0
M  V30 1665 O 159.011 1.91274 -0.352764 0
M  V30 1666 C 159.294 0.503982 -3.56556 0
M  V30 1667 C 159.147 -0.77243 -4.43118 0
M  V30 1668 C 160.466 1.30234 -4.20389 0
M  V30 1669 H 157.585 0.0775486 -0.732909 0
M  V30 1670 H 160.227 -0.496863 -1.83388 0
M  V30 1671 H 158.377 1.11248 -3.72231 0
M  V30 1672 H 160.049 -1.4098 -4.39229 0
M  V30 1673 H 158.292 -1.39167 -4.10871 0
M  V30 1674 H 158.963 -0.526815 -5.4948 0
M  V30 1675 H 161.439 0.787546 -4.08579 0
M  V30 1676 H 160.315 1.47158 -5.28806 0
M  V30 1677 H 160.576 2.31237 -3.76805 0
M  V30 1678 N 159.635 1.57281 -0.100228 0
M  V30 1679 C 160.884 1.93713 0.561984 0
M  V30 1680 C 161.197 0.984492 1.69018 0
M  V30 1681 O 162.403 1.24273 2.41389 0
M  V30 1682 C 160.859 3.4421 1.05106 0
M  V30 1683 C 160.467 4.47975 -0.0476628 0
M  V30 1684 C 162.211 3.89595 1.68571 0
M  V30 1685 C 160.118 5.89631 0.457055 0
M  V30 1686 H 159.048 0.723082 0.2137 0
M  V30 1687 H 161.699 1.82644 -0.177057 0
M  V30 1688 H 160.081 3.50449 1.84395 0
M  V30 1689 H 161.255 4.53385 -0.823333 0
M  V30 1690 H 159.57 4.1223 -0.587816 0
M  V30 1691 H 162.167 4.92832 2.07414 0
M  V30 1692 H 162.51 3.28526 2.55688 0
M  V30 1693 H 163.043 3.86078 0.958562 0
M  V30 1694 H 159.782 6.54411 -0.377616 0
M  V30 1695 H 159.302 5.87681 1.19962 0
M  V30 1696 H 160.981 6.40363 0.92437 0
M  V30 1697 N 161.113 -0.173488 1.56642 0
M  V30 1698 C 162.359 -0.887108 1.83035 0
M  V30 1699 C 162.714 -1.79965 0.680461 0
M  V30 1700 O 162.007 -1.88854 -0.323225 0
M  V30 1701 C 162.201 -1.72069 3.13252 0
M  V30 1702 C 162.03 -0.89035 4.40798 0
M  V30 1703 C 160.8 -0.566282 5.02117 0
M  V30 1704 C 162.998 -0.232921 5.13772 0
M  V30 1705 N 160.98 0.280427 6.13259 0
M  V30 1706 C 162.351 0.475046 6.18177 0
M  V30 1707 C 164.406 -0.150863 4.97671 0
M  V30 1708 C 163.109 1.25729 7.08227 0
M  V30 1709 C 165.135 0.618039 5.88162 0
M  V30 1710 C 164.497 1.31438 6.92029 0
M  V30 1711 H 160.596 -0.303303 0.720785 0
M  V30 1712 H 163.18 -0.154244 1.94088 0
M  V30 1713 H 161.351 -2.42499 3.03395 0
M  V30 1714 H 163.083 -2.37545 3.2765 0
M  V30 1715 H 159.838 -0.895852 4.6505 0
M  V30 1716 H 160.262 0.694027 6.73433 0
M  V30 1717 H 164.904 -0.674868 4.17379 0
M  V30 1718 H 162.622 1.79265 7.87966 0
M  V30 1719 H 166.208 0.683173 5.77775 0
M  V30 1720 H 165.088 1.89981 7.6084 0
M  V30 1721 N 162.591 -1.51276 -0.441967 0
M  V30 1722 C 163.819 -1.67516 -1.21434 0
M  V30 1723 C 164.234 -0.37055 -1.85128 0
M  V30 1724 O 163.591 0.650498 -1.70513 0
M  V30 1725 C 163.642 -2.78748 -2.30177 0
M  V30 1726 O 163.363 -4.04154 -1.69089 0
M  V30 1727 C 164.864 -3.06217 -3.20541 0
M  V30 1728 H 162.084 -0.562276 -0.366178 0
M  V30 1729 H 164.628 -1.97666 -0.524244 0
M  V30 1730 H 162.783 -2.5121 -2.94911 0
M  V30 1731 H 163.197 -4.65894 -2.40922 0
M  V30 1732 H 164.671 -3.8764 -3.92987 0
M  V30 1733 H 165.148 -2.18439 -3.81026 0
M  V30 1734 H 165.754 -3.35397 -2.61513 0
M  V30 1735 N 164.069 0.697108 -1.41344 0
M  V30 1736 C 164.999 1.82353 -1.45841 0
M  V30 1737 C 165.98 1.67115 -0.317247 0
M  V30 1738 O 167.165 1.86871 -0.528474 0
M  V30 1739 C 164.295 3.20476 -1.33838 0
M  V30 1740 C 163.249 3.50415 -2.4575 0
M  V30 1741 C 162.575 4.87878 -2.18813 0
M  V30 1742 C 163.875 3.49546 -3.88091 0
M  V30 1743 H 165.569 1.78846 -2.40113 0
M  V30 1744 H 163.115 0.859028 -1.15571 0
M  V30 1745 H 165.068 3.98988 -1.35596 0
M  V30 1746 H 163.792 3.24604 -0.360498 0
M  V30 1747 H 162.451 2.74253 -2.43271 0
M  V30 1748 H 162.099 4.8863 -1.19371 0
M  V30 1749 H 161.799 5.08875 -2.93803 0
M  V30 1750 H 163.323 5.68702 -2.22284 0
M  V30 1751 H 164.737 4.18066 -3.92293 0
M  V30 1752 H 163.134 3.82075 -4.62751 0
M  V30 1753 H 164.204 2.48552 -4.16353 0
M  V30 1754 N 165.547 1.27147 0.931209 0
M  V30 1755 C 166.793 1.13446 1.68101 0
M  V30 1756 C 167.126 -0.319628 1.91552 0
M  V30 1757 O 166.401 -1.23407 1.50336 0
M  V30 1758 C 166.684 1.91482 3.0497 0
M  V30 1759 C 166.537 3.44855 2.88782 0
M  V30 1760 C 167.856 1.71651 4.05246 0
M  V30 1761 H 164.975 0.413498 0.610072 0
M  V30 1762 H 167.617 1.56261 1.08086 0
M  V30 1763 H 165.767 1.55095 3.56199 0
M  V30 1764 H 167.439 3.9105 2.44698 0
M  V30 1765 H 165.682 3.71373 2.24198 0
M  V30 1766 H 166.353 3.94694 3.85902 0
M  V30 1767 H 168.829 2.0337 3.63015 0
M  V30 1768 H 167.705 2.28651 4.99009 0
M  V30 1769 H 167.966 0.663555 4.37092 0
M  V30 1770 N 167.025 -1.13721 1.09112 0
M  V30 1771 C 168.436 -1.6648 0.845068 0
M  V30 1772 C 168.787 -1.85911 -0.62701 0
M  V30 1773 O 167.912 -1.57556 -1.48341 0
M  V30 1774 C 168.507 -3.02413 1.52748 0
M  V30 1775 C 167.066 -3.52176 1.32849 0
M  V30 1776 C 166.213 -2.27492 1.58564 0
M  V30 1777 H 169.164 -0.976872 1.25072 0
M  V30 1778 H 169.185 -3.68223 0.958752 0
M  V30 1779 H 168.697 -2.88238 2.59885 0
M  V30 1780 H 166.798 -3.7156 0.278137 0
M  V30 1781 H 166.911 -4.32499 2.0611 0
M  V30 1782 H 165.275 -2.33923 1.00758 0
M  V30 1783 H 166.058 -2.15886 2.66924 0
M  V30 1784 N 168.503 -0.877838 -1.30888 0
M  V30 1785 C 169.749 -0.493426 -1.96706 0
M  V30 1786 C 170.082 0.953504 -1.6918 0
M  V30 1787 O 169.357 1.67266 -0.992594 0
M  V30 1788 C 169.64 -0.760429 -3.51979 0
M  V30 1789 C 169.493 -2.25747 -3.89048 0
M  V30 1790 C 170.812 -0.232148 -4.39487 0
M  V30 1791 H 167.931 -0.180746 -0.714493 0
M  V30 1792 H 170.573 -1.10052 -1.54882 0
M  V30 1793 H 168.723 -0.243715 -3.87735 0
M  V30 1794 H 170.395 -2.84204 -3.63354 0
M  V30 1795 H 168.638 -2.72694 -3.37373 0
M  V30 1796 H 169.309 -2.39491 -4.97341 0
M  V30 1797 H 171.785 -0.674314 -4.106 0
M  V30 1798 H 170.661 -0.448355 -5.47066 0
M  V30 1799 H 170.922 0.866297 -4.33529 0
M  V30 1800 N 169.982 1.44106 -0.638065 0
M  V30 1801 C 170.912 2.33448 0.0494287 0
M  V30 1802 C 171.893 1.48606 0.827672 0
M  V30 1803 O 173.078 1.77308 0.792173 0
M  V30 1804 C 170.208 3.31771 1.02691 0
M  V30 1805 C 169.162 4.26485 0.359823 0
M  V30 1806 C 168.488 5.14729 1.44769 0
M  V30 1807 C 169.788 5.17056 -0.738296 0
M  V30 1808 H 171.482 2.91183 -0.696636 0
M  V30 1809 H 169.028 1.40014 -0.336456 0
M  V30 1810 H 170.981 3.93161 1.51666 0
M  V30 1811 H 169.705 2.7226 1.80395 0
M  V30 1812 H 168.364 3.66437 -0.10934 0
M  V30 1813 H 168.012 4.51566 2.21578 0
M  V30 1814 H 167.712 5.78913 1.00668 0
M  V30 1815 H 169.236 5.78991 1.93911 0
M  V30 1816 H 170.65 5.72342 -0.331354 0
M  V30 1817 H 169.047 5.89879 -1.10286 0
M  V30 1818 H 170.117 4.57652 -1.60258 0
M  V30 1819 N 171.46 0.379036 1.52974 0
M  V30 1820 C 172.709 -0.207612 2.00629 0
M  V30 1821 C 173.022 -1.48758 1.27006 0
M  V30 1822 O 174.228 -2.15365 1.65318 0
M  V30 1823 C 172.684 -0.42053 3.57435 0
M  V30 1824 C 172.292 0.845587 4.39948 0
M  V30 1825 C 174.036 -0.964102 4.13407 0
M  V30 1826 C 171.943 0.601513 5.88333 0
M  V30 1827 H 170.873 -0.0813591 0.749598 0
M  V30 1828 H 173.524 0.499853 1.76561 0
M  V30 1829 H 171.906 -1.18959 3.7771 0
M  V30 1830 H 173.08 1.61848 4.31442 0
M  V30 1831 H 171.395 1.31336 3.95145 0
M  V30 1832 H 173.992 -1.16225 5.21916 0
M  V30 1833 H 174.335 -1.93019 3.68849 0
M  V30 1834 H 174.868 -0.25487 3.96983 0
M  V30 1835 H 171.607 1.53831 6.37194 0
M  V30 1836 H 171.127 -0.132628 5.99653 0
M  V30 1837 H 172.806 0.232134 6.46583 0
M  V30 1838 N 172.938 -1.57226 0.108567 0
M  V30 1839 C 173.868 -2.17778 -0.84232 0
M  V30 1840 C 174.849 -1.11487 -1.2847 0
M  V30 1841 O 176.034 -1.39681 -1.34918 0
M  V30 1842 C 173.164 -2.76888 -2.09644 0
M  V30 1843 C 172.118 -3.88669 -1.79221 0
M  V30 1844 C 171.444 -4.34541 -3.11574 0
M  V30 1845 C 172.744 -5.11251 -1.06864 0
M  V30 1846 H 174.438 -2.97489 -0.337774 0
M  V30 1847 H 171.984 -1.43097 -0.161025 0
M  V30 1848 H 173.937 -3.17904 -2.76614 0
M  V30 1849 H 172.661 -1.94451 -2.62405 0
M  V30 1850 H 171.32 -3.48213 -1.14644 0
M  V30 1851 H 170.968 -3.48977 -3.62249 0
M  V30 1852 H 170.668 -5.09914 -2.91996 0
M  V30 1853 H 172.192 -4.782 -3.7968 0
M  V30 1854 H 173.606 -5.49352 -1.63968 0
M  V30 1855 H 172.003 -5.9214 -0.974178 0
M  V30 1856 H 173.073 -4.8487 -0.0536168 0
M  V30 1857 N 174.416 0.165178 -1.56732 0
M  V30 1858 C 175.662 0.882112 -1.82611 0
M  V30 1859 C 175.995 1.81628 -0.687378 0
M  V30 1860 O 175.27 1.92009 0.310267 0
M  V30 1861 C 175.553 1.67245 -3.18906 0
M  V30 1862 C 175.406 0.760987 -4.43316 0
M  V30 1863 C 176.725 2.63884 -3.52212 0
M  V30 1864 H 173.844 0.319242 -0.664269 0
M  V30 1865 H 176.486 0.148052 -1.89422 0
M  V30 1866 H 174.636 2.29824 -3.1323 0
M  V30 1867 H 176.308 0.147596 -4.61064 0
M  V30 1868 H 174.551 0.0694102 -4.33744 0
M  V30 1869 H 175.222 1.34962 -5.35247 0
M  V30 1870 H 177.698 2.11429 -3.58381 0
M  V30 1871 H 176.574 3.16245 -4.48643 0
M  V30 1872 H 176.835 3.44377 -2.77231 0
M  V30 1873 N 175.894 1.51508 0.433938 0
M  V30 1874 C 176.857 1.72473 1.50949 0
M  V30 1875 C 177.857 0.594725 1.49398 0
M  V30 1876 O 179.047 0.862315 1.5136 0
M  V30 1877 C 176.179 1.78431 2.90474 0
M  V30 1878 H 177.372 2.68467 1.33662 0
M  V30 1879 H 174.925 1.41549 0.662836 0
M  V30 1880 H 175.66 0.842645 3.13161 0
M  V30 1881 H 175.445 2.60558 2.93005 0
M  V30 1882 H 176.935 1.96479 3.68491 0
M  V30 1883 N 177.372 -0.689602 1.41712 0
M  V30 1884 C 178.621 -1.44534 1.40686 0
M  V30 1885 C 178.934 -1.95588 0.0213352 0
M  V30 1886 O 180.14 -2.71271 -0.111534 0
M  V30 1887 C 178.596 -2.61387 2.47396 0
M  V30 1888 C 178.204 -2.17094 3.91885 0
M  V30 1889 C 179.948 -3.38986 2.55517 0
M  V30 1890 C 177.855 -3.3094 4.90135 0
M  V30 1891 H 176.785 -0.542925 0.52321 0
M  V30 1892 H 179.436 -0.748054 1.6756 0
M  V30 1893 H 177.818 -3.33412 2.13664 0
M  V30 1894 H 178.992 -1.52318 4.34897 0
M  V30 1895 H 177.307 -1.52473 3.8748 0
M  V30 1896 H 179.904 -4.23747 3.26102 0
M  V30 1897 H 180.247 -3.84578 1.59391 0
M  V30 1898 H 180.78 -2.74021 2.8837 0
M  V30 1899 H 177.519 -2.90355 5.87685 0
M  V30 1900 H 177.039 -3.94546 4.51767 0
M  V30 1901 H 178.718 -3.9663 5.11169 0
M  V30 1902 N 178.85 -1.27639 -0.924453 0
M  V30 1903 C 180.098 -1.13941 -1.66918 0
M  V30 1904 C 180.419 0.314589 -1.92446 0
M  V30 1905 O 179.689 1.21964 -1.53303 0
M  V30 1906 H 178.269 -0.418678 -0.618642 0
M  V30 1907 H 180.931 -1.60213 -1.10985 0
M  V30 1908 H 180.027 -1.67094 -2.63602 0
M  V30 1909 N 180.328 1.1314 -1.09713 0
M  V30 1910 C 181.291 2.16831 -0.742751 0
M  V30 1911 C 182.291 1.59159 0.229129 0
M  V30 1912 O 183.481 1.74199 0.00693237 0
M  V30 1913 C 180.613 3.40756 -0.0989168 0
M  V30 1914 H 181.806 2.49695 -1.66109 0
M  V30 1915 H 179.359 1.2802 -0.896699 0
M  V30 1916 H 180.094 3.13485 0.830514 0
M  V30 1917 H 179.879 3.83888 -0.798265 0
M  V30 1918 H 181.369 4.17386 0.133524 0
M  V30 1919 N 181.806 0.884767 1.30421 0
M  V30 1920 C 183.053 0.503105 1.96151 0
M  V30 1921 C 183.381 -0.947676 1.69851 0
M  V30 1922 O 182.636 -1.68467 0.995861 0
M  V30 1923 C 182.935 0.724318 3.49983 0
M  V30 1924 C 182.601 2.15015 3.96332 0
M  V30 1925 C 181.263 2.54005 4.08699 0
M  V30 1926 C 183.615 3.07936 4.20505 0
M  V30 1927 C 180.943 3.85128 4.42599 0
M  V30 1928 C 183.295 4.3859 4.55874 0
M  V30 1929 C 181.959 4.77474 4.66449 0
M  V30 1930 H 181.229 0.184099 0.717766 0
M  V30 1931 H 183.876 1.12058 1.55291 0
M  V30 1932 H 182.181 0.0238086 3.91793 0
M  V30 1933 H 183.878 0.408617 3.98913 0
M  V30 1934 H 180.468 1.8375 3.87213 0
M  V30 1935 H 184.652 2.79033 4.10431 0
M  V30 1936 H 179.908 4.14996 4.48986 0
M  V30 1937 H 184.082 5.10629 4.7353 0
M  V30 1938 H 181.709 5.79115 4.92473 0
M  V30 1939 N 183.284 -1.43765 0.645699 0
M  V30 1940 C 184.509 -2.06767 0.161883 0
M  V30 1941 C 184.934 -1.48034 -1.16049 0
M  V30 1942 O 184.292 -0.587369 -1.71522 0
M  V30 1943 C 184.34 -3.60519 0.0762003 0
M  V30 1944 O 183.444 -4.00982 -0.963721 0
M  V30 1945 H 182.785 -0.657675 0.091429 0
M  V30 1946 H 185.315 -1.84397 0.886499 0
M  V30 1947 H 185.325 -4.07853 -0.109604 0
M  V30 1948 H 184 -4.02646 1.04157 0
M  V30 1949 H 182.577 -3.65253 -0.751312 0
M  V30 1950 N 184.763 -0.387143 -1.52771 0
M  V30 1951 C 185.693 0.440551 -2.29306 0
M  V30 1952 C 186.674 1.06535 -1.32606 0
M  V30 1953 O 187.859 1.07853 -1.61497 0
M  V30 1954 C 184.989 1.56919 -3.09829 0
M  V30 1955 C 183.943 1.07054 -4.14395 0
M  V30 1956 C 183.269 2.29109 -4.83129 0
M  V30 1957 C 184.569 0.140015 -5.22112 0
M  V30 1958 H 186.263 -0.198026 -2.98744 0
M  V30 1959 H 183.809 -0.09668 -1.43675 0
M  V30 1960 H 185.762 2.15503 -3.62128 0
M  V30 1961 H 184.486 2.23532 -2.3812 0
M  V30 1962 H 183.145 0.507247 -3.63074 0
M  V30 1963 H 182.793 2.94227 -4.0797 0
M  V30 1964 H 182.493 1.96406 -5.53804 0
M  V30 1965 H 184.017 2.88339 -5.38231 0
M  V30 1966 H 185.431 0.633978 -5.69784 0
M  V30 1967 H 183.828 -0.0971485 -6.00021 0
M  V30 1968 H 184.898 -0.811711 -4.78058 0
M  V30 1969 N 186.241 1.57166 -0.116904 0
M  V30 1970 C 187.652 1.82169 0.408809 0
M  V30 1971 C 188.003 1.03393 1.66746 0
M  V30 1972 O 187.128 0.269886 2.1471 0
M  V30 1973 C 187.723 3.30429 0.748466 0
M  V30 1974 C 186.282 3.5612 1.21882 0
M  V30 1975 C 185.429 2.76374 0.226452 0
M  V30 1976 H 188.38 1.5497 -0.342063 0
M  V30 1977 H 188.401 3.44943 1.60607 0
M  V30 1978 H 187.913 3.87737 -0.167784 0
M  V30 1979 H 186.014 3.04168 2.15204 0
M  V30 1980 H 186.127 4.64705 1.16559 0
M  V30 1981 H 184.491 2.44515 0.713063 0
M  V30 1982 H 185.274 3.3644 -0.682859 0
M  V30 1983 N 187.719 -0.156864 1.56817 0
M  V30 1984 C 188.968 -0.869504 1.81996 0
M  V30 1985 C 189.281 -1.82777 0.696545 0
M  V30 1986 O 190.487 -2.58384 0.833658 0
M  V30 1987 C 188.943 -1.59679 3.22538 0
M  V30 1988 C 188.551 -0.681431 4.42787 0
M  V30 1989 C 190.295 -2.2968 3.56997 0
M  V30 1990 C 188.202 -1.40978 5.74351 0
M  V30 1991 H 187.132 -0.328438 0.678708 0
M  V30 1992 H 189.783 -0.1223 1.83092 0
M  V30 1993 H 188.165 -2.38927 3.158 0
M  V30 1994 H 189.339 0.0751166 4.60739 0
M  V30 1995 H 187.654 -0.0903431 4.16302 0
M  V30 1996 H 190.251 -2.84794 4.52544 0
M  V30 1997 H 190.594 -3.05707 2.82576 0
M  V30 1998 H 191.127 -1.57361 3.65352 0
M  V30 1999 H 187.866 -0.691561 6.51842 0
M  V30 2000 H 187.386 -2.13929 5.60352 0
M  V30 2001 H 189.065 -1.95337 6.16808 0
M  V30 2002 N 189.197 -1.51736 -0.425897 0
M  V30 2003 C 190.127 -1.76827 -1.52494 0
M  V30 2004 C 191.108 -0.618524 -1.58456 0
M  V30 2005 O 192.293 -0.862416 -1.74 0
M  V30 2006 C 189.423 -1.90374 -2.90474 0
M  V30 2007 C 188.377 -3.0588 -2.99369 0
M  V30 2008 C 187.703 -3.04625 -4.3944 0
M  V30 2009 C 189.003 -4.45644 -2.72394 0
M  V30 2010 H 190.697 -2.68855 -1.31748 0
M  V30 2011 H 188.243 -1.29372 -0.632362 0
M  V30 2012 H 190.196 -2.0651 -3.6733 0
M  V30 2013 H 188.92 -0.95004 -3.12477 0
M  V30 2014 H 187.579 -2.89467 -2.24954 0
M  V30 2015 H 187.227 -2.0701 -4.58428 0
M  V30 2016 H 186.927 -3.82195 -4.46319 0
M  V30 2017 H 188.451 -3.22869 -5.18255 0
M  V30 2018 H 189.865 -4.62348 -3.38979 0
M  V30 2019 H 188.262 -5.25006 -2.9067 0
M  V30 2020 H 189.332 -4.54893 -1.67929 0
M  V30 2021 N 190.675 0.682077 -1.42076 0
M  V30 2022 C 191.922 1.44215 -1.42156 0
M  V30 2023 C 192.25 1.94468 -0.0354186 0
M  V30 2024 O 191.505 1.70816 0.955002 0
M  V30 2025 C 191.804 2.66036 -2.38662 0
M  V30 2026 C 191.47 2.34366 -3.85206 0
M  V30 2027 C 190.132 2.25439 -4.25124 0
M  V30 2028 C 192.484 2.08513 -4.77673 0
M  V30 2029 C 189.812 1.88775 -5.55501 0
M  V30 2030 C 192.164 1.73354 -6.08384 0
M  V30 2031 C 190.828 1.62933 -6.47309 0
M  V30 2032 H 190.098 0.527718 -0.520187 0
M  V30 2033 H 192.745 0.778387 -1.74967 0
M  V30 2034 H 191.05 3.3741 -1.99152 0
M  V30 2035 H 192.747 3.24205 -2.35991 0
M  V30 2036 H 189.337 2.42213 -3.53597 0
M  V30 2037 H 193.521 2.14346 -4.47626 0
M  V30 2038 H 188.777 1.7927 -5.84527 0
M  V30 2039 H 192.951 1.52373 -6.79526 0
M  V30 2040 H 190.578 1.34292 -7.48244 0
M  V30 2041 N 192.153 1.28127 0.917671 0
M  V30 2042 C 193.569 1.05749 1.19538 0
M  V30 2043 C 193.769 -0.202633 2.00479 0
M  V30 2044 O 192.825 -0.905382 2.3571 0
M  V30 2045 C 194.138 2.30273 1.93378 0
M  V30 2046 C 195.686 2.35412 2.06277 0
M  V30 2047 C 196.161 3.59692 2.83524 0
M  V30 2048 N 197.652 3.60309 2.91087 0
M  V30 2049 C 198.387 4.53147 3.51348 0
M  V30 2050 N 197.883 5.563 4.12919 0
M  V30 2051 N 199.676 4.40751 3.48849 0
M  V30 2052 H 191.827 2.09024 0.377184 0
M  V30 2053 H 194.09 0.919798 0.22951 0
M  V30 2054 H 193.796 3.22055 1.41328 0
M  V30 2055 H 193.67 2.36378 2.93947 0
M  V30 2056 H 196.057 1.4413 2.57508 0
M  V30 2057 H 196.138 2.33304 1.04895 0
M  V30 2058 H 195.782 4.51316 2.32973 0
M  V30 2059 H 195.712 3.59054 3.85211 0
M  V30 2060 H 198.203 2.85714 2.47338 0
M  V30 2061 H 198.516 6.2329 4.56869 0
M  V30 2062 H 196.861 5.60131 4.11435 0
M  V30 2063 H 200.052 3.59367 2.99955 0
M  V30 2064 H 200.225 5.13291 3.9552 0
M  V30 2065 N 193.631 -1.12557 1.10312 0
M  V30 2066 C 194.856 -1.88405 0.867085 0
M  V30 2067 C 195.281 -1.79038 -0.576817 0
M  V30 2068 O 194.639 -1.14439 -1.40618 0
M  V30 2069 C 194.687 -3.3563 1.31851 0
M  V30 2070 O 193.791 -4.09565 0.482734 0
M  V30 2071 H 193.132 -0.585455 0.313271 0
M  V30 2072 H 195.662 -1.42352 1.4696 0
M  V30 2073 H 195.672 -3.86469 1.3079 0
M  V30 2074 H 194.347 -3.41765 2.37001 0
M  V30 2075 H 192.924 -3.68695 0.558448 0
M  V30 2076 N 195.109 -0.891671 -1.2995 0
M  V30 2077 C 196.041 -0.320695 -2.26945 0
M  V30 2078 C 197.054 0.528497 -1.53983 0
M  V30 2079 O 198.243 0.346959 -1.75096 0
M  V30 2080 C 195.343 0.562066 -3.34207 0
M  V30 2081 C 194.516 -0.259576 -4.36629 0
M  V30 2082 C 193.575 0.554739 -5.23268 0
M  V30 2083 O 192.601 -0.0249311 -5.69195 0
M  V30 2084 N 193.803 1.8625 -5.4981 0
M  V30 2085 H 196.568 -1.15432 -2.76578 0
M  V30 2086 H 194.129 -0.755336 -1.432 0
M  V30 2087 H 196.121 1.11304 -3.89093 0
M  V30 2088 H 194.691 1.29637 -2.84452 0
M  V30 2089 H 193.911 -0.991986 -3.81514 0
M  V30 2090 H 195.199 -0.822564 -5.02107 0
M  V30 2091 H 194.597 2.35628 -5.14292 0
M  V30 2092 H 193.154 2.36078 -6.07545 0
M  V30 2093 N 196.587 1.43421 -0.653314 0
M  V30 2094 C 197.497 2.34568 0.0388565 0
M  V30 2095 C 198.513 1.53888 0.81207 0
M  V30 2096 O 199.689 1.86539 0.759294 0
M  V30 2097 C 196.754 3.32167 0.993269 0
M  V30 2098 C 195.815 4.28751 0.216977 0
M  V30 2099 C 195.048 5.21688 1.12593 0
M  V30 2100 O 195.271 5.19052 2.36519 0
M  V30 2101 O 194.205 5.98919 0.598284 0
M  V30 2102 H 198.031 2.95251 -0.711386 0
M  V30 2103 H 195.616 1.43564 -0.413502 0
M  V30 2104 H 197.498 3.92183 1.54176 0
M  V30 2105 H 196.173 2.73987 1.72374 0
M  V30 2106 H 195.08 3.72215 -0.375101 0
M  V30 2107 H 196.413 4.89913 -0.473924 0
M  V30 2108 N 198.065 0.39524 1.52563 0
M  V30 2109 C 198.998 -0.4813 2.23067 0
M  V30 2110 C 199.976 -1.05927 1.23362 0
M  V30 2111 O 201.16 -1.10979 1.52368 0
M  V30 2112 C 198.287 -1.66676 2.9485 0
M  V30 2113 C 197.333 -1.21348 4.08873 0
M  V30 2114 S 198.166 -0.190102 5.35162 0
M  V30 2115 C 199.322 -1.38121 6.1047 0
M  V30 2116 H 199.555 0.117381 2.97068 0
M  V30 2117 H 197.088 0.179458 1.53354 0
M  V30 2118 H 199.046 -2.3466 3.36816 0
M  V30 2119 H 197.707 -2.23676 2.20518 0
M  V30 2120 H 196.9 -2.09877 4.58222 0
M  V30 2121 H 196.502 -0.612486 3.68951 0
M  V30 2122 H 198.794 -2.30726 6.37002 0
M  V30 2123 H 199.737 -0.928521 7.01986 0
M  V30 2124 H 200.145 -1.60071 5.41329 0
M  V30 2125 N 199.544 -1.57102 0.125237 0
M  V30 2126 C 200.955 -1.82384 -0.399142 0
M  V30 2127 C 201.306 -1.04276 -1.66195 0
M  V30 2128 O 200.431 -0.281269 -2.14564 0
M  V30 2129 C 201.026 -3.30821 -0.730932 0
M  V30 2130 C 199.585 -3.56762 -1.19992 0
M  V30 2131 C 198.732 -2.7649 -0.211792 0
M  V30 2132 H 201.683 -1.54786 0.350277 0
M  V30 2133 H 201.704 -3.4579 -1.58775 0
M  V30 2134 H 201.216 -3.87643 0.188345 0
M  V30 2135 H 199.317 -3.05305 -2.13588 0
M  V30 2136 H 199.43 -4.65317 -1.14093 0
M  V30 2137 H 197.794 -2.4489 -0.700085 0
M  V30 2138 H 198.577 -3.36073 0.700691 0
M  V30 2139 N 201.022 0.148545 -1.56898 0
M  V30 2140 C 201.97 1.20265 -1.99096 0
M  V30 2141 C 202.964 1.44559 -0.883123 0
M  V30 2142 O 204.17 1.4487 -1.0683 0
M  V30 2143 H 200.545 0.404786 -0.63376 0
M  V30 2144 H 202.516 0.82004 -2.86911 0
M  V30 2145 C 201.265 2.52886 -2.3863 0
M  V30 2146 H 200.588 2.35021 -3.23427 0
M  V30 2147 H 202.028 3.25274 -2.7198 0
M  V30 2148 C 200.487 3.13315 -1.23837 0
M  V30 2149 O 201.017 3.98077 -0.538268 0
M  V30 2150 N 199.223 2.72742 -1.00301 0
M  V30 2151 H 198.77 2.03912 -1.5741 0
M  V30 2152 H 198.728 3.13507 -0.236838 0
M  V30 2153 N 202.5 1.5196 0.417844 0
M  V30 2154 C 203.777 1.56146 1.17803 0
M  V30 2155 C 204.157 0.337275 2.08388 0
M  V30 2156 O 203.505 -0.676447 2.18258 0
M  V30 2157 C 203.715 2.88566 1.96293 0
M  V30 2158 C 205.063 3.41244 2.52662 0
M  V30 2159 O 206.087 2.90247 2.06483 0
M  V30 2160 O 204.946 4.30273 3.36938 0
M  V30 2161 H 202.04 0.628598 0.537395 0
M  V30 2162 H 204.586 1.64283 0.425331 0
M  V30 2163 H 203.358 3.69116 1.2988 0
M  V30 2164 H 202.981 2.83681 2.78587 0
M  V30 2165 N 203.978 -0.674533 1.42435 0
M  V30 2166 C 205.389 -1.25514 1.38214 0
M  V30 2167 C 205.74 -1.96055 0.0755464 0
M  V30 2168 O 204.865 -2.00028 -0.8257 0
M  V30 2169 C 205.46 -2.28269 2.50357 0
M  V30 2170 C 204.019 -2.81856 2.49467 0
M  V30 2171 C 203.166 -1.56182 2.29134 0
M  V30 2172 H 206.117 -0.467902 1.51646 0
M  V30 2173 H 206.138 -3.10009 2.20624 0
M  V30 2174 H 205.65 -1.769 3.45439 0
M  V30 2175 H 203.751 -3.37346 1.58204 0
M  V30 2176 H 203.864 -3.30854 3.46515 0
M  V30 2177 H 202.228 -1.82761 1.774 0
M  V30 2178 H 203.011 -1.06778 3.26272 0
M  V30 2179 N 205.456 -1.28612 -0.910864 0
M  V30 2180 C 206.733 -1.06632 -1.63979 0
M  V30 2181 C 207.113 0.393351 -2.07403 0
M  V30 2182 O 206.461 1.37999 -1.82122 0
M  V30 2183 C 206.671 -2.0436 -2.8291 0
M  V30 2184 C 208.019 -2.34666 -3.5386 0
M  V30 2185 O 209.043 -2.02467 -2.93062 0
M  V30 2186 O 207.902 -2.89631 -4.63439 0
M  V30 2187 H 204.996 -0.407737 -0.7195 0
M  V30 2188 H 207.542 -1.39942 -0.959914 0
M  V30 2189 H 206.314 -3.02727 -2.47936 0
M  V30 2190 H 205.937 -1.71714 -3.58609 0
M  V30 2191 N 206.934 1.1197 -1.10907 0
M  V30 2192 C 207.864 2.19928 -0.784473 0
M  V30 2193 C 208.845 1.6833 0.244726 0
M  V30 2194 O 210.03 1.93892 0.109418 0
M  V30 2195 C 207.16 3.46597 -0.220827 0
M  V30 2196 C 206.114 4.11376 -1.18127 0
M  V30 2197 C 205.44 5.32554 -0.478594 0
M  V30 2198 C 206.74 4.56945 -2.52979 0
M  V30 2199 H 208.434 2.47337 -1.68715 0
M  V30 2200 H 205.98 1.18879 -0.812642 0
M  V30 2201 H 207.933 4.21396 0.0184278 0
M  V30 2202 H 206.657 3.1863 0.717113 0
M  V30 2203 H 205.316 3.38564 -1.40606 0
M  V30 2204 H 204.964 5.00856 0.463976 0
M  V30 2205 H 204.664 5.76844 -1.11912 0
M  V30 2206 H 206.188 6.10096 -0.248 0
M  V30 2207 H 207.602 5.23093 -2.3462 0
M  V30 2208 H 205.999 5.1203 -3.12962 0
M  V30 2209 H 207.069 3.70676 -3.12614 0
M  V30 2210 N 208.412 0.89855 1.29475 0
M  V30 2211 C 209.658 0.524658 1.95896 0
M  V30 2212 C 209.991 -0.926468 1.70676 0
M  V30 2213 O 209.266 -1.65665 1.01908 0
M  V30 2214 C 209.549 0.81633 3.50725 0
M  V30 2215 C 209.402 2.31907 3.85408 0
M  V30 2216 C 210.721 0.302038 4.39062 0
M  V30 2217 H 207.84 0.19209 0.711527 0
M  V30 2218 H 210.482 1.12502 1.53112 0
M  V30 2219 H 208.632 0.305369 3.87298 0
M  V30 2220 H 210.304 2.89949 3.58786 0
M  V30 2221 H 208.547 2.78027 3.32992 0
M  V30 2222 H 209.218 2.47373 4.93468 0
M  V30 2223 H 211.694 0.739551 4.09475 0
M  V30 2224 H 210.57 0.535331 5.46283 0
M  V30 2225 H 210.831 -0.797216 4.34853 0
M  V30 2226 N 209.89 -1.43072 0.660911 0
M  V30 2227 C 211.139 -2.00942 0.174735 0
M  V30 2228 C 211.452 -1.52797 -1.22117 0
M  V30 2229 O 212.658 -2.02991 -1.80297 0
M  V30 2230 C 211.114 -3.58948 0.261559 0
M  V30 2231 C 210.722 -4.16085 1.66064 0
M  V30 2232 C 212.466 -4.24173 -0.166617 0
M  V30 2233 C 210.373 -5.6641 1.70098 0
M  V30 2234 H 209.303 -0.751483 0.0615631 0
M  V30 2235 H 211.954 -1.63955 0.824069 0
M  V30 2236 H 210.336 -3.93372 -0.455421 0
M  V30 2237 H 211.51 -3.93147 2.40359 0
M  V30 2238 H 209.825 -3.6326 2.03546 0
M  V30 2239 H 212.422 -5.34471 -0.156433 0
M  V30 2240 H 212.765 -3.98647 -1.19943 0
M  V30 2241 H 213.298 -3.94659 0.498875 0
M  V30 2242 H 210.037 -5.96715 2.71315 0
M  V30 2243 H 209.557 -5.91382 1.00139 0
M  V30 2244 H 211.236 -6.30585 1.44816 0
M  V30 2245 N 211.368 -0.403325 -1.52352 0
M  V30 2246 C 212.315 0.425011 -2.26853 0
M  V30 2247 C 213.285 1.04598 -1.29029 0
M  V30 2248 O 214.47 1.07135 -1.57882 0
M  V30 2249 C 211.61 1.53888 -3.08889 0
M  V30 2250 C 210.723 0.939396 -4.21663 0
M  V30 2251 C 209.858 2.02547 -4.91068 0
M  V30 2252 C 208.897 1.40263 -5.95813 0
M  V30 2253 N 208.034 2.4286 -6.58759 0
M  V30 2254 H 212.874 -0.21674 -2.97211 0
M  V30 2255 H 210.411 -0.118722 -1.4662 0
M  V30 2256 H 212.369 2.19558 -3.54753 0
M  V30 2257 H 210.999 2.15074 -2.40714 0
M  V30 2258 H 210.051 0.171898 -3.80011 0
M  V30 2259 H 211.363 0.44436 -4.96817 0
M  V30 2260 H 210.517 2.75958 -5.40308 0
M  V30 2261 H 209.256 2.55415 -4.15469 0
M  V30 2262 H 208.261 0.653833 -5.45898 0
M  V30 2263 H 209.486 0.881719 -6.73352 0
M  V30 2264 H 207.432 2.94871 -5.85992 0
M  V30 2265 H 207.349 1.98152 -7.2957 0
M  V30 2266 H 208.617 3.15858 -7.12639 0
M  V30 2267 N 212.846 1.57033 -0.133567 0
M  V30 2268 C 213.809 2.14897 0.796995 0
M  V30 2269 C 214.809 1.0874 1.18458 0
M  V30 2270 O 215.999 1.34446 1.1077 0
M  V30 2271 C 213.131 2.70112 2.07973 0
M  V30 2272 H 214.324 2.98457 0.293873 0
M  V30 2273 H 211.877 1.55871 0.115787 0
M  V30 2274 H 212.612 1.9018 2.62682 0
M  V30 2275 H 212.397 3.47764 1.81115 0
M  V30 2276 H 213.887 3.14738 2.74462 0
M  V30 2277 N 214.325 -0.140222 1.56975 0
M  V30 2278 C 215.574 -0.850152 1.82908 0
M  V30 2279 C 215.887 -1.82028 0.715892 0
M  V30 2280 O 217.093 -2.57485 0.861016 0
M  V30 2281 C 215.549 -1.5625 3.24213 0
M  V30 2282 C 215.157 -0.63443 4.43485 0
M  V30 2283 C 216.901 -2.25881 3.59413 0
M  V30 2284 C 214.808 -1.34879 5.75814 0
M  V30 2285 H 213.738 -0.321221 0.682153 0
M  V30 2286 H 216.389 -0.102874 1.83211 0
M  V30 2287 H 214.771 -2.35565 3.18316 0
M  V30 2288 H 215.945 0.12398 4.60633 0
M  V30 2289 H 214.26 -0.0461836 4.16374 0
M  V30 2290 H 216.857 -2.79978 4.5554 0
M  V30 2291 H 217.2 -3.02693 2.85802 0
M  V30 2292 H 217.733 -1.53477 3.67001 0
M  V30 2293 H 214.472 -0.622385 6.52539 0
M  V30 2294 H 213.992 -2.07974 5.6259 0
M  V30 2295 H 215.671 -1.88784 6.18845 0
M  V30 2296 N 215.803 -1.52179 -0.40978 0
M  V30 2297 C 217.051 -1.65878 -1.15451 0
M  V30 2298 C 217.372 -0.390771 -1.91044 0
M  V30 2299 O 216.642 0.594323 -1.86667 0
M  V30 2300 H 215.222 -0.611405 -0.429177 0
M  V30 2301 H 217.884 -1.89219 -0.467134 0
M  V30 2302 H 216.98 -2.49954 -1.86894 0
M  V30 2303 N 217.281 0.66697 -1.42791 0
M  V30 2304 C 218.231 1.77313 -1.43332 0
M  V30 2305 C 219.215 1.5801 -0.303586 0
M  V30 2306 O 220.407 1.68356 -0.546385 0
M  V30 2307 C 217.536 3.15822 -1.34578 0
M  V30 2308 C 216.622 3.40721 -2.52528 0
M  V30 2309 N 217.013 3.36162 -3.77927 0
M  V30 2310 C 215.311 3.71387 -2.46956 0
M  V30 2311 C 216.012 3.60762 -4.56318 0
M  V30 2312 N 214.988 3.81908 -3.86843 0
M  V30 2313 H 218.79 1.72193 -2.38174 0
M  V30 2314 H 216.304 0.868114 -1.3725 0
M  V30 2315 H 218.301 3.951 -1.33048 0
M  V30 2316 H 216.961 3.22133 -0.407453 0
M  V30 2317 H 217.972 3.15885 -4.10411 0
M  V30 2318 H 214.649 3.84897 -1.61743 0
M  V30 2319 H 216.039 3.63132 -5.65318 0
M  V30 2320 N 218.759 1.29093 0.90403 0
M  V30 2321 C 219.691 1.09658 2.01266 0
M  V30 2322 C 220.704 0.0453729 1.62737 0
M  V30 2323 O 221.893 0.289446 1.76138 0
M  V30 2324 C 218.993 0.646278 3.32681 0
M  V30 2325 C 218.166 1.77505 3.99763 0
M  V30 2326 C 217.225 1.31649 5.09465 0
M  V30 2327 O 216.251 2.02045 5.32134 0
M  V30 2328 N 217.453 0.184997 5.80205 0
M  V30 2329 H 220.218 2.05135 2.18494 0
M  V30 2330 H 217.779 1.20975 1.07594 0
M  V30 2331 H 219.771 0.322906 4.0341 0
M  V30 2332 H 218.341 -0.215916 3.11853 0
M  V30 2333 H 217.561 2.26752 3.22455 0
M  V30 2334 H 218.849 2.53198 4.41325 0
M  V30 2335 H 218.247 -0.402021 5.6427 0
M  V30 2336 H 216.804 -0.0790358 6.51752 0
M  V30 2337 N 220.237 -1.11381 1.11499 0
M  V30 2338 C 221.483 -1.83597 0.875423 0
M  V30 2339 C 221.838 -1.83048 -0.592555 0
M  V30 2340 O 221.131 -1.27304 -1.43193 0
M  V30 2341 C 221.325 -3.30026 1.37177 0
M  V30 2342 C 221.154 -3.44837 2.88647 0
M  V30 2343 C 219.924 -3.57825 3.56776 0
M  V30 2344 C 222.122 -3.3907 3.86699 0
M  V30 2345 N 220.104 -3.61113 4.96458 0
M  V30 2346 C 221.475 -3.48986 5.12454 0
M  V30 2347 C 223.53 -3.22605 3.7925 0
M  V30 2348 C 222.233 -3.44135 6.31636 0
M  V30 2349 C 224.259 -3.19072 4.97943 0
M  V30 2350 C 223.621 -3.29559 6.22551 0
M  V30 2351 H 219.72 -0.687044 0.37349 0
M  V30 2352 H 222.304 -1.33265 1.41946 0
M  V30 2353 H 220.475 -3.78874 0.854919 0
M  V30 2354 H 222.207 -3.90153 1.07529 0
M  V30 2355 H 218.962 -3.60414 3.07244 0
M  V30 2356 H 219.386 -3.66394 5.69284 0
M  V30 2357 H 224.028 -3.13382 2.83816 0
M  V30 2358 H 221.746 -3.52126 7.27347 0
M  V30 2359 H 225.332 -3.07498 4.93899 0
M  V30 2360 H 224.212 -3.26815 7.12855 0
M  V30 2361 N 221.715 -0.905404 -1.28997 0
M  V30 2362 C 222.945 -0.549049 -1.99171 0
M  V30 2363 C 223.353 0.87203 -1.67906 0
M  V30 2364 O 222.696 1.58796 -0.923561 0
M  V30 2365 C 222.758 -0.668306 -3.53234 0
M  V30 2366 C 222.422 -2.0574 -4.08069 0
M  V30 2367 C 223.419 -3.0292 -4.22534 0
M  V30 2368 C 221.104 -2.36833 -4.42962 0
M  V30 2369 C 223.098 -4.29314 -4.71135 0
M  V30 2370 C 220.785 -3.63467 -4.91258 0
M  V30 2371 C 221.783 -4.59522 -5.053 0
M  V30 2372 O 221.471 -5.83907 -5.52546 0
M  V30 2373 H 221.203 -0.208784 -0.64295 0
M  V30 2374 H 223.757 -1.21836 -1.65363 0
M  V30 2375 H 221.987 0.0580547 -3.86656 0
M  V30 2376 H 223.676 -0.320273 -4.04634 0
M  V30 2377 H 224.442 -2.80216 -3.95859 0
M  V30 2378 H 220.321 -1.62824 -4.31288 0
M  V30 2379 H 223.865 -5.04293 -4.8201 0
M  V30 2380 H 219.762 -3.86 -5.17372 0
M  V30 2381 H 220.53 -5.86578 -5.70849 0
M  V30 2382 N 223.193 1.4272 -0.668489 0
M  V30 2383 C 224.439 2.02443 -0.197076 0
M  V30 2384 C 224.794 1.51882 1.18109 0
M  V30 2385 O 224.087 0.708618 1.78015 0
M  V30 2386 C 224.281 3.57021 -0.164499 0
M  V30 2387 C 224.11 4.22583 -1.53797 0
M  V30 2388 C 222.88 4.58019 -2.13416 0
M  V30 2389 C 225.078 4.50588 -2.47941 0
M  V30 2390 N 223.06 5.08729 -3.4361 0
M  V30 2391 C 224.431 5.02782 -3.62782 0
M  V30 2392 C 226.486 4.32571 -2.46551 0
M  V30 2393 C 225.189 5.38852 -4.76478 0
M  V30 2394 C 227.215 4.69713 -3.59338 0
M  V30 2395 C 226.577 5.22053 -4.72906 0
M  V30 2396 H 222.676 0.773214 -0.116894 0
M  V30 2397 H 225.26 1.73673 -0.880108 0
M  V30 2398 H 223.431 3.85323 0.487925 0
M  V30 2399 H 225.163 4.03439 0.319207 0
M  V30 2400 H 221.918 4.43566 -1.65969 0
M  V30 2401 H 222.342 5.38521 -4.10273 0
M  V30 2402 H 226.984 3.91365 -1.59978 0
M  V30 2403 H 224.702 5.78993 -5.63731 0
M  V30 2404 H 228.288 4.57454 -3.59482 0
M  V30 2405 H 227.168 5.50258 -5.58736 0
M  V30 2406 N 224.671 0.411399 1.52136 0
M  V30 2407 C 225.896 -0.165538 2.06738 0
M  V30 2408 C 226.321 -1.379 1.27926 0
M  V30 2409 O 225.679 -1.78628 0.310114 0
M  V30 2410 C 225.727 -0.492124 3.57226 0
M  V30 2411 O 224.831 -1.58276 3.80818 0
M  V30 2412 H 224.172 -0.0132132 0.663869 0
M  V30 2413 H 226.702 0.585253 1.96051 0
M  V30 2414 H 226.712 -0.750104 4.01045 0
M  V30 2415 H 225.387 0.394922 4.14021 0
M  V30 2416 H 223.964 -1.31677 3.48877 0
M  V30 2417 N 226.149 -1.5696 0.141893 0
M  V30 2418 C 227.379 -2.00031 -0.516828 0
M  V30 2419 C 227.787 -1.02091 -1.59293 0
M  V30 2420 O 227.13 -0.00909657 -1.83698 0
M  V30 2421 C 227.192 -3.39534 -1.1814 0
M  V30 2422 C 226.856 -4.56313 -0.250513 0
M  V30 2423 C 227.853 -5.17295 0.519839 0
M  V30 2424 C 225.538 -5.02061 -0.154907 0
M  V30 2425 C 227.532 -6.2243 1.3733 0
M  V30 2426 C 225.219 -6.07053 0.702161 0
M  V30 2427 C 226.217 -6.67106 1.46487 0
M  V30 2428 O 225.905 -7.70066 2.30767 0
M  V30 2429 H 225.637 -0.661451 -0.139493 0
M  V30 2430 H 228.191 -2.04086 0.231926 0
M  V30 2431 H 226.421 -3.32302 -1.97769 0
M  V30 2432 H 228.11 -3.66745 -1.73933 0
M  V30 2433 H 228.876 -4.82852 0.45598 0
M  V30 2434 H 224.755 -4.5505 -0.7383 0
M  V30 2435 H 228.299 -6.69233 1.96909 0
M  V30 2436 H 224.196 -6.40923 0.76733 0
M  V30 2437 H 224.964 -7.87264 2.23959 0
M  V30 2438 N 227.627 0.131896 -1.57047 0
M  V30 2439 C 228.537 1.1815 -2.02676 0
M  V30 2440 C 229.553 1.46113 -0.944824 0
M  V30 2441 O 230.729 1.57485 -1.25541 0
M  V30 2442 C 227.794 2.49139 -2.41103 0
M  V30 2443 C 226.855 2.28688 -3.63318 0
M  V30 2444 C 226.088 3.53431 -3.99903 0
M  V30 2445 O 226.311 4.60223 -3.36973 0
M  V30 2446 O 225.245 3.45198 -4.93074 0
M  V30 2447 H 229.071 0.824069 -2.92306 0
M  V30 2448 H 226.656 0.341745 -1.45439 0
M  V30 2449 H 228.538 3.26338 -2.66611 0
M  V30 2450 H 227.213 2.84382 -1.54624 0
M  V30 2451 H 226.12 1.4939 -3.42977 0
M  V30 2452 H 227.453 1.98355 -4.50462 0
M  V30 2453 N 229.106 1.52395 0.401703 0
M  V30 2454 C 230.336 1.70429 1.1678 0
M  V30 2455 C 230.744 0.416702 1.84554 0
M  V30 2456 O 230.087 -0.617697 1.73003 0
M  V30 2457 C 230.149 2.78919 2.26814 0
M  V30 2458 C 229.813 4.20437 1.79113 0
M  V30 2459 C 230.81 5.04028 1.27482 0
M  V30 2460 C 228.495 4.66704 1.85722 0
M  V30 2461 C 230.489 6.31961 0.830913 0
M  V30 2462 C 228.176 5.94625 1.40942 0
M  V30 2463 C 229.174 6.77082 0.897128 0
M  V30 2464 O 228.862 8.02607 0.455822 0
M  V30 2465 H 228.594 0.574272 0.356634 0
M  V30 2466 H 231.148 1.99767 0.477724 0
M  V30 2467 H 229.378 2.44973 2.99207 0
M  V30 2468 H 231.067 2.8548 2.88541 0
M  V30 2469 H 231.833 4.69471 1.21744 0
M  V30 2470 H 227.712 4.0262 2.24539 0
M  V30 2471 H 231.256 6.96271 0.430368 0
M  V30 2472 H 227.153 6.28688 1.46362 0
M  V30 2473 H 227.921 8.16453 0.578457 0
M  V30 2474 N 230.584 -0.659388 1.43143 0
M  V30 2475 C 231.995 -1.24041 1.39537 0
M  V30 2476 C 232.346 -1.95963 0.0963364 0
M  V30 2477 O 231.471 -2.00892 -0.804438 0
M  V30 2478 C 232.066 -2.25601 2.52764 0
M  V30 2479 C 230.625 -2.79195 2.52443 0
M  V30 2480 C 229.772 -1.53743 2.30778 0
M  V30 2481 H 232.723 -0.451792 1.52133 0
M  V30 2482 H 232.744 -3.07651 2.23899 0
M  V30 2483 H 232.256 -1.73226 3.47296 0
M  V30 2484 H 230.357 -3.35649 1.61773 0
M  V30 2485 H 230.47 -3.2716 3.50004 0
M  V30 2486 H 228.834 -1.80869 1.79328 0
M  V30 2487 H 229.617 -1.03312 3.27386 0
M  V30 2488 N 232.062 -1.29571 -0.897171 0
M  V30 2489 C 233.01 -1.14802 -2.02295 0
M  V30 2490 C 234.004 -0.0629637 -1.69283 0
M  V30 2491 O 235.21 -0.222945 -1.78614 0
M  V30 2492 H 231.585 -0.354692 -0.663097 0
M  V30 2493 H 233.556 -2.10108 -2.11889 0
M  V30 2494 C 232.305 -0.843966 -3.37302 0
M  V30 2495 H 231.628 -1.67093 -3.63208 0
M  V30 2496 H 233.068 -0.780672 -4.16751 0
M  V30 2497 C 231.527 0.452843 -3.33843 0
M  V30 2498 O 232.057 1.47813 -3.73516 0
M  V30 2499 N 230.263 0.459601 -2.86943 0
M  V30 2500 H 229.81 -0.375213 -2.54853 0
M  V30 2501 H 229.768 1.32726 -2.85011 0
M  V30 2502 N 233.54 1.10788 -1.12088 0
M  V30 2503 C 234.817 1.79136 -0.785476 0
M  V30 2504 C 235.197 1.98246 0.725377 0
M  V30 2505 O 234.545 1.57258 1.65778 0
M  V30 2506 C 234.755 3.12375 -1.55636 0
M  V30 2507 C 236.103 3.8731 -1.74001 0
M  V30 2508 O 237.127 3.22085 -1.52117 0
M  V30 2509 O 235.986 5.04369 -2.10415 0
M  V30 2510 H 233.08 0.776226 -0.285311 0
M  V30 2511 H 235.626 1.1747 -1.2247 0
M  V30 2512 H 234.398 2.93863 -2.5838 0
M  V30 2513 H 234.021 3.81758 -1.11114 0
M  V30 2514 N 235.018 0.912232 1.28515 0
M  V30 2515 C 236.266 0.543523 1.94654 0
M  V30 2516 C 236.587 -0.9155 1.72173 0
M  V30 2517 O 235.857 -1.64708 1.06058 0
M  V30 2518 H 234.437 0.198017 0.720277 0
M  V30 2519 H 237.099 1.16126 1.56527 0
M  V30 2520 H 236.195 0.736684 3.03281 0
M  V30 2521 N 236.496 -1.42363 0.676048 0
M  V30 2522 C 237.742 -2.0182 0.199125 0
M  V30 2523 C 238.075 -1.53339 -1.19168 0
M  V30 2524 O 237.35 -0.736124 -1.80032 0
M  V30 2525 C 237.633 -3.59331 0.235144 0
M  V30 2526 C 237.486 -4.17989 1.66149 0
M  V30 2527 C 238.805 -4.3813 -0.41595 0
M  V30 2528 H 235.924 -0.733293 0.0738311 0
M  V30 2529 H 238.566 -1.69368 0.86107 0
M  V30 2530 H 236.716 -3.87109 -0.328487 0
M  V30 2531 H 238.388 -4.0116 2.27747 0
M  V30 2532 H 236.631 -3.7377 2.20178 0
M  V30 2533 H 237.302 -5.27126 1.63837 0
M  V30 2534 H 239.778 -4.16051 0.0638529 0
M  V30 2535 H 238.654 -5.47717 -0.360115 0
M  V30 2536 H 238.915 -4.16101 -1.49373 0
M  V30 2537 N 237.974 -0.419461 -1.51915 0
M  V30 2538 C 238.937 0.389116 -2.25873 0
M  V30 2539 C 239.937 0.964924 -1.28631 0
M  V30 2540 O 241.127 0.842179 -1.52489 0
M  V30 2541 C 238.259 1.54874 -3.03689 0
M  V30 2542 H 239.452 -0.258799 -2.98781 0
M  V30 2543 H 237.005 -0.172209 -1.55348 0
M  V30 2544 H 237.74 2.23323 -2.35154 0
M  V30 2545 H 237.525 1.14223 -3.75094 0
M  V30 2546 H 239.015 2.12046 -3.59759 0
M  V30 2547 N 239.452 1.56882 -0.150215 0
M  V30 2548 C 240.699 1.96228 0.500093 0
M  V30 2549 C 241.027 1.03522 1.64661 0
M  V30 2550 O 240.282 0.0650683 1.95592 0
M  V30 2551 C 240.581 3.41801 1.04437 0
M  V30 2552 C 240.247 4.50897 0.0159671 0
M  V30 2553 C 238.909 4.8046 -0.266731 0
M  V30 2554 C 241.261 5.16703 -0.683192 0
M  V30 2555 C 238.589 5.73135 -1.25434 0
M  V30 2556 C 240.941 6.10441 -1.65964 0
M  V30 2557 C 239.605 6.38382 -1.95 0
M  V30 2558 H 238.875 0.718048 0.182997 0
M  V30 2559 H 241.522 1.90019 -0.237724 0
M  V30 2560 H 239.827 3.44857 1.85959 0
M  V30 2561 H 241.524 3.69573 1.55618 0
M  V30 2562 H 238.114 4.27891 0.246485 0
M  V30 2563 H 242.298 4.93993 -0.477983 0
M  V30 2564 H 237.554 5.93074 -1.48571 0
M  V30 2565 H 241.728 6.60507 -2.20689 0
M  V30 2566 H 239.355 7.09996 -2.71679 0
M  V30 2567 N 240.93 -0.123565 1.57115 0
M  V30 2568 C 242.207 -0.862196 1.75572 0
M  V30 2569 C 242.587 -1.98279 0.724475 0
M  V30 2570 O 241.935 -2.27102 -0.252407 0
M  V30 2571 C 242.145 -1.38309 3.20424 0
M  V30 2572 C 243.493 -1.83724 3.82793 0
M  V30 2573 O 244.517 -1.47999 3.23998 0
M  V30 2574 O 243.376 -2.49685 4.86127 0
M  V30 2575 H 240.47 -0.409113 0.718718 0
M  V30 2576 H 243.016 -0.107661 1.69358 0
M  V30 2577 H 241.788 -0.578889 3.86994 0
M  V30 2578 H 241.411 -2.20046 3.31158 0
M  V30 2579 N 242.408 -1.52605 -0.393616 0
M  V30 2580 C 243.371 -1.76415 -1.46323 0
M  V30 2581 C 244.371 -0.634126 -1.47768 0
M  V30 2582 O 245.561 -0.902142 -1.4902 0
M  V30 2583 C 242.693 -1.8607 -2.85641 0
M  V30 2584 H 243.886 -2.71916 -1.26498 0
M  V30 2585 H 241.439 -1.43257 -0.625073 0
M  V30 2586 H 242.174 -0.925378 -3.10817 0
M  V30 2587 H 241.959 -2.68235 -2.85993 0
M  V30 2588 H 243.449 -2.06179 -3.63153 0
M  V30 2589 N 243.887 0.651787 -1.4349 0
M  V30 2590 C 244.817 1.77621 -1.51569 0
M  V30 2591 C 245.798 1.66022 -0.370253 0
M  V30 2592 O 246.983 1.85095 -0.587658 0
M  V30 2593 C 244.113 3.16056 -1.43966 0
M  V30 2594 C 243.067 3.4242 -2.56774 0
M  V30 2595 C 242.393 4.8067 -2.34223 0
M  V30 2596 C 243.693 3.37023 -3.99015 0
M  V30 2597 H 245.387 1.71117 -2.45681 0
M  V30 2598 H 242.933 0.821825 -1.18246 0
M  V30 2599 H 244.886 3.94472 -1.48221 0
M  V30 2600 H 243.61 3.23293 -0.463586 0
M  V30 2601 H 242.269 2.66375 -2.51873 0
M  V30 2602 H 241.917 4.84585 -1.34856 0
M  V30 2603 H 241.617 4.9927 -3.09844 0
M  V30 2604 H 243.141 5.61342 -2.40265 0
M  V30 2605 H 244.555 4.05374 -4.05395 0
M  V30 2606 H 242.952 3.67159 -4.74673 0
M  V30 2607 H 244.022 2.3518 -4.2405 0
M  V30 2608 N 245.365 1.30045 0.890287 0
M  V30 2609 C 246.298 1.10301 1.99772 0
M  V30 2610 C 247.276 0.0121631 1.62595 0
M  V30 2611 O 248.46 0.16469 1.87779 0
M  V30 2612 C 245.587 0.681125 3.31781 0
M  V30 2613 C 244.633 1.77206 3.87944 0
M  V30 2614 S 245.466 3.37335 4.15891 0
M  V30 2615 C 246.622 2.97036 5.50927 0
M  V30 2616 H 246.855 2.04057 2.16213 0
M  V30 2617 H 244.388 1.14299 1.03804 0
M  V30 2618 H 246.346 0.444439 4.08087 0
M  V30 2619 H 245.007 -0.236981 3.13205 0
M  V30 2620 H 244.2 1.42903 4.83316 0
M  V30 2621 H 243.802 1.96275 3.18358 0
M  V30 2622 H 246.094 2.44666 6.31779 0
M  V30 2623 H 247.037 3.91296 5.90164 0
M  V30 2624 H 247.445 2.35057 5.13233 0
M  V30 2625 N 246.843 -1.10192 1.12674 0
M  V30 2626 C 247.773 -2.18652 0.819362 0
M  V30 2627 C 248.754 -1.68698 -0.217915 0
M  V30 2628 O 249.939 -1.94041 -0.0785581 0
M  V30 2629 C 247.069 -3.46202 0.27594 0
M  V30 2630 C 246.023 -4.09444 1.24656 0
M  V30 2631 C 245.349 -5.31725 0.563258 0
M  V30 2632 C 246.649 -4.52863 2.60217 0
M  V30 2633 H 248.343 -2.44622 1.72628 0
M  V30 2634 H 245.889 -1.17571 0.831451 0
M  V30 2635 H 247.842 -4.21372 0.0486149 0
M  V30 2636 H 246.566 -3.1973 -0.666331 0
M  V30 2637 H 245.225 -3.36284 1.45974 0
M  V30 2638 H 244.873 -5.0153 -0.384235 0
M  V30 2639 H 244.573 -5.74991 1.21075 0
M  V30 2640 H 246.097 -6.09624 0.34503 0
M  V30 2641 H 247.511 -5.19294 2.42913 0
M  V30 2642 H 245.908 -5.06986 3.21068 0
M  V30 2643 H 246.978 -3.65656 3.18471 0
M  V30 2644 N 248.321 -0.919034 -1.28029 0
M  V30 2645 C 249.231 -0.416756 -2.30869 0
M  V30 2646 C 250.247 0.498235 -1.66714 0
M  V30 2647 O 251.423 0.383144 -1.97722 0
M  V30 2648 C 248.488 0.330274 -3.45123 0
M  V30 2649 C 247.549 -0.618578 -4.2482 0
M  V30 2650 C 246.782 0.0928959 -5.33619 0
M  V30 2651 O 247.005 1.31375 -5.55065 0
M  V30 2652 O 245.939 -0.574499 -5.99152 0
M  V30 2653 H 249.765 -1.27043 -2.75851 0
M  V30 2654 H 247.35 -0.684052 -1.3282 0
M  V30 2655 H 249.232 0.751972 -4.14636 0
M  V30 2656 H 247.907 1.1597 -3.02213 0
M  V30 2657 H 246.814 -1.08978 -3.57875 0
M  V30 2658 H 248.147 -1.41497 -4.71423 0
M  V30 2659 N 249.799 1.42003 -0.683588 0
M  V30 2660 C 250.746 2.30798 -0.0107309 0
M  V30 2661 C 251.716 1.4645 0.783688 0
M  V30 2662 O 252.901 1.75263 0.754156 0
M  V30 2663 C 250.041 3.3238 0.928306 0
M  V30 2664 C 249.154 4.31814 0.126776 0
M  V30 2665 C 248.289 5.20468 1.06236 0
M  V30 2666 C 247.328 6.11577 0.253035 0
M  V30 2667 N 246.465 6.92754 1.14179 0
M  V30 2668 H 251.305 2.8778 -0.773727 0
M  V30 2669 H 248.842 1.41745 -0.393283 0
M  V30 2670 H 250.8 3.89813 1.48666 0
M  V30 2671 H 249.43 2.76976 1.65783 0
M  V30 2672 H 248.482 3.76427 -0.54833 0
M  V30 2673 H 249.794 4.96276 -0.501192 0
M  V30 2674 H 248.948 5.82677 1.69035 0
M  V30 2675 H 247.687 4.56204 1.7242 0
M  V30 2676 H 246.692 5.48428 -0.388108 0
M  V30 2677 H 247.917 6.77892 -0.404839 0
M  V30 2678 H 245.863 6.3111 1.78987 0
M  V30 2679 H 245.78 7.53855 0.569111 0
M  V30 2680 H 247.048 7.59441 1.75697 0
M  V30 2681 N 251.277 0.427512 1.51691 0
M  V30 2682 C 252.187 -0.39527 2.31246 0
M  V30 2683 C 253.203 -1.03674 1.39742 0
M  V30 2684 O 254.379 -1.03425 1.72816 0
M  V30 2685 C 251.444 -1.48706 3.13189 0
M  V30 2686 C 250.505 -0.866743 4.20459 0
M  V30 2687 C 249.738 -1.90651 4.98486 0
M  V30 2688 O 249.961 -3.12733 4.77026 0
M  V30 2689 O 248.895 -1.5025 5.82845 0
M  V30 2690 H 252.721 0.253918 3.02637 0
M  V30 2691 H 250.306 0.190274 1.48183 0
M  V30 2692 H 252.188 -2.12047 3.64162 0
M  V30 2693 H 250.863 -2.12051 2.44573 0
M  V30 2694 H 249.77 -0.195544 3.73589 0
M  V30 2695 H 251.103 -0.276934 4.9142 0
M  V30 2696 N 252.755 -1.56801 0.158532 0
M  V30 2697 C 253.718 -2.16138 -0.762705 0
M  V30 2698 C 254.718 -1.1061 -1.16713 0
M  V30 2699 O 255.908 -1.36191 -1.08617 0
M  V30 2700 C 253.04 -2.73386 -2.03649 0
M  V30 2701 H 254.233 -2.98886 -0.246354 0
M  V30 2702 H 251.786 -1.56035 -0.0909744 0
M  V30 2703 H 252.521 -1.94335 -2.59623 0
M  V30 2704 H 252.306 -3.50601 -1.75559 0
M  V30 2705 H 253.796 -3.19065 -2.6942 0
M  V30 2706 N 254.233 0.115231 -1.57178 0
M  V30 2707 C 255.163 1.1423 -2.03651 0
M  V30 2708 C 256.144 1.42967 -0.921655 0
M  V30 2709 O 257.329 1.53343 -1.19162 0
M  V30 2710 C 254.459 2.4675 -2.44401 0
M  V30 2711 C 253.413 2.32467 -3.59365 0
M  V30 2712 C 252.739 3.69984 -3.86026 0
M  V30 2713 C 254.039 1.78203 -4.90959 0
M  V30 2714 H 255.733 0.755749 -2.89705 0
M  V30 2715 H 253.279 0.362093 -1.39373 0
M  V30 2716 H 255.232 3.18854 -2.75517 0
M  V30 2717 H 253.956 2.87302 -1.55322 0
M  V30 2718 H 252.615 1.62811 -3.28463 0
M  V30 2719 H 252.263 4.08028 -2.94147 0
M  V30 2720 H 251.963 3.61279 -4.63412 0
M  V30 2721 H 253.487 4.43587 -4.19599 0
M  V30 2722 H 254.901 2.40128 -5.20587 0
M  V30 2723 H 253.298 1.8031 -5.72371 0
M  V30 2724 H 254.368 0.739876 -4.79222 0
M  V30 2725 N 255.711 1.52812 0.385517 0
M  V30 2726 C 256.674 1.77188 1.45386 0
M  V30 2727 C 257.674 0.641953 1.4743 0
M  V30 2728 O 258.864 0.910033 1.4854 0
M  V30 2729 C 255.996 1.87582 2.8465 0
M  V30 2730 H 257.189 2.72583 1.25054 0
M  V30 2731 H 254.742 1.43586 0.617467 0
M  V30 2732 H 255.477 0.941849 3.10322 0
M  V30 2733 H 255.262 2.69748 2.84567 0
M  V30 2734 H 256.752 2.08102 3.62054 0
M  V30 2735 N 257.189 -0.644168 1.43834 0
M  V30 2736 C 258.466 -1.40188 1.36406 0
M  V30 2737 C 258.846 -2.11094 0.0163124 0
M  V30 2738 O 258.194 -2.05426 -1.00062 0
M  V30 2739 C 258.404 -2.3791 2.55343 0
M  V30 2740 C 259.752 -3.01637 2.98832 0
M  V30 2741 O 260.776 -2.48237 2.55455 0
M  V30 2742 O 259.635 -3.98477 3.74003 0
M  V30 2743 H 256.729 -0.626773 0.539523 0
M  V30 2744 H 259.275 -0.670317 1.559 0
M  V30 2745 H 258.047 -1.84525 3.4506 0
M  V30 2746 H 257.67 -3.18503 2.37995 0
M  V30 2747 N 258.668 -1.30515 -0.883378 0
M  V30 2748 C 259.631 -1.1701 -1.97082 0
M  V30 2749 C 260.631 -0.10089 -1.60483 0
M  V30 2750 O 261.821 -0.349127 -1.70666 0
M  V30 2751 C 258.953 -0.793045 -3.31547 0
M  V30 2752 H 260.146 -2.13622 -2.10489 0
M  V30 2753 H 257.699 -1.13935 -1.06998 0
M  V30 2754 H 258.434 0.172499 -3.23841 0
M  V30 2755 H 258.219 -1.56576 -3.5948 0
M  V30 2756 H 259.709 -0.722073 -4.1131 0
M  V30 2757 N 260.146 1.09593 -1.13257 0
M  V30 2758 C 261.394 1.81375 -0.891492 0
M  V30 2759 C 261.715 1.86049 0.584009 0
M  V30 2760 O 260.985 1.34481 1.42449 0
M  V30 2761 H 259.565 0.671708 -0.326828 0
M  V30 2762 H 262.227 1.3256 -1.42877 0
M  V30 2763 H 261.323 2.84612 -1.28071 0
M  V30 2764 N 261.624 0.925811 1.2754 0
M  V30 2765 C 262.854 0.580666 1.98272 0
M  V30 2766 C 263.262 -0.845207 1.69272 0
M  V30 2767 O 262.605 -1.57306 0.948707 0
M  V30 2768 C 262.667 0.724418 3.52126 0
M  V30 2769 C 262.331 2.12206 4.04744 0
M  V30 2770 C 263.328 3.09604 4.17662 0
M  V30 2771 C 261.013 2.4385 4.39138 0
M  V30 2772 C 263.007 4.36755 4.64246 0
M  V30 2773 C 260.694 3.71237 4.85414 0
M  V30 2774 C 261.692 4.67503 4.97926 0
M  V30 2775 O 261.38 5.92624 5.43187 0
M  V30 2776 H 261.112 0.218987 0.639547 0
M  V30 2777 H 263.666 1.24452 1.63404 0
M  V30 2778 H 261.896 0.0034663 3.867 0
M  V30 2779 H 263.585 0.384607 4.04074 0
M  V30 2780 H 264.351 2.86478 3.91351 0
M  V30 2781 H 260.23 1.69665 4.28643 0
M  V30 2782 H 263.774 5.11898 4.73927 0
M  V30 2783 H 259.671 3.94182 5.11166 0
M  V30 2784 H 260.439 5.95585 5.61445 0
M  V30 2785 N 263.102 -1.41638 0.69111 0
M  V30 2786 C 264.327 -2.06148 0.227583 0
M  V30 2787 C 264.752 -1.51652 -1.11281 0
M  V30 2788 O 264.11 -0.64164 -1.69566 0
M  V30 2789 C 264.158 -3.60095 0.190858 0
M  V30 2790 O 263.262 -4.03845 -0.835664 0
M  V30 2791 H 262.603 -0.654434 0.112306 0
M  V30 2792 H 265.133 -1.81484 0.944714 0
M  V30 2793 H 265.143 -4.07995 0.020207 0
M  V30 2794 H 263.818 -3.99129 1.16915 0
M  V30 2795 H 262.395 -3.67458 -0.63473 0
M  V30 2796 N 264.58 -0.43555 -1.51462 0
M  V30 2797 C 265.49 0.383001 -2.31453 0
M  V30 2798 C 266.506 1.02931 -1.4029 0
M  V30 2799 O 267.682 1.02507 -1.73362 0
M  V30 2800 C 264.747 1.47043 -3.13973 0
M  V30 2801 C 263.808 0.844433 -4.20913 0
M  V30 2802 C 263.041 1.88004 -4.9949 0
M  V30 2803 O 263.264 3.10199 -4.78678 0
M  V30 2804 O 262.198 1.47157 -5.83634 0
M  V30 2805 H 266.024 -0.269964 -3.02498 0
M  V30 2806 H 263.609 -0.19813 -1.4808 0
M  V30 2807 H 265.491 2.10113 -3.65281 0
M  V30 2808 H 264.166 2.10751 -2.45695 0
M  V30 2809 H 263.073 0.175729 -3.73687 0
M  V30 2810 H 264.406 0.250869 -4.9156 0
M  V30 2811 N 266.058 1.56714 -0.166846 0
M  V30 2812 C 267.335 1.88412 0.525373 0
M  V30 2813 C 267.715 1.07602 1.81618 0
M  V30 2814 O 267.063 0.168621 2.27877 0
M  V30 2815 C 267.273 3.40363 0.771613 0
M  V30 2816 C 268.621 4.10007 1.1036 0
M  V30 2817 O 269.645 3.45655 0.860304 0
M  V30 2818 O 268.504 5.2369 1.56239 0
M  V30 2819 H 265.598 0.781587 0.270278 0
M  V30 2820 H 268.144 1.68458 -0.204946 0
M  V30 2821 H 266.916 3.91046 -0.141093 0
M  V30 2822 H 266.539 3.65914 1.55541 0
M  V30 2823 N 267.536 -0.106894 1.57237 0
M  V30 2824 C 268.446 -1.14911 2.0453 0
M  V30 2825 C 269.462 -1.44592 0.96795 0
M  V30 2826 O 270.638 -1.55468 1.2803 0
M  V30 2827 C 267.703 -2.45272 2.45036 0
M  V30 2828 C 266.764 -2.22879 3.66911 0
M  V30 2829 C 265.997 -3.47024 4.05475 0
M  V30 2830 O 266.22 -4.54804 3.44252 0
M  V30 2831 O 265.154 -3.3731 4.98504 0
M  V30 2832 H 268.98 -0.777461 2.9358 0
M  V30 2833 H 266.565 -0.318563 1.45964 0
M  V30 2834 H 268.447 -3.22055 2.71769 0
M  V30 2835 H 267.122 -2.81886 1.59129 0
M  V30 2836 H 266.029 -1.43915 3.45311 0
M  V30 2837 H 267.362 -1.91163 4.53561 0
M  V30 2838 N 269.014 -1.53014 -0.377408 0
M  V30 2839 C 270.244 -1.72265 -1.14054 0
M  V30 2840 C 270.652 -0.44601 -1.83868 0
M  V30 2841 O 269.995 0.590095 -1.73964 0
M  V30 2842 C 270.057 -2.82492 -2.22348 0
M  V30 2843 C 269.721 -4.23233 -1.72402 0
M  V30 2844 C 270.718 -5.05992 -1.19448 0
M  V30 2845 C 268.403 -4.696 -1.78273 0
M  V30 2846 C 270.397 -6.33203 -0.730268 0
M  V30 2847 C 268.084 -5.96792 -1.31464 0
M  V30 2848 C 269.082 -6.78424 -0.789297 0
M  V30 2849 O 268.77 -8.0323 -0.328077 0
M  V30 2850 H 268.502 -0.579873 -0.347453 0
M  V30 2851 H 271.056 -2.00502 -0.445882 0
M  V30 2852 H 269.286 -2.49702 -2.95272 0
M  V30 2853 H 270.975 -2.90034 -2.83963 0
M  V30 2854 H 271.741 -4.71349 -1.14259 0
M  V30 2855 H 267.62 -4.06142 -2.18106 0
M  V30 2856 H 271.164 -6.96868 -0.319542 0
M  V30 2857 H 267.061 -6.30937 -1.36342 0
M  V30 2858 H 267.829 -8.1727 -0.448493 0
M  V30 2859 N 270.492 0.636531 -1.44174 0
M  V30 2860 C 271.422 1.76003 -1.53444 0
M  V30 2861 C 272.403 1.65619 -0.387841 0
M  V30 2862 O 273.588 1.84461 -0.607257 0
M  V30 2863 C 270.718 3.14511 -1.4731 0
M  V30 2864 C 269.672 3.39677 -2.60391 0
M  V30 2865 C 268.998 4.78159 -2.39308 0
M  V30 2866 C 270.298 3.32772 -4.02567 0
M  V30 2867 H 271.992 1.68501 -2.47483 0
M  V30 2868 H 269.538 0.809237 -1.19111 0
M  V30 2869 H 271.491 3.92878 -1.52397 0
M  V30 2870 H 270.215 3.22783 -0.49785 0
M  V30 2871 H 268.874 2.63688 -2.54684 0
M  V30 2872 H 268.522 4.83128 -1.39988 0
M  V30 2873 H 268.222 4.95956 -3.15122 0
M  V30 2874 H 269.746 5.58762 -2.46205 0
M  V30 2875 H 271.16 4.01051 -4.09672 0
M  V30 2876 H 269.557 3.62104 -4.7854 0
M  V30 2877 H 270.627 2.30669 -4.2652 0
M  V30 2878 N 271.97 1.30982 0.876444 0
M  V30 2879 C 272.9 1.20668 1.99903 0
M  V30 2880 C 273.881 0.095354 1.69833 0
M  V30 2881 O 275.066 0.27885 1.92188 0
M  V30 2882 C 272.196 0.90655 3.3526 0
M  V30 2883 C 271.15 1.97675 3.79617 0
M  V30 2884 C 270.476 1.52943 5.1236 0
M  V30 2885 C 271.776 3.389 3.97422 0
M  V30 2886 H 273.47 2.14586 2.0879 0
M  V30 2887 H 271.016 1.03308 1.00317 0
M  V30 2888 H 272.969 0.821025 4.13324 0
M  V30 2889 H 271.693 -0.0682969 3.26529 0
M  V30 2890 H 270.352 2.05205 3.03787 0
M  V30 2891 H 270 0.54262 5.00065 0
M  V30 2892 H 269.7 2.24532 5.43009 0
M  V30 2893 H 271.224 1.45786 5.92941 0
M  V30 2894 H 272.638 3.34081 4.659 0
M  V30 2895 H 271.035 4.0865 4.3946 0
M  V30 2896 H 272.105 3.80163 3.01006 0
M  V30 2897 N 273.449 -1.08991 1.13837 0
M  V30 2898 C 274.412 -2.13925 0.822715 0
M  V30 2899 C 275.412 -1.599 -0.1699 0
M  V30 2900 O 276.602 -1.74104 0.0577251 0
M  V30 2901 C 273.734 -3.40155 0.225318 0
M  V30 2902 H 274.927 -2.43358 1.75262 0
M  V30 2903 H 272.48 -1.24603 0.943594 0
M  V30 2904 H 273.215 -3.16352 -0.713594 0
M  V30 2905 H 273 -3.80661 0.940193 0
M  V30 2906 H 274.49 -4.17594 0.0214784 0
M  V30 2907 N 274.927 -0.932562 -1.27047 0
M  V30 2908 C 276.155 -0.592031 -1.98249 0
M  V30 2909 C 276.57 0.831062 -1.69525 0
M  V30 2910 O 275.927 1.55299 -0.958561 0
M  V30 2911 C 275.978 -0.814279 -3.5221 0
M  V30 2912 O 275.699 -2.18139 -3.7993 0
M  V30 2913 C 277.2 -0.483121 -4.4066 0
M  V30 2914 H 274.42 -0.223896 -0.632544 0
M  V30 2915 H 276.964 -1.25091 -1.61779 0
M  V30 2916 H 275.119 -0.20213 -3.86872 0
M  V30 2917 H 275.533 -2.235 -4.74498 0
M  V30 2918 H 277.007 -0.689298 -5.47679 0
M  V30 2919 H 277.484 0.581546 -4.35333 0
M  V30 2920 H 278.09 -1.07362 -4.11526 0
M  V30 2921 N 276.405 1.4127 -0.698611 0
M  V30 2922 C 277.682 1.94955 -0.158762 0
M  V30 2923 C 278.062 1.63781 1.33188 0
M  V30 2924 O 277.41 0.946423 2.07979 0
M  V30 2925 C 277.62 3.46044 -0.453309 0
M  V30 2926 C 278.968 4.22872 -0.382707 0
M  V30 2927 O 279.992 3.54076 -0.388396 0
M  V30 2928 O 278.851 5.45407 -0.345463 0
M  V30 2929 H 275.945 0.82683 -0.0167505 0
M  V30 2930 H 278.491 1.50971 -0.77498 0
M  V30 2931 H 277.263 3.62028 -1.48498 0
M  V30 2932 H 276.886 3.97128 0.19373 0
M  V30 2933 N 277.883 0.443576 1.51229 0
M  V30 2934 C 278.831 -0.37904 2.29491 0
M  V30 2935 C 279.825 -1.0153 1.35603 0
M  V30 2936 O 281.031 -0.94955 1.52917 0
M  V30 2937 H 277.406 -0.141053 0.738653 0
M  V30 2938 H 279.377 0.301799 2.9687 0
M  V30 2939 C 278.126 -1.46426 3.15364 0
M  V30 2940 H 277.449 -0.984037 3.87501 0
M  V30 2941 H 278.889 -2.01297 3.7317 0
M  V30 2942 C 277.348 -2.45099 2.31146 0
M  V30 2943 O 277.878 -3.49773 1.9754 0
M  V30 2944 N 276.084 -2.16139 1.94249 0
M  V30 2945 H 275.631 -1.31044 2.21777 0
M  V30 2946 H 275.589 -2.82398 1.38198 0
M  V30 2947 N 279.361 -1.56624 0.175154 0
M  V30 2948 C 280.772 -1.83561 -0.340916 0
M  V30 2949 C 281.123 -1.09511 -1.62794 0
M  V30 2950 O 280.248 -0.349389 -2.13561 0
M  V30 2951 C 280.843 -3.32979 -0.625313 0
M  V30 2952 C 279.402 -3.60399 -1.08581 0
M  V30 2953 C 278.549 -2.77024 -0.123722 0
M  V30 2954 H 281.5 -1.53593 0.399344 0
M  V30 2955 H 281.521 -3.50666 -1.47694 0
M  V30 2956 H 281.033 -3.86847 0.311575 0
M  V30 2957 H 279.134 -3.11945 -2.03767 0
M  V30 2958 H 279.247 -4.68711 -0.992317 0
M  V30 2959 H 277.611 -2.46993 -0.621821 0
M  V30 2960 H 278.394 -3.33674 0.807256 0
M  V30 2961 N 280.839 0.0985539 -1.57292 0
M  V30 2962 C 282.085 0.803867 -1.86188 0
M  V30 2963 C 282.418 1.78549 -0.763794 0
M  V30 2964 O 281.693 1.93153 0.22855 0
M  V30 2965 C 281.976 1.53568 -3.25713 0
M  V30 2966 C 281.829 0.572277 -4.46145 0
M  V30 2967 C 283.148 2.48708 -3.63087 0
M  V30 2968 H 280.267 0.290781 -0.677211 0
M  V30 2969 H 282.909 0.0675783 -1.8988 0
M  V30 2970 H 281.059 2.16332 -3.22696 0
M  V30 2971 H 282.731 -0.0480894 -4.61275 0
M  V30 2972 H 280.974 -0.114618 -4.33649 0
M  V30 2973 H 281.645 1.12139 -5.40489 0
M  V30 2974 H 284.121 1.96039 -3.67026 0
M  V30 2975 H 282.997 2.96932 -4.61652 0
M  V30 2976 H 283.258 3.32309 -2.91588 0
M  V30 2977 N 282.317 1.53212 0.369288 0
M  V30 2978 C 283.563 1.69466 1.11397 0
M  V30 2979 C 283.896 0.443257 1.89074 0
M  V30 2980 O 283.171 -0.559386 1.86282 0
M  V30 2981 C 283.454 2.9422 2.07621 0
M  V30 2982 C 283.307 4.29508 1.33577 0
M  V30 2983 C 284.626 3.14565 3.07794 0
M  V30 2984 H 281.745 0.616667 0.403597 0
M  V30 2985 H 284.387 1.85845 0.395179 0
M  V30 2986 H 282.537 2.80387 2.68916 0
M  V30 2987 H 284.209 4.55147 0.750955 0
M  V30 2988 H 282.452 4.29088 0.637618 0
M  V30 2989 H 283.123 5.12926 2.03989 0
M  V30 2990 H 285.599 3.2756 2.56601 0
M  V30 2991 H 284.475 4.03297 3.72348 0
M  V30 2992 H 284.736 2.29675 3.77759 0
M  V30 2993 N 283.795 -0.628877 1.44509 0
M  V30 2994 C 285.041 -1.39045 1.47629 0
M  V30 2995 C 285.374 -1.93892 0.109343 0
M  V30 2996 O 284.649 -1.7379 -0.87334 0
M  V30 2997 C 284.932 -2.55408 2.53848 0
M  V30 2998 C 284.785 -2.05896 3.99909 0
M  V30 2999 C 286.104 -3.5759 2.56549 0
M  V30 3000 H 283.223 -0.504232 0.537512 0
M  V30 3001 H 285.865 -0.710854 1.76201 0
M  V30 3002 H 284.015 -3.13384 2.29615 0
M  V30 3003 H 285.687 -1.52734 4.35282 0
M  V30 3004 H 283.93 -1.37061 4.11578 0
M  V30 3005 H 284.601 -2.89681 4.69882 0
M  V30 3006 H 287.077 -3.09419 2.78207 0
M  V30 3007 H 285.953 -4.36527 3.32769 0
M  V30 3008 H 286.214 -4.11808 1.60832 0
M  V30 3009 N 285.273 -1.31445 -0.869486 0
M  V30 3010 C 286.684 -1.19042 -1.43826 0
M  V30 3011 C 287.035 0.202919 -1.95148 0
M  V30 3012 O 286.16 1.10071 -1.86315 0
M  V30 3013 C 286.755 -2.15499 -2.6143 0
M  V30 3014 C 285.314 -2.07028 -3.14351 0
M  V30 3015 C 284.461 -2.04701 -1.87063 0
M  V30 3016 H 287.412 -1.43489 -0.677984 0
M  V30 3017 H 287.433 -1.74488 -3.38134 0
M  V30 3018 H 286.945 -3.16899 -2.24046 0
M  V30 3019 H 285.046 -1.08825 -3.56354 0
M  V30 3020 H 285.159 -2.96157 -3.766 0
M  V30 3021 H 283.523 -1.49724 -2.06046 0
M  V30 3022 H 284.306 -3.07857 -1.51917 0
M  V30 3023 N 286.751 1.08385 -1.14413 0
M  V30 3024 C 287.997 1.81044 -0.913834 0
M  V30 3025 C 288.33 1.86004 0.558209 0
M  V30 3026 O 287.605 1.33606 1.4135 0
M  V30 3027 C 287.888 3.26648 -1.51569 0
M  V30 3028 C 287.741 3.29895 -3.0576 0
M  V30 3029 C 289.06 4.23629 -1.19273 0
M  V30 3030 H 286.179 0.65727 -0.333414 0
M  V30 3031 H 288.821 1.26896 -1.41412 0
M  V30 3032 H 286.971 3.72889 -1.09023 0
M  V30 3033 H 288.643 2.91977 -3.57137 0
M  V30 3034 H 286.886 2.69163 -3.40197 0
M  V30 3035 H 287.557 4.32516 -3.42977 0
M  V30 3036 H 290.033 3.85727 -1.56057 0
M  V30 3037 H 288.909 5.23822 -1.64017 0
M  V30 3038 H 289.17 4.41968 -0.108068 0
M  V30 3039 N 288.23 0.939286 1.26551 0
M  V30 3040 C 289.478 0.58469 1.93457 0
M  V30 3041 C 289.799 -0.878774 1.74076 0
M  V30 3042 O 289.069 -1.62421 1.09528 0
M  V30 3043 H 287.649 0.21325 0.715914 0
M  V30 3044 H 290.311 1.1942 1.54029 0
M  V30 3045 H 289.407 0.800849 3.0165 0
M  V30 3046 N 289.708 -1.40897 0.706093 0
M  V30 3047 C 290.655 -2.30751 0.0474474 0
M  V30 3048 C 291.625 -1.47678 -0.76029 0
M  V30 3049 O 292.81 -1.76441 -0.726177 0
M  V30 3050 C 289.95 -3.33815 -0.875309 0
M  V30 3051 C 289.063 -4.31961 -0.0580623 0
M  V30 3052 C 288.198 -5.22093 -0.979425 0
M  V30 3053 C 287.237 -6.11902 -0.155706 0
M  V30 3054 N 286.374 -6.94482 -1.03144 0
M  V30 3055 H 291.214 -2.86513 0.819413 0
M  V30 3056 H 288.751 -1.41102 0.415783 0
M  V30 3057 H 290.709 -3.92129 -1.42446 0
M  V30 3058 H 289.339 -2.79579 -1.61356 0
M  V30 3059 H 288.391 -3.75507 0.608147 0
M  V30 3060 H 289.703 -4.95415 0.580082 0
M  V30 3061 H 288.857 -5.85292 -1.59744 0
M  V30 3062 H 287.596 -4.5889 -1.65141 0
M  V30 3063 H 286.601 -5.47742 0.475309 0
M  V30 3064 H 287.826 -6.77162 0.512635 0
M  V30 3065 H 285.772 -6.33877 -1.68924 0
M  V30 3066 H 285.689 -7.54665 -0.449108 0
M  V30 3067 H 286.957 -7.6214 -1.63593 0
M  V30 3068 N 291.186 -0.45159 -1.50991 0
M  V30 3069 C 292.133 0.352625 -2.2809 0
M  V30 3070 C 293.103 1.0044 -1.32291 0
M  V30 3071 O 294.288 1.02058 -1.6121 0
M  V30 3072 C 291.428 1.43983 -3.13629 0
M  V30 3073 C 290.541 0.804772 -4.24438 0
M  V30 3074 C 289.676 1.86822 -4.97263 0
M  V30 3075 C 288.715 1.21236 -5.99973 0
M  V30 3076 N 287.852 2.2178 -6.66152 0
M  V30 3077 H 292.692 -0.311186 -2.96371 0
M  V30 3078 H 290.229 -0.165308 -1.46168 0
M  V30 3079 H 292.187 2.08161 -3.61559 0
M  V30 3080 H 290.817 2.07307 -2.47434 0
M  V30 3081 H 289.869 0.0509129 -3.80366 0
M  V30 3082 H 291.181 0.286076 -4.97979 0
M  V30 3083 H 290.335 2.58628 -5.48813 0
M  V30 3084 H 289.074 2.42068 -4.23385 0
M  V30 3085 H 288.079 0.479828 -5.47702 0
M  V30 3086 H 289.304 0.667051 -6.75816 0
M  V30 3087 H 287.25 2.76079 -5.95077 0
M  V30 3088 H 287.167 1.74841 -7.35504 0
M  V30 3089 H 288.435 2.93026 -7.22327 0
M  V30 3090 N 292.664 1.56529 -0.183458 0
M  V30 3091 C 293.91 1.97537 0.459036 0
M  V30 3092 C 294.243 1.06989 1.62071 0
M  V30 3093 O 293.518 0.11948 1.94133 0
M  V30 3094 C 293.801 3.47874 0.930368 0
M  V30 3095 C 293.654 4.492 -0.232317 0
M  V30 3096 C 294.973 4.01612 1.79989 0
M  V30 3097 H 292.092 0.718204 0.165383 0
M  V30 3098 H 294.734 1.88042 -0.272038 0
M  V30 3099 H 292.884 3.56095 1.55333 0
M  V30 3100 H 294.556 4.53027 -0.86972 0
M  V30 3101 H 292.799 4.24657 -0.885928 0
M  V30 3102 H 293.47 5.51823 0.139796 0
M  V30 3103 H 295.946 3.96097 1.27461 0
M  V30 3104 H 294.822 5.07195 2.09867 0
M  V30 3105 H 295.083 3.46163 2.74998 0
M  V30 3106 N 294.142 -0.090211 1.57342 0
M  V30 3107 C 295.072 -1.10976 2.05443 0
M  V30 3108 C 296.053 -1.41482 0.944284 0
M  V30 3109 O 297.238 -1.51428 1.21586 0
M  V30 3110 C 294.368 -2.42831 2.48295 0
M  V30 3111 C 293.322 -2.26721 3.63018 0
M  V30 3112 C 292.648 -3.63796 3.91863 0
M  V30 3113 C 293.948 -1.7037 4.93732 0
M  V30 3114 H 295.642 -0.709564 2.9087 0
M  V30 3115 H 293.188 -0.339874 1.39932 0
M  V30 3116 H 295.141 -3.14431 2.80555 0
M  V30 3117 H 293.865 -2.84795 1.59873 0
M  V30 3118 H 292.524 -1.57565 3.31012 0
M  V30 3119 H 292.172 -4.03297 3.00601 0
M  V30 3120 H 291.872 -3.53861 4.69101 0
M  V30 3121 H 293.396 -4.36855 4.26603 0
M  V30 3122 H 294.81 -2.31816 5.24342 0
M  V30 3123 H 293.207 -1.71181 5.75167 0
M  V30 3124 H 294.277 -0.663542 4.80339 0
M  V30 3125 N 295.62 -1.53406 -0.361157 0
M  V30 3126 C 296.866 -1.70054 -1.10496 0
M  V30 3127 C 297.199 -0.453278 -1.88836 0
M  V30 3128 O 296.474 0.5495 -1.86576 0
M  V30 3129 C 296.757 -2.95317 -2.06058 0
M  V30 3130 C 296.61 -4.3021 -1.31298 0
M  V30 3131 C 297.929 -3.16193 -3.06121 0
M  V30 3132 H 295.048 -0.618799 -0.400321 0
M  V30 3133 H 297.69 -1.86052 -0.385318 0
M  V30 3134 H 295.84 -2.81809 -2.67425 0
M  V30 3135 H 297.512 -4.55538 -0.726807 0
M  V30 3136 H 295.755 -4.29421 -0.614853 0
M  V30 3137 H 296.426 -5.14 -2.01265 0
M  V30 3138 H 298.902 -3.28916 -2.5486 0
M  V30 3139 H 297.778 -4.05266 -3.70204 0
M  V30 3140 H 298.039 -2.31676 -3.76535 0
M  V30 3141 N 297.098 0.621204 -1.44841 0
M  V30 3142 C 298.03 1.74615 -1.48466 0
M  V30 3143 C 299.043 1.58377 -0.37691 0
M  V30 3144 O 300.232 1.66508 -0.643215 0
M  V30 3145 C 297.332 3.12459 -1.31236 0
M  V30 3146 C 296.505 3.55064 -2.55438 0
M  V30 3147 C 295.564 4.71821 -2.32963 0
M  V30 3148 O 294.59 4.79628 -3.06505 0
M  V30 3149 N 295.792 5.64186 -1.36654 0
M  V30 3150 H 298.557 1.71973 -2.45449 0
M  V30 3151 H 296.118 0.806077 -1.40407 0
M  V30 3152 H 298.11 3.88302 -1.14032 0
M  V30 3153 H 296.68 3.09686 -0.4258 0
M  V30 3154 H 295.9 2.69324 -2.87851 0
M  V30 3155 H 297.188 3.80284 -3.38026 0
M  V30 3156 H 296.586 5.6058 -0.759344 0
M  V30 3157 H 295.143 6.39618 -1.25425 0
M  V30 3158 N 298.576 1.31904 0.862503 0
M  V30 3159 C 299.822 1.22197 1.61851 0
M  V30 3160 C 300.155 -0.217641 1.92977 0
M  V30 3161 O 299.43 -1.15264 1.56666 0
M  V30 3162 C 299.713 2.07378 2.94391 0
M  V30 3163 C 299.566 3.59678 2.70096 0
M  V30 3164 C 300.885 1.92891 3.95577 0
M  V30 3165 H 298.004 0.445255 0.587296 0
M  V30 3166 H 300.646 1.6177 0.99651 0
M  V30 3167 H 298.796 1.73758 3.47477 0
M  V30 3168 H 300.468 4.03472 2.23625 0
M  V30 3169 H 298.711 3.82735 2.04197 0
M  V30 3170 H 299.382 4.14595 3.64438 0
M  V30 3171 H 301.858 2.22327 3.51724 0
M  V30 3172 H 300.734 2.54781 4.86187 0
M  V30 3173 H 300.995 0.894315 4.3296 0
M  V30 3174 N 300.054 -1.07777 1.14986 0
M  V30 3175 C 301.282 -1.84018 0.945773 0
M  V30 3176 C 301.697 -1.81897 -0.505863 0
M  V30 3177 O 301.054 -1.22726 -1.35072 0
M  V30 3178 C 301.105 -3.31287 1.44677 0
M  V30 3179 O 300.826 -3.33449 2.84154 0
M  V30 3180 C 302.327 -4.24311 1.28355 0
M  V30 3181 H 299.547 -0.580716 0.336169 0
M  V30 3182 H 302.091 -1.36077 1.52654 0
M  V30 3183 H 300.246 -3.76594 0.908625 0
M  V30 3184 H 300.66 -4.25427 3.06777 0
M  V30 3185 H 302.134 -5.2573 1.68261 0
M  V30 3186 H 302.611 -4.38612 0.227184 0
M  V30 3187 H 303.217 -3.84836 1.81056 0
M  V30 3188 N 301.532 -0.945985 -1.26051 0
M  V30 3189 C 302.495 -0.463897 -2.24456 0
M  V30 3190 C 303.495 0.427655 -1.55009 0
M  V30 3191 O 304.685 0.226157 -1.72726 0
M  V30 3192 C 301.817 0.330812 -3.39291 0
M  V30 3193 H 303.01 -1.33357 -2.68619 0
M  V30 3194 H 300.563 -0.728416 -1.38289 0
M  V30 3195 H 301.298 1.21852 -3.00537 0
M  V30 3196 H 301.083 -0.308679 -3.90883 0
M  V30 3197 H 302.573 0.657865 -4.12386 0
M  V30 3198 N 303.011 1.40521 -0.713556 0
M  V30 3199 C 304.239 2.05237 -0.261775 0
M  V30 3200 C 304.654 1.53755 1.09567 0
M  V30 3201 O 304.011 0.693268 1.6882 0
M  V30 3202 C 304.062 3.60763 -0.230706 0
M  V30 3203 O 303.783 4.10345 -1.53455 0
M  V30 3204 C 305.284 4.42651 0.239874 0
M  V30 3205 H 302.504 0.660533 -0.118057 0
M  V30 3206 H 305.048 1.79967 -0.971192 0
M  V30 3207 H 303.203 3.8501 0.429661 0
M  V30 3208 H 303.617 5.04526 -1.43366 0
M  V30 3209 H 305.091 5.51599 0.210468 0
M  V30 3210 H 305.568 4.20082 1.28171 0
M  V30 3211 H 306.174 4.23507 -0.390142 0
M  V30 3212 N 304.489 0.459591 1.5075 0
M  V30 3213 C 305.766 -0.160371 1.94941 0
M  V30 3214 C 306.146 -1.58048 1.39943 0
M  V30 3215 O 305.494 -2.206 0.595629 0
M  V30 3216 C 305.704 -0.115432 3.48809 0
M  V30 3217 C 307.052 -0.310026 4.23467 0
M  V30 3218 O 308.076 -0.192543 3.55679 0
M  V30 3219 O 306.935 -0.546031 5.43765 0
M  V30 3220 H 304.029 -0.117925 0.818549 0
M  V30 3221 H 306.575 0.519169 1.61563 0
M  V30 3222 H 305.347 0.87652 3.81357 0
M  V30 3223 H 304.97 -0.836928 3.88692 0
M  V30 3224 N 305.967 -1.56429 0.191757 0
M  V30 3225 C 307.213 -1.97777 -0.448554 0
M  V30 3226 C 307.546 -1.07847 -1.61501 0
M  V30 3227 O 306.821 -0.129774 -1.94067 0
M  V30 3228 C 307.104 -3.48362 -0.911906 0
M  V30 3229 C 306.957 -4.4907 0.256136 0
M  V30 3230 C 308.276 -4.02561 -1.77857 0
M  V30 3231 H 305.395 -0.719071 -0.161572 0
M  V30 3232 H 308.037 -1.87896 0.282007 0
M  V30 3233 H 306.187 -3.56914 -1.53442 0
M  V30 3234 H 307.859 -4.5256 0.893733 0
M  V30 3235 H 306.102 -4.24181 0.908436 0
M  V30 3236 H 306.773 -5.51889 -0.11053 0
M  V30 3237 H 309.249 -3.96767 -1.25359 0
M  V30 3238 H 308.125 -5.08301 -2.07174 0
M  V30 3239 H 308.386 -3.47616 -2.73158 0
M  V30 3240 N 307.445 0.0818655 -1.57387 0
M  V30 3241 C 308.694 0.781681 -1.85937 0
M  V30 3242 C 309.007 1.79246 -0.782957 0
M  V30 3243 O 310.213 2.54112 -0.955987 0
M  V30 3244 C 308.669 1.44109 -3.29789 0
M  V30 3245 C 308.277 0.469396 -4.45534 0
M  V30 3246 C 310.021 2.12386 -3.67549 0
M  V30 3247 C 307.928 1.13415 -5.80423 0
M  V30 3248 H 306.858 0.295682 -0.693605 0
M  V30 3249 H 309.509 0.0348051 -1.83467 0
M  V30 3250 H 307.891 2.23588 -3.2684 0
M  V30 3251 H 309.065 -0.294856 -4.59856 0
M  V30 3252 H 307.38 -0.108383 -4.16259 0
M  V30 3253 H 309.977 2.62878 -4.65617 0
M  V30 3254 H 310.32 2.91877 -2.96839 0
M  V30 3255 H 310.853 1.39751 -3.72444 0
M  V30 3256 H 307.592 0.379771 -6.54399 0
M  V30 3257 H 307.112 1.8695 -5.69921 0
M  V30 3258 H 308.791 1.65686 -6.25426 0
M  V30 3259 N 308.923 1.53595 0.353017 0
M  V30 3260 C 309.873 1.77299 1.43349 0
M  V30 3261 C 310.857 0.627884 1.48143 0
M  V30 3262 O 312.049 0.88697 1.53173 0
M  V30 3263 C 309.178 1.97757 2.80619 0
M  V30 3264 C 308.264 3.18305 2.80254 0
M  V30 3265 N 308.655 4.39967 2.49526 0
M  V30 3266 C 306.953 3.19283 3.11407 0
M  V30 3267 C 307.654 5.21772 2.57156 0
M  V30 3268 N 306.63 4.58269 2.92388 0
M  V30 3269 H 310.432 2.68963 1.18474 0
M  V30 3270 H 307.946 1.52391 0.561306 0
M  V30 3271 H 309.943 2.1287 3.58458 0
M  V30 3272 H 308.603 1.07329 3.06448 0
M  V30 3273 H 309.614 4.67482 2.22893 0
M  V30 3274 H 306.291 2.3879 3.4247 0
M  V30 3275 H 307.681 6.2885 2.36638 0
M  V30 3276 N 310.401 -0.613514 1.45168 0
M  V30 3277 C 311.364 -1.7065 1.53007 0
M  V30 3278 C 312.364 -1.5548 0.410184 0
M  V30 3279 O 313.554 -1.60656 0.673455 0
M  V30 3280 C 310.686 -3.09875 1.42093 0
M  V30 3281 H 311.879 -1.65068 2.50385 0
M  V30 3282 H 309.432 -0.828728 1.32521 0
M  V30 3283 H 310.167 -3.21039 0.458769 0
M  V30 3284 H 309.952 -3.22293 2.23315 0
M  V30 3285 H 311.442 -3.895 1.50598 0
M  V30 3286 N 311.879 -1.3236 -0.855495 0
M  V30 3287 C 313.125 -1.24064 -1.61182 0
M  V30 3288 C 313.48 0.195914 -1.914 0
M  V30 3289 O 312.773 1.13345 -1.54478 0
M  V30 3290 C 312.967 -2.03275 -2.93963 0
M  V30 3291 C 312.796 -3.54486 -2.76712 0
M  V30 3292 C 311.566 -4.23824 -2.75139 0
M  V30 3293 C 313.764 -4.49154 -2.50531 0
M  V30 3294 N 311.746 -5.61095 -2.4909 0
M  V30 3295 C 313.117 -5.74195 -2.3388 0
M  V30 3296 C 315.172 -4.3842 -2.35992 0
M  V30 3297 C 313.875 -6.89716 -2.04168 0
M  V30 3298 C 315.901 -5.53739 -2.0767 0
M  V30 3299 C 315.263 -6.77779 -1.9182 0
M  V30 3300 H 311.362 -0.509139 -0.59355 0
M  V30 3301 H 313.946 -1.66715 -1.00569 0
M  V30 3302 H 312.117 -1.6297 -3.52555 0
M  V30 3303 H 313.849 -1.86881 -3.58967 0
M  V30 3304 H 310.604 -3.75934 -2.88047 0
M  V30 3305 H 311.028 -6.33411 -2.38996 0
M  V30 3306 H 315.67 -3.43172 -2.46967 0
M  V30 3307 H 313.388 -7.84977 -1.9193 0
M  V30 3308 H 316.974 -5.4736 -1.97201 0
M  V30 3309 H 315.854 -7.65504 -1.70217 0
M  V30 3310 N 313.357 1.07166 -1.15556 0
M  V30 3311 C 314.585 1.83514 -0.955519 0
M  V30 3312 C 315 1.82163 0.49621 0
M  V30 3313 O 314.357 1.23441 1.34419 0
M  V30 3314 C 314.408 3.30515 -1.46432 0
M  V30 3315 O 314.129 3.31937 -2.85918 0
M  V30 3316 C 315.63 4.23625 -1.30603 0
M  V30 3317 H 312.85 0.578926 -0.339244 0
M  V30 3318 H 315.394 1.35265 -1.53374 0
M  V30 3319 H 313.549 3.76106 -0.928584 0
M  V30 3320 H 313.963 4.23794 -3.09029 0
M  V30 3321 H 315.437 5.24831 -1.71047 0
M  V30 3322 H 315.914 4.38485 -0.250441 0
M  V30 3323 H 316.52 3.83871 -1.83094 0
M  V30 3324 N 314.835 0.952656 1.25548 0
M  V30 3325 C 316.084 0.602053 1.92505 0
M  V30 3326 C 316.397 -0.864663 1.75451 0
M  V30 3327 O 317.603 -1.32514 2.36965 0
M  V30 3328 C 316.059 1.02607 3.44963 0
M  V30 3329 C 315.667 2.51519 3.70732 0
M  V30 3330 C 317.411 0.747905 4.1786 0
M  V30 3331 C 315.318 2.87732 5.16686 0
M  V30 3332 H 314.248 0.22146 0.720744 0
M  V30 3333 H 316.899 1.15684 1.42441 0
M  V30 3334 H 315.281 0.399712 3.93978 0
M  V30 3335 H 316.455 3.19157 3.32378 0
M  V30 3336 H 314.77 2.76786 3.11092 0
M  V30 3337 H 317.367 0.994647 5.25367 0
M  V30 3338 H 317.71 -0.315629 4.15102 0
M  V30 3339 H 318.243 1.33452 3.74747 0
M  V30 3340 H 314.982 3.93095 5.24554 0
M  V30 3341 H 314.502 2.24765 5.56094 0
M  V30 3342 H 316.181 2.76817 5.84792 0
M  V30 3343 N 316.313 -1.40141 0.720998 0
M  V30 3344 C 317.724 -1.83678 0.334553 0
M  V30 3345 C 318.075 -1.6027 -1.13173 0
M  V30 3346 O 317.2 -1.08643 -1.87152 0
M  V30 3347 C 317.795 -3.33437 0.600437 0
M  V30 3348 C 316.354 -3.75447 0.267642 0
M  V30 3349 C 315.501 -2.63296 0.870097 0
M  V30 3350 H 318.452 -1.29331 0.919732 0
M  V30 3351 H 318.473 -3.80269 -0.132517 0
M  V30 3352 H 317.985 -3.50442 1.66768 0
M  V30 3353 H 316.086 -3.64035 -0.794329 0
M  V30 3354 H 316.199 -4.73344 0.74042 0
M  V30 3355 H 314.563 -2.52954 0.297739 0
M  V30 3356 H 315.346 -2.83112 1.94172 0
M  V30 3357 N 317.792 -0.46758 -1.50504 0
M  V30 3358 C 318.755 0.317059 -2.26996 0
M  V30 3359 C 319.755 0.923513 -1.31635 0
M  V30 3360 O 320.945 0.793239 -1.55091 0
M  V30 3361 C 318.077 1.45134 -3.08462 0
M  V30 3362 H 319.27 -0.353723 -2.97807 0
M  V30 3363 H 316.823 -0.221545 -1.54722 0
M  V30 3364 H 317.558 2.15728 -2.4214 0
M  V30 3365 H 317.343 1.02232 -3.78538 0
M  V30 3366 H 318.833 2.00493 -3.66323 0
M  V30 3367 N 319.27 1.56325 -0.20005 0
M  V30 3368 C 320.517 1.97719 0.437411 0
M  V30 3369 C 320.845 1.08709 1.61284 0
M  V30 3370 O 320.1 0.127261 1.95286 0
M  V30 3371 C 320.399 3.4495 0.935103 0
M  V30 3372 C 320.065 4.5072 -0.12749 0
M  V30 3373 C 318.727 4.79368 -0.419451 0
M  V30 3374 C 321.079 5.14268 -0.847231 0
M  V30 3375 C 318.407 5.68854 -1.43604 0
M  V30 3376 C 320.759 6.04852 -1.85301 0
M  V30 3377 C 319.423 6.31855 -2.15211 0
M  V30 3378 H 318.693 0.723507 0.16006 0
M  V30 3379 H 321.34 1.89166 -0.298056 0
M  V30 3380 H 319.645 3.50599 1.74894 0
M  V30 3381 H 321.342 3.74337 1.43781 0
M  V30 3382 H 317.932 4.28458 0.11023 0
M  V30 3383 H 322.116 4.92222 -0.634901 0
M  V30 3384 H 317.372 5.88047 -1.67364 0
M  V30 3385 H 321.546 6.53152 -2.41591 0
M  V30 3386 H 319.173 7.00994 -2.94129 0
M  V30 3387 N 320.748 -0.0735177 1.57428 0
M  V30 3388 C 321.711 -1.07192 2.02589 0
M  V30 3389 C 322.711 -1.31695 0.922661 0
M  V30 3390 O 323.901 -1.27445 1.18758 0
M  V30 3391 C 321.033 -2.41599 2.40506 0
M  V30 3392 H 322.226 -0.682727 2.92025 0
M  V30 3393 H 319.779 -0.319193 1.53006 0
M  V30 3394 H 320.514 -2.85354 1.5409 0
M  V30 3395 H 320.299 -2.25156 3.21009 0
M  V30 3396 H 321.789 -3.13367 2.76027 0
M  V30 3397 N 322.226 -1.5378 -0.344866 0
M  V30 3398 C 323.472 -1.71216 -1.08687 0
M  V30 3399 C 323.805 -0.473281 -1.88345 0
M  V30 3400 O 323.08 0.52968 -1.87149 0
M  V30 3401 C 323.363 -2.97486 -2.02914 0
M  V30 3402 C 323.216 -4.31579 -1.26727 0
M  V30 3403 C 324.535 -3.19422 -3.0275 0
M  V30 3404 H 321.654 -0.62301 -0.393735 0
M  V30 3405 H 324.296 -1.8645 -0.365563 0
M  V30 3406 H 322.446 -2.84629 -2.64421 0
M  V30 3407 H 324.118 -4.56284 -0.67845 0
M  V30 3408 H 322.361 -4.30049 -0.569273 0
M  V30 3409 H 323.032 -5.16106 -1.95803 0
M  V30 3410 H 325.508 -3.316 -2.51357 0
M  V30 3411 H 324.384 -4.09169 -3.65885 0
M  V30 3412 H 324.645 -2.35656 -3.74057 0
M  V30 3413 N 323.704 0.605807 -1.45491 0
M  V30 3414 C 324.651 1.7164 -1.54299 0
M  V30 3415 C 325.621 1.61486 -0.388761 0
M  V30 3416 O 326.806 1.81039 -0.602445 0
M  V30 3417 C 323.946 3.09953 -1.51734 0
M  V30 3418 C 323.059 3.309 -2.77721 0
M  V30 3419 C 322.194 4.59329 -2.66816 0
M  V30 3420 C 321.233 4.7354 -3.87848 0
M  V30 3421 N 320.37 5.9327 -3.75467 0
M  V30 3422 H 325.21 1.63449 -2.49176 0
M  V30 3423 H 322.747 0.796957 -1.23641 0
M  V30 3424 H 324.705 3.89977 -1.48235 0
M  V30 3425 H 323.335 3.17098 -0.604068 0
M  V30 3426 H 322.387 2.44639 -2.913 0
M  V30 3427 H 323.699 3.37274 -3.67488 0
M  V30 3428 H 322.853 5.4755 -2.61292 0
M  V30 3429 H 321.592 4.55355 -1.74651 0
M  V30 3430 H 320.597 3.83741 -3.93729 0
M  V30 3431 H 321.822 4.79309 -4.81082 0
M  V30 3432 H 319.768 5.90338 -2.86072 0
M  V30 3433 H 319.685 6.00811 -4.5887 0
M  V30 3434 H 320.953 6.83984 -3.73879 0
M  V30 3435 N 325.182 1.32811 0.848464 0
M  V30 3436 C 326.114 1.18095 1.96433 0
M  V30 3437 C 327.127 0.114354 1.62398 0
M  V30 3438 O 328.316 0.363892 1.74751 0
M  V30 3439 C 325.416 0.786798 3.2964 0
M  V30 3440 C 324.589 1.943 3.91875 0
M  V30 3441 C 323.648 1.53138 5.03423 0
M  V30 3442 O 322.674 2.24432 5.23086 0
M  V30 3443 N 323.876 0.430915 5.78898 0
M  V30 3444 H 326.641 2.14218 2.09597 0
M  V30 3445 H 324.202 1.2543 1.02367 0
M  V30 3446 H 326.194 0.493715 4.01677 0
M  V30 3447 H 324.764 -0.0834541 3.12489 0
M  V30 3448 H 323.984 2.40224 3.12547 0
M  V30 3449 H 325.272 2.71689 4.30189 0
M  V30 3450 H 324.67 -0.162333 5.65467 0
M  V30 3451 H 323.227 0.197466 6.51501 0
M  V30 3452 N 326.66 -1.06551 1.16123 0
M  V30 3453 C 327.937 -1.76097 0.85142 0
M  V30 3454 C 328.317 -2.00802 -0.6513 0
M  V30 3455 O 327.665 -1.63302 -1.59827 0
M  V30 3456 C 327.875 -3.06384 1.67122 0
M  V30 3457 C 329.223 -3.80585 1.88255 0
M  V30 3458 O 330.247 -3.16218 1.63966 0
M  V30 3459 O 329.106 -4.96212 2.2899 0
M  V30 3460 H 326.2 -0.765102 0.313923 0
M  V30 3461 H 328.746 -1.12844 1.26745 0
M  V30 3462 H 327.518 -2.84071 2.69108 0
M  V30 3463 H 327.141 -3.77371 1.25206 0
M  V30 3464 N 328.138 -0.959301 -1.25041 0
M  V30 3465 C 329.101 -0.487677 -2.23952 0
M  V30 3466 C 330.101 0.41119 -1.55454 0
M  V30 3467 O 331.291 0.207825 -1.72956 0
M  V30 3468 C 328.423 0.294807 -3.39623 0
M  V30 3469 H 329.616 -1.36198 -2.67189 0
M  V30 3470 H 327.169 -0.743042 -1.37508 0
M  V30 3471 H 327.904 1.18658 -3.01813 0
M  V30 3472 H 327.689 -0.35012 -3.90534 0
M  V30 3473 H 329.179 0.614089 -4.1306 0
M  V30 3474 N 329.616 1.39756 -0.72842 0
M  V30 3475 C 330.862 2.00942 -0.273892 0
M  V30 3476 C 331.195 1.57656 1.13394 0
M  V30 3477 O 330.47 0.802434 1.77176 0
M  V30 3478 C 330.753 3.58211 -0.368346 0
M  V30 3479 C 330.606 4.11534 -1.81548 0
M  V30 3480 C 331.925 4.39372 0.253054 0
M  V30 3481 H 329.044 0.730047 -0.100996 0
M  V30 3482 H 331.686 1.66056 -0.923337 0
M  V30 3483 H 329.836 3.88061 0.184588 0
M  V30 3484 H 331.508 3.92431 -2.42478 0
M  V30 3485 H 329.751 3.65341 -2.33898 0
M  V30 3486 H 330.422 5.20682 -1.83288 0
M  V30 3487 H 332.898 4.15527 -0.218224 0
M  V30 3488 H 331.774 5.48677 0.156585 0
M  V30 3489 H 332.035 4.21358 1.33826 0
M  V30 3490 N 331.094 0.475555 1.50254 0
M  V30 3491 C 332.505 0.0215174 1.86688 0
M  V30 3492 C 332.856 -1.38467 1.39001 0
M  V30 3493 O 331.981 -2.02732 0.756894 0
M  V30 3494 C 332.576 0.0322715 3.38785 0
M  V30 3495 C 331.135 -0.366314 3.74613 0
M  V30 3496 C 330.282 0.415832 2.74164 0
M  V30 3497 H 333.233 0.689612 1.42934 0
M  V30 3498 H 333.254 -0.76889 3.7265 0
M  V30 3499 H 332.766 1.05584 3.73462 0
M  V30 3500 H 330.867 -1.39406 3.45538 0
M  V30 3501 H 330.98 -0.064555 4.79057 0
M  V30 3502 H 329.344 -0.131048 2.54363 0
M  V30 3503 H 330.127 1.43899 3.11686 0
M  V30 3504 N 332.573 -1.56217 0.208337 0
M  V30 3505 C 333.821 -1.97558 -0.426076 0
M  V30 3506 C 334.142 -1.09683 -1.61229 0
M  V30 3507 O 333.412 -0.170956 -1.95153 0
M  V30 3508 H 331.992 -0.729575 -0.160405 0
M  V30 3509 H 334.654 -1.92606 0.298155 0
M  V30 3510 H 333.75 -3.02672 -0.761312 0
M  V30 3511 N 334.051 0.0651679 -1.57465 0
M  V30 3512 C 335.467 0.420105 -1.53972 0
M  V30 3513 C 335.667 1.78782 -0.929474 0
M  V30 3514 O 334.723 2.46771 -0.534839 0
M  V30 3515 C 336.036 0.355084 -2.98596 0
M  V30 3516 C 337.584 0.434792 -3.09965 0
M  V30 3517 C 338.059 0.399609 -4.56253 0
M  V30 3518 N 339.55 0.459488 -4.60915 0
M  V30 3519 C 340.285 0.454584 -5.71595 0
M  V30 3520 N 339.781 0.404102 -6.9162 0
M  V30 3521 N 341.574 0.501635 -5.59857 0
M  V30 3522 H 333.725 -0.830328 -1.95498 0
M  V30 3523 H 335.988 -0.312244 -0.895102 0
M  V30 3524 H 335.694 -0.583357 -3.46828 0
M  V30 3525 H 335.568 1.16275 -3.58831 0
M  V30 3526 H 337.955 1.36366 -2.61703 0
M  V30 3527 H 338.036 -0.40157 -2.52628 0
M  V30 3528 H 337.68 -0.525436 -5.05175 0
M  V30 3529 H 337.61 1.25359 -5.11461 0
M  V30 3530 H 340.101 0.502482 -3.74544 0
M  V30 3531 H 340.414 0.404468 -7.71741 0
M  V30 3532 H 338.759 0.37069 -6.94011 0
M  V30 3533 H 341.95 0.538812 -4.64989 0
M  V30 3534 H 342.123 0.494345 -6.46112 0
M  V30 3535 N 335.529 1.53961 0.336706 0
M  V30 3536 C 336.778 1.70751 1.07363 0
M  V30 3537 C 337.091 0.481061 1.89592 0
M  V30 3538 O 338.297 0.530046 2.66276 0
M  V30 3539 C 336.753 3.01965 1.95818 0
M  V30 3540 C 336.361 4.31971 1.18764 0
M  V30 3541 C 338.105 3.28121 2.69327 0
M  V30 3542 C 336.012 5.54255 2.06289 0
M  V30 3543 H 334.942 0.636292 0.404535 0
M  V30 3544 H 337.593 1.80459 0.332681 0
M  V30 3545 H 335.975 2.86132 2.7376 0
M  V30 3546 H 337.149 4.5853 0.456849 0
M  V30 3547 H 335.464 4.12481 0.569946 0
M  V30 3548 H 338.061 4.16673 3.35094 0
M  V30 3549 H 338.404 2.45426 3.36261 0
M  V30 3550 H 338.937 3.44762 1.98454 0
M  V30 3551 H 335.676 6.39513 1.43885 0
M  V30 3552 H 335.196 5.31935 2.77138 0
M  V30 3553 H 336.875 5.90159 2.65182 0
M  V30 3554 N 337.007 -0.598083 1.45811 0
M  V30 3555 C 337.97 -1.69018 1.54808 0
M  V30 3556 C 338.97 -1.55037 0.426652 0
M  V30 3557 O 340.16 -1.59932 0.690456 0
M  V30 3558 C 337.292 -3.0835 1.45371 0
M  V30 3559 H 338.485 -1.62403 2.52121 0
M  V30 3560 H 336.038 -0.814626 1.33392 0
M  V30 3561 H 336.773 -3.20534 0.492793 0
M  V30 3562 H 336.558 -3.19907 2.26721 0
M  V30 3563 H 338.048 -3.8788 1.54721 0
M  V30 3564 N 338.485 -1.33259 -0.841409 0
M  V30 3565 C 339.417 -1.19136 -1.95804 0
M  V30 3566 C 340.43 -0.122965 -1.62335 0
M  V30 3567 O 341.619 -0.373154 -1.74556 0
M  V30 3568 C 338.719 -0.804268 -3.29218 0
M  V30 3569 C 337.892 -1.96376 -3.90839 0
M  V30 3570 C 336.951 -1.55806 -5.02604 0
M  V30 3571 O 335.977 -2.27203 -5.21888 0
M  V30 3572 N 337.179 -0.461609 -5.78662 0
M  V30 3573 H 339.944 -2.15326 -2.08458 0
M  V30 3574 H 337.505 -1.25971 -1.017 0
M  V30 3575 H 339.497 -0.51501 -4.0141 0
M  V30 3576 H 338.067 0.0668809 -3.12528 0
M  V30 3577 H 337.287 -2.41879 -3.11269 0
M  V30 3578 H 338.575 -2.73966 -4.28742 0
M  V30 3579 H 337.973 0.132343 -5.65545 0
M  V30 3580 H 336.53 -0.232013 -6.51387 0
M  V30 3581 N 339.963 1.05934 -1.16686 0
M  V30 3582 C 340.893 2.1546 -0.899949 0
M  V30 3583 C 341.874 1.69391 0.155154 0
M  V30 3584 O 343.059 1.94199 0.00648693 0
M  V30 3585 C 340.189 3.44939 -0.404241 0
M  V30 3586 C 339.143 4.04536 -1.39767 0
M  V30 3587 C 338.469 5.29268 -0.760216 0
M  V30 3588 C 339.769 4.42893 -2.76845 0
M  V30 3589 H 341.463 2.38046 -1.81588 0
M  V30 3590 H 339.009 1.14404 -0.874514 0
M  V30 3591 H 340.962 4.20901 -0.204971 0
M  V30 3592 H 339.686 3.21983 0.547206 0
M  V30 3593 H 338.345 3.30635 -1.58355 0
M  V30 3594 H 337.993 5.02611 0.197831 0
M  V30 3595 H 337.693 5.70101 -1.42332 0
M  V30 3596 H 339.217 6.07924 -0.57105 0
M  V30 3597 H 340.631 5.09921 -2.62019 0
M  V30 3598 H 339.028 4.94721 -3.39663 0
M  V30 3599 H 340.098 3.53584 -3.31823 0
M  V30 3600 N 341.441 0.965919 1.2453 0
M  V30 3601 C 342.687 0.637349 1.93156 0
M  V30 3602 C 343.042 -0.818261 1.74133 0
M  V30 3603 O 342.335 -1.58079 1.08266 0
M  V30 3604 C 342.529 0.945428 3.44669 0
M  V30 3605 C 342.358 2.42944 3.78429 0
M  V30 3606 C 341.128 3.08895 3.9989 0
M  V30 3607 C 343.326 3.40941 3.8505 0
M  V30 3608 N 341.308 4.47052 4.20735 0
M  V30 3609 C 342.679 4.64448 4.10717 0
M  V30 3610 C 344.734 3.35624 3.67779 0
M  V30 3611 C 343.437 5.83292 4.20907 0
M  V30 3612 C 345.463 4.53818 3.79214 0
M  V30 3613 C 344.825 5.76114 4.05304 0
M  V30 3614 H 340.924 0.284034 0.728594 0
M  V30 3615 H 343.508 1.24041 1.50073 0
M  V30 3616 H 341.679 0.371193 3.86622 0
M  V30 3617 H 343.411 0.575613 4.00586 0
M  V30 3618 H 340.166 2.59432 3.96222 0
M  V30 3619 H 340.59 5.18634 4.35141 0
M  V30 3620 H 345.232 2.4211 3.46616 0
M  V30 3621 H 342.95 6.77236 4.40883 0
M  V30 3622 H 346.536 4.51263 3.67224 0
M  V30 3623 H 345.416 6.66045 4.13949 0
M  V30 3624 N 342.919 -1.39368 0.735821 0
M  V30 3625 C 344.166 -2.00497 0.284123 0
M  V30 3626 C 344.494 -1.58387 -1.12889 0
M  V30 3627 O 343.749 -0.804359 -1.78406 0
M  V30 3628 C 344.048 -3.5583 0.334651 0
M  V30 3629 C 343.714 -4.17593 1.7008 0
M  V30 3630 C 342.376 -4.34176 2.07472 0
M  V30 3631 C 344.728 -4.51848 2.59775 0
M  V30 3632 C 342.056 -4.82304 3.34065 0
M  V30 3633 C 344.408 -5.01384 3.85741 0
M  V30 3634 C 343.072 -5.16175 4.23225 0
M  V30 3635 H 342.342 -0.73367 0.103968 0
M  V30 3636 H 344.989 -1.66683 0.942825 0
M  V30 3637 H 343.294 -3.89674 -0.407625 0
M  V30 3638 H 344.991 -4.00986 -0.0329927 0
M  V30 3639 H 341.581 -4.05087 1.40008 0
M  V30 3640 H 345.765 -4.38653 2.32157 0
M  V30 3641 H 341.021 -4.91941 3.63049 0
M  V30 3642 H 345.195 -5.26863 4.55399 0
M  V30 3643 H 342.822 -5.5323 5.21384 0
M  V30 3644 N 344.397 -0.483516 -1.5 0
M  V30 3645 C 345.622 0.0667119 -2.07293 0
M  V30 3646 C 346.047 1.3164 -1.3436 0
M  V30 3647 O 345.405 1.76945 -0.394987 0
M  V30 3648 C 345.453 0.321126 -3.59167 0
M  V30 3649 O 344.557 1.39927 -3.87936 0
M  V30 3650 H 343.898 -0.0184758 -0.663743 0
M  V30 3651 H 346.428 -0.678125 -1.93035 0
M  V30 3652 H 346.438 0.557906 -4.04168 0
M  V30 3653 H 345.113 -0.592007 -4.11665 0
M  V30 3654 H 343.69 1.14882 -3.54763 0
M  V30 3655 N 345.875 1.56104 -0.216619 0
M  V30 3656 C 347.121 1.98466 0.417033 0
M  V30 3657 C 347.454 1.10403 1.59765 0
M  V30 3658 O 346.729 0.160632 1.93836 0
M  V30 3659 C 347.012 3.49769 0.85637 0
M  V30 3660 C 346.865 4.48606 -0.327546 0
M  V30 3661 C 348.184 4.05339 1.7143 0
M  V30 3662 H 345.303 0.721551 0.150112 0
M  V30 3663 H 347.945 1.87423 -0.311864 0
M  V30 3664 H 346.095 3.5931 1.47745 0
M  V30 3665 H 347.767 4.5108 -0.965618 0
M  V30 3666 H 346.01 4.22682 -0.975805 0
M  V30 3667 H 346.681 5.51995 0.0227149 0
M  V30 3668 H 349.157 3.98712 1.19031 0
M  V30 3669 H 348.033 5.11533 1.99061 0
M  V30 3670 H 348.294 3.51918 2.67593 0
M  V30 3671 N 347.353 -0.0568162 1.57498 0
M  V30 3672 C 348.63 -0.786954 1.79071 0
M  V30 3673 C 349.01 -1.95028 0.80792 0
M  V30 3674 O 348.358 -2.27968 -0.155858 0
M  V30 3675 C 348.568 -1.24594 3.26002 0
M  V30 3676 C 349.916 -1.67323 3.90241 0
M  V30 3677 O 350.94 -1.34124 3.29984 0
M  V30 3678 O 349.799 -2.28842 4.9628 0
M  V30 3679 H 346.893 -0.378262 0.735423 0
M  V30 3680 H 349.439 -0.035734 1.69662 0
M  V30 3681 H 348.211 -0.41423 3.89101 0
M  V30 3682 H 347.834 -2.05803 3.40192 0
M  V30 3683 N 348.832 -1.54138 -0.328536 0
M  V30 3684 C 349.764 -1.79509 -1.4251 0
M  V30 3685 C 350.777 -0.67688 -1.48061 0
M  V30 3686 O 351.966 -0.953898 -1.50874 0
M  V30 3687 C 349.066 -1.89337 -2.81078 0
M  V30 3688 C 348.239 -3.19443 -2.98789 0
M  V30 3689 C 347.298 -3.20036 -4.17688 0
M  V30 3690 O 346.324 -3.93697 -4.11086 0
M  V30 3691 N 347.526 -2.43467 -5.26976 0
M  V30 3692 H 350.291 -2.74139 -1.21111 0
M  V30 3693 H 347.852 -1.53373 -0.518499 0
M  V30 3694 H 349.844 -1.87167 -3.58818 0
M  V30 3695 H 348.414 -1.01826 -2.95551 0
M  V30 3696 H 347.634 -3.34614 -2.08391 0
M  V30 3697 H 348.922 -4.05354 -3.07515 0
M  V30 3698 H 348.32 -1.83201 -5.35214 0
M  V30 3699 H 346.877 -2.4708 -6.03154 0
M  V30 3700 N 350.31 0.590341 -1.46126 0
M  V30 3701 C 351.22 1.72793 -1.58681 0
M  V30 3702 C 352.236 1.67516 -0.470566 0
M  V30 3703 O 353.412 1.87562 -0.733642 0
M  V30 3704 C 350.477 3.09287 -1.5666 0
M  V30 3705 C 349.538 3.25886 -2.79458 0
M  V30 3706 C 348.771 4.55869 -2.77524 0
M  V30 3707 O 348.994 5.3928 -1.85832 0
M  V30 3708 O 347.928 4.75552 -3.68964 0
M  V30 3709 H 351.754 1.65149 -2.54872 0
M  V30 3710 H 349.339 0.756486 -1.28832 0
M  V30 3711 H 351.221 3.90577 -1.58202 0
M  V30 3712 H 349.896 3.17385 -0.636271 0
M  V30 3713 H 348.803 2.44119 -2.83472 0
M  V30 3714 H 350.136 3.22675 -3.71674 0
M  V30 3715 N 351.788 1.33704 0.83433 0
M  V30 3716 C 353.036 1.25169 1.58673 0
M  V30 3717 C 353.357 -0.18127 1.94156 0
M  V30 3718 O 352.627 -1.11113 1.6134 0
M  V30 3719 H 351.207 0.4603 0.58833 0
M  V30 3720 H 353.869 1.67478 0.996847 0
M  V30 3721 H 352.965 1.84856 2.51465 0
M  V30 3722 N 353.266 -1.05314 1.17247 0
M  V30 3723 C 354.512 -1.78557 0.961513 0
M  V30 3724 C 354.845 -1.87419 -0.508697 0
M  V30 3725 O 354.12 -1.37307 -1.37757 0
M  V30 3726 C 354.403 -3.22514 1.60176 0
M  V30 3727 C 354.256 -3.21673 3.14399 0
M  V30 3728 C 355.575 -4.20318 1.30463 0
M  V30 3729 H 352.694 -0.6482 0.350723 0
M  V30 3730 H 355.336 -1.23102 1.44727 0
M  V30 3731 H 353.486 -3.69867 1.18871 0
M  V30 3732 H 355.158 -2.82405 3.64753 0
M  V30 3733 H 353.401 -2.60048 3.47214 0
M  V30 3734 H 354.072 -4.23271 3.54324 0
M  V30 3735 H 356.548 -3.81454 1.66229 0
M  V30 3736 H 355.424 -5.19289 1.77848 0
M  V30 3737 H 355.685 -4.41526 0.22521 0
M  V30 3738 N 354.744 -0.972509 -1.24016 0
M  V30 3739 C 355.974 -0.653853 -1.9598 0
M  V30 3740 C 356.382 0.781801 -1.72292 0
M  V30 3741 O 355.725 1.53677 -1.00644 0
M  V30 3742 C 355.787 -0.854608 -3.49194 0
M  V30 3743 C 355.451 -2.27082 -3.96589 0
M  V30 3744 C 356.448 -3.24892 -4.05883 0
M  V30 3745 C 354.133 -2.5998 -4.29786 0
M  V30 3746 C 356.127 -4.53684 -4.47716 0
M  V30 3747 C 353.814 -3.88997 -4.71301 0
M  V30 3748 C 354.812 -4.85661 -4.80232 0
M  V30 3749 O 354.5 -6.12376 -5.20818 0
M  V30 3750 H 354.232 -0.242572 -0.630979 0
M  V30 3751 H 356.786 -1.30431 -1.58673 0
M  V30 3752 H 355.016 -0.146985 -3.86421 0
M  V30 3753 H 356.705 -0.534311 -4.02368 0
M  V30 3754 H 357.471 -3.00805 -3.80449 0
M  V30 3755 H 353.35 -1.85457 -4.22051 0
M  V30 3756 H 356.894 -5.29135 -4.54601 0
M  V30 3757 H 352.791 -4.12882 -4.96184 0
M  V30 3758 H 353.559 -6.16013 -5.38953 0
M  V30 3759 N 356.222 1.38976 -0.743202 0
M  V30 3760 C 357.469 2.00343 -0.294752 0
M  V30 3761 C 357.797 1.58983 1.12047 0
M  V30 3762 O 357.052 0.813809 1.77977 0
M  V30 3763 C 357.351 3.55647 -0.353517 0
M  V30 3764 C 357.017 4.16685 -1.72292 0
M  V30 3765 C 355.679 4.3307 -2.09771 0
M  V30 3766 C 358.031 4.50464 -2.62168 0
M  V30 3767 C 355.359 4.80526 -3.36618 0
M  V30 3768 C 357.711 4.99332 -3.88395 0
M  V30 3769 C 356.375 5.13924 -4.25956 0
M  V30 3770 H 355.645 0.733108 -0.107857 0
M  V30 3771 H 358.292 1.6618 -0.951651 0
M  V30 3772 H 356.597 3.89884 0.386954 0
M  V30 3773 H 358.294 4.00998 0.0117269 0
M  V30 3774 H 354.884 4.04339 -1.42155 0
M  V30 3775 H 359.068 4.37416 -2.3448 0
M  V30 3776 H 354.324 4.90008 -3.65653 0
M  V30 3777 H 358.498 5.2444 -4.58187 0
M  V30 3778 H 356.125 5.50457 -5.2431 0
M  V30 3779 N 357.7 0.491464 1.49741 0
M  V30 3780 C 358.948 -0.0563141 2.02022 0
M  V30 3781 C 359.269 -1.38363 1.37407 0
M  V30 3782 O 358.539 -1.88702 0.526166 0
M  V30 3783 H 357.119 -0.0238014 0.746621 0
M  V30 3784 H 359.781 0.646533 1.83864 0
M  V30 3785 H 358.877 -0.192967 3.11503 0
M  V30 3786 N 359.178 -1.55987 0.224894 0
M  V30 3787 C 360.11 -2.17722 -0.716224 0
M  V30 3788 C 361.123 -1.14723 -1.15509 0
M  V30 3789 O 362.312 -1.41688 -1.08567 0
M  V30 3790 C 359.412 -2.74873 -1.98238 0
M  V30 3791 C 358.585 -4.03074 -1.69853 0
M  V30 3792 C 357.644 -4.44757 -2.81208 0
M  V30 3793 O 356.67 -5.11587 -2.49534 0
M  V30 3794 N 357.872 -4.10716 -4.10235 0
M  V30 3795 H 360.637 -2.99109 -0.188123 0
M  V30 3796 H 358.198 -1.6184 0.0440123 0
M  V30 3797 H 360.19 -2.99727 -2.7193 0
M  V30 3798 H 358.76 -1.9777 -2.42086 0
M  V30 3799 H 357.98 -3.86041 -0.797875 0
M  V30 3800 H 359.268 -4.86701 -1.48324 0
M  V30 3801 H 358.666 -3.57019 -4.38809 0
M  V30 3802 H 357.223 -4.40455 -4.80461 0
M  V30 3803 N 360.656 0.0484629 -1.57525 0
M  V30 3804 C 361.896 0.748196 -1.90214 0
M  V30 3805 C 362.26 1.73545 -0.821347 0
M  V30 3806 O 363.461 2.48201 -1.03198 0
M  V30 3807 C 361.732 1.41727 -3.28098 0
M  V30 3808 S 363.291 2.14884 -3.82584 0
M  V30 3809 H 360.109 0.248307 -0.666232 0
M  V30 3810 H 362.711 0.00343188 -1.955 0
M  V30 3811 H 361.415 0.685244 -4.04639 0
M  V30 3812 H 360.946 2.20099 -3.26068 0
M  V30 3813 H 362.961 3.41755 -3.59747 0
M  V30 3814 N 362.134 1.5431 0.320358 0
M  V30 3815 C 363.359 1.76954 1.08175 0
M  V30 3816 C 363.784 0.518193 1.80821 0
M  V30 3817 O 363.142 -0.530411 1.73368 0
M  V30 3818 C 363.19 2.96451 2.05303 0
M  V30 3819 O 362.294 2.68221 3.13259 0
M  V30 3820 H 361.635 0.586275 0.311733 0
M  V30 3821 H 364.165 2.01342 0.363676 0
M  V30 3822 H 364.175 3.23887 2.48116 0
M  V30 3823 H 362.85 3.87196 1.51829 0
M  V30 3824 H 361.427 2.51744 2.75099 0
M  V30 3825 N 363.613 -0.582584 1.46437 0
M  V30 3826 C 364.523 -1.71949 1.59595 0
M  V30 3827 C 365.539 -1.67264 0.479443 0
M  V30 3828 O 366.715 -1.87171 0.743579 0
M  V30 3829 C 363.78 -3.08452 1.58298 0
M  V30 3830 C 362.841 -3.244 2.81182 0
M  V30 3831 C 362.074 -4.54391 2.79937 0
M  V30 3832 O 362.297 -5.38287 1.8869 0
M  V30 3833 O 361.231 -4.73588 3.71481 0
M  V30 3834 H 365.057 -1.63795 2.55744 0
M  V30 3835 H 362.642 -0.749643 1.29231 0
M  V30 3836 H 364.524 -3.89732 1.60271 0
M  V30 3837 H 363.199 -3.17043 0.653094 0
M  V30 3838 H 362.106 -2.42613 2.84763 0
M  V30 3839 H 363.439 -3.20699 3.7338 0
M  V30 3840 N 365.091 -1.34144 -0.827227 0
M  V30 3841 C 366.021 -1.28005 -1.95287 0
M  V30 3842 C 367.002 -0.158321 -1.69362 0
M  V30 3843 O 368.187 -0.349987 -1.9102 0
M  V30 3844 C 365.317 -1.03036 -3.31664 0
M  V30 3845 C 364.271 -2.11628 -3.72019 0
M  V30 3846 C 363.597 -1.71854 -5.0633 0
M  V30 3847 C 364.897 -3.53417 -3.8457 0
M  V30 3848 H 366.591 -2.22187 -2.00682 0
M  V30 3849 H 364.137 -1.0696 -0.964135 0
M  V30 3850 H 366.09 -0.973863 -4.09993 0
M  V30 3851 H 364.814 -0.0529391 -3.26557 0
M  V30 3852 H 363.473 -2.16339 -2.95961 0
M  V30 3853 H 363.121 -0.727841 -4.97706 0
M  V30 3854 H 362.821 -2.44531 -5.34302 0
M  V30 3855 H 364.345 -1.67692 -5.87122 0
M  V30 3856 H 365.759 -3.51142 -4.5318 0
M  V30 3857 H 364.156 -4.24679 -4.2399 0
M  V30 3858 H 365.226 -3.91072 -2.86689 0
M  V30 3859 N 366.569 1.04691 -1.17803 0
M  V30 3860 C 367.809 1.79352 -0.980423 0
M  V30 3861 C 368.173 1.85853 0.481958 0
M  V30 3862 O 369.374 2.56656 0.798809 0
M  V30 3863 C 367.645 3.19088 -1.6099 0
M  V30 3864 S 369.204 4.10164 -1.55918 0
M  V30 3865 H 366.022 0.617631 -0.352211 0
M  V30 3866 H 368.624 1.25575 -1.49837 0
M  V30 3867 H 367.328 3.11962 -2.66661 0
M  V30 3868 H 366.859 3.77941 -1.09197 0
M  V30 3869 H 368.874 4.92907 -0.570685 0
M  V30 3870 N 368.047 0.979072 1.23499 0
M  V30 3871 C 369.295 0.645941 1.91499 0
M  V30 3872 C 369.616 -0.822948 1.76784 0
M  V30 3873 O 368.886 -1.58854 1.14639 0
M  V30 3874 H 367.466 0.235919 0.708767 0
M  V30 3875 H 370.128 1.2426 1.50152 0
M  V30 3876 H 369.224 0.896411 2.9895 0
M  V30 3877 N 369.525 -1.3858 0.750561 0
M  V30 3878 C 370.774 -1.99424 0.302172 0
M  V30 3879 C 371.087 -1.60254 -1.12152 0
M  V30 3880 O 372.293 -2.14046 -1.67023 0
M  V30 3881 C 370.749 -3.56558 0.489307 0
M  V30 3882 C 370.357 -4.04682 1.92189 0
M  V30 3883 C 372.101 -4.24374 0.103478 0
M  V30 3884 C 370.008 -5.54446 2.05775 0
M  V30 3885 H 368.938 -0.746046 0.10923 0
M  V30 3886 H 371.589 -1.58383 0.92667 0
M  V30 3887 H 369.971 -3.95472 -0.204329 0
M  V30 3888 H 371.145 -3.77065 2.64875 0
M  V30 3889 H 369.46 -3.4958 2.26236 0
M  V30 3890 H 372.057 -5.34384 0.183787 0
M  V30 3891 H 372.4 -4.05468 -0.943481 0
M  V30 3892 H 372.933 -3.90688 0.748854 0
M  V30 3893 H 369.672 -5.78252 3.08714 0
M  V30 3894 H 369.192 -5.83816 1.37546 0
M  V30 3895 H 370.871 -6.20099 1.84626 0
M  V30 3896 N 371.003 -0.499398 -1.49478 0
M  V30 3897 C 371.951 0.293604 -2.3074 0
M  V30 3898 C 372.945 0.96427 -1.39277 0
M  V30 3899 O 374.151 0.892141 -1.56336 0
M  V30 3900 H 370.526 0.113541 -0.743379 0
M  V30 3901 H 372.497 -0.411772 -2.95545 0
M  V30 3902 C 371.246 1.3462 -3.20582 0
M  V30 3903 H 370.569 0.83954 -3.90886 0
M  V30 3904 H 372.009 1.87308 -3.80384 0
M  V30 3905 C 370.468 2.36351 -2.40083 0
M  V30 3906 O 370.998 3.422 -2.10385 0
M  V30 3907 N 369.204 2.0878 -2.02137 0
M  V30 3908 H 368.751 1.22723 -2.26488 0
M  V30 3909 H 368.709 2.77075 -1.48583 0
M  V30 3910 N 372.481 1.55866 -0.233164 0
M  V30 3911 C 373.431 2.17442 0.685774 0
M  V30 3912 C 374.415 1.12617 1.14918 0
M  V30 3913 O 375.607 1.3857 1.10124 0
M  V30 3914 C 372.736 2.86685 1.88856 0
M  V30 3915 C 371.822 3.98749 1.4443 0
M  V30 3916 N 372.213 5.00744 0.713364 0
M  V30 3917 C 370.511 4.11052 1.73068 0
M  V30 3918 C 371.212 5.79673 0.485205 0
M  V30 3919 N 370.188 5.33454 1.04536 0
M  V30 3920 H 373.99 2.93659 0.119022 0
M  V30 3921 H 371.504 1.62362 -0.0348995 0
M  V30 3922 H 373.501 3.29218 2.55776 0
M  V30 3923 H 372.161 2.11967 2.45967 0
M  V30 3924 H 373.172 5.16613 0.364861 0
M  V30 3925 H 369.849 3.47495 2.31416 0
M  V30 3926 H 371.239 6.71829 -0.097365 0
M  V30 3927 N 373.959 -0.0401083 1.57549 0
M  V30 3928 C 374.922 -1.02871 2.04817 0
M  V30 3929 C 375.922 -1.29708 0.950388 0
M  V30 3930 O 377.112 -1.24897 1.21435 0
M  V30 3931 C 374.244 -2.36443 2.45576 0
M  V30 3932 H 375.437 -0.620631 2.93408 0
M  V30 3933 H 372.99 -0.286667 1.53649 0
M  V30 3934 H 373.725 -2.82021 1.60108 0
M  V30 3935 H 373.51 -2.18296 3.25713 0
M  V30 3936 H 375 -3.07441 2.82612 0
M  V30 3937 N 375.437 -1.54477 -0.31217 0
M  V30 3938 C 376.667 -1.76948 -1.06645 0
M  V30 3939 C 377.075 -0.523593 -1.81811 0
M  V30 3940 O 376.418 0.51578 -1.76311 0
M  V30 3941 C 376.48 -2.91668 -2.10166 0
M  V30 3942 C 376.144 -4.30165 -1.54296 0
M  V30 3943 C 377.141 -5.10603 -0.978793 0
M  V30 3944 C 374.826 -4.76738 -1.58196 0
M  V30 3945 C 376.82 -6.3573 -0.461048 0
M  V30 3946 C 374.507 -6.01831 -1.06034 0
M  V30 3947 C 375.505 -6.81161 -0.500844 0
M  V30 3948 O 375.193 -8.03899 0.0128958 0
M  V30 3949 H 374.925 -0.594088 -0.322546 0
M  V30 3950 H 377.479 -2.02213 -0.360441 0
M  V30 3951 H 375.709 -2.62001 -2.84416 0
M  V30 3952 H 377.398 -3.01817 -2.71406 0
M  V30 3953 H 378.164 -4.75771 -0.941651 0
M  V30 3954 H 374.043 -4.15027 -2.00683 0
M  V30 3955 H 377.587 -6.97596 -0.0236894 0
M  V30 3956 H 373.484 -6.36152 -1.09459 0
M  V30 3957 H 374.252 -8.18437 -0.101457 0
M  V30 3958 N 376.915 0.57481 -1.46744 0
M  V30 3959 C 377.848 1.69827 -1.52427 0
M  V30 3960 C 378.826 1.58151 -0.377744 0
M  V30 3961 O 380.01 1.79257 -0.58303 0
M  V30 3962 C 377.137 3.07943 -1.41027 0
M  V30 3963 C 376.183 3.38116 -2.59961 0
M  V30 3964 S 377.016 3.29313 -4.22272 0
M  V30 3965 C 378.172 4.69953 -4.13394 0
M  V30 3966 H 378.405 1.64748 -2.47478 0
M  V30 3967 H 375.938 0.754203 -1.34726 0
M  V30 3968 H 377.896 3.87619 -1.35137 0
M  V30 3969 H 376.557 3.10504 -0.473909 0
M  V30 3970 H 375.75 4.38762 -2.47999 0
M  V30 3971 H 375.352 2.66024 -2.62882 0
M  V30 3972 H 377.644 5.60517 -3.80562 0
M  V30 3973 H 378.587 4.86972 -5.14066 0
M  V30 3974 H 378.995 4.47174 -3.44522 0
M  V30 3975 N 378.394 1.34581 0.820102 0
M  V30 3976 C 379.805 1.24298 1.39309 0
M  V30 3977 C 380.156 -0.130351 1.95767 0
M  V30 3978 O 379.281 -1.0308 1.90272 0
M  V30 3979 C 379.876 2.25054 2.53251 0
M  V30 3980 C 378.435 2.18552 3.0645 0
M  V30 3981 C 377.582 2.11503 1.79337 0
M  V30 3982 H 380.533 1.45906 0.624262 0
M  V30 3983 H 380.554 1.86917 3.31425 0
M  V30 3984 H 380.066 3.24996 2.1213 0
M  V30 3985 H 378.167 1.21976 3.52069 0
M  V30 3986 H 378.28 3.0993 3.65349 0
M  V30 3987 H 376.644 1.57268 2.00347 0
M  V30 3988 H 377.427 3.13284 1.40386 0
M  V30 3989 N 379.872 -1.04064 1.18357 0
M  V30 3990 C 381.121 -1.76662 0.973313 0
M  V30 3991 C 381.434 -1.89154 -0.497991 0
M  V30 3992 O 382.64 -2.58606 -0.826762 0
M  V30 3993 C 381.096 -3.17624 1.69242 0
M  V30 3994 C 380.704 -3.13225 3.20303 0
M  V30 3995 C 382.448 -3.946 1.56497 0
M  V30 3996 C 380.355 -4.49046 3.84853 0
M  V30 3997 H 379.285 -0.662214 0.36054 0
M  V30 3998 H 381.936 -1.16553 1.41731 0
M  V30 3999 H 380.318 -3.78129 1.1762 0
M  V30 4000 H 381.492 -2.62172 3.78949 0
M  V30 4001 H 379.807 -2.49749 3.33189 0
M  V30 4002 H 382.404 -4.95042 2.02084 0
M  V30 4003 H 382.747 -4.13074 0.517243 0
M  V30 4004 H 383.28 -3.4067 2.05399 0
M  V30 4005 H 380.019 -4.35777 4.89672 0
M  V30 4006 H 379.539 -5.00203 3.30994 0
M  V30 4007 H 381.218 -5.17961 3.87718 0
M  V30 4008 N 381.35 -0.985608 -1.22978 0
M  V30 4009 C 382.596 -0.65836 -1.91816 0
M  V30 4010 C 382.929 0.806692 -1.76653 0
M  V30 4011 O 382.204 1.58252 -1.13078 0
M  V30 4012 C 382.487 -1.056 -3.44268 0
M  V30 4013 C 382.34 -2.57906 -3.68516 0
M  V30 4014 C 383.659 -0.603781 -4.35939 0
M  V30 4015 H 380.778 -0.24065 -0.696604 0
M  V30 4016 H 383.42 -1.22783 -1.44998 0
M  V30 4017 H 381.57 -0.571445 -3.84274 0
M  V30 4018 H 383.242 -3.13976 -3.3796 0
M  V30 4019 H 381.485 -3.00305 -3.13048 0
M  V30 4020 H 382.156 -2.80779 -4.75255 0
M  V30 4021 H 384.632 -1.01987 -4.03408 0
M  V30 4022 H 383.508 -0.910383 -5.41298 0
M  V30 4023 H 383.769 0.495761 -4.39312 0
M  V30 4024 N 382.828 1.3818 -0.7579 0
M  V30 4025 C 384.074 2.00316 -0.316453 0
M  V30 4026 C 384.407 1.60026 1.10025 0
M  V30 4027 O 383.682 0.839835 1.75434 0
M  V30 4028 C 383.965 3.57349 -0.444245 0
M  V30 4029 C 383.818 4.07591 -1.90236 0
M  V30 4030 C 385.137 4.3981 0.1598 0
M  V30 4031 H 382.256 0.727741 -0.116459 0
M  V30 4032 H 384.898 1.6406 -0.958352 0
M  V30 4033 H 383.048 3.88365 0.102233 0
M  V30 4034 H 384.72 3.87199 -2.50748 0
M  V30 4035 H 382.963 3.60297 -2.41595 0
M  V30 4036 H 383.634 5.16677 -1.94291 0
M  V30 4037 H 386.11 4.14971 -0.306314 0
M  V30 4038 H 384.986 5.48885 0.0401675 0
M  V30 4039 H 385.247 4.24102 1.24859 0
M  V30 4040 N 384.306 0.507319 1.49211 0
M  V30 4041 C 385.253 -0.267728 2.29242 0
M  V30 4042 C 386.223 -0.954609 1.35928 0
M  V30 4043 O 387.408 -0.960046 1.64887 0
M  V30 4044 C 384.548 -1.32243 3.18756 0
M  V30 4045 C 383.661 -0.64669 4.27132 0
M  V30 4046 C 382.796 -1.68238 5.03855 0
M  V30 4047 C 381.835 -0.98885 6.0406 0
M  V30 4048 N 380.972 -1.96903 6.73924 0
M  V30 4049 H 385.812 0.420968 2.95012 0
M  V30 4050 H 383.349 0.219443 1.45454 0
M  V30 4051 H 385.307 -1.94599 3.69036 0
M  V30 4052 H 383.937 -1.97981 2.54958 0
M  V30 4053 H 382.989 0.0902926 3.80293 0
M  V30 4054 H 384.301 -0.101058 4.98698 0
M  V30 4055 H 383.455 -2.38081 5.58034 0
M  V30 4056 H 382.194 -2.26187 4.32077 0
M  V30 4057 H 381.199 -0.276222 5.49106 0
M  V30 4058 H 382.424 -0.415767 6.77826 0
M  V30 4059 H 380.37 -2.53803 6.04913 0
M  V30 4060 H 380.287 -1.47423 7.41487 0
M  V30 4061 H 381.555 -2.66015 7.32705 0
M  V30 4062 N 385.784 -1.5574 0.241426 0
M  V30 4063 C 386.747 -2.19877 -0.647063 0
M  V30 4064 C 387.747 -1.16642 -1.10686 0
M  V30 4065 O 388.937 -1.41757 -1.01245 0
M  V30 4066 C 386.069 -2.83797 -1.88871 0
M  V30 4067 H 387.262 -2.99772 -0.087574 0
M  V30 4068 H 384.815 -1.56298 -0.00813574 0
M  V30 4069 H 385.55 -2.07824 -2.48957 0
M  V30 4070 H 385.335 -3.59414 -1.56728 0
M  V30 4071 H 386.825 -3.32898 -2.52129 0
M  V30 4072 N 387.262 0.0317525 -1.57568 0
M  V30 4073 C 388.508 0.724175 -1.8943 0
M  V30 4074 C 388.841 1.75149 -0.838836 0
M  V30 4075 O 388.116 1.93948 0.146422 0
M  V30 4076 C 388.399 1.39615 -3.31933 0
M  V30 4077 C 388.252 0.382537 -4.4817 0
M  V30 4078 C 389.571 2.33084 -3.73309 0
M  V30 4079 H 386.69 0.261797 -0.688935 0
M  V30 4080 H 389.332 -0.013017 -1.89996 0
M  V30 4081 H 387.482 2.02451 -3.31581 0
M  V30 4082 H 389.154 -0.243689 -4.60656 0
M  V30 4083 H 387.397 -0.29844 -4.32772 0
M  V30 4084 H 388.068 0.891145 -5.44759 0
M  V30 4085 H 390.544 1.80295 -3.7501 0
M  V30 4086 H 389.42 2.77084 -4.73831 0
M  V30 4087 H 389.681 3.19643 -3.05419 0
M  V30 4088 N 388.74 1.54641 0.303973 0
M  V30 4089 C 389.965 1.78092 1.06292 0
M  V30 4090 C 390.39 0.537342 1.80262 0
M  V30 4091 O 389.748 -0.511993 1.7392 0
M  V30 4092 C 389.796 2.98612 2.02147 0
M  V30 4093 O 388.9 2.71528 3.10397 0
M  V30 4094 H 388.241 0.589548 0.305497 0
M  V30 4095 H 390.771 2.01716 0.3423 0
M  V30 4096 H 390.781 3.265 2.44667 0
M  V30 4097 H 389.456 3.88785 1.47714 0
M  V30 4098 H 388.033 2.54648 2.72413 0
M  V30 4099 N 390.218 -0.567019 1.47046 0
M  V30 4100 C 391.15 -1.68985 1.54844 0
M  V30 4101 C 392.163 -1.56869 0.435431 0
M  V30 4102 O 393.352 -1.64006 0.70457 0
M  V30 4103 C 390.452 -3.07373 1.42742 0
M  V30 4104 C 389.625 -3.45339 2.6844 0
M  V30 4105 C 388.684 -4.62849 2.50314 0
M  V30 4106 O 387.71 -4.67922 3.24095 0
M  V30 4107 N 388.912 -5.58726 1.57499 0
M  V30 4108 H 391.677 -1.62745 2.51663 0
M  V30 4109 H 389.238 -0.753411 1.43302 0
M  V30 4110 H 391.23 -3.83803 1.28365 0
M  V30 4111 H 389.8 -3.07893 0.540445 0
M  V30 4112 H 389.02 -2.58455 2.97648 0
M  V30 4113 H 390.308 -3.67476 3.51907 0
M  V30 4114 H 389.706 -5.57376 0.966876 0
M  V30 4115 H 388.263 -6.34523 1.49078 0
M  V30 4116 N 391.696 -1.35014 -0.812953 0
M  V30 4117 C 392.606 -1.2951 -1.95613 0
M  V30 4118 C 393.622 -0.20107 -1.72834 0
M  V30 4119 O 394.798 -0.42932 -1.96771 0
M  V30 4120 C 391.863 -1.06033 -3.30088 0
M  V30 4121 C 390.924 -2.24688 -3.65805 0
M  V30 4122 C 390.157 -2.02322 -4.93864 0
M  V30 4123 O 390.38 -0.986464 -5.61805 0
M  V30 4124 O 389.314 -2.89525 -5.27692 0
M  V30 4125 H 393.14 -2.25705 -2.03202 0
M  V30 4126 H 390.725 -1.15321 -0.949811 0
M  V30 4127 H 392.607 -0.94763 -4.10607 0
M  V30 4128 H 391.282 -0.128852 -3.23443 0
M  V30 4129 H 390.189 -2.41521 -2.85689 0
M  V30 4130 H 391.522 -3.16261 -3.77147 0
M  V30 4131 N 393.175 1.03435 -1.18907 0
M  V30 4132 C 394.122 2.11591 -0.921837 0
M  V30 4133 C 395.092 1.65499 0.141226 0
M  V30 4134 O 396.277 1.908 0.000242829 0
M  V30 4135 C 393.417 3.42012 -0.460616 0
M  V30 4136 C 392.53 4.01682 -1.58982 0
M  V30 4137 C 391.665 5.20091 -1.08069 0
M  V30 4138 C 390.704 5.71805 -2.18416 0
M  V30 4139 N 389.841 6.81494 -1.68849 0
M  V30 4140 H 394.681 2.33787 -1.8479 0
M  V30 4141 H 392.218 1.1467 -0.921373 0
M  V30 4142 H 394.176 4.16834 -0.174642 0
M  V30 4143 H 392.806 3.19944 0.428467 0
M  V30 4144 H 391.858 3.24127 -1.99113 0
M  V30 4145 H 393.17 4.36084 -2.4214 0
M  V30 4146 H 392.324 6.02051 -0.749615 0
M  V30 4147 H 391.063 4.87209 -0.218771 0
M  V30 4148 H 390.068 4.88461 -2.5236 0
M  V30 4149 H 391.293 6.06728 -3.05054 0
M  V30 4150 H 389.239 6.50475 -0.849572 0
M  V30 4151 H 389.156 7.14994 -2.45601 0
M  V30 4152 H 390.424 7.67063 -1.38689 0
M  V30 4153 N 394.653 0.992116 1.22453 0
M  V30 4154 C 395.883 0.684949 1.94915 0
M  V30 4155 C 396.291 -0.754292 1.73514 0
M  V30 4156 O 395.634 -1.52056 1.03076 0
M  V30 4157 C 395.696 0.910054 3.47791 0
M  V30 4158 C 395.36 2.33363 3.92926 0
M  V30 4159 C 396.357 3.31308 4.00663 0
M  V30 4160 C 394.042 2.66785 4.25595 0
M  V30 4161 C 396.036 4.6075 4.40441 0
M  V30 4162 C 393.723 3.96446 4.65053 0
M  V30 4163 C 394.721 4.9324 4.72444 0
M  V30 4164 O 394.409 6.20584 5.1101 0
M  V30 4165 H 394.141 0.25258 0.62704 0
M  V30 4166 H 396.695 1.32939 1.56577 0
M  V30 4167 H 394.925 0.208443 3.86138 0
M  V30 4168 H 396.614 0.598257 4.01467 0
M  V30 4169 H 397.38 3.0682 3.75615 0
M  V30 4170 H 393.259 1.92148 4.19047 0
M  V30 4171 H 396.803 5.363 4.46126 0
M  V30 4172 H 392.7 4.20724 4.89552 0
M  V30 4173 H 393.468 6.24509 5.29085 0
M  V30 4174 N 396.131 -1.37776 0.765217 0
M  V30 4175 C 397.041 -2.34135 0.147666 0
M  V30 4176 C 398.057 -1.59854 -0.687215 0
M  V30 4177 O 399.233 -1.91983 -0.608659 0
M  V30 4178 C 396.298 -3.3901 -0.72617 0
M  V30 4179 C 395.359 -4.2912 0.124417 0
M  V30 4180 C 394.592 -5.28986 -0.707807 0
M  V30 4181 O 394.815 -5.36205 -1.94525 0
M  V30 4182 O 393.749 -6.01779 -0.12046 0
M  V30 4183 H 397.575 -2.88664 0.943758 0
M  V30 4184 H 395.16 -1.39824 0.526277 0
M  V30 4185 H 397.042 -4.03195 -1.22524 0
M  V30 4186 H 395.717 -2.86819 -1.50056 0
M  V30 4187 H 394.624 -3.68057 0.669696 0
M  V30 4188 H 395.957 -4.84598 0.861736 0
M  V30 4189 N 397.609 -0.515225 -1.4894 0
M  V30 4190 C 398.572 0.244681 -2.2789 0
M  V30 4191 C 399.572 0.881166 -1.34507 0
M  V30 4192 O 400.762 0.743497 -1.57537 0
M  V30 4193 C 397.894 1.35247 -3.12923 0
M  V30 4194 H 399.087 -0.448289 -2.96531 0
M  V30 4195 H 396.64 -0.270656 -1.53939 0
M  V30 4196 H 397.375 2.07916 -2.48881 0
M  V30 4197 H 397.16 0.901374 -3.81599 0
M  V30 4198 H 398.65 1.88737 -3.72516 0
M  V30 4199 N 399.087 1.5561 -0.249682 0
M  V30 4200 C 400.333 2.00044 0.367952 0
M  V30 4201 C 400.688 1.1349 1.55363 0
M  V30 4202 O 399.981 0.191079 1.90645 0
M  V30 4203 C 400.175 3.4775 0.824887 0
M  V30 4204 C 400.004 4.48596 -0.314973 0
M  V30 4205 C 398.774 4.99077 -0.790555 0
M  V30 4206 C 400.972 5.0144 -1.14291 0
M  V30 4207 N 398.954 5.83675 -1.90254 0
M  V30 4208 C 400.325 5.83236 -2.10322 0
M  V30 4209 C 402.38 4.83736 -1.17916 0
M  V30 4210 C 401.083 6.49217 -3.09692 0
M  V30 4211 C 403.109 5.50497 -2.16117 0
M  V30 4212 C 402.471 6.32084 -3.10884 0
M  V30 4213 H 398.57 0.775512 0.100522 0
M  V30 4214 H 401.154 1.91193 -0.367896 0
M  V30 4215 H 399.325 3.56994 1.53002 0
M  V30 4216 H 401.057 3.79056 1.4177 0
M  V30 4217 H 397.812 4.72119 -0.374218 0
M  V30 4218 H 398.236 6.30671 -2.46137 0
M  V30 4219 H 402.878 4.20286 -0.460352 0
M  V30 4220 H 400.596 7.11832 -3.8252 0
M  V30 4221 H 404.182 5.38752 -2.19631 0
M  V30 4222 H 403.062 6.82832 -3.8563 0
M  V30 4223 N 400.565 -0.0233959 1.57583 0
M  V30 4224 C 401.495 -1.02162 2.09965 0
M  V30 4225 C 402.476 -1.3735 1.00344 0
M  V30 4226 O 403.661 -1.46135 1.27899 0
M  V30 4227 C 400.791 -2.32081 2.58371 0
M  V30 4228 C 399.745 -2.1112 3.72307 0
M  V30 4229 C 399.071 -3.46848 4.06941 0
M  V30 4230 C 400.371 -1.49276 5.00514 0
M  V30 4231 H 402.065 -0.585557 2.93618 0
M  V30 4232 H 399.611 -0.280218 1.41247 0
M  V30 4233 H 401.564 -3.02249 2.93639 0
M  V30 4234 H 400.288 -2.77758 1.71808 0
M  V30 4235 H 398.947 -1.43384 3.37397 0
M  V30 4236 H 398.595 -3.90184 3.17436 0
M  V30 4237 H 398.295 -3.33646 4.83688 0
M  V30 4238 H 399.819 -4.18369 4.44747 0
M  V30 4239 H 401.233 -2.09368 5.33702 0
M  V30 4240 H 399.63 -1.46632 5.8191 0
M  V30 4241 H 400.7 -0.459217 4.82721 0
M  V30 4242 N 402.043 -1.548 -0.295768 0
M  V30 4243 C 403.006 -1.85363 -1.34808 0
M  V30 4244 C 404.006 -0.726817 -1.43436 0
M  V30 4245 O 405.196 -0.995088 -1.42981 0
M  V30 4246 C 402.328 -2.03859 -2.73229 0
M  V30 4247 H 403.521 -2.7941 -1.08949 0
M  V30 4248 H 401.074 -1.46942 -0.532702 0
M  V30 4249 H 401.809 -1.12117 -3.04303 0
M  V30 4250 H 401.594 -2.8588 -2.68356 0
M  V30 4251 H 403.084 -2.28857 -3.49305 0
M  V30 4252 N 403.521 0.559213 -1.47345 0
M  V30 4253 C 404.769 1.31388 -1.53563 0
M  V30 4254 C 405.09 1.93985 -0.198678 0
M  V30 4255 O 404.36 1.79825 0.777167 0
M  V30 4256 H 402.94 0.487901 -0.565652 0
M  V30 4257 H 405.602 0.65315 -1.8363 0
M  V30 4258 H 404.698 2.10844 -2.30111 0
M  V30 4259 N 404.999 1.35443 0.805782 0
M  V30 4260 C 405.962 1.28301 1.89925 0
M  V30 4261 C 406.962 0.194285 1.59622 0
M  V30 4262 O 408.152 0.448036 1.6834 0
M  V30 4263 C 405.284 0.984997 3.2636 0
M  V30 4264 H 406.477 2.2553 1.97677 0
M  V30 4265 H 404.03 1.19979 1.00173 0
M  V30 4266 H 404.765 0.016603 3.24296 0
M  V30 4267 H 404.55 1.77269 3.4974 0
M  V30 4268 H 406.04 0.960651 4.064 0
M  V30 4269 N 406.477 -1.02803 1.19454 0
M  V30 4270 C 407.424 -2.11099 0.933046 0
M  V30 4271 C 408.394 -1.65571 -0.132447 0
M  V30 4272 O 409.579 -1.90797 0.00987576 0
M  V30 4273 C 406.719 -3.41763 0.478747 0
M  V30 4274 C 405.832 -4.00833 1.6111 0
M  V30 4275 C 404.967 -5.19511 1.10825 0
M  V30 4276 C 404.006 -5.70639 2.21445 0
M  V30 4277 N 403.143 -6.80589 1.72461 0
M  V30 4278 H 407.983 -2.32804 1.86028 0
M  V30 4279 H 405.52 -1.14179 0.927441 0
M  V30 4280 H 407.478 -4.16736 0.196745 0
M  V30 4281 H 406.108 -3.20166 -0.411493 0
M  V30 4282 H 405.16 -3.23066 2.00829 0
M  V30 4283 H 406.472 -4.34794 2.4445 0
M  V30 4284 H 405.626 -6.01645 0.781533 0
M  V30 4285 H 404.365 -4.87086 0.244606 0
M  V30 4286 H 403.37 -4.87116 2.54947 0
M  V30 4287 H 404.595 -6.05102 3.08267 0
M  V30 4288 H 402.541 -6.50016 0.884056 0
M  V30 4289 H 402.458 -7.13681 2.49389 0
M  V30 4290 H 403.726 -7.66317 1.42755 0
M  V30 4291 N 407.956 -0.998596 -1.21925 0
M  V30 4292 C 408.866 -0.562736 -2.27751 0
M  V30 4293 C 409.882 0.391203 -1.69545 0
M  V30 4294 O 411.058 0.256625 -1.99758 0
M  V30 4295 C 408.123 0.11012 -3.46525 0
M  V30 4296 C 407.184 -0.887495 -4.20026 0
M  V30 4297 C 406.417 -0.246654 -5.3313 0
M  V30 4298 O 406.64 0.958088 -5.62296 0
M  V30 4299 O 405.574 -0.954374 -5.94286 0
M  V30 4300 H 409.4 -1.44329 -2.67213 0
M  V30 4301 H 406.985 -0.767135 -1.28201 0
M  V30 4302 H 408.867 0.486756 -4.18579 0
M  V30 4303 H 407.542 0.965154 -3.08976 0
M  V30 4304 H 406.449 -1.31517 -3.5022 0
M  V30 4305 H 407.782 -1.71191 -4.6147 0
M  V30 4306 N 409.434 1.37368 -0.772513 0
M  V30 4307 C 410.344 2.34053 -0.160081 0
M  V30 4308 C 411.36 1.60216 0.678728 0
M  V30 4309 O 412.536 1.92303 0.59847 0
M  V30 4310 C 409.601 3.3939 0.708182 0
M  V30 4311 C 408.662 4.29048 -0.147172 0
M  V30 4312 C 407.895 5.29354 0.679744 0
M  V30 4313 O 408.118 5.3723 1.91678 0
M  V30 4314 O 407.052 6.01835 0.0885444 0
M  V30 4315 H 410.878 2.88159 -0.959053 0
M  V30 4316 H 408.463 1.39543 -0.533685 0
M  V30 4317 H 410.345 4.03839 1.20384 0
M  V30 4318 H 409.02 2.8761 1.48533 0
M  V30 4319 H 407.927 3.67697 -0.689205 0
M  V30 4320 H 409.26 4.84134 -0.887423 0
M  V30 4321 N 410.912 0.523116 1.48665 0
M  V30 4322 C 412.159 -0.0134763 2.02496 0
M  V30 4323 C 412.487 -1.3493 1.40086 0
M  V30 4324 O 411.742 -1.88286 0.533567 0
M  V30 4325 C 412.041 -0.191671 3.56886 0
M  V30 4326 C 411.707 1.06893 4.38046 0
M  V30 4327 C 410.369 1.41443 4.59943 0
M  V30 4328 C 412.721 1.90584 4.85106 0
M  V30 4329 C 410.049 2.59594 5.26144 0
M  V30 4330 C 412.401 3.07907 5.52609 0
M  V30 4331 C 411.065 3.42811 5.72745 0
M  V30 4332 H 410.335 -0.00493133 0.740984 0
M  V30 4333 H 412.982 0.687751 1.78724 0
M  V30 4334 H 411.287 -0.97561 3.79459 0
M  V30 4335 H 412.984 -0.621659 3.96152 0
M  V30 4336 H 409.574 0.789848 4.21259 0
M  V30 4337 H 413.758 1.65203 4.67997 0
M  V30 4338 H 409.014 2.86847 5.39934 0
M  V30 4339 H 413.188 3.73066 5.88043 0
M  V30 4340 H 410.815 4.34462 6.23816 0
M  V30 4341 N 412.39 -1.55475 0.257931 0
M  V30 4342 C 413.353 -2.20551 -0.623706 0
M  V30 4343 C 414.353 -1.17809 -1.09443 0
M  V30 4344 O 415.543 -1.42823 -0.997362 0
M  V30 4345 C 412.675 -2.85784 -1.8585 0
M  V30 4346 H 413.868 -2.99848 -0.0557743 0
M  V30 4347 H 411.421 -1.56298 0.0084422 0
M  V30 4348 H 412.156 -2.10453 -2.46739 0
M  V30 4349 H 411.941 -3.61057 -1.52907 0
M  V30 4350 H 413.431 -3.35553 -2.48584 0
M  V30 4351 N 413.868 0.0150385 -1.57593 0
M  V30 4352 C 414.831 0.995996 -2.06428 0
M  V30 4353 C 415.831 1.2818 -0.970903 0
M  V30 4354 O 417.021 1.22949 -1.23406 0
M  V30 4355 C 414.153 2.32506 -2.49307 0
M  V30 4356 H 415.346 0.573873 -2.94358 0
M  V30 4357 H 412.899 0.262186 -1.54085 0
M  V30 4358 H 413.634 2.79438 -1.64575 0
M  V30 4359 H 413.419 2.13087 -3.29145 0
M  V30 4360 H 414.909 3.02906 -2.87468 0
M  V30 4361 N 415.346 1.54954 0.287554 0
M  V30 4362 C 416.623 1.65569 1.04146 0
M  V30 4363 C 417.003 0.512672 2.0478 0
M  V30 4364 O 416.351 -0.489038 2.23205 0
M  V30 4365 C 416.561 3.04163 1.71131 0
M  V30 4366 C 417.909 3.61429 2.22832 0
M  V30 4367 O 418.933 3.06702 1.81141 0
M  V30 4368 O 417.792 4.57281 2.9926 0
M  V30 4369 H 414.886 0.671881 0.482188 0
M  V30 4370 H 417.432 1.67297 0.28457 0
M  V30 4371 H 416.204 3.78796 0.981303 0
M  V30 4372 H 415.827 3.06271 2.53543 0
M  V30 4373 N 416.824 -0.551391 1.4764 0
M  V30 4374 C 417.787 -1.64007 1.60107 0
M  V30 4375 C 418.787 -1.53601 0.47576 0
M  V30 4376 O 419.977 -1.57655 0.740988 0
M  V30 4377 C 417.109 -3.03569 1.55108 0
M  V30 4378 H 418.302 -1.543 2.57161 0
M  V30 4379 H 415.855 -0.771776 1.35917 0
M  V30 4380 H 416.59 -3.18804 0.594519 0
M  V30 4381 H 416.375 -3.12532 2.36783 0
M  V30 4382 H 417.865 -3.82762 1.66982 0
M  V30 4383 N 418.302 -1.35869 -0.798587 0
M  V30 4384 C 419.527 -1.32883 -1.59238 0
M  V30 4385 C 419.952 0.0894587 -1.87887 0
M  V30 4386 O 419.31 1.05869 -1.47178 0
M  V30 4387 C 419.358 -2.14892 -2.89575 0
M  V30 4388 O 418.462 -1.53512 -3.82763 0
M  V30 4389 H 417.803 -0.455236 -0.48338 0
M  V30 4390 H 420.333 -1.79024 -0.990539 0
M  V30 4391 H 420.343 -2.27139 -3.38928 0
M  V30 4392 H 419.018 -3.17998 -2.68049 0
M  V30 4393 H 417.595 -1.50153 -3.41334 0
M  V30 4394 N 419.78 1.02168 -1.19998 0
M  V30 4395 C 421.057 1.72816 -0.916191 0
M  V30 4396 C 421.437 2.03081 0.576325 0
M  V30 4397 O 420.785 1.69122 1.53656 0
M  V30 4398 C 420.995 2.9997 -1.78378 0
M  V30 4399 C 422.343 3.73336 -2.02251 0
M  V30 4400 O 423.367 3.09914 -1.75589 0
M  V30 4401 O 422.226 4.87371 -2.47249 0
M  V30 4402 H 419.32 0.752924 -0.342103 0
M  V30 4403 H 421.866 1.08062 -1.30846 0
M  V30 4404 H 420.638 2.73888 -2.79466 0
M  V30 4405 H 420.261 3.72464 -1.39126 0
M  V30 4406 N 421.258 1.00505 1.21394 0
M  V30 4407 C 422.488 0.705584 1.94178 0
M  V30 4408 C 422.896 -0.735846 1.74304 0
M  V30 4409 O 422.239 -1.50954 1.04683 0
M  V30 4410 C 422.301 0.94689 3.46806 0
M  V30 4411 C 421.965 2.37517 3.90429 0
M  V30 4412 C 422.962 3.35539 3.97127 0
M  V30 4413 C 420.647 2.71284 4.22742 0
M  V30 4414 C 422.641 4.65395 4.3553 0
M  V30 4415 C 420.328 4.01356 4.60822 0
M  V30 4416 C 421.326 4.98223 4.67186 0
M  V30 4417 O 421.014 6.25969 5.04399 0
M  V30 4418 H 420.746 0.259216 0.624326 0
M  V30 4419 H 423.3 1.34592 1.55159 0
M  V30 4420 H 421.53 0.249386 3.85895 0
M  V30 4421 H 423.219 0.640804 4.0081 0
M  V30 4422 H 423.985 3.10786 3.7234 0
M  V30 4423 H 419.864 1.96581 4.16985 0
M  V30 4424 H 423.408 5.41002 4.40412 0
M  V30 4425 H 419.305 4.25893 4.85063 0
M  V30 4426 H 420.073 6.30085 5.22431 0
M  V30 4427 N 422.737 -1.36956 0.779787 0
M  V30 4428 C 423.667 -2.32761 0.185651 0
M  V30 4429 C 424.648 -1.56177 -0.673989 0
M  V30 4430 O 425.833 -1.84378 -0.609797 0
M  V30 4431 C 422.963 -3.40418 -0.687964 0
M  V30 4432 C 421.917 -4.27941 0.0710102 0
M  V30 4433 C 421.243 -5.26681 -0.922573 0
M  V30 4434 C 422.543 -5.07006 1.25467 0
M  V30 4435 H 424.237 -2.82698 0.986008 0
M  V30 4436 H 421.783 -1.3592 0.475592 0
M  V30 4437 H 423.736 -4.06423 -1.11348 0
M  V30 4438 H 422.46 -2.89025 -1.52093 0
M  V30 4439 H 421.119 -3.63478 0.47739 0
M  V30 4440 H 420.767 -4.71565 -1.7503 0
M  V30 4441 H 420.467 -5.86103 -0.419237 0
M  V30 4442 H 421.991 -5.9556 -1.34686 0
M  V30 4443 H 423.405 -5.66105 0.905401 0
M  V30 4444 H 421.802 -5.75793 1.69063 0
M  V30 4445 H 422.872 -4.3921 2.05481 0
M  V30 4446 N 424.215 -0.530993 -1.48385 0
M  V30 4447 C 425.626 -0.0907905 -1.86479 0
M  V30 4448 C 425.977 1.33213 -1.44044 0
M  V30 4449 O 425.102 1.99783 -0.831615 0
M  V30 4450 C 425.697 -0.157987 -3.38431 0
M  V30 4451 C 424.256 0.227026 -3.75715 0
M  V30 4452 C 423.403 -0.5173 -2.72432 0
M  V30 4453 H 426.354 -0.742186 -1.40276 0
M  V30 4454 H 426.375 0.630053 -3.75247 0
M  V30 4455 H 425.887 -1.19372 -3.69286 0
M  V30 4456 H 423.988 1.26486 -3.50474 0
M  V30 4457 H 424.101 -0.113288 -4.78966 0
M  V30 4458 H 422.465 0.0365527 -2.54674 0
M  V30 4459 H 423.248 -1.55368 -3.0613 0
M  V30 4460 N 425.693 1.55336 -0.266172 0
M  V30 4461 C 426.656 2.20878 0.612001 0
M  V30 4462 C 427.656 1.18388 1.08816 0
M  V30 4463 O 428.846 1.4335 0.989774 0
M  V30 4464 C 425.978 2.86765 1.84332 0
M  V30 4465 H 427.171 2.99873 0.0398718 0
M  V30 4466 H 424.724 1.56291 -0.0167309 0
M  V30 4467 H 425.459 2.11759 2.45619 0
M  V30 4468 H 425.244 3.61862 1.5099 0
M  V30 4469 H 426.734 3.36867 2.46801 0
M  V30 4470 N 427.171 -0.0066808 1.57599 0
M  V30 4471 C 428.396 -0.707738 1.94951 0
M  V30 4472 C 428.821 -1.66882 0.867868 0
M  V30 4473 O 428.179 -1.80457 -0.17458 0
M  V30 4474 C 428.227 -1.42162 3.31394 0
M  V30 4475 O 427.331 -2.53578 3.25226 0
M  V30 4476 H 426.672 -0.188752 0.636607 0
M  V30 4477 H 429.202 0.0445193 2.04552 0
M  V30 4478 H 429.212 -1.78655 3.66806 0
M  V30 4479 H 427.887 -0.716903 4.09675 0
M  V30 4480 H 426.464 -2.19463 3.01481 0
M  V30 4481 N 428.649 -1.55105 -0.279332 0
M  V30 4482 C 430.06 -1.66186 -0.850832 0
M  V30 4483 C 430.411 -0.584707 -1.87285 0
M  V30 4484 O 429.536 0.274919 -2.14647 0
M  V30 4485 C 430.131 -3.01264 -1.55001 0
M  V30 4486 C 428.69 -3.14394 -2.06963 0
M  V30 4487 C 427.837 -2.61959 -0.909536 0
M  V30 4488 H 430.788 -1.58602 -0.0558235 0
M  V30 4489 H 430.809 -2.93899 -2.41669 0
M  V30 4490 H 430.321 -3.7964 -0.805931 0
M  V30 4491 H 428.422 -2.4078 -2.84352 0
M  V30 4492 H 428.535 -4.20867 -2.28928 0
M  V30 4493 H 426.899 -2.18957 -1.30116 0
M  V30 4494 H 427.682 -3.42833 -0.179062 0
M  V30 4495 N 430.127 0.543554 -1.4793 0
M  V30 4496 C 431.373 1.30201 -1.55485 0
M  V30 4497 C 431.706 1.92925 -0.222201 0
M  V30 4498 O 430.981 1.78586 0.77053 0
M  V30 4499 C 431.264 2.40174 -2.68307 0
M  V30 4500 C 431.117 1.8223 -4.11233 0
M  V30 4501 C 432.436 3.42024 -2.76961 0
M  V30 4502 H 429.555 0.472036 -0.565996 0
M  V30 4503 H 432.197 0.606914 -1.80046 0
M  V30 4504 H 430.347 2.99463 -2.47495 0
M  V30 4505 H 432.019 1.27096 -4.43446 0
M  V30 4506 H 430.262 1.12832 -4.18869 0
M  V30 4507 H 430.933 2.61793 -4.85972 0
M  V30 4508 H 433.409 2.92672 -2.95774 0
M  V30 4509 H 432.285 4.16383 -3.57654 0
M  V30 4510 H 432.546 4.0173 -1.84568 0
M  V30 4511 N 431.605 1.3629 0.791371 0
M  V30 4512 C 432.552 1.30458 1.90393 0
M  V30 4513 C 433.522 0.173632 1.6519 0
M  V30 4514 O 434.707 0.35983 1.87376 0
M  V30 4515 C 431.847 1.09777 3.27174 0
M  V30 4516 C 430.96 2.31929 3.64462 0
M  V30 4517 C 430.095 2.04276 4.90352 0
M  V30 4518 C 429.134 3.224 5.20312 0
M  V30 4519 N 428.271 2.94424 6.37385 0
M  V30 4520 H 433.111 2.25589 1.94714 0
M  V30 4521 H 430.648 1.12122 0.952216 0
M  V30 4522 H 432.606 0.958133 4.06049 0
M  V30 4523 H 431.236 0.183014 3.22281 0
M  V30 4524 H 430.288 2.56703 2.80727 0
M  V30 4525 H 431.6 3.20085 3.82553 0
M  V30 4526 H 430.754 1.87231 5.77087 0
M  V30 4527 H 429.493 1.13428 4.74326 0
M  V30 4528 H 428.498 3.40005 4.32061 0
M  V30 4529 H 429.723 4.14071 5.38258 0
M  V30 4530 H 427.669 2.06185 6.22755 0
M  V30 4531 H 427.586 3.76118 6.55798 0
M  V30 4532 H 428.854 2.80953 7.27108 0
M  V30 4533 N 433.083 -1.0153 1.20538 0
M  V30 4534 C 434.013 -2.11972 0.979295 0
M  V30 4535 C 434.994 -1.6985 -0.0921787 0
M  V30 4536 O 436.179 -1.94089 0.0655932 0
M  V30 4537 C 433.309 -3.43201 0.531984 0
M  V30 4538 C 432.263 -3.9907 1.54685 0
M  V30 4539 C 431.589 -5.26082 0.956127 0
M  V30 4540 C 432.889 -4.32313 2.93092 0
M  V30 4541 H 434.583 -2.31143 1.90298 0
M  V30 4542 H 432.129 -1.11079 0.916372 0
M  V30 4543 H 434.082 -4.1985 0.361044 0
M  V30 4544 H 432.806 -3.23792 -0.427327 0
M  V30 4545 H 431.465 -3.2453 1.70517 0
M  V30 4546 H 431.113 -5.02999 -0.0111538 0
M  V30 4547 H 430.813 -5.64426 1.63393 0
M  V30 4548 H 432.337 -6.05386 0.796284 0
M  V30 4549 H 433.751 -4.99845 2.80763 0
M  V30 4550 H 432.148 -4.81774 3.57791 0
M  V30 4551 H 433.218 -3.41025 3.44717 0
M  V30 4552 N 434.561 -1.01147 -1.20859 0
M  V30 4553 C 435.524 -0.582224 -2.21682 0
M  V30 4554 C 436.524 0.344887 -1.57058 0
M  V30 4555 O 437.714 0.134281 -1.73682 0
M  V30 4556 C 434.846 0.150496 -3.40568 0
M  V30 4557 H 436.039 -1.47408 -2.61172 0
M  V30 4558 H 433.592 -0.800695 -1.34233 0
M  V30 4559 H 434.327 1.0575 -3.06574 0
M  V30 4560 H 434.112 -0.515444 -3.88697 0
M  V30 4561 H 435.602 0.438344 -4.15293 0
M  V30 4562 N 436.039 1.36541 -0.78704 0
M  V30 4563 C 437.264 2.0409 -0.369053 0
M  V30 4564 C 437.689 1.58957 1.00569 0
M  V30 4565 O 437.047 0.756926 1.64743 0
M  V30 4566 C 437.095 3.57924 -0.438466 0
M  V30 4567 O 436.199 4.08642 0.555479 0
M  V30 4568 H 435.54 0.645142 -0.157122 0
M  V30 4569 H 438.07 1.74545 -1.06749 0
M  V30 4570 H 438.08 4.06887 -0.301218 0
M  V30 4571 H 436.755 3.90127 -1.44132 0
M  V30 4572 H 435.332 3.70958 0.380088 0
M  V30 4573 N 437.518 0.538854 1.48102 0
M  V30 4574 C 438.481 -0.208395 2.28251 0
M  V30 4575 C 439.481 -0.859656 1.35892 0
M  V30 4576 O 440.671 -0.71834 1.58699 0
M  V30 4577 C 437.803 -1.30252 3.15035 0
M  V30 4578 H 438.996 0.495407 2.9578 0
M  V30 4579 H 436.549 0.295112 1.53489 0
M  V30 4580 H 437.284 -2.0393 2.52157 0
M  V30 4581 H 437.069 -0.840551 3.82985 0
M  V30 4582 H 438.559 -1.82787 3.75471 0
M  V30 4583 N 438.996 -1.55193 0.274407 0
M  V30 4584 C 439.906 -2.26164 -0.623473 0
M  V30 4585 C 440.922 -1.28729 -1.17068 0
M  V30 4586 O 442.098 -1.61663 -1.20112 0
M  V30 4587 C 439.163 -2.96833 -1.7914 0
M  V30 4588 C 438.224 -4.09745 -1.28093 0
M  V30 4589 C 437.457 -4.77034 -2.3932 0
M  V30 4590 O 437.68 -4.4353 -3.5866 0
M  V30 4591 O 436.614 -5.64996 -2.07516 0
M  V30 4592 H 440.44 -3.03661 -0.0485661 0
M  V30 4593 H 438.025 -1.49341 0.0418382 0
M  V30 4594 H 439.907 -3.41248 -2.4724 0
M  V30 4595 H 438.582 -2.22253 -2.35341 0
M  V30 4596 H 437.489 -3.69787 -0.566416 0
M  V30 4597 H 438.822 -4.86224 -0.764683 0
M  V30 4598 O 440.513 -0.140013 -1.60892 0
M  V30 4599 H 441.204 0.455152 -1.88277 0
M  V30 END ATOM
M  V30 BEGIN BOND
M  V30 END BOND
M  V30 END CTAB
M  END
$$$$
