drugbank_target|Q03154 Aminoacylase-1 (DB00128; DB06151; DB09130)
 OpenBabel12092119323D

  0  0  0     0  0            999 V3000
M  V30 BEGIN CTAB
M  V30 COUNTS 6384 6478 0 0 0
M  V30 BEGIN ATOM
M  V30 1 H -0.908 1.98254 -0.117106 0
M  V30 2 N 0 1.576 0 0
M  V30 3 C 0.933 2.03868 1.02534 0
M  V30 4 C 1.911 0.928543 1.3348 0
M  V30 5 O 3.095 1.19667 1.45644 0
M  V30 6 C 0.222 2.43627 2.35294 0
M  V30 7 C -0.732 3.65373 2.2001 0
M  V30 8 S 0.101 5.13292 1.52614 0
M  V30 9 C 1.257 5.56322 2.86805 0
M  V30 10 H 1.49 2.90518 0.631377 0
M  V30 11 H -0.977 1.52953 0.210867 0
M  V30 12 H 0.981 2.67203 3.11629 0
M  V30 13 H -0.358 1.57376 2.7183 0
M  V30 14 H -1.165 3.90944 3.18086 0
M  V30 15 H -1.563 3.418 1.51819 0
M  V30 16 H 0.729 5.58782 3.83104 0
M  V30 17 H 1.672 6.56266 2.65933 0
M  V30 18 H 2.08 4.83886 2.90714 0
M  V30 19 N 1.4781 -0.272755 1.55222 0
M  V30 20 C 2.7061 -1.02255 1.79865 0
M  V30 21 C 3.1211 -1.79924 0.572088 0
M  V30 22 O 2.4781 -1.76638 -0.458842 0
M  V30 23 C 2.5291 -1.98094 3.02392 0
M  V30 24 O 2.2501 -1.23572 4.20311 0
M  V30 25 C 3.7511 -2.84884 3.39641 0
M  V30 26 H 0.9711 -0.302057 0.599168 0
M  V30 27 H 3.5151 -0.303465 2.02236 0
M  V30 28 H 1.6701 -2.65465 2.82147 0
M  V30 29 H 2.0841 -1.88172 4.89583 0
M  V30 30 H 3.5581 -3.47927 4.28545 0
M  V30 31 H 4.0351 -3.54665 2.59055 0
M  V30 32 H 4.6411 -2.23003 3.62146 0
M  V30 33 N 2.9562 -1.48159 -0.537278 0
M  V30 34 C 4.1812 -1.59707 -1.32319 0
M  V30 35 C 4.6062 -0.254859 -1.86365 0
M  V30 36 O 3.9642 0.772378 -1.64024 0
M  V30 37 C 4.0122 -2.6412 -2.45505 0
M  V30 38 O 3.1162 -2.20774 -3.48328 0
M  V30 39 H 2.4572 -0.535791 -0.392204 0
M  V30 40 H 4.9872 -1.94092 -0.647268 0
M  V30 41 H 4.9972 -2.85166 -2.91795 0
M  V30 42 H 3.6722 -3.61567 -2.05528 0
M  V30 43 H 2.2492 -2.09911 -3.08207 0
M  V30 44 N 4.4343 0.785586 -1.36625 0
M  V30 45 C 5.3813 1.89838 -1.31264 0
M  V30 46 C 6.3513 1.65115 -0.180633 0
M  V30 47 O 7.5363 1.87222 -0.36777 0
M  V30 48 C 4.6763 3.26706 -1.11163 0
M  V30 49 C 3.7893 3.63476 -2.33472 0
M  V30 50 C 2.9243 4.89481 -2.06353 0
M  V30 51 C 1.9633 5.18941 -3.24602 0
M  V30 52 N 1.1003 6.36131 -2.97123 0
M  V30 53 H 5.9403 1.93756 -2.26413 0
M  V30 54 H 3.4773 0.947454 -1.12524 0
M  V30 55 H 5.4353 4.05639 -0.975337 0
M  V30 56 H 4.0653 3.222 -0.196674 0
M  V30 57 H 3.1173 2.79636 -2.57891 0
M  V30 58 H 4.4293 3.81193 -3.21704 0
M  V30 59 H 3.5833 5.76288 -1.89675 0
M  V30 60 H 2.3223 4.73841 -1.15437 0
M  V30 61 H 1.3273 4.30615 -3.41834 0
M  V30 62 H 2.5523 5.36498 -4.16349 0
M  V30 63 H 0.4983 6.21875 -2.08823 0
M  V30 64 H 0.4153 6.54198 -3.78894 0
M  V30 65 H 1.6833 7.2591 -2.84033 0
M  V30 66 N 5.9124 1.20967 1.01018 0
M  V30 67 C 7.1604 1.02172 1.74371 0
M  V30 68 C 7.4814 -0.446414 1.89821 0
M  V30 69 O 6.7514 -1.32234 1.44537 0
M  V30 70 H 5.3314 0.375066 0.646014 0
M  V30 71 H 7.9934 1.52187 1.21758 0
M  V30 72 H 7.0894 1.48538 2.74487 0
M  V30 73 N 7.3905 -1.2043 1.01659 0
M  V30 74 C 8.8015 -1.71517 0.737482 0
M  V30 75 C 9.1525 -1.81547 -0.743973 0
M  V30 76 O 8.2775 -1.47803 -1.58061 0
M  V30 77 C 8.8725 -3.11515 1.33206 0
M  V30 78 C 7.4315 -3.59912 1.10183 0
M  V30 79 C 6.5785 -2.37116 1.43776 0
M  V30 80 H 9.5295 -1.05444 1.18606 0
M  V30 81 H 9.5505 -3.73575 0.722636 0
M  V30 82 H 9.0625 -3.04182 2.41028 0
M  V30 83 H 7.1635 -3.72577 0.0412756 0
M  V30 84 H 7.2765 -4.44731 1.78188 0
M  V30 85 H 5.6405 -2.39857 0.856778 0
M  V30 86 H 6.4235 -2.32424 2.52654 0
M  V30 87 N 8.8686 -0.792821 -1.36206 0
M  V30 88 C 9.7786 -0.194808 -2.3379 0
M  V30 89 C 10.7946 0.654869 -1.61206 0
M  V30 90 O 11.9706 0.569856 -1.9317 0
M  V30 91 C 9.0356 0.657721 -3.40404 0
M  V30 92 C 8.0966 -0.210849 -4.28782 0
M  V30 93 C 7.3296 0.601086 -5.30304 0
M  V30 94 O 7.5526 1.83682 -5.40016 0
M  V30 95 O 6.4866 -0.000808277 -6.019 0
M  V30 96 H 10.3126 -1.00172 -2.86704 0
M  V30 97 H 7.8976 -0.554341 -1.38735 0
M  V30 98 H 9.7796 1.14375 -4.05581 0
M  V30 99 H 8.4546 1.44247 -2.89784 0
M  V30 100 H 7.3616 -0.743714 -3.66633 0
M  V30 101 H 8.6946 -0.959195 -4.82763 0
M  V30 102 N 10.3467 1.47872 -0.545128 0
M  V30 103 C 11.2567 2.33633 0.212746 0
M  V30 104 C 12.2727 1.4744 0.923983 0
M  V30 105 O 13.4487 1.80393 0.895572 0
M  V30 106 C 10.5137 3.23884 1.23693 0
M  V30 107 C 9.5747 4.25961 0.534417 0
M  V30 108 C 8.8077 5.11899 1.5098 0
M  V30 109 O 9.0307 5.00077 2.7437 0
M  V30 110 O 7.9647 5.92831 1.0409 0
M  V30 111 H 11.7907 2.99714 -0.490416 0
M  V30 112 H 9.3757 1.46235 -0.305871 0
M  V30 113 H 11.2577 3.79666 1.82843 0
M  V30 114 H 9.9327 2.60446 1.92222 0
M  V30 115 H 8.8397 3.73972 -0.0979679 0
M  V30 116 H 10.1727 4.92079 -0.109213 0
M  V30 117 N 11.8248 0.280983 1.55075 0
M  V30 118 C 12.7348 -0.61388 2.26426 0
M  V30 119 C 13.7508 -1.16521 1.29224 0
M  V30 120 O 14.9268 -1.19426 1.62171 0
M  V30 121 C 11.9918 -1.7788 2.9759 0
M  V30 122 C 11.0528 -1.26355 4.10284 0
M  V30 123 C 10.2858 -2.37295 4.78045 0
M  V30 124 O 10.5088 -3.56777 4.45047 0
M  V30 125 O 9.4428 -2.05119 5.65871 0
M  V30 126 H 13.2688 -0.0356932 3.03679 0
M  V30 127 H 10.8538 0.0481686 1.49322 0
M  V30 128 H 12.7358 -2.45791 3.42293 0
M  V30 129 H 11.4108 -2.34397 2.23249 0
M  V30 130 H 10.3178 -0.550735 3.70024 0
M  V30 131 H 11.6508 -0.744065 4.86543 0
M  V30 132 N 13.3029 -1.57598 0.00835791 0
M  V30 133 C 14.2529 -2.05431 -0.989045 0
M  V30 134 C 15.2369 -0.950662 -1.29812 0
M  V30 135 O 16.4289 -1.21438 -1.28771 0
M  V30 136 C 13.5579 -2.56801 -2.27833 0
M  V30 137 C 12.6439 -3.74058 -1.99853 0
M  V30 138 N 13.0349 -4.8544 -1.42062 0
M  V30 139 C 11.3329 -3.82148 -2.29953 0
M  V30 140 C 12.0339 -5.66817 -1.30743 0
M  V30 141 N 11.0099 -5.13077 -1.7959 0
M  V30 142 H 14.8119 -2.88955 -0.536853 0
M  V30 143 H 12.3259 -1.61199 -0.197148 0
M  V30 144 H 14.3229 -2.89349 -3.00137 0
M  V30 145 H 12.9829 -1.74699 -2.73698 0
M  V30 146 H 13.9939 -5.0612 -1.09833 0
M  V30 147 H 10.6709 -3.10916 -2.78635 0
M  V30 148 H 12.0609 -6.66343 -0.862328 0
M  V30 149 N 14.781 0.264519 -1.55364 0
M  V30 150 C 16.192 0.834936 -1.6699 0
M  V30 151 C 16.543 1.86718 -0.602552 0
M  V30 152 O 15.668 2.14899 0.254425 0
M  V30 153 C 16.263 1.5212 -3.02729 0
M  V30 154 C 14.822 2.03954 -3.16354 0
M  V30 155 C 13.969 0.884498 -2.62815 0
M  V30 156 H 16.92 0.0406869 -1.58648 0
M  V30 157 H 16.941 2.38853 -2.96191 0
M  V30 158 H 16.453 0.769668 -3.80392 0
M  V30 159 H 14.554 2.82041 -2.43482 0
M  V30 160 H 14.667 2.24902 -4.23032 0
M  V30 161 H 13.031 1.2802 -2.20188 0
M  V30 162 H 13.814 0.14634 -3.42988 0
M  V30 163 N 16.2591 1.48442 0.529413 0
M  V30 164 C 17.4841 1.60406 1.31471 0
M  V30 165 C 17.9091 0.264738 1.86228 0
M  V30 166 O 17.2671 -0.763668 1.64432 0
M  V30 167 C 17.3151 2.65419 2.44101 0
M  V30 168 O 16.4191 2.22618 3.47153 0
M  V30 169 H 15.7601 0.537863 0.389357 0
M  V30 170 H 18.2901 1.94432 0.636965 0
M  V30 171 H 18.3001 2.86709 2.90279 0
M  V30 172 H 16.9751 3.62652 2.03608 0
M  V30 173 H 15.5521 2.11543 3.0709 0
M  V30 174 N 17.7372 -0.778329 1.37039 0
M  V30 175 C 18.9832 -1.53892 1.32079 0
M  V30 176 C 19.3162 -1.9396 -0.0965386 0
M  V30 177 O 18.5912 -1.63568 -1.05242 0
M  V30 178 C 18.8742 -2.80847 2.25382 0
M  V30 179 C 18.7272 -2.47076 3.75864 0
M  V30 180 C 20.0462 -3.82741 2.1725 0
M  V30 181 H 17.1652 -0.558303 0.48111 0
M  V30 182 H 19.8072 -0.893397 1.67685 0
M  V30 183 H 17.9572 -3.35931 1.95148 0
M  V30 184 H 19.6292 -1.97957 4.16666 0
M  V30 185 H 17.8722 -1.79863 3.94755 0
M  V30 186 H 18.5432 -3.37798 4.36574 0
M  V30 187 H 21.0192 -3.37133 2.43887 0
M  V30 188 H 19.8952 -4.69303 2.84686 0
M  V30 189 H 20.1562 -4.2652 1.16331 0
M  V30 190 N 19.2153 -1.21501 -1.00376 0
M  V30 191 C 20.4433 -1.059 -1.77744 0
M  V30 192 C 20.8583 0.391125 -1.84704 0
M  V30 193 O 20.2153 1.27133 -1.30933 0
M  V30 194 C 20.2663 -1.65111 -3.21591 0
M  V30 195 O 19.9873 -3.0445 -3.15027 0
M  V30 196 C 21.4883 -1.54637 -4.15454 0
M  V30 197 H 18.7083 -0.371825 -0.558558 0
M  V30 198 H 21.2523 -1.60865 -1.26264 0
M  V30 199 H 19.4073 -1.14235 -3.70175 0
M  V30 200 H 19.8213 -3.3278 -4.0541 0
M  V30 201 H 21.2953 -2.00808 -5.14179 0
M  V30 202 H 21.7723 -0.501022 -4.36333 0
M  V30 203 H 22.3783 -2.04767 -3.72761 0
M  V30 204 N 20.6934 1.19889 -1.02296 0
M  V30 205 C 21.6234 2.25141 -0.619174 0
M  V30 206 C 22.6044 1.66051 0.368915 0
M  V30 207 O 23.7894 1.92546 0.252941 0
M  V30 208 C 20.9194 3.4728 0.0368783 0
M  V30 209 C 19.8734 4.19005 -0.872865 0
M  V30 210 C 19.1994 5.34637 -0.0822402 0
M  V30 211 C 20.4994 4.74452 -2.18387 0
M  V30 212 H 22.1934 2.59171 -1.49903 0
M  V30 213 H 19.7394 1.24579 -0.722222 0
M  V30 214 H 21.6924 4.20098 0.330958 0
M  V30 215 H 20.4164 3.12433 0.95149 0
M  V30 216 H 19.0754 3.48061 -1.15105 0
M  V30 217 H 18.7234 4.96034 0.83422 0
M  V30 218 H 18.4234 5.83557 -0.688149 0
M  V30 219 H 19.9474 6.10255 0.205238 0
M  V30 220 H 21.3614 5.39055 -1.95172 0
M  V30 221 H 19.7584 5.33834 -2.74119 0
M  V30 222 H 20.8284 3.92844 -2.84257 0
M  V30 223 N 22.1715 0.800033 1.35784 0
M  V30 224 C 23.4185 0.377342 1.98953 0
M  V30 225 C 23.7465 -1.05378 1.6348 0
M  V30 226 O 23.0015 -1.74459 0.886707 0
M  V30 227 C 23.3005 0.500276 3.53881 0
M  V30 228 C 22.9665 1.89375 4.09204 0
M  V30 229 C 21.6285 2.27499 4.24025 0
M  V30 230 C 23.9805 2.8057 4.39238 0
M  V30 231 C 21.3085 3.562 4.66195 0
M  V30 232 C 23.6605 4.0871 4.82844 0
M  V30 233 C 22.3245 4.46843 4.95871 0
M  V30 234 H 21.5945 0.138079 0.728021 0
M  V30 235 H 24.2415 1.01955 1.62103 0
M  V30 236 H 22.5465 -0.225405 3.91151 0
M  V30 237 H 24.2435 0.154097 4.00704 0
M  V30 238 H 20.8335 1.58753 3.98115 0
M  V30 239 H 25.0175 2.52367 4.27346 0
M  V30 240 H 20.2735 3.85602 4.74469 0
M  V30 241 H 24.4475 4.79481 5.05046 0
M  V30 242 H 22.0745 5.46623 5.28306 0
M  V30 243 N 23.6496 -1.47581 0.552962 0
M  V30 244 C 25.0656 -1.5818 0.212424 0
M  V30 245 C 25.2656 -1.55213 -1.28496 0
M  V30 246 O 24.3216 -1.45329 -2.06484 0
M  V30 247 C 25.6346 -2.88865 0.835318 0
M  V30 248 C 27.1826 -3.0244 0.806156 0
M  V30 249 C 27.6576 -4.35819 1.40804 0
M  V30 250 N 29.1486 -4.42444 1.37103 0
M  V30 251 C 29.8836 -5.44202 1.80641 0
M  V30 252 N 29.3796 -6.52795 2.32015 0
M  V30 253 N 31.1726 -5.35222 1.71738 0
M  V30 254 H 23.3236 -1.47753 1.52587 0
M  V30 255 H 25.5866 -0.702941 0.636064 0
M  V30 256 H 25.2926 -2.9676 1.88749 0
M  V30 257 H 25.1666 -3.7579 0.325848 0
M  V30 258 H 27.5536 -2.94144 -0.237317 0
M  V30 259 H 27.6346 -2.17068 1.35334 0
M  V30 260 H 27.2786 -4.44871 2.45056 0
M  V30 261 H 27.2086 -5.19916 0.836338 0
M  V30 262 H 29.6996 -3.6456 0.995202 0
M  V30 263 H 30.0126 -7.26609 2.63171 0
M  V30 264 H 28.3576 -6.53696 2.36023 0
M  V30 265 H 31.5486 -4.49284 1.31382 0
M  V30 266 H 31.7216 -6.14389 2.05987 0
M  V30 267 N 25.1277 -0.289203 -1.54924 0
M  V30 268 C 26.0597 0.625583 -2.20497 0
M  V30 269 C 27.0727 1.10667 -1.19402 0
M  V30 270 O 28.2617 1.02615 -1.46056 0
M  V30 271 C 25.3617 1.86702 -2.82835 0
M  V30 272 C 24.5347 1.5304 -4.09753 0
M  V30 273 C 23.5937 2.62576 -4.56005 0
M  V30 274 O 22.6197 2.28167 -5.21468 0
M  V30 275 N 23.8217 3.92901 -4.27328 0
M  V30 276 H 26.5867 0.0642801 -2.99631 0
M  V30 277 H 24.1477 -0.110896 -1.6152 0
M  V30 278 H 26.1397 2.59304 -3.10715 0
M  V30 279 H 24.7097 2.33702 -2.07611 0
M  V30 280 H 23.9297 0.637564 -3.8901 0
M  V30 281 H 25.2177 1.28072 -4.92418 0
M  V30 282 H 24.6157 4.23671 -3.74859 0
M  V30 283 H 23.1727 4.61837 -4.59946 0
M  V30 284 N 26.6058 1.57591 -0.0167156 0
M  V30 285 C 27.8358 1.95292 0.674149 0
M  V30 286 C 28.2438 0.891097 1.66901 0
M  V30 287 O 27.5868 -0.136908 1.83189 0
M  V30 288 C 27.6488 3.29072 1.44747 0
M  V30 289 C 27.3128 4.52879 0.612331 0
M  V30 290 C 28.3098 5.1979 -0.107126 0
M  V30 291 C 25.9948 4.99242 0.553381 0
M  V30 292 C 27.9888 6.31375 -0.874339 0
M  V30 293 C 25.6758 6.10713 -0.217546 0
M  V30 294 C 26.6738 6.76637 -0.930123 0
M  V30 295 O 26.3618 7.85969 -1.68844 0
M  V30 296 H 26.0938 0.648275 0.191615 0
M  V30 297 H 28.6478 2.05284 -0.0690148 0
M  V30 298 H 26.8778 3.15535 2.2355 0
M  V30 299 H 28.5668 3.51764 2.02526 0
M  V30 300 H 29.3328 4.84948 -0.0708392 0
M  V30 301 H 25.2118 4.47744 1.09757 0
M  V30 302 H 28.7558 6.82764 -1.43106 0
M  V30 303 H 24.6528 6.44994 -0.255593 0
M  V30 304 H 25.4208 8.02571 -1.6069 0
M  V30 305 N 28.0839 -0.256276 1.55502 0
M  V30 306 C 29.0139 -1.32102 1.92539 0
M  V30 307 C 29.9949 -1.50684 0.789194 0
M  V30 308 O 31.1799 -1.63449 1.04872 0
M  V30 309 C 28.3099 -2.67752 2.21192 0
M  V30 310 C 27.2639 -2.63878 3.36975 0
M  V30 311 C 26.5899 -4.03236 3.51147 0
M  V30 312 C 27.8899 -2.21682 4.72921 0
M  V30 313 H 29.5839 -1.01351 2.81724 0
M  V30 314 H 27.1299 -0.486105 1.35547 0
M  V30 315 H 29.0829 -3.42365 2.45691 0
M  V30 316 H 27.8069 -3.0012 1.28824 0
M  V30 317 H 26.4659 -1.91722 3.12471 0
M  V30 318 H 26.1139 -4.32854 2.56216 0
M  V30 319 H 25.8139 -4.01535 4.29003 0
M  V30 320 H 27.3379 -4.79563 3.77957 0
M  V30 321 H 28.7519 -2.86023 4.96854 0
M  V30 322 H 27.1489 -2.3111 5.53812 0
M  V30 323 H 28.2189 -1.16833 4.70615 0
M  V30 324 N 29.562 -1.4872 -0.521534 0
M  V30 325 C 30.978 -1.35028 -0.850855 0
M  V30 326 C 31.178 -0.367712 -1.98116 0
M  V30 327 O 30.234 0.208037 -2.51642 0
M  V30 328 C 31.547 -2.75263 -1.21041 0
M  V30 329 C 33.095 -2.83813 -1.31981 0
M  V30 330 C 33.57 -4.24769 -1.71276 0
M  V30 331 N 35.061 -4.27482 -1.78363 0
M  V30 332 C 35.796 -5.33494 -2.1017 0
M  V30 333 N 35.292 -6.49775 -2.40343 0
M  V30 334 N 37.085 -5.20894 -2.11248 0
M  V30 335 H 29.236 -2.11214 0.22413 0
M  V30 336 H 31.499 -0.947252 0.0376439 0
M  V30 337 H 31.205 -3.48765 -0.453415 0
M  V30 338 H 31.079 -3.09327 -2.15863 0
M  V30 339 H 33.466 -2.10561 -2.06756 0
M  V30 340 H 33.547 -2.53358 -0.352596 0
M  V30 341 H 33.191 -4.9854 -0.970588 0
M  V30 342 H 33.121 -4.52673 -2.69062 0
M  V30 343 H 35.612 -3.43611 -1.57288 0
M  V30 344 H 35.925 -7.26402 -2.63743 0
M  V30 345 H 34.27 -6.53035 -2.37844 0
M  V30 346 H 37.461 -4.29065 -1.87139 0
M  V30 347 H 37.634 -6.03612 -2.35704 0
M  V30 348 N 31.0401 0.771051 -1.3745 0
M  V30 349 C 32.2891 1.52491 -1.3202 0
M  V30 350 C 32.6021 1.9538 0.0927347 0
M  V30 351 O 33.8081 2.70159 0.269503 0
M  V30 352 C 32.2641 2.75366 -2.31736 0
M  V30 353 C 31.8721 2.39573 -3.78562 0
M  V30 354 C 33.6161 3.53307 -2.35318 0
M  V30 355 C 31.5231 3.58954 -4.70007 0
M  V30 356 H 30.4531 0.572506 -0.490666 0
M  V30 357 H 33.1041 0.844474 -1.62914 0
M  V30 358 H 31.4861 3.45303 -1.93861 0
M  V30 359 H 32.6601 1.77415 -4.25277 0
M  V30 360 H 30.9751 1.74805 -3.77932 0
M  V30 361 H 33.5721 4.42039 -3.00842 0
M  V30 362 H 33.9151 3.93217 -1.36698 0
M  V30 363 H 34.4481 2.90367 -2.71904 0
M  V30 364 H 31.1871 3.24125 -5.69757 0
M  V30 365 H 30.7071 4.20214 -4.27996 0
M  V30 366 H 32.3861 4.25758 -4.87175 0
M  V30 367 N 32.5182 1.22032 0.997298 0
M  V30 368 C 33.9342 0.979326 1.26021 0
M  V30 369 C 34.1342 -0.32972 1.98784 0
M  V30 370 O 33.1902 -1.05345 2.29475 0
M  V30 371 C 34.5032 2.17509 2.07631 0
M  V30 372 C 36.0512 2.21817 2.2083 0
M  V30 373 C 36.5262 3.40933 3.05825 0
M  V30 374 N 38.0172 3.41067 3.13412 0
M  V30 375 C 38.7522 4.29885 3.79455 0
M  V30 376 N 38.2482 5.28914 4.47462 0
M  V30 377 N 40.0412 4.17673 3.76173 0
M  V30 378 H 32.1922 2.06202 0.509352 0
M  V30 379 H 34.4552 0.90334 0.287541 0
M  V30 380 H 34.1612 3.12415 1.61524 0
M  V30 381 H 34.0352 2.17206 3.08385 0
M  V30 382 H 36.4222 1.27462 2.66153 0
M  V30 383 H 36.5032 2.2616 1.1952 0
M  V30 384 H 36.1472 4.35586 2.61203 0
M  V30 385 H 36.0772 3.33829 4.07266 0
M  V30 386 H 38.5682 2.69406 2.65007 0
M  V30 387 H 38.8812 5.92973 4.95583 0
M  V30 388 H 37.2262 5.32831 4.46224 0
M  V30 389 H 40.4172 3.39564 3.22202 0
M  V30 390 H 40.5902 4.87098 4.27363 0
M  V30 391 N 33.9963 -1.19345 1.0293 0
M  V30 392 C 35.2243 -1.92997 0.745644 0
M  V30 393 C 35.6393 -1.75519 -0.695589 0
M  V30 394 O 34.9963 -1.07737 -1.47306 0
M  V30 395 C 35.0473 -3.44741 1.08792 0
M  V30 396 O 34.7683 -3.61658 2.47256 0
M  V30 397 C 36.2693 -4.35515 0.827129 0
M  V30 398 H 33.4893 -0.613042 0.272801 0
M  V30 399 H 36.0333 -1.51473 1.3739 0
M  V30 400 H 34.1883 -3.84097 0.504832 0
M  V30 401 H 34.6023 -4.55514 2.60015 0
M  V30 402 H 36.0763 -5.40589 1.11658 0
M  V30 403 H 36.5533 -4.38552 -0.238436 0
M  V30 404 H 37.1593 -4.01841 1.39297 0
M  V30 405 N 35.4744 -0.807222 -1.35358 0
M  V30 406 C 36.7204 -0.388463 -1.99045 0
M  V30 407 C 37.0534 1.04184 -1.63888 0
M  V30 408 O 36.3284 1.72292 -0.902535 0
M  V30 409 C 36.6114 -0.572783 -3.55515 0
M  V30 410 C 36.4644 -2.04807 -4.00468 0
M  V30 411 C 37.7834 0.00114064 -4.401 0
M  V30 412 H 34.9024 -0.142619 -0.723069 0
M  V30 413 H 37.5444 -1.01687 -1.60498 0
M  V30 414 H 35.6944 -0.0378425 -3.88482 0
M  V30 415 H 37.3664 -2.64544 -3.77908 0
M  V30 416 H 35.6094 -2.54427 -3.51353 0
M  V30 417 H 36.2804 -2.12792 -5.09337 0
M  V30 418 H 38.7564 -0.455716 -4.13597 0
M  V30 419 H 37.6324 -0.157737 -5.48673 0
M  V30 420 H 37.8934 1.09488 -4.28328 0
M  V30 421 N 36.9525 1.47285 -0.560781 0
M  V30 422 C 37.8845 2.28118 0.222438 0
M  V30 423 C 38.8975 1.37219 0.876056 0
M  V30 424 O 40.0865 1.62011 0.749307 0
M  V30 425 C 37.1865 3.1159 1.33285 0
M  V30 426 C 36.3595 4.30473 0.77534 0
M  V30 427 C 35.4185 4.95513 1.77069 0
M  V30 428 O 34.4445 5.53792 1.31539 0
M  V30 429 N 35.6465 4.90531 3.10418 0
M  V30 430 H 38.4115 2.95976 -0.470958 0
M  V30 431 H 35.9725 1.56955 -0.39709 0
M  V30 432 H 37.9645 3.51967 1.99752 0
M  V30 433 H 36.5345 2.45951 1.92943 0
M  V30 434 H 35.7545 3.94144 -0.0662113 0
M  V30 435 H 37.0425 5.07362 0.382272 0
M  V30 436 H 36.4405 4.44389 3.5005 0
M  V30 437 H 34.9975 5.34917 3.72434 0
M  V30 438 N 38.4306 0.297415 1.54768 0
M  V30 439 C 39.8416 -0.195947 1.85669 0
M  V30 440 C 40.1926 -1.53707 1.21937 0
M  V30 441 O 39.3176 -2.10164 0.515754 0
M  V30 442 C 39.9126 -0.362318 3.36857 0
M  V30 443 C 38.4716 -0.799901 3.67802 0
M  V30 444 C 37.6186 0.0938578 2.77141 0
M  V30 445 H 40.5696 0.518538 1.4999 0
M  V30 446 H 40.5906 -1.19745 3.61167 0
M  V30 447 H 40.1026 0.613921 3.83214 0
M  V30 448 H 38.2036 -1.78682 3.26961 0
M  V30 449 H 38.3166 -0.621773 4.75048 0
M  V30 450 H 36.6806 -0.426254 2.51108 0
M  V30 451 H 37.4636 1.06639 3.26318 0
M  V30 452 N 39.9087 -1.5758 0.0250728 0
M  V30 453 C 40.8557 -2.09973 -0.958129 0
M  V30 454 C 41.8257 -1.00085 -1.3256 0
M  V30 455 O 43.0107 -1.27481 -1.41962 0
M  V30 456 C 40.1507 -2.62812 -2.2366 0
M  V30 457 C 39.2637 -3.86693 -1.92594 0
M  V30 458 C 38.3987 -4.27941 -3.14707 0
M  V30 459 C 37.4377 -5.44591 -2.79442 0
M  V30 460 N 36.5747 -5.81014 -3.94167 0
M  V30 461 H 41.4147 -2.937 -0.504428 0
M  V30 462 H 38.9517 -1.45172 -0.237392 0
M  V30 463 H 40.9097 -2.91536 -2.98434 0
M  V30 464 H 39.5397 -1.81922 -2.66654 0
M  V30 465 H 38.5917 -3.64723 -1.0808 0
M  V30 466 H 39.9037 -4.71547 -1.62619 0
M  V30 467 H 39.0577 -4.58079 -3.97804 0
M  V30 468 H 37.7967 -3.41845 -3.4784 0
M  V30 469 H 36.8017 -5.1415 -1.94755 0
M  V30 470 H 38.0267 -6.32382 -2.47528 0
M  V30 471 H 35.9727 -4.97874 -4.2715 0
M  V30 472 H 35.8897 -6.60498 -3.67801 0
M  V30 473 H 37.1577 -6.15756 -4.7798 0
M  V30 474 N 41.3868 0.248026 -1.55636 0
M  V30 475 C 42.7978 0.817177 -1.67866 0
M  V30 476 C 43.1488 1.86069 -0.622322 0
M  V30 477 O 42.2738 2.15157 0.231618 0
M  V30 478 C 42.8688 1.489 -3.04326 0
M  V30 479 C 41.4278 2.00587 -3.185 0
M  V30 480 C 40.5748 0.856573 -2.63739 0
M  V30 481 H 43.5258 0.0238579 -1.58682 0
M  V30 482 H 43.5468 2.35698 -2.98708 0
M  V30 483 H 43.0588 0.729279 -3.81186 0
M  V30 484 H 41.1598 2.79443 -2.4646 0
M  V30 485 H 41.2728 2.20402 -4.25393 0
M  V30 486 H 39.6368 1.25678 -2.21534 0
M  V30 487 H 40.4198 0.109953 -3.43124 0
M  V30 488 N 42.8649 1.48995 0.513639 0
M  V30 489 C 44.1419 1.48338 1.27495 0
M  V30 490 C 44.5219 0.204065 2.10111 0
M  V30 491 O 43.8699 -0.813881 2.13514 0
M  V30 492 C 44.0799 2.75498 2.14247 0
M  V30 493 C 45.4279 3.24484 2.73852 0
M  V30 494 O 46.4519 2.76528 2.24523 0
M  V30 495 O 45.3109 4.07974 3.6362 0
M  V30 496 H 42.4049 0.593149 0.576284 0
M  V30 497 H 44.9509 1.61246 0.528948 0
M  V30 498 H 43.7229 3.60109 1.53092 0
M  V30 499 H 43.3459 2.6539 2.96064 0
M  V30 500 N 44.343 -0.763751 1.37857 0
M  V30 501 C 45.573 -1.55067 1.3652 0
M  V30 502 C 45.981 -1.89135 -0.0494227 0
M  V30 503 O 45.324 -1.52529 -1.02375 0
M  V30 504 C 45.386 -2.8838 2.14656 0
M  V30 505 C 45.05 -2.76905 3.63555 0
M  V30 506 C 46.047 -2.4739 4.57268 0
M  V30 507 C 43.732 -2.94676 4.06781 0
M  V30 508 C 45.726 -2.35786 5.92186 0
M  V30 509 C 43.413 -2.82692 5.41782 0
M  V30 510 C 44.411 -2.53289 6.34298 0
M  V30 511 O 44.099 -2.41345 7.66817 0
M  V30 512 H 43.831 -0.486776 0.469069 0
M  V30 513 H 46.385 -0.953812 1.81911 0
M  V30 514 H 44.615 -3.50217 1.63967 0
M  V30 515 H 46.304 -3.49828 2.05852 0
M  V30 516 H 47.07 -2.33339 4.2518 0
M  V30 517 H 42.949 -3.16563 3.35126 0
M  V30 518 H 46.493 -2.12757 6.64365 0
M  V30 519 H 42.39 -2.96314 5.7347 0
M  V30 520 H 43.158 -2.56634 7.77226 0
M  V30 521 N 45.8211 -1.22559 -0.990812 0
M  V30 522 C 47.0691 -1.04933 -1.72724 0
M  V30 523 C 47.3901 0.416158 -1.90508 0
M  V30 524 O 46.6601 1.29918 -1.46622 0
M  V30 525 H 45.2401 -0.385296 -0.639965 0
M  V30 526 H 47.9021 -1.54105 -1.19322 0
M  V30 527 H 46.9981 -1.52886 -2.72089 0
M  V30 528 N 47.2992 1.18797 -1.03562 0
M  V30 529 C 48.2622 2.20464 -0.626769 0
M  V30 530 C 49.2622 1.57721 0.313173 0
M  V30 531 O 50.4522 1.73917 0.0992615 0
M  V30 532 C 47.5842 3.40802 0.0818498 0
M  V30 533 H 48.7772 2.58149 -1.5264 0
M  V30 534 H 46.3302 1.32593 -0.827578 0
M  V30 535 H 47.0652 3.08642 0.995518 0
M  V30 536 H 46.8502 3.8758 -0.593652 0
M  V30 537 H 48.3402 4.16092 0.354584 0
M  V30 538 N 48.7773 0.814389 1.34928 0
M  V30 539 C 49.7403 0.235759 2.27984 0
M  V30 540 C 50.7403 -0.581412 1.49921 0
M  V30 541 O 51.9303 -0.398758 1.69575 0
M  V30 542 C 49.0623 -0.670433 3.34242 0
M  V30 543 H 50.2553 1.05659 2.80671 0
M  V30 544 H 47.8083 0.585614 1.44915 0
M  V30 545 H 48.5433 -1.51466 2.86755 0
M  V30 546 H 48.3283 -0.0860822 3.92005 0
M  V30 547 H 49.8183 -1.06935 4.03676 0
M  V30 548 N 50.2554 -1.46986 0.568584 0
M  V30 549 C 51.5014 -2.02741 0.0488709 0
M  V30 550 C 51.8344 -1.44077 -1.30214 0
M  V30 551 O 51.1094 -0.600552 -1.84996 0
M  V30 552 C 51.3924 -3.60086 -0.032047 0
M  V30 553 C 51.2454 -4.29162 1.34686 0
M  V30 554 C 52.5644 -4.33838 -0.739798 0
M  V30 555 H 49.6834 -0.736749 0.0192338 0
M  V30 556 H 52.3254 -1.75289 0.733065 0
M  V30 557 H 50.4754 -3.83606 -0.61473 0
M  V30 558 H 52.1474 -4.16948 1.97362 0
M  V30 559 H 50.3904 -3.89073 1.91846 0
M  V30 560 H 51.0614 -5.37826 1.24285 0
M  V30 561 H 53.5374 -4.15378 -0.244939 0
M  V30 562 H 52.4134 -5.43537 -0.765406 0
M  V30 563 H 52.6744 -4.03875 -1.79827 0
M  V30 564 N 51.7335 -0.305618 -1.54608 0
M  V30 565 C 52.6965 0.555591 -2.22364 0
M  V30 566 C 53.6965 1.05768 -1.21119 0
M  V30 567 O 54.8865 0.952972 -1.45822 0
M  V30 568 C 52.0185 1.76974 -2.91364 0
M  V30 569 H 53.2115 -0.0364572 -2.99878 0
M  V30 570 H 50.7645 -0.0565007 -1.56198 0
M  V30 571 H 51.4995 2.40151 -2.17941 0
M  V30 572 H 51.2845 1.41732 -3.65588 0
M  V30 573 H 52.7745 2.38148 -3.43038 0
M  V30 574 N 53.2116 1.57565 -0.0334293 0
M  V30 575 C 54.4586 1.91978 0.644272 0
M  V30 576 C 54.7866 0.910231 1.71887 0
M  V30 577 O 54.0416 -0.0801961 1.95536 0
M  V30 578 C 54.3406 3.33112 1.29504 0
M  V30 579 C 54.0066 4.49537 0.350388 0
M  V30 580 C 52.6686 4.81115 0.0903974 0
M  V30 581 C 55.0206 5.20347 -0.298032 0
M  V30 582 C 52.3486 5.8086 -0.825746 0
M  V30 583 C 54.7006 6.2107 -1.20226 0
M  V30 584 C 53.3646 6.51088 -1.4711 0
M  V30 585 H 52.6346 0.702496 0.235756 0
M  V30 586 H 55.2816 1.91259 -0.0961176 0
M  V30 587 H 53.5866 3.30113 2.11028 0
M  V30 588 H 55.2836 3.57011 1.82603 0
M  V30 589 H 51.8736 4.24883 0.563205 0
M  V30 590 H 56.0576 4.96178 -0.110234 0
M  V30 591 H 51.3136 6.02461 -1.04169 0
M  V30 592 H 55.4876 6.75057 -1.71086 0
M  V30 593 H 53.1146 7.28193 -2.18264 0
M  V30 594 N 54.6897 -0.239769 1.55765 0
M  V30 595 C 55.9367 -0.966801 1.7793 0
M  V30 596 C 56.2647 -1.85046 0.599015 0
M  V30 597 O 55.5197 -1.91197 -0.417395 0
M  V30 598 C 55.8187 -1.852 3.05672 0
M  V30 599 C 55.4847 -1.1231 4.36689 0
M  V30 600 C 54.1467 -0.921689 4.72291 0
M  V30 601 C 56.4987 -0.607019 5.17653 0
M  V30 602 C 53.8267 -0.191996 5.86386 0
M  V30 603 C 56.1787 0.109241 6.32506 0
M  V30 604 C 54.8427 0.322073 6.66723 0
M  V30 605 H 54.1127 -0.353778 0.651093 0
M  V30 606 H 56.7597 -0.23634 1.90036 0
M  V30 607 H 55.0647 -2.64975 2.8861 0
M  V30 608 H 56.7617 -2.41635 3.20021 0
M  V30 609 H 53.3517 -1.29004 4.08725 0
M  V30 610 H 57.5357 -0.750153 4.90598 0
M  V30 611 H 52.7917 -0.0166949 6.11398 0
M  V30 612 H 56.9657 0.516737 6.9448 0
M  V30 613 H 54.5927 0.88944 7.54979 0
M  V30 614 N 56.1678 -1.49265 -0.50573 0
M  V30 615 C 57.0778 -1.68312 -1.63427 0
M  V30 616 C 58.0938 -0.565682 -1.64548 0
M  V30 617 O 59.2698 -0.839801 -1.83055 0
M  V30 618 C 56.3348 -1.74107 -2.99813 0
M  V30 619 C 55.3958 -2.97653 -3.09356 0
M  V30 620 C 54.6288 -3.03163 -4.39236 0
M  V30 621 O 54.8518 -2.16396 -5.27758 0
M  V30 622 O 53.7858 -3.9558 -4.53652 0
M  V30 623 H 57.6118 -2.63907 -1.50289 0
M  V30 624 H 55.1968 -1.32951 -0.681502 0
M  V30 625 H 57.0788 -1.803 -3.80881 0
M  V30 626 H 55.7538 -0.816901 -3.13223 0
M  V30 627 H 54.6608 -2.96981 -2.27493 0
M  V30 628 H 55.9938 -3.89535 -3.00871 0
M  V30 629 N 57.6459 0.756429 -1.3826 0
M  V30 630 C 58.5559 1.9009 -1.37488 0
M  V30 631 C 59.5719 1.71855 -0.272366 0
M  V30 632 O 60.7479 1.94827 -0.510318 0
M  V30 633 C 57.8129 3.25421 -1.19592 0
M  V30 634 C 56.8739 3.56202 -2.39622 0
M  V30 635 C 56.1069 4.85075 -2.2257 0
M  V30 636 O 56.3299 5.57246 -1.21793 0
M  V30 637 O 55.2639 5.15269 -3.11098 0
M  V30 638 H 59.0899 1.93695 -2.33914 0
M  V30 639 H 56.6749 0.901313 -1.1915 0
M  V30 640 H 58.5569 4.06337 -1.11661 0
M  V30 641 H 57.2319 3.22634 -0.262486 0
M  V30 642 H 56.1389 2.75458 -2.53128 0
M  V30 643 H 57.4719 3.63747 -3.31586 0
M  V30 644 N 59.124 1.23083 0.984299 0
M  V30 645 C 60.352 1.08714 1.76037 0
M  V30 646 C 60.767 -0.361691 1.85303 0
M  V30 647 O 60.124 -1.25034 1.32939 0
M  V30 648 C 60.175 1.70206 3.18923 0
M  V30 649 O 59.896 3.09423 3.10144 0
M  V30 650 C 61.397 1.61227 4.12941 0
M  V30 651 H 58.617 0.380664 0.552572 0
M  V30 652 H 61.161 1.62853 1.23689 0
M  V30 653 H 59.316 1.20109 3.6831 0
M  V30 654 H 59.73 3.39188 4.00065 0
M  V30 655 H 61.204 2.08962 5.10919 0
M  V30 656 H 61.681 0.570375 4.35481 0
M  V30 657 H 62.287 2.10671 3.69456 0
M  V30 658 N 60.6021 -1.18246 1.0419 0
M  V30 659 C 61.5651 -2.20128 0.638452 0
M  V30 660 C 62.5651 -1.57885 -0.304805 0
M  V30 661 O 63.7551 -1.73967 -0.0900369 0
M  V30 662 C 60.8871 -3.4084 -0.0637751 0
M  V30 663 H 62.0801 -2.57336 1.54007 0
M  V30 664 H 59.6331 -1.32152 0.834598 0
M  V30 665 H 60.3681 -3.09166 -0.979136 0
M  V30 666 H 60.1531 -3.8726 0.614198 0
M  V30 667 H 61.6431 -4.16274 -0.332512 0
M  V30 668 N 62.0802 -0.821533 -1.34494 0
M  V30 669 C 63.4962 -0.507117 -1.51329 0
M  V30 670 C 63.6962 0.968964 -1.76673 0
M  V30 671 O 62.7522 1.75348 -1.81685 0
M  V30 672 C 64.0652 -1.36544 -2.67911 0
M  V30 673 C 65.6132 -1.36242 -2.81793 0
M  V30 674 C 66.0882 -2.2052 -4.01416 0
M  V30 675 N 67.5792 -2.18136 -4.08621 0
M  V30 676 C 68.3142 -2.80095 -5.00334 0
M  V30 677 N 67.8102 -3.51039 -5.9728 0
M  V30 678 N 69.6032 -2.69656 -4.93196 0
M  V30 679 H 61.7542 -1.77729 -1.16302 0
M  V30 680 H 64.0172 -0.757291 -0.570276 0
M  V30 681 H 63.7232 -2.41361 -2.55808 0
M  V30 682 H 63.5972 -1.02917 -3.62888 0
M  V30 683 H 65.9842 -0.322041 -2.93338 0
M  V30 684 H 66.0652 -1.73866 -1.87628 0
M  V30 685 H 65.7092 -3.24607 -3.90631 0
M  V30 686 H 65.6392 -1.80247 -4.94791 0
M  V30 687 H 68.1302 -1.6653 -3.39229 0
M  V30 688 H 68.4432 -3.95565 -6.63889 0
M  V30 689 H 66.7882 -3.55145 -5.97409 0
M  V30 690 H 69.9792 -2.13808 -4.16418 0
M  V30 691 H 70.1522 -3.1823 -5.64476 0
M  V30 692 N 63.5583 1.46682 -0.576371 0
M  V30 693 C 64.4903 2.28341 0.198231 0
M  V30 694 C 65.5033 1.38141 0.861453 0
M  V30 695 O 66.6923 1.62797 0.732082 0
M  V30 696 C 63.7923 3.12986 1.29972 0
M  V30 697 C 62.9653 4.31271 0.729639 0
M  V30 698 C 62.0243 4.97363 1.71803 0
M  V30 699 O 61.0503 5.55156 1.25658 0
M  V30 700 N 62.2523 4.93796 3.05198 0
M  V30 701 H 65.0173 2.9546 -0.502324 0
M  V30 702 H 62.5783 1.56525 -0.413715 0
M  V30 703 H 64.5703 3.54066 1.96008 0
M  V30 704 H 63.1403 2.47984 1.90323 0
M  V30 705 H 62.3603 3.94052 -0.108012 0
M  V30 706 H 63.6483 5.07739 0.328438 0
M  V30 707 H 63.0463 4.48077 3.45317 0
M  V30 708 H 61.6033 5.38837 3.6674 0
M  V30 709 N 65.0364 0.313813 1.54444 0
M  V30 710 C 65.9664 -0.549454 2.26943 0
M  V30 711 C 66.9474 -1.12741 1.27372 0
M  V30 712 O 68.1324 -1.15436 1.56167 0
M  V30 713 C 65.2624 -1.71523 3.01989 0
M  V30 714 C 64.2164 -1.26703 4.08816 0
M  V30 715 C 63.5424 -2.51898 4.71647 0
M  V30 716 C 64.8424 -0.388962 5.2085 0
M  V30 717 H 66.5364 0.0552661 2.99349 0
M  V30 718 H 64.0824 0.0280207 1.43973 0
M  V30 719 H 66.0354 -2.32535 3.51433 0
M  V30 720 H 64.7594 -2.34639 2.27183 0
M  V30 721 H 63.4184 -0.679896 3.6024 0
M  V30 722 H 63.0664 -3.13356 3.93468 0
M  V30 723 H 62.7664 -2.22605 5.43802 0
M  V30 724 H 64.2904 -3.1369 5.23861 0
M  V30 725 H 65.7044 -0.905107 5.6611 0
M  V30 726 H 64.1014 -0.18924 5.99802 0
M  V30 727 H 65.1714 0.582699 4.81386 0
M  V30 728 N 66.5145 -1.57545 0.0417849 0
M  V30 729 C 67.7625 -1.91937 -0.632829 0
M  V30 730 C 68.0835 -0.919978 -1.71934 0
M  V30 731 O 67.3535 0.0366064 -1.95866 0
M  V30 732 H 65.9335 -0.708493 -0.236742 0
M  V30 733 H 68.5955 -1.9468 0.0925745 0
M  V30 734 H 67.6915 -2.92912 -1.07746 0
M  V30 735 N 67.9926 0.231505 -1.5589 0
M  V30 736 C 68.9226 1.29022 -1.94617 0
M  V30 737 C 69.9036 1.4941 -0.813067 0
M  V30 738 O 71.0886 1.6176 -1.07459 0
M  V30 739 C 68.2186 2.64199 -2.25424 0
M  V30 740 C 67.1726 2.58484 -3.41131 0
M  V30 741 C 66.4986 3.97599 -3.57518 0
M  V30 742 C 67.7986 2.1413 -4.76388 0
M  V30 743 H 69.4926 0.968563 -2.83301 0
M  V30 744 H 67.0386 0.464479 -1.36303 0
M  V30 745 H 68.9916 3.38413 -2.51107 0
M  V30 746 H 67.7156 2.98032 -1.33583 0
M  V30 747 H 66.3746 1.86727 -3.15481 0
M  V30 748 H 66.0226 4.28723 -2.6307 0
M  V30 749 H 65.7226 3.94659 -4.35337 0
M  V30 750 H 67.2466 4.7349 -3.85538 0
M  V30 751 H 68.6606 2.78083 -5.01341 0
M  V30 752 H 67.0576 2.2227 -5.57419 0
M  V30 753 H 68.1276 1.09331 -4.72414 0
M  V30 754 N 69.4707 1.49531 0.497807 0
M  V30 755 C 70.7187 1.58865 1.24926 0
M  V30 756 C 71.0397 0.278721 1.92998 0
M  V30 757 O 70.3097 -0.702144 1.82885 0
M  V30 758 H 68.8897 0.585343 0.464094 0
M  V30 759 H 71.5517 1.86174 0.57666 0
M  V30 760 H 70.6477 2.38633 2.01149 0
M  V30 761 N 70.9488 -0.749086 1.3866 0
M  V30 762 C 72.1888 -1.52112 1.36534 0
M  V30 763 C 72.5528 -1.91951 -0.0432316 0
M  V30 764 O 73.7538 -2.68132 -0.189396 0
M  V30 765 C 72.0248 -2.73704 2.29828 0
M  V30 766 S 73.5838 -3.63519 2.45763 0
M  V30 767 H 70.4018 -0.520482 0.484375 0
M  V30 768 H 73.0038 -0.878963 1.74627 0
M  V30 769 H 71.7078 -2.42552 3.31054 0
M  V30 770 H 71.2388 -3.4286 1.929 0
M  V30 771 H 73.2538 -4.66712 1.68505 0
M  V30 772 N 72.4269 -1.23603 -0.977757 0
M  V30 773 C 73.3589 -0.977369 -2.07317 0
M  V30 774 C 74.3719 0.0495845 -1.62724 0
M  V30 775 O 75.5609 -0.186261 -1.77526 0
M  V30 776 C 72.6609 -0.451216 -3.35883 0
M  V30 777 C 71.8339 -1.53896 -4.09432 0
M  V30 778 C 70.8929 -1.01721 -5.16274 0
M  V30 779 O 69.9189 -1.70676 -5.43009 0
M  V30 780 N 71.1209 0.153594 -5.80297 0
M  V30 781 H 73.8859 -1.92047 -2.30082 0
M  V30 782 H 71.4469 -1.14497 -1.14465 0
M  V30 783 H 73.4389 -0.0871574 -4.04606 0
M  V30 784 H 72.0089 0.397368 -3.10064 0
M  V30 785 H 71.2289 -2.07566 -3.35127 0
M  V30 786 H 72.5169 -2.27037 -4.55337 0
M  V30 787 H 71.9149 0.730323 -5.60966 0
M  V30 788 H 70.4719 0.458892 -6.50183 0
M  V30 789 N 73.905 1.17692 -1.04816 0
M  V30 790 C 74.852 2.21581 -0.645797 0
M  V30 791 C 75.822 1.62367 0.350159 0
M  V30 792 O 77.007 1.89254 0.242433 0
M  V30 793 C 74.147 3.45092 -0.0227568 0
M  V30 794 C 73.26 4.18613 -1.06709 0
M  V30 795 C 72.395 5.29602 -0.411767 0
M  V30 796 C 71.434 5.94904 -1.44067 0
M  V30 797 N 70.571 6.97414 -0.809781 0
M  V30 798 H 75.411 2.55353 -1.5362 0
M  V30 799 H 72.948 1.25438 -0.768364 0
M  V30 800 H 74.906 4.15679 0.35588 0
M  V30 801 H 73.536 3.11917 0.831122 0
M  V30 802 H 72.588 3.46779 -1.5636 0
M  V30 803 H 73.9 4.63293 -1.84827 0
M  V30 804 H 73.054 6.06696 0.0206623 0
M  V30 805 H 71.793 4.86045 0.401438 0
M  V30 806 H 70.798 5.16544 -1.88316 0
M  V30 807 H 72.023 6.40542 -2.25571 0
M  V30 808 H 69.969 6.55998 -0.0170186 0
M  V30 809 H 69.886 7.40386 -1.52856 0
M  V30 810 H 71.154 7.78463 -0.401999 0
M  V30 811 N 75.3831 0.828654 1.34056 0
M  V30 812 C 76.6291 0.42008 1.98402 0
M  V30 813 C 76.9621 -1.01564 1.65525 0
M  V30 814 O 76.2371 -1.70834 0.929831 0
M  V30 815 C 76.5201 0.62927 3.54559 0
M  V30 816 C 76.3731 2.11152 3.97159 0
M  V30 817 C 77.6921 0.0688756 4.40046 0
M  V30 818 H 74.8111 0.154104 0.720709 0
M  V30 819 H 77.4531 1.04228 1.5886 0
M  V30 820 H 75.6031 0.0996418 3.88372 0
M  V30 821 H 77.2751 2.70522 3.73651 0
M  V30 822 H 75.5181 2.59985 3.47261 0
M  V30 823 H 76.1891 2.20868 5.05887 0
M  V30 824 H 78.6651 0.521458 4.1282 0
M  V30 825 H 77.5411 0.245006 5.48353 0
M  V30 826 H 77.8021 -1.0266 4.30015 0
M  V30 827 N 76.8612 -1.46375 0.584142 0
M  V30 828 C 77.7712 -2.34115 -0.150728 0
M  V30 829 C 78.7872 -1.49838 -0.884567 0
M  V30 830 O 79.9632 -1.82704 -0.847429 0
M  V30 831 C 77.0282 -3.2705 -1.15062 0
M  V30 832 C 76.0892 -4.27228 -0.421293 0
M  V30 833 C 75.3222 -5.15722 -1.37355 0
M  V30 834 O 75.5452 -5.07176 -2.61014 0
M  V30 835 O 74.4792 -5.95383 -0.883355 0
M  V30 836 H 78.3052 -2.98309 0.569708 0
M  V30 837 H 75.8902 -1.45373 0.344535 0
M  V30 838 H 77.7722 -3.84381 -1.72712 0
M  V30 839 H 76.4472 -2.65451 -1.8525 0
M  V30 840 H 75.3542 -3.7358 0.197085 0
M  V30 841 H 76.6872 -4.91616 0.239641 0
M  V30 842 N 78.3393 -0.321999 -1.54275 0
M  V30 843 C 79.5853 0.281461 -2.00837 0
M  V30 844 C 79.9183 1.51909 -1.20985 0
M  V30 845 O 79.1933 1.923 -0.291733 0
M  V30 846 C 79.4763 0.617162 -3.54772 0
M  V30 847 C 79.3293 -0.631064 -4.45351 0
M  V30 848 C 80.6483 1.43542 -4.16033 0
M  V30 849 H 77.7673 0.100826 -0.730071 0
M  V30 850 H 80.4093 -0.438268 -1.84876 0
M  V30 851 H 78.5593 1.23034 -3.68504 0
M  V30 852 H 80.2313 -1.26934 -4.43492 0
M  V30 853 H 78.4743 -1.26025 -4.15091 0
M  V30 854 H 79.1453 -0.351735 -5.50878 0
M  V30 855 H 81.6213 0.917134 -4.05867 0
M  V30 856 H 80.4973 1.63907 -5.23856 0
M  V30 857 H 80.7583 2.43108 -3.69257 0
M  V30 858 N 79.8174 1.5752 -0.0501392 0
M  V30 859 C 80.7804 2.1037 0.909786 0
M  V30 860 C 81.7804 1.02308 1.24056 0
M  V30 861 O 82.9704 1.28385 1.17741 0
M  V30 862 C 80.1024 2.58708 2.21998 0
M  V30 863 H 81.2954 2.96479 0.451665 0
M  V30 864 H 78.8484 1.55038 0.198248 0
M  V30 865 H 79.5834 1.75989 2.72394 0
M  V30 866 H 79.3684 3.37675 1.99295 0
M  V30 867 H 80.8584 2.99747 2.9076 0
M  V30 868 N 81.2955 -0.223234 1.56011 0
M  V30 869 C 82.7065 -0.790368 1.69145 0
M  V30 870 C 83.0575 -1.85055 0.651845 0
M  V30 871 O 82.1825 -2.15498 -0.197359 0
M  V30 872 C 82.7775 -1.4404 3.06656 0
M  V30 873 C 81.3365 -1.95494 3.2165 0
M  V30 874 C 80.4835 -0.814506 2.65068 0
M  V30 875 H 83.4345 0.00139011 1.587 0
M  V30 876 H 83.4555 -2.30916 3.0242 0
M  V30 877 H 82.9675 -0.668543 3.82298 0
M  V30 878 H 81.0685 -2.75487 2.50874 0
M  V30 879 H 81.1815 -2.13607 4.28846 0
M  V30 880 H 79.5455 -1.22137 2.23505 0
M  V30 881 H 80.3285 -0.0553515 3.43255 0
M  V30 882 N 82.7736 -1.49793 -0.48987 0
M  V30 883 C 84.0216 -1.59525 -1.24081 0
M  V30 884 C 84.3426 -0.288953 -1.92847 0
M  V30 885 O 83.6126 0.692436 -1.83254 0
M  V30 886 H 82.1926 -0.587796 -0.460983 0
M  V30 887 H 84.8546 -1.86477 -0.566778 0
M  V30 888 H 83.9506 -2.39696 -1.99881 0
M  V30 889 N 84.2517 0.741722 -1.39055 0
M  V30 890 C 85.4817 1.52876 -1.3897 0
M  V30 891 C 85.8897 1.8919 0.0193266 0
M  V30 892 O 85.2327 1.54138 0.999356 0
M  V30 893 C 85.2947 2.84929 -2.19216 0
M  V30 894 C 84.9587 2.71086 -3.67915 0
M  V30 895 C 85.9557 2.40084 -4.61146 0
M  V30 896 C 83.6407 2.88168 -4.11418 0
M  V30 897 C 85.6347 2.26335 -5.95862 0
M  V30 898 C 83.3217 2.74037 -5.46211 0
M  V30 899 C 84.3197 2.43166 -6.38247 0
M  V30 900 O 84.0077 2.29115 -7.70559 0
M  V30 901 H 83.7397 0.479252 -0.476753 0
M  V30 902 H 86.2937 0.924751 -1.83405 0
M  V30 903 H 84.5237 3.47564 -1.69518 0
M  V30 904 H 86.2127 3.46509 -2.11392 0
M  V30 905 H 86.9787 2.26545 -4.28838 0
M  V30 906 H 82.8577 3.11191 -3.40119 0
M  V30 907 H 86.4017 2.0216 -6.67665 0
M  V30 908 H 82.2987 2.87153 -5.78112 0
M  V30 909 H 83.0667 2.44237 -7.81211 0
M  V30 910 N 85.7298 1.2412 0.971189 0
M  V30 911 C 86.9758 1.08041 1.71625 0
M  V30 912 C 87.3088 -0.380407 1.90438 0
M  V30 913 O 86.5838 -1.28127 1.46334 0
M  V30 914 C 86.8668 1.81682 3.10908 0
M  V30 915 C 86.7198 3.35493 2.99608 0
M  V30 916 C 88.0388 1.58671 4.10501 0
M  V30 917 H 85.1578 0.39388 0.622919 0
M  V30 918 H 87.7998 1.52743 1.13003 0
M  V30 919 H 85.9498 1.43684 3.60953 0
M  V30 920 H 87.6218 3.83068 2.57015 0
M  V30 921 H 85.8648 3.64052 2.35899 0
M  V30 922 H 86.5358 3.82217 3.98264 0
M  V30 923 H 89.0118 1.91719 3.69301 0
M  V30 924 H 87.8878 2.1266 5.06031 0
M  V30 925 H 88.1488 0.524161 4.38982 0
M  V30 926 N 87.2079 -1.17134 1.05439 0
M  V30 927 C 88.4539 -1.87733 0.767077 0
M  V30 928 C 88.7869 -1.8098 -0.704253 0
M  V30 929 O 88.0619 -1.21951 -1.5152 0
M  V30 930 C 88.3449 -3.37659 1.25133 0
M  V30 931 C 88.1979 -3.53149 2.78578 0
M  V30 932 C 89.5169 -4.31768 0.852324 0
M  V30 933 H 86.6359 -0.681687 0.280129 0
M  V30 934 H 89.2779 -1.37732 1.30881 0
M  V30 935 H 87.4279 -3.80373 0.790469 0
M  V30 936 H 89.0999 -3.19434 3.32806 0
M  V30 937 H 87.3429 -2.95345 3.17732 0
M  V30 938 H 88.0139 -4.58403 3.07523 0
M  V30 939 H 90.4899 -3.96909 1.24911 0
M  V30 940 H 89.3659 -5.35199 1.21873 0
M  V30 941 H 89.6269 -4.41429 -0.243485 0
M  V30 942 N 88.686 -0.835752 -1.33615 0
M  V30 943 C 89.914 -0.443344 -2.02094 0
M  V30 944 C 90.329 0.954522 -1.62894 0
M  V30 945 O 89.686 1.61982 -0.840723 0
M  V30 946 C 89.737 -0.550775 -3.5728 0
M  V30 947 O 89.458 -1.89356 -3.95065 0
M  V30 948 C 90.959 -0.154919 -4.43029 0
M  V30 949 H 88.179 -0.176359 -0.647409 0
M  V30 950 H 90.723 -1.12746 -1.70612 0
M  V30 951 H 88.878 0.0853997 -3.87306 0
M  V30 952 H 89.292 -1.87687 -4.89769 0
M  V30 953 H 90.766 -0.281144 -5.51284 0
M  V30 954 H 91.243 0.902863 -4.2982 0
M  V30 955 H 91.849 -0.765404 -4.18356 0
M  V30 956 N 90.1641 1.46063 -0.591896 0
M  V30 957 C 91.4101 2.02638 -0.0811191 0
M  V30 958 C 91.7431 1.4613 1.27905 0
M  V30 959 O 91.0181 0.629908 1.84017 0
M  V30 960 C 91.3011 3.60091 -0.0252436 0
M  V30 961 C 91.1541 4.26965 -1.41496 0
M  V30 962 C 92.4731 4.3496 0.670685 0
M  V30 963 H 89.5921 0.73635 -0.0309524 0
M  V30 964 H 92.2341 1.741 -0.760859 0
M  V30 965 H 90.3841 3.84535 0.553624 0
M  V30 966 H 92.0561 4.13756 -2.0397 0
M  V30 967 H 90.2991 3.85971 -1.98011 0
M  V30 968 H 90.9701 5.35781 -1.32825 0
M  V30 969 H 93.4461 4.15716 0.178825 0
M  V30 970 H 92.3221 5.44686 0.678837 0
M  V30 971 H 92.5831 4.06685 1.73379 0
M  V30 972 N 91.6422 0.330177 1.54103 0
M  V30 973 C 92.5722 -0.525353 2.27513 0
M  V30 974 C 93.5532 -1.11383 1.2856 0
M  V30 975 O 94.7382 -1.13773 1.57383 0
M  V30 976 C 91.8682 -1.6831 3.03791 0
M  V30 977 C 90.8222 -1.2236 4.10137 0
M  V30 978 C 90.1482 -2.46882 4.74293 0
M  V30 979 C 91.4482 -0.333697 5.21233 0
M  V30 980 H 93.1422 0.087013 2.99274 0
M  V30 981 H 90.6882 0.0432893 1.43935 0
M  V30 982 H 92.6412 -2.28795 3.5388 0
M  V30 983 H 91.3652 -2.32216 2.29659 0
M  V30 984 H 90.0242 -0.64165 3.60941 0
M  V30 985 H 89.6722 -3.09165 3.96769 0
M  V30 986 H 89.3722 -2.16825 5.46133 0
M  V30 987 H 90.8962 -3.08117 5.27159 0
M  V30 988 H 92.3102 -0.845013 5.67038 0
M  V30 989 H 90.7072 -0.125612 5.99969 0
M  V30 990 H 91.7772 0.633724 4.80741 0
M  V30 991 N 93.1203 -1.57491 0.0584922 0
M  V30 992 C 94.3483 -1.97296 -0.623037 0
M  V30 993 C 94.7633 -0.936338 -1.63946 0
M  V30 994 O 94.1203 0.0785981 -1.82331 0
M  V30 995 C 94.1713 -3.37183 -1.30345 0
M  V30 996 O 93.8923 -4.36872 -0.32773 0
M  V30 997 C 95.3933 -3.91788 -2.07406 0
M  V30 998 H 92.6133 -0.649153 -0.169826 0
M  V30 999 H 95.1573 -2.04106 0.12696 0
M  V30 1000 H 93.3123 -3.31502 -2.00463 0
M  V30 1001 H 93.7263 -5.18141 -0.814269 0
M  V30 1002 H 95.2003 -4.91926 -2.50425 0
M  V30 1003 H 95.6773 -3.27609 -2.92521 0
M  V30 1004 H 96.2833 -4.00829 -1.42184 0
M  V30 1005 N 94.5984 0.214957 -1.56127 0
M  V30 1006 C 95.8444 0.935325 -1.80619 0
M  V30 1007 C 96.1994 1.81706 -0.632507 0
M  V30 1008 O 95.4924 1.87931 0.373182 0
M  V30 1009 C 95.6864 1.80314 -3.0858 0
M  V30 1010 C 95.5154 1.00691 -4.38282 0
M  V30 1011 C 94.2854 0.699211 -5.00439 0
M  V30 1012 C 96.4834 0.369057 -5.12974 0
M  V30 1013 N 94.4654 -0.117734 -6.13787 0
M  V30 1014 C 95.8364 -0.310981 -6.1922 0
M  V30 1015 C 97.8914 0.282759 -4.97096 0
M  V30 1016 C 96.5944 -1.06907 -7.11311 0
M  V30 1017 C 98.6204 -0.461881 -5.89594 0
M  V30 1018 C 97.9824 -1.13044 -6.9527 0
M  V30 1019 H 94.0814 0.322307 -0.71249 0
M  V30 1020 H 96.6654 0.205649 -1.93611 0
M  V30 1021 H 94.8364 2.50458 -2.96859 0
M  V30 1022 H 96.5684 2.46148 -3.21237 0
M  V30 1023 H 93.3234 1.01884 -4.62511 0
M  V30 1024 H 93.7474 -0.515235 -6.75037 0
M  V30 1025 H 98.3894 0.785292 -4.15443 0
M  V30 1026 H 96.1074 -1.5831 -7.92442 0
M  V30 1027 H 99.6934 -0.529746 -5.79383 0
M  V30 1028 H 98.5734 -1.69742 -7.65609 0
M  V30 1029 N 96.0765 1.50051 0.48192 0
M  V30 1030 C 97.4875 1.5348 1.06305 0
M  V30 1031 C 97.8385 0.331997 1.93371 0
M  V30 1032 O 96.9635 -0.556256 2.09129 0
M  V30 1033 C 97.5585 2.7813 1.93466 0
M  V30 1034 C 96.1175 2.84275 2.46707 0
M  V30 1035 C 95.2645 2.47637 1.24785 0
M  V30 1036 H 98.2155 1.56472 0.264995 0
M  V30 1037 H 98.2365 2.59372 2.78399 0
M  V30 1038 H 97.7485 3.65654 1.30072 0
M  V30 1039 H 95.8495 2.01077 3.13686 0
M  V30 1040 H 95.9625 3.8691 2.82555 0
M  V30 1041 H 94.3265 1.99835 1.57918 0
M  V30 1042 H 95.1095 3.37457 0.630694 0
M  V30 1043 N 97.5546 -0.734337 1.39446 0
M  V30 1044 C 98.8026 -1.49096 1.36436 0
M  V30 1045 C 99.1236 -1.94961 -0.0388255 0
M  V30 1046 O 98.3936 -1.69033 -0.990191 0
M  V30 1047 H 96.9736 -0.5531 0.502085 0
M  V30 1048 H 99.6356 -0.871725 1.74319 0
M  V30 1049 H 98.7316 -2.37276 2.02747 0
M  V30 1050 N 99.0327 -1.24633 -0.964593 0
M  V30 1051 C 100.261 -1.11501 -1.74285 0
M  V30 1052 C 100.676 0.332165 -1.85855 0
M  V30 1053 O 100.033 1.22903 -1.34911 0
M  V30 1054 C 100.084 -1.75258 -3.16175 0
M  V30 1055 O 99.8047 -3.14318 -3.05182 0
M  V30 1056 C 101.306 -1.67776 -4.10324 0
M  V30 1057 H 98.5257 -0.389407 -0.546446 0
M  V30 1058 H 101.07 -1.64801 -1.21083 0
M  V30 1059 H 99.2247 -1.25954 -3.66353 0
M  V30 1060 H 99.6387 -3.4551 -3.94618 0
M  V30 1061 H 101.113 -2.17064 -5.0753 0
M  V30 1062 H 101.59 -0.639584 -4.34518 0
M  V30 1063 H 102.196 -2.16522 -3.66058 0
M  V30 1064 N 100.511 1.16574 -1.06058 0
M  V30 1065 C 101.459 2.22941 -0.663343 0
M  V30 1066 C 102.453 1.66358 0.319593 0
M  V30 1067 O 103.659 1.7905 0.184713 0
M  V30 1068 H 100.034 0.725907 -0.196376 0
M  V30 1069 H 102.005 2.53736 -1.57037 0
M  V30 1070 C 100.754 3.47642 -0.0632808 0
M  V30 1071 H 100.077 3.91493 -0.810733 0
M  V30 1072 H 101.517 4.2363 0.177177 0
M  V30 1073 C 99.9758 3.1509 1.19248 0
M  V30 1074 O 100.506 3.30673 2.28075 0
M  V30 1075 N 98.7118 2.6924 1.09353 0
M  V30 1076 H 98.2588 2.5676 0.207912 0
M  V30 1077 H 98.2168 2.47833 1.93458 0
M  V30 1078 N 101.989 0.842826 1.3317 0
M  V30 1079 C 103.4 0.496651 1.79973 0
M  V30 1080 C 103.751 -0.984641 1.69703 0
M  V30 1081 O 102.876 -1.76743 1.24863 0
M  V30 1082 C 103.471 0.894727 3.26772 0
M  V30 1083 C 102.03 0.600629 3.71577 0
M  V30 1084 C 101.177 1.10091 2.5451 0
M  V30 1085 H 104.128 1.03116 1.20635 0
M  V30 1086 H 104.149 0.206347 3.7994 0
M  V30 1087 H 103.661 1.97287 3.34215 0
M  V30 1088 H 101.762 -0.467284 3.69658 0
M  V30 1089 H 101.875 1.15863 4.64879 0
M  V30 1090 H 100.239 0.52162 2.49301 0
M  V30 1091 H 101.022 2.18591 2.64713 0
M  V30 1092 N 103.467 -1.45747 0.599634 0
M  V30 1093 C 104.695 -2.06668 0.0978551 0
M  V30 1094 C 105.11 -1.44562 -1.21439 0
M  V30 1095 O 104.467 -0.556923 -1.73795 0
M  V30 1096 C 104.518 -3.61456 -0.0567044 0
M  V30 1097 O 104.239 -4.21242 1.20361 0
M  V30 1098 C 105.74 -4.39345 -0.590869 0
M  V30 1099 H 102.96 -0.667825 0.0651943 0
M  V30 1100 H 105.504 -1.87115 0.82511 0
M  V30 1101 H 103.659 -3.80378 -0.734251 0
M  V30 1102 H 104.073 -5.14323 1.02821 0
M  V30 1103 H 105.547 -5.48182 -0.648131 0
M  V30 1104 H 106.024 -4.08568 -1.61147 0
M  V30 1105 H 106.63 -4.25268 0.0523679 0
M  V30 1106 N 104.945 -0.338344 -1.53925 0
M  V30 1107 C 105.875 0.51328 -2.27789 0
M  V30 1108 C 106.856 1.107 -1.29149 0
M  V30 1109 O 108.041 1.12937 -1.57984 0
M  V30 1110 C 105.171 1.66697 -3.04679 0
M  V30 1111 C 104.125 1.20183 -4.1078 0
M  V30 1112 C 103.451 2.44363 -4.75595 0
M  V30 1113 C 104.751 0.30605 -5.21403 0
M  V30 1114 H 106.445 -0.102883 -2.99223 0
M  V30 1115 H 103.991 -0.0509219 -1.4391 0
M  V30 1116 H 105.944 2.26915 -3.55088 0
M  V30 1117 H 104.668 2.30995 -2.30887 0
M  V30 1118 H 103.327 0.622499 -3.61276 0
M  V30 1119 H 102.975 3.07057 -3.98403 0
M  V30 1120 H 102.675 2.13925 -5.47275 0
M  V30 1121 H 104.199 3.05317 -5.28786 0
M  V30 1122 H 105.613 0.814929 -5.67478 0
M  V30 1123 H 104.01 0.0937929 -6.00027 0
M  V30 1124 H 105.08 -0.65921 -4.80398 0
M  V30 1125 N 106.423 1.57458 -0.0668435 0
M  V30 1126 C 107.648 1.9804 0.616027 0
M  V30 1127 C 108.073 0.944771 1.62652 0
M  V30 1128 O 107.431 -0.0902094 1.81075 0
M  V30 1129 C 107.479 3.37665 1.26549 0
M  V30 1130 O 106.583 3.36701 2.38131 0
M  V30 1131 H 105.924 0.644719 0.158849 0
M  V30 1132 H 108.454 2.04121 -0.139891 0
M  V30 1133 H 108.464 3.7474 1.6135 0
M  V30 1134 H 107.139 4.12573 0.525016 0
M  V30 1135 H 105.716 3.1139 2.0516 0
M  V30 1136 N 107.901 -0.206675 1.56239 0
M  V30 1137 C 109.126 -0.949474 1.8439 0
M  V30 1138 C 109.551 -1.76549 0.649016 0
M  V30 1139 O 108.909 -1.76782 -0.402231 0
M  V30 1140 C 108.957 -1.83078 3.10668 0
M  V30 1141 O 108.061 -2.9281 2.90407 0
M  V30 1142 H 107.402 -0.268033 0.607499 0
M  V30 1143 H 109.932 -0.215488 2.03462 0
M  V30 1144 H 109.942 -2.2377 3.41161 0
M  V30 1145 H 108.617 -1.23112 3.97261 0
M  V30 1146 H 107.194 -2.55956 2.71184 0
M  V30 1147 N 109.379 -1.50304 -0.473955 0
M  V30 1148 C 110.628 -1.60392 -1.22301 0
M  V30 1149 C 110.941 -0.308411 -1.93153 0
M  V30 1150 O 112.147 -0.288156 -2.69966 0
M  V30 1151 C 110.603 -2.83109 -2.2221 0
M  V30 1152 C 110.211 -4.19524 -1.57173 0
M  V30 1153 C 111.955 -3.0254 -2.97775 0
M  V30 1154 C 109.862 -5.33431 -2.55353 0
M  V30 1155 H 108.792 -0.597286 -0.460179 0
M  V30 1156 H 111.443 -1.76731 -0.493803 0
M  V30 1157 H 109.825 -2.60322 -2.9841 0
M  V30 1158 H 110.999 -4.52554 -0.867824 0
M  V30 1159 H 109.314 -4.05674 -0.939002 0
M  V30 1160 H 111.911 -3.84811 -3.71248 0
M  V30 1161 H 112.254 -2.14154 -3.56992 0
M  V30 1162 H 112.787 -3.25494 -2.28688 0
M  V30 1163 H 109.526 -6.23962 -2.00878 0
M  V30 1164 H 109.046 -5.04823 -3.23904 0
M  V30 1165 H 110.725 -5.63887 -3.17239 0
M  V30 1166 N 110.857 0.726932 -1.39834 0
M  V30 1167 C 111.787 1.85405 -1.41941 0
M  V30 1168 C 112.768 1.67751 -0.281728 0
M  V30 1169 O 113.953 1.8795 -0.488717 0
M  V30 1170 C 111.083 3.23243 -1.2701 0
M  V30 1171 C 110.037 3.55549 -2.38262 0
M  V30 1172 C 109.363 4.9241 -2.08415 0
M  V30 1173 C 110.663 3.577 -3.80589 0
M  V30 1174 H 112.357 1.83899 -2.36266 0
M  V30 1175 H 109.903 0.883349 -1.13723 0
M  V30 1176 H 111.856 4.01775 -1.27103 0
M  V30 1177 H 110.58 3.25296 -0.291564 0
M  V30 1178 H 109.239 2.79351 -2.37399 0
M  V30 1179 H 108.887 4.91052 -1.0898 0
M  V30 1180 H 108.587 5.14992 -2.82943 0
M  V30 1181 H 110.111 5.73289 -2.10171 0
M  V30 1182 H 111.525 4.26293 -3.83337 0
M  V30 1183 H 109.922 3.91804 -4.54543 0
M  V30 1184 H 110.992 2.57328 -4.10987 0
M  V30 1185 N 112.336 1.25143 0.95797 0
M  V30 1186 C 113.266 1.07711 2.07173 0
M  V30 1187 C 114.247 -0.0128462 1.70095 0
M  V30 1188 O 115.432 0.156061 1.93572 0
M  V30 1189 C 112.562 0.691503 3.40346 0
M  V30 1190 C 111.516 1.73132 3.9142 0
M  V30 1191 C 110.842 1.20049 5.21049 0
M  V30 1192 C 112.142 3.1294 4.1817 0
M  V30 1193 H 113.836 2.00873 2.22014 0
M  V30 1194 H 111.382 0.967191 1.06684 0
M  V30 1195 H 113.335 0.556505 4.17709 0
M  V30 1196 H 112.059 -0.275819 3.25433 0
M  V30 1197 H 110.718 1.8547 3.16222 0
M  V30 1198 H 110.366 0.223499 5.02503 0
M  V30 1199 H 110.066 1.89545 5.56189 0
M  V30 1200 H 111.59 1.07782 6.01012 0
M  V30 1201 H 113.004 3.03775 4.86203 0
M  V30 1202 H 111.401 3.79875 4.64559 0
M  V30 1203 H 112.471 3.6025 3.24573 0
M  V30 1204 N 113.814 -1.1601 1.06675 0
M  V30 1205 C 114.762 -2.22586 0.675157 0
M  V30 1206 C 115.756 -1.66525 -0.310766 0
M  V30 1207 O 116.962 -1.79145 -0.175215 0
M  V30 1208 H 113.337 -0.724855 0.200223 0
M  V30 1209 H 115.308 -2.52899 1.58381 0
M  V30 1210 C 114.057 -3.47604 0.0817162 0
M  V30 1211 H 113.38 -3.91058 0.831484 0
M  V30 1212 H 114.82 -4.23718 -0.154708 0
M  V30 1213 C 113.279 -3.15718 -1.17576 0
M  V30 1214 O 113.809 -3.31878 -2.26318 0
M  V30 1215 N 112.015 -2.69816 -1.07923 0
M  V30 1216 H 111.562 -2.56866 -0.194293 0
M  V30 1217 H 111.52 -2.48855 -1.92141 0
M  V30 1218 N 115.292 -0.849877 -1.32721 0
M  V30 1219 C 116.517 -0.463856 -2.02146 0
M  V30 1220 C 116.942 0.930449 -1.63476 0
M  V30 1221 O 116.3 1.61033 -0.832952 0
M  V30 1222 C 116.348 -0.604955 -3.55489 0
M  V30 1223 O 115.452 0.36425 -4.10788 0
M  V30 1224 H 114.793 -0.187046 -0.637111 0
M  V30 1225 H 117.323 -1.14775 -1.69375 0
M  V30 1226 H 117.333 -0.490696 -4.05038 0
M  V30 1227 H 116.008 -1.62174 -3.82978 0
M  V30 1228 H 114.585 0.206628 -3.72327 0
M  V30 1229 N 116.77 1.45427 -0.607355 0
M  V30 1230 C 117.72 2.27612 0.133038 0
M  V30 1231 C 118.704 1.37307 0.838785 0
M  V30 1232 O 119.896 1.61299 0.728813 0
M  V30 1233 C 117.025 3.24173 1.12991 0
M  V30 1234 C 116.111 4.21965 0.425011 0
M  V30 1235 N 116.502 5.02982 -0.533217 0
M  V30 1236 C 114.8 4.40899 0.672593 0
M  V30 1237 C 115.501 5.73931 -0.947518 0
M  V30 1238 N 114.477 5.42819 -0.291321 0
M  V30 1239 H 118.279 2.87649 -0.602935 0
M  V30 1240 H 115.793 1.56576 -0.431006 0
M  V30 1241 H 117.79 3.81783 1.67473 0
M  V30 1242 H 116.45 2.65696 1.86644 0
M  V30 1243 H 117.461 5.09843 -0.90995 0
M  V30 1244 H 114.138 3.93547 1.39382 0
M  V30 1245 H 115.528 6.49037 -1.73782 0
M  V30 1246 N 118.248 0.346503 1.53744 0
M  V30 1247 C 119.476 -0.25041 2.05379 0
M  V30 1248 C 119.891 -1.43979 1.22129 0
M  V30 1249 O 119.248 -1.80677 0.257321 0
M  V30 1250 C 119.299 -0.662575 3.55376 0
M  V30 1251 O 119.02 0.479515 4.35468 0
M  V30 1252 C 120.521 -1.31989 4.23195 0
M  V30 1253 H 117.741 -0.0478198 0.669294 0
M  V30 1254 H 120.285 0.499346 1.9831 0
M  V30 1255 H 118.44 -1.36227 3.62658 0
M  V30 1256 H 118.854 0.15037 5.24284 0
M  V30 1257 H 120.328 -1.55902 5.29527 0
M  V30 1258 H 120.805 -2.27436 3.75725 0
M  V30 1259 H 121.411 -0.662154 4.20114 0
M  V30 1260 N 119.726 -1.57421 0.075193 0
M  V30 1261 C 121.003 -1.85029 -0.634329 0
M  V30 1262 C 121.383 -0.968305 -1.87582 0
M  V30 1263 O 120.731 -0.0354749 -2.28472 0
M  V30 1264 C 120.941 -3.35286 -0.968742 0
M  V30 1265 C 122.289 -4.02875 -1.34077 0
M  V30 1266 O 123.313 -3.40051 -1.06037 0
M  V30 1267 O 122.172 -5.13691 -1.86506 0
M  V30 1268 H 119.266 -0.7645 -0.315387 0
M  V30 1269 H 121.812 -1.69366 0.106382 0
M  V30 1270 H 120.584 -3.91203 -0.0871376 0
M  V30 1271 H 120.207 -3.56223 -1.7661 0
M  V30 1272 N 121.204 0.198386 -1.56346 0
M  V30 1273 C 122.45 0.920648 -1.80698 0
M  V30 1274 C 122.783 1.83045 -0.648697 0
M  V30 1275 O 122.058 1.91308 0.350925 0
M  V30 1276 C 122.341 1.73971 -3.15287 0
M  V30 1277 C 122.194 0.85485 -4.41602 0
M  V30 1278 C 123.513 2.71296 -3.46535 0
M  V30 1279 H 120.632 0.333261 -0.657348 0
M  V30 1280 H 123.274 0.188198 -1.89066 0
M  V30 1281 H 121.424 2.36416 -3.08285 0
M  V30 1282 H 123.096 0.245362 -4.60647 0
M  V30 1283 H 121.339 0.161398 -4.335 0
M  V30 1284 H 122.01 1.46286 -5.32264 0
M  V30 1285 H 124.486 2.18983 -3.53816 0
M  V30 1286 H 123.362 3.2569 -4.41834 0
M  V30 1287 H 123.623 3.5018 -2.69864 0
M  V30 1288 N 122.682 1.50554 0.465978 0
M  V30 1289 C 123.928 1.62038 1.21949 0
M  V30 1290 C 124.261 0.322116 1.9151 0
M  V30 1291 O 123.536 -0.676723 1.82348 0
M  V30 1292 C 123.819 2.80421 2.25912 0
M  V30 1293 C 123.672 4.20144 1.60622 0
M  V30 1294 C 124.991 2.94354 3.27176 0
M  V30 1295 H 122.11 0.589752 0.441998 0
M  V30 1296 H 124.752 1.82956 0.51257 0
M  V30 1297 H 122.902 2.62717 2.86203 0
M  V30 1298 H 124.574 4.49449 1.03889 0
M  V30 1299 H 122.817 4.24165 0.909211 0
M  V30 1300 H 123.488 4.98914 2.36196 0
M  V30 1301 H 125.964 3.10578 2.76913 0
M  V30 1302 H 124.84 3.788 3.97242 0
M  V30 1303 H 125.101 2.05186 3.916 0
M  V30 1304 N 124.16 -0.719506 1.40217 0
M  V30 1305 C 125.571 -1.29848 1.34151 0
M  V30 1306 C 125.922 -1.96196 0.0131349 0
M  V30 1307 O 125.047 -1.973 -0.88892 0
M  V30 1308 C 125.642 -2.36118 2.42968 0
M  V30 1309 C 124.201 -2.8965 2.40374 0
M  V30 1310 C 123.348 -1.63393 2.24049 0
M  V30 1311 H 126.299 -0.51591 1.5008 0
M  V30 1312 H 126.32 -3.16871 2.10649 0
M  V30 1313 H 125.832 -1.878 3.39636 0
M  V30 1314 H 123.933 -3.42208 1.47392 0
M  V30 1315 H 124.046 -3.4171 3.35814 0
M  V30 1316 H 122.41 -1.88312 1.71495 0
M  V30 1317 H 123.193 -1.17104 3.2271 0
M  V30 1318 N 125.638 -1.25649 -0.95132 0
M  V30 1319 C 126.884 -1.10757 -1.69884 0
M  V30 1320 C 127.217 0.350061 -1.91019 0
M  V30 1321 O 126.492 1.25783 -1.48354 0
M  V30 1322 C 126.775 -1.86606 -3.07978 0
M  V30 1323 C 126.628 -3.40217 -2.94232 0
M  V30 1324 C 127.947 -1.65182 -4.07925 0
M  V30 1325 H 125.066 -0.40374 -0.616574 0
M  V30 1326 H 127.708 -1.54521 -1.10558 0
M  V30 1327 H 125.858 -1.49409 -3.58621 0
M  V30 1328 H 127.53 -3.87108 -2.50889 0
M  V30 1329 H 125.773 -3.67759 -2.30078 0
M  V30 1330 H 126.444 -3.88505 -3.92133 0
M  V30 1331 H 128.92 -1.9757 -3.66204 0
M  V30 1332 H 127.796 -2.20683 -5.02583 0
M  V30 1333 H 128.057 -0.593933 -4.38092 0
M  V30 1334 N 127.117 1.15442 -1.07289 0
M  V30 1335 C 128.364 1.86213 -0.795668 0
M  V30 1336 C 128.692 1.82291 0.678238 0
M  V30 1337 O 127.947 1.24057 1.51355 0
M  V30 1338 C 128.246 3.3489 -1.24834 0
M  V30 1339 C 127.912 3.59007 -2.72809 0
M  V30 1340 C 126.574 3.65298 -3.13227 0
M  V30 1341 C 128.926 3.68762 -3.68326 0
M  V30 1342 C 126.254 3.78854 -4.4798 0
M  V30 1343 C 128.606 3.83842 -5.0284 0
M  V30 1344 C 127.27 3.88378 -5.4288 0
M  V30 1345 H 126.54 0.681403 -0.291155 0
M  V30 1346 H 129.187 1.36435 -1.34379 0
M  V30 1347 H 127.492 3.8687 -0.619595 0
M  V30 1348 H 129.189 3.88052 -1.01076 0
M  V30 1349 H 125.779 3.5475 -2.40521 0
M  V30 1350 H 129.963 3.63202 -3.38227 0
M  V30 1351 H 125.219 3.80623 -4.78472 0
M  V30 1352 H 129.393 3.90332 -5.76727 0
M  V30 1353 H 127.02 3.98635 -6.47298 0
M  V30 1354 N 128.595 0.856903 1.32268 0
M  V30 1355 C 129.542 0.301172 2.28827 0
M  V30 1356 C 130.512 -0.593104 1.5515 0
M  V30 1357 O 131.697 -0.527537 1.83362 0
M  V30 1358 C 128.837 -0.502523 3.41422 0
M  V30 1359 C 127.95 0.417797 4.29975 0
M  V30 1360 C 127.085 -0.398749 5.29701 0
M  V30 1361 C 126.124 0.518827 6.09897 0
M  V30 1362 N 125.261 -0.260674 7.01616 0
M  V30 1363 H 130.101 1.12983 2.75751 0
M  V30 1364 H 127.638 0.568582 1.35667 0
M  V30 1365 H 129.596 -0.984141 4.05426 0
M  V30 1366 H 128.226 -1.29599 2.95642 0
M  V30 1367 H 127.278 1.01781 3.66531 0
M  V30 1368 H 128.59 1.12191 4.86019 0
M  V30 1369 H 127.744 -0.943435 5.9932 0
M  V30 1370 H 126.483 -1.13622 4.7428 0
M  V30 1371 H 125.488 1.07538 5.39181 0
M  V30 1372 H 126.713 1.25495 6.67404 0
M  V30 1373 H 124.659 -0.981198 6.4862 0
M  V30 1374 H 124.576 0.384364 7.55022 0
M  V30 1375 H 125.844 -0.787014 7.75517 0
M  V30 1376 N 130.073 -1.45103 0.615059 0
M  V30 1377 C 130.983 -2.34382 -0.101034 0
M  V30 1378 C 131.999 -1.51681 -0.852585 0
M  V30 1379 O 133.175 -1.8446 -0.808484 0
M  V30 1380 C 130.24 -3.29417 -1.08099 0
M  V30 1381 C 129.301 -4.28025 -0.330577 0
M  V30 1382 C 128.534 -5.1852 -1.26385 0
M  V30 1383 O 128.757 -5.12598 -2.50198 0
M  V30 1384 O 127.691 -5.97122 -0.756866 0
M  V30 1385 H 131.517 -2.97033 0.632855 0
M  V30 1386 H 129.102 -1.4461 0.375293 0
M  V30 1387 H 130.984 -3.87958 -1.6452 0
M  V30 1388 H 129.659 -2.69321 -1.79577 0
M  V30 1389 H 128.566 -3.73078 0.276283 0
M  V30 1390 H 129.899 -4.90997 0.343866 0
M  V30 1391 N 131.551 -0.354651 -1.53558 0
M  V30 1392 C 132.501 0.513179 -2.2215 0
M  V30 1393 C 133.485 1.05734 -1.21281 0
M  V30 1394 O 134.677 0.989202 -1.46778 0
M  V30 1395 C 131.806 1.65798 -3.00609 0
M  V30 1396 C 130.892 1.12722 -4.08845 0
M  V30 1397 N 131.283 0.318563 -5.04796 0
M  V30 1398 C 129.581 1.40307 -4.23356 0
M  V30 1399 C 130.282 0.0292224 -5.81693 0
M  V30 1400 N 129.258 0.623891 -5.40008 0
M  V30 1401 H 133.06 -0.111586 -2.93688 0
M  V30 1402 H 130.574 -0.162091 -1.61589 0
M  V30 1403 H 132.571 2.29176 -3.48258 0
M  V30 1404 H 131.231 2.28591 -2.306 0
M  V30 1405 H 132.242 -0.0413091 -5.17884 0
M  V30 1406 H 128.919 2.03458 -3.6457 0
M  V30 1407 H 130.309 -0.623808 -6.68998 0
M  V30 1408 N 133.029 1.57378 -0.0835403 0
M  V30 1409 C 134.275 1.95025 0.577664 0
M  V30 1410 C 134.63 0.964049 1.66505 0
M  V30 1411 O 133.923 -0.0118235 1.91596 0
M  V30 1412 C 134.117 3.37063 1.1884 0
M  V30 1413 C 133.946 4.49409 0.16171 0
M  V30 1414 C 132.716 5.04642 -0.257756 0
M  V30 1415 C 134.914 5.10722 -0.605634 0
M  V30 1416 N 132.896 6.00537 -1.27393 0
M  V30 1417 C 134.267 6.02225 -1.47395 0
M  V30 1418 C 136.322 4.93501 -0.660418 0
M  V30 1419 C 135.025 6.78355 -2.39221 0
M  V30 1420 C 137.051 5.70283 -1.56623 0
M  V30 1421 C 136.413 6.61444 -2.4222 0
M  V30 1422 H 132.512 0.760512 0.182058 0
M  V30 1423 H 135.096 1.94013 -0.163419 0
M  V30 1424 H 133.267 3.3879 1.89936 0
M  V30 1425 H 134.999 3.61917 1.81103 0
M  V30 1426 H 131.754 4.73428 0.127702 0
M  V30 1427 H 132.178 6.53184 -1.77987 0
M  V30 1428 H 136.82 4.22798 -0.0128221 0
M  V30 1429 H 134.538 7.48327 -3.05011 0
M  V30 1430 H 138.124 5.58976 -1.61361 0
M  V30 1431 H 137.004 7.1982 -3.11174 0
M  V30 1432 N 134.507 -0.190092 1.56449 0
M  V30 1433 C 135.732 -0.929864 1.85387 0
M  V30 1434 C 136.157 -1.7585 0.667704 0
M  V30 1435 O 135.515 -1.77198 -0.383459 0
M  V30 1436 C 135.563 -1.79773 3.12593 0
M  V30 1437 O 134.667 -2.89713 2.93496 0
M  V30 1438 H 134.008 -0.261574 0.610307 0
M  V30 1439 H 136.538 -0.193896 2.03679 0
M  V30 1440 H 136.548 -2.20139 3.43515 0
M  V30 1441 H 135.223 -1.18892 3.98544 0
M  V30 1442 H 133.8 -2.53065 2.73884 0
M  V30 1443 N 135.985 -1.50799 -0.457987 0
M  V30 1444 C 136.935 -1.67003 -1.55222 0
M  V30 1445 C 137.919 -0.52434 -1.52117 0
M  V30 1446 O 139.111 -0.779345 -1.58919 0
M  V30 1447 C 136.24 -1.77956 -2.93576 0
M  V30 1448 C 135.326 -2.98243 -3.01516 0
M  V30 1449 N 135.717 -4.21732 -2.79241 0
M  V30 1450 C 134.015 -2.97072 -3.32662 0
M  V30 1451 C 134.716 -5.02817 -2.92489 0
M  V30 1452 N 133.692 -4.37038 -3.23262 0
M  V30 1453 H 137.494 -2.60163 -1.36721 0
M  V30 1454 H 135.008 -1.48163 -0.664952 0
M  V30 1455 H 137.005 -1.87671 -3.72271 0
M  V30 1456 H 135.665 -0.859634 -3.13114 0
M  V30 1457 H 136.676 -4.51016 -2.54567 0
M  V30 1458 H 133.353 -2.14631 -3.58106 0
M  V30 1459 H 134.743 -6.11054 -2.79396 0
M  V30 1460 N 137.463 0.71206 -1.40597 0
M  V30 1461 C 138.74 1.46536 -1.29563 0
M  V30 1462 C 139.12 2.10931 0.0844217 0
M  V30 1463 O 138.468 2.00418 1.0975 0
M  V30 1464 C 138.678 2.49821 -2.43701 0
M  V30 1465 C 140.026 3.15551 -2.841 0
M  V30 1466 O 141.05 2.60142 -2.4332 0
M  V30 1467 O 139.909 4.15867 -3.54566 0
M  V30 1468 H 137.003 0.651801 -0.509004 0
M  V30 1469 H 139.549 0.743935 -1.52524 0
M  V30 1470 H 138.321 2.00778 -3.35863 0
M  V30 1471 H 137.944 3.29495 -2.22528 0
M  V30 1472 N 138.941 1.26152 0.944643 0
M  V30 1473 C 140.352 1.10454 1.50522 0
M  V30 1474 C 140.703 -0.31635 1.93633 0
M  V30 1475 O 139.828 -1.20746 1.79581 0
M  V30 1476 C 140.423 1.99891 2.73549 0
M  V30 1477 C 138.982 1.88348 3.25886 0
M  V30 1478 C 138.129 1.93447 1.9868 0
M  V30 1479 H 141.08 1.39292 0.760489 0
M  V30 1480 H 141.101 1.54477 3.47732 0
M  V30 1481 H 140.613 3.03297 2.42141 0
M  V30 1482 H 138.714 0.878636 3.62092 0
M  V30 1483 H 138.827 2.73696 3.93227 0
M  V30 1484 H 137.191 1.37456 2.14425 0
M  V30 1485 H 137.974 2.98476 1.69607 0
M  V30 1486 N 140.419 -1.14872 1.07899 0
M  V30 1487 C 141.666 -1.85789 0.805532 0
M  V30 1488 C 141.994 -1.82649 -0.668561 0
M  V30 1489 O 141.249 -1.24858 -1.50695 0
M  V30 1490 C 141.548 -3.34223 1.26609 0
M  V30 1491 C 141.214 -3.57555 2.74709 0
M  V30 1492 C 139.876 -3.63631 3.1516 0
M  V30 1493 C 142.228 -3.66803 3.70277 0
M  V30 1494 C 139.556 -3.76473 4.49983 0
M  V30 1495 C 141.908 -3.8117 5.04869 0
M  V30 1496 C 140.572 -3.85494 5.44932 0
M  V30 1497 H 139.842 -0.679849 0.294765 0
M  V30 1498 H 142.489 -1.3572 1.35101 0
M  V30 1499 H 140.794 -3.86536 0.640103 0
M  V30 1500 H 142.491 -3.87511 1.03132 0
M  V30 1501 H 139.081 -3.5347 2.42398 0
M  V30 1502 H 143.265 -3.61404 3.40149 0
M  V30 1503 H 138.521 -3.7808 4.80484 0
M  V30 1504 H 142.695 -3.87268 5.78789 0
M  V30 1505 H 140.322 -3.95197 6.49403 0
M  V30 1506 N 141.898 -0.863906 -1.31812 0
M  V30 1507 C 142.808 -0.318461 -2.32428 0
M  V30 1508 C 143.824 0.568496 -1.64451 0
M  V30 1509 O 145 0.46666 -1.95919 0
M  V30 1510 C 142.065 0.476355 -3.43412 0
M  V30 1511 C 141.126 -0.43784 -4.27061 0
M  V30 1512 C 140.359 0.319138 -5.32745 0
M  V30 1513 O 140.582 1.54799 -5.48993 0
M  V30 1514 O 139.516 -0.319861 -6.01049 0
M  V30 1515 H 143.342 -1.15229 -2.80991 0
M  V30 1516 H 140.927 -0.627103 -1.35602 0
M  V30 1517 H 142.809 0.927156 -4.11074 0
M  V30 1518 H 141.484 1.28683 -2.97022 0
M  V30 1519 H 140.391 -0.937013 -3.62175 0
M  V30 1520 H 141.724 -1.21375 -4.77 0
M  V30 1521 N 143.376 1.44774 -0.622745 0
M  V30 1522 C 144.339 2.29069 0.0774015 0
M  V30 1523 C 145.339 1.4059 0.780461 0
M  V30 1524 O 146.529 1.62551 0.626322 0
M  V30 1525 C 143.661 3.21974 1.12006 0
M  V30 1526 H 144.854 2.92459 -0.663901 0
M  V30 1527 H 142.407 1.51548 -0.382486 0
M  V30 1528 H 143.142 2.63417 1.89162 0
M  V30 1529 H 142.927 3.87168 0.619951 0
M  V30 1530 H 144.417 3.85318 1.60995 0
M  V30 1531 N 144.854 0.36279 1.53368 0
M  V30 1532 C 146.101 -0.227776 2.01215 0
M  V30 1533 C 146.429 -1.49003 1.25014 0
M  V30 1534 O 145.684 -1.92876 0.331236 0
M  V30 1535 C 145.983 -0.568417 3.52851 0
M  V30 1536 C 145.649 0.59918 4.46901 0
M  V30 1537 C 144.311 0.919559 4.72332 0
M  V30 1538 C 146.663 1.38156 5.02556 0
M  V30 1539 C 143.991 2.02434 5.5067 0
M  V30 1540 C 146.343 2.47674 5.821 0
M  V30 1541 C 145.007 2.8025 6.05819 0
M  V30 1542 H 144.277 -0.083349 0.736297 0
M  V30 1543 H 146.924 0.494677 1.85001 0
M  V30 1544 H 145.229 -1.37185 3.66998 0
M  V30 1545 H 146.926 -1.03756 3.87344 0
M  V30 1546 H 143.516 0.339437 4.27254 0
M  V30 1547 H 147.7 1.14729 4.82857 0
M  V30 1548 H 142.956 2.28075 5.67267 0
M  V30 1549 H 147.13 3.08716 6.24234 0
M  V30 1550 H 144.757 3.65979 6.66306 0
M  V30 1551 N 146.332 -1.57332 0.0918853 0
M  V30 1552 C 147.279 -2.13847 -0.868211 0
M  V30 1553 C 148.249 -1.05618 -1.28196 0
M  V30 1554 O 149.434 -1.33387 -1.36427 0
M  V30 1555 C 146.574 -2.72062 -2.12312 0
M  V30 1556 C 145.687 -3.94514 -1.7602 0
M  V30 1557 C 144.822 -4.40903 -2.96273 0
M  V30 1558 C 143.861 -5.55953 -2.56092 0
M  V30 1559 N 142.998 -5.97209 -3.69169 0
M  V30 1560 H 147.838 -2.95575 -0.379406 0
M  V30 1561 H 145.375 -1.46048 -0.175606 0
M  V30 1562 H 147.333 -3.03931 -2.858 0
M  V30 1563 H 145.963 -1.93068 -2.58698 0
M  V30 1564 H 145.015 -3.68979 -0.925135 0
M  V30 1565 H 146.327 -4.7802 -1.42472 0
M  V30 1566 H 145.481 -4.74539 -3.78018 0
M  V30 1567 H 144.22 -3.56291 -3.33029 0
M  V30 1568 H 143.225 -5.21948 -1.72773 0
M  V30 1569 H 144.45 -6.42311 -2.20484 0
M  V30 1570 H 142.396 -5.15543 -4.05649 0
M  V30 1571 H 142.313 -6.75504 -3.39456 0
M  V30 1572 H 143.581 -6.35475 -4.51434 0
M  V30 1573 N 147.81 0.181792 -1.56548 0
M  V30 1574 C 149.087 0.926765 -1.72251 0
M  V30 1575 C 149.467 2.00831 -0.650386 0
M  V30 1576 O 148.815 2.26008 0.336521 0
M  V30 1577 C 149.025 1.50106 -3.1507 0
M  V30 1578 C 150.373 1.97805 -3.75711 0
M  V30 1579 O 151.397 1.59922 -3.18282 0
M  V30 1580 O 150.256 2.67555 -4.76525 0
M  V30 1581 H 147.35 0.435506 -0.703039 0
M  V30 1582 H 149.896 0.170443 -1.68842 0
M  V30 1583 H 148.668 0.72212 -3.84579 0
M  V30 1584 H 148.291 2.32186 -3.22763 0
M  V30 1585 N 149.288 1.51039 0.449983 0
M  V30 1586 C 150.513 1.6715 1.22783 0
M  V30 1587 C 150.938 0.363081 1.84563 0
M  V30 1588 O 150.296 -0.675433 1.68249 0
M  V30 1589 C 150.344 2.77985 2.29689 0
M  V30 1590 O 149.448 2.40707 3.34864 0
M  V30 1591 H 148.789 0.557746 0.360299 0
M  V30 1592 H 151.319 1.97535 0.533005 0
M  V30 1593 H 151.329 3.01693 2.74673 0
M  V30 1594 H 150.004 3.72935 1.84098 0
M  V30 1595 H 148.581 2.27523 2.95445 0
M  V30 1596 N 150.766 -0.704594 1.40972 0
M  V30 1597 C 151.676 -1.84856 1.44448 0
M  V30 1598 C 152.692 -1.70726 0.335961 0
M  V30 1599 O 153.868 -1.92799 0.582276 0
M  V30 1600 C 150.933 -3.20758 1.31587 0
M  V30 1601 C 149.994 -3.47063 2.52677 0
M  V30 1602 C 149.227 -4.76481 2.4042 0
M  V30 1603 O 149.45 -5.52341 1.42391 0
M  V30 1604 O 148.384 -5.03367 3.30007 0
M  V30 1605 H 152.21 -1.8488 2.40942 0
M  V30 1606 H 149.795 -0.85647 1.22413 0
M  V30 1607 H 151.677 -4.01913 1.26665 0
M  V30 1608 H 150.352 -3.21438 0.382049 0
M  V30 1609 H 149.259 -2.65873 2.63177 0
M  V30 1610 H 150.592 -3.5119 3.44858 0
M  V30 1611 N 152.244 -1.26651 -0.937939 0
M  V30 1612 C 153.492 -1.12165 -1.68118 0
M  V30 1613 C 153.813 0.334983 -1.92101 0
M  V30 1614 O 153.083 1.23583 -1.52 0
M  V30 1615 H 151.663 -0.412093 -0.623048 0
M  V30 1616 H 154.325 -1.59027 -1.12678 0
M  V30 1617 H 153.421 -1.64289 -2.6536 0
M  V30 1618 N 153.722 1.14298 -1.08507 0
M  V30 1619 C 154.952 1.88945 -0.835663 0
M  V30 1620 C 155.36 1.78894 0.615928 0
M  V30 1621 O 154.703 1.1468 1.43506 0
M  V30 1622 C 154.765 3.39585 -1.17994 0
M  V30 1623 C 154.429 3.7342 -2.63451 0
M  V30 1624 C 155.426 3.73454 -3.61702 0
M  V30 1625 C 153.111 4.03368 -2.99332 0
M  V30 1626 C 155.105 4.02961 -4.93864 0
M  V30 1627 C 152.792 4.32538 -4.31687 0
M  V30 1628 C 153.79 4.32318 -5.28763 0
M  V30 1629 O 153.478 4.6078 -6.58739 0
M  V30 1630 H 153.21 0.605307 -0.300965 0
M  V30 1631 H 155.764 1.45673 -1.44806 0
M  V30 1632 H 153.994 3.83315 -0.51055 0
M  V30 1633 H 155.683 3.9554 -0.911182 0
M  V30 1634 H 156.449 3.50403 -3.35325 0
M  V30 1635 H 152.328 4.02692 -2.24411 0
M  V30 1636 H 155.872 4.02704 -5.69627 0
M  V30 1637 H 151.769 4.55059 -4.57812 0
M  V30 1638 H 152.537 4.78492 -6.64069 0
M  V30 1639 N 155.201 0.870884 1.31352 0
M  V30 1640 C 156.45 0.478408 1.95944 0
M  V30 1641 C 156.763 -0.974493 1.69597 0
M  V30 1642 O 157.969 -1.47316 2.28058 0
M  V30 1643 C 156.425 0.804609 3.50791 0
M  V30 1644 C 156.033 2.27433 3.85977 0
M  V30 1645 C 157.777 0.480648 4.2177 0
M  V30 1646 C 155.684 2.5429 5.33939 0
M  V30 1647 H 154.614 0.175175 0.733369 0
M  V30 1648 H 157.265 1.06391 1.4951 0
M  V30 1649 H 155.647 0.148347 3.95722 0
M  V30 1650 H 156.821 2.97373 3.52002 0
M  V30 1651 H 155.136 2.56442 3.28065 0
M  V30 1652 H 157.733 0.658519 5.30629 0
M  V30 1653 H 158.076 -0.578979 4.12254 0
M  V30 1654 H 158.609 1.09349 3.82476 0
M  V30 1655 H 155.348 3.58939 5.48491 0
M  V30 1656 H 154.868 1.88945 5.69263 0
M  V30 1657 H 156.547 2.39066 6.01212 0
M  V30 1658 N 156.679 -1.44442 0.630414 0
M  V30 1659 C 157.909 -2.06115 0.141465 0
M  V30 1660 C 158.317 -1.47179 -1.1889 0
M  V30 1661 O 157.66 -0.588873 -1.74006 0
M  V30 1662 C 157.722 -3.59467 -0.0484355 0
M  V30 1663 C 157.386 -4.40864 1.20366 0
M  V30 1664 C 158.383 -4.74391 2.12719 0
M  V30 1665 C 156.068 -4.8125 1.43887 0
M  V30 1666 C 158.062 -5.47186 3.26904 0
M  V30 1667 C 155.749 -5.53795 2.5837 0
M  V30 1668 C 156.747 -5.86682 3.49705 0
M  V30 1669 O 156.435 -6.57749 4.62191 0
M  V30 1670 H 156.167 -0.671648 0.0765792 0
M  V30 1671 H 158.721 -1.86312 0.864695 0
M  V30 1672 H 156.951 -3.77758 -0.826803 0
M  V30 1673 H 158.64 -4.02909 -0.491849 0
M  V30 1674 H 159.406 -4.43728 1.95781 0
M  V30 1675 H 155.285 -4.55073 0.736853 0
M  V30 1676 H 158.829 -5.72773 3.98217 0
M  V30 1677 H 154.726 -5.83872 2.75251 0
M  V30 1678 H 155.494 -6.76217 4.61164 0
M  V30 1679 N 158.157 -0.370918 -1.53173 0
M  V30 1680 C 159.12 0.460778 -2.24521 0
M  V30 1681 C 160.12 1.00536 -1.25496 0
M  V30 1682 O 161.31 0.890266 -1.49733 0
M  V30 1683 C 158.442 1.64457 -2.98608 0
M  V30 1684 H 159.635 -0.163613 -2.99453 0
M  V30 1685 H 157.188 -0.122699 -1.55818 0
M  V30 1686 H 157.923 2.30691 -2.2793 0
M  V30 1687 H 157.708 1.26099 -3.7127 0
M  V30 1688 H 159.198 2.23384 -3.5283 0
M  V30 1689 N 159.635 1.57281 -0.100228 0
M  V30 1690 C 161.051 1.57527 0.256416 0
M  V30 1691 C 161.251 1.11173 1.68056 0
M  V30 1692 O 160.307 0.79053 2.39806 0
M  V30 1693 C 161.62 3.00673 0.0401747 0
M  V30 1694 C 163.168 3.12815 0.107528 0
M  V30 1695 C 163.643 4.57929 -0.0807834 0
M  V30 1696 N 165.134 4.63193 -0.0261207 0
M  V30 1697 C 165.869 5.73212 -0.146999 0
M  V30 1698 N 165.365 6.92047 -0.322999 0
M  V30 1699 N 167.158 5.62031 -0.0879044 0
M  V30 1700 H 159.309 1.85718 -1.03065 0
M  V30 1701 H 161.572 0.857446 -0.404339 0
M  V30 1702 H 161.278 3.38804 -0.943649 0
M  V30 1703 H 161.152 3.69042 0.780262 0
M  V30 1704 H 163.539 2.74554 1.08186 0
M  V30 1705 H 163.62 2.47028 -0.664134 0
M  V30 1706 H 163.264 4.96886 -1.05201 0
M  V30 1707 H 163.194 5.21783 0.710635 0
M  V30 1708 H 165.685 3.77748 0.107161 0
M  V30 1709 H 165.998 7.7173 -0.406608 0
M  V30 1710 H 164.343 6.94074 -0.358733 0
M  V30 1711 H 167.534 4.68075 0.048498 0
M  V30 1712 H 167.707 6.47734 -0.185557 0
M  V30 1713 N 161.113 -0.173488 1.56642 0
M  V30 1714 C 162.361 -0.888706 1.81512 0
M  V30 1715 C 162.682 -1.82875 0.676872 0
M  V30 1716 O 161.952 -1.93536 -0.303414 0
M  V30 1717 H 160.532 -0.331164 0.669582 0
M  V30 1718 H 163.194 -0.173823 1.94123 0
M  V30 1719 H 162.29 -1.46691 2.75478 0
M  V30 1720 N 162.591 -1.51276 -0.441967 0
M  V30 1721 C 163.554 -1.7167 -1.51862 0
M  V30 1722 C 164.554 -0.586793 -1.49711 0
M  V30 1723 O 165.744 -0.854276 -1.51815 0
M  V30 1724 C 162.876 -1.76889 -2.91416 0
M  V30 1725 H 164.069 -2.67754 -1.35084 0
M  V30 1726 H 161.622 -1.41196 -0.670333 0
M  V30 1727 H 162.357 -0.826026 -3.13604 0
M  V30 1728 H 162.142 -2.59001 -2.94382 0
M  V30 1729 H 163.632 -1.94522 -3.69528 0
M  V30 1730 N 164.069 0.697108 -1.41344 0
M  V30 1731 C 165.001 1.8224 -1.39001 0
M  V30 1732 C 166.014 1.60152 -0.292428 0
M  V30 1733 O 167.203 1.69684 -0.554048 0
M  V30 1734 C 164.303 3.18976 -1.14489 0
M  V30 1735 C 163.476 3.68105 -2.36258 0
M  V30 1736 C 162.535 4.83506 -2.07625 0
M  V30 1737 O 161.561 4.95201 -2.8065 0
M  V30 1738 N 162.763 5.70637 -1.06555 0
M  V30 1739 H 165.528 1.84742 -2.35988 0
M  V30 1740 H 163.089 0.87937 -1.35936 0
M  V30 1741 H 165.081 3.93801 -0.932885 0
M  V30 1742 H 163.651 3.11508 -0.261043 0
M  V30 1743 H 162.871 2.84204 -2.7317 0
M  V30 1744 H 164.159 3.97667 -3.17393 0
M  V30 1745 H 163.557 5.63817 -0.461125 0
M  V30 1746 H 162.114 6.45368 -0.913444 0
M  V30 1747 N 165.547 1.27147 0.931209 0
M  V30 1748 C 166.824 1.0401 1.65654 0
M  V30 1749 C 167.204 -0.426297 2.06751 0
M  V30 1750 O 166.552 -1.40879 1.79904 0
M  V30 1751 C 166.762 1.99834 2.86125 0
M  V30 1752 C 168.11 2.29007 3.57549 0
M  V30 1753 O 169.134 1.97779 2.96246 0
M  V30 1754 O 167.993 2.82222 4.67989 0
M  V30 1755 H 165.087 0.396239 0.725895 0
M  V30 1756 H 167.633 1.38397 0.982056 0
M  V30 1757 H 166.405 2.98744 2.52721 0
M  V30 1758 H 166.028 1.65987 3.61295 0
M  V30 1759 N 167.025 -1.13721 1.09112 0
M  V30 1760 C 167.958 -2.18094 0.67158 0
M  V30 1761 C 168.936 -1.59414 -0.320299 0
M  V30 1762 O 170.12 -1.87183 -0.222444 0
M  V30 1763 C 167.247 -3.38698 -0.0111189 0
M  V30 1764 C 166.293 -4.15966 0.942055 0
M  V30 1765 S 167.126 -4.7604 2.45246 0
M  V30 1766 C 168.282 -5.99994 1.78208 0
M  V30 1767 H 168.515 -2.53344 1.55577 0
M  V30 1768 H 166.048 -1.24967 0.906789 0
M  V30 1769 H 168.006 -4.08559 -0.398716 0
M  V30 1770 H 166.667 -3.01756 -0.871905 0
M  V30 1771 H 165.86 -5.02318 0.411396 0
M  V30 1772 H 165.462 -3.51745 1.2709 0
M  V30 1773 H 167.754 -6.68441 1.10424 0
M  V30 1774 H 168.697 -6.57662 2.62463 0
M  V30 1775 H 169.105 -5.50432 1.25238 0
M  V30 1776 N 168.503 -0.877838 -1.30888 0
M  V30 1777 C 169.45 -0.337538 -2.28318 0
M  V30 1778 C 170.42 0.568346 -1.56074 0
M  V30 1779 O 171.605 0.498298 -1.84178 0
M  V30 1780 C 168.745 0.448142 -3.42178 0
M  V30 1781 C 167.858 -0.48615 -4.29256 0
M  V30 1782 C 166.993 0.314427 -5.30269 0
M  V30 1783 C 166.032 -0.615791 -6.08995 0
M  V30 1784 N 165.169 0.14902 -7.01942 0
M  V30 1785 H 170.009 -1.17356 -2.73919 0
M  V30 1786 H 167.546 -0.590094 -1.34745 0
M  V30 1787 H 169.504 0.919517 -4.06941 0
M  V30 1788 H 168.134 1.24879 -2.97666 0
M  V30 1789 H 167.186 -1.076 -3.64865 0
M  V30 1790 H 168.498 -1.19909 -4.84173 0
M  V30 1791 H 167.652 0.847969 -6.00745 0
M  V30 1792 H 166.391 1.06062 -4.76027 0
M  V30 1793 H 165.396 -1.16102 -5.37401 0
M  V30 1794 H 166.621 -1.36097 -6.65323 0
M  V30 1795 H 164.567 0.877884 -6.50099 0
M  V30 1796 H 164.484 -0.504433 -7.54315 0
M  V30 1797 H 165.752 0.663537 -7.76671 0
M  V30 1798 N 169.982 1.44106 -0.638065 0
M  V30 1799 C 171.222 2.03858 -0.148733 0
M  V30 1800 C 171.586 1.49153 1.20903 0
M  V30 1801 O 172.787 2.00452 1.79088 0
M  V30 1802 C 171.058 3.57117 -0.142314 0
M  V30 1803 S 172.617 4.37897 0.281385 0
M  V30 1804 H 169.435 0.708069 -0.0644912 0
M  V30 1805 H 172.037 1.7639 -0.843009 0
M  V30 1806 H 170.741 3.94436 -1.13349 0
M  V30 1807 H 170.272 3.89205 0.572988 0
M  V30 1808 H 172.287 4.72218 1.52395 0
M  V30 1809 N 171.46 0.379036 1.52974 0
M  V30 1810 C 172.706 -0.206727 2.01744 0
M  V30 1811 C 173.039 -1.47314 1.26539 0
M  V30 1812 O 172.314 -1.91084 0.362903 0
M  V30 1813 C 172.597 -0.485066 3.56818 0
M  V30 1814 C 172.45 0.795919 4.42702 0
M  V30 1815 C 173.769 -1.28003 4.21074 0
M  V30 1816 H 170.888 -0.0736607 0.73331 0
M  V30 1817 H 173.53 0.506581 1.83122 0
M  V30 1818 H 171.68 -1.09272 3.72816 0
M  V30 1819 H 173.352 1.43307 4.38476 0
M  V30 1820 H 171.595 1.41344 4.10127 0
M  V30 1821 H 172.266 0.555947 5.49193 0
M  V30 1822 H 174.742 -0.765867 4.08991 0
M  V30 1823 H 173.618 -1.44352 5.29579 0
M  V30 1824 H 173.879 -2.29236 3.78026 0
M  V30 1825 N 172.938 -1.57226 0.108567 0
M  V30 1826 C 174.163 -1.99604 -0.563303 0
M  V30 1827 C 174.588 -0.987563 -1.6009 0
M  V30 1828 O 173.946 0.0421687 -1.81251 0
M  V30 1829 C 173.994 -3.40902 -1.17552 0
M  V30 1830 O 173.098 -3.42896 -2.2912 0
M  V30 1831 H 172.439 -0.648704 -0.1417 0
M  V30 1832 H 174.969 -2.03679 0.193961 0
M  V30 1833 H 174.979 -3.78886 -1.51357 0
M  V30 1834 H 173.654 -4.1382 -0.415445 0
M  V30 1835 H 172.231 -3.1672 -1.96832 0
M  V30 1836 N 174.416 0.165178 -1.56732 0
M  V30 1837 C 175.665 0.879143 -1.81532 0
M  V30 1838 C 175.978 1.83144 -0.686842 0
M  V30 1839 O 177.184 2.58823 -0.819944 0
M  V30 1840 C 175.64 1.61388 -3.21686 0
M  V30 1841 C 175.248 0.704904 -4.4242 0
M  V30 1842 C 176.992 2.3157 -3.55774 0
M  V30 1843 C 174.899 1.44022 -5.73595 0
M  V30 1844 H 173.829 0.332033 -0.676957 0
M  V30 1845 H 176.48 0.132008 -1.83025 0
M  V30 1846 H 174.862 2.40599 -3.14529 0
M  V30 1847 H 176.036 -0.0506815 -4.60772 0
M  V30 1848 H 174.351 0.112419 -4.16248 0
M  V30 1849 H 176.948 2.8719 -4.51028 0
M  V30 1850 H 177.291 3.07201 -2.8095 0
M  V30 1851 H 177.824 1.59297 -3.64513 0
M  V30 1852 H 174.563 0.72612 -6.51466 0
M  V30 1853 H 174.083 2.16898 -5.5921 0
M  V30 1854 H 175.762 1.98606 -6.15764 0
M  V30 1855 N 175.894 1.51508 0.433938 0
M  V30 1856 C 176.826 1.69266 1.54537 0
M  V30 1857 C 177.839 0.573276 1.52373 0
M  V30 1858 O 179.028 0.847698 1.57087 0
M  V30 1859 C 176.128 1.69524 2.93453 0
M  V30 1860 C 175.301 2.98101 3.20085 0
M  V30 1861 C 174.36 2.90502 4.38742 0
M  V30 1862 O 173.386 3.64442 4.3723 0
M  V30 1863 N 174.588 2.06586 5.42496 0
M  V30 1864 H 177.353 2.65145 1.39708 0
M  V30 1865 H 174.914 1.49437 0.622922 0
M  V30 1866 H 176.906 1.62004 3.70859 0
M  V30 1867 H 175.476 0.812245 3.01863 0
M  V30 1868 H 174.696 3.19464 2.30947 0
M  V30 1869 H 175.984 3.83207 3.34708 0
M  V30 1870 H 175.382 1.45896 5.46563 0
M  V30 1871 H 173.939 2.04943 6.18742 0
M  V30 1872 N 177.372 -0.689602 1.41712 0
M  V30 1873 C 178.602 -1.47613 1.44548 0
M  V30 1874 C 179.01 -1.89132 0.0509034 0
M  V30 1875 O 178.353 -1.57741 -0.94146 0
M  V30 1876 C 178.415 -2.76596 2.2964 0
M  V30 1877 C 178.079 -2.57245 3.77722 0
M  V30 1878 C 179.076 -2.22804 4.69739 0
M  V30 1879 C 176.761 -2.727 4.2183 0
M  V30 1880 C 178.755 -2.04064 6.03851 0
M  V30 1881 C 176.442 -2.53576 5.56006 0
M  V30 1882 C 177.44 -2.1931 6.46832 0
M  V30 1883 O 177.128 -2.00359 7.78532 0
M  V30 1884 H 176.86 -0.461227 0.494212 0
M  V30 1885 H 179.414 -0.856045 1.86711 0
M  V30 1886 H 177.644 -3.41033 1.82301 0
M  V30 1887 H 179.333 -3.38424 2.24107 0
M  V30 1888 H 180.099 -2.10473 4.36951 0
M  V30 1889 H 175.978 -2.98353 3.51435 0
M  V30 1890 H 179.522 -1.77241 6.74708 0
M  V30 1891 H 175.419 -2.65499 5.88371 0
M  V30 1892 H 176.187 -2.15075 7.89737 0
M  V30 1893 N 178.85 -1.27639 -0.924453 0
M  V30 1894 C 179.78 -1.13166 -2.04244 0
M  V30 1895 C 180.761 -0.032256 -1.70069 0
M  V30 1896 O 181.946 -0.207328 -1.9309 0
M  V30 1897 C 179.076 -0.781496 -3.38393 0
M  V30 1898 C 178.03 -1.83449 -3.86692 0
M  V30 1899 C 177.356 -1.33822 -5.17683 0
M  V30 1900 C 178.656 -3.23917 -4.09726 0
M  V30 1901 H 180.35 -2.06689 -2.1661 0
M  V30 1902 H 177.896 -0.995136 -1.04082 0
M  V30 1903 H 179.849 -0.667057 -4.16087 0
M  V30 1904 H 178.573 0.189439 -3.2605 0
M  V30 1905 H 177.232 -1.93789 -3.11193 0
M  V30 1906 H 176.88 -0.35665 -5.01734 0
M  V30 1907 H 176.58 -2.04224 -5.50968 0
M  V30 1908 H 178.104 -1.23679 -5.97943 0
M  V30 1909 H 179.518 -3.16559 -4.77978 0
M  V30 1910 H 177.915 -3.92059 -4.54324 0
M  V30 1911 H 178.985 -3.68729 -3.14908 0
M  V30 1912 N 180.328 1.1314 -1.09713 0
M  V30 1913 C 181.238 2.22242 -0.751367 0
M  V30 1914 C 182.254 1.72224 0.247938 0
M  V30 1915 O 183.43 2.01205 0.0885463 0
M  V30 1916 C 180.495 3.46231 -0.180274 0
M  V30 1917 C 179.556 4.11125 -1.2359 0
M  V30 1918 C 178.789 5.29195 -0.691966 0
M  V30 1919 O 179.012 5.68342 0.48414 0
M  V30 1920 O 177.946 5.84214 -1.44838 0
M  V30 1921 H 181.772 2.54197 -1.66186 0
M  V30 1922 H 179.357 1.21331 -0.871735 0
M  V30 1923 H 181.239 4.21185 0.134739 0
M  V30 1924 H 179.914 3.1597 0.703185 0
M  V30 1925 H 178.821 3.37985 -1.60366 0
M  V30 1926 H 180.154 4.45524 -2.09211 0
M  V30 1927 N 181.806 0.884767 1.30421 0
M  V30 1928 C 182.769 0.356277 2.26414 0
M  V30 1929 C 183.769 -0.501124 1.52792 0
M  V30 1930 O 184.959 -0.30831 1.7145 0
M  V30 1931 C 182.091 -0.492316 3.37326 0
M  V30 1932 H 183.284 1.20389 2.74675 0
M  V30 1933 H 180.837 0.661607 1.41607 0
M  V30 1934 H 181.572 -1.36052 2.94381 0
M  V30 1935 H 181.357 0.121832 3.91911 0
M  V30 1936 H 182.847 -0.853871 4.08777 0
M  V30 1937 N 183.284 -1.43765 0.645699 0
M  V30 1938 C 184.53 -2.02197 0.156271 0
M  V30 1939 C 184.863 -1.50776 -1.22393 0
M  V30 1940 O 184.138 -0.697771 -1.81553 0
M  V30 1941 C 184.421 -3.59749 0.158872 0
M  V30 1942 C 184.274 -4.21419 1.57245 0
M  V30 1943 C 185.593 -4.37149 -0.50879 0
M  V30 1944 H 182.712 -0.734694 0.0582602 0
M  V30 1945 H 185.354 -1.71157 0.824951 0
M  V30 1946 H 183.504 -3.86325 -0.410525 0
M  V30 1947 H 185.176 -4.059 2.19186 0
M  V30 1948 H 183.419 -3.78356 2.122 0
M  V30 1949 H 184.09 -5.30482 1.52619 0
M  V30 1950 H 186.566 -4.16093 -0.024412 0
M  V30 1951 H 185.442 -5.4683 -0.476213 0
M  V30 1952 H 185.703 -4.12839 -1.58165 0
M  V30 1953 N 184.763 -0.387143 -1.52771 0
M  V30 1954 C 186.179 -0.037007 -1.59557 0
M  V30 1955 C 186.379 1.44801 -1.40124 0
M  V30 1956 O 185.435 2.21227 -1.21716 0
M  V30 1957 C 186.748 -0.512256 -2.96305 0
M  V30 1958 C 188.296 -0.468328 -3.09476 0
M  V30 1959 C 188.771 -0.919731 -4.4867 0
M  V30 1960 N 190.262 -0.875656 -4.54848 0
M  V30 1961 C 190.997 -1.19637 -5.6078 0
M  V30 1962 N 190.493 -1.58745 -6.74368 0
M  V30 1963 N 192.286 -1.11776 -5.50874 0
M  V30 1964 H 184.437 -1.35395 -1.63652 0
M  V30 1965 H 186.7 -0.554818 -0.768688 0
M  V30 1966 H 186.406 -1.54935 -3.15734 0
M  V30 1967 H 186.28 0.089805 -3.77093 0
M  V30 1968 H 188.667 0.559671 -2.89744 0
M  V30 1969 H 188.748 -1.10616 -2.30646 0
M  V30 1970 H 188.392 -1.94595 -4.69143 0
M  V30 1971 H 188.322 -0.258927 -5.25963 0
M  V30 1972 H 190.813 -0.587843 -3.733 0
M  V30 1973 H 191.126 -1.81586 -7.51163 0
M  V30 1974 H 189.471 -1.6263 -6.75705 0
M  V30 1975 H 192.662 -0.811264 -4.61016 0
M  V30 1976 H 192.835 -1.37103 -6.3333 0
M  V30 1977 N 186.241 1.57166 -0.116904 0
M  V30 1978 C 187.657 1.5779 0.239693 0
M  V30 1979 C 187.857 1.1295 1.66867 0
M  V30 1980 O 186.913 0.81592 2.38954 0
M  V30 1981 C 188.226 3.00699 0.00828202 0
M  V30 1982 C 189.774 3.12912 0.0743438 0
M  V30 1983 C 190.249 4.57817 -0.129348 0
M  V30 1984 N 191.74 4.63139 -0.075247 0
M  V30 1985 C 192.475 5.73023 -0.207788 0
M  V30 1986 N 191.971 6.91665 -0.396382 0
M  V30 1987 N 193.764 5.61906 -0.14751 0
M  V30 1988 H 185.915 1.84615 -1.05029 0
M  V30 1989 H 188.178 0.85311 -0.41341 0
M  V30 1990 H 187.884 3.37784 -0.979531 0
M  V30 1991 H 187.758 3.69848 0.741077 0
M  V30 1992 H 190.145 2.75686 1.05268 0
M  V30 1993 H 190.226 2.4631 -0.690297 0
M  V30 1994 H 189.87 4.95742 -1.10465 0
M  V30 1995 H 189.8 5.22507 0.655253 0
M  V30 1996 H 192.291 3.7784 0.0670898 0
M  V30 1997 H 192.604 7.71255 -0.488437 0
M  V30 1998 H 190.949 6.93654 -0.432329 0
M  V30 1999 H 194.14 4.681 -0.00115036 0
M  V30 2000 H 194.313 6.47501 -0.254247 0
M  V30 2001 N 187.719 -0.156864 1.56817 0
M  V30 2002 C 188.649 -1.19589 2.00551 0
M  V30 2003 C 189.63 -1.4536 0.883426 0
M  V30 2004 O 190.815 -1.56449 1.15054 0
M  V30 2005 C 187.945 -2.53143 2.37773 0
M  V30 2006 C 186.899 -2.41913 3.53075 0
M  V30 2007 C 186.225 -3.80088 3.76081 0
M  V30 2008 C 187.525 -1.91157 4.86062 0
M  V30 2009 H 189.219 -0.832293 2.87599 0
M  V30 2010 H 186.765 -0.398918 1.38364 0
M  V30 2011 H 188.718 -3.26047 2.66967 0
M  V30 2012 H 187.442 -2.91319 1.4765 0
M  V30 2013 H 186.101 -1.71462 3.24031 0
M  V30 2014 H 185.749 -4.15683 2.83225 0
M  V30 2015 H 185.449 -3.73439 4.53671 0
M  V30 2016 H 186.973 -4.54556 4.0769 0
M  V30 2017 H 188.387 -2.53846 5.14038 0
M  V30 2018 H 186.784 -1.95422 5.67389 0
M  V30 2019 H 187.854 -0.866673 4.77092 0
M  V30 2020 N 189.197 -1.51736 -0.425897 0
M  V30 2021 C 190.144 -1.73875 -1.51776 0
M  V30 2022 C 191.114 -0.580702 -1.55618 0
M  V30 2023 O 192.299 -0.81641 -1.72451 0
M  V30 2024 C 189.439 -1.88012 -2.89388 0
M  V30 2025 C 188.552 -3.15606 -2.94986 0
M  V30 2026 C 187.687 -3.20271 -4.23793 0
M  V30 2027 C 186.726 -4.42134 -4.23302 0
M  V30 2028 N 185.863 -4.44284 -5.43651 0
M  V30 2029 H 190.703 -2.67071 -1.32201 0
M  V30 2030 H 188.24 -1.32351 -0.642008 0
M  V30 2031 H 190.198 -1.9419 -3.69251 0
M  V30 2032 H 188.828 -0.98213 -3.07496 0
M  V30 2033 H 187.88 -3.18681 -2.07717 0
M  V30 2034 H 189.192 -4.05486 -2.90486 0
M  V30 2035 H 188.346 -3.25428 -5.12036 0
M  V30 2036 H 187.085 -2.28299 -4.30965 0
M  V30 2037 H 186.09 -4.3714 -3.3345 0
M  V30 2038 H 187.315 -5.35382 -4.17783 0
M  V30 2039 H 185.261 -3.55188 -5.51523 0
M  V30 2040 H 185.178 -5.27988 -5.41078 0
M  V30 2041 H 186.446 -4.53649 -6.33895 0
M  V30 2042 N 190.675 0.682077 -1.42076 0
M  V30 2043 C 191.921 1.44428 -1.42367 0
M  V30 2044 C 192.254 1.94164 -0.0373056 0
M  V30 2045 O 191.529 1.70429 0.937239 0
M  V30 2046 C 191.812 2.64654 -2.44194 0
M  V30 2047 C 191.665 2.20596 -3.91991 0
M  V30 2048 C 192.984 3.66865 -2.431 0
M  V30 2049 H 190.103 0.523834 -0.518428 0
M  V30 2050 H 192.745 0.77576 -1.73442 0
M  V30 2051 H 190.895 3.2169 -2.17826 0
M  V30 2052 H 192.567 1.68783 -4.29313 0
M  V30 2053 H 190.81 1.52242 -4.06208 0
M  V30 2054 H 191.481 3.06921 -4.58807 0
M  V30 2055 H 193.957 3.19531 -2.66532 0
M  V30 2056 H 192.833 4.48577 -3.16339 0
M  V30 2057 H 193.094 4.17493 -1.45437 0
M  V30 2058 N 192.153 1.28127 0.917671 0
M  V30 2059 C 193.063 1.13556 2.05286 0
M  V30 2060 C 194.079 0.0630914 1.73886 0
M  V30 2061 O 195.255 0.271598 1.9956 0
M  V30 2062 C 192.32 0.794676 3.3747 0
M  V30 2063 C 191.381 1.94909 3.82504 0
M  V30 2064 C 190.614 1.62437 5.0838 0
M  V30 2065 O 190.837 0.536905 5.67867 0
M  V30 2066 O 189.771 2.46677 5.4903 0
M  V30 2067 H 193.597 2.08844 2.20495 0
M  V30 2068 H 191.182 1.07409 1.03845 0
M  V30 2069 H 193.064 0.618344 4.16839 0
M  V30 2070 H 191.739 -0.128581 3.23445 0
M  V30 2071 H 190.646 2.18055 3.03978 0
M  V30 2072 H 191.979 2.85291 4.01086 0
M  V30 2073 N 193.631 -1.12557 1.10312 0
M  V30 2074 C 194.879 -1.83675 0.843091 0
M  V30 2075 C 195.2 -1.84435 -0.633131 0
M  V30 2076 O 194.47 -1.30657 -1.45964 0
M  V30 2077 H 193.05 -0.680138 0.308904 0
M  V30 2078 H 195.712 -1.36301 1.39313 0
M  V30 2079 H 194.808 -2.87908 1.2048 0
M  V30 2080 N 195.109 -0.891671 -1.2995 0
M  V30 2081 C 196.059 -0.334811 -2.25528 0
M  V30 2082 C 197.043 0.540553 -1.51548 0
M  V30 2083 O 198.235 0.383882 -1.72787 0
M  V30 2084 C 195.364 0.44374 -3.4042 0
M  V30 2085 C 194.45 -0.44609 -4.21747 0
M  V30 2086 N 194.841 -1.54963 -4.81477 0
M  V30 2087 C 193.139 -0.242415 -4.45341 0
M  V30 2088 C 193.84 -2.10015 -5.42465 0
M  V30 2089 N 192.816 -1.39423 -5.25416 0
M  V30 2090 H 196.618 -1.17792 -2.69262 0
M  V30 2091 H 194.132 -0.741822 -1.44467 0
M  V30 2092 H 196.129 0.859362 -4.07947 0
M  V30 2093 H 194.789 1.28421 -2.98225 0
M  V30 2094 H 195.8 -1.93244 -4.80497 0
M  V30 2095 H 192.477 0.560342 -4.13723 0
M  V30 2096 H 193.867 -3.02724 -5.9984 0
M  V30 2097 N 196.587 1.43421 -0.653314 0
M  V30 2098 C 198.003 1.56341 -0.320886 0
M  V30 2099 C 198.203 1.63696 1.17499 0
M  V30 2100 O 197.259 1.59208 1.95982 0
M  V30 2101 C 198.572 2.82424 -1.03233 0
M  V30 2102 C 200.12 2.96168 -1.01259 0
M  V30 2103 C 200.595 4.25084 -1.70492 0
M  V30 2104 N 202.086 4.31948 -1.67257 0
M  V30 2105 C 202.821 5.30466 -2.17701 0
M  V30 2106 N 202.317 6.35261 -2.76434 0
M  V30 2107 N 204.11 5.2212 -2.082 0
M  V30 2108 H 196.261 1.3689 -1.62403 0
M  V30 2109 H 198.524 0.657455 -0.682977 0
M  V30 2110 H 198.23 2.83053 -2.08744 0
M  V30 2111 H 198.104 3.72653 -0.583948 0
M  V30 2112 H 200.491 2.9508 0.0341235 0
M  V30 2113 H 200.572 2.07229 -1.49966 0
M  V30 2114 H 200.216 4.26932 -2.7512 0
M  V30 2115 H 200.146 5.1292 -1.19251 0
M  V30 2116 H 202.637 3.56838 -1.24398 0
M  V30 2117 H 202.95 7.06754 -3.12601 0
M  V30 2118 H 201.295 6.35884 -2.80495 0
M  V30 2119 H 204.486 4.39166 -1.62021 0
M  V30 2120 H 204.659 5.98739 -2.47822 0
M  V30 2121 N 198.065 0.39524 1.52563 0
M  V30 2122 C 199.312 -0.185044 2.01653 0
M  V30 2123 C 199.64 -1.46317 1.28146 0
M  V30 2124 O 198.895 -1.9213 0.372074 0
M  V30 2125 C 199.194 -0.493444 3.53977 0
M  V30 2126 C 198.86 0.69384 4.4553 0
M  V30 2127 C 197.522 1.01954 4.70275 0
M  V30 2128 C 199.874 1.48785 4.99512 0
M  V30 2129 C 197.202 2.14069 5.46252 0
M  V30 2130 C 199.554 2.59965 5.76716 0
M  V30 2131 C 198.218 2.93037 5.99738 0
M  V30 2132 H 197.488 -0.0677123 0.7379 0
M  V30 2133 H 200.135 0.533807 1.8391 0
M  V30 2134 H 198.44 -1.29369 3.69825 0
M  V30 2135 H 200.137 -0.955163 3.89458 0
M  V30 2136 H 196.727 0.429987 4.26438 0
M  V30 2137 H 200.911 1.24946 4.80315 0
M  V30 2138 H 196.167 2.40056 5.62302 0
M  V30 2139 H 200.341 3.21887 6.17545 0
M  V30 2140 H 197.968 3.8003 6.58393 0
M  V30 2141 N 199.544 -1.57102 0.125237 0
M  V30 2142 C 200.955 -1.82384 -0.399142 0
M  V30 2143 C 201.306 -1.04276 -1.66195 0
M  V30 2144 O 200.431 -0.281269 -2.14564 0
M  V30 2145 C 201.026 -3.30821 -0.730932 0
M  V30 2146 C 199.585 -3.56762 -1.19992 0
M  V30 2147 C 198.732 -2.7649 -0.211792 0
M  V30 2148 H 201.683 -1.54786 0.350277 0
M  V30 2149 H 201.704 -3.4579 -1.58775 0
M  V30 2150 H 201.216 -3.87643 0.188345 0
M  V30 2151 H 199.317 -3.05305 -2.13588 0
M  V30 2152 H 199.43 -4.65317 -1.14093 0
M  V30 2153 H 197.794 -2.4489 -0.700085 0
M  V30 2154 H 198.577 -3.36073 0.700691 0
M  V30 2155 N 201.022 0.148545 -1.56898 0
M  V30 2156 C 202.438 0.501131 -1.51528 0
M  V30 2157 C 202.638 1.83458 -0.833399 0
M  V30 2158 O 201.694 2.49259 -0.40328 0
M  V30 2159 C 203.007 0.512864 -2.96294 0
M  V30 2160 C 204.555 0.598487 -3.07225 0
M  V30 2161 C 205.03 0.640897 -4.53494 0
M  V30 2162 N 206.521 0.703163 -4.57832 0
M  V30 2163 C 207.256 0.756935 -5.68382 0
M  V30 2164 N 206.752 0.770147 -6.88506 0
M  V30 2165 N 208.545 0.797698 -5.56411 0
M  V30 2166 H 200.696 -0.725532 -1.99624 0
M  V30 2167 H 202.959 -0.264358 -0.910395 0
M  V30 2168 H 202.665 -0.398691 -3.49433 0
M  V30 2169 H 202.539 1.35133 -3.52163 0
M  V30 2170 H 204.926 1.50046 -2.54106 0
M  V30 2171 H 205.007 -0.267093 -2.54402 0
M  V30 2172 H 204.651 -0.256915 -5.0725 0
M  V30 2173 H 204.581 1.52295 -5.04097 0
M  V30 2174 H 207.072 0.700314 -3.71354 0
M  V30 2175 H 207.385 0.812983 -7.68512 0
M  V30 2176 H 205.73 0.738049 -6.9107 0
M  V30 2177 H 208.921 0.784535 -4.61479 0
M  V30 2178 H 209.094 0.83614 -6.42583 0
M  V30 2179 N 202.5 1.5196 0.417844 0
M  V30 2180 C 203.728 1.69426 1.18753 0
M  V30 2181 C 204.143 0.399955 1.84515 0
M  V30 2182 O 203.5 -0.623288 1.71527 0
M  V30 2183 C 203.551 2.82375 2.25714 0
M  V30 2184 O 203.272 4.06793 1.62638 0
M  V30 2185 C 204.773 3.11277 3.15628 0
M  V30 2186 H 201.993 0.568031 0.357186 0
M  V30 2187 H 204.537 1.98475 0.49273 0
M  V30 2188 H 202.692 2.5587 2.90877 0
M  V30 2189 H 203.106 4.69667 2.3348 0
M  V30 2190 H 204.58 3.93843 3.86771 0
M  V30 2191 H 205.057 2.24473 3.77503 0
M  V30 2192 H 205.663 3.39515 2.56144 0
M  V30 2193 N 203.978 -0.674533 1.42435 0
M  V30 2194 C 205.227 -1.43034 1.42212 0
M  V30 2195 C 205.54 -1.95555 0.0420788 0
M  V30 2196 O 206.746 -2.71374 -0.0827558 0
M  V30 2197 C 205.202 -2.58748 2.50155 0
M  V30 2198 C 204.81 -2.12925 3.94166 0
M  V30 2199 C 206.554 -3.36257 2.59098 0
M  V30 2200 C 204.461 -3.25723 4.93618 0
M  V30 2201 H 203.391 -0.537345 0.528939 0
M  V30 2202 H 206.042 -0.73024 1.68344 0
M  V30 2203 H 204.424 -3.31128 2.17188 0
M  V30 2204 H 205.598 -1.47697 4.36488 0
M  V30 2205 H 203.913 -1.48354 3.89076 0
M  V30 2206 H 206.51 -4.20264 3.30578 0
M  V30 2207 H 206.853 -3.82866 1.63461 0
M  V30 2208 H 207.386 -2.70947 2.9126 0
M  V30 2209 H 204.125 -2.84105 5.90732 0
M  V30 2210 H 203.645 -3.89732 4.55926 0
M  V30 2211 H 205.324 -3.91186 5.15347 0
M  V30 2212 N 205.456 -1.28612 -0.910864 0
M  V30 2213 C 206.406 -1.09423 -2.00026 0
M  V30 2214 C 207.39 -0.0170079 -1.60891 0
M  V30 2215 O 208.582 -0.237472 -1.754 0
M  V30 2216 C 205.711 -0.76114 -3.34756 0
M  V30 2217 C 204.797 -1.87735 -3.80285 0
M  V30 2218 N 205.188 -3.11938 -3.98156 0
M  V30 2219 C 203.486 -1.76786 -4.09467 0
M  V30 2220 C 204.187 -3.84687 -4.36338 0
M  V30 2221 N 203.163 -3.12555 -4.44759 0
M  V30 2222 H 206.965 -2.03658 -2.11898 0
M  V30 2223 H 204.479 -1.19573 -1.09891 0
M  V30 2224 H 206.476 -0.604743 -4.12491 0
M  V30 2225 H 205.136 0.173403 -3.24237 0
M  V30 2226 H 206.147 -3.47516 -3.83996 0
M  V30 2227 H 202.824 -0.905284 -4.07567 0
M  V30 2228 H 204.214 -4.91518 -4.58104 0
M  V30 2229 N 206.934 1.1197 -1.10907 0
M  V30 2230 C 207.867 2.16998 -0.706192 0
M  V30 2231 C 208.845 1.59903 0.294897 0
M  V30 2232 O 210.029 1.87513 0.192636 0
M  V30 2233 C 207.156 3.38673 -0.0427664 0
M  V30 2234 C 206.202 4.14414 -1.00811 0
M  V30 2235 S 207.035 4.72079 -2.52789 0
M  V30 2236 C 208.191 5.97083 -1.87731 0
M  V30 2237 H 208.424 2.50837 -1.59587 0
M  V30 2238 H 205.957 1.23508 -0.926555 0
M  V30 2239 H 207.915 4.09142 0.333668 0
M  V30 2240 H 206.576 3.03105 0.823788 0
M  V30 2241 H 205.769 5.016 -0.491259 0
M  V30 2242 H 205.371 3.49678 -1.3267 0
M  V30 2243 H 207.663 6.66599 -1.21044 0
M  V30 2244 H 208.606 6.53403 -2.72892 0
M  V30 2245 H 209.014 5.4837 -1.33979 0
M  V30 2246 N 208.412 0.89855 1.29475 0
M  V30 2247 C 209.64 0.539261 1.99749 0
M  V30 2248 C 210.055 -0.875716 1.67262 0
M  V30 2249 O 209.412 -1.57786 0.917049 0
M  V30 2250 C 209.463 0.72061 3.54245 0
M  V30 2251 O 209.184 2.07989 3.8558 0
M  V30 2252 C 210.685 0.366118 4.41786 0
M  V30 2253 H 207.905 0.207047 0.638258 0
M  V30 2254 H 210.449 1.20758 1.65039 0
M  V30 2255 H 208.604 0.0994862 3.87272 0
M  V30 2256 H 209.018 2.10841 4.80257 0
M  V30 2257 H 210.492 0.543848 5.49314 0
M  V30 2258 H 210.969 -0.696763 4.33638 0
M  V30 2259 H 211.575 0.964135 4.14228 0
M  V30 2260 N 209.89 -1.43072 0.660911 0
M  V30 2261 C 211.137 -2.01721 0.177445 0
M  V30 2262 C 211.465 -1.5218 -1.21126 0
M  V30 2263 O 210.72 -0.708659 -1.82419 0
M  V30 2264 C 211.019 -3.57103 0.145563 0
M  V30 2265 C 210.685 -4.26021 1.47705 0
M  V30 2266 C 209.347 -4.44563 1.84165 0
M  V30 2267 C 211.699 -4.64983 2.35458 0
M  V30 2268 C 209.027 -4.99334 3.0803 0
M  V30 2269 C 211.379 -5.21127 3.58622 0
M  V30 2270 C 210.043 -5.37884 3.95268 0
M  V30 2271 H 209.313 -0.73815 0.0649317 0
M  V30 2272 H 211.96 -1.71446 0.853144 0
M  V30 2273 H 210.265 -3.86965 -0.61361 0
M  V30 2274 H 211.962 -4.00248 -0.2455 0
M  V30 2275 H 208.552 -4.11939 1.18339 0
M  V30 2276 H 212.736 -4.50343 2.08579 0
M  V30 2277 H 207.992 -5.10493 3.36462 0
M  V30 2278 H 212.166 -5.50262 4.26831 0
M  V30 2279 H 209.793 -5.80089 4.91325 0
M  V30 2280 N 211.368 -0.403325 -1.52352 0
M  V30 2281 C 212.614 0.174605 -2.02047 0
M  V30 2282 C 212.947 1.45282 -1.28867 0
M  V30 2283 O 212.222 1.90483 -0.393257 0
M  V30 2284 C 212.505 0.428238 -3.57545 0
M  V30 2285 C 212.358 -0.866248 -4.4138 0
M  V30 2286 C 213.677 1.21287 -4.23057 0
M  V30 2287 H 210.796 0.0619851 -0.734389 0
M  V30 2288 H 213.438 -0.53565 -1.82293 0
M  V30 2289 H 211.588 1.03327 -3.74507 0
M  V30 2290 H 213.26 -1.50265 -4.3614 0
M  V30 2291 H 211.503 -1.47851 -4.07827 0
M  V30 2292 H 212.174 -0.643249 -5.48239 0
M  V30 2293 H 214.65 0.700703 -4.10158 0
M  V30 2294 H 213.526 1.35909 -5.31808 0
M  V30 2295 H 213.787 2.23193 -3.81625 0
M  V30 2296 N 212.846 1.57033 -0.133567 0
M  V30 2297 C 214.257 1.82593 0.389464 0
M  V30 2298 C 214.608 1.05156 1.6564 0
M  V30 2299 O 213.733 0.292644 2.14412 0
M  V30 2300 C 214.328 3.31204 0.713377 0
M  V30 2301 C 212.887 3.57393 1.18098 0
M  V30 2302 C 212.034 2.76598 0.197126 0
M  V30 2303 H 214.985 1.54598 -0.358481 0
M  V30 2304 H 215.006 3.46627 1.56939 0
M  V30 2305 H 214.518 3.87537 -0.2089 0
M  V30 2306 H 212.619 3.06433 2.11966 0
M  V30 2307 H 212.732 4.65915 1.11624 0
M  V30 2308 H 211.096 2.45257 0.687088 0
M  V30 2309 H 211.879 3.35697 -0.718504 0
M  V30 2310 N 214.325 -0.140222 1.56975 0
M  V30 2311 C 215.602 -0.880769 1.74648 0
M  V30 2312 C 215.982 -1.99036 0.703404 0
M  V30 2313 O 215.33 -2.26821 -0.27648 0
M  V30 2314 C 215.54 -1.417 3.18939 0
M  V30 2315 C 216.888 -1.87774 3.80823 0
M  V30 2316 O 217.912 -1.51427 3.2241 0
M  V30 2317 O 216.771 -2.54827 4.83452 0
M  V30 2318 H 213.865 -0.416713 0.714338 0
M  V30 2319 H 216.411 -0.125618 1.69234 0
M  V30 2320 H 215.183 -0.619902 3.86359 0
M  V30 2321 H 214.806 -2.23546 3.28805 0
M  V30 2322 N 215.803 -1.52179 -0.40978 0
M  V30 2323 C 216.713 -1.78364 -1.52392 0
M  V30 2324 C 217.729 -0.669183 -1.60617 0
M  V30 2325 O 218.905 -0.954518 -1.77344 0
M  V30 2326 C 215.97 -1.92822 -2.88133 0
M  V30 2327 C 215.031 -3.16725 -2.898 0
M  V30 2328 C 214.264 -3.30483 -4.19067 0
M  V30 2329 O 214.487 -2.49522 -5.12928 0
M  V30 2330 O 213.421 -4.2363 -4.27576 0
M  V30 2331 H 217.247 -2.72931 -1.33201 0
M  V30 2332 H 214.832 -1.37016 -0.59557 0
M  V30 2333 H 216.714 -2.04157 -3.68643 0
M  V30 2334 H 215.389 -1.01444 -3.07393 0
M  V30 2335 H 214.296 -3.10848 -2.08146 0
M  V30 2336 H 215.629 -4.07881 -2.75489 0
M  V30 2337 N 217.281 0.66697 -1.42791 0
M  V30 2338 C 218.191 1.80962 -1.49299 0
M  V30 2339 C 219.207 1.69775 -0.381108 0
M  V30 2340 O 220.383 1.91188 -0.633188 0
M  V30 2341 C 217.448 3.17156 -1.40045 0
M  V30 2342 C 216.509 3.40242 -2.6179 0
M  V30 2343 C 215.742 4.69939 -2.52969 0
M  V30 2344 O 215.965 5.48372 -1.56985 0
M  V30 2345 O 214.899 4.94441 -3.43237 0
M  V30 2346 H 218.725 1.78427 -2.45759 0
M  V30 2347 H 216.31 0.823713 -1.24641 0
M  V30 2348 H 218.192 3.98413 -1.37276 0
M  V30 2349 H 216.867 3.20312 -0.467138 0
M  V30 2350 H 215.774 2.58802 -2.70134 0
M  V30 2351 H 217.107 3.41923 -3.54047 0
M  V30 2352 N 218.759 1.29093 0.90403 0
M  V30 2353 C 220.005 1.16986 1.65656 0
M  V30 2354 C 220.338 -0.278925 1.92186 0
M  V30 2355 O 219.613 -1.2019 1.5292 0
M  V30 2356 C 219.896 1.97908 3.0084 0
M  V30 2357 C 219.749 3.50903 2.81403 0
M  V30 2358 C 221.068 1.80208 4.01513 0
M  V30 2359 H 218.187 0.426346 0.601164 0
M  V30 2360 H 220.829 1.58518 1.04747 0
M  V30 2361 H 218.979 1.62616 3.52829 0
M  V30 2362 H 220.651 3.96153 2.36348 0
M  V30 2363 H 218.894 3.76045 2.1627 0
M  V30 2364 H 219.565 4.02791 3.77443 0
M  V30 2365 H 222.041 2.11025 3.58619 0
M  V30 2366 H 220.917 2.39184 4.94047 0
M  V30 2367 H 221.178 0.756119 4.35586 0
M  V30 2368 N 220.237 -1.11381 1.11499 0
M  V30 2369 C 221.485 -1.8277 0.862524 0
M  V30 2370 C 221.806 -1.85097 -0.613534 0
M  V30 2371 O 221.076 -1.32198 -1.4457 0
M  V30 2372 H 219.656 -0.676823 0.316101 0
M  V30 2373 H 222.318 -1.34816 1.4075 0
M  V30 2374 H 221.414 -2.86614 1.23527 0
M  V30 2375 N 221.715 -0.905404 -1.28997 0
M  V30 2376 C 222.963 -0.533192 -1.9494 0
M  V30 2377 C 223.284 0.924618 -1.71685 0
M  V30 2378 O 222.554 1.65268 -1.05183 0
M  V30 2379 H 221.134 -0.194194 -0.721317 0
M  V30 2380 H 223.796 -1.15294 -1.57141 0
M  V30 2381 H 222.892 -0.72059 -3.03667 0
M  V30 2382 N 223.193 1.4272 -0.668489 0
M  V30 2383 C 224.143 2.27971 0.0363806 0
M  V30 2384 C 225.127 1.40741 0.779794 0
M  V30 2385 O 226.319 1.64245 0.659745 0
M  V30 2386 C 223.448 3.28673 0.991398 0
M  V30 2387 C 222.534 4.23388 0.245658 0
M  V30 2388 N 222.925 5.00267 -0.746069 0
M  V30 2389 C 221.223 4.43355 0.484988 0
M  V30 2390 C 221.924 5.69396 -1.19009 0
M  V30 2391 N 220.9 5.41095 -0.521287 0
M  V30 2392 H 224.702 2.84833 -0.724394 0
M  V30 2393 H 222.216 1.54607 -0.497028 0
M  V30 2394 H 224.213 3.88543 1.51129 0
M  V30 2395 H 222.873 2.73373 1.75207 0
M  V30 2396 H 223.884 5.05525 -1.12537 0
M  V30 2397 H 220.561 3.99104 1.22565 0
M  V30 2398 H 221.951 6.41083 -2.01153 0
M  V30 2399 N 224.671 0.411399 1.52136 0
M  V30 2400 C 225.603 -0.448386 2.24771 0
M  V30 2401 C 226.616 -1.00828 1.27818 0
M  V30 2402 O 227.805 -0.906841 1.53749 0
M  V30 2403 C 224.905 -1.63636 2.96777 0
M  V30 2404 C 224.078 -1.19995 4.20618 0
M  V30 2405 C 223.137 -2.25509 4.75428 0
M  V30 2406 O 222.163 -1.86007 5.3795 0
M  V30 2407 N 223.365 -3.577 4.57199 0
M  V30 2408 H 226.13 0.174025 2.99194 0
M  V30 2409 H 223.691 0.238897 1.60128 0
M  V30 2410 H 225.683 -2.33793 3.30338 0
M  V30 2411 H 224.253 -2.16465 2.25526 0
M  V30 2412 H 223.473 -0.326421 3.92846 0
M  V30 2413 H 224.761 -0.885365 5.01038 0
M  V30 2414 H 224.159 -3.92543 4.07341 0
M  V30 2415 H 222.716 -4.23827 4.95191 0
M  V30 2416 N 226.149 -1.5696 0.141893 0
M  V30 2417 C 227.397 -1.95573 -0.509484 0
M  V30 2418 C 227.718 -1.02746 -1.65736 0
M  V30 2419 O 226.988 -0.0880311 -1.95702 0
M  V30 2420 H 225.568 -0.722115 -0.191205 0
M  V30 2421 H 228.23 -1.93697 0.216196 0
M  V30 2422 H 227.326 -2.99171 -0.889 0
M  V30 2423 N 227.627 0.131896 -1.57047 0
M  V30 2424 C 228.56 1.19236 -1.94571 0
M  V30 2425 C 229.538 1.40782 -0.813576 0
M  V30 2426 O 230.722 1.55148 -1.07058 0
M  V30 2427 C 227.849 2.54858 -2.23081 0
M  V30 2428 C 226.895 2.49817 -3.45679 0
M  V30 2429 S 227.728 1.95036 -4.98719 0
M  V30 2430 C 228.884 3.32357 -5.30367 0
M  V30 2431 H 229.117 0.872297 -2.84215 0
M  V30 2432 H 226.65 0.338134 -1.50652 0
M  V30 2433 H 228.608 3.32898 -2.40185 0
M  V30 2434 H 227.269 2.84047 -1.34074 0
M  V30 2435 H 226.462 3.49688 -3.62952 0
M  V30 2436 H 226.064 1.79892 -3.27895 0
M  V30 2437 H 228.356 4.28525 -5.2476 0
M  V30 2438 H 229.299 3.19923 -6.31708 0
M  V30 2439 H 229.707 3.3019 -4.57859 0
M  V30 2440 N 229.106 1.52395 0.401703 0
M  V30 2441 C 230.016 1.7917 1.51444 0
M  V30 2442 C 231.032 0.677691 1.6026 0
M  V30 2443 O 232.208 0.963909 1.76835 0
M  V30 2444 C 229.273 1.94347 2.87107 0
M  V30 2445 C 228.334 3.18257 2.88116 0
M  V30 2446 C 227.567 3.32701 4.17308 0
M  V30 2447 O 227.79 2.52238 5.11598 0
M  V30 2448 O 226.724 4.25891 4.25324 0
M  V30 2449 H 230.55 2.73633 1.31752 0
M  V30 2450 H 228.135 1.3733 0.588296 0
M  V30 2451 H 230.017 2.06109 3.67555 0
M  V30 2452 H 228.692 1.03073 3.06851 0
M  V30 2453 H 227.599 3.11947 2.06494 0
M  V30 2454 H 228.932 4.09336 2.73322 0
M  V30 2455 N 230.584 -0.659388 1.43143 0
M  V30 2456 C 231.514 -1.78422 1.50625 0
M  V30 2457 C 232.495 -1.66216 0.361443 0
M  V30 2458 O 233.68 -1.85404 0.577834 0
M  V30 2459 C 230.81 -3.16815 1.42287 0
M  V30 2460 C 229.764 -3.43777 2.54954 0
M  V30 2461 C 229.09 -4.81905 2.31671 0
M  V30 2462 C 230.39 -3.39134 3.97222 0
M  V30 2463 H 232.084 -1.72417 2.44771 0
M  V30 2464 H 229.63 -0.828084 1.17808 0
M  V30 2465 H 231.583 -3.95253 1.46127 0
M  V30 2466 H 230.307 -3.23534 0.446435 0
M  V30 2467 H 228.966 -2.67707 2.50457 0
M  V30 2468 H 228.614 -4.85294 1.32284 0
M  V30 2469 H 228.314 -5.00906 3.07192 0
M  V30 2470 H 229.838 -5.62609 2.37284 0
M  V30 2471 H 231.252 -4.07518 4.03239 0
M  V30 2472 H 229.649 -3.69671 4.72719 0
M  V30 2473 H 230.719 -2.37426 4.22797 0
M  V30 2474 N 232.062 -1.29571 -0.897171 0
M  V30 2475 C 233.309 -1.17689 -1.6479 0
M  V30 2476 C 233.637 0.27107 -1.92602 0
M  V30 2477 O 232.892 1.21193 -1.53658 0
M  V30 2478 C 233.191 -1.9382 -3.00281 0
M  V30 2479 C 232.857 -3.43522 -2.92068 0
M  V30 2480 C 231.519 -3.84348 -2.89535 0
M  V30 2481 C 233.871 -4.38906 -2.81089 0
M  V30 2482 C 231.199 -5.18869 -2.73846 0
M  V30 2483 C 233.551 -5.73521 -2.66939 0
M  V30 2484 C 232.215 -6.13601 -2.62774 0
M  V30 2485 H 231.485 -0.430654 -0.603008 0
M  V30 2486 H 234.132 -1.60536 -1.04404 0
M  V30 2487 H 232.437 -1.4357 -3.64547 0
M  V30 2488 H 234.134 -1.82028 -3.57305 0
M  V30 2489 H 230.724 -3.11072 -2.94842 0
M  V30 2490 H 234.908 -4.08315 -2.82121 0
M  V30 2491 H 230.164 -5.4903 -2.69027 0
M  V30 2492 H 234.338 -6.47078 -2.57416 0
M  V30 2493 H 231.965 -7.17786 -2.50375 0
M  V30 2494 N 233.54 1.10788 -1.12088 0
M  V30 2495 C 234.786 1.82942 -0.875226 0
M  V30 2496 C 235.119 1.84779 0.597538 0
M  V30 2497 O 234.394 1.30578 1.44152 0
M  V30 2498 C 234.677 3.29789 -1.44606 0
M  V30 2499 C 234.53 3.36307 -2.98693 0
M  V30 2500 C 235.849 4.26064 -1.10261 0
M  V30 2501 H 232.968 0.664195 -0.319397 0
M  V30 2502 H 235.61 1.29867 -1.38689 0
M  V30 2503 H 233.76 3.75118 -1.01089 0
M  V30 2504 H 235.432 2.99487 -3.50864 0
M  V30 2505 H 233.675 2.76318 -3.34411 0
M  V30 2506 H 234.346 4.39694 -3.33726 0
M  V30 2507 H 236.822 3.88951 -1.4784 0
M  V30 2508 H 235.698 5.27183 -1.52869 0
M  V30 2509 H 235.959 4.42098 -0.0142953 0
M  V30 2510 N 235.018 0.912232 1.28515 0
M  V30 2511 C 235.95 0.35676 2.26406 0
M  V30 2512 C 236.963 -0.503933 1.54804 0
M  V30 2513 O 238.152 -0.319059 1.75625 0
M  V30 2514 C 235.252 -0.508825 3.35058 0
M  V30 2515 C 234.425 0.329007 4.36161 0
M  V30 2516 C 233.484 -0.471422 5.24084 0
M  V30 2517 O 232.51 0.115482 5.69083 0
M  V30 2518 N 233.712 -1.77479 5.52704 0
M  V30 2519 H 236.477 1.19818 2.74707 0
M  V30 2520 H 234.038 0.778022 1.4198 0
M  V30 2521 H 236.03 -1.051 3.90815 0
M  V30 2522 H 234.6 -1.25095 2.86478 0
M  V30 2523 H 233.82 1.05256 3.79888 0
M  V30 2524 H 235.108 0.90234 5.00735 0
M  V30 2525 H 234.506 -2.27417 5.17975 0
M  V30 2526 H 233.063 -2.26382 6.11224 0
M  V30 2527 N 236.496 -1.42363 0.676048 0
M  V30 2528 C 237.912 -1.55811 0.345718 0
M  V30 2529 C 238.112 -1.65544 -1.14879 0
M  V30 2530 O 237.168 -1.62306 -1.93424 0
M  V30 2531 C 238.481 -2.80746 1.07713 0
M  V30 2532 C 240.029 -2.9452 1.05958 0
M  V30 2533 C 240.504 -4.22318 1.77233 0
M  V30 2534 N 241.995 -4.29233 1.74108 0
M  V30 2535 C 242.73 -5.26935 2.26113 0
M  V30 2536 N 242.226 -6.30783 2.86505 0
M  V30 2537 N 244.019 -5.18741 2.1648 0
M  V30 2538 H 236.17 -1.34289 1.6456 0
M  V30 2539 H 238.433 -0.646506 0.69335 0
M  V30 2540 H 238.139 -2.79696 2.13221 0
M  V30 2541 H 238.013 -3.71676 0.64316 0
M  V30 2542 H 240.4 -2.95097 0.0128255 0
M  V30 2543 H 240.481 -2.04817 1.53244 0
M  V30 2544 H 240.125 -4.22502 2.81877 0
M  V30 2545 H 240.055 -5.10958 1.27396 0
M  V30 2546 H 242.546 -3.54814 1.30059 0
M  V30 2547 H 242.859 -7.01691 3.23805 0
M  V30 2548 H 241.204 -6.31341 2.90575 0
M  V30 2549 H 244.395 -4.36533 1.68987 0
M  V30 2550 H 244.568 -5.94721 2.57316 0
M  V30 2551 N 237.974 -0.419461 -1.51915 0
M  V30 2552 C 239.385 0.0477853 -1.86639 0
M  V30 2553 C 239.736 1.43531 -1.33766 0
M  V30 2554 O 238.861 2.05401 -0.68113 0
M  V30 2555 C 239.456 0.0934885 -3.38671 0
M  V30 2556 C 238.015 0.505097 -3.72996 0
M  V30 2557 C 237.162 -0.313792 -2.75519 0
M  V30 2558 H 240.113 -0.636088 -1.45395 0
M  V30 2559 H 240.134 0.906667 -3.6954 0
M  V30 2560 H 239.646 -0.916501 -3.77123 0
M  V30 2561 H 237.747 1.52135 -3.40126 0
M  V30 2562 H 237.86 0.242309 -4.78487 0
M  V30 2563 H 236.224 0.225363 -2.53701 0
M  V30 2564 H 237.007 -1.32232 -3.16812 0
M  V30 2565 N 239.452 1.56882 -0.150215 0
M  V30 2566 C 240.362 2.20494 0.801222 0
M  V30 2567 C 241.378 1.19019 1.26927 0
M  V30 2568 O 242.554 1.51607 1.32579 0
M  V30 2569 C 239.619 2.81659 2.02161 0
M  V30 2570 C 238.68 3.9827 1.60249 0
M  V30 2571 C 237.913 4.56508 2.7647 0
M  V30 2572 O 238.136 4.13627 3.92771 0
M  V30 2573 O 237.07 5.46719 2.51757 0
M  V30 2574 H 240.896 3.02315 0.289717 0
M  V30 2575 H 238.481 1.49202 0.0769684 0
M  V30 2576 H 240.363 3.20522 2.73576 0
M  V30 2577 H 239.038 2.02849 2.52258 0
M  V30 2578 H 237.945 3.64117 0.858477 0
M  V30 2579 H 239.278 4.78609 1.14864 0
M  V30 2580 N 240.93 -0.123565 1.57115 0
M  V30 2581 C 242.177 -0.832153 1.84612 0
M  V30 2582 C 242.505 -1.80093 0.734627 0
M  V30 2583 O 241.76 -1.93766 -0.27442 0
M  V30 2584 C 242.059 -1.62016 3.18568 0
M  V30 2585 C 241.725 -0.796084 4.43817 0
M  V30 2586 C 240.387 -0.568816 4.77826 0
M  V30 2587 C 242.739 -0.221364 5.2073 0
M  V30 2588 C 240.067 0.243499 5.86194 0
M  V30 2589 C 242.419 0.578117 6.29953 0
M  V30 2590 C 241.083 0.815744 6.62497 0
M  V30 2591 H 240.353 -0.304507 0.675542 0
M  V30 2592 H 243 -0.0947248 1.91266 0
M  V30 2593 H 241.305 -2.42837 3.0747 0
M  V30 2594 H 243.002 -2.17231 3.37064 0
M  V30 2595 H 239.592 -0.983307 4.17168 0
M  V30 2596 H 243.776 -0.384173 4.94811 0
M  V30 2597 H 239.032 0.436871 6.09837 0
M  V30 2598 H 243.206 1.03046 6.88734 0
M  V30 2599 H 240.833 1.44701 7.46301 0
M  V30 2600 N 242.408 -1.52605 -0.393616 0
M  V30 2601 C 243.358 -1.73436 -1.48 0
M  V30 2602 C 244.342 -0.588386 -1.49756 0
M  V30 2603 O 245.534 -0.846047 -1.5547 0
M  V30 2604 C 242.663 -1.90247 -2.85764 0
M  V30 2605 C 241.749 -3.10763 -2.88595 0
M  V30 2606 N 242.14 -4.33196 -2.61103 0
M  V30 2607 C 240.438 -3.10914 -3.19763 0
M  V30 2608 C 241.139 -5.1477 -2.70899 0
M  V30 2609 N 240.115 -4.50356 -3.04435 0
M  V30 2610 H 243.917 -2.65727 -1.25563 0
M  V30 2611 H 241.431 -1.5085 -0.601513 0
M  V30 2612 H 243.428 -2.03291 -3.63976 0
M  V30 2613 H 242.088 -0.991663 -3.09186 0
M  V30 2614 H 243.099 -4.61408 -2.35209 0
M  V30 2615 H 239.776 -2.29626 -3.4868 0
M  V30 2616 H 241.166 -6.22355 -2.53227 0
M  V30 2617 N 243.887 0.651787 -1.4349 0
M  V30 2618 C 244.85 1.74647 -1.48429 0
M  V30 2619 C 245.85 1.56513 -0.368817 0
M  V30 2620 O 247.04 1.62385 -0.630623 0
M  V30 2621 C 244.172 3.13533 -1.33827 0
M  V30 2622 H 245.365 1.71649 -2.4592 0
M  V30 2623 H 242.918 0.863573 -1.30277 0
M  V30 2624 H 243.653 3.22142 -0.37349 0
M  V30 2625 H 243.438 3.28101 -2.14691 0
M  V30 2626 H 244.928 3.93356 -1.40218 0
M  V30 2627 N 245.365 1.30045 0.890287 0
M  V30 2628 C 246.295 1.18541 2.01172 0
M  V30 2629 C 247.276 0.0773356 1.69924 0
M  V30 2630 O 248.461 0.25845 1.92473 0
M  V30 2631 C 245.591 0.870941 3.36202 0
M  V30 2632 C 244.545 1.93637 3.81692 0
M  V30 2633 C 243.871 1.475 5.13953 0
M  V30 2634 C 245.171 3.34666 4.00994 0
M  V30 2635 H 246.865 2.12359 2.11054 0
M  V30 2636 H 244.411 1.02238 1.01407 0
M  V30 2637 H 246.364 0.777141 4.14172 0
M  V30 2638 H 245.088 -0.102926 3.26438 0
M  V30 2639 H 243.747 2.01972 3.05946 0
M  V30 2640 H 243.395 0.489551 5.00612 0
M  V30 2641 H 243.095 2.1876 5.4536 0
M  V30 2642 H 244.619 1.39489 5.94454 0
M  V30 2643 H 246.033 3.2912 4.69417 0
M  V30 2644 H 244.43 4.03966 4.43769 0
M  V30 2645 H 245.5 3.76949 3.05021 0
M  V30 2646 N 246.843 -1.10192 1.12674 0
M  V30 2647 C 248.259 -1.34235 0.863317 0
M  V30 2648 C 248.459 -1.95062 -0.505277 0
M  V30 2649 O 247.515 -2.19192 -1.25345 0
M  V30 2650 C 248.828 -2.2616 1.98172 0
M  V30 2651 C 250.376 -2.3969 2.0129 0
M  V30 2652 C 250.851 -3.34946 3.1237 0
M  V30 2653 N 252.342 -3.42515 3.11829 0
M  V30 2654 C 253.077 -4.16199 3.94419 0
M  V30 2655 N 252.573 -4.92747 4.87004 0
M  V30 2656 N 254.366 -4.11843 3.82547 0
M  V30 2657 H 246.517 -0.690798 2.00853 0
M  V30 2658 H 248.78 -0.366774 0.874174 0
M  V30 2659 H 248.486 -1.8868 2.96804 0
M  V30 2660 H 248.36 -3.26488 1.88906 0
M  V30 2661 H 250.747 -2.76438 1.03276 0
M  V30 2662 H 250.828 -1.39169 2.14629 0
M  V30 2663 H 250.472 -2.98923 4.10619 0
M  V30 2664 H 250.402 -4.35353 2.96269 0
M  V30 2665 H 252.893 -2.87926 2.44759 0
M  V30 2666 H 253.206 -5.46376 5.46528 0
M  V30 2667 H 251.551 -4.91862 4.91016 0
M  V30 2668 H 254.742 -3.51136 3.0955 0
M  V30 2669 H 254.915 -4.69007 4.47142 0
M  V30 2670 N 248.321 -0.919034 -1.28029 0
M  V30 2671 C 249.284 -0.416182 -2.2539 0
M  V30 2672 C 250.284 0.460438 -1.54067 0
M  V30 2673 O 251.474 0.262744 -1.72207 0
M  V30 2674 C 248.606 0.402707 -3.38513 0
M  V30 2675 H 249.799 -1.27629 -2.71387 0
M  V30 2676 H 247.352 -0.698919 -1.39803 0
M  V30 2677 H 248.087 1.282 -2.97885 0
M  V30 2678 H 247.872 -0.225698 -3.9145 0
M  V30 2679 H 249.362 0.745191 -4.10897 0
M  V30 2680 N 249.799 1.42003 -0.683588 0
M  V30 2681 C 251.047 2.01015 -0.209101 0
M  V30 2682 C 251.368 1.54365 1.19149 0
M  V30 2683 O 250.638 0.769083 1.80172 0
M  V30 2684 H 249.218 0.743294 -0.074315 0
M  V30 2685 H 251.88 1.73798 -0.882066 0
M  V30 2686 H 250.976 3.11343 -0.2172 0
M  V30 2687 N 251.277 0.427512 1.51691 0
M  V30 2688 C 252.524 -0.142229 2.02 0
M  V30 2689 C 252.852 -1.43566 1.31221 0
M  V30 2690 O 252.107 -1.91298 0.412744 0
M  V30 2691 C 252.406 -0.418249 3.54944 0
M  V30 2692 C 252.072 0.788187 4.43958 0
M  V30 2693 C 250.734 1.11906 4.68007 0
M  V30 2694 C 253.086 1.59347 4.96244 0
M  V30 2695 C 250.414 2.25608 5.41588 0
M  V30 2696 C 252.766 2.7214 5.71072 0
M  V30 2697 C 251.43 3.05692 5.93387 0
M  V30 2698 H 250.7 -0.0520451 0.73917 0
M  V30 2699 H 253.347 0.572697 1.82736 0
M  V30 2700 H 251.652 -1.21496 3.72486 0
M  V30 2701 H 253.349 -0.872339 3.91397 0
M  V30 2702 H 249.939 0.520344 4.2543 0
M  V30 2703 H 254.123 1.35106 4.77556 0
M  V30 2704 H 249.379 2.51929 5.57083 0
M  V30 2705 H 253.553 3.34914 6.10578 0
M  V30 2706 H 251.18 3.9391 6.50184 0
M  V30 2707 N 252.755 -1.56801 0.158532 0
M  V30 2708 C 253.718 -2.16138 -0.762705 0
M  V30 2709 C 254.718 -1.1061 -1.16713 0
M  V30 2710 O 255.908 -1.36191 -1.08617 0
M  V30 2711 C 253.04 -2.73386 -2.03649 0
M  V30 2712 H 254.233 -2.98886 -0.246354 0
M  V30 2713 H 251.786 -1.56035 -0.0909744 0
M  V30 2714 H 252.521 -1.94335 -2.59623 0
M  V30 2715 H 252.306 -3.50601 -1.75559 0
M  V30 2716 H 253.796 -3.19065 -2.6942 0
M  V30 2717 N 254.233 0.115231 -1.57178 0
M  V30 2718 C 255.163 1.1423 -2.03651 0
M  V30 2719 C 256.144 1.42967 -0.921655 0
M  V30 2720 O 257.329 1.53343 -1.19162 0
M  V30 2721 C 254.459 2.4675 -2.44401 0
M  V30 2722 C 253.413 2.32467 -3.59365 0
M  V30 2723 C 252.739 3.69984 -3.86026 0
M  V30 2724 C 254.039 1.78203 -4.90959 0
M  V30 2725 H 255.733 0.755749 -2.89705 0
M  V30 2726 H 253.279 0.362093 -1.39373 0
M  V30 2727 H 255.232 3.18854 -2.75517 0
M  V30 2728 H 253.956 2.87302 -1.55322 0
M  V30 2729 H 252.615 1.62811 -3.28463 0
M  V30 2730 H 252.263 4.08028 -2.94147 0
M  V30 2731 H 251.963 3.61279 -4.63412 0
M  V30 2732 H 253.487 4.43587 -4.19599 0
M  V30 2733 H 254.901 2.40128 -5.20587 0
M  V30 2734 H 253.298 1.8031 -5.72371 0
M  V30 2735 H 254.368 0.739876 -4.79222 0
M  V30 2736 N 255.711 1.52812 0.385517 0
M  V30 2737 C 256.988 1.5861 1.14465 0
M  V30 2738 C 257.368 0.381402 2.07626 0
M  V30 2739 O 256.716 -0.629999 2.19643 0
M  V30 2740 C 256.926 2.92664 1.90128 0
M  V30 2741 C 258.274 3.46526 2.45367 0
M  V30 2742 O 259.298 2.94562 2.0028 0
M  V30 2743 O 258.157 4.37323 3.27736 0
M  V30 2744 H 255.251 0.639855 0.523941 0
M  V30 2745 H 257.797 1.65149 0.390389 0
M  V30 2746 H 256.569 3.71788 1.22022 0
M  V30 2747 H 256.192 2.89527 2.72507 0
M  V30 2748 N 257.189 -0.644168 1.43834 0
M  V30 2749 C 258.099 -1.78563 1.52159 0
M  V30 2750 C 259.115 -1.69147 0.408069 0
M  V30 2751 O 260.291 -1.90156 0.663524 0
M  V30 2752 C 257.356 -3.14888 1.45073 0
M  V30 2753 C 256.417 -3.36034 2.6717 0
M  V30 2754 C 255.65 -4.65855 2.60413 0
M  V30 2755 O 255.873 -5.45805 1.65689 0
M  V30 2756 O 254.807 -4.88918 3.5106 0
M  V30 2757 H 258.633 -1.74494 2.48567 0
M  V30 2758 H 256.218 -0.80378 1.25935 0
M  V30 2759 H 258.1 -3.96179 1.43597 0
M  V30 2760 H 256.775 -3.19528 0.518037 0
M  V30 2761 H 255.682 -2.54472 2.74217 0
M  V30 2762 H 257.015 -3.36247 3.59442 0
M  V30 2763 N 258.668 -1.30515 -0.883378 0
M  V30 2764 C 259.916 -1.19194 -1.63209 0
M  V30 2765 C 260.237 0.253205 -1.93349 0
M  V30 2766 O 259.507 1.17025 -1.57105 0
M  V30 2767 H 258.087 -0.438148 -0.605009 0
M  V30 2768 H 260.749 -1.63663 -1.05832 0
M  V30 2769 H 259.845 -1.75396 -2.58153 0
M  V30 2770 N 260.146 1.09593 -1.13257 0
M  V30 2771 C 261.395 1.81105 -0.887917 0
M  V30 2772 C 261.708 1.86563 0.587672 0
M  V30 2773 O 262.914 2.54367 0.949204 0
M  V30 2774 C 261.37 3.25338 -1.53895 0
M  V30 2775 C 260.978 3.28151 -3.04994 0
M  V30 2776 C 262.722 4.01617 -1.37492 0
M  V30 2777 C 260.629 4.66897 -3.6299 0
M  V30 2778 H 259.559 0.678661 -0.328534 0
M  V30 2779 H 262.21 1.23183 -1.36008 0
M  V30 2780 H 260.592 3.8331 -0.994446 0
M  V30 2781 H 261.766 2.79953 -3.66009 0
M  V30 2782 H 260.081 2.65361 -3.20893 0
M  V30 2783 H 262.678 5.04119 -1.78235 0
M  V30 2784 H 263.021 4.15072 -0.31957 0
M  V30 2785 H 263.554 3.50082 -1.88912 0
M  V30 2786 H 260.293 4.58643 -4.68323 0
M  V30 2787 H 259.813 5.15426 -3.06752 0
M  V30 2788 H 261.492 5.3587 -3.62563 0
M  V30 2789 N 261.624 0.925811 1.2754 0
M  V30 2790 C 262.587 0.428129 2.25166 0
M  V30 2791 C 263.587 -0.452261 1.54309 0
M  V30 2792 O 264.777 -0.253608 1.72344 0
M  V30 2793 C 261.909 -0.384749 3.38722 0
M  V30 2794 H 263.102 1.29066 2.70706 0
M  V30 2795 H 260.655 0.706323 1.3943 0
M  V30 2796 H 261.39 -1.26618 2.98561 0
M  V30 2797 H 261.175 0.246454 3.91325 0
M  V30 2798 H 262.665 -0.723389 4.11287 0
M  V30 2799 N 263.102 -1.41638 0.69111 0
M  V30 2800 C 264.05 -2.32597 0.0115199 0
M  V30 2801 C 265.044 -1.5072 -0.773296 0
M  V30 2802 O 266.25 -1.66685 -0.67942 0
M  V30 2803 H 262.625 -0.751849 -0.0150746 0
M  V30 2804 H 264.596 -2.87593 0.795791 0
M  V30 2805 C 263.345 -3.35467 -0.914172 0
M  V30 2806 H 262.668 -3.9852 -0.319687 0
M  V30 2807 H 264.108 -4.01662 -1.35808 0
M  V30 2808 C 262.567 -2.69004 -2.02826 0
M  V30 2809 O 263.097 -2.53444 -3.11655 0
M  V30 2810 N 261.303 -2.2777 -1.80469 0
M  V30 2811 H 260.85 -2.40626 -0.919615 0
M  V30 2812 H 260.808 -1.83635 -2.55197 0
M  V30 2813 N 264.58 -0.43555 -1.51462 0
M  V30 2814 C 265.991 0.0279871 -1.86679 0
M  V30 2815 C 266.342 1.42104 -1.35281 0
M  V30 2816 O 265.467 2.04667 -0.702878 0
M  V30 2817 C 266.062 0.0575626 -3.38751 0
M  V30 2818 C 264.621 0.465507 -3.7351 0
M  V30 2819 C 263.768 -0.342996 -2.75171 0
M  V30 2820 H 266.719 -0.651473 -1.44712 0
M  V30 2821 H 266.74 0.867421 -3.70481 0
M  V30 2822 H 266.252 -0.956448 -3.7613 0
M  V30 2823 H 264.353 1.48519 -3.41721 0
M  V30 2824 H 264.466 0.191546 -4.78717 0
M  V30 2825 H 262.83 0.198442 -2.53926 0
M  V30 2826 H 263.613 -1.35585 -3.15391 0
M  V30 2827 N 266.058 1.56714 -0.166846 0
M  V30 2828 C 267.286 2.0112 0.485644 0
M  V30 2829 C 267.701 1.04705 1.57106 0
M  V30 2830 O 267.058 0.0471923 1.82439 0
M  V30 2831 C 267.109 3.45361 1.06808 0
M  V30 2832 O 266.83 4.38092 0.0259995 0
M  V30 2833 C 268.331 4.05145 1.79924 0
M  V30 2834 H 265.551 0.65931 0.124704 0
M  V30 2835 H 268.095 2.02746 -0.267262 0
M  V30 2836 H 266.25 3.44524 1.7715 0
M  V30 2837 H 266.664 5.22519 0.455398 0
M  V30 2838 H 268.138 5.08009 2.15942 0
M  V30 2839 H 268.615 3.46982 2.69258 0
M  V30 2840 H 269.221 4.09672 1.14234 0
M  V30 2841 N 267.536 -0.106894 1.57237 0
M  V30 2842 C 268.813 -0.843526 1.76477 0
M  V30 2843 C 269.193 -1.97499 0.745464 0
M  V30 2844 O 268.541 -2.27357 -0.228306 0
M  V30 2845 C 268.751 -1.34903 3.21873 0
M  V30 2846 C 270.099 -1.79654 3.8472 0
M  V30 2847 O 271.123 -1.44554 3.2555 0
M  V30 2848 O 269.982 -2.44515 4.88748 0
M  V30 2849 H 267.076 -0.401468 0.723016 0
M  V30 2850 H 269.622 -0.0896927 1.69463 0
M  V30 2851 H 268.394 -0.53781 3.87586 0
M  V30 2852 H 268.017 -2.16522 3.33473 0
M  V30 2853 N 269.014 -1.53014 -0.377408 0
M  V30 2854 C 269.977 -1.77957 -1.44444 0
M  V30 2855 C 270.977 -0.649763 -1.47087 0
M  V30 2856 O 272.167 -0.917897 -1.48055 0
M  V30 2857 C 269.299 -1.89089 -2.83651 0
M  V30 2858 H 270.492 -2.73243 -1.23606 0
M  V30 2859 H 268.045 -1.43912 -0.609844 0
M  V30 2860 H 268.78 -0.958293 -3.09818 0
M  V30 2861 H 268.565 -2.71254 -2.83132 0
M  V30 2862 H 270.055 -2.1002 -3.60945 0
M  V30 2863 N 270.492 0.636531 -1.44174 0
M  V30 2864 C 271.739 1.39619 -1.46672 0
M  V30 2865 C 272.067 1.94257 -0.0972691 0
M  V30 2866 O 271.322 1.73768 0.900175 0
M  V30 2867 C 271.621 2.58309 -2.47005 0
M  V30 2868 C 271.287 2.21992 -3.92467 0
M  V30 2869 C 269.949 2.118 -4.32081 0
M  V30 2870 C 272.301 1.9321 -4.84065 0
M  V30 2871 C 269.629 1.71007 -5.61225 0
M  V30 2872 C 271.981 1.53911 -6.13591 0
M  V30 2873 C 270.645 1.42257 -6.52165 0
M  V30 2874 H 269.915 0.510902 -0.536712 0
M  V30 2875 H 272.562 0.722328 -1.77355 0
M  V30 2876 H 270.867 3.30903 -2.09786 0
M  V30 2877 H 272.564 3.16533 -2.46186 0
M  V30 2878 H 269.154 2.30841 -3.61124 0
M  V30 2879 H 273.338 1.99997 -4.54219 0
M  V30 2880 H 268.594 1.60583 -5.89935 0
M  V30 2881 H 272.768 1.30677 -6.8403 0
M  V30 2882 H 270.395 1.10419 -7.52138 0
M  V30 2883 N 271.97 1.30982 0.876444 0
M  V30 2884 C 273.198 1.23242 1.6619 0
M  V30 2885 C 273.613 -0.203345 1.87702 0
M  V30 2886 O 272.97 -1.13317 1.43057 0
M  V30 2887 C 273.021 1.96623 3.03351 0
M  V30 2888 O 272.742 3.34594 2.82804 0
M  V30 2889 C 274.243 1.95644 3.97792 0
M  V30 2890 H 271.463 0.426126 0.518322 0
M  V30 2891 H 274.007 1.7275 1.09442 0
M  V30 2892 H 272.162 1.50892 3.56806 0
M  V30 2893 H 272.576 3.71873 3.69879 0
M  V30 2894 H 274.05 2.51511 4.91372 0
M  V30 2895 H 274.527 0.937395 4.2908 0
M  V30 2896 H 275.133 2.41225 3.50272 0
M  V30 2897 N 273.449 -1.08991 1.13837 0
M  V30 2898 C 274.695 -1.81526 0.90422 0
M  V30 2899 C 275.028 -1.85706 -0.568066 0
M  V30 2900 O 274.303 -1.32855 -1.42056 0
M  V30 2901 C 274.586 -3.27447 1.49835 0
M  V30 2902 C 274.439 -3.31512 3.04006 0
M  V30 2903 C 275.758 -4.24256 1.17025 0
M  V30 2904 H 272.877 -0.659029 0.329923 0
M  V30 2905 H 275.519 -1.27644 1.40737 0
M  V30 2906 H 273.669 -3.73462 1.07044 0
M  V30 2907 H 275.341 -2.93867 3.55584 0
M  V30 2908 H 273.584 -2.70963 3.38765 0
M  V30 2909 H 274.255 -4.34329 3.40679 0
M  V30 2910 H 276.731 -3.86549 1.54009 0
M  V30 2911 H 275.607 -5.24684 1.61237 0
M  V30 2912 H 275.868 -4.42019 0.0846274 0
M  V30 2913 N 274.927 -0.932562 -1.27047 0
M  V30 2914 C 276.174 -0.575559 -1.94148 0
M  V30 2915 C 276.502 0.883984 -1.73251 0
M  V30 2916 O 275.757 1.64655 -1.0577 0
M  V30 2917 C 276.056 -0.853713 -3.47054 0
M  V30 2918 C 275.722 -2.29577 -3.88079 0
M  V30 2919 C 274.384 -2.68999 -3.9899 0
M  V30 2920 C 276.736 -3.23331 -4.08787 0
M  V30 2921 C 274.064 -4.01289 -4.28 0
M  V30 2922 C 276.416 -4.55207 -4.39282 0
M  V30 2923 C 275.08 -4.94457 -4.48407 0
M  V30 2924 H 274.35 -0.210612 -0.710439 0
M  V30 2925 H 276.997 -1.17744 -1.51025 0
M  V30 2926 H 275.302 -0.169204 -3.91434 0
M  V30 2927 H 276.999 -0.55639 -3.97121 0
M  V30 2928 H 273.589 -1.97994 -3.80127 0
M  V30 2929 H 277.773 -2.94074 -3.99793 0
M  V30 2930 H 273.029 -4.31374 -4.33275 0
M  V30 2931 H 277.203 -5.27852 -4.54252 0
M  V30 2932 H 274.83 -5.96994 -4.7064 0
M  V30 2933 N 276.405 1.4127 -0.698611 0
M  V30 2934 C 277.635 2.05205 -0.239644 0
M  V30 2935 C 278.043 1.52684 1.11733 0
M  V30 2936 O 277.386 0.671222 1.70998 0
M  V30 2937 C 277.448 3.59289 -0.123126 0
M  V30 2938 C 277.112 4.34619 -1.41263 0
M  V30 2939 C 278.109 4.63701 -2.35111 0
M  V30 2940 C 275.794 4.73837 -1.66684 0
M  V30 2941 C 277.788 5.30966 -3.52639 0
M  V30 2942 C 275.475 5.40837 -2.84498 0
M  V30 2943 C 276.473 5.69329 -3.77298 0
M  V30 2944 O 276.161 6.34949 -4.93047 0
M  V30 2945 H 275.893 0.66723 -0.108537 0
M  V30 2946 H 278.447 1.81974 -0.952602 0
M  V30 2947 H 276.677 3.81272 0.645628 0
M  V30 2948 H 278.366 4.04797 0.299056 0
M  V30 2949 H 279.132 4.33882 -2.16729 0
M  V30 2950 H 275.011 4.51039 -0.953135 0
M  V30 2951 H 278.555 5.53121 -4.25091 0
M  V30 2952 H 274.452 5.70075 -3.02795 0
M  V30 2953 H 275.22 6.53445 -4.92902 0
M  V30 2954 N 277.883 0.443576 1.51229 0
M  V30 2955 C 279.108 -0.121648 2.07043 0
M  V30 2956 C 279.533 -1.35156 1.30823 0
M  V30 2957 O 278.891 -1.7793 0.347934 0
M  V30 2958 C 278.939 -0.41624 3.5819 0
M  V30 2959 O 278.043 -1.50163 3.8409 0
M  V30 2960 H 277.384 0.000871367 0.663999 0
M  V30 2961 H 279.914 0.626706 1.94765 0
M  V30 2962 H 279.924 -0.664867 4.02546 0
M  V30 2963 H 278.599 0.482653 4.1309 0
M  V30 2964 H 277.176 -1.24248 3.51592 0
M  V30 2965 N 279.361 -1.56624 0.175154 0
M  V30 2966 C 280.271 -2.21741 -0.766042 0
M  V30 2967 C 281.287 -1.21023 -1.25018 0
M  V30 2968 O 282.463 -1.53697 -1.3015 0
M  V30 2969 C 279.528 -2.84839 -1.97655 0
M  V30 2970 C 278.589 -4.00769 -1.53892 0
M  V30 2971 C 277.822 -4.60849 -2.69173 0
M  V30 2972 O 278.045 -4.19823 -3.86141 0
M  V30 2973 O 276.979 -5.50655 -2.43028 0
M  V30 2974 H 280.805 -3.02738 -0.241585 0
M  V30 2975 H 278.39 -1.49305 -0.053222 0
M  V30 2976 H 280.272 -3.24834 -2.68442 0
M  V30 2977 H 278.947 -2.06836 -2.48999 0
M  V30 2978 H 277.854 -3.65436 -0.80044 0
M  V30 2979 H 279.187 -4.80376 -1.07236 0
M  V30 2980 N 280.839 0.0985539 -1.57292 0
M  V30 2981 C 282.255 0.45267 -1.53046 0
M  V30 2982 C 282.455 1.80713 -0.891342 0
M  V30 2983 O 281.511 2.4785 -0.482375 0
M  V30 2984 C 282.824 0.418341 -2.97776 0
M  V30 2985 C 284.372 0.500443 -3.08973 0
M  V30 2986 C 284.847 0.496297 -4.55303 0
M  V30 2987 N 286.338 0.557151 -4.59837 0
M  V30 2988 C 287.073 0.575726 -5.70502 0
M  V30 2989 N 286.569 0.550714 -6.90608 0
M  V30 2990 N 288.362 0.620277 -5.58667 0
M  V30 2991 H 280.513 -0.788673 -1.97215 0
M  V30 2992 H 282.776 -0.293188 -0.901524 0
M  V30 2993 H 282.482 -0.509659 -3.47988 0
M  V30 2994 H 282.356 1.2386 -3.56284 0
M  V30 2995 H 284.743 1.41886 -2.58751 0
M  V30 2996 H 284.824 -0.347894 -2.53423 0
M  V30 2997 H 284.468 -0.418162 -5.06176 0
M  V30 2998 H 284.398 1.3618 -5.08687 0
M  V30 2999 H 286.889 0.581816 -3.73394 0
M  V30 3000 H 287.202 0.568075 -7.70709 0
M  V30 3001 H 285.547 0.517816 -6.93068 0
M  V30 3002 H 288.738 0.637322 -4.63741 0
M  V30 3003 H 288.911 0.631283 -6.44918 0
M  V30 3004 N 282.317 1.53212 0.369288 0
M  V30 3005 C 283.542 1.73423 1.1375 0
M  V30 3006 C 283.967 0.460404 1.82378 0
M  V30 3007 O 283.325 -0.585298 1.71592 0
M  V30 3008 C 283.373 2.89769 2.1463 0
M  V30 3009 O 282.477 2.58119 3.21634 0
M  V30 3010 H 281.818 0.576061 0.330227 0
M  V30 3011 H 284.348 2.00083 0.427547 0
M  V30 3012 H 284.358 3.15829 2.58294 0
M  V30 3013 H 283.033 3.8217 1.64071 0
M  V30 3014 H 281.61 2.42864 2.82969 0
M  V30 3015 N 283.795 -0.628877 1.44509 0
M  V30 3016 C 285.206 -1.21054 1.42137 0
M  V30 3017 C 285.557 -1.95715 0.137881 0
M  V30 3018 O 284.682 -2.02554 -0.761645 0
M  V30 3019 C 285.277 -2.20189 2.57493 0
M  V30 3020 C 283.836 -2.73777 2.58308 0
M  V30 3021 C 282.983 -1.48813 2.33987 0
M  V30 3022 H 285.934 -0.41942 1.53057 0
M  V30 3023 H 285.955 -3.02833 2.30375 0
M  V30 3024 H 285.467 -1.6582 3.50892 0
M  V30 3025 H 283.568 -3.32142 1.68856 0
M  V30 3026 H 283.681 -3.19662 3.56865 0
M  V30 3027 H 282.045 -1.77024 1.83124 0
M  V30 3028 H 282.828 -0.963442 3.29504 0
M  V30 3029 N 285.273 -1.31445 -0.869486 0
M  V30 3030 C 286.519 -1.22347 -1.62489 0
M  V30 3031 C 286.874 0.216204 -1.91181 0
M  V30 3032 O 286.167 1.14977 -1.53268 0
M  V30 3033 C 286.361 -2.00145 -2.96102 0
M  V30 3034 C 286.19 -3.51531 -2.80456 0
M  V30 3035 C 284.96 -4.20882 -2.79618 0
M  V30 3036 C 287.158 -4.46471 -2.5528 0
M  V30 3037 N 285.14 -5.58421 -2.55027 0
M  V30 3038 C 286.511 -5.71682 -2.39957 0
M  V30 3039 C 288.566 -4.35892 -2.40629 0
M  V30 3040 C 287.269 -6.87511 -2.11472 0
M  V30 3041 C 289.295 -5.51505 -2.13532 0
M  V30 3042 C 288.657 -6.75707 -1.98998 0
M  V30 3043 H 284.756 -0.502815 -0.598917 0
M  V30 3044 H 287.34 -1.65639 -1.02332 0
M  V30 3045 H 285.511 -1.59221 -3.54264 0
M  V30 3046 H 287.243 -1.83063 -3.60929 0
M  V30 3047 H 283.998 -3.72857 -2.92018 0
M  V30 3048 H 284.422 -6.30841 -2.45701 0
M  V30 3049 H 289.064 -3.40533 -2.50593 0
M  V30 3050 H 286.782 -7.82897 -2.00245 0
M  V30 3051 H 290.368 -5.45238 -2.02995 0
M  V30 3052 H 289.248 -7.63655 -1.78326 0
M  V30 3053 N 286.751 1.08385 -1.14413 0
M  V30 3054 C 287.997 1.81212 -0.923793 0
M  V30 3055 C 288.352 1.84555 0.543814 0
M  V30 3056 O 287.645 1.31056 1.39767 0
M  V30 3057 C 287.839 3.26273 -1.45879 0
M  V30 3058 C 287.668 3.37063 -2.97689 0
M  V30 3059 C 286.438 3.4824 -3.66138 0
M  V30 3060 C 288.636 3.28698 -3.95553 0
M  V30 3061 N 286.618 3.47824 -5.05858 0
M  V30 3062 C 287.989 3.35276 -5.21527 0
M  V30 3063 C 290.044 3.12437 -3.8767 0
M  V30 3064 C 288.747 3.27267 -6.40538 0
M  V30 3065 C 290.773 3.05757 -5.06228 0
M  V30 3066 C 290.135 3.12938 -6.3107 0
M  V30 3067 H 286.234 0.6769 -0.391574 0
M  V30 3068 H 288.818 1.29455 -1.45429 0
M  V30 3069 H 286.989 3.76474 -0.95507 0
M  V30 3070 H 288.721 3.87165 -1.17835 0
M  V30 3071 H 285.476 3.52141 -3.16692 0
M  V30 3072 H 285.9 3.51171 -5.78798 0
M  V30 3073 H 290.542 3.05747 -2.92025 0
M  V30 3074 H 288.26 3.32718 -7.36427 0
M  V30 3075 H 291.846 2.94295 -5.01878 0
M  V30 3076 H 290.726 3.078 -7.21269 0
M  V30 3077 N 288.23 0.939286 1.26551 0
M  V30 3078 C 289.476 0.586715 1.94128 0
M  V30 3079 C 289.809 -0.8717 1.73537 0
M  V30 3080 O 289.084 -1.62339 1.07127 0
M  V30 3081 C 289.367 0.927497 3.4795 0
M  V30 3082 C 289.22 2.44052 3.77834 0
M  V30 3083 C 290.539 0.441569 4.37879 0
M  V30 3084 H 287.658 0.21463 0.705055 0
M  V30 3085 H 290.3 1.17316 1.49455 0
M  V30 3086 H 288.45 0.428431 3.8613 0
M  V30 3087 H 290.122 3.01216 3.4938 0
M  V30 3088 H 288.365 2.8848 3.23978 0
M  V30 3089 H 289.036 2.62947 4.85348 0
M  V30 3090 H 291.512 0.869448 4.06915 0
M  V30 3091 H 290.388 0.708856 5.44304 0
M  V30 3092 H 290.649 -0.658467 4.37169 0
M  V30 3093 N 289.708 -1.40897 0.706093 0
M  V30 3094 C 291.124 -1.55042 0.37869 0
M  V30 3095 C 291.324 -1.67944 -1.11342 0
M  V30 3096 O 290.38 -1.66372 -1.89938 0
M  V30 3097 C 291.693 -2.78398 1.13643 0
M  V30 3098 C 293.241 -2.92206 1.12181 0
M  V30 3099 C 293.716 -4.18463 1.86152 0
M  V30 3100 N 295.207 -4.25443 1.83173 0
M  V30 3101 C 295.942 -5.2202 2.37239 0
M  V30 3102 N 295.438 -6.24563 2.99821 0
M  V30 3103 N 297.231 -5.14033 2.27435 0
M  V30 3104 H 289.382 -1.30769 1.67372 0
M  V30 3105 H 291.645 -0.631653 0.706907 0
M  V30 3106 H 291.351 -2.7511 2.19106 0
M  V30 3107 H 291.225 -3.70228 0.721853 0
M  V30 3108 H 293.612 -2.95004 0.0754171 0
M  V30 3109 H 293.693 -2.01521 1.57554 0
M  V30 3110 H 293.337 -4.16427 2.90776 0
M  V30 3111 H 293.267 -5.08141 1.38206 0
M  V30 3112 H 295.758 -3.51976 1.37556 0
M  V30 3113 H 296.071 -6.94665 3.38616 0
M  V30 3114 H 294.416 -6.25035 3.03902 0
M  V30 3115 H 297.607 -4.3285 1.78208 0
M  V30 3116 H 297.78 -5.89129 2.69873 0
M  V30 3117 N 291.186 -0.45159 -1.50991 0
M  V30 3118 C 292.432 0.110237 -2.025 0
M  V30 3119 C 292.765 1.41109 -1.33424 0
M  V30 3120 O 292.04 1.89135 -0.453659 0
M  V30 3121 C 292.323 0.314271 -3.58726 0
M  V30 3122 C 292.176 -1.00623 -4.38401 0
M  V30 3123 C 293.495 1.07767 -4.26702 0
M  V30 3124 H 290.614 0.0385897 -0.735989 0
M  V30 3125 H 293.256 -0.593374 -1.80497 0
M  V30 3126 H 291.406 0.913601 -3.77605 0
M  V30 3127 H 293.078 -1.64064 -4.31139 0
M  V30 3128 H 291.321 -1.6075 -4.02917 0
M  V30 3129 H 291.992 -0.817341 -5.45915 0
M  V30 3130 H 294.468 0.56986 -4.12179 0
M  V30 3131 H 293.344 1.18921 -5.35863 0
M  V30 3132 H 293.605 2.10939 -3.88532 0
M  V30 3133 N 292.664 1.56529 -0.183458 0
M  V30 3134 C 293.892 2.01623 0.464285 0
M  V30 3135 C 294.307 1.06366 1.55986 0
M  V30 3136 O 293.664 0.0665398 1.82379 0
M  V30 3137 C 293.715 3.46475 1.03139 0
M  V30 3138 O 293.436 4.38095 -0.0204675 0
M  V30 3139 C 294.937 4.0703 1.75617 0
M  V30 3140 H 292.157 0.660596 0.117704 0
M  V30 3141 H 294.701 2.02451 -0.288751 0
M  V30 3142 H 292.856 3.46383 1.73486 0
M  V30 3143 H 293.27 5.22973 0.399952 0
M  V30 3144 H 294.744 5.10271 2.10542 0
M  V30 3145 H 295.221 3.49819 2.65563 0
M  V30 3146 H 295.827 4.1086 1.09882 0
M  V30 3147 N 294.142 -0.090211 1.57342 0
M  V30 3148 C 295.367 -0.810082 1.90925 0
M  V30 3149 C 295.792 -1.71248 0.778187 0
M  V30 3150 O 295.15 -1.79278 -0.269991 0
M  V30 3151 C 295.198 -1.59529 3.23393 0
M  V30 3152 O 294.302 -2.70461 3.11327 0
M  V30 3153 H 293.643 -0.222231 0.625707 0
M  V30 3154 H 296.173 -0.0639716 2.045 0
M  V30 3155 H 296.183 -1.97847 3.5682 0
M  V30 3156 H 294.858 -0.933055 4.05299 0
M  V30 3157 H 293.435 -2.35135 2.89423 0
M  V30 3158 N 295.62 -1.53406 -0.361157 0
M  V30 3159 C 296.848 -1.73717 -1.12383 0
M  V30 3160 C 297.263 -0.468161 -1.82904 0
M  V30 3161 O 296.62 0.559198 -1.73722 0
M  V30 3162 C 296.671 -2.90558 -2.15078 0
M  V30 3163 O 296.392 -4.12549 -1.47428 0
M  V30 3164 C 297.893 -3.22777 -3.03858 0
M  V30 3165 H 295.113 -0.580896 -0.335858 0
M  V30 3166 H 297.657 -2.00167 -0.418728 0
M  V30 3167 H 295.812 -2.66489 -2.8118 0
M  V30 3168 H 296.226 -4.78009 -2.15887 0
M  V30 3169 H 297.7 -4.07927 -3.71887 0
M  V30 3170 H 298.177 -2.38329 -3.68912 0
M  V30 3171 H 298.783 -3.48787 -2.43367 0
M  V30 3172 N 297.098 0.621204 -1.44841 0
M  V30 3173 C 298.346 1.37783 -1.47852 0
M  V30 3174 C 298.667 1.94653 -0.116224 0
M  V30 3175 O 297.937 1.76367 0.852737 0
M  V30 3176 H 296.517 0.511453 -0.544449 0
M  V30 3177 H 299.179 0.730446 -1.80694 0
M  V30 3178 H 298.275 2.20414 -2.20961 0
M  V30 3179 N 298.576 1.31904 0.862503 0
M  V30 3180 C 299.992 1.10724 1.14945 0
M  V30 3181 C 300.192 -0.117421 2.01158 0
M  V30 3182 O 299.248 -0.804595 2.39338 0
M  V30 3183 C 300.561 2.38267 1.83437 0
M  V30 3184 C 302.109 2.43949 1.96106 0
M  V30 3185 C 302.584 3.71394 2.68013 0
M  V30 3186 N 304.075 3.72331 2.75543 0
M  V30 3187 C 304.81 4.67641 3.31812 0
M  V30 3188 N 304.306 5.73313 3.88953 0
M  V30 3189 N 306.099 4.5515 3.29841 0
M  V30 3190 H 298.25 2.10436 0.288191 0
M  V30 3191 H 300.513 0.928705 0.190292 0
M  V30 3192 H 300.219 3.27759 1.27542 0
M  V30 3193 H 300.093 2.48633 2.83657 0
M  V30 3194 H 302.48 1.54922 2.51164 0
M  V30 3195 H 302.561 2.37543 0.949059 0
M  V30 3196 H 302.205 4.60791 2.13621 0
M  V30 3197 H 302.135 3.75069 3.69636 0
M  V30 3198 H 304.626 2.95947 2.34997 0
M  V30 3199 H 304.939 6.42107 4.30022 0
M  V30 3200 H 303.284 5.77077 3.87308 0
M  V30 3201 H 306.475 3.71766 2.84443 0
M  V30 3202 H 306.648 5.29604 3.73394 0
M  V30 3203 N 300.054 -1.07777 1.14986 0
M  V30 3204 C 301.465 -1.61766 0.932127 0
M  V30 3205 C 301.816 -1.88974 -0.527581 0
M  V30 3206 O 300.941 -1.65198 -1.39781 0
M  V30 3207 C 301.536 -2.93891 1.68563 0
M  V30 3208 C 300.095 -3.44639 1.5133 0
M  V30 3209 C 299.242 -2.18767 1.704 0
M  V30 3210 H 302.193 -0.909201 1.30074 0
M  V30 3211 H 302.214 -3.62623 1.15259 0
M  V30 3212 H 301.726 -2.74057 2.74799 0
M  V30 3213 H 299.827 -3.69564 0.474702 0
M  V30 3214 H 299.94 -4.20966 2.28746 0
M  V30 3215 H 298.304 -2.28253 1.13016 0
M  V30 3216 H 299.087 -2.01433 2.77992 0
M  V30 3217 N 301.532 -0.945985 -1.26051 0
M  V30 3218 C 302.78 -0.594941 -1.93145 0
M  V30 3219 C 303.101 0.86953 -1.7454 0
M  V30 3220 O 302.371 1.61838 -1.10387 0
M  V30 3221 H 300.951 -0.217044 -0.714773 0
M  V30 3222 H 303.613 -1.20235 -1.53393 0
M  V30 3223 H 302.709 -0.816835 -3.01221 0
M  V30 3224 N 303.011 1.40521 -0.713556 0
M  V30 3225 C 303.961 2.27971 -0.036165 0
M  V30 3226 C 304.945 1.43151 0.734623 0
M  V30 3227 O 306.137 1.66261 0.607158 0
M  V30 3228 C 303.266 3.31661 0.886331 0
M  V30 3229 C 302.352 4.23955 0.110836 0
M  V30 3230 N 302.743 4.97641 -0.904847 0
M  V30 3231 C 301.041 4.44674 0.343692 0
M  V30 3232 C 301.742 5.65322 -1.37064 0
M  V30 3233 N 300.718 5.39162 -0.693168 0
M  V30 3234 H 304.52 2.82384 -0.814645 0
M  V30 3235 H 302.034 1.52948 -0.545963 0
M  V30 3236 H 304.031 3.93154 1.38692 0
M  V30 3237 H 302.691 2.78808 1.66421 0
M  V30 3238 H 303.702 5.01689 -1.28563 0
M  V30 3239 H 300.379 4.02801 1.09805 0
M  V30 3240 H 301.769 6.34359 -2.21447 0
M  V30 3241 N 304.489 0.459591 1.5075 0
M  V30 3242 C 305.452 -0.329093 2.26825 0
M  V30 3243 C 306.452 -0.930481 1.31144 0
M  V30 3244 O 307.642 -0.801453 1.54669 0
M  V30 3245 C 304.774 -1.46768 3.07688 0
M  V30 3246 H 305.967 0.337924 2.9799 0
M  V30 3247 H 303.52 0.213336 1.54837 0
M  V30 3248 H 304.255 -2.17009 2.40993 0
M  V30 3249 H 304.04 -1.04238 3.77991 0
M  V30 3250 H 305.53 -2.02433 3.65254 0
M  V30 3251 N 305.967 -1.56429 0.191757 0
M  V30 3252 C 307.192 -2.02309 -0.456706 0
M  V30 3253 C 307.617 -1.07103 -1.5463 0
M  V30 3254 O 306.975 -0.0539677 -1.8122 0
M  V30 3255 C 307.023 -3.46654 -0.993159 0
M  V30 3256 O 306.127 -3.54559 -2.10622 0
M  V30 3257 H 305.468 -0.655303 -0.107114 0
M  V30 3258 H 307.998 -2.02364 0.301653 0
M  V30 3259 H 308.008 -3.86377 -1.31061 0
M  V30 3260 H 306.683 -4.1544 -0.195504 0
M  V30 3261 H 305.26 -3.26708 -1.79767 0
M  V30 3262 N 307.445 0.0818655 -1.57387 0
M  V30 3263 C 308.861 0.436412 -1.53517 0
M  V30 3264 C 309.061 1.79758 -0.910459 0
M  V30 3265 O 308.117 2.47324 -0.508636 0
M  V30 3266 C 309.43 0.386734 -2.98203 0
M  V30 3267 C 310.978 0.467644 -3.09487 0
M  V30 3268 C 311.453 0.447978 -4.55804 0
M  V30 3269 N 312.944 0.508348 -4.60402 0
M  V30 3270 C 313.679 0.515184 -5.71081 0
M  V30 3271 N 313.175 0.477435 -6.91153 0
M  V30 3272 N 314.968 0.560988 -5.59294 0
M  V30 3273 H 307.119 -0.809546 -1.96367 0
M  V30 3274 H 309.382 -0.302733 -0.898363 0
M  V30 3275 H 309.088 -0.546539 -3.47427 0
M  V30 3276 H 308.962 1.20075 -3.57578 0
M  V30 3277 H 311.349 1.39134 -2.60242 0
M  V30 3278 H 311.43 -0.374753 -2.5304 0
M  V30 3279 H 311.074 -0.471826 -5.05704 0
M  V30 3280 H 311.004 1.30777 -5.10103 0
M  V30 3281 H 313.495 0.54218 -3.7399 0
M  V30 3282 H 313.808 0.486299 -7.71268 0
M  V30 3283 H 312.153 0.444278 -6.93579 0
M  V30 3284 H 315.344 0.5881 -4.64391 0
M  V30 3285 H 315.517 0.562846 -6.45551 0
M  V30 3286 N 308.923 1.53595 0.353017 0
M  V30 3287 C 310.17 1.70385 1.09431 0
M  V30 3288 C 310.498 0.462113 1.88931 0
M  V30 3289 O 309.753 -0.556074 1.87633 0
M  V30 3290 C 310.052 2.91313 2.07054 0
M  V30 3291 C 309.718 4.27308 1.43939 0
M  V30 3292 C 308.38 4.64287 1.26454 0
M  V30 3293 C 310.732 5.11829 0.983883 0
M  V30 3294 C 308.06 5.83412 0.620226 0
M  V30 3295 C 310.412 6.31611 0.353516 0
M  V30 3296 C 309.076 6.67293 0.166272 0
M  V30 3297 H 308.346 0.623484 0.400436 0
M  V30 3298 H 310.993 1.87799 0.374655 0
M  V30 3299 H 309.298 2.68463 2.85368 0
M  V30 3300 H 310.995 3.01497 2.64387 0
M  V30 3301 H 307.585 3.98198 1.58543 0
M  V30 3302 H 311.769 4.838 1.10685 0
M  V30 3303 H 307.025 6.09639 0.463681 0
M  V30 3304 H 311.199 6.964 -0.00757555 0
M  V30 3305 H 308.826 7.59461 -0.335047 0
M  V30 3306 N 310.401 -0.613514 1.45168 0
M  V30 3307 C 311.334 -1.73809 1.47871 0
M  V30 3308 C 312.312 -1.59097 0.33568 0
M  V30 3309 O 313.496 -1.8074 0.535299 0
M  V30 3310 C 310.623 -3.11574 1.32813 0
M  V30 3311 C 309.669 -3.4489 2.50905 0
M  V30 3312 S 310.502 -3.40393 4.13392 0
M  V30 3313 C 311.658 -4.80749 4.00789 0
M  V30 3314 H 311.891 -1.71252 2.43023 0
M  V30 3315 H 309.424 -0.789658 1.32679 0
M  V30 3316 H 311.382 -3.91065 1.24812 0
M  V30 3317 H 310.043 -3.11652 0.391418 0
M  V30 3318 H 309.236 -4.45183 2.36279 0
M  V30 3319 H 308.838 -2.72901 2.55736 0
M  V30 3320 H 311.13 -5.7041 3.65567 0
M  V30 3321 H 312.073 -5.00431 5.00974 0
M  V30 3322 H 312.481 -4.56151 3.32545 0
M  V30 3323 N 311.879 -1.3236 -0.855495 0
M  V30 3324 C 312.789 -1.23221 -1.99634 0
M  V30 3325 C 313.805 -0.145983 -1.73387 0
M  V30 3326 O 314.981 -0.366502 -1.98037 0
M  V30 3327 C 312.046 -0.954782 -3.33294 0
M  V30 3328 C 311.107 -2.12937 -3.72769 0
M  V30 3329 C 310.34 -1.86508 -5.00051 0
M  V30 3330 O 310.563 -0.807231 -5.64659 0
M  V30 3331 O 309.497 -2.72591 -5.36636 0
M  V30 3332 H 313.323 -2.19126 -2.1028 0
M  V30 3333 H 310.908 -1.12241 -0.986018 0
M  V30 3334 H 312.79 -0.816519 -4.13414 0
M  V30 3335 H 311.465 -0.0258854 -3.2369 0
M  V30 3336 H 310.372 -2.3231 -2.93228 0
M  V30 3337 H 311.705 -3.04102 -3.87018 0
M  V30 3338 N 313.357 1.07166 -1.15556 0
M  V30 3339 C 314.634 1.76546 -0.842069 0
M  V30 3340 C 315.014 2.00453 0.661939 0
M  V30 3341 O 314.362 1.62452 1.60691 0
M  V30 3342 C 314.572 3.07266 -1.65495 0
M  V30 3343 C 315.92 3.81578 -1.86234 0
M  V30 3344 O 316.944 3.17083 -1.62287 0
M  V30 3345 O 315.803 4.97419 -2.26355 0
M  V30 3346 H 312.897 0.766756 -0.309862 0
M  V30 3347 H 315.443 1.13514 -1.26145 0
M  V30 3348 H 314.215 2.85494 -2.67598 0
M  V30 3349 H 313.838 3.7803 -1.23203 0
M  V30 3350 N 314.835 0.952656 1.25548 0
M  V30 3351 C 316.063 0.623496 1.97282 0
M  V30 3352 C 316.478 -0.803987 1.70826 0
M  V30 3353 O 315.835 -1.53755 0.983147 0
M  V30 3354 C 315.886 0.870209 3.5087 0
M  V30 3355 O 315.607 2.24156 3.76412 0
M  V30 3356 C 317.108 0.553164 4.39835 0
M  V30 3357 H 314.328 0.233931 0.628902 0
M  V30 3358 H 316.872 1.27649 1.59768 0
M  V30 3359 H 315.027 0.263652 3.86502 0
M  V30 3360 H 315.441 2.31021 4.70882 0
M  V30 3361 H 316.915 0.776342 5.46513 0
M  V30 3362 H 317.392 -0.512215 4.36203 0
M  V30 3363 H 317.998 1.13896 4.09766 0
M  V30 3364 N 316.313 -1.40141 0.720998 0
M  V30 3365 C 317.276 -2.29058 0.0805834 0
M  V30 3366 C 318.276 -1.45632 -0.681758 0
M  V30 3367 O 319.466 -1.6648 -0.512856 0
M  V30 3368 C 316.598 -3.28925 -0.895593 0
M  V30 3369 H 317.791 -2.87191 0.863793 0
M  V30 3370 H 315.344 -1.48553 0.485975 0
M  V30 3371 H 316.079 -2.75822 -1.70566 0
M  V30 3372 H 315.864 -3.90519 -0.351766 0
M  V30 3373 H 317.354 -3.95494 -1.34069 0
M  V30 3374 N 317.792 -0.46758 -1.50504 0
M  V30 3375 C 318.755 0.317059 -2.26996 0
M  V30 3376 C 319.755 0.923513 -1.31635 0
M  V30 3377 O 320.945 0.793239 -1.55091 0
M  V30 3378 C 318.077 1.45134 -3.08462 0
M  V30 3379 H 319.27 -0.353723 -2.97807 0
M  V30 3380 H 316.823 -0.221545 -1.54722 0
M  V30 3381 H 317.558 2.15728 -2.4214 0
M  V30 3382 H 317.343 1.02232 -3.78538 0
M  V30 3383 H 318.833 2.00493 -3.66323 0
M  V30 3384 N 319.27 1.56325 -0.20005 0
M  V30 3385 C 320.18 2.22931 0.730668 0
M  V30 3386 C 321.196 1.22997 1.23076 0
M  V30 3387 O 322.372 1.55748 1.27689 0
M  V30 3388 C 319.437 2.87948 1.93098 0
M  V30 3389 C 318.498 4.03166 1.47497 0
M  V30 3390 C 317.731 4.65073 2.61807 0
M  V30 3391 O 317.954 4.25913 3.79413 0
M  V30 3392 O 316.888 5.54452 2.34237 0
M  V30 3393 H 320.714 3.03084 0.193391 0
M  V30 3394 H 318.299 1.49371 0.0294621 0
M  V30 3395 H 320.181 3.29063 2.6324 0
M  V30 3396 H 318.856 2.10771 2.45677 0
M  V30 3397 H 317.763 3.66664 0.742201 0
M  V30 3398 H 319.096 4.82022 0.995796 0
M  V30 3399 N 320.748 -0.0735177 1.57428 0
M  V30 3400 C 321.695 -1.08756 2.0357 0
M  V30 3401 C 322.665 -1.38559 0.916 0
M  V30 3402 O 323.85 -1.49656 1.18354 0
M  V30 3403 C 320.99 -2.39657 2.48311 0
M  V30 3404 C 320.103 -2.16399 3.73892 0
M  V30 3405 C 319.238 -3.40852 4.07423 0
M  V30 3406 C 318.277 -3.1295 5.2605 0
M  V30 3407 N 317.414 -4.29729 5.55228 0
M  V30 3408 H 322.254 -0.687104 2.8997 0
M  V30 3409 H 319.791 -0.327709 1.43403 0
M  V30 3410 H 321.749 -3.16081 2.72303 0
M  V30 3411 H 320.379 -2.77508 1.64891 0
M  V30 3412 H 319.431 -1.30676 3.57251 0
M  V30 3413 H 320.743 -1.91788 4.60455 0
M  V30 3414 H 319.897 -4.25671 4.32306 0
M  V30 3415 H 318.636 -3.68537 3.19425 0
M  V30 3416 H 317.641 -2.26526 5.00965 0
M  V30 3417 H 318.866 -2.86589 6.15665 0
M  V30 3418 H 316.812 -4.57448 4.70188 0
M  V30 3419 H 316.729 -4.08385 6.36206 0
M  V30 3420 H 317.997 -5.1555 5.84661 0
M  V30 3421 N 322.226 -1.5378 -0.344866 0
M  V30 3422 C 323.156 -1.84662 -1.42906 0
M  V30 3423 C 324.137 -0.701648 -1.54955 0
M  V30 3424 O 325.322 -0.953438 -1.69184 0
M  V30 3425 C 322.452 -2.05503 -2.79974 0
M  V30 3426 C 321.406 -3.21318 -2.82734 0
M  V30 3427 C 320.732 -3.2749 -4.22675 0
M  V30 3428 C 322.032 -4.59456 -2.48389 0
M  V30 3429 H 323.726 -2.75461 -1.17311 0
M  V30 3430 H 321.272 -1.32542 -0.562896 0
M  V30 3431 H 323.225 -2.25691 -3.55867 0
M  V30 3432 H 321.949 -1.11434 -3.07002 0
M  V30 3433 H 320.608 -3.00984 -2.09294 0
M  V30 3434 H 320.256 -2.31019 -4.4681 0
M  V30 3435 H 319.956 -4.05316 -4.25433 0
M  V30 3436 H 321.48 -3.49887 -5.00412 0
M  V30 3437 H 322.894 -4.79667 -3.13995 0
M  V30 3438 H 321.291 -5.39675 -2.62432 0
M  V30 3439 H 322.361 -4.63155 -1.4358 0
M  V30 3440 N 323.704 0.605807 -1.45491 0
M  V30 3441 C 324.654 1.71074 -1.50724 0
M  V30 3442 C 325.638 1.5658 -0.37033 0
M  V30 3443 O 326.83 1.65887 -0.617299 0
M  V30 3444 C 323.959 3.0983 -1.47852 0
M  V30 3445 C 323.045 3.29704 -2.66751 0
M  V30 3446 N 323.436 3.19831 -3.91844 0
M  V30 3447 C 321.734 3.60579 -2.62486 0
M  V30 3448 C 322.435 3.41083 -4.71208 0
M  V30 3449 N 321.411 3.65157 -4.02693 0
M  V30 3450 H 325.213 1.61937 -2.45263 0
M  V30 3451 H 322.727 0.80912 -1.40808 0
M  V30 3452 H 324.724 3.89101 -1.49686 0
M  V30 3453 H 323.384 3.20115 -0.543714 0
M  V30 3454 H 324.395 2.98194 -4.23439 0
M  V30 3455 H 321.072 3.7769 -1.77922 0
M  V30 3456 H 322.462 3.38828 -5.80211 0
M  V30 3457 N 325.182 1.32811 0.848464 0
M  V30 3458 C 326.129 1.22265 1.95755 0
M  V30 3459 C 327.099 0.103413 1.65778 0
M  V30 3460 O 328.284 0.280033 1.88734 0
M  V30 3461 C 325.424 0.958014 3.31536 0
M  V30 3462 C 324.537 2.16262 3.73971 0
M  V30 3463 C 323.672 1.83295 4.98575 0
M  V30 3464 C 322.711 3.00041 5.33518 0
M  V30 3465 N 321.848 2.67125 6.49299 0
M  V30 3466 H 326.688 2.17128 2.04107 0
M  V30 3467 H 324.225 1.07982 0.998913 0
M  V30 3468 H 326.183 0.785052 4.09747 0
M  V30 3469 H 324.813 0.046159 3.22767 0
M  V30 3470 H 323.865 2.44565 2.91362 0
M  V30 3471 H 325.177 3.03572 3.95785 0
M  V30 3472 H 324.331 1.62586 5.84509 0
M  V30 3473 H 323.07 0.932078 4.7871 0
M  V30 3474 H 322.075 3.21374 4.46093 0
M  V30 3475 H 323.3 3.90869 5.55336 0
M  V30 3476 H 321.246 1.79586 6.3094 0
M  V30 3477 H 321.163 3.47965 6.71161 0
M  V30 3478 H 322.431 2.49861 7.3837 0
M  V30 3479 N 326.66 -1.06551 1.16123 0
M  V30 3480 C 327.906 -1.79567 0.94252 0
M  V30 3481 C 328.239 -1.86869 -0.528547 0
M  V30 3482 O 327.514 -1.35838 -1.39206 0
M  V30 3483 C 327.797 -3.24195 1.56747 0
M  V30 3484 C 327.65 -3.24989 3.10969 0
M  V30 3485 C 328.969 -4.21678 1.25998 0
M  V30 3486 H 326.088 -0.651883 0.343828 0
M  V30 3487 H 328.73 -1.2463 1.43413 0
M  V30 3488 H 326.88 -3.71107 1.14942 0
M  V30 3489 H 328.552 -2.86258 3.61737 0
M  V30 3490 H 326.795 -2.63716 3.44436 0
M  V30 3491 H 327.466 -4.27005 3.49815 0
M  V30 3492 H 329.942 -3.83196 1.62174 0
M  V30 3493 H 328.818 -5.21146 1.7233 0
M  V30 3494 H 329.079 -4.4174 0.178367 0
M  V30 3495 N 328.138 -0.959301 -1.25041 0
M  V30 3496 C 329.384 -0.617525 -1.9317 0
M  V30 3497 C 329.717 0.843981 -1.74902 0
M  V30 3498 O 328.992 1.60615 -1.09696 0
M  V30 3499 C 329.275 -0.982736 -3.46431 0
M  V30 3500 C 329.128 -2.50032 -3.73904 0
M  V30 3501 C 330.447 -0.511176 -4.37121 0
M  V30 3502 H 327.566 -0.22582 -0.701552 0
M  V30 3503 H 330.208 -1.19679 -1.4757 0
M  V30 3504 H 328.358 -0.489806 -3.854 0
M  V30 3505 H 330.03 -3.06737 -3.44544 0
M  V30 3506 H 328.273 -2.93598 -3.19348 0
M  V30 3507 H 328.944 -2.70635 -4.81103 0
M  V30 3508 H 331.42 -0.934075 -4.0548 0
M  V30 3509 H 330.296 -0.795361 -5.43107 0
M  V30 3510 H 330.557 0.588834 -4.38161 0
M  V30 3511 N 329.616 1.39756 -0.72842 0
M  V30 3512 C 330.564 2.32485 -0.0731849 0
M  V30 3513 C 331.558 1.52717 0.733063 0
M  V30 3514 O 332.764 1.68428 0.634988 0
M  V30 3515 H 329.139 0.751984 -0.00486469 0
M  V30 3516 H 331.11 2.85382 -0.871761 0
M  V30 3517 C 329.859 3.37773 0.824908 0
M  V30 3518 H 329.182 3.99227 0.213915 0
M  V30 3519 H 330.622 4.05121 1.25111 0
M  V30 3520 C 329.081 2.74287 1.95622 0
M  V30 3521 O 329.611 2.61618 3.04826 0
M  V30 3522 N 327.817 2.32475 1.74367 0
M  V30 3523 H 327.364 2.4298 0.855494 0
M  V30 3524 H 327.322 1.90337 2.50238 0
M  V30 3525 N 331.094 0.475555 1.50254 0
M  V30 3526 C 332.319 -0.0777042 2.07254 0
M  V30 3527 C 332.744 -1.3235 1.3366 0
M  V30 3528 O 332.102 -1.77152 0.385597 0
M  V30 3529 C 332.15 -0.340169 3.58992 0
M  V30 3530 O 331.254 -1.41982 3.87188 0
M  V30 3531 H 330.595 0.0149556 0.663832 0
M  V30 3532 H 333.125 0.667878 1.93392 0
M  V30 3533 H 333.135 -0.579332 4.03866 0
M  V30 3534 H 331.81 0.570167 4.11973 0
M  V30 3535 H 330.387 -1.16762 3.54148 0
M  V30 3536 N 332.573 -1.56217 0.208337 0
M  V30 3537 C 333.822 -1.97124 -0.427204 0
M  V30 3538 C 334.135 -1.09859 -1.61835 0
M  V30 3539 O 335.341 -1.40606 -2.32255 0
M  V30 3540 C 333.797 -3.50633 -0.811442 0
M  V30 3541 C 333.405 -4.46582 0.35615 0
M  V30 3542 C 335.149 -4.00282 -1.41332 0
M  V30 3543 C 333.056 -5.91379 -0.0497852 0
M  V30 3544 H 331.986 -0.736086 -0.163381 0
M  V30 3545 H 334.637 -1.8099 0.302456 0
M  V30 3546 H 333.019 -3.62319 -1.59815 0
M  V30 3547 H 334.193 -4.46636 1.1337 0
M  V30 3548 H 332.508 -4.07202 0.870396 0
M  V30 3549 H 335.105 -5.0595 -1.72972 0
M  V30 3550 H 335.448 -3.45359 -2.32449 0
M  V30 3551 H 335.981 -3.91764 -0.690323 0
M  V30 3552 H 332.72 -6.50255 0.827529 0
M  V30 3553 H 332.24 -5.94549 -0.791926 0
M  V30 3554 H 333.919 -6.45209 -0.481042 0
M  V30 3555 N 334.051 0.0651679 -1.57465 0
M  V30 3556 C 334.981 1.07693 -2.07182 0
M  V30 3557 C 335.962 1.39962 -0.966673 0
M  V30 3558 O 337.147 1.49475 -1.2398 0
M  V30 3559 C 334.277 2.3885 -2.52127 0
M  V30 3560 C 333.231 2.20917 -3.66579 0
M  V30 3561 C 332.557 3.57515 -3.97601 0
M  V30 3562 C 333.857 1.62493 -4.9638 0
M  V30 3563 H 335.551 0.663199 -2.91962 0
M  V30 3564 H 333.097 0.317569 -1.40455 0
M  V30 3565 H 335.05 3.09928 -2.85522 0
M  V30 3566 H 333.774 2.82215 -1.64384 0
M  V30 3567 H 332.433 1.52279 -3.33477 0
M  V30 3568 H 332.081 3.98463 -3.06979 0
M  V30 3569 H 331.781 3.46353 -4.74672 0
M  V30 3570 H 333.305 4.30013 -4.33499 0
M  V30 3571 H 334.719 2.23445 -5.27963 0
M  V30 3572 H 333.116 1.62009 -5.77818 0
M  V30 3573 H 334.186 0.587041 -4.81333 0
M  V30 3574 N 335.529 1.53961 0.336706 0
M  V30 3575 C 336.492 1.81724 1.39675 0
M  V30 3576 C 337.492 0.688532 1.45313 0
M  V30 3577 O 338.682 0.956829 1.45569 0
M  V30 3578 C 335.814 1.96543 2.78538 0
M  V30 3579 H 337.007 2.76424 1.16318 0
M  V30 3580 H 334.56 1.45478 0.571474 0
M  V30 3581 H 335.295 1.0401 3.07168 0
M  V30 3582 H 335.08 2.78665 2.75841 0
M  V30 3583 H 336.57 2.19516 3.5525 0
M  V30 3584 N 337.007 -0.598083 1.45811 0
M  V30 3585 C 338.254 -1.35681 1.50323 0
M  V30 3586 C 338.582 -1.9393 0.148739 0
M  V30 3587 O 337.837 -1.76094 -0.853787 0
M  V30 3588 C 338.136 -2.51669 2.53766 0
M  V30 3589 C 337.802 -2.11508 3.98215 0
M  V30 3590 C 336.464 -2.0027 4.37545 0
M  V30 3591 C 338.816 -1.80308 4.89018 0
M  V30 3592 C 336.144 -1.56067 5.65562 0
M  V30 3593 C 338.496 -1.37589 6.17456 0
M  V30 3594 C 337.16 -1.24916 6.55708 0
M  V30 3595 H 336.43 -0.496492 0.550069 0
M  V30 3596 H 339.077 -0.675052 1.79207 0
M  V30 3597 H 337.382 -3.25225 2.18486 0
M  V30 3598 H 339.079 -3.09895 2.54492 0
M  V30 3599 H 335.669 -2.21185 3.67117 0
M  V30 3600 H 339.853 -1.87884 4.59362 0
M  V30 3601 H 335.109 -1.44886 5.93985 0
M  V30 3602 H 339.283 -1.12495 6.87254 0
M  V30 3603 H 336.91 -0.904386 7.54801 0
M  V30 3604 N 338.485 -1.33259 -0.841409 0
M  V30 3605 C 339.901 -1.12538 -1.13169 0
M  V30 3606 C 340.101 0.0854037 -2.01319 0
M  V30 3607 O 339.157 0.766417 -2.40587 0
M  V30 3608 C 340.47 -2.41156 -1.79623 0
M  V30 3609 C 342.018 -2.47038 -1.922 0
M  V30 3610 C 342.493 -3.7561 -2.6207 0
M  V30 3611 N 343.984 -3.76667 -2.69585 0
M  V30 3612 C 344.719 -4.72861 -3.2433 0
M  V30 3613 N 344.215 -5.79428 -3.79783 0
M  V30 3614 N 346.008 -4.6034 -3.22558 0
M  V30 3615 H 338.159 -2.10868 -0.254676 0
M  V30 3616 H 340.422 -0.931615 -0.175493 0
M  V30 3617 H 340.128 -3.29747 -1.22311 0
M  V30 3618 H 340.002 -2.53114 -2.79666 0
M  V30 3619 H 342.389 -1.58898 -2.48667 0
M  V30 3620 H 342.47 -2.39022 -0.911148 0
M  V30 3621 H 342.114 -4.64131 -2.06263 0
M  V30 3622 H 342.044 -3.80902 -3.63622 0
M  V30 3623 H 344.535 -2.99648 -2.30259 0
M  V30 3624 H 344.848 -6.48867 -4.19752 0
M  V30 3625 H 343.193 -5.83166 -3.78078 0
M  V30 3626 H 346.384 -3.76244 -2.78492 0
M  V30 3627 H 346.557 -5.35478 -3.64921 0
M  V30 3628 N 339.963 1.05934 -1.16686 0
M  V30 3629 C 340.873 2.17014 -0.891183 0
M  V30 3630 C 341.889 1.73453 0.137907 0
M  V30 3631 O 343.065 2.01361 -0.039592 0
M  V30 3632 C 340.13 3.44384 -0.400099 0
M  V30 3633 C 339.191 4.02433 -1.49486 0
M  V30 3634 C 338.424 5.23723 -1.02711 0
M  V30 3635 O 338.647 5.7027 0.121716 0
M  V30 3636 O 337.581 5.7382 -1.81699 0
M  V30 3637 H 341.407 2.43113 -1.82015 0
M  V30 3638 H 338.992 1.15541 -0.947132 0
M  V30 3639 H 340.874 4.21189 -0.133392 0
M  V30 3640 H 339.549 3.19802 0.500817 0
M  V30 3641 H 338.456 3.27102 -1.81535 0
M  V30 3642 H 339.789 4.31317 -2.37121 0
M  V30 3643 N 341.441 0.965919 1.2453 0
M  V30 3644 C 342.388 0.49402 2.25451 0
M  V30 3645 C 343.358 -0.45948 1.59618 0
M  V30 3646 O 344.543 -0.370238 1.87173 0
M  V30 3647 C 341.683 -0.211359 3.44452 0
M  V30 3648 C 340.796 0.7807 4.24887 0
M  V30 3649 C 339.931 0.0516105 5.31175 0
M  V30 3650 C 338.97 1.03385 6.03306 0
M  V30 3651 N 338.107 0.334887 7.01301 0
M  V30 3652 H 342.947 1.35946 2.65184 0
M  V30 3653 H 340.484 0.681515 1.3036 0
M  V30 3654 H 342.442 -0.637 4.12308 0
M  V30 3655 H 341.072 -1.04077 3.05562 0
M  V30 3656 H 340.124 1.32479 3.56586 0
M  V30 3657 H 341.436 1.52978 4.74762 0
M  V30 3658 H 340.59 -0.432114 6.05159 0
M  V30 3659 H 339.329 -0.730179 4.82203 0
M  V30 3660 H 338.334 1.52847 5.28127 0
M  V30 3661 H 339.559 1.81606 6.54367 0
M  V30 3662 H 337.505 -0.427959 6.54603 0
M  V30 3663 H 337.422 1.02287 7.49048 0
M  V30 3664 H 338.69 -0.126928 7.79397 0
M  V30 3665 N 342.919 -1.39368 0.735821 0
M  V30 3666 C 343.829 -2.34395 0.0979693 0
M  V30 3667 C 344.845 -1.58361 -0.720968 0
M  V30 3668 O 346.021 -1.90648 -0.649245 0
M  V30 3669 C 343.086 -3.37393 -0.797916 0
M  V30 3670 C 342.147 -4.29287 0.0333662 0
M  V30 3671 C 341.38 -5.27365 -0.819854 0
M  V30 3672 O 341.603 -5.31959 -2.05855 0
M  V30 3673 O 340.537 -6.01389 -0.248079 0
M  V30 3674 H 344.363 -2.90601 0.882315 0
M  V30 3675 H 341.948 -1.40909 0.4965 0
M  V30 3676 H 343.83 -4.00505 -1.31048 0
M  V30 3677 H 342.505 -2.83571 -1.56106 0
M  V30 3678 H 341.412 -3.69395 0.591475 0
M  V30 3679 H 342.745 -4.86317 0.758752 0
M  V30 3680 N 344.397 -0.483516 -1.5 0
M  V30 3681 C 345.643 0.0593261 -2.03313 0
M  V30 3682 C 345.998 1.36288 -1.35806 0
M  V30 3683 O 345.291 1.85519 -0.478897 0
M  V30 3684 C 345.485 0.286226 -3.56252 0
M  V30 3685 C 345.314 -0.993788 -4.38582 0
M  V30 3686 C 344.084 -1.54064 -4.81241 0
M  V30 3687 C 346.282 -1.89249 -4.78215 0
M  V30 3688 N 344.264 -2.76838 -5.47936 0
M  V30 3689 C 345.635 -2.96606 -5.44449 0
M  V30 3690 C 347.69 -1.90138 -4.60165 0
M  V30 3691 C 346.393 -4.04857 -5.94544 0
M  V30 3692 C 348.419 -2.97353 -5.1121 0
M  V30 3693 C 347.781 -4.03429 -5.77429 0
M  V30 3694 H 343.88 -0.0186322 -0.781778 0
M  V30 3695 H 346.464 -0.654489 -1.8337 0
M  V30 3696 H 344.635 0.969086 -3.76116 0
M  V30 3697 H 346.367 0.824515 -3.96212 0
M  V30 3698 H 343.122 -1.08813 -4.6093 0
M  V30 3699 H 343.546 -3.39221 -5.85882 0
M  V30 3700 H 348.188 -1.09441 -4.0839 0
M  V30 3701 H 345.906 -4.86363 -6.4535 0
M  V30 3702 H 349.492 -2.99039 -4.99066 0
M  V30 3703 H 348.372 -4.85025 -6.16214 0
M  V30 3704 N 345.875 1.56104 -0.216619 0
M  V30 3705 C 346.807 2.17339 0.72776 0
M  V30 3706 C 347.82 1.14109 1.16116 0
M  V30 3707 O 349.009 1.4111 1.09317 0
M  V30 3708 C 346.109 2.73818 1.99693 0
M  V30 3709 C 345.282 4.02168 1.71988 0
M  V30 3710 C 344.341 4.43259 2.83562 0
M  V30 3711 O 343.367 5.10257 2.52244 0
M  V30 3712 N 344.569 4.08535 4.12407 0
M  V30 3713 H 347.334 2.99005 0.203983 0
M  V30 3714 H 344.895 1.61861 -0.0354289 0
M  V30 3715 H 346.887 2.9828 2.73516 0
M  V30 3716 H 345.457 1.96483 2.43132 0
M  V30 3717 H 344.677 3.85612 0.818337 0
M  V30 3718 H 345.965 4.85907 1.50903 0
M  V30 3719 H 345.363 3.54687 4.40696 0
M  V30 3720 H 343.92 4.37901 4.8279 0
M  V30 3721 N 347.353 -0.0568162 1.57498 0
M  V30 3722 C 348.769 -0.411933 1.54192 0
M  V30 3723 C 348.969 -1.78287 0.938942 0
M  V30 3724 O 348.025 -2.46483 0.547919 0
M  V30 3725 C 349.338 -0.339244 2.9878 0
M  V30 3726 C 350.886 -0.418348 3.10192 0
M  V30 3727 C 351.361 -0.375407 4.56459 0
M  V30 3728 N 352.852 -0.435038 4.61153 0
M  V30 3729 C 353.587 -0.424265 5.71828 0
M  V30 3730 N 353.083 -0.367418 6.91825 0
M  V30 3731 N 354.876 -0.471938 5.60115 0
M  V30 3732 H 347.027 0.840684 1.95055 0
M  V30 3733 H 349.29 0.316987 0.893433 0
M  V30 3734 H 348.996 0.601742 3.46514 0
M  V30 3735 H 348.87 -1.14371 3.59443 0
M  V30 3736 H 351.257 -1.34976 2.62422 0
M  V30 3737 H 351.338 0.414962 2.52412 0
M  V30 3738 H 350.982 0.552219 5.04889 0
M  V30 3739 H 350.912 -1.22645 5.12119 0
M  V30 3740 H 353.403 -0.482612 3.74806 0
M  V30 3741 H 353.716 -0.363535 7.71944 0
M  V30 3742 H 352.061 -0.333879 6.94198 0
M  V30 3743 H 355.252 -0.514145 4.65268 0
M  V30 3744 H 355.425 -0.460073 6.46365 0
M  V30 3745 N 348.832 -1.54138 -0.328536 0
M  V30 3746 C 349.762 -1.86167 -1.40939 0
M  V30 3747 C 350.743 -0.718044 -1.54202 0
M  V30 3748 O 351.928 -0.971328 -1.68163 0
M  V30 3749 C 349.058 -2.08461 -2.77779 0
M  V30 3750 C 348.012 -3.24299 -2.7931 0
M  V30 3751 C 347.338 -3.31955 -4.19178 0
M  V30 3752 C 348.638 -4.62065 -2.43502 0
M  V30 3753 H 350.332 -2.76689 -1.14383 0
M  V30 3754 H 347.878 -1.33132 -0.548806 0
M  V30 3755 H 349.831 -2.29453 -3.53454 0
M  V30 3756 H 348.555 -1.14684 -3.05802 0
M  V30 3757 H 347.214 -3.03187 -2.0609 0
M  V30 3758 H 346.862 -2.35745 -4.44335 0
M  V30 3759 H 346.562 -4.09805 -4.2111 0
M  V30 3760 H 348.086 -3.55175 -4.96672 0
M  V30 3761 H 349.5 -4.8297 -3.08889 0
M  V30 3762 H 347.897 -5.42429 -2.56693 0
M  V30 3763 H 348.967 -4.64652 -1.38659 0
M  V30 3764 N 350.31 0.590341 -1.46126 0
M  V30 3765 C 351.242 1.71427 -1.52136 0
M  V30 3766 C 352.255 1.57542 -0.41042 0
M  V30 3767 O 353.444 1.65106 -0.678389 0
M  V30 3768 C 350.544 3.09605 -1.37834 0
M  V30 3769 C 349.717 3.49566 -2.62912 0
M  V30 3770 C 348.776 4.66773 -2.42918 0
M  V30 3771 O 347.802 4.73019 -3.1661 0
M  V30 3772 N 349.004 5.61161 -1.4859 0
M  V30 3773 H 351.769 1.66728 -2.49042 0
M  V30 3774 H 349.33 0.776113 -1.42085 0
M  V30 3775 H 351.322 3.85796 -1.22243 0
M  V30 3776 H 349.892 3.08714 -0.491393 0
M  V30 3777 H 349.112 2.63158 -2.93499 0
M  V30 3778 H 350.4 3.73028 -3.46017 0
M  V30 3779 H 349.798 5.58844 -0.87808 0
M  V30 3780 H 348.355 6.36814 -1.38965 0
M  V30 3781 N 351.788 1.33704 0.83433 0
M  V30 3782 C 353.013 1.28615 1.62705 0
M  V30 3783 C 353.438 -0.139242 1.87584 0
M  V30 3784 O 352.796 -1.09734 1.4432 0
M  V30 3785 C 352.844 2.07139 2.95171 0
M  V30 3786 O 351.948 1.4331 3.86699 0
M  V30 3787 H 351.289 0.44226 0.49528 0
M  V30 3788 H 353.819 1.76335 1.03766 0
M  V30 3789 H 353.829 2.18073 3.44831 0
M  V30 3790 H 352.504 3.10779 2.76386 0
M  V30 3791 H 351.081 1.4105 3.45195 0
M  V30 3792 N 353.266 -1.05314 1.17247 0
M  V30 3793 C 354.214 -2.15137 0.884238 0
M  V30 3794 C 355.208 -1.68729 -0.15063 0
M  V30 3795 O 356.414 -1.8 -0.00366673 0
M  V30 3796 H 352.789 -0.702471 0.2684 0
M  V30 3797 H 354.76 -2.36652 1.81764 0
M  V30 3798 C 353.509 -3.45243 0.412659 0
M  V30 3799 H 352.832 -3.81352 1.20043 0
M  V30 3800 H 354.272 -4.23263 0.249858 0
M  V30 3801 C 352.731 -3.25487 -0.86948 0
M  V30 3802 O 353.261 -3.51938 -1.93655 0
M  V30 3803 N 351.467 -2.78875 -0.817147 0
M  V30 3804 H 351.014 -2.57549 0.0514211 0
M  V30 3805 H 350.972 -2.66036 -1.67547 0
M  V30 3806 N 354.744 -0.972509 -1.24016 0
M  V30 3807 C 356.155 -0.67517 -1.74064 0
M  V30 3808 C 356.506 0.808939 -1.78747 0
M  V30 3809 O 355.631 1.63286 -1.42009 0
M  V30 3810 C 356.226 -1.21889 -3.16115 0
M  V30 3811 C 354.785 -0.971358 -3.6365 0
M  V30 3812 C 353.932 -1.35134 -2.42145 0
M  V30 3813 H 356.883 -1.14727 -1.09651 0
M  V30 3814 H 356.904 -0.587489 -3.75937 0
M  V30 3815 H 356.416 -2.29906 -3.12674 0
M  V30 3816 H 354.517 0.0930686 -3.72484 0
M  V30 3817 H 354.63 -1.62039 -4.50866 0
M  V30 3818 H 352.994 -0.769751 -2.4279 0
M  V30 3819 H 353.777 -2.4411 -2.41381 0
M  V30 3820 N 356.222 1.38976 -0.743202 0
M  V30 3821 C 357.172 2.27843 -0.084513 0
M  V30 3822 C 358.156 1.44677 0.704094 0
M  V30 3823 O 359.348 1.67511 0.571755 0
M  V30 3824 C 356.477 3.33466 0.815781 0
M  V30 3825 C 355.563 4.24095 0.0208844 0
M  V30 3826 N 355.954 4.95609 -1.0102 0
M  V30 3827 C 354.252 4.45303 0.249293 0
M  V30 3828 C 354.953 5.62287 -1.49024 0
M  V30 3829 N 353.929 5.37571 -0.807377 0
M  V30 3830 H 357.731 2.80593 -0.87436 0
M  V30 3831 H 355.245 1.51755 -0.578283 0
M  V30 3832 H 357.242 3.96008 1.30321 0
M  V30 3833 H 355.902 2.82276 1.6047 0
M  V30 3834 H 356.913 4.98849 -1.39176 0
M  V30 3835 H 353.59 4.0504 1.01237 0
M  V30 3836 H 354.98 6.29519 -2.34853 0
M  V30 3837 N 357.7 0.491464 1.49741 0
M  V30 3838 C 358.63 -0.28154 2.31796 0
M  V30 3839 C 359.611 -0.971473 1.3963 0
M  V30 3840 O 360.796 -0.964719 1.68543 0
M  V30 3841 C 357.926 -1.35203 3.19902 0
M  V30 3842 C 356.88 -0.782529 4.20786 0
M  V30 3843 C 356.206 -1.95283 4.97764 0
M  V30 3844 C 357.506 0.21999 5.21837 0
M  V30 3845 H 359.2 0.403355 2.96671 0
M  V30 3846 H 356.746 0.195425 1.42668 0
M  V30 3847 H 358.699 -1.90045 3.76113 0
M  V30 3848 H 357.423 -2.06598 2.52953 0
M  V30 3849 H 356.082 -0.255928 3.65706 0
M  V30 3850 H 355.73 -2.65423 4.2727 0
M  V30 3851 H 355.43 -1.57789 5.66018 0
M  V30 3852 H 356.954 -2.50577 5.56816 0
M  V30 3853 H 358.368 -0.23996 5.72798 0
M  V30 3854 H 356.765 0.51026 5.97927 0
M  V30 3855 H 357.835 1.13911 4.7133 0
M  V30 3856 N 359.178 -1.55987 0.224894 0
M  V30 3857 C 360.125 -2.20436 -0.68385 0
M  V30 3858 C 361.095 -1.16102 -1.18783 0
M  V30 3859 O 362.28 -1.4447 -1.24632 0
M  V30 3860 C 359.42 -2.89076 -1.88491 0
M  V30 3861 C 358.533 -4.08012 -1.41951 0
M  V30 3862 C 357.668 -4.64426 -2.5784 0
M  V30 3863 C 356.707 -5.75656 -2.08053 0
M  V30 3864 N 355.844 -6.26347 -3.17227 0
M  V30 3865 H 360.684 -2.97727 -0.12754 0
M  V30 3866 H 358.221 -1.47011 -0.0511978 0
M  V30 3867 H 360.179 -3.27059 -2.59014 0
M  V30 3868 H 358.809 -2.14298 -2.41405 0
M  V30 3869 H 357.861 -3.75492 -0.609095 0
M  V30 3870 H 359.173 -4.88375 -1.01447 0
M  V30 3871 H 358.327 -5.04869 -3.3644 0
M  V30 3872 H 357.066 -3.83233 -3.01635 0
M  V30 3873 H 356.071 -5.34712 -1.27916 0
M  V30 3874 H 357.296 -6.58686 -1.65255 0
M  V30 3875 H 355.242 -5.48067 -3.60497 0
M  V30 3876 H 355.159 -7.01843 -2.80986 0
M  V30 3877 H 356.427 -6.71447 -3.95953 0
M  V30 3878 N 360.656 0.0484629 -1.57525 0
M  V30 3879 C 361.566 1.07241 -2.08654 0
M  V30 3880 C 362.582 1.409 -1.02095 0
M  V30 3881 O 363.758 1.50609 -1.33712 0
M  V30 3882 C 360.823 2.36008 -2.5397 0
M  V30 3883 C 359.884 2.09108 -3.7493 0
M  V30 3884 C 359.117 3.31736 -4.18075 0
M  V30 3885 O 359.34 4.41714 -3.60895 0
M  V30 3886 O 358.274 3.18576 -5.10679 0
M  V30 3887 H 362.1 0.667965 -2.96263 0
M  V30 3888 H 359.685 0.26417 -1.47046 0
M  V30 3889 H 361.567 3.11747 -2.83535 0
M  V30 3890 H 360.242 2.75786 -1.69481 0
M  V30 3891 H 359.149 1.31 -3.50414 0
M  V30 3892 H 360.482 1.74198 -4.60343 0
M  V30 3893 N 362.134 1.5431 0.320358 0
M  V30 3894 C 363.382 1.72327 1.05583 0
M  V30 3895 C 363.703 0.50149 1.88441 0
M  V30 3896 O 362.973 -0.48448 1.89815 0
M  V30 3897 H 361.553 0.635387 0.3928 0
M  V30 3898 H 364.215 1.91621 0.356019 0
M  V30 3899 H 363.311 2.60426 1.72003 0
M  V30 3900 N 363.613 -0.582584 1.46437 0
M  V30 3901 C 364.838 -1.37168 1.55563 0
M  V30 3902 C 365.263 -1.87061 0.19743 0
M  V30 3903 O 364.621 -1.61572 -0.822451 0
M  V30 3904 C 364.669 -2.53511 2.56446 0
M  V30 3905 O 363.773 -3.54953 2.09958 0
M  V30 3906 H 363.114 -0.408494 0.523477 0
M  V30 3907 H 365.644 -0.706646 1.9201 0
M  V30 3908 H 365.654 -3.00426 2.76058 0
M  V30 3909 H 364.329 -2.16549 3.55076 0
M  V30 3910 H 362.906 -3.14516 2.00334 0
M  V30 3911 N 365.091 -1.34144 -0.827227 0
M  V30 3912 C 366.337 -1.26446 -1.58554 0
M  V30 3913 C 366.67 0.1664 -1.93486 0
M  V30 3914 O 365.945 1.1107 -1.59667 0
M  V30 3915 C 366.228 -2.15111 -2.8879 0
M  V30 3916 C 366.081 -3.66712 -2.60465 0
M  V30 3917 C 367.4 -2.03311 -3.90324 0
M  V30 3918 H 364.519 -0.46067 -0.575284 0
M  V30 3919 H 367.161 -1.64356 -0.953269 0
M  V30 3920 H 365.311 -1.8291 -3.42748 0
M  V30 3921 H 366.983 -4.09259 -2.1285 0
M  V30 3922 H 365.226 -3.88014 -1.93978 0
M  V30 3923 H 365.897 -4.24112 -3.53317 0
M  V30 3924 H 368.373 -2.31574 -3.45706 0
M  V30 3925 H 367.249 -2.67582 -4.79261 0
M  V30 3926 H 367.51 -1.00879 -4.30437 0
M  V30 3927 N 366.569 1.04691 -1.17803 0
M  V30 3928 C 367.797 1.81446 -0.99423 0
M  V30 3929 C 368.212 1.83174 0.457459 0
M  V30 3930 O 367.569 1.26265 1.31771 0
M  V30 3931 C 367.62 3.27334 -1.5341 0
M  V30 3932 O 367.341 3.25798 -2.92895 0
M  V30 3933 C 368.842 4.20759 -1.39559 0
M  V30 3934 H 366.062 0.571599 -0.351447 0
M  V30 3935 H 368.606 1.31982 -1.56208 0
M  V30 3936 H 366.761 3.74052 -1.00815 0
M  V30 3937 H 367.175 4.17144 -3.17949 0
M  V30 3938 H 368.649 5.21084 -1.82141 0
M  V30 3939 H 369.126 4.37856 -0.343394 0
M  V30 3940 H 369.732 3.79901 -1.91195 0
M  V30 3941 N 368.047 0.979072 1.23499 0
M  V30 3942 C 369.272 0.664845 1.96455 0
M  V30 3943 C 369.697 -0.761287 1.72006 0
M  V30 3944 O 369.055 -1.51837 0.990713 0
M  V30 3945 C 369.103 0.959479 3.47601 0
M  V30 3946 O 368.207 0.0508168 4.12369 0
M  V30 3947 H 367.548 0.250185 0.615064 0
M  V30 3948 H 370.078 1.31231 1.5697 0
M  V30 3949 H 370.088 0.895642 3.98048 0
M  V30 3950 H 368.763 1.99876 3.64723 0
M  V30 3951 H 367.34 0.16895 3.72517 0
M  V30 3952 N 369.525 -1.3858 0.750561 0
M  V30 3953 C 370.771 -2.00481 0.305825 0
M  V30 3954 C 371.104 -1.5944 -1.10872 0
M  V30 3955 O 370.379 -0.83052 -1.75877 0
M  V30 3956 C 370.662 -3.5758 0.425287 0
M  V30 3957 C 370.515 -4.08594 1.88072 0
M  V30 3958 C 371.834 -4.39719 -0.183122 0
M  V30 3959 H 368.953 -0.728348 0.112598 0
M  V30 3960 H 371.595 -1.64566 0.949638 0
M  V30 3961 H 369.745 -3.88306 -0.122828 0
M  V30 3962 H 371.417 -3.88523 2.48691 0
M  V30 3963 H 369.66 -3.61574 2.39681 0
M  V30 3964 H 370.331 -5.177 1.91548 0
M  V30 3965 H 372.807 -4.15128 0.284303 0
M  V30 3966 H 371.683 -5.48856 -0.0692757 0
M  V30 3967 H 371.944 -4.23434 -1.27106 0
M  V30 3968 N 371.003 -0.499398 -1.49478 0
M  V30 3969 C 371.951 0.293604 -2.3074 0
M  V30 3970 C 372.945 0.96427 -1.39277 0
M  V30 3971 O 374.151 0.892141 -1.56336 0
M  V30 3972 H 370.526 0.113541 -0.743379 0
M  V30 3973 H 372.497 -0.411772 -2.95545 0
M  V30 3974 C 371.246 1.3462 -3.20582 0
M  V30 3975 H 370.569 0.83954 -3.90886 0
M  V30 3976 H 372.009 1.87308 -3.80384 0
M  V30 3977 C 370.468 2.36351 -2.40083 0
M  V30 3978 O 370.998 3.422 -2.10385 0
M  V30 3979 N 369.204 2.0878 -2.02137 0
M  V30 3980 H 368.751 1.22723 -2.26488 0
M  V30 3981 H 368.709 2.77075 -1.48583 0
M  V30 3982 N 372.481 1.55866 -0.233164 0
M  V30 3983 C 373.411 2.23783 0.666599 0
M  V30 3984 C 374.392 1.21343 1.19205 0
M  V30 3985 O 375.577 1.4996 1.23392 0
M  V30 3986 C 372.707 2.92671 1.86978 0
M  V30 3987 C 371.661 4.01682 1.47768 0
M  V30 3988 C 370.987 4.57926 2.76058 0
M  V30 3989 C 372.287 5.18126 0.658993 0
M  V30 3990 H 373.981 2.99232 0.100306 0
M  V30 3991 H 371.527 1.43924 0.046804 0
M  V30 3992 H 373.48 3.3888 2.50476 0
M  V30 3993 H 372.204 2.14688 2.46123 0
M  V30 3994 H 370.863 3.56222 0.866106 0
M  V30 3995 H 370.511 3.76659 3.33372 0
M  V30 3996 H 370.211 5.31505 2.50552 0
M  V30 3997 H 371.735 5.06859 3.40479 0
M  V30 3998 H 373.149 5.60644 1.19795 0
M  V30 3999 H 371.546 5.98009 0.500552 0
M  V30 4000 H 372.616 4.83763 -0.331856 0
M  V30 4001 N 373.959 -0.0401083 1.57549 0
M  V30 4002 C 375.187 -0.745196 1.93014 0
M  V30 4003 C 375.602 -1.6948 0.831984 0
M  V30 4004 O 374.959 -1.81482 -0.192463 0
M  V30 4005 C 375.01 -1.51176 3.28372 0
M  V30 4006 O 374.731 -0.600284 4.33968 0
M  V30 4007 C 376.232 -2.315 3.78051 0
M  V30 4008 H 373.452 -0.210088 0.637263 0
M  V30 4009 H 375.996 -0.000924689 2.045 0
M  V30 4010 H 374.151 -2.20801 3.18317 0
M  V30 4011 H 374.565 -1.13669 5.12035 0
M  V30 4012 H 376.039 -2.80697 4.75303 0
M  V30 4013 H 376.516 -3.12436 3.08675 0
M  V30 4014 H 377.122 -1.66971 3.91153 0
M  V30 4015 N 375.437 -1.54477 -0.31217 0
M  V30 4016 C 376.384 -1.84655 -1.38461 0
M  V30 4017 C 377.354 -0.694536 -1.50882 0
M  V30 4018 O 378.539 -0.942081 -1.6592 0
M  V30 4019 C 375.679 -2.0896 -2.74645 0
M  V30 4020 C 374.792 -3.36618 -2.70763 0
M  V30 4021 C 373.927 -3.50824 -3.98868 0
M  V30 4022 C 372.966 -4.72315 -3.89339 0
M  V30 4023 N 372.103 -4.83387 -5.09197 0
M  V30 4024 H 376.943 -2.76142 -1.12026 0
M  V30 4025 H 374.48 -1.36748 -0.542065 0
M  V30 4026 H 376.438 -2.21045 -3.53829 0
M  V30 4027 H 375.068 -1.20752 -2.99364 0
M  V30 4028 H 374.12 -3.33211 -1.83506 0
M  V30 4029 H 375.432 -4.25917 -2.59608 0
M  V30 4030 H 374.586 -3.62513 -4.86486 0
M  V30 4031 H 373.325 -2.59638 -4.12843 0
M  V30 4032 H 372.33 -4.6067 -3.00105 0
M  V30 4033 H 373.555 -5.64897 -3.76919 0
M  V30 4034 H 371.501 -3.9512 -5.23657 0
M  V30 4035 H 371.418 -5.66669 -5.00422 0
M  V30 4036 H 372.686 -4.9942 -5.98498 0
M  V30 4037 N 376.915 0.57481 -1.46744 0
M  V30 4038 C 377.845 1.69337 -1.60771 0
M  V30 4039 C 378.826 1.63825 -0.457736 0
M  V30 4040 O 380.011 1.8172 -0.684947 0
M  V30 4041 C 377.141 3.0798 -1.60517 0
M  V30 4042 C 376.095 3.28327 -2.74564 0
M  V30 4043 C 375.421 4.67578 -2.59373 0
M  V30 4044 C 376.721 3.15398 -4.16319 0
M  V30 4045 H 378.415 1.57853 -2.54407 0
M  V30 4046 H 375.961 0.75799 -1.22436 0
M  V30 4047 H 377.914 3.86061 -1.68923 0
M  V30 4048 H 376.638 3.20381 -0.634305 0
M  V30 4049 H 375.297 2.52649 -2.65639 0
M  V30 4050 H 374.945 4.76755 -1.60353 0
M  V30 4051 H 374.645 4.82144 -3.35873 0
M  V30 4052 H 376.169 5.47817 -2.69682 0
M  V30 4053 H 377.583 3.83315 -4.26313 0
M  V30 4054 H 375.98 3.41482 -4.93468 0
M  V30 4055 H 377.05 2.12372 -4.3592 0
M  V30 4056 N 378.394 1.34581 0.820102 0
M  V30 4057 C 379.304 1.28471 1.96297 0
M  V30 4058 C 380.32 0.191902 1.72939 0
M  V30 4059 O 381.496 0.418879 1.96996 0
M  V30 4060 C 378.561 1.04281 3.30645 0
M  V30 4061 C 377.622 2.22745 3.66992 0
M  V30 4062 C 376.855 1.997 4.9493 0
M  V30 4063 O 377.078 0.956656 5.6232 0
M  V30 4064 O 376.012 2.86723 5.2922 0
M  V30 4065 H 379.838 2.24624 2.04396 0
M  V30 4066 H 377.423 1.14816 0.955913 0
M  V30 4067 H 379.305 0.925841 4.11104 0
M  V30 4068 H 377.98 0.111697 3.23507 0
M  V30 4069 H 376.887 2.40003 2.86966 0
M  V30 4070 H 378.22 3.14257 3.78819 0
M  V30 4071 N 379.872 -1.04064 1.18357 0
M  V30 4072 C 381.12 -1.76915 0.977013 0
M  V30 4073 C 381.441 -1.88624 -0.494577 0
M  V30 4074 O 380.711 -1.41125 -1.3587 0
M  V30 4075 H 379.291 -0.65535 0.358504 0
M  V30 4076 H 381.953 -1.25592 1.49039 0
M  V30 4077 H 381.049 -2.78178 1.41504 0
M  V30 4078 N 381.35 -0.985608 -1.22978 0
M  V30 4079 C 382.598 -0.656087 -1.91154 0
M  V30 4080 C 382.919 0.813561 -1.77218 0
M  V30 4081 O 382.189 1.58244 -1.1548 0
M  V30 4082 H 380.769 -0.239674 -0.707506 0
M  V30 4083 H 383.431 -1.25054 -1.49491 0
M  V30 4084 H 382.527 -0.912253 -2.9847 0
M  V30 4085 N 382.828 1.3818 -0.7579 0
M  V30 4086 C 384.074 2.00316 -0.316453 0
M  V30 4087 C 384.407 1.60026 1.10025 0
M  V30 4088 O 383.682 0.839835 1.75434 0
M  V30 4089 C 383.965 3.57349 -0.444245 0
M  V30 4090 C 383.818 4.07591 -1.90236 0
M  V30 4091 C 385.137 4.3981 0.1598 0
M  V30 4092 H 382.256 0.727741 -0.116459 0
M  V30 4093 H 384.898 1.6406 -0.958352 0
M  V30 4094 H 383.048 3.88365 0.102233 0
M  V30 4095 H 384.72 3.87199 -2.50748 0
M  V30 4096 H 382.963 3.60297 -2.41595 0
M  V30 4097 H 383.634 5.16677 -1.94291 0
M  V30 4098 H 386.11 4.14971 -0.306314 0
M  V30 4099 H 384.986 5.48885 0.0401675 0
M  V30 4100 H 385.247 4.24102 1.24859 0
M  V30 4101 N 384.306 0.507319 1.49211 0
M  V30 4102 C 385.269 -0.256763 2.27757 0
M  V30 4103 C 386.269 -0.888287 1.34038 0
M  V30 4104 O 387.459 -0.751841 1.5714 0
M  V30 4105 C 384.591 -1.36905 3.12202 0
M  V30 4106 H 385.784 0.432557 2.96764 0
M  V30 4107 H 383.337 0.262488 1.5408 0
M  V30 4108 H 384.072 -2.09233 2.47775 0
M  V30 4109 H 383.857 -0.921599 3.81115 0
M  V30 4110 H 385.347 -1.9071 3.7151 0
M  V30 4111 N 385.784 -1.5574 0.241426 0
M  V30 4112 C 387.014 -2.02913 -0.38857 0
M  V30 4113 C 387.422 -1.12014 -1.52478 0
M  V30 4114 O 386.765 -0.125903 -1.83268 0
M  V30 4115 C 386.827 -3.4636 -0.963075 0
M  V30 4116 C 386.491 -4.56982 0.0401916 0
M  V30 4117 C 387.488 -5.12941 0.847766 0
M  V30 4118 C 385.173 -5.0203 0.164699 0
M  V30 4119 C 387.167 -6.12437 1.76636 0
M  V30 4120 C 384.854 -6.01358 1.0868 0
M  V30 4121 C 385.852 -6.5644 1.88616 0
M  V30 4122 O 385.54 -7.53831 2.79273 0
M  V30 4123 H 385.272 -0.668983 -0.0971452 0
M  V30 4124 H 387.826 -2.02198 0.361248 0
M  V30 4125 H 386.056 -3.44206 -1.76235 0
M  V30 4126 H 387.745 -3.77065 -1.50257 0
M  V30 4127 H 388.511 -4.78974 0.762133 0
M  V30 4128 H 384.39 -4.58824 -0.447411 0
M  V30 4129 H 387.934 -6.55355 2.39071 0
M  V30 4130 H 383.831 -6.34746 1.17338 0
M  V30 4131 H 384.599 -7.71428 2.73572 0
M  V30 4132 N 387.262 0.0317525 -1.57568 0
M  V30 4133 C 388.21 1.05165 -2.07468 0
M  V30 4134 C 389.204 1.3761 -0.98792 0
M  V30 4135 O 390.41 1.36546 -1.17282 0
M  V30 4136 H 386.785 0.35666 -0.66204 0
M  V30 4137 H 388.756 0.604958 -2.92203 0
M  V30 4138 C 387.505 2.34488 -2.56731 0
M  V30 4139 H 386.828 2.10383 -3.39969 0
M  V30 4140 H 388.268 3.04203 -2.95358 0
M  V30 4141 C 386.727 3.03266 -1.46736 0
M  V30 4142 O 387.257 3.92988 -0.832069 0
M  V30 4143 N 385.463 2.6455 -1.20256 0
M  V30 4144 H 385.01 1.91674 -1.72102 0
M  V30 4145 H 384.968 3.10886 -0.468737 0
M  V30 4146 N 388.74 1.54641 0.303973 0
M  V30 4147 C 389.986 1.74038 1.04109 0
M  V30 4148 C 390.319 0.523051 1.87024 0
M  V30 4149 O 389.594 -0.479874 1.88487 0
M  V30 4150 C 389.877 3.02761 1.94955 0
M  V30 4151 C 389.73 4.34787 1.1524 0
M  V30 4152 C 391.049 3.27336 2.94175 0
M  V30 4153 H 388.168 0.63323 0.377079 0
M  V30 4154 H 390.81 1.87354 0.316001 0
M  V30 4155 H 388.96 2.9154 2.56782 0
M  V30 4156 H 390.632 4.57922 0.557236 0
M  V30 4157 H 388.875 4.31407 0.455053 0
M  V30 4158 H 389.546 5.21116 1.8205 0
M  V30 4159 H 392.022 3.38148 2.42477 0
M  V30 4160 H 390.898 4.18726 3.54908 0
M  V30 4161 H 391.159 2.45491 3.67677 0
M  V30 4162 N 390.218 -0.567019 1.47046 0
M  V30 4163 C 391.467 -1.32091 1.5243 0
M  V30 4164 C 391.78 -1.94704 0.187021 0
M  V30 4165 O 392.986 -2.7124 0.118771 0
M  V30 4166 C 391.442 -2.39479 2.68659 0
M  V30 4167 C 391.05 -1.831 4.08874 0
M  V30 4168 C 392.794 -3.16111 2.83327 0
M  V30 4169 C 390.701 -2.8821 5.16419 0
M  V30 4170 H 389.631 -0.496629 0.56734 0
M  V30 4171 H 392.282 -0.603354 1.73297 0
M  V30 4172 H 390.664 -3.14105 2.41152 0
M  V30 4173 H 391.838 -1.14913 4.46242 0
M  V30 4174 H 390.153 -1.19085 3.99008 0
M  V30 4175 H 392.75 -3.94585 3.60842 0
M  V30 4176 H 393.093 -3.69686 1.91411 0
M  V30 4177 H 393.626 -2.48595 3.10556 0
M  V30 4178 H 390.365 -2.39504 6.10179 0
M  V30 4179 H 389.885 -3.54839 4.8358 0
M  V30 4180 H 391.564 -3.51881 5.42945 0
M  V30 4181 N 391.696 -1.35014 -0.812953 0
M  V30 4182 C 393.107 -1.25035 -1.38648 0
M  V30 4183 C 393.458 0.119967 -1.95833 0
M  V30 4184 O 392.583 1.02069 -1.90816 0
M  V30 4185 C 393.178 -2.26394 -2.52054 0
M  V30 4186 C 391.737 -2.20175 -3.05287 0
M  V30 4187 C 390.884 -2.12451 -1.78213 0
M  V30 4188 H 393.835 -1.46235 -0.616516 0
M  V30 4189 H 393.856 -1.88672 -3.30429 0
M  V30 4190 H 393.368 -3.26116 -2.10404 0
M  V30 4191 H 391.469 -1.23841 -3.51417 0
M  V30 4192 H 391.582 -3.11863 -3.63701 0
M  V30 4193 H 389.946 -1.58328 -1.9951 0
M  V30 4194 H 390.729 -3.14024 -1.38723 0
M  V30 4195 N 393.175 1.03435 -1.18907 0
M  V30 4196 C 394.138 2.09756 -0.923844 0
M  V30 4197 C 395.138 1.60528 0.093416 0
M  V30 4198 O 396.328 1.73631 -0.140727 0
M  V30 4199 C 393.46 3.38692 -0.387354 0
M  V30 4200 H 394.653 2.34719 -1.86674 0
M  V30 4201 H 392.206 1.19959 -1.00197 0
M  V30 4202 H 392.941 3.19396 0.561845 0
M  V30 4203 H 392.726 3.75742 -1.12074 0
M  V30 4204 H 394.216 4.17016 -0.220694 0
M  V30 4205 N 394.653 0.992116 1.22453 0
M  V30 4206 C 395.881 0.685944 1.95198 0
M  V30 4207 C 396.296 -0.749233 1.73297 0
M  V30 4208 O 395.653 -1.50549 1.03156 0
M  V30 4209 C 395.704 0.981395 3.47924 0
M  V30 4210 O 395.425 2.36018 3.6909 0
M  V30 4211 C 396.926 0.692815 4.37853 0
M  V30 4212 H 394.146 0.253821 0.621141 0
M  V30 4213 H 396.69 1.32668 1.55626 0
M  V30 4214 H 394.845 0.386481 3.85467 0
M  V30 4215 H 395.259 2.45884 4.63294 0
M  V30 4216 H 396.733 0.949818 5.43767 0
M  V30 4217 H 397.21 -0.373181 4.37612 0
M  V30 4218 H 397.816 1.26874 4.05935 0
M  V30 4219 N 396.131 -1.37776 0.765217 0
M  V30 4220 C 397.064 -2.28008 0.0935025 0
M  V30 4221 C 398.042 -1.45985 -0.716047 0
M  V30 4222 O 399.226 -1.75331 -0.692203 0
M  V30 4223 C 396.353 -3.27228 -0.874052 0
M  V30 4224 C 395.399 -4.26239 -0.149307 0
M  V30 4225 S 396.232 -5.22827 1.15809 0
M  V30 4226 C 397.388 -6.256 0.193906 0
M  V30 4227 H 397.621 -2.84631 0.858637 0
M  V30 4228 H 395.154 -1.43952 0.558313 0
M  V30 4229 H 397.112 -3.84902 -1.42691 0
M  V30 4230 H 395.773 -2.69565 -1.61225 0
M  V30 4231 H 394.966 -4.96213 -0.88254 0
M  V30 4232 H 394.568 -3.7252 0.332366 0
M  V30 4233 H 396.86 -6.74508 -0.636011 0
M  V30 4234 H 397.803 -7.02838 0.861638 0
M  V30 4235 H 398.211 -5.64173 -0.191975 0
M  V30 4236 N 397.609 -0.515225 -1.4894 0
M  V30 4237 C 398.834 0.022727 -2.07388 0
M  V30 4238 C 399.259 1.2876 -1.37122 0
M  V30 4239 O 398.617 1.76067 -0.432431 0
M  V30 4240 C 398.665 0.244869 -3.59768 0
M  V30 4241 O 397.769 1.31667 -3.90817 0
M  V30 4242 H 397.11 -0.0325506 -0.663202 0
M  V30 4243 H 399.64 -0.718918 -1.91553 0
M  V30 4244 H 399.65 0.47205 -4.0526 0
M  V30 4245 H 398.325 -0.679194 -4.10317 0
M  V30 4246 H 396.902 1.07331 -3.5712 0
M  V30 4247 N 399.087 1.5561 -0.249682 0
M  V30 4248 C 400.05 2.20217 0.635394 0
M  V30 4249 C 401.05 1.17227 1.10066 0
M  V30 4250 O 402.24 1.42292 1.00492 0
M  V30 4251 C 399.372 2.84794 1.87363 0
M  V30 4252 H 400.565 2.99814 0.0716752 0
M  V30 4253 H 398.118 1.563 -0.000153234 0
M  V30 4254 H 398.853 2.09142 2.47851 0
M  V30 4255 H 398.638 3.60241 1.5482 0
M  V30 4256 H 400.128 3.3423 2.5036 0
M  V30 4257 N 400.565 -0.0233959 1.57583 0
M  V30 4258 C 401.79 -0.728376 1.94189 0
M  V30 4259 C 402.215 -1.67793 0.850119 0
M  V30 4260 O 401.573 -1.80262 -0.19371 0
M  V30 4261 C 401.621 -1.45669 3.29868 0
M  V30 4262 O 400.725 -2.57013 3.22518 0
M  V30 4263 H 400.066 -0.195493 0.63457 0
M  V30 4264 H 402.596 0.0228214 2.04587 0
M  V30 4265 H 402.606 -1.82535 3.6489 0
M  V30 4266 H 401.281 -0.760314 4.08891 0
M  V30 4267 H 399.858 -2.22648 2.99136 0
M  V30 4268 N 402.043 -1.548 -0.295768 0
M  V30 4269 C 403.29 -1.74329 -1.03032 0
M  V30 4270 C 403.618 -0.531915 -1.87085 0
M  V30 4271 O 402.873 0.486052 -1.89568 0
M  V30 4272 C 403.172 -2.98797 -1.961 0
M  V30 4273 C 402.838 -4.32356 -1.2798 0
M  V30 4274 C 401.5 -4.68661 -1.09135 0
M  V30 4275 C 403.852 -5.15128 -0.793243 0
M  V30 4276 C 401.18 -5.85312 -0.403269 0
M  V30 4277 C 403.532 -6.32488 -0.118854 0
M  V30 4278 C 402.196 -6.6745 0.0815043 0
M  V30 4279 H 401.466 -0.637916 -0.37702 0
M  V30 4280 H 404.113 -1.8906 -0.304696 0
M  V30 4281 H 402.418 -2.78869 -2.75207 0
M  V30 4282 H 404.115 -3.11102 -2.53015 0
M  V30 4283 H 400.705 -4.03808 -1.43655 0
M  V30 4284 H 404.889 -4.87575 -0.92653 0
M  V30 4285 H 400.145 -6.1094 -0.237098 0
M  V30 4286 H 404.319 -6.95892 0.266035 0
M  V30 4287 H 401.946 -7.57695 0.616685 0
M  V30 4288 N 403.521 0.559213 -1.47345 0
M  V30 4289 C 404.798 1.31997 -1.44348 0
M  V30 4290 C 405.178 2.1064 -0.139358 0
M  V30 4291 O 404.526 2.1091 0.879153 0
M  V30 4292 C 404.736 2.22618 -2.68779 0
M  V30 4293 C 406.084 2.83701 -3.1591 0
M  V30 4294 O 407.108 2.32921 -2.69493 0
M  V30 4295 O 405.967 3.75993 -3.966 0
M  V30 4296 H 403.061 0.594251 -0.575147 0
M  V30 4297 H 405.607 0.578282 -1.59543 0
M  V30 4298 H 404.379 1.64093 -3.55231 0
M  V30 4299 H 404.002 3.04085 -2.5616 0
M  V30 4300 N 404.999 1.35443 0.805782 0
M  V30 4301 C 406.246 1.28761 1.56291 0
M  V30 4302 C 406.574 -0.137747 1.94012 0
M  V30 4303 O 405.829 -1.1032 1.61642 0
M  V30 4304 C 406.128 2.14045 2.86216 0
M  V30 4305 C 405.794 3.62826 2.67709 0
M  V30 4306 C 404.456 4.0338 2.6237 0
M  V30 4307 C 406.808 4.57227 2.50186 0
M  V30 4308 C 404.136 5.36501 2.37451 0
M  V30 4309 C 406.488 5.90547 2.26797 0
M  V30 4310 C 405.152 6.30245 2.1988 0
M  V30 4311 H 404.422 0.471171 0.571908 0
M  V30 4312 H 407.069 1.67347 0.930974 0
M  V30 4313 H 405.374 1.68342 3.53791 0
M  V30 4314 H 407.071 2.0621 3.43917 0
M  V30 4315 H 403.661 3.30644 2.72713 0
M  V30 4316 H 407.845 4.2678 2.53323 0
M  V30 4317 H 403.101 5.66259 2.30567 0
M  V30 4318 H 407.275 6.63274 2.12228 0
M  V30 4319 H 404.902 7.33328 2.00333 0
M  V30 4320 N 406.477 -1.02803 1.19454 0
M  V30 4321 C 407.893 -1.28473 0.946937 0
M  V30 4322 C 408.093 -1.97881 -0.380202 0
M  V30 4323 O 407.149 -2.26719 -1.11151 0
M  V30 4324 C 408.462 -2.13099 2.12154 0
M  V30 4325 C 410.01 -2.26404 2.16126 0
M  V30 4326 C 410.485 -3.14402 3.33039 0
M  V30 4327 N 411.976 -3.21991 3.32981 0
M  V30 4328 C 412.711 -3.90272 4.20089 0
M  V30 4329 N 412.207 -4.60777 5.17355 0
M  V30 4330 N 414 -3.8668 4.07964 0
M  V30 4331 H 406.151 -0.561665 2.04839 0
M  V30 4332 H 408.414 -0.310438 0.89573 0
M  V30 4333 H 408.12 -1.69422 3.08203 0
M  V30 4334 H 407.994 -3.13813 2.09287 0
M  V30 4335 H 410.381 -2.69311 1.20647 0
M  V30 4336 H 410.462 -1.25237 2.23045 0
M  V30 4337 H 410.106 -2.72204 4.28798 0
M  V30 4338 H 410.036 -4.1563 3.23356 0
M  V30 4339 H 412.527 -2.71778 2.62574 0
M  V30 4340 H 412.84 -5.10513 5.80169 0
M  V30 4341 H 411.185 -4.5964 5.21302 0
M  V30 4342 H 414.376 -3.30739 3.31254 0
M  V30 4343 H 414.549 -4.39621 4.76064 0
M  V30 4344 N 407.956 -0.998596 -1.21925 0
M  V30 4345 C 409.202 -0.678667 -1.91107 0
M  V30 4346 C 409.535 0.78791 -1.77498 0
M  V30 4347 O 408.81 1.57043 -1.1475 0
M  V30 4348 C 409.093 -1.09245 -3.43129 0
M  V30 4349 C 408.946 -2.61801 -3.6576 0
M  V30 4350 C 410.265 -0.649984 -4.35274 0
M  V30 4351 H 407.384 -0.248025 -0.694012 0
M  V30 4352 H 410.026 -1.24314 -1.43688 0
M  V30 4353 H 408.176 -0.612171 -3.83647 0
M  V30 4354 H 409.848 -3.17543 -3.34611 0
M  V30 4355 H 408.091 -3.03609 -3.09845 0
M  V30 4356 H 408.762 -2.85804 -4.7225 0
M  V30 4357 H 411.238 -1.0626 -4.02303 0
M  V30 4358 H 410.114 -0.967743 -5.40302 0
M  V30 4359 H 410.375 0.449139 -4.39813 0
M  V30 4360 N 409.434 1.37368 -0.772513 0
M  V30 4361 C 410.397 2.28601 -0.165541 0
M  V30 4362 C 411.397 1.48062 0.627238 0
M  V30 4363 O 412.587 1.68268 0.450715 0
M  V30 4364 C 409.719 3.32023 0.772897 0
M  V30 4365 H 410.912 2.83787 -0.969787 0
M  V30 4366 H 408.465 1.46647 -0.540775 0
M  V30 4367 H 409.2 2.81962 1.60212 0
M  V30 4368 H 408.985 3.91555 0.206585 0
M  V30 4369 H 410.475 4.00197 1.19298 0
M  V30 4370 N 410.912 0.523116 1.48665 0
M  V30 4371 C 412.323 0.0808997 1.86525 0
M  V30 4372 C 412.674 -1.33975 1.43336 0
M  V30 4373 O 411.799 -2.00221 0.821009 0
M  V30 4374 C 412.394 0.140037 3.3851 0
M  V30 4375 C 410.953 -0.246948 3.75589 0
M  V30 4376 C 410.1 0.502845 2.72703 0
M  V30 4377 H 413.051 0.734736 1.40667 0
M  V30 4378 H 413.072 -0.649945 3.74908 0
M  V30 4379 H 412.584 1.17412 3.69914 0
M  V30 4380 H 410.685 -1.28343 3.49798 0
M  V30 4381 H 410.798 0.0878859 4.79019 0
M  V30 4382 H 409.162 -0.0500581 2.54651 0
M  V30 4383 H 409.945 1.53743 3.0695 0
M  V30 4384 N 412.39 -1.55475 0.257931 0
M  V30 4385 C 413.667 -1.91155 -0.414629 0
M  V30 4386 C 414.047 -1.18008 -1.75035 0
M  V30 4387 O 413.395 -0.301193 -2.26506 0
M  V30 4388 C 413.605 -3.44283 -0.571859 0
M  V30 4389 C 414.953 -4.15744 -0.862678 0
M  V30 4390 O 415.977 -3.50083 -0.657314 0
M  V30 4391 O 414.836 -5.31909 -1.2544 0
M  V30 4392 H 411.93 -0.796016 -0.22425 0
M  V30 4393 H 414.476 -1.66976 0.302814 0
M  V30 4394 H 413.248 -3.89558 0.368844 0
M  V30 4395 H 412.871 -3.7436 -1.33943 0
M  V30 4396 N 413.868 0.0150385 -1.57593 0
M  V30 4397 C 415.114 0.704043 -1.90187 0
M  V30 4398 C 415.447 1.74249 -0.857366 0
M  V30 4399 O 414.722 1.94092 0.125843 0
M  V30 4400 C 415.005 1.36087 -3.33395 0
M  V30 4401 C 414.858 0.334981 -4.48551 0
M  V30 4402 C 416.177 2.29112 -3.7576 0
M  V30 4403 H 413.296 0.254475 -0.691673 0
M  V30 4404 H 415.938 -0.0331678 -1.89971 0
M  V30 4405 H 414.088 1.98922 -3.3371 0
M  V30 4406 H 415.76 -0.292534 -4.60372 0
M  V30 4407 H 414.003 -0.344325 -4.32431 0
M  V30 4408 H 414.674 0.833316 -5.45674 0
M  V30 4409 H 417.15 1.76308 -3.76902 0
M  V30 4410 H 416.026 2.72043 -4.76743 0
M  V30 4411 H 416.287 3.16385 -3.08793 0
M  V30 4412 N 415.346 1.54954 0.287554 0
M  V30 4413 C 416.623 1.65569 1.04146 0
M  V30 4414 C 417.003 0.512672 2.0478 0
M  V30 4415 O 416.351 -0.489038 2.23205 0
M  V30 4416 C 416.561 3.04163 1.71131 0
M  V30 4417 C 417.909 3.61429 2.22832 0
M  V30 4418 O 418.933 3.06702 1.81141 0
M  V30 4419 O 417.792 4.57281 2.9926 0
M  V30 4420 H 414.886 0.671881 0.482188 0
M  V30 4421 H 417.432 1.67297 0.28457 0
M  V30 4422 H 416.204 3.78796 0.981303 0
M  V30 4423 H 415.827 3.06271 2.53543 0
M  V30 4424 N 416.824 -0.551391 1.4764 0
M  V30 4425 C 418.071 -1.3083 1.54563 0
M  V30 4426 C 418.399 -1.93359 0.210361 0
M  V30 4427 O 417.654 -1.78721 -0.797332 0
M  V30 4428 C 417.953 -2.43469 2.61644 0
M  V30 4429 C 417.619 -1.98732 4.04742 0
M  V30 4430 C 416.281 -1.86248 4.43695 0
M  V30 4431 C 418.633 -1.64659 4.94507 0
M  V30 4432 C 415.961 -1.37995 5.70241 0
M  V30 4433 C 418.313 -1.17875 6.21521 0
M  V30 4434 C 416.977 -1.03992 6.5935 0
M  V30 4435 H 416.247 -0.478741 0.565587 0
M  V30 4436 H 418.894 -0.617697 1.81264 0
M  V30 4437 H 417.199 -3.18109 2.28722 0
M  V30 4438 H 418.896 -3.01642 2.64222 0
M  V30 4439 H 415.486 -2.09393 3.73968 0
M  V30 4440 H 419.67 -1.73174 4.65107 0
M  V30 4441 H 414.926 -1.25915 5.98294 0
M  V30 4442 H 419.1 -0.905739 6.90485 0
M  V30 4443 H 416.727 -0.663794 7.57296 0
M  V30 4444 N 418.302 -1.35869 -0.798587 0
M  V30 4445 C 419.249 -1.29446 -1.91082 0
M  V30 4446 C 420.219 -0.16487 -1.6528 0
M  V30 4447 O 421.404 -0.349888 -1.87564 0
M  V30 4448 C 418.544 -1.0804 -3.27752 0
M  V30 4449 C 417.657 -2.29993 -3.65687 0
M  V30 4450 C 416.792 -2.01673 -4.91428 0
M  V30 4451 C 415.831 -3.19636 -5.22015 0
M  V30 4452 N 414.968 -2.91039 -6.38937 0
M  V30 4453 H 419.808 -2.24553 -1.95907 0
M  V30 4454 H 417.345 -1.11615 -0.958148 0
M  V30 4455 H 419.303 -0.936586 -4.06551 0
M  V30 4456 H 417.933 -0.16592 -3.22373 0
M  V30 4457 H 416.985 -2.55211 -2.82085 0
M  V30 4458 H 418.297 -3.18052 -3.84245 0
M  V30 4459 H 417.451 -1.84168 -5.78072 0
M  V30 4460 H 416.19 -1.10911 -4.74921 0
M  V30 4461 H 415.195 -3.37709 -4.33858 0
M  V30 4462 H 416.42 -4.11211 -5.40447 0
M  V30 4463 H 414.366 -2.0288 -6.2384 0
M  V30 4464 H 414.283 -3.72635 -6.57784 0
M  V30 4465 H 415.551 -2.77093 -7.28587 0
M  V30 4466 N 419.78 1.02168 -1.19998 0
M  V30 4467 C 420.743 2.08765 -0.94604 0
M  V30 4468 C 421.743 1.60618 0.0763846 0
M  V30 4469 O 422.933 1.73472 -0.159135 0
M  V30 4470 C 420.065 3.38262 -0.423255 0
M  V30 4471 H 421.258 2.32726 -1.89153 0
M  V30 4472 H 418.811 1.1889 -1.01464 0
M  V30 4473 H 419.546 3.19974 0.527938 0
M  V30 4474 H 419.331 3.74532 -1.16053 0
M  V30 4475 H 420.821 4.16759 -0.264911 0
M  V30 4476 N 421.258 1.00505 1.21394 0
M  V30 4477 C 422.505 0.687774 1.90462 0
M  V30 4478 C 422.833 -0.78147 1.7811 0
M  V30 4479 O 422.088 -1.58208 1.1519 0
M  V30 4480 C 422.387 1.0546 3.41486 0
M  V30 4481 C 422.053 2.51812 3.74034 0
M  V30 4482 C 420.715 2.91804 3.82628 0
M  V30 4483 C 423.067 3.46614 3.8924 0
M  V30 4484 C 420.395 4.2556 4.03876 0
M  V30 4485 C 422.747 4.80044 4.11995 0
M  V30 4486 C 421.411 5.19759 4.18816 0
M  V30 4487 H 420.681 0.251674 0.696951 0
M  V30 4488 H 423.328 1.26349 1.43903 0
M  V30 4489 H 421.633 0.397133 3.89782 0
M  V30 4490 H 423.33 0.786976 3.93202 0
M  V30 4491 H 419.92 2.1982 3.67936 0
M  V30 4492 H 424.104 3.16883 3.81967 0
M  V30 4493 H 419.36 4.55901 4.07387 0
M  V30 4494 H 423.534 5.53439 4.22704 0
M  V30 4495 H 421.161 6.23418 4.35033 0
M  V30 4496 N 422.737 -1.36956 0.779787 0
M  V30 4497 C 423.647 -2.33965 0.172491 0
M  V30 4498 C 424.663 -1.60574 -0.670222 0
M  V30 4499 O 425.839 -1.92617 -0.588263 0
M  V30 4500 C 422.904 -3.39761 -0.690173 0
M  V30 4501 C 421.965 -4.28964 0.169924 0
M  V30 4502 C 421.198 -5.29707 -0.651662 0
M  V30 4503 O 421.421 -5.38238 -1.88827 0
M  V30 4504 O 420.355 -6.01873 -0.0566264 0
M  V30 4505 H 424.181 -2.87647 0.974321 0
M  V30 4506 H 421.766 -1.39258 0.541078 0
M  V30 4507 H 423.648 -4.04471 -1.1824 0
M  V30 4508 H 422.323 -2.88394 -1.47006 0
M  V30 4509 H 421.23 -3.67326 0.708696 0
M  V30 4510 H 422.563 -4.83656 0.913085 0
M  V30 4511 N 424.215 -0.530993 -1.48385 0
M  V30 4512 C 425.125 0.23503 -2.3342 0
M  V30 4513 C 426.141 0.93801 -1.46552 0
M  V30 4514 O 427.317 0.912745 -1.7953 0
M  V30 4515 C 424.382 1.26778 -3.22689 0
M  V30 4516 C 423.443 0.575038 -4.25431 0
M  V30 4517 C 422.676 1.55858 -5.10435 0
M  V30 4518 O 422.899 2.79129 -4.97437 0
M  V30 4519 O 421.833 1.09742 -5.91811 0
M  V30 4520 H 425.659 -0.461794 -3.00169 0
M  V30 4521 H 423.244 -0.291903 -1.46521 0
M  V30 4522 H 425.126 1.86457 -3.77904 0
M  V30 4523 H 423.801 1.94699 -2.586 0
M  V30 4524 H 422.708 -0.0622782 -3.74048 0
M  V30 4525 H 424.041 -0.062253 -4.92161 0
M  V30 4526 N 425.693 1.55336 -0.266172 0
M  V30 4527 C 426.625 2.19544 0.658247 0
M  V30 4528 C 427.638 1.17746 1.12427 0
M  V30 4529 O 428.827 1.44517 1.04772 0
M  V30 4530 C 425.927 2.80032 1.9088 0
M  V30 4531 C 425.1 4.07436 1.59106 0
M  V30 4532 C 424.159 4.52056 2.69317 0
M  V30 4533 O 423.185 5.18023 2.35883 0
M  V30 4534 N 424.387 4.21448 3.99201 0
M  V30 4535 H 427.152 2.99503 0.108754 0
M  V30 4536 H 424.713 1.61667 -0.0869059 0
M  V30 4537 H 426.705 3.06831 2.63888 0
M  V30 4538 H 425.275 2.04119 2.36758 0
M  V30 4539 H 424.495 3.88021 0.695243 0
M  V30 4540 H 425.783 4.90462 1.35367 0
M  V30 4541 H 425.181 3.68528 4.29189 0
M  V30 4542 H 423.738 4.53039 4.68614 0
M  V30 4543 N 427.171 -0.0066808 1.57599 0
M  V30 4544 C 428.101 -0.999296 2.11036 0
M  V30 4545 C 429.082 -1.36278 1.01795 0
M  V30 4546 O 430.267 -1.4477 1.29442 0
M  V30 4547 C 427.397 -2.29328 2.60818 0
M  V30 4548 C 426.351 -2.07159 3.74525 0
M  V30 4549 C 425.677 -3.42512 4.10596 0
M  V30 4550 C 426.977 -1.43959 5.02069 0
M  V30 4551 H 428.671 -0.554382 2.94223 0
M  V30 4552 H 426.217 -0.265221 1.41536 0
M  V30 4553 H 428.17 -2.99117 2.96828 0
M  V30 4554 H 426.894 -2.7592 1.74745 0
M  V30 4555 H 425.553 -1.39797 3.38899 0
M  V30 4556 H 425.201 -3.86795 3.21556 0
M  V30 4557 H 424.901 -3.28498 4.87199 0
M  V30 4558 H 426.425 -4.13628 4.4916 0
M  V30 4559 H 427.839 -2.03696 5.35893 0
M  V30 4560 H 426.236 -1.40452 5.83432 0
M  V30 4561 H 427.306 -0.407992 4.83181 0
M  V30 4562 N 428.649 -1.55105 -0.279332 0
M  V30 4563 C 429.581 -1.83952 -1.36727 0
M  V30 4564 C 430.594 -0.723642 -1.45833 0
M  V30 4565 O 431.783 -1.00141 -1.47763 0
M  V30 4566 C 428.883 -1.98183 -2.74912 0
M  V30 4567 C 428.056 -3.28787 -2.88475 0
M  V30 4568 C 427.115 -3.33162 -4.07295 0
M  V30 4569 O 426.141 -4.06576 -3.98353 0
M  V30 4570 N 427.343 -2.60109 -5.18964 0
M  V30 4571 H 430.108 -2.77853 -1.12328 0
M  V30 4572 H 427.669 -1.54945 -0.469442 0
M  V30 4573 H 429.661 -1.98488 -3.52682 0
M  V30 4574 H 428.231 -1.11177 -2.92162 0
M  V30 4575 H 427.451 -3.41075 -1.97641 0
M  V30 4576 H 428.739 -4.14933 -2.94463 0
M  V30 4577 H 428.137 -2.00136 -5.29115 0
M  V30 4578 H 426.694 -2.66143 -5.94988 0
M  V30 4579 N 430.127 0.543554 -1.4793 0
M  V30 4580 C 431.352 1.32995 -1.59145 0
M  V30 4581 C 431.777 1.86472 -0.246956 0
M  V30 4582 O 431.135 1.63696 0.779324 0
M  V30 4583 C 431.183 2.46623 -2.63077 0
M  V30 4584 O 430.287 3.49261 -2.19295 0
M  V30 4585 H 429.628 0.394472 -0.534124 0
M  V30 4586 H 432.158 0.655489 -1.93816 0
M  V30 4587 H 432.168 2.93001 -2.83926 0
M  V30 4588 H 430.843 2.07059 -3.60693 0
M  V30 4589 H 429.42 3.09094 -2.08603 0
M  V30 4590 N 431.605 1.3629 0.791371 0
M  V30 4591 C 432.851 1.31613 1.5508 0
M  V30 4592 C 433.206 -0.104372 1.92117 0
M  V30 4593 O 432.499 -1.05845 1.5971 0
M  V30 4594 C 432.693 2.17068 2.8393 0
M  V30 4595 C 432.522 3.67285 2.59484 0
M  V30 4596 C 431.292 4.36469 2.54604 0
M  V30 4597 C 433.49 4.60595 2.28816 0
M  V30 4598 N 431.472 5.7234 2.22036 0
M  V30 4599 C 432.843 5.847 2.06218 0
M  V30 4600 C 434.898 4.4918 2.14806 0
M  V30 4601 C 433.601 6.98671 1.71028 0
M  V30 4602 C 435.627 5.63017 1.81014 0
M  V30 4603 C 434.989 6.86159 1.59263 0
M  V30 4604 H 431.088 0.536878 0.568582 0
M  V30 4605 H 433.672 1.71323 0.925007 0
M  V30 4606 H 431.843 1.79605 3.44378 0
M  V30 4607 H 433.575 2.03795 3.49642 0
M  V30 4608 H 430.33 3.89249 2.69782 0
M  V30 4609 H 430.754 6.44093 2.08503 0
M  V30 4610 H 435.396 3.54564 2.30313 0
M  V30 4611 H 433.114 7.9324 1.54259 0
M  V30 4612 H 436.7 5.56146 1.70861 0
M  V30 4613 H 435.58 7.72753 1.335 0
M  V30 4614 N 433.083 -1.0153 1.20538 0
M  V30 4615 C 434.323 -1.76689 1.02763 0
M  V30 4616 C 434.687 -1.87065 -0.432513 0
M  V30 4617 O 435.888 -2.58684 -0.730481 0
M  V30 4618 C 434.159 -3.14707 1.69393 0
M  V30 4619 S 435.718 -4.05886 1.66738 0
M  V30 4620 H 432.536 -0.608076 0.368463 0
M  V30 4621 H 435.138 -1.21558 1.53114 0
M  V30 4622 H 433.842 -3.04782 2.74838 0
M  V30 4623 H 433.373 -3.74913 1.19179 0
M  V30 4624 H 435.388 -4.91221 0.70117 0
M  V30 4625 N 434.561 -1.01147 -1.20859 0
M  V30 4626 C 435.493 -0.535546 -2.22855 0
M  V30 4627 C 436.506 0.379323 -1.58319 0
M  V30 4628 O 437.695 0.178489 -1.77605 0
M  V30 4629 C 434.795 0.240962 -3.38042 0
M  V30 4630 C 433.968 -0.674562 -4.32167 0
M  V30 4631 C 433.027 0.053467 -5.26173 0
M  V30 4632 O 432.053 -0.567339 -5.66366 0
M  V30 4633 N 433.255 1.32997 -5.65059 0
M  V30 4634 H 436.02 -1.41268 -2.64317 0
M  V30 4635 H 433.581 -0.888386 -1.35349 0
M  V30 4636 H 435.573 0.737115 -3.97931 0
M  V30 4637 H 434.143 1.01935 -2.95513 0
M  V30 4638 H 433.363 -1.35111 -3.70322 0
M  V30 4639 H 434.651 -1.2974 -4.91981 0
M  V30 4640 H 434.049 1.85536 -5.34409 0
M  V30 4641 H 432.606 1.77095 -6.2728 0
M  V30 4642 N 436.039 1.36541 -0.78704 0
M  V30 4643 C 437.002 2.28413 -0.189778 0
M  V30 4644 C 438.002 1.48719 0.611499 0
M  V30 4645 O 439.192 1.68737 0.432842 0
M  V30 4646 C 436.324 3.32824 0.737638 0
M  V30 4647 H 437.517 2.82743 -0.999831 0
M  V30 4648 H 435.07 1.46065 -0.556298 0
M  V30 4649 H 435.805 2.83646 1.57212 0
M  V30 4650 H 435.59 3.91752 0.165044 0
M  V30 4651 H 437.08 4.0144 1.15047 0
M  V30 4652 N 437.518 0.538854 1.48102 0
M  V30 4653 C 438.481 -0.208395 2.28251 0
M  V30 4654 C 439.481 -0.859656 1.35892 0
M  V30 4655 O 440.671 -0.71834 1.58699 0
M  V30 4656 C 437.803 -1.30252 3.15035 0
M  V30 4657 H 438.996 0.495407 2.9578 0
M  V30 4658 H 436.549 0.295112 1.53489 0
M  V30 4659 H 437.284 -2.0393 2.52157 0
M  V30 4660 H 437.069 -0.840551 3.82985 0
M  V30 4661 H 438.559 -1.82787 3.75471 0
M  V30 4662 N 438.996 -1.55193 0.274407 0
M  V30 4663 C 440.244 -1.99187 -0.341902 0
M  V30 4664 C 440.565 -1.16422 -1.56431 0
M  V30 4665 O 439.835 -0.253573 -1.94252 0
M  V30 4666 H 438.415 -0.735721 -0.129317 0
M  V30 4667 H 441.077 -1.91168 0.379578 0
M  V30 4668 H 440.173 -3.05629 -0.632253 0
M  V30 4669 N 440.474 -0.00167713 -1.576 0
M  V30 4670 C 441.384 1.00548 -2.1196 0
M  V30 4671 C 442.4 1.3758 -1.06526 0
M  V30 4672 O 443.576 1.46278 -1.38436 0
M  V30 4673 C 440.641 2.27809 -2.6135 0
M  V30 4674 C 439.702 1.97074 -3.81393 0
M  V30 4675 C 438.935 3.18267 -4.28417 0
M  V30 4676 O 439.158 4.30009 -3.74765 0
M  V30 4677 O 438.092 3.02167 -5.20556 0
M  V30 4678 H 441.918 0.573373 -2.98238 0
M  V30 4679 H 439.503 0.217255 -1.47812 0
M  V30 4680 H 441.385 3.02568 -2.93309 0
M  V30 4681 H 440.06 2.70254 -1.78169 0
M  V30 4682 H 438.967 1.19785 -3.54404 0
M  V30 4683 H 440.3 1.59464 -4.65652 0
M  V30 4684 N 441.952 1.55251 0.271103 0
M  V30 4685 C 443.2 1.75599 1.00047 0
M  V30 4686 C 443.521 0.561188 1.8675 0
M  V30 4687 O 442.791 -0.423846 1.9126 0
M  V30 4688 H 441.371 0.647562 0.372387 0
M  V30 4689 H 444.033 1.92656 0.294876 0
M  V30 4690 H 443.129 2.65766 1.6363 0
M  V30 4691 N 443.43 -0.535701 1.48216 0
M  V30 4692 C 444.676 -1.29375 1.56173 0
M  V30 4693 C 445.009 -1.92804 0.232429 0
M  V30 4694 O 444.284 -1.78992 -0.761048 0
M  V30 4695 C 444.567 -2.38747 2.69577 0
M  V30 4696 C 444.42 -1.80046 4.12193 0
M  V30 4697 C 445.739 -3.40551 2.78771 0
M  V30 4698 H 442.858 -0.469027 0.568491 0
M  V30 4699 H 445.5 -0.597358 1.80365 0
M  V30 4700 H 443.65 -2.98147 2.4908 0
M  V30 4701 H 445.322 -1.24742 4.44114 0
M  V30 4702 H 443.565 -1.10609 4.19462 0
M  V30 4703 H 444.236 -2.59212 4.87353 0
M  V30 4704 H 446.712 -2.91099 2.97322 0
M  V30 4705 H 445.588 -4.1448 3.59857 0
M  V30 4706 H 445.849 -4.00746 1.86696 0
M  V30 4707 N 444.908 -1.36708 -0.784132 0
M  V30 4708 C 446.136 -1.34398 -1.57305 0
M  V30 4709 C 446.551 0.0735577 -1.88657 0
M  V30 4710 O 445.908 1.03193 -1.50524 0
M  V30 4711 C 445.959 -2.17053 -2.89085 0
M  V30 4712 O 445.68 -3.53281 -2.59083 0
M  V30 4713 C 447.181 -2.22583 -3.83369 0
M  V30 4714 H 444.401 -0.460819 -0.487736 0
M  V30 4715 H 446.945 -1.79879 -0.972819 0
M  V30 4716 H 445.1 -1.75113 -3.45564 0
M  V30 4717 H 445.514 -3.9647 -3.43383 0
M  V30 4718 H 446.988 -2.84763 -4.72878 0
M  V30 4719 H 447.465 -1.23075 -4.21603 0
M  V30 4720 H 448.071 -2.64781 -3.32823 0
M  V30 4721 N 446.386 1.0089 -1.21074 0
M  V30 4722 C 447.316 2.1145 -0.990523 0
M  V30 4723 C 448.297 1.69897 0.0831699 0
M  V30 4724 O 449.482 1.94052 -0.0758853 0
M  V30 4725 C 446.612 3.42914 -0.550177 0
M  V30 4726 C 445.566 3.98244 -1.56799 0
M  V30 4727 C 444.892 5.25568 -0.984013 0
M  V30 4728 C 446.192 4.30752 -2.95381 0
M  V30 4729 H 447.886 2.3013 -1.91521 0
M  V30 4730 H 445.432 1.10592 -0.92225 0
M  V30 4731 H 447.385 4.19653 -0.383305 0
M  V30 4732 H 446.109 3.24014 0.41015 0
M  V30 4733 H 444.768 3.23621 -1.72236 0
M  V30 4734 H 444.416 5.02998 -0.0155216 0
M  V30 4735 H 444.116 5.63551 -1.66384 0
M  V30 4736 H 445.64 6.04955 -0.828378 0
M  V30 4737 H 447.054 4.98349 -2.8341 0
M  V30 4738 H 445.451 4.79869 -3.60341 0
M  V30 4739 H 446.521 3.39192 -3.46521 0
M  V30 4740 N 447.864 1.01787 1.20321 0
M  V30 4741 C 448.774 0.598898 2.26827 0
M  V30 4742 C 449.79 -0.36418 1.70146 0
M  V30 4743 O 450.966 -0.224812 2.00141 0
M  V30 4744 C 448.031 -0.0549769 3.46656 0
M  V30 4745 C 447.092 0.954205 4.18561 0
M  V30 4746 C 446.325 0.331439 5.3267 0
M  V30 4747 O 446.548 -0.86851 5.63749 0
M  V30 4748 O 445.482 1.0488 5.92692 0
M  V30 4749 H 449.308 1.48562 2.64883 0
M  V30 4750 H 446.893 0.787434 1.26964 0
M  V30 4751 H 448.775 -0.420102 4.19301 0
M  V30 4752 H 447.45 -0.915876 3.10473 0
M  V30 4753 H 446.357 1.37072 3.48083 0
M  V30 4754 H 447.69 1.78511 4.58688 0
M  V30 4755 N 449.342 -1.36122 0.79427 0
M  V30 4756 C 450.589 -1.99111 0.368905 0
M  V30 4757 C 450.917 -1.63032 -1.0607 0
M  V30 4758 O 450.172 -0.879303 -1.74833 0
M  V30 4759 C 450.471 -3.5409 0.48527 0
M  V30 4760 C 450.137 -4.10003 1.87638 0
M  V30 4761 C 448.799 -4.24986 2.257 0
M  V30 4762 C 451.151 -4.40423 2.78706 0
M  V30 4763 C 448.479 -4.67701 3.54221 0
M  V30 4764 C 450.831 -4.84573 4.0666 0
M  V30 4765 C 449.495 -4.97761 4.44737 0
M  V30 4766 H 448.765 -0.7286 0.134992 0
M  V30 4767 H 451.412 -1.62534 1.01267 0
M  V30 4768 H 449.717 -3.91052 -0.241984 0
M  V30 4769 H 451.414 -4.00766 0.137109 0
M  V30 4770 H 448.004 -3.98784 1.57064 0
M  V30 4771 H 452.188 -4.28412 2.50553 0
M  V30 4772 H 447.444 -4.761 3.83587 0
M  V30 4773 H 451.618 -5.07074 4.77336 0
M  V30 4774 H 449.245 -5.30618 5.44379 0
M  V30 4775 N 450.82 -0.546701 -1.47814 0
M  V30 4776 C 451.783 0.196287 -2.28358 0
M  V30 4777 C 452.783 0.852437 -1.36346 0
M  V30 4778 O 453.973 0.709913 -1.59078 0
M  V30 4779 C 451.105 1.28579 -3.15722 0
M  V30 4780 H 452.298 -0.511086 -2.95513 0
M  V30 4781 H 449.851 -0.303248 -1.5333 0
M  V30 4782 H 450.586 2.0259 -2.53235 0
M  V30 4783 H 450.371 0.820229 -3.83425 0
M  V30 4784 H 451.861 1.80793 -3.76435 0
M  V30 4785 N 452.299 1.55045 -0.282633 0
M  V30 4786 C 453.231 2.2023 0.634924 0
M  V30 4787 C 454.244 1.18931 1.11172 0
M  V30 4788 O 455.433 1.4562 1.03233 0
M  V30 4789 C 452.533 2.82041 1.87899 0
M  V30 4790 C 451.706 4.091 1.54776 0
M  V30 4791 C 450.765 4.54887 2.64507 0
M  V30 4792 O 449.791 5.20496 2.30375 0
M  V30 4793 N 450.993 4.25659 3.94709 0
M  V30 4794 H 453.758 2.99601 0.0769811 0
M  V30 4795 H 451.319 1.61565 -0.104048 0
M  V30 4796 H 453.311 3.09613 2.60619 0
M  V30 4797 H 451.881 2.06618 2.3458 0
M  V30 4798 H 451.101 3.88736 0.654049 0
M  V30 4799 H 452.389 4.9187 1.30158 0
M  V30 4800 H 451.787 3.7306 4.25256 0
M  V30 4801 H 450.344 4.57984 4.63782 0
M  V30 4802 N 453.777 0.010035 1.57597 0
M  V30 4803 C 454.724 -0.978122 2.09049 0
M  V30 4804 C 455.694 -1.33509 0.988159 0
M  V30 4805 O 456.879 -1.43172 1.26121 0
M  V30 4806 C 454.019 -2.26158 2.60666 0
M  V30 4807 C 453.132 -1.96275 3.84838 0
M  V30 4808 C 452.267 -3.18776 4.24918 0
M  V30 4809 C 451.306 -2.84625 5.41899 0
M  V30 4810 N 450.443 -3.99693 5.77226 0
M  V30 4811 H 455.283 -0.532431 2.93205 0
M  V30 4812 H 452.82 -0.251234 1.44939 0
M  V30 4813 H 454.778 -3.01202 2.88675 0
M  V30 4814 H 453.408 -2.68378 1.79369 0
M  V30 4815 H 452.46 -1.11555 3.63675 0
M  V30 4816 H 453.772 -1.67111 4.69974 0
M  V30 4817 H 452.926 -4.02157 4.54262 0
M  V30 4818 H 451.665 -3.51087 3.38511 0
M  V30 4819 H 450.67 -1.99653 5.12268 0
M  V30 4820 H 451.895 -2.53551 6.29991 0
M  V30 4821 H 449.841 -4.31882 4.93776 0
M  V30 4822 H 449.758 -3.74087 6.56959 0
M  V30 4823 H 451.026 -4.83834 6.11167 0
M  V30 4824 N 455.255 -1.55392 -0.262866 0
M  V30 4825 C 456.501 -1.77657 -0.990424 0
M  V30 4826 C 456.856 -0.576333 -1.83565 0
M  V30 4827 O 456.149 0.430795 -1.86694 0
M  V30 4828 C 456.343 -3.02889 -1.89718 0
M  V30 4829 C 456.172 -4.34979 -1.14121 0
M  V30 4830 C 454.942 -4.98052 -0.852768 0
M  V30 4831 C 457.14 -5.11597 -0.526625 0
M  V30 4832 N 455.122 -6.13859 -0.0710649 0
M  V30 4833 C 456.493 -6.19883 0.12042 0
M  V30 4834 C 458.548 -4.95992 -0.435485 0
M  V30 4835 C 457.251 -7.14262 0.849833 0
M  V30 4836 C 459.277 -5.90735 0.280359 0
M  V30 4837 C 458.639 -6.98417 0.916103 0
M  V30 4838 H 454.738 -0.702242 -0.344064 0
M  V30 4839 H 457.322 -1.92887 -0.265088 0
M  V30 4840 H 455.493 -2.89017 -2.59468 0
M  V30 4841 H 457.225 -3.13516 -2.5591 0
M  V30 4842 H 453.98 -4.5916 -1.16058 0
M  V30 4843 H 454.404 -6.76302 0.307413 0
M  V30 4844 H 459.046 -4.12832 -0.912671 0
M  V30 4845 H 456.764 -7.96935 1.33867 0
M  V30 4846 H 460.35 -5.80738 0.351332 0
M  V30 4847 H 459.23 -7.70467 1.46119 0
M  V30 4848 N 456.733 0.527833 -1.48498 0
M  V30 4849 C 457.666 1.64892 -1.57753 0
M  V30 4850 C 458.644 1.5687 -0.427867 0
M  V30 4851 O 459.828 1.77311 -0.639764 0
M  V30 4852 C 456.955 3.03301 -1.50752 0
M  V30 4853 C 456.001 3.29675 -2.70586 0
M  V30 4854 S 456.834 3.15712 -4.32535 0
M  V30 4855 C 457.99 4.56564 -4.28136 0
M  V30 4856 H 458.223 1.56792 -2.52594 0
M  V30 4857 H 455.756 0.710959 -1.37057 0
M  V30 4858 H 457.714 3.83123 -1.474 0
M  V30 4859 H 456.375 3.08839 -0.572454 0
M  V30 4860 H 455.568 4.3065 -2.61833 0
M  V30 4861 H 455.17 2.57526 -2.71212 0
M  V30 4862 H 457.462 5.48126 -3.98201 0
M  V30 4863 H 458.405 4.70371 -5.29298 0
M  V30 4864 H 458.813 4.35987 -3.58574 0
M  V30 4865 N 458.211 1.37122 0.776871 0
M  V30 4866 C 459.161 1.28989 1.88005 0
M  V30 4867 C 460.145 0.178765 1.59904 0
M  V30 4868 O 461.337 0.412705 1.72121 0
M  V30 4869 C 458.466 1.09402 3.25402 0
M  V30 4870 C 457.552 2.25036 3.59471 0
M  V30 4871 N 457.943 3.50407 3.64759 0
M  V30 4872 C 456.241 2.17078 3.89607 0
M  V30 4873 C 456.942 4.26628 3.95428 0
M  V30 4874 N 455.918 3.55709 4.11062 0
M  V30 4875 H 459.72 2.2394 1.90337 0
M  V30 4876 H 457.234 1.30021 0.973052 0
M  V30 4877 H 459.231 1.01661 4.04315 0
M  V30 4878 H 457.891 0.153632 3.24336 0
M  V30 4879 H 458.902 3.8438 3.47091 0
M  V30 4880 H 455.579 1.31067 3.96393 0
M  V30 4881 H 456.969 5.35107 4.06338 0
M  V30 4882 N 459.689 -1.00246 1.21608 0
M  V30 4883 C 461.1 -1.55511 1.03312 0
M  V30 4884 C 461.451 -1.91946 -0.406332 0
M  V30 4885 O 460.576 -1.73753 -1.28992 0
M  V30 4886 C 461.171 -2.82576 1.86913 0
M  V30 4887 C 459.73 -3.34318 1.72941 0
M  V30 4888 C 458.877 -2.07487 1.83968 0
M  V30 4889 H 461.828 -0.824638 1.35593 0
M  V30 4890 H 461.849 -3.54559 1.38087 0
M  V30 4891 H 461.361 -2.56026 2.91672 0
M  V30 4892 H 459.462 -3.65797 0.70877 0
M  V30 4893 H 459.575 -4.05566 2.55055 0
M  V30 4894 H 457.939 -2.20603 1.27304 0
M  V30 4895 H 458.722 -1.83346 2.9024 0
M  V30 4896 N 461.167 -1.02423 -1.1978 0
M  V30 4897 C 462.099 -0.559152 -2.22275 0
M  V30 4898 C 463.112 0.36251 -1.58713 0
M  V30 4899 O 464.301 0.159641 -1.77785 0
M  V30 4900 C 461.401 0.205094 -3.38279 0
M  V30 4901 C 460.574 -0.720361 -4.31427 0
M  V30 4902 C 459.633 -0.00234368 -5.262 0
M  V30 4903 O 458.659 -0.627378 -5.65732 0
M  V30 4904 N 459.861 1.26996 -5.66438 0
M  V30 4905 H 462.626 -1.44064 -2.62804 0
M  V30 4906 H 460.187 -0.902692 -1.34399 0
M  V30 4907 H 462.179 0.694868 -3.9869 0
M  V30 4908 H 460.749 0.987947 -2.96578 0
M  V30 4909 H 459.969 -1.39031 -3.68869 0
M  V30 4910 H 461.257 -1.3495 -4.90577 0
M  V30 4911 H 460.655 1.79858 -5.36347 0
M  V30 4912 H 459.212 1.70432 -6.29123 0
M  V30 4913 N 462.645 1.35699 -0.801477 0
M  V30 4914 C 463.891 1.99208 -0.380022 0
M  V30 4915 C 464.224 1.63445 1.04878 0
M  V30 4916 O 463.499 0.895223 1.72673 0
M  V30 4917 C 463.782 3.55755 -0.557708 0
M  V30 4918 C 463.635 4.01332 -2.03107 0
M  V30 4919 C 464.954 4.40096 0.0197968 0
M  V30 4920 H 462.073 0.723667 -0.139552 0
M  V30 4921 H 464.715 1.60928 -1.01006 0
M  V30 4922 H 462.865 3.88494 -0.0213741 0
M  V30 4923 H 464.537 3.79026 -2.62939 0
M  V30 4924 H 462.78 3.52429 -2.52936 0
M  V30 4925 H 463.451 5.10234 -2.1063 0
M  V30 4926 H 465.927 4.13786 -0.438179 0
M  V30 4927 H 464.803 5.48735 -0.134477 0
M  V30 4928 H 465.064 4.2786 1.11303 0
M  V30 4929 N 464.123 0.554532 1.47522 0
M  V30 4930 C 465.351 0.034257 2.06872 0
M  V30 4931 C 465.766 -1.25826 1.40759 0
M  V30 4932 O 465.123 -1.75425 0.503217 0
M  V30 4933 C 465.174 -0.167827 3.6111 0
M  V30 4934 O 464.895 1.07351 4.24744 0
M  V30 4935 C 466.396 -0.72569 4.3732 0
M  V30 4936 H 463.616 0.0446275 0.669514 0
M  V30 4937 H 466.16 0.767181 1.89564 0
M  V30 4938 H 464.315 -0.850872 3.7794 0
M  V30 4939 H 464.729 0.869563 5.17242 0
M  V30 4940 H 466.203 -0.816394 5.45929 0
M  V30 4941 H 466.68 -1.73635 4.0342 0
M  V30 4942 H 467.286 -0.0784292 4.25228 0
M  V30 4943 N 465.601 -1.54893 0.290851 0
M  V30 4944 C 467.012 -1.85584 -0.203816 0
M  V30 4945 C 467.363 -1.21285 -1.54222 0
M  V30 4946 O 466.488 -0.506841 -2.10381 0
M  V30 4947 C 467.083 -3.367 -0.376595 0
M  V30 4948 C 465.642 -3.6746 -0.815485 0
M  V30 4949 C 464.789 -2.77178 0.0821087 0
M  V30 4950 H 467.74 -1.50208 0.512175 0
M  V30 4951 H 467.761 -3.60656 -1.21275 0
M  V30 4952 H 467.273 -3.8347 0.59767 0
M  V30 4953 H 465.374 -3.26201 -1.80066 0
M  V30 4954 H 465.487 -4.7478 -0.641905 0
M  V30 4955 H 463.851 -2.50925 -0.436895 0
M  V30 4956 H 464.634 -3.26767 1.05254 0
M  V30 4957 N 467.08 -0.0183926 -1.57589 0
M  V30 4958 C 468.308 0.673046 -1.95647 0
M  V30 4959 C 468.723 1.66275 -0.894312 0
M  V30 4960 O 468.08 1.82072 0.124975 0
M  V30 4961 C 468.131 1.38884 -3.33756 0
M  V30 4962 O 467.852 0.438806 -4.35897 0
M  V30 4963 C 469.353 2.1731 -3.86383 0
M  V30 4964 H 466.573 0.186292 -0.644621 0
M  V30 4965 H 469.117 -0.0749748 -2.04363 0
M  V30 4966 H 467.272 2.08835 -3.26293 0
M  V30 4967 H 467.686 0.945869 -5.15901 0
M  V30 4968 H 469.16 2.62863 -4.85394 0
M  V30 4969 H 469.637 3.00764 -3.20059 0
M  V30 4970 H 470.243 1.52339 -3.97081 0
M  V30 4971 N 468.558 1.5553 0.254621 0
M  V30 4972 C 469.835 1.6774 1.00611 0
M  V30 4973 C 470.215 0.555993 2.03647 0
M  V30 4974 O 469.563 -0.441583 2.24193 0
M  V30 4975 C 469.773 3.07725 1.6464 0
M  V30 4976 C 471.121 3.66074 2.15116 0
M  V30 4977 O 472.145 3.10476 1.74595 0
M  V30 4978 O 471.004 4.63526 2.89493 0
M  V30 4979 H 468.098 0.681958 0.467828 0
M  V30 4980 H 470.644 1.67863 0.24902 0
M  V30 4981 H 469.416 3.80792 0.900734 0
M  V30 4982 H 469.039 3.1158 2.46989 0
M  V30 4983 N 470.036 -0.519951 1.48776 0
M  V30 4984 C 471.313 -1.28123 1.47797 0
M  V30 4985 C 471.693 -2.10196 0.195157 0
M  V30 4986 O 471.041 -2.13167 -0.822925 0
M  V30 4987 C 471.251 -2.15413 2.74587 0
M  V30 4988 C 472.599 -2.75225 3.23321 0
M  V30 4989 O 473.623 -2.25694 2.75574 0
M  V30 4990 O 472.482 -3.65346 4.06429 0
M  V30 4991 H 469.576 -0.578793 0.590701 0
M  V30 4992 H 472.122 -0.535779 1.6102 0
M  V30 4993 H 470.894 -1.54617 3.59457 0
M  V30 4994 H 470.517 -2.97186 2.64132 0
M  V30 4995 N 471.514 -1.37532 -0.769588 0
M  V30 4996 C 472.739 -1.36231 -1.56384 0
M  V30 4997 C 473.164 0.0495849 -1.88035 0
M  V30 4998 O 472.522 1.02723 -1.49391 0
M  V30 4999 C 472.57 -2.20986 -2.84952 0
M  V30 5000 O 471.674 -1.61597 -3.79421 0
M  V30 5001 H 471.015 -0.465387 -0.473615 0
M  V30 5002 H 473.545 -1.81085 -0.952342 0
M  V30 5003 H 473.555 -2.34277 -3.34034 0
M  V30 5004 H 472.23 -3.23612 -2.61243 0
M  V30 5005 H 470.807 -1.57359 -3.38072 0
M  V30 5006 N 472.992 0.995999 -1.22138 0
M  V30 5007 C 473.94 2.10673 -0.985876 0
M  V30 5008 C 474.934 1.69255 0.0699553 0
M  V30 5009 O 476.14 1.79812 -0.0822176 0
M  V30 5010 H 472.515 0.688865 -0.30161 0
M  V30 5011 H 474.486 2.27711 -1.92848 0
M  V30 5012 C 473.235 3.42881 -0.576909 0
M  V30 5013 H 472.558 3.75191 -1.38101 0
M  V30 5014 H 473.998 4.21589 -0.451518 0
M  V30 5015 C 472.457 3.29265 0.713196 0
M  V30 5016 O 472.987 3.60777 1.76643 0
M  V30 5017 N 471.193 2.82456 0.683162 0
M  V30 5018 H 470.74 2.5701 -0.174242 0
M  V30 5019 H 470.698 2.73727 1.54663 0
M  V30 5020 N 474.47 1.03057 1.19235 0
M  V30 5021 C 475.881 0.757449 1.70645 0
M  V30 5022 C 476.232 -0.722735 1.82403 0
M  V30 5023 O 475.357 -1.56325 1.49638 0
M  V30 5024 C 475.952 1.36833 3.09939 0
M  V30 5025 C 474.511 1.14375 3.58602 0
M  V30 5026 C 473.658 1.46533 2.35422 0
M  V30 5027 H 476.609 1.19828 1.04052 0
M  V30 5028 H 476.63 0.766184 3.72706 0
M  V30 5029 H 476.142 2.44562 3.01349 0
M  V30 5030 H 474.243 0.0847542 3.72504 0
M  V30 5031 H 474.356 1.83366 4.42622 0
M  V30 5032 H 472.72 0.884712 2.38841 0
M  V30 5033 H 473.503 2.55349 2.2946 0
M  V30 5034 N 475.948 -1.35272 0.808662 0
M  V30 5035 C 477.194 -1.99434 0.399717 0
M  V30 5036 C 477.549 -1.62992 -1.02232 0
M  V30 5037 O 476.842 -0.884091 -1.69983 0
M  V30 5038 C 477.036 -3.53556 0.522798 0
M  V30 5039 C 476.865 -4.04969 1.95525 0
M  V30 5040 C 475.635 -4.34228 2.58407 0
M  V30 5041 C 477.833 -4.23362 2.92009 0
M  V30 5042 N 475.815 -4.71585 3.93041 0
M  V30 5043 C 477.186 -4.63739 4.11517 0
M  V30 5044 C 479.241 -4.05576 2.88813 0
M  V30 5045 C 477.944 -4.88189 5.28265 0
M  V30 5046 C 479.97 -4.31184 4.04765 0
M  V30 5047 C 479.332 -4.71834 5.23022 0
M  V30 5048 H 475.431 -0.757534 0.19408 0
M  V30 5049 H 478.015 -1.63939 1.05034 0
M  V30 5050 H 476.186 -3.88277 -0.0978471 0
M  V30 5051 H 477.918 -4.04604 0.0882378 0
M  V30 5052 H 474.673 -4.24621 2.09747 0
M  V30 5053 H 475.097 -4.9452 4.62363 0
M  V30 5054 H 479.739 -3.73288 1.98535 0
M  V30 5055 H 477.457 -5.1935 6.19113 0
M  V30 5056 H 481.043 -4.18972 4.03675 0
M  V30 5057 H 479.923 -4.91263 6.11253 0
M  V30 5058 N 477.426 -0.562348 -1.47226 0
M  V30 5059 C 478.672 -0.0485293 -2.03342 0
M  V30 5060 C 479.027 1.28898 -1.42839 0
M  V30 5061 O 478.32 1.82719 -0.576563 0
M  V30 5062 C 478.514 0.0969817 -3.57268 0
M  V30 5063 C 478.343 -1.22487 -4.32697 0
M  V30 5064 C 477.113 -1.79357 -4.72397 0
M  V30 5065 C 479.311 -2.14332 -4.67511 0
M  V30 5066 N 477.293 -3.05493 -5.32491 0
M  V30 5067 C 478.664 -3.25049 -5.27961 0
M  V30 5068 C 480.719 -2.14263 -4.4944 0
M  V30 5069 C 479.422 -4.35804 -5.72248 0
M  V30 5070 C 481.448 -3.24033 -4.94729 0
M  V30 5071 C 480.81 -4.3347 -5.55233 0
M  V30 5072 H 476.909 -0.0600464 -0.779691 0
M  V30 5073 H 479.493 -0.750769 -1.79643 0
M  V30 5074 H 477.664 0.768353 -3.80724 0
M  V30 5075 H 479.396 0.613333 -4.00025 0
M  V30 5076 H 476.151 -1.33093 -4.54514 0
M  V30 5077 H 476.575 -3.698 -5.67077 0
M  V30 5078 H 481.217 -1.30935 -4.02015 0
M  V30 5079 H 478.935 -5.19888 -6.18661 0
M  V30 5080 H 482.521 -3.25073 -4.82513 0
M  V30 5081 H 481.401 -5.17008 -5.89638 0
M  V30 5082 N 478.904 1.54736 -0.299062 0
M  V30 5083 C 479.867 2.22127 0.565012 0
M  V30 5084 C 480.867 1.20669 1.06281 0
M  V30 5085 O 482.057 1.45417 0.959145 0
M  V30 5086 C 479.189 2.90611 1.78208 0
M  V30 5087 H 480.382 2.99891 -0.0237448 0
M  V30 5088 H 477.935 1.5622 -0.0498788 0
M  V30 5089 H 478.67 2.16921 2.41072 0
M  V30 5090 H 478.455 3.64984 1.43281 0
M  V30 5091 H 479.945 3.42026 2.396 0
M  V30 5092 N 480.382 0.0267497 1.57577 0
M  V30 5093 C 481.345 -0.940916 2.08996 0
M  V30 5094 C 482.345 -1.25561 1.00455 0
M  V30 5095 O 483.535 -1.19634 1.26623 0
M  V30 5096 C 480.667 -2.25814 2.55384 0
M  V30 5097 H 481.86 -0.495628 2.95776 0
M  V30 5098 H 479.413 -0.221241 1.54726 0
M  V30 5099 H 480.148 -2.74976 1.71926 0
M  V30 5100 H 479.933 -2.04285 3.34679 0
M  V30 5101 H 481.423 -2.95178 2.95398 0
M  V30 5102 N 481.861 -1.55662 -0.24637 0
M  V30 5103 C 483.108 -1.77519 -0.974335 0
M  V30 5104 C 483.436 -0.591165 -1.85298 0
M  V30 5105 O 482.691 0.425497 -1.91018 0
M  V30 5106 C 482.99 -3.04885 -1.86494 0
M  V30 5107 C 482.656 -4.36209 -1.14161 0
M  V30 5108 C 481.318 -4.71896 -0.941701 0
M  V30 5109 C 483.67 -5.17391 -0.628957 0
M  V30 5110 C 480.998 -5.86299 -0.216852 0
M  V30 5111 C 483.35 -6.32546 0.0824273 0
M  V30 5112 C 482.014 -6.66853 0.293807 0
M  V30 5113 H 481.284 -0.649588 -0.356535 0
M  V30 5114 H 483.931 -1.89934 -0.244394 0
M  V30 5115 H 482.236 -2.87484 -2.66196 0
M  V30 5116 H 483.933 -3.18994 -2.42989 0
M  V30 5117 H 480.523 -4.08174 -1.30736 0
M  V30 5118 H 484.707 -4.90276 -0.770943 0
M  V30 5119 H 479.963 -6.11385 -0.0426124 0
M  V30 5120 H 484.137 -6.94693 0.487292 0
M  V30 5121 H 481.764 -7.55349 0.857428 0
M  V30 5122 N 483.339 0.512053 -1.4905 0
M  V30 5123 C 484.564 1.2959 -1.6193 0
M  V30 5124 C 484.989 1.85906 -0.286454 0
M  V30 5125 O 484.347 1.65312 0.744426 0
M  V30 5126 C 484.395 2.40987 -2.68249 0
M  V30 5127 O 483.499 3.44531 -2.26654 0
M  V30 5128 H 482.84 0.383053 -0.542371 0
M  V30 5129 H 485.37 0.614231 -1.95162 0
M  V30 5130 H 485.38 2.86913 -2.90078 0
M  V30 5131 H 484.055 1.99361 -3.65004 0
M  V30 5132 H 482.632 3.046 -2.15112 0
M  V30 5133 N 484.817 1.37938 0.762283 0
M  V30 5134 C 486.233 1.18945 1.06415 0
M  V30 5135 C 486.433 0.0321163 2.01474 0
M  V30 5136 O 485.489 -0.624844 2.44647 0
M  V30 5137 C 486.802 2.51218 1.65258 0
M  V30 5138 C 488.35 2.57824 1.7747 0
M  V30 5139 C 488.825 3.90251 2.39725 0
M  V30 5140 N 490.316 3.91744 2.47166 0
M  V30 5141 C 491.051 4.90966 2.96209 0
M  V30 5142 N 490.547 6.00585 3.45354 0
M  V30 5143 N 492.34 4.78363 2.9517 0
M  V30 5144 H 484.491 2.11994 0.131301 0
M  V30 5145 H 486.754 0.940262 0.120879 0
M  V30 5146 H 486.46 3.36317 1.02878 0
M  V30 5147 H 486.334 2.68989 2.64433 0
M  V30 5148 H 488.721 1.73126 2.3898 0
M  V30 5149 H 488.802 2.43928 0.770241 0
M  V30 5150 H 488.446 4.75368 1.78852 0
M  V30 5151 H 488.376 4.01454 3.40796 0
M  V30 5152 H 490.867 3.12563 2.12397 0
M  V30 5153 H 491.18 6.72236 3.81207 0
M  V30 5154 H 489.525 6.04217 3.43434 0
M  V30 5155 H 492.716 3.91841 2.56082 0
M  V30 5156 H 492.889 5.55843 3.33081 0
M  V30 5157 N 486.295 -0.989507 1.22664 0
M  V30 5158 C 487.541 -1.7321 1.05481 0
M  V30 5159 C 487.874 -1.89852 -0.408635 0
M  V30 5160 O 487.149 -1.44416 -1.30285 0
M  V30 5161 C 487.432 -3.1357 1.77047 0
M  V30 5162 C 487.285 -3.04555 3.31008 0
M  V30 5163 C 488.604 -4.12812 1.5256 0
M  V30 5164 H 485.723 -0.628697 0.384589 0
M  V30 5165 H 488.365 -1.15258 1.51049 0
M  V30 5166 H 486.515 -3.63046 1.3831 0
M  V30 5167 H 488.187 -2.62674 3.7921 0
M  V30 5168 H 486.43 -2.41278 3.6051 0
M  V30 5169 H 487.101 -4.03894 3.76263 0
M  V30 5170 H 489.577 -3.72106 1.86215 0
M  V30 5171 H 488.453 -5.09132 2.05124 0
M  V30 5172 H 488.714 -4.39711 0.458936 0
M  V30 5173 N 487.773 -1.03688 -1.18687 0
M  V30 5174 C 489.013 -0.746858 -1.90267 0
M  V30 5175 C 489.377 0.712075 -1.78307 0
M  V30 5176 O 490.578 1.11553 -2.44559 0
M  V30 5177 C 488.849 -1.19543 -3.36815 0
M  V30 5178 S 490.408 -1.03047 -4.26529 0
M  V30 5179 H 487.226 -0.271663 -0.657054 0
M  V30 5180 H 489.828 -1.32838 -1.43437 0
M  V30 5181 H 488.532 -2.2527 -3.43047 0
M  V30 5182 H 488.063 -0.607533 -3.88681 0
M  V30 5183 H 490.078 0.0543232 -4.9617 0
M  V30 5184 N 489.251 1.34841 -0.815825 0
M  V30 5185 C 490.198 2.29644 -0.230664 0
M  V30 5186 C 491.168 1.53253 0.640533 0
M  V30 5187 O 492.353 1.81653 0.583672 0
M  V30 5188 C 489.493 3.39715 0.607275 0
M  V30 5189 C 488.606 4.31056 -0.28538 0
M  V30 5190 C 487.741 5.28225 0.561446 0
M  V30 5191 C 486.78 6.11204 -0.331035 0
M  V30 5192 N 485.917 7.00483 0.476302 0
M  V30 5193 H 490.757 2.79095 -1.0445 0
M  V30 5194 H 488.294 1.37351 -0.526595 0
M  V30 5195 H 490.252 4.02208 1.10835 0
M  V30 5196 H 488.882 2.91517 1.38629 0
M  V30 5197 H 487.934 3.69487 -0.904621 0
M  V30 5198 H 489.246 4.89239 -0.97193 0
M  V30 5199 H 488.4 5.96135 1.12728 0
M  V30 5200 H 487.139 4.70562 1.28153 0
M  V30 5201 H 486.144 5.42232 -0.909069 0
M  V30 5202 H 487.369 6.70947 -1.04912 0
M  V30 5203 H 485.315 6.45296 1.18019 0
M  V30 5204 H 485.232 7.55847 -0.152008 0
M  V30 5205 H 486.5 7.7273 1.02512 0
M  V30 5206 N 490.729 0.570148 1.46925 0
M  V30 5207 C 492.006 -0.0153259 1.95594 0
M  V30 5208 C 492.386 -1.47232 1.51281 0
M  V30 5209 O 491.734 -2.15574 0.757624 0
M  V30 5210 C 491.944 0.143624 3.48704 0
M  V30 5211 C 493.292 0.00494484 4.246 0
M  V30 5212 O 494.316 0.0718214 3.56128 0
M  V30 5213 O 493.175 -0.141175 5.46318 0
M  V30 5214 H 490.269 -0.0568819 0.825041 0
M  V30 5215 H 492.815 0.637583 1.57267 0
M  V30 5216 H 491.587 1.15699 3.73804 0
M  V30 5217 H 491.21 -0.5463 3.93829 0
M  V30 5218 N 492.207 -1.54576 0.307264 0
M  V30 5219 C 493.14 -2.19946 -0.608195 0
M  V30 5220 C 494.118 -1.17096 -1.12815 0
M  V30 5221 O 495.302 -1.45766 -1.19518 0
M  V30 5222 C 492.429 -2.84826 -1.8328 0
M  V30 5223 C 491.475 -4.01256 -1.44554 0
M  V30 5224 S 492.308 -5.33197 -0.49612 0
M  V30 5225 C 493.464 -6.01563 -1.72838 0
M  V30 5226 H 493.697 -2.97253 -0.0528544 0
M  V30 5227 H 491.23 -1.54129 0.0913837 0
M  V30 5228 H 493.188 -3.22832 -2.53554 0
M  V30 5229 H 491.849 -2.07353 -2.35931 0
M  V30 5230 H 491.042 -4.45457 -2.35762 0
M  V30 5231 H 490.644 -3.6484 -0.822671 0
M  V30 5232 H 492.936 -6.22751 -2.6681 0
M  V30 5233 H 493.879 -6.9552 -1.32882 0
M  V30 5234 H 494.287 -5.31279 -1.90795 0
M  V30 5235 N 493.685 -0.035106 -1.57561 0
M  V30 5236 C 494.633 0.962707 -2.11742 0
M  V30 5237 C 495.627 1.33296 -1.0454 0
M  V30 5238 O 496.833 1.31449 -1.22968 0
M  V30 5239 H 493.208 0.32826 -0.676572 0
M  V30 5240 H 495.179 0.48048 -2.94506 0
M  V30 5241 C 493.928 2.23388 -2.66445 0
M  V30 5242 H 493.251 1.95774 -3.48587 0
M  V30 5243 H 494.691 2.91402 -3.07995 0
M  V30 5244 C 493.15 2.96769 -1.59467 0
M  V30 5245 O 493.68 3.89105 -0.998 0
M  V30 5246 N 491.886 2.59212 -1.31369 0
M  V30 5247 H 491.433 1.84202 -1.80076 0
M  V30 5248 H 491.391 3.08618 -0.600173 0
M  V30 5249 N 495.163 1.55791 0.238111 0
M  V30 5250 C 496.093 1.94068 1.29846 0
M  V30 5251 C 497.074 0.806726 1.49753 0
M  V30 5252 O 498.259 1.06772 1.62214 0
M  V30 5253 C 495.389 2.24302 2.65153 0
M  V30 5254 C 494.343 3.40032 2.59927 0
M  V30 5255 C 493.669 3.55829 3.99111 0
M  V30 5256 C 494.969 4.75476 2.16148 0
M  V30 5257 H 496.663 2.82887 0.980563 0
M  V30 5258 H 494.209 1.36105 0.470253 0
M  V30 5259 H 496.162 2.4967 3.39475 0
M  V30 5260 H 494.886 1.32318 2.98596 0
M  V30 5261 H 493.545 3.14687 1.88063 0
M  V30 5262 H 493.193 2.6125 4.29834 0
M  V30 5263 H 492.893 4.3366 3.96501 0
M  V30 5264 H 494.417 3.83528 4.7512 0
M  V30 5265 H 495.831 5.00158 2.80205 0
M  V30 5266 H 494.228 5.56472 2.24631 0
M  V30 5267 H 495.298 4.71946 1.11333 0
M  V30 5268 N 496.642 -0.504142 1.49319 0
M  V30 5269 C 497.87 -1.28256 1.62351 0
M  V30 5270 C 498.285 -1.86502 0.293682 0
M  V30 5271 O 497.642 -1.67678 -0.720449 0
M  V30 5272 C 497.693 -2.41507 2.68992 0
M  V30 5273 O 497.414 -1.85656 3.96817 0
M  V30 5274 C 498.915 -3.32929 2.927 0
M  V30 5275 H 496.135 -0.389115 0.546654 0
M  V30 5276 H 498.679 -0.605531 1.95329 0
M  V30 5277 H 496.834 -3.05046 2.38801 0
M  V30 5278 H 497.248 -2.59981 4.55533 0
M  V30 5279 H 498.722 -4.0868 3.71058 0
M  V30 5280 H 499.199 -3.89733 2.02496 0
M  V30 5281 H 499.805 -2.75158 3.24296 0
M  V30 5282 N 498.12 -1.38341 -0.754957 0
M  V30 5283 C 499.05 -1.38176 -1.88227 0
M  V30 5284 C 500.031 -0.247873 -1.68284 0
M  V30 5285 O 501.216 -0.45075 -1.88896 0
M  V30 5286 C 498.346 -1.20471 -3.25736 0
M  V30 5287 C 497.3 -2.3105 -3.60278 0
M  V30 5288 C 496.626 -1.98452 -4.96509 0
M  V30 5289 C 497.926 -3.73305 -3.65295 0
M  V30 5290 H 499.62 -2.32512 -1.88622 0
M  V30 5291 H 497.166 -1.1192 -0.906082 0
M  V30 5292 H 499.119 -1.18982 -4.04254 0
M  V30 5293 H 497.843 -0.225965 -3.25817 0
M  V30 5294 H 496.502 -2.31723 -2.84078 0
M  V30 5295 H 496.15 -0.990641 -4.93148 0
M  V30 5296 H 495.85 -2.7251 -5.20588 0
M  V30 5297 H 497.374 -1.98578 -5.77407 0
M  V30 5298 H 498.788 -3.7467 -4.3393 0
M  V30 5299 H 497.185 -4.46557 -4.00883 0
M  V30 5300 H 498.255 -4.05719 -2.65556 0
M  V30 5301 N 499.598 0.982988 -1.23187 0
M  V30 5302 C 500.508 2.10907 -1.02739 0
M  V30 5303 C 501.524 1.73979 0.0273188 0
M  V30 5304 O 502.7 2.00702 -0.16757 0
M  V30 5305 C 499.765 3.41142 -0.618304 0
M  V30 5306 C 498.826 3.92112 -1.74777 0
M  V30 5307 C 498.059 5.16131 -1.3581 0
M  V30 5308 O 498.282 5.6989 -0.241201 0
M  V30 5309 O 497.216 5.61103 -2.17824 0
M  V30 5310 H 501.042 2.31046 -1.97108 0
M  V30 5311 H 498.627 1.09284 -1.01869 0
M  V30 5312 H 500.509 4.19488 -0.400982 0
M  V30 5313 H 499.184 3.2234 0.296421 0
M  V30 5314 H 498.091 3.14895 -2.0197 0
M  V30 5315 H 499.424 4.15364 -2.64071 0
M  V30 5316 N 501.076 1.04316 1.18135 0
M  V30 5317 C 502.487 0.775505 1.69832 0
M  V30 5318 C 502.838 -0.703348 1.8316 0
M  V30 5319 O 501.963 -1.54729 1.51287 0
M  V30 5320 C 502.558 1.40112 3.0847 0
M  V30 5321 C 501.117 1.18172 3.57368 0
M  V30 5322 C 500.264 1.49022 2.33854 0
M  V30 5323 H 503.215 1.20925 1.02775 0
M  V30 5324 H 503.236 0.805672 3.71873 0
M  V30 5325 H 502.748 2.47744 2.98738 0
M  V30 5326 H 500.849 0.124258 3.72393 0
M  V30 5327 H 500.962 1.8805 4.40652 0
M  V30 5328 H 499.326 0.909995 2.37889 0
M  V30 5329 H 500.109 2.57768 2.26738 0
M  V30 5330 N 502.554 -1.34406 0.822964 0
M  V30 5331 C 503.464 -2.33298 0.246838 0
M  V30 5332 C 504.48 -1.62625 -0.618797 0
M  V30 5333 O 505.656 -1.94391 -0.526685 0
M  V30 5334 C 502.721 -3.41785 -0.581731 0
M  V30 5335 C 501.782 -4.28206 0.306309 0
M  V30 5336 C 501.015 -5.31512 -0.48281 0
M  V30 5337 O 501.238 -5.43973 -1.71607 0
M  V30 5338 O 500.172 -6.01749 0.134884 0
M  V30 5339 H 503.998 -2.84401 1.06534 0
M  V30 5340 H 501.583 -1.37466 0.585108 0
M  V30 5341 H 503.465 -4.08028 -1.05313 0
M  V30 5342 H 502.14 -2.92925 -1.37756 0
M  V30 5343 H 501.047 -3.64885 0.825199 0
M  V30 5344 H 502.38 -4.80507 1.06649 0
M  V30 5345 N 504.032 -0.577932 -1.46621 0
M  V30 5346 C 505.281 -0.0594281 -2.01612 0
M  V30 5347 C 505.594 1.30663 -1.45556 0
M  V30 5348 O 506.8 1.91621 -1.92337 0
M  V30 5349 C 505.256 -0.0556666 -3.59857 0
M  V30 5350 C 504.864 -1.41975 -4.24908 0
M  V30 5351 C 506.608 0.409143 -4.22524 0
M  V30 5352 C 504.515 -1.37397 -5.75218 0
M  V30 5353 H 503.445 -0.0184469 -0.753774 0
M  V30 5354 H 506.096 -0.728869 -1.68404 0
M  V30 5355 H 504.478 0.679843 -3.90121 0
M  V30 5356 H 505.652 -2.17461 -4.0626 0
M  V30 5357 H 503.967 -1.82419 -3.74316 0
M  V30 5358 H 506.564 0.46211 -5.32699 0
M  V30 5359 H 506.907 1.42565 -3.91128 0
M  V30 5360 H 507.44 -0.272152 -3.96868 0
M  V30 5361 H 504.179 -2.36714 -6.11267 0
M  V30 5362 H 503.699 -0.661239 -5.96144 0
M  V30 5363 H 505.378 -1.08484 -6.3784 0
M  V30 5364 N 505.51 1.54411 -0.315457 0
M  V30 5365 C 506.443 2.20265 0.596522 0
M  V30 5366 C 507.421 1.17693 1.12192 0
M  V30 5367 O 508.605 1.46397 1.18744 0
M  V30 5368 C 505.732 2.85794 1.81767 0
M  V30 5369 C 504.778 4.02017 1.42424 0
M  V30 5370 S 505.611 5.33452 0.467836 0
M  V30 5371 C 506.767 6.02471 1.69645 0
M  V30 5372 H 507 2.97277 0.0370896 0
M  V30 5373 H 504.533 1.54079 -0.0995562 0
M  V30 5374 H 506.491 3.24172 2.51839 0
M  V30 5375 H 505.152 2.08601 2.34828 0
M  V30 5376 H 504.345 4.46701 2.33396 0
M  V30 5377 H 503.947 3.65271 0.803311 0
M  V30 5378 H 506.239 6.24157 2.63504 0
M  V30 5379 H 507.182 6.96215 1.29192 0
M  V30 5380 H 507.59 5.32284 1.87974 0
M  V30 5381 N 506.988 0.0434614 1.5754 0
M  V30 5382 C 508.399 -0.493343 1.80064 0
M  V30 5383 C 508.75 -1.71388 0.955023 0
M  V30 5384 O 507.875 -2.15736 0.169434 0
M  V30 5385 C 508.47 -0.90179 3.26578 0
M  V30 5386 C 507.029 -1.38362 3.50047 0
M  V30 5387 C 506.176 -0.355129 2.75017 0
M  V30 5388 H 509.127 0.2694 1.56397 0
M  V30 5389 H 509.148 -1.76523 3.37075 0
M  V30 5390 H 508.66 -0.013271 3.88098 0
M  V30 5391 H 506.761 -2.29159 2.93798 0
M  V30 5392 H 506.874 -1.3811 4.58762 0
M  V30 5393 H 505.238 -0.826348 2.40922 0
M  V30 5394 H 506.021 0.525172 3.39259 0
M  V30 5395 N 508.466 -1.55915 -0.229846 0
M  V30 5396 C 509.429 -1.90914 -1.26824 0
M  V30 5397 C 510.429 -0.786999 -1.40225 0
M  V30 5398 O 511.619 -1.05484 -1.38632 0
M  V30 5399 C 508.751 -2.15264 -2.64337 0
M  V30 5400 H 509.944 -2.8378 -0.969998 0
M  V30 5401 H 507.497 -1.49069 -0.4699 0
M  V30 5402 H 508.232 -1.24923 -2.99274 0
M  V30 5403 H 508.017 -2.97005 -2.55989 0
M  V30 5404 H 509.507 -2.43467 -3.39284 0
M  V30 5405 N 509.944 0.496216 -1.49584 0
M  V30 5406 C 510.907 1.57952 -1.66084 0
M  V30 5407 C 511.907 1.51729 -0.53244 0
M  V30 5408 O 513.097 1.54796 -0.79899 0
M  V30 5409 C 510.229 2.97604 -1.66268 0
M  V30 5410 H 511.422 1.44649 -2.6271 0
M  V30 5411 H 508.975 0.7208 -1.38687 0
M  V30 5412 H 509.71 3.16378 -0.712432 0
M  V30 5413 H 509.495 3.03528 -2.4822 0
M  V30 5414 H 510.985 3.76301 -1.81073 0
M  V30 5415 N 511.423 1.38739 0.74761 0
M  V30 5416 C 512.651 1.38521 1.53686 0
M  V30 5417 C 513.066 -0.0235129 1.88785 0
M  V30 5418 O 512.423 -0.991662 1.53207 0
M  V30 5419 C 512.474 2.24641 2.83229 0
M  V30 5420 O 512.195 3.60026 2.49625 0
M  V30 5421 C 513.696 2.32669 3.77333 0
M  V30 5422 H 510.916 0.473589 0.475347 0
M  V30 5423 H 513.46 1.82395 0.924786 0
M  V30 5424 H 511.615 1.84213 3.40799 0
M  V30 5425 H 512.029 4.05435 3.3275 0
M  V30 5426 H 513.503 2.97201 4.65162 0
M  V30 5427 H 513.98 1.3421 4.18192 0
M  V30 5428 H 514.586 2.73512 3.25685 0
M  V30 5429 N 512.901 -0.976442 1.23707 0
M  V30 5430 C 514.178 -1.69296 0.979699 0
M  V30 5431 C 514.558 -2.0508 -0.500555 0
M  V30 5432 O 513.906 -1.74708 -1.47273 0
M  V30 5433 C 514.116 -2.93143 1.89389 0
M  V30 5434 C 515.464 -3.65572 2.15968 0
M  V30 5435 O 516.488 -3.03184 1.86971 0
M  V30 5436 O 515.347 -4.77859 2.65167 0
M  V30 5437 H 512.441 -0.739708 0.369812 0
M  V30 5438 H 514.987 -1.03131 1.34767 0
M  V30 5439 H 513.759 -2.63327 2.89439 0
M  V30 5440 H 513.382 -3.67044 1.52854 0
M  V30 5441 N 514.379 -1.04941 -1.1758 0
M  V30 5442 C 515.327 -0.64204 -2.23563 0
M  V30 5443 C 516.321 0.335453 -1.66045 0
M  V30 5444 O 517.527 0.20179 -1.78865 0
M  V30 5445 H 513.902 -0.18944 -0.727748 0
M  V30 5446 H 515.873 -1.54609 -2.55223 0
M  V30 5447 C 514.622 -0.0301051 -3.47687 0
M  V30 5448 H 513.945 -0.773339 -3.92249 0
M  V30 5449 H 515.385 0.217592 -4.23441 0
M  V30 5450 C 513.844 1.2225 -3.13937 0
M  V30 5451 O 514.374 2.3122 -3.28482 0
M  V30 5452 N 512.58 1.11917 -2.68185 0
M  V30 5453 H 512.127 0.232403 -2.5655 0
M  V30 5454 H 512.085 1.95814 -2.45976 0
M  V30 5455 N 515.857 1.33968 -0.830081 0
M  V30 5456 C 517.273 1.51003 -0.516742 0
M  V30 5457 C 517.473 1.77286 0.957694 0
M  V30 5458 O 516.529 1.82797 1.74188 0
M  V30 5459 C 517.842 2.67036 -1.38247 0
M  V30 5460 C 519.39 2.80919 -1.38034 0
M  V30 5461 C 519.865 4.00004 -2.23071 0
M  V30 5462 N 521.356 4.07224 -2.20733 0
M  V30 5463 C 522.091 4.98541 -2.83275 0
M  V30 5464 N 521.587 5.95033 -3.54835 0
M  V30 5465 N 523.38 4.91469 -2.72791 0
M  V30 5466 H 515.531 1.15168 -1.78466 0
M  V30 5467 H 517.794 0.565443 -0.760906 0
M  V30 5468 H 517.5 2.54266 -2.42985 0
M  V30 5469 H 517.374 3.62226 -1.05225 0
M  V30 5470 H 519.761 2.93127 -0.340713 0
M  V30 5471 H 519.842 1.86517 -1.75057 0
M  V30 5472 H 519.486 3.88557 -3.27087 0
M  V30 5473 H 519.416 4.93634 -1.83394 0
M  V30 5474 H 521.907 3.38162 -1.68687 0
M  V30 5475 H 522.22 6.61357 -3.99784 0
M  V30 5476 H 520.565 5.95135 -3.58942 0
M  V30 5477 H 523.756 4.15048 -2.16456 0
M  V30 5478 H 523.929 5.62439 -3.21818 0
M  V30 5479 N 517.335 0.585699 1.46312 0
M  V30 5480 C 518.565 0.0780166 2.06453 0
M  V30 5481 C 518.973 -1.2336 1.43454 0
M  V30 5482 O 518.316 -1.75734 0.535086 0
M  V30 5483 C 518.378 -0.158951 3.59148 0
M  V30 5484 C 518.042 1.06752 4.44357 0
M  V30 5485 C 519.039 1.98031 4.80708 0
M  V30 5486 C 516.724 1.2902 4.85447 0
M  V30 5487 C 518.718 3.09924 5.5698 0
M  V30 5488 C 516.405 2.41218 5.61478 0
M  V30 5489 C 517.403 3.31499 5.97158 0
M  V30 5490 O 517.091 4.41747 6.71651 0
M  V30 5491 H 516.823 0.0558894 0.673686 0
M  V30 5492 H 519.377 0.806994 1.88883 0
M  V30 5493 H 517.607 -0.942575 3.75037 0
M  V30 5494 H 519.296 -0.615513 4.01206 0
M  V30 5495 H 520.062 1.82043 4.49539 0
M  V30 5496 H 515.941 0.596567 4.57124 0
M  V30 5497 H 519.485 3.80415 5.84748 0
M  V30 5498 H 515.382 2.57167 5.9206 0
M  V30 5499 H 516.15 4.40152 6.90079 0
M  V30 5500 N 518.813 -1.54241 0.323641 0
M  V30 5501 C 520.062 -1.9975 -0.279806 0
M  V30 5502 C 520.375 -1.2156 -1.5324 0
M  V30 5503 O 521.581 -1.57447 -2.21185 0
M  V30 5504 C 520.037 -3.55686 -0.549115 0
M  V30 5505 C 519.645 -4.4271 0.686432 0
M  V30 5506 C 521.389 -4.09663 -1.11251 0
M  V30 5507 C 519.296 -5.90119 0.389022 0
M  V30 5508 H 518.226 -0.746177 -0.10833 0
M  V30 5509 H 520.877 -1.78248 0.435877 0
M  V30 5510 H 519.259 -3.73176 -1.32499 0
M  V30 5511 H 520.433 -4.36996 1.46188 0
M  V30 5512 H 518.748 -3.99623 1.17005 0
M  V30 5513 H 521.345 -5.17386 -1.34965 0
M  V30 5514 H 521.688 -3.61651 -2.06191 0
M  V30 5515 H 522.221 -3.95806 -0.39782 0
M  V30 5516 H 518.96 -6.42326 1.30759 0
M  V30 5517 H 518.48 -5.98785 -0.348722 0
M  V30 5518 H 520.159 -6.47 -0.0011164 0
M  V30 5519 N 520.291 -0.0518155 -1.57515 0
M  V30 5520 C 521.707 0.304735 -1.56664 0
M  V30 5521 C 521.907 1.71395 -1.05953 0
M  V30 5522 O 520.963 2.42123 -0.716414 0
M  V30 5523 C 522.276 0.132614 -3.00407 0
M  V30 5524 C 523.824 0.20367 -3.12337 0
M  V30 5525 C 524.299 0.0600706 -4.57961 0
M  V30 5526 N 525.79 0.116326 -4.63054 0
M  V30 5527 C 526.525 0.0293363 -5.73392 0
M  V30 5528 N 526.021 -0.110038 -6.92713 0
M  V30 5529 N 527.814 0.0849651 -5.62036 0
M  V30 5530 H 519.965 -0.973056 -1.888 0
M  V30 5531 H 522.228 -0.377781 -0.869474 0
M  V30 5532 H 521.934 -0.839019 -3.41546 0
M  V30 5533 H 521.808 0.893376 -3.66468 0
M  V30 5534 H 524.195 1.16578 -2.71097 0
M  V30 5535 H 524.276 -0.587857 -2.48954 0
M  V30 5536 H 523.92 -0.898715 -4.99886 0
M  V30 5537 H 523.85 0.87075 -5.19351 0
M  V30 5538 H 526.341 0.22327 -3.7724 0
M  V30 5539 H 526.654 -0.169104 -7.72615 0
M  V30 5540 H 524.999 -0.145132 -6.94848 0
M  V30 5541 H 528.19 0.192411 -4.67704 0
M  V30 5542 H 528.363 0.0137131 -6.47999 0
M  V30 5543 N 521.769 1.56035 0.221574 0
M  V30 5544 C 522.732 1.91584 1.2581 0
M  V30 5545 C 523.732 0.794425 1.39805 0
M  V30 5546 O 524.922 1.06217 1.38071 0
M  V30 5547 C 522.054 2.16663 2.63192 0
M  V30 5548 H 523.247 2.8429 0.954935 0
M  V30 5549 H 520.8 1.49316 0.461988 0
M  V30 5550 H 521.535 1.26508 2.98607 0
M  V30 5551 H 521.32 2.98358 2.5441 0
M  V30 5552 H 522.81 2.45262 3.37988 0
M  V30 5553 N 523.247 -0.488276 1.49845 0
M  V30 5554 C 524.493 -1.24341 1.6021 0
M  V30 5555 C 524.826 -1.91967 0.293651 0
M  V30 5556 O 524.101 -1.81323 -0.703718 0
M  V30 5557 C 524.384 -2.3005 2.77036 0
M  V30 5558 C 524.237 -1.66842 4.17713 0
M  V30 5559 C 525.556 -3.31509 2.89464 0
M  V30 5560 H 522.675 -0.450704 0.583125 0
M  V30 5561 H 525.317 -0.539673 1.82174 0
M  V30 5562 H 523.467 -2.90071 2.58439 0
M  V30 5563 H 525.139 -1.1055 4.47858 0
M  V30 5564 H 523.382 -0.972079 4.22768 0
M  V30 5565 H 524.053 -2.43576 4.95353 0
M  V30 5566 H 526.529 -2.81493 3.06433 0
M  V30 5567 H 525.405 -4.02822 3.72861 0
M  V30 5568 H 525.666 -3.94603 1.99351 0
M  V30 5569 N 524.725 -1.39134 -0.740242 0
M  V30 5570 C 525.973 -1.35803 -1.49673 0
M  V30 5571 C 526.294 0.0470897 -1.94943 0
M  V30 5572 O 525.564 0.997347 -1.68611 0
M  V30 5573 H 524.144 -0.499736 -0.555224 0
M  V30 5574 H 526.806 -1.73947 -0.879107 0
M  V30 5575 H 525.902 -2.0174 -2.38133 0
M  V30 5576 N 526.204 0.969867 -1.24223 0
M  V30 5577 C 527.45 1.7151 -1.08223 0
M  V30 5578 C 527.783 1.90478 0.37838 0
M  V30 5579 O 527.058 1.4647 1.27971 0
M  V30 5580 C 527.341 3.10714 -1.82013 0
M  V30 5581 C 527.194 2.9925 -3.35811 0
M  V30 5582 C 528.513 4.10332 -1.59108 0
M  V30 5583 H 525.632 0.622499 -0.394543 0
M  V30 5584 H 528.274 1.1284 -1.52863 0
M  V30 5585 H 526.424 3.608 -1.44068 0
M  V30 5586 H 528.096 2.56608 -3.83341 0
M  V30 5587 H 526.339 2.35512 -3.64303 0
M  V30 5588 H 527.01 3.97857 -3.82641 0
M  V30 5589 H 529.486 3.69097 -1.92111 0
M  V30 5590 H 528.362 5.05804 -2.13198 0
M  V30 5591 H 528.623 4.38926 -0.528832 0
M  V30 5592 N 527.682 1.05563 1.17022 0
M  V30 5593 C 529.093 0.793475 1.69 0
M  V30 5594 C 529.444 -0.683882 1.83895 0
M  V30 5595 O 528.569 -1.53116 1.5292 0
M  V30 5596 C 529.164 1.43376 3.06967 0
M  V30 5597 C 527.723 1.21956 3.56095 0
M  V30 5598 C 526.87 1.51494 2.3226 0
M  V30 5599 H 529.821 1.22008 1.01487 0
M  V30 5600 H 529.842 0.845068 3.70997 0
M  V30 5601 H 529.354 2.50899 2.96093 0
M  V30 5602 H 527.455 0.163749 3.7224 0
M  V30 5603 H 527.568 1.92713 4.38633 0
M  V30 5604 H 525.932 0.935175 2.3691 0
M  V30 5605 H 526.715 2.60159 2.23992 0
M  V30 5606 N 529.16 -1.33526 0.837174 0
M  V30 5607 C 530.123 -2.27551 0.274421 0
M  V30 5608 C 531.123 -1.50886 -0.555881 0
M  V30 5609 O 532.313 -1.70227 -0.369918 0
M  V30 5610 C 529.445 -3.35332 -0.613605 0
M  V30 5611 H 530.638 -2.78837 1.10408 0
M  V30 5612 H 528.191 -1.439 0.610126 0
M  V30 5613 H 528.926 -2.89285 -1.46577 0
M  V30 5614 H 528.711 -3.92095 -0.0195341 0
M  V30 5615 H 530.201 -4.05433 -1.00068 0
M  V30 5616 N 530.638 -0.59345 -1.46 0
M  V30 5617 C 531.568 0.121192 -2.33185 0
M  V30 5618 C 532.549 0.872977 -1.4599 0
M  V30 5619 O 533.734 0.846321 -1.74789 0
M  V30 5620 C 530.864 1.12844 -3.28456 0
M  V30 5621 C 529.818 0.4908 -4.25177 0
M  V30 5622 C 529.144 1.60529 -5.10034 0
M  V30 5623 C 530.444 -0.578949 -5.19081 0
M  V30 5624 H 532.138 -0.606767 -2.93187 0
M  V30 5625 H 529.684 -0.293242 -1.40983 0
M  V30 5626 H 531.637 1.63684 -3.88311 0
M  V30 5627 H 530.361 1.88681 -2.66584 0
M  V30 5628 H 529.02 0.00339328 -3.666 0
M  V30 5629 H 528.668 2.35359 -4.44539 0
M  V30 5630 H 528.368 1.18422 -5.75543 0
M  V30 5631 H 529.892 2.11623 -5.72755 0
M  V30 5632 H 531.306 -0.155199 -5.7309 0
M  V30 5633 H 529.703 -0.920947 -5.92991 0
M  V30 5634 H 530.773 -1.46109 -4.62364 0
M  V30 5635 N 532.116 1.54067 -0.331816 0
M  V30 5636 C 533.364 2.00319 0.267739 0
M  V30 5637 C 533.685 1.22148 1.52003 0
M  V30 5638 O 532.955 0.325494 1.93177 0
M  V30 5639 H 531.535 0.740014 0.101922 0
M  V30 5640 H 534.197 1.89628 -0.450267 0
M  V30 5641 H 533.293 3.07765 0.518385 0
M  V30 5642 N 533.594 0.0601682 1.57485 0
M  V30 5643 C 534.841 -0.611594 1.93043 0
M  V30 5644 C 535.169 -1.70317 0.939274 0
M  V30 5645 O 534.424 -1.95644 -0.046996 0
M  V30 5646 C 534.723 -1.23831 3.35262 0
M  V30 5647 C 534.389 -0.274037 4.50066 0
M  V30 5648 C 533.051 -0.00872394 4.81199 0
M  V30 5649 C 535.403 0.386308 5.19766 0
M  V30 5650 C 532.731 0.924218 5.79375 0
M  V30 5651 C 535.083 1.3075 6.1894 0
M  V30 5652 C 533.747 1.58139 6.48497 0
M  V30 5653 H 533.017 -0.223798 0.706396 0
M  V30 5654 H 535.664 0.128566 1.91068 0
M  V30 5655 H 533.969 -2.05394 3.33647 0
M  V30 5656 H 535.666 -1.76517 3.60059 0
M  V30 5657 H 532.256 -0.491008 4.25778 0
M  V30 5658 H 536.44 0.194436 4.95919 0
M  V30 5659 H 531.696 1.1438 6.00606 0
M  V30 5660 H 535.87 1.82519 6.72056 0
M  V30 5661 H 533.497 2.30593 7.24383 0
M  V30 5662 N 535.072 -1.5615 -0.213296 0
M  V30 5663 C 536.297 -1.83986 -0.957282 0
M  V30 5664 C 536.722 -0.641526 -1.76822 0
M  V30 5665 O 536.08 0.409722 -1.7661 0
M  V30 5666 C 536.128 -3.09889 -1.84393 0
M  V30 5667 O 535.232 -2.89163 -2.94038 0
M  V30 5668 H 534.573 -0.606357 -0.270605 0
M  V30 5669 H 537.103 -2.03369 -0.224111 0
M  V30 5670 H 537.113 -3.40209 -2.25215 0
M  V30 5671 H 535.788 -3.96735 -1.24795 0
M  V30 5672 H 534.365 -2.70097 -2.57103 0
M  V30 5673 N 536.55 0.480323 -1.50102 0
M  V30 5674 C 537.961 1.06142 -1.53593 0
M  V30 5675 C 538.312 1.93335 -0.334055 0
M  V30 5676 O 537.437 2.09188 0.55403 0
M  V30 5677 C 538.032 1.9317 -2.78336 0
M  V30 5678 C 536.591 2.46405 -2.84538 0
M  V30 5679 C 535.738 1.24521 -2.4777 0
M  V30 5680 H 538.689 0.26333 -1.565 0
M  V30 5681 H 538.71 2.78123 -2.59669 0
M  V30 5682 H 538.222 1.29683 -3.65792 0
M  V30 5683 H 536.323 3.13472 -2.01411 0
M  V30 5684 H 536.436 2.82143 -3.87211 0
M  V30 5685 H 534.8 1.57706 -2.00003 0
M  V30 5686 H 535.583 0.627102 -3.37524 0
M  V30 5687 N 538.028 1.39524 0.732853 0
M  V30 5688 C 538.961 1.32806 1.85574 0
M  V30 5689 C 539.939 0.201354 1.61348 0
M  V30 5690 O 541.123 0.38216 1.84585 0
M  V30 5691 C 538.25 1.06271 3.21596 0
M  V30 5692 C 537.296 2.21161 3.64678 0
M  V30 5693 S 538.129 3.83454 3.73796 0
M  V30 5694 C 539.285 3.59149 5.12604 0
M  V30 5695 H 539.518 2.27838 1.9099 0
M  V30 5696 H 537.051 1.25605 0.897927 0
M  V30 5697 H 539.009 0.916461 4.00139 0
M  V30 5698 H 537.67 0.129223 3.13834 0
M  V30 5699 H 536.863 1.98193 4.63396 0
M  V30 5700 H 536.465 2.32 2.93346 0
M  V30 5701 H 538.757 3.16547 5.99003 0
M  V30 5702 H 539.7 4.57335 5.40602 0
M  V30 5703 H 540.108 2.93203 4.82382 0
M  V30 5704 N 539.506 -0.963266 1.24736 0
M  V30 5705 C 540.454 -2.07985 1.04139 0
M  V30 5706 C 541.448 -1.69381 -0.0250556 0
M  V30 5707 O 542.654 -1.79531 0.129863 0
M  V30 5708 H 539.029 -0.680627 0.319768 0
M  V30 5709 H 541 -2.22517 1.98818 0
M  V30 5710 C 539.749 -3.4123 0.667615 0
M  V30 5711 H 539.072 -3.71397 1.48 0
M  V30 5712 H 540.512 -4.20244 0.563136 0
M  V30 5713 C 538.971 -3.3104 -0.625647 0
M  V30 5714 O 539.501 -3.65334 -1.67016 0
M  V30 5715 N 537.707 -2.84168 -0.608033 0
M  V30 5716 H 537.254 -2.56458 0.242323 0
M  V30 5717 H 537.212 -2.77732 -1.47352 0
M  V30 5718 N 540.985 -1.06182 -1.16461 0
M  V30 5719 C 542.401 -0.785065 -1.38956 0
M  V30 5720 C 542.601 0.616103 -1.9185 0
M  V30 5721 O 541.657 1.37686 -2.11657 0
M  V30 5722 C 542.97 -1.84902 -2.37132 0
M  V30 5723 C 544.518 -1.8724 -2.50819 0
M  V30 5724 C 544.993 -2.92686 -3.52277 0
M  V30 5725 N 546.484 -2.91712 -3.59803 0
M  V30 5726 C 547.219 -3.69949 -4.38093 0
M  V30 5727 N 546.715 -4.58 -5.19815 0
M  V30 5728 N 548.508 -3.58346 -4.33064 0
M  V30 5729 H 540.659 -1.96569 -0.804634 0
M  V30 5730 H 542.922 -0.851747 -0.416211 0
M  V30 5731 H 542.628 -2.85518 -2.0536 0
M  V30 5732 H 542.502 -1.69908 -3.36766 0
M  V30 5733 H 544.889 -0.872827 -2.81897 0
M  V30 5734 H 544.97 -2.06311 -1.51226 0
M  V30 5735 H 544.614 -3.92835 -3.21937 0
M  V30 5736 H 544.544 -2.70864 -4.51598 0
M  V30 5737 H 547.035 -2.27876 -3.01464 0
M  V30 5738 H 547.348 -5.14357 -5.76764 0
M  V30 5739 H 545.693 -4.62056 -5.19162 0
M  V30 5740 H 548.884 -2.88943 -3.68279 0
M  V30 5741 H 549.057 -4.19563 -4.93833 0
M  V30 5742 N 542.463 1.3308 -0.844243 0
M  V30 5743 C 543.691 2.01808 -0.456203 0
M  V30 5744 C 544.106 1.63498 0.944131 0
M  V30 5745 O 543.463 0.85102 1.61443 0
M  V30 5746 C 543.514 3.56922 -0.573513 0
M  V30 5747 O 543.235 3.93851 -1.91868 0
M  V30 5748 C 544.736 4.42922 -0.183125 0
M  V30 5749 H 541.956 0.646273 -0.180477 0
M  V30 5750 H 544.5 1.69891 -1.1383 0
M  V30 5751 H 542.655 3.87352 0.0607367 0
M  V30 5752 H 543.069 4.88564 -1.90802 0
M  V30 5753 H 544.543 5.51093 -0.316241 0
M  V30 5754 H 545.02 4.30386 0.875477 0
M  V30 5755 H 545.626 4.1786 -0.792027 0
M  V30 5756 N 543.941 0.601185 1.45683 0
M  V30 5757 C 545.352 0.179659 1.85834 0
M  V30 5758 C 545.703 -1.26189 1.50236 0
M  V30 5759 O 544.828 -1.95587 0.925987 0
M  V30 5760 C 545.423 0.319277 3.37292 0
M  V30 5761 C 543.982 -0.0475092 3.7637 0
M  V30 5762 C 543.129 0.646692 2.69654 0
M  V30 5763 H 546.08 0.808268 1.36575 0
M  V30 5764 H 546.101 -0.4503 3.77826 0
M  V30 5765 H 545.613 1.36855 3.6317 0
M  V30 5766 H 543.714 -1.0962 3.5611 0
M  V30 5767 H 543.827 0.34168 4.7788 0
M  V30 5768 H 542.191 0.0849971 2.54558 0
M  V30 5769 H 542.974 1.69797 2.98369 0
M  V30 5770 N 545.419 -1.53889 0.339982 0
M  V30 5771 C 546.665 -2.01152 -0.258003 0
M  V30 5772 C 546.998 -1.22749 -1.50487 0
M  V30 5773 O 546.273 -0.314156 -1.91946 0
M  V30 5774 C 546.556 -3.55468 -0.575717 0
M  V30 5775 C 546.409 -4.44584 0.682996 0
M  V30 5776 C 547.728 -4.1768 -1.38677 0
M  V30 5777 H 544.847 -0.731198 -0.0922992 0
M  V30 5778 H 547.489 -1.84352 0.459814 0
M  V30 5779 H 545.639 -3.69914 -1.18725 0
M  V30 5780 H 547.311 -4.41981 1.32102 0
M  V30 5781 H 545.554 -4.13592 1.3086 0
M  V30 5782 H 546.225 -5.5043 0.416001 0
M  V30 5783 H 548.701 -4.0691 -0.869705 0
M  V30 5784 H 547.577 -5.25734 -1.57783 0
M  V30 5785 H 547.838 -3.72069 -2.38782 0
M  V30 5786 N 546.897 -0.0685191 -1.57451 0
M  V30 5787 C 547.827 0.89747 -2.15564 0
M  V30 5788 C 548.808 1.31266 -1.08181 0
M  V30 5789 O 549.993 1.38429 -1.36202 0
M  V30 5790 C 547.123 2.16623 -2.71463 0
M  V30 5791 C 546.077 1.89054 -3.83982 0
M  V30 5792 C 545.403 3.22532 -4.26471 0
M  V30 5793 C 546.703 1.1984 -5.08366 0
M  V30 5794 H 548.397 0.413373 -2.96533 0
M  V30 5795 H 545.943 0.197391 -1.42641 0
M  V30 5796 H 547.896 2.84614 -3.10761 0
M  V30 5797 H 546.62 2.67269 -1.8771 0
M  V30 5798 H 545.279 1.23469 -3.45183 0
M  V30 5799 H 544.927 3.71013 -3.39644 0
M  V30 5800 H 544.627 3.04879 -5.02317 0
M  V30 5801 H 546.151 3.91727 -4.68383 0
M  V30 5802 H 547.565 1.77896 -5.45001 0
M  V30 5803 H 545.962 1.12456 -5.89469 0
M  V30 5804 H 547.032 0.176996 -4.84577 0
M  V30 5805 N 548.375 1.56261 0.205012 0
M  V30 5806 C 549.305 1.96779 1.257 0
M  V30 5807 C 550.286 0.838309 1.48008 0
M  V30 5808 O 551.471 1.10189 1.59913 0
M  V30 5809 C 548.601 2.29876 2.60335 0
M  V30 5810 C 547.555 3.45469 2.52656 0
M  V30 5811 C 546.881 3.64215 3.91473 0
M  V30 5812 C 548.181 4.79954 2.06014 0
M  V30 5813 H 549.875 2.84904 0.920338 0
M  V30 5814 H 547.421 1.37072 0.441277 0
M  V30 5815 H 549.374 2.56814 3.34102 0
M  V30 5816 H 548.098 1.38622 2.95722 0
M  V30 5817 H 546.757 3.18605 1.81345 0
M  V30 5818 H 546.405 2.70309 4.24196 0
M  V30 5819 H 546.105 4.41973 3.87213 0
M  V30 5820 H 547.629 3.93519 4.66878 0
M  V30 5821 H 549.043 5.05989 2.69533 0
M  V30 5822 H 547.44 5.61111 2.12777 0
M  V30 5823 H 548.51 4.74201 1.01297 0
M  V30 5824 N 549.853 -0.472356 1.50355 0
M  V30 5825 C 550.803 -1.56809 1.65514 0
M  V30 5826 C 551.787 -1.5261 0.509801 0
M  V30 5827 O 552.979 -1.59655 0.764145 0
M  V30 5828 C 550.108 -2.9526 1.75146 0
M  V30 5829 C 549.194 -3.04348 2.95353 0
M  V30 5830 N 549.585 -2.83253 4.19048 0
M  V30 5831 C 547.883 -3.35482 2.93884 0
M  V30 5832 C 548.584 -2.97273 5.00003 0
M  V30 5833 N 547.56 -3.27418 4.33934 0
M  V30 5834 H 551.362 -1.39197 2.58846 0
M  V30 5835 H 548.876 -0.67906 1.47521 0
M  V30 5836 H 550.873 -3.74044 1.8411 0
M  V30 5837 H 549.533 -3.1392 0.829717 0
M  V30 5838 H 550.544 -2.5886 4.48567 0
M  V30 5839 H 547.221 -3.60138 2.11204 0
M  V30 5840 H 548.611 -2.85214 6.08361 0
M  V30 5841 N 551.331 -1.39911 -0.725443 0
M  V30 5842 C 552.608 -1.28158 -1.47766 0
M  V30 5843 C 552.988 0.104545 -2.10841 0
M  V30 5844 O 552.336 1.11657 -1.99361 0
M  V30 5845 C 552.546 -2.41306 -2.52135 0
M  V30 5846 C 553.894 -2.81076 -3.18247 0
M  V30 5847 O 554.918 -2.40827 -2.62452 0
M  V30 5848 O 553.777 -3.50581 -4.19231 0
M  V30 5849 H 550.871 -0.502761 -0.656628 0
M  V30 5850 H 553.417 -1.51808 -0.758456 0
M  V30 5851 H 552.189 -3.33932 -2.03974 0
M  V30 5852 H 551.812 -2.19374 -3.31603 0
M  V30 5853 N 552.809 0.956637 -1.25245 0
M  V30 5854 C 553.759 2.03841 -1.02141 0
M  V30 5855 C 554.743 1.60848 0.0410058 0
M  V30 5856 O 555.935 1.76142 -0.174084 0
M  V30 5857 C 553.064 3.37282 -0.639963 0
M  V30 5858 C 552.15 3.86805 -1.73903 0
M  V30 5859 N 552.541 4.09143 -2.97381 0
M  V30 5860 C 550.839 4.15574 -1.61909 0
M  V30 5861 C 551.54 4.49923 -3.68707 0
M  V30 5862 N 550.516 4.55737 -2.96318 0
M  V30 5863 H 554.318 2.19102 -1.95886 0
M  V30 5864 H 551.832 1.1413 -1.15534 0
M  V30 5865 H 553.829 4.14403 -0.455643 0
M  V30 5866 H 552.489 3.23401 0.29018 0
M  V30 5867 H 553.5 3.96275 -3.33447 0
M  V30 5868 H 550.177 4.10566 -0.757764 0
M  V30 5869 H 551.567 4.75526 -4.74684 0
M  V30 5870 N 554.287 1.06798 1.15896 0
M  V30 5871 C 555.564 0.701057 1.82605 0
M  V30 5872 C 555.944 -0.817066 1.94646 0
M  V30 5873 O 555.292 -1.72933 1.49353 0
M  V30 5874 C 555.502 1.40895 3.19296 0
M  V30 5875 C 556.85 1.55744 3.95005 0
M  V30 5876 O 557.874 1.36927 3.28831 0
M  V30 5877 O 556.733 1.86658 5.13635 0
M  V30 5878 H 553.827 0.248791 0.78869 0
M  V30 5879 H 556.373 1.16857 1.23055 0
M  V30 5880 H 555.145 2.4439 3.05596 0
M  V30 5881 H 554.768 0.931847 3.86526 0
M  V30 5882 N 555.766 -1.3263 0.851289 0
M  V30 5883 C 556.676 -2.32722 0.296268 0
M  V30 5884 C 557.692 -1.63901 -0.584162 0
M  V30 5885 O 558.868 -1.95465 -0.485334 0
M  V30 5886 C 555.933 -3.42942 -0.509103 0
M  V30 5887 C 554.994 -4.2746 0.397069 0
M  V30 5888 C 554.227 -5.32416 -0.36996 0
M  V30 5889 O 554.45 -5.47491 -1.6003 0
M  V30 5890 O 553.384 -6.01327 0.262493 0
M  V30 5891 H 557.21 -2.82078 1.12543 0
M  V30 5892 H 554.795 -1.36194 0.614135 0
M  V30 5893 H 556.677 -4.1017 -0.96634 0
M  V30 5894 H 555.352 -2.95781 -1.31512 0
M  V30 5895 H 554.259 -3.63053 0.902411 0
M  V30 5896 H 555.592 -4.78136 1.16818 0
M  V30 5897 N 557.244 -0.608902 -1.45362 0
M  V30 5898 C 558.66 -0.272659 -1.57254 0
M  V30 5899 C 558.86 1.22477 -1.60005 0
M  V30 5900 O 557.916 2.00785 -1.53106 0
M  V30 5901 C 559.229 -0.944991 -2.85465 0
M  V30 5902 C 560.777 -0.921033 -2.99142 0
M  V30 5903 C 561.252 -1.5734 -4.30126 0
M  V30 5904 N 562.743 -1.53895 -4.36887 0
M  V30 5905 C 563.478 -2.01286 -5.36909 0
M  V30 5906 N 562.974 -2.56768 -6.43461 0
M  V30 5907 N 564.767 -1.92046 -5.28275 0
M  V30 5908 H 556.918 -1.58117 -1.4182 0
M  V30 5909 H 559.181 -0.662437 -0.678146 0
M  V30 5910 H 558.887 -1.99941 -2.89338 0
M  V30 5911 H 558.761 -0.469079 -3.74272 0
M  V30 5912 H 561.148 0.124846 -2.94836 0
M  V30 5913 H 561.229 -1.43522 -2.11743 0
M  V30 5914 H 560.873 -2.61862 -4.35191 0
M  V30 5915 H 560.803 -1.03422 -5.16344 0
M  V30 5916 H 563.294 -1.13366 -3.60495 0
M  V30 5917 H 563.607 -2.9072 -7.16032 0
M  V30 5918 H 561.952 -2.60808 -6.44208 0
M  V30 5919 H 565.143 -1.48439 -4.43941 0
M  V30 5920 H 565.316 -2.29293 -6.06077 0
M  V30 5921 N 558.722 1.53707 -0.348139 0
M  V30 5922 C 559.652 2.28111 0.498766 0
M  V30 5923 C 560.633 1.29851 1.09876 0
M  V30 5924 O 561.818 1.587 1.11928 0
M  V30 5925 C 558.948 3.05735 1.64753 0
M  V30 5926 C 557.902 4.11537 1.17565 0
M  V30 5927 C 557.228 4.77142 2.4133 0
M  V30 5928 C 558.528 5.21587 0.272844 0
M  V30 5929 H 560.222 2.99152 -0.121934 0
M  V30 5930 H 557.768 1.43875 -0.0600842 0
M  V30 5931 H 559.721 3.56526 2.24649 0
M  V30 5932 H 558.445 2.32354 2.2952 0
M  V30 5933 H 557.104 3.61665 0.599483 0
M  V30 5934 H 556.752 4.0035 3.04514 0
M  V30 5935 H 556.452 5.48626 2.10436 0
M  V30 5936 H 557.976 5.30719 3.01943 0
M  V30 5937 H 559.39 5.67986 0.778779 0
M  V30 5938 H 557.787 6.00074 0.0555849 0
M  V30 5939 H 558.857 4.79969 -0.689785 0
M  V30 5940 N 560.2 0.0768682 1.57412 0
M  V30 5941 C 561.15 -0.898795 2.09537 0
M  V30 5942 C 562.134 -1.25556 1.0062 0
M  V30 5943 O 563.326 -1.23369 1.26921 0
M  V30 5944 C 560.455 -2.16453 2.66464 0
M  V30 5945 C 559.541 -1.83401 3.82393 0
M  V30 5946 N 559.932 -1.20823 4.91157 0
M  V30 5947 C 558.23 -2.13121 3.91785 0
M  V30 5948 C 558.931 -1.05976 5.71965 0
M  V30 5949 N 557.907 -1.57113 5.204 0
M  V30 5950 H 561.709 -0.410718 2.91016 0
M  V30 5951 H 559.223 -0.126878 1.61904 0
M  V30 5952 H 561.22 -2.87274 3.02125 0
M  V30 5953 H 559.88 -2.65844 1.86433 0
M  V30 5954 H 560.891 -0.877249 5.10416 0
M  V30 5955 H 557.568 -2.64854 3.22736 0
M  V30 5956 H 558.958 -0.571809 6.69462 0
M  V30 5957 N 561.678 -1.56367 -0.196722 0
M  V30 5958 C 562.588 -1.97617 -1.2643 0
M  V30 5959 C 563.604 -0.883598 -1.49895 0
M  V30 5960 O 564.78 -1.18921 -1.62541 0
M  V30 5961 C 561.845 -2.30595 -2.58895 0
M  V30 5962 C 560.906 -3.53551 -2.43516 0
M  V30 5963 C 560.139 -3.84946 -3.69665 0
M  V30 5964 O 560.362 -3.17655 -4.73763 0
M  V30 5965 O 559.296 -4.78379 -3.65291 0
M  V30 5966 H 563.122 -2.88648 -0.944233 0
M  V30 5967 H 560.707 -1.43901 -0.401592 0
M  V30 5968 H 562.589 -2.52889 -3.37083 0
M  V30 5969 H 561.264 -1.42732 -2.90533 0
M  V30 5970 H 560.171 -3.36507 -1.63445 0
M  V30 5971 H 561.504 -4.41875 -2.16812 0
M  V30 5972 N 563.156 0.464375 -1.50603 0
M  V30 5973 C 564.119 1.54393 -1.69397 0
M  V30 5974 C 565.119 1.50566 -0.564504 0
M  V30 5975 O 566.309 1.53066 -0.831645 0
M  V30 5976 C 563.441 2.9401 -1.72543 0
M  V30 5977 H 564.634 1.39044 -2.65719 0
M  V30 5978 H 562.187 0.69122 -1.40185 0
M  V30 5979 H 562.922 3.14795 -0.77938 0
M  V30 5980 H 562.707 2.98195 -2.54602 0
M  V30 5981 H 564.197 3.72375 -1.89015 0
M  V30 5982 N 564.634 1.40294 0.718013 0
M  V30 5983 C 565.88 1.38645 1.48005 0
M  V30 5984 C 566.213 -0.0121202 1.94196 0
M  V30 5985 O 565.488 -0.980309 1.67989 0
M  V30 5986 C 565.771 2.37379 2.70782 0
M  V30 5987 C 565.624 3.8625 2.30501 0
M  V30 5988 C 566.943 2.33685 3.72933 0
M  V30 5989 H 564.062 0.504928 0.536858 0
M  V30 5990 H 566.704 1.71411 0.819649 0
M  V30 5991 H 564.854 2.09568 3.27129 0
M  V30 5992 H 566.526 4.24879 1.79655 0
M  V30 5993 H 564.769 4.02202 1.6253 0
M  V30 5994 H 565.44 4.50847 3.18498 0
M  V30 5995 H 567.916 2.58314 3.2621 0
M  V30 5996 H 566.792 3.0482 4.56482 0
M  V30 5997 H 567.053 1.34765 4.21059 0
M  V30 5998 N 566.112 -0.949982 1.2575 0
M  V30 5999 C 567.359 -1.69515 1.10774 0
M  V30 6000 C 567.687 -1.91316 -0.350479 0
M  V30 6001 O 566.942 -1.48515 -1.27443 0
M  V30 6002 C 567.241 -3.08039 1.81237 0
M  V30 6003 C 566.907 -3.06023 3.31151 0
M  V30 6004 C 565.569 -3.0518 3.72047 0
M  V30 6005 C 567.921 -2.98998 4.26907 0
M  V30 6006 C 565.249 -2.95067 5.07102 0
M  V30 6007 C 567.601 -2.90426 5.61992 0
M  V30 6008 C 566.265 -2.87922 6.0221 0
M  V30 6009 H 565.535 -0.6203 0.405351 0
M  V30 6010 H 568.182 -1.10953 1.56082 0
M  V30 6011 H 566.487 -3.70172 1.28373 0
M  V30 6012 H 568.184 -3.64526 1.67098 0
M  V30 6013 H 564.774 -3.07453 2.98614 0
M  V30 6014 H 568.958 -2.98764 3.963 0
M  V30 6015 H 564.214 -2.915 5.37436 0
M  V30 6016 H 568.388 -2.83952 6.35881 0
M  V30 6017 H 566.015 -2.79841 7.06819 0
M  V30 6018 N 567.59 -1.07411 -1.15328 0
M  V30 6019 C 568.52 -0.716472 -2.22236 0
M  V30 6020 C 569.501 0.296373 -1.67498 0
M  V30 6021 O 570.686 0.168989 -1.93463 0
M  V30 6022 C 567.816 -0.114142 -3.47112 0
M  V30 6023 C 566.77 -1.05421 -4.14814 0
M  V30 6024 C 566.096 -0.314604 -5.33774 0
M  V30 6025 C 567.396 -2.38808 -4.64508 0
M  V30 6026 H 569.09 -1.61029 -2.52408 0
M  V30 6027 H 566.636 -0.775702 -1.21321 0
M  V30 6028 H 568.589 0.148001 -4.2114 0
M  V30 6029 H 567.313 0.814755 -3.16274 0
M  V30 6030 H 565.972 -1.30128 -3.42728 0
M  V30 6031 H 565.62 0.617772 -4.99192 0
M  V30 6032 H 565.32 -0.941209 -5.80013 0
M  V30 6033 H 566.844 -0.0602747 -6.1057 0
M  V30 6034 H 568.258 -2.18424 -5.3006 0
M  V30 6035 H 566.655 -2.97069 -5.21412 0
M  V30 6036 H 567.725 -3.01067 -3.80114 0
M  V30 6037 N 569.068 1.32177 -0.85831 0
M  V30 6038 C 570.484 1.49873 -0.548656 0
M  V30 6039 C 570.684 1.79278 0.919874 0
M  V30 6040 O 569.74 1.86451 1.70271 0
M  V30 6041 C 571.053 2.64043 -1.4388 0
M  V30 6042 C 572.601 2.77928 -1.43961 0
M  V30 6043 C 573.076 3.95182 -2.31506 0
M  V30 6044 N 574.567 4.0245 -2.29321 0
M  V30 6045 C 575.302 4.9242 -2.93786 0
M  V30 6046 N 574.798 5.87373 -3.67376 0
M  V30 6047 N 576.591 4.85572 -2.83155 0
M  V30 6048 H 568.742 1.11357 -1.80868 0
M  V30 6049 H 571.005 0.549175 -0.772729 0
M  V30 6050 H 570.711 2.49055 -2.48324 0
M  V30 6051 H 570.585 3.59912 -1.12885 0
M  V30 6052 H 572.972 2.92338 -0.402813 0
M  V30 6053 H 573.053 1.82762 -1.78974 0
M  V30 6054 H 572.697 3.81531 -3.35256 0
M  V30 6055 H 572.627 4.89633 -1.93823 0
M  V30 6056 H 575.118 3.34507 -1.75822 0
M  V30 6057 H 575.431 6.52728 -4.13722 0
M  V30 6058 H 573.776 5.87388 -3.71484 0
M  V30 6059 H 576.967 4.10363 -2.25211 0
M  V30 6060 H 577.14 5.55486 -3.33676 0
M  V30 6061 N 570.547 0.616602 1.45037 0
M  V30 6062 C 571.795 0.115103 2.01772 0
M  V30 6063 C 572.116 -1.2622 1.48639 0
M  V30 6064 O 571.386 -1.83563 0.684199 0
M  V30 6065 H 569.966 0.0395607 0.745952 0
M  V30 6066 H 572.628 0.800032 1.77723 0
M  V30 6067 H 571.724 0.0717274 3.12018 0
M  V30 6068 N 572.025 -1.5352 0.356285 0
M  V30 6069 C 573.271 -2.01414 -0.236653 0
M  V30 6070 C 573.604 -1.24339 -1.49176 0
M  V30 6071 O 572.879 -0.334496 -1.91602 0
M  V30 6072 C 573.162 -3.56059 -0.537982 0
M  V30 6073 C 573.015 -4.43835 0.730112 0
M  V30 6074 C 574.334 -4.19127 -1.34239 0
M  V30 6075 H 571.453 -0.732135 -0.0845386 0
M  V30 6076 H 574.095 -1.83854 0.479341 0
M  V30 6077 H 572.245 -3.71153 -1.14795 0
M  V30 6078 H 573.917 -4.40555 1.36782 0
M  V30 6079 H 572.16 -4.1218 1.3524 0
M  V30 6080 H 572.831 -5.49958 0.474358 0
M  V30 6081 H 575.307 -4.07809 -0.826498 0
M  V30 6082 H 574.183 -5.27378 -1.52198 0
M  V30 6083 H 574.444 -3.74581 -2.34822 0
M  V30 6084 N 573.503 -0.0852151 -1.57369 0
M  V30 6085 C 574.78 0.622534 -1.85429 0
M  V30 6086 C 575.16 1.86962 -0.980229 0
M  V30 6087 O 574.508 2.28445 -0.0500219 0
M  V30 6088 C 574.718 0.947374 -3.35896 0
M  V30 6089 C 576.066 1.31509 -4.03721 0
M  V30 6090 O 577.09 1.03869 -3.40719 0
M  V30 6091 O 575.949 1.83231 -5.14868 0
M  V30 6092 H 573.043 0.310513 -0.766492 0
M  V30 6093 H 575.589 -0.117164 -1.69295 0
M  V30 6094 H 574.361 0.0622264 -3.91251 0
M  V30 6095 H 573.984 1.74338 -3.5734 0
M  V30 6096 N 574.981 1.5647 0.188427 0
M  V30 6097 C 576.23 1.80207 0.905995 0
M  V30 6098 C 576.543 0.659579 1.84144 0
M  V30 6099 O 577.749 0.781431 2.60011 0
M  V30 6100 C 576.205 3.19255 1.66145 0
M  V30 6101 C 575.813 4.41324 0.770504 0
M  V30 6102 C 577.557 3.52298 2.36826 0
M  V30 6103 C 575.464 5.71394 1.52521 0
M  V30 6104 H 574.394 0.671953 0.342045 0
M  V30 6105 H 577.045 1.82808 0.159164 0
M  V30 6106 H 575.427 3.10922 2.45242 0
M  V30 6107 H 576.601 4.60797 0.0177261 0
M  V30 6108 H 574.916 4.16035 0.174199 0
M  V30 6109 H 577.513 4.46715 2.93854 0
M  V30 6110 H 577.856 2.76359 3.11338 0
M  V30 6111 H 578.389 3.62108 1.6469 0
M  V30 6112 H 575.128 6.50316 0.82275 0
M  V30 6113 H 574.648 5.55928 2.25175 0
M  V30 6114 H 576.327 6.12747 2.07725 0
M  V30 6115 N 576.459 -0.456382 1.50847 0
M  V30 6116 C 577.689 -1.22848 1.66108 0
M  V30 6117 C 578.097 -1.85936 0.349897 0
M  V30 6118 O 577.44 -1.70664 -0.679665 0
M  V30 6119 C 577.502 -2.36722 2.70561 0
M  V30 6120 C 577.166 -1.94154 4.13707 0
M  V30 6121 C 578.163 -1.4557 4.99105 0
M  V30 6122 C 575.848 -2.02426 4.59705 0
M  V30 6123 C 577.842 -1.0582 6.28555 0
M  V30 6124 C 575.529 -1.62287 5.89157 0
M  V30 6125 C 576.527 -1.14064 6.73408 0
M  V30 6126 O 576.215 -0.744873 8.00442 0
M  V30 6127 H 575.947 -0.377105 0.561042 0
M  V30 6128 H 578.501 -0.549431 1.97915 0
M  V30 6129 H 576.731 -3.07844 2.34027 0
M  V30 6130 H 578.42 -2.98646 2.74892 0
M  V30 6131 H 579.186 -1.38589 4.64777 0
M  V30 6132 H 575.065 -2.38908 3.94264 0
M  V30 6133 H 578.609 -0.6811 6.94267 0
M  V30 6134 H 574.506 -1.68932 6.23003 0
M  V30 6135 H 575.274 -0.87242 8.13837 0
M  V30 6136 N 577.937 -1.40673 -0.710563 0
M  V30 6137 C 579.165 -1.42547 -1.4996 0
M  V30 6138 C 579.58 -0.0265485 -1.88781 0
M  V30 6139 O 578.937 0.950694 -1.55782 0
M  V30 6140 C 578.988 -2.32071 -2.77173 0
M  V30 6141 O 578.709 -3.66518 -2.39992 0
M  V30 6142 C 580.21 -2.42591 -3.71032 0
M  V30 6143 H 577.43 -0.486025 -0.462623 0
M  V30 6144 H 579.974 -1.84783 -0.876102 0
M  V30 6145 H 578.129 -1.93184 -3.35795 0
M  V30 6146 H 578.543 -4.14115 -3.21884 0
M  V30 6147 H 580.017 -3.09429 -4.57119 0
M  V30 6148 H 580.494 -1.4525 -4.14486 0
M  V30 6149 H 581.1 -2.82051 -3.18319 0
M  V30 6150 N 579.415 0.9433 -1.26252 0
M  V30 6151 C 580.831 1.21644 -1.03319 0
M  V30 6152 C 581.031 2.0003 0.242983 0
M  V30 6153 O 580.087 2.33838 0.952688 0
M  V30 6154 C 581.4 1.97978 -2.2633 0
M  V30 6155 C 582.948 2.10978 -2.31209 0
M  V30 6156 C 583.423 2.90713 -3.53907 0
M  V30 6157 N 584.914 2.98287 -3.54371 0
M  V30 6158 C 585.649 3.60406 -4.45976 0
M  V30 6159 N 585.145 4.24043 -5.47868 0
M  V30 6160 N 586.938 3.57658 -4.33633 0
M  V30 6161 H 579.089 0.419221 -2.08222 0
M  V30 6162 H 581.352 0.247995 -0.914988 0
M  V30 6163 H 581.058 1.47788 -3.19142 0
M  V30 6164 H 580.932 2.9865 -2.30408 0
M  V30 6165 H 583.319 2.6036 -1.38913 0
M  V30 6166 H 583.4 1.09575 -2.31143 0
M  V30 6167 H 583.044 2.42018 -4.46531 0
M  V30 6168 H 582.974 3.92367 -3.5122 0
M  V30 6169 H 585.465 2.53044 -2.80673 0
M  V30 6170 H 585.778 4.69334 -6.13959 0
M  V30 6171 H 584.123 4.22637 -5.51728 0
M  V30 6172 H 587.314 3.07134 -3.53251 0
M  V30 6173 H 587.487 4.05782 -5.05218 0
M  V30 6174 N 580.893 1.08022 1.14757 0
M  V30 6175 C 581.823 0.728248 2.21853 0
M  V30 6176 C 582.804 -0.287486 1.67653 0
M  V30 6177 O 583.989 -0.158727 1.9355 0
M  V30 6178 C 581.119 0.132549 3.47047 0
M  V30 6179 C 580.073 1.07619 4.14249 0
M  V30 6180 C 579.399 0.342907 5.33599 0
M  V30 6181 C 580.699 2.41268 4.63235 0
M  V30 6182 H 582.393 1.62365 2.51551 0
M  V30 6183 H 579.939 0.782125 1.20908 0
M  V30 6184 H 581.892 -0.125665 4.21213 0
M  V30 6185 H 580.616 -0.797971 3.16702 0
M  V30 6186 H 579.275 1.31944 3.42033 0
M  V30 6187 H 578.923 -0.59129 4.99513 0
M  V30 6188 H 578.623 0.971955 5.79506 0
M  V30 6189 H 580.147 0.0926538 6.1053 0
M  V30 6190 H 581.561 2.21232 5.28894 0
M  V30 6191 H 579.958 2.9983 5.19829 0
M  V30 6192 H 581.028 3.03079 3.78512 0
M  V30 6193 N 582.371 -1.3172 0.865308 0
M  V30 6194 C 583.301 -2.31109 0.333302 0
M  V30 6195 C 584.282 -1.60148 -0.573301 0
M  V30 6196 O 585.467 -1.87882 -0.491305 0
M  V30 6197 C 582.597 -3.44104 -0.470078 0
M  V30 6198 C 581.551 -4.26623 0.343021 0
M  V30 6199 C 580.877 -5.31482 -0.585756 0
M  V30 6200 C 582.177 -4.98001 1.57456 0
M  V30 6201 H 583.871 -2.75855 1.1638 0
M  V30 6202 H 581.417 -1.3262 0.561069 0
M  V30 6203 H 583.37 -4.12682 -0.852752 0
M  V30 6204 H 582.094 -2.98112 -1.33404 0
M  V30 6205 H 580.753 -3.59707 0.707583 0
M  V30 6206 H 580.401 -4.81741 -1.44686 0
M  V30 6207 H 580.101 -5.87582 -0.0456494 0
M  V30 6208 H 581.625 -6.0292 -0.965375 0
M  V30 6209 H 583.039 -5.59201 1.26359 0
M  V30 6210 H 581.436 -5.63876 2.05339 0
M  V30 6211 H 582.506 -4.25253 2.32997 0
M  V30 6212 N 583.85 -0.624285 -1.44708 0
M  V30 6213 C 585.26 -0.2092 -1.85524 0
M  V30 6214 C 585.611 1.23783 -1.52225 0
M  V30 6215 O 584.736 1.94089 -0.956986 0
M  V30 6216 C 585.332 -0.372897 -3.36742 0
M  V30 6217 C 583.891 -0.012374 -3.76398 0
M  V30 6218 C 583.038 -0.68951 -2.68591 0
M  V30 6219 H 585.989 -0.829894 -1.35272 0
M  V30 6220 H 586.01 0.390134 -3.78495 0
M  V30 6221 H 585.522 -1.42615 -3.60947 0
M  V30 6222 H 583.623 1.03941 -3.57809 0
M  V30 6223 H 583.736 -0.417663 -4.77276 0
M  V30 6224 H 582.1 -0.125484 -2.54391 0
M  V30 6225 H 582.883 -1.74522 -2.9563 0
M  V30 6226 N 585.328 1.53329 -0.364422 0
M  V30 6227 C 586.291 2.24323 0.470292 0
M  V30 6228 C 587.291 1.25068 1.01067 0
M  V30 6229 O 588.481 1.49354 0.896605 0
M  V30 6230 C 585.613 2.97908 1.65722 0
M  V30 6231 H 586.806 2.9952 -0.150917 0
M  V30 6232 H 584.359 1.55868 -0.116092 0
M  V30 6233 H 585.094 2.2695 2.31655 0
M  V30 6234 H 584.879 3.70732 1.27671 0
M  V30 6235 H 586.369 3.5188 2.24878 0
M  V30 6236 N 586.806 0.0935595 1.57322 0
M  V30 6237 C 587.736 -0.863062 2.16964 0
M  V30 6238 C 588.717 -1.29528 1.10256 0
M  V30 6239 O 589.902 -1.36245 1.38387 0
M  V30 6240 C 587.032 -2.12276 2.74875 0
M  V30 6241 C 585.986 -1.82921 3.86942 0
M  V30 6242 C 585.312 -3.15707 4.31548 0
M  V30 6243 C 586.612 -1.11737 5.10208 0
M  V30 6244 H 588.306 -0.366145 2.97153 0
M  V30 6245 H 585.852 -0.174673 1.42937 0
M  V30 6246 H 587.805 -2.79634 3.1525 0
M  V30 6247 H 586.529 -2.64248 1.91938 0
M  V30 6248 H 585.188 -1.17961 3.47103 0
M  V30 6249 H 584.836 -3.65563 3.45504 0
M  V30 6250 H 584.536 -2.96849 5.07104 0
M  V30 6251 H 586.06 -3.84226 4.74555 0
M  V30 6252 H 587.474 -1.69203 5.47762 0
M  V30 6253 H 585.871 -1.03064 5.91183 0
M  V30 6254 H 586.941 -0.0998818 4.84797 0
M  V30 6255 N 588.284 -1.56567 -0.180126 0
M  V30 6256 C 589.247 -1.94852 -1.20686 0
M  V30 6257 C 590.247 -0.831212 -1.3765 0
M  V30 6258 O 591.437 -1.09841 -1.35206 0
M  V30 6259 C 588.569 -2.23565 -2.57355 0
M  V30 6260 H 589.762 -2.86722 -0.879225 0
M  V30 6261 H 587.315 -1.50489 -0.422237 0
M  V30 6262 H 588.05 -1.34381 -2.95148 0
M  V30 6263 H 587.835 -3.04999 -2.46411 0
M  V30 6264 H 589.325 -2.54137 -3.31367 0
M  V30 6265 N 589.762 0.448376 -1.51087 0
M  V30 6266 C 590.987 1.22605 -1.6728 0
M  V30 6267 C 591.412 1.84524 -0.365045 0
M  V30 6268 O 590.77 1.6832 0.673642 0
M  V30 6269 C 590.818 2.29393 -2.78229 0
M  V30 6270 O 589.922 3.34608 -2.41063 0
M  V30 6271 H 589.263 0.359705 -0.558129 0
M  V30 6272 H 591.793 0.530903 -1.97592 0
M  V30 6273 H 591.803 2.74352 -3.01986 0
M  V30 6274 H 590.478 1.83701 -3.73131 0
M  V30 6275 H 589.055 2.95202 -2.27838 0
M  V30 6276 N 591.24 1.41047 0.703093 0
M  V30 6277 C 592.486 1.40207 1.46526 0
M  V30 6278 C 592.819 0.00847763 1.94198 0
M  V30 6279 O 592.094 -0.962437 1.69019 0
M  V30 6280 C 592.377 2.40238 2.6825 0
M  V30 6281 C 592.23 3.88674 2.26391 0
M  V30 6282 C 593.549 2.37627 3.70434 0
M  V30 6283 H 590.668 0.510594 0.531472 0
M  V30 6284 H 593.31 1.72271 0.801422 0
M  V30 6285 H 591.46 2.13026 3.24888 0
M  V30 6286 H 593.132 4.2676 1.75138 0
M  V30 6287 H 591.375 4.03903 1.58255 0
M  V30 6288 H 592.046 4.542 3.13698 0
M  V30 6289 H 594.522 2.61759 3.23452 0
M  V30 6290 H 593.398 3.09645 4.53223 0
M  V30 6291 H 593.659 1.39223 4.19606 0
M  V30 6292 N 592.718 -0.936591 1.26751 0
M  V30 6293 C 594.129 -1.49816 1.1141 0
M  V30 6294 C 594.48 -1.9383 -0.304015 0
M  V30 6295 O 593.605 -1.80346 -1.196 0
M  V30 6296 C 594.2 -2.72271 2.01629 0
M  V30 6297 C 592.759 -3.2468 1.9042 0
M  V30 6298 C 591.906 -1.97444 1.94708 0
M  V30 6299 H 594.857 -0.751604 1.39773 0
M  V30 6300 H 594.878 -3.46741 1.56688 0
M  V30 6301 H 594.39 -2.40205 3.04833 0
M  V30 6302 H 592.491 -3.61525 0.901674 0
M  V30 6303 H 592.604 -3.91476 2.76195 0
M  V30 6304 H 590.968 -2.13545 1.38818 0
M  V30 6305 H 591.751 -1.67703 2.9955 0
M  V30 6306 N 594.196 -1.08629 -1.14182 0
M  V30 6307 C 595.159 -0.722027 -2.1753 0
M  V30 6308 C 596.159 0.244305 -1.58933 0
M  V30 6309 O 597.349 0.0235545 -1.74184 0
M  V30 6310 C 594.481 -0.0663966 -3.40835 0
M  V30 6311 H 595.674 -1.63719 -2.51269 0
M  V30 6312 H 593.227 -0.884442 -1.28869 0
M  V30 6313 H 593.962 0.860389 -3.12678 0
M  V30 6314 H 593.747 -0.761598 -3.84632 0
M  V30 6315 H 595.237 0.173346 -4.1724 0
M  V30 6316 N 595.674 1.31259 -0.872281 0
M  V30 6317 C 596.604 2.30929 -0.345554 0
M  V30 6318 C 597.585 1.60449 0.5648 0
M  V30 6319 O 598.77 1.8814 0.481335 0
M  V30 6320 C 595.9 3.44348 0.451823 0
M  V30 6321 C 594.854 4.26435 -0.365641 0
M  V30 6322 C 594.18 5.31785 0.557562 0
M  V30 6323 C 595.48 4.97159 -1.60095 0
M  V30 6324 H 597.174 2.75234 -1.17841 0
M  V30 6325 H 594.72 1.3232 -0.568094 0
M  V30 6326 H 596.673 4.13128 0.830854 0
M  V30 6327 H 595.397 2.98816 1.31821 0
M  V30 6328 H 594.056 3.59326 -0.726649 0
M  V30 6329 H 593.704 4.82502 1.4213 0
M  V30 6330 H 593.404 5.87598 0.0144878 0
M  V30 6331 H 594.928 6.03424 0.933387 0
M  V30 6332 H 596.342 5.58523 -1.29323 0
M  V30 6333 H 594.739 5.62779 -2.08327 0
M  V30 6334 H 595.809 4.24012 -2.35249 0
M  V30 6335 N 597.152 0.631951 1.44375 0
M  V30 6336 C 598.563 0.219036 1.85411 0
M  V30 6337 C 598.914 -1.22974 1.52879 0
M  V30 6338 O 598.039 -1.93579 0.967266 0
M  V30 6339 C 598.634 0.39075 3.36539 0
M  V30 6340 C 597.193 0.0323351 3.76386 0
M  V30 6341 C 596.34 0.703744 2.68221 0
M  V30 6342 H 599.291 0.837056 1.3483 0
M  V30 6343 H 599.312 -0.370056 3.78696 0
M  V30 6344 H 598.824 1.44527 3.60185 0
M  V30 6345 H 596.925 -1.02042 3.58355 0
M  V30 6346 H 597.038 0.442969 4.77048 0
M  V30 6347 H 595.402 0.138974 2.54321 0
M  V30 6348 H 596.185 1.76088 2.947 0
M  V30 6349 N 598.631 -1.53133 0.372548 0
M  V30 6350 C 599.856 -2.0625 -0.218098 0
M  V30 6351 C 600.281 -1.24375 -1.41111 0
M  V30 6352 O 599.639 -0.264554 -1.79359 0
M  V30 6353 C 599.687 -3.55858 -0.582876 0
M  V30 6354 O 598.791 -3.76667 -1.67917 0
M  V30 6355 H 598.132 -0.663317 -0.030104 0
M  V30 6356 H 600.662 -1.97477 0.535169 0
M  V30 6357 H 600.672 -3.99007 -0.851925 0
M  V30 6358 H 599.347 -4.14892 0.289428 0
M  V30 6359 H 597.924 -3.45413 -1.40513 0
M  V30 6360 N 600.109 -0.101901 -1.5727 0
M  V30 6361 C 601.386 0.602832 -1.86079 0
M  V30 6362 C 601.766 1.85912 -1 0
M  V30 6363 O 601.114 2.28379 -0.0742488 0
M  V30 6364 C 601.324 0.911694 -3.36881 0
M  V30 6365 C 602.672 1.2722 -4.05093 0
M  V30 6366 O 603.696 1.0025 -3.41802 0
M  V30 6367 O 602.555 1.7776 -5.16782 0
M  V30 6368 H 599.649 0.302366 -0.769743 0
M  V30 6369 H 602.195 -0.135113 -1.69161 0
M  V30 6370 H 600.967 0.0207256 -3.91295 0
M  V30 6371 H 600.59 1.70538 -3.59169 0
M  V30 6372 N 601.587 1.56661 0.17182 0
M  V30 6373 C 602.812 1.86459 0.908165 0
M  V30 6374 C 603.237 0.688181 1.75059 0
M  V30 6375 O 602.595 -0.362753 1.77634 0
M  V30 6376 C 602.643 3.14669 1.76112 0
M  V30 6377 O 601.747 2.96858 2.86268 0
M  V30 6378 H 601.088 0.613318 0.254434 0
M  V30 6379 H 603.618 2.03892 0.170113 0
M  V30 6380 H 603.628 3.46061 2.16115 0
M  V30 6381 H 602.303 3.99905 1.14233 0
M  V30 6382 H 600.88 2.76819 2.49852 0
M  V30 6383 O 603.104 -0.316804 1.58362 0
M  V30 6384 H 603.795 -0.964883 1.67957 0
M  V30 END ATOM
M  V30 BEGIN BOND
M  V30 END BOND
M  V30 END CTAB
M  END
$$$$
