drugbank_drug|DB05254 Fibrinolysin heavy chain
 OpenBabel12092119113D

  0  0  0     0  0            999 V3000
M  V30 BEGIN CTAB
M  V30 COUNTS 8531 8664 0 0 0
M  V30 BEGIN ATOM
M  V30 1 H -0.908 1.98254 -0.117106 0
M  V30 2 N 0 1.576 0 0
M  V30 3 C 1.277 1.81792 0.721886 0
M  V30 4 C 1.657 0.877704 1.91988 0
M  V30 5 O 1.005 -0.0735727 2.28382 0
M  V30 6 C 1.215 3.30282 1.12761 0
M  V30 7 C 2.563 3.9602 1.53146 0
M  V30 8 O 3.587 3.34605 1.2214 0
M  V30 9 O 2.446 5.04207 2.10802 0
M  V30 10 H -0.46 0.748582 0.351504 0
M  V30 11 H 2.086 1.69681 -0.025454 0
M  V30 12 H 0.858 3.90342 0.273686 0
M  V30 13 H 0.481 3.47391 1.93405 0
M  V30 14 N 1.4781 -0.272755 1.55222 0
M  V30 15 C 2.4081 -1.34136 1.91127 0
M  V30 16 C 3.3891 -1.51513 0.773168 0
M  V30 17 O 4.5741 -1.64552 1.03132 0
M  V30 18 C 1.7041 -2.70083 2.1834 0
M  V30 19 C 0.6581 -2.67437 3.34158 0
M  V30 20 C -0.0159 -4.06938 3.46851 0
M  V30 21 C 1.2841 -2.26686 4.70543 0
M  V30 22 H 2.9781 -1.04333 2.80633 0
M  V30 23 H 0.5241 -0.500454 1.35024 0
M  V30 24 H 2.4771 -3.44952 2.42046 0
M  V30 25 H 1.2011 -3.01469 1.25634 0
M  V30 26 H -0.1399 -1.95026 3.1042 0
M  V30 27 H -0.4919 -4.35547 2.51611 0
M  V30 28 H -0.7919 -4.06062 4.2472 0
M  V30 29 H 0.7321 -4.83545 3.72849 0
M  V30 30 H 2.1461 -2.91277 4.93792 0
M  V30 31 H 0.5431 -2.36971 5.5133 0
M  V30 32 H 1.6131 -1.21818 4.69349 0
M  V30 33 N 2.9562 -1.48159 -0.537278 0
M  V30 34 C 3.8862 -1.65029 -1.6519 0
M  V30 35 C 4.8672 -0.499281 -1.62607 0
M  V30 36 O 6.0522 -0.730972 -1.79918 0
M  V30 37 C 3.1822 -1.68303 -3.03795 0
M  V30 38 C 2.1362 -2.8283 -3.21234 0
M  V30 39 C 1.4622 -2.71189 -4.60826 0
M  V30 40 C 2.7622 -4.24211 -3.04701 0
M  V30 41 H 4.4562 -2.58341 -1.51328 0
M  V30 42 H 2.0022 -1.24325 -0.726585 0
M  V30 43 H 3.9552 -1.78693 -3.81637 0
M  V30 44 H 2.6792 -0.715635 -3.18663 0
M  V30 45 H 1.3382 -2.71983 -2.45807 0
M  V30 46 H 0.9862 -1.72435 -4.7252 0
M  V30 47 H 0.6862 -3.48035 -4.7344 0
M  V30 48 H 2.2102 -2.83537 -5.40777 0
M  V30 49 H 3.6242 -4.3593 -3.72341 0
M  V30 50 H 2.0212 -5.01998 -3.28813 0
M  V30 51 H 3.0912 -4.41184 -2.01209 0
M  V30 52 N 4.4343 0.785586 -1.36625 0
M  V30 53 C 5.7113 1.53198 -1.21613 0
M  V30 54 C 6.0913 2.10187 0.196113 0
M  V30 55 O 5.4393 1.94318 1.20219 0
M  V30 56 C 5.6493 2.62388 -2.30116 0
M  V30 57 C 6.9973 3.30167 -2.66974 0
M  V30 58 O 8.0213 2.72674 -2.29188 0
M  V30 59 O 6.8803 4.34077 -3.32023 0
M  V30 60 H 3.9743 0.677865 -0.473738 0
M  V30 61 H 6.5203 0.823739 -1.48367 0
M  V30 62 H 5.2923 2.18299 -3.24748 0
M  V30 63 H 4.9153 3.40827 -2.0475 0
M  V30 64 N 5.9124 1.20967 1.01018 0
M  V30 65 C 7.1894 0.93264 1.71934 0
M  V30 66 C 7.5694 -0.55692 2.03621 0
M  V30 67 O 6.9174 -1.52035 1.7058 0
M  V30 68 C 7.1274 1.81233 2.98254 0
M  V30 69 C 8.4754 2.05804 3.71389 0
M  V30 70 O 9.4994 1.78539 3.08225 0
M  V30 71 O 8.3584 2.51888 4.84989 0
M  V30 72 H 5.4524 0.349272 0.749625 0
M  V30 73 H 7.9984 1.31871 1.06808 0
M  V30 74 H 6.7704 2.82067 2.71208 0
M  V30 75 H 6.3934 1.42674 3.7112 0
M  V30 76 N 7.3905 -1.2043 1.01659 0
M  V30 77 C 8.6205 -1.93496 0.724081 0
M  V30 78 C 9.0285 -1.74998 -0.71918 0
M  V30 79 O 8.3715 -1.06118 -1.49949 0
M  V30 80 C 8.4335 -3.45886 0.97994 0
M  V30 81 C 8.0975 -3.88145 2.41232 0
M  V30 82 C 9.0945 -3.93907 3.39313 0
M  V30 83 C 6.7795 -4.20134 2.75305 0
M  V30 84 C 8.7735 -4.31069 4.6953 0
M  V30 85 C 6.4605 -4.56971 4.05735 0
M  V30 86 C 7.4585 -4.62411 5.02658 0
M  V30 87 O 7.1465 -4.98403 6.30754 0
M  V30 88 H 6.8785 -0.621824 0.265162 0
M  V30 89 H 9.4325 -1.53867 1.36066 0
M  V30 90 H 7.6625 -3.85639 0.286198 0
M  V30 91 H 9.3515 -4.0018 0.679021 0
M  V30 92 H 10.1175 -3.69357 3.14325 0
M  V30 93 H 5.9965 -4.1509 2.00551 0
M  V30 94 H 9.5405 -4.3523 5.45179 0
M  V30 95 H 5.4375 -4.80977 4.30502 0
M  V30 96 H 6.2055 -5.16395 6.35042 0
M  V30 97 N 8.8686 -0.792821 -1.36206 0
M  V30 98 C 10.1146 -0.36733 -1.99446 0
M  V30 99 C 10.4476 1.05917 -1.62774 0
M  V30 100 O 9.7226 1.7324 -0.88421 0
M  V30 101 C 10.0056 -0.535044 -3.56103 0
M  V30 102 C 9.8586 -2.00548 -4.02617 0
M  V30 103 C 11.1776 0.0478191 -4.40074 0
M  V30 104 H 8.2966 -0.134941 -0.724541 0
M  V30 105 H 10.9386 -0.999794 -1.61568 0
M  V30 106 H 9.0886 0.00336329 -3.885 0
M  V30 107 H 10.7606 -2.60521 -3.80692 0
M  V30 108 H 9.0036 -2.50686 -3.54032 0
M  V30 109 H 9.6746 -2.07377 -5.11565 0
M  V30 110 H 12.1506 -0.411822 -4.14057 0
M  V30 111 H 11.0266 -0.0995336 -5.4881 0
M  V30 112 H 11.2876 1.14025 -4.27142 0
M  V30 113 N 10.3467 1.47872 -0.545128 0
M  V30 114 C 11.2947 2.31533 0.222512 0
M  V30 115 C 12.2887 1.42177 0.920985 0
M  V30 116 O 13.4947 1.59005 0.843645 0
M  V30 117 H 9.8697 0.746519 0.0906278 0
M  V30 118 H 11.8407 2.94139 -0.50246 0
M  V30 119 C 10.5897 3.2457 1.24699 0
M  V30 120 H 9.9127 3.93283 0.718944 0
M  V30 121 H 11.3527 3.85963 1.75523 0
M  V30 122 C 9.8117 2.47237 2.28856 0
M  V30 123 O 10.3417 2.20808 3.35569 0
M  V30 124 N 8.5477 2.08461 2.02466 0
M  V30 125 H 8.0947 2.30155 1.157 0
M  V30 126 H 8.0527 1.57033 2.72375 0
M  V30 127 N 11.8248 0.280983 1.55075 0
M  V30 128 C 13.0528 -0.337293 2.04132 0
M  V30 129 C 13.4678 -1.4903 1.15912 0
M  V30 130 O 12.8248 -1.81606 0.180459 0
M  V30 131 C 12.8758 -0.812706 3.52246 0
M  V30 132 O 12.5968 0.294387 4.3711 0
M  V30 133 C 14.0978 -1.4982 4.17216 0
M  V30 134 H 11.3178 -0.0761638 0.666663 0
M  V30 135 H 13.8618 0.414787 2.00249 0
M  V30 136 H 12.0168 -1.51486 3.56554 0
M  V30 137 H 12.4308 -0.0721325 5.2445 0
M  V30 138 H 13.9048 -1.7822 5.22438 0
M  V30 139 H 14.3818 -2.43168 3.65741 0
M  V30 140 H 14.9878 -0.839742 4.16927 0
M  V30 141 N 13.3029 -1.57598 0.00835791 0
M  V30 142 C 14.2349 -2.05811 -1.00868 0
M  V30 143 C 15.2479 -0.977579 -1.30182 0
M  V30 144 O 16.4369 -1.25421 -1.27011 0
M  V30 145 C 13.5369 -2.45016 -2.34137 0
M  V30 146 C 12.7099 -3.75903 -2.23643 0
M  V30 147 C 11.7689 -4.01884 -3.3967 0
M  V30 148 O 10.7949 -4.72433 -3.17483 0
M  V30 149 N 11.9969 -3.50432 -4.62793 0
M  V30 150 H 14.7619 -2.93684 -0.597458 0
M  V30 151 H 12.3229 -1.60909 -0.178852 0
M  V30 152 H 14.3149 -2.59506 -3.10546 0
M  V30 153 H 12.8849 -1.62618 -2.66972 0
M  V30 154 H 12.1049 -3.7141 -1.32091 0
M  V30 155 H 13.3929 -4.61695 -2.13812 0
M  V30 156 H 12.7909 -2.93317 -4.83716 0
M  V30 157 H 11.3479 -3.70236 -5.3644 0
M  V30 158 N 14.781 0.264519 -1.55364 0
M  V30 159 C 16.029 0.993021 -1.76021 0
M  V30 160 C 16.35 1.86511 -0.569099 0
M  V30 161 O 15.62 1.91438 0.415735 0
M  V30 162 H 14.2 0.369639 -0.649135 0
M  V30 163 H 16.862 0.286707 -1.9278 0
M  V30 164 H 15.958 1.62502 -2.66457 0
M  V30 165 N 16.2591 1.48442 0.529413 0
M  V30 166 C 17.2221 1.62524 1.61612 0
M  V30 167 C 18.2221 0.498509 1.52877 0
M  V30 168 O 19.4121 0.76431 1.56537 0
M  V30 169 C 16.5441 1.59597 3.01233 0
M  V30 170 H 17.7371 2.59423 1.50465 0
M  V30 171 H 15.2901 1.37047 0.751514 0
M  V30 172 H 16.0251 0.641781 3.17886 0
M  V30 173 H 15.8101 2.41397 3.08982 0
M  V30 174 H 17.3001 1.72646 3.80241 0
M  V30 175 N 17.7372 -0.778329 1.37039 0
M  V30 176 C 18.9622 -1.57248 1.35233 0
M  V30 177 C 19.3872 -1.87999 -0.0615568 0
M  V30 178 O 18.7452 -1.48734 -1.03672 0
M  V30 179 C 18.7932 -2.86353 2.19167 0
M  V30 180 O 17.8972 -3.80442 1.59178 0
M  V30 181 H 17.2382 -0.476569 0.462362 0
M  V30 182 H 19.7682 -0.963853 1.80474 0
M  V30 183 H 19.7782 -3.35519 2.32145 0
M  V30 184 H 18.4532 -2.63299 3.21942 0
M  V30 185 H 17.0302 -3.39067 1.55203 0
M  V30 186 N 19.2153 -1.21501 -1.00376 0
M  V30 187 C 20.1453 -0.999478 -2.11028 0
M  V30 188 C 21.1263 0.0759671 -1.6993 0
M  V30 189 O 22.3113 -0.0841106 -1.94018 0
M  V30 190 C 19.4413 -0.564709 -3.42678 0
M  V30 191 C 18.3953 -1.58486 -3.97576 0
M  V30 192 C 17.7213 -1.00628 -5.25146 0
M  V30 193 C 19.0213 -2.97204 -4.29496 0
M  V30 194 H 20.7153 -1.92495 -2.29317 0
M  V30 195 H 18.2613 -0.92693 -1.102 0
M  V30 196 H 20.2143 -0.401091 -4.19487 0
M  V30 197 H 18.9383 0.396411 -3.24185 0
M  V30 198 H 17.5973 -1.73606 -3.22888 0
M  V30 199 H 17.2453 -0.0368439 -5.02987 0
M  V30 200 H 16.9453 -1.68771 -5.62841 0
M  V30 201 H 18.4693 -0.854015 -6.04598 0
M  V30 202 H 19.8833 -2.8552 -4.97143 0
M  V30 203 H 18.2803 -3.62372 -4.78338 0
M  V30 204 H 19.3503 -3.47956 -3.3772 0
M  V30 205 N 20.6934 1.19889 -1.02296 0
M  V30 206 C 21.6234 2.25141 -0.619174 0
M  V30 207 C 22.6044 1.66051 0.368915 0
M  V30 208 O 23.7894 1.92546 0.252941 0
M  V30 209 C 20.9194 3.4728 0.0368783 0
M  V30 210 C 19.8734 4.19005 -0.872865 0
M  V30 211 C 19.1994 5.34637 -0.0822402 0
M  V30 212 C 20.4994 4.74452 -2.18387 0
M  V30 213 H 22.1934 2.59171 -1.49903 0
M  V30 214 H 19.7394 1.24579 -0.722222 0
M  V30 215 H 21.6924 4.20098 0.330958 0
M  V30 216 H 20.4164 3.12433 0.95149 0
M  V30 217 H 19.0754 3.48061 -1.15105 0
M  V30 218 H 18.7234 4.96034 0.83422 0
M  V30 219 H 18.4234 5.83557 -0.688149 0
M  V30 220 H 19.9474 6.10255 0.205238 0
M  V30 221 H 21.3614 5.39055 -1.95172 0
M  V30 222 H 19.7584 5.33834 -2.74119 0
M  V30 223 H 20.8284 3.92844 -2.84257 0
M  V30 224 N 22.1715 0.800033 1.35784 0
M  V30 225 C 23.3965 0.388511 2.03729 0
M  V30 226 C 23.8215 -0.990481 1.5991 0
M  V30 227 O 23.1795 -1.64013 0.772612 0
M  V30 228 C 23.2275 0.4726 3.5749 0
M  V30 229 O 22.3315 -0.51646 4.09153 0
M  V30 230 H 21.6725 0.163271 0.643614 0
M  V30 231 H 24.2025 1.0841 1.73518 0
M  V30 232 H 24.2125 0.34003 4.06581 0
M  V30 233 H 22.8875 1.47848 3.88734 0
M  V30 234 H 21.4645 -0.344673 3.71304 0
M  V30 235 N 23.6496 -1.47581 0.552962 0
M  V30 236 C 24.5796 -2.32762 -0.185451 0
M  V30 237 C 25.5606 -1.43527 -0.912905 0
M  V30 238 O 26.7456 -1.72388 -0.894201 0
M  V30 239 C 23.8756 -3.25219 -1.21859 0
M  V30 240 C 22.8296 -4.23661 -0.607864 0
M  V30 241 C 22.1556 -5.05413 -1.74533 0
M  V30 242 C 23.4556 -5.20481 0.435582 0
M  V30 243 H 25.1496 -2.94749 0.525684 0
M  V30 244 H 22.6956 -1.41738 0.254251 0
M  V30 245 H 24.6486 -3.8365 -1.7433 0
M  V30 246 H 23.3726 -2.61279 -1.95961 0
M  V30 247 H 22.0316 -3.66451 -0.104489 0
M  V30 248 H 21.6796 -4.3788 -2.47529 0
M  V30 249 H 21.3796 -5.72059 -1.34249 0
M  V30 250 H 22.9036 -5.66701 -2.27338 0
M  V30 251 H 24.3176 -5.733 -0.00290157 0
M  V30 252 H 22.7146 -5.95305 0.757067 0
M  V30 253 H 23.7846 -4.66217 1.33303 0
M  V30 254 N 25.1277 -0.289203 -1.54924 0
M  V30 255 C 26.3527 0.329299 -2.04769 0
M  V30 256 C 26.7777 1.4763 -1.16564 0
M  V30 257 O 26.1357 1.80527 -0.167186 0
M  V30 258 C 26.1837 0.774438 -3.52186 0
M  V30 259 O 25.2877 1.88038 -3.67036 0
M  V30 260 H 24.6287 0.0659259 -0.660719 0
M  V30 261 H 27.1587 -0.42761 -2.00082 0
M  V30 262 H 27.1687 1.06642 -3.93816 0
M  V30 263 H 25.8437 -0.0646707 -4.1585 0
M  V30 264 H 24.4207 1.58985 -3.3731 0
M  V30 265 N 26.6058 1.57591 -0.0167156 0
M  V30 266 C 28.0218 1.55946 0.339557 0
M  V30 267 C 28.2218 1.02109 1.73713 0
M  V30 268 O 27.2778 0.662303 2.43659 0
M  V30 269 C 28.5908 3.00037 0.199499 0
M  V30 270 C 30.1388 3.11805 0.273193 0
M  V30 271 C 30.6138 4.57713 0.162068 0
M  V30 272 N 32.1048 4.6268 0.219444 0
M  V30 273 C 32.8398 5.73185 0.157054 0
M  V30 274 N 32.3358 6.92786 0.0442936 0
M  V30 275 N 34.1288 5.61707 0.21014 0
M  V30 276 H 26.2798 1.90921 -0.930758 0
M  V30 277 H 28.5428 0.877674 -0.358319 0
M  V30 278 H 28.2488 3.4333 -0.76273 0
M  V30 279 H 28.1228 3.64387 0.974786 0
M  V30 280 H 30.5098 2.68433 1.22587 0
M  V30 281 H 30.5908 2.50201 -0.532256 0
M  V30 282 H 30.2348 5.01763 -0.78714 0
M  V30 283 H 30.1648 5.17283 0.986222 0
M  V30 284 H 32.6558 3.76649 0.307246 0
M  V30 285 H 32.9688 7.728 0.00304069 0
M  V30 286 H 31.3138 6.94999 0.00968457 0
M  V30 287 H 34.5048 4.6716 0.296546 0
M  V30 288 H 34.6778 6.47807 0.158054 0
M  V30 289 N 28.0839 -0.256276 1.55502 0
M  V30 290 C 29.0309 -1.31714 1.89526 0
M  V30 291 C 30.0009 -1.4828 0.748479 0
M  V30 292 O 31.1859 -1.62416 1.00128 0
M  V30 293 C 28.3259 -2.66933 2.18725 0
M  V30 294 C 27.4389 -2.58452 3.4616 0
M  V30 295 C 26.5739 -3.85961 3.64976 0
M  V30 296 C 25.6129 -3.72059 4.86044 0
M  V30 297 N 24.7499 -4.9144 5.01429 0
M  V30 298 H 29.5899 -1.01998 2.80001 0
M  V30 299 H 27.1269 -0.492413 1.38613 0
M  V30 300 H 29.0849 -3.4563 2.33657 0
M  V30 301 H 27.7149 -2.94816 1.31466 0
M  V30 302 H 26.7669 -1.71374 3.3961 0
M  V30 303 H 28.0789 -2.44085 4.34999 0
M  V30 304 H 27.2329 -4.73101 3.79816 0
M  V30 305 H 25.9719 -4.03215 2.74353 0
M  V30 306 H 24.9769 -2.83302 4.7119 0
M  V30 307 H 26.2019 -3.56309 5.78118 0
M  V30 308 H 24.1479 -5.09072 4.13741 0
M  V30 309 H 24.0649 -4.79668 5.84341 0
M  V30 310 H 25.3329 -5.80104 5.20672 0
M  V30 311 N 29.562 -1.4872 -0.521534 0
M  V30 312 C 30.51 -1.64328 -1.64618 0
M  V30 313 C 31.504 -0.50953 -1.61555 0
M  V30 314 O 32.71 -0.688525 -1.66311 0
M  V30 315 H 29.085 -0.517805 -0.545328 0
M  V30 316 H 31.056 -2.58767 -1.48601 0
M  V30 317 C 29.805 -1.70805 -3.02855 0
M  V30 318 H 29.128 -2.5741 -3.05909 0
M  V30 319 H 30.568 -1.85766 -3.81139 0
M  V30 320 C 29.027 -0.448479 -3.33902 0
M  V30 321 O 29.557 0.434928 -3.99339 0
M  V30 322 N 27.763 -0.317616 -2.88859 0
M  V30 323 H 27.31 -1.03748 -2.35784 0
M  V30 324 H 27.268 0.524113 -3.10001 0
M  V30 325 N 31.0401 0.771051 -1.3745 0
M  V30 326 C 31.9701 1.89827 -1.3597 0
M  V30 327 C 32.9511 1.68562 -0.228216 0
M  V30 328 O 34.1361 1.8941 -0.428675 0
M  V30 329 C 31.2661 3.2712 -1.16662 0
M  V30 330 C 30.2201 3.6295 -2.2683 0
M  V30 331 C 29.5461 4.98791 -1.92644 0
M  V30 332 C 30.8461 3.69627 -3.69017 0
M  V30 333 H 32.5401 1.91323 -2.30295 0
M  V30 334 H 30.0861 0.919082 -1.10855 0
M  V30 335 H 32.0391 4.05615 -1.14256 0
M  V30 336 H 30.7631 3.26059 -0.187926 0
M  V30 337 H 29.4221 2.86763 -2.28392 0
M  V30 338 H 29.0701 4.94271 -0.933021 0
M  V30 339 H 28.7701 5.23733 -2.66416 0
M  V30 340 H 30.2941 5.79685 -1.91826 0
M  V30 341 H 31.7081 4.38273 -3.69581 0
M  V30 342 H 30.1051 4.06067 -4.41848 0
M  V30 343 H 31.1751 2.70273 -4.02592 0
M  V30 344 N 32.5182 1.22032 0.997298 0
M  V30 345 C 33.4812 0.987909 2.06816 0
M  V30 346 C 34.4812 -0.0440084 1.6074 0
M  V30 347 O 35.6712 0.194053 1.73116 0
M  V30 348 C 32.8032 0.49132 3.37341 0
M  V30 349 H 33.9962 1.93803 2.28868 0
M  V30 350 H 31.5492 1.03838 1.16822 0
M  V30 351 H 32.2842 -0.463364 3.20973 0
M  V30 352 H 32.0692 1.23575 3.72118 0
M  V30 353 H 33.5592 0.348824 4.16141 0
M  V30 354 N 33.9963 -1.19345 1.0293 0
M  V30 355 C 35.2443 -1.88665 0.724574 0
M  V30 356 C 35.5653 -1.80036 -0.749144 0
M  V30 357 O 34.8353 -1.2111 -1.53978 0
M  V30 358 H 33.4153 -0.698406 0.265025 0
M  V30 359 H 36.0773 -1.44885 1.30362 0
M  V30 360 H 35.1733 -2.94987 1.01926 0
M  V30 361 N 35.4744 -0.807222 -1.35358 0
M  V30 362 C 36.8904 -0.491038 -1.51858 0
M  V30 363 C 37.0904 0.987648 -1.75635 0
M  V30 364 O 36.1464 1.77265 -1.79815 0
M  V30 365 C 37.4594 -1.33695 -2.69344 0
M  V30 366 C 39.0074 -1.33246 -2.83222 0
M  V30 367 C 39.4824 -2.1625 -4.03733 0
M  V30 368 N 40.9734 -2.1379 -4.10911 0
M  V30 369 C 41.7084 -2.74772 -5.03277 0
M  V30 370 N 41.2044 -3.44684 -6.0097 0
M  V30 371 N 42.9974 -2.6441 -4.96028 0
M  V30 372 H 35.1484 -1.76485 -1.18181 0
M  V30 373 H 37.4114 -0.751199 -0.578276 0
M  V30 374 H 37.1174 -2.38634 -2.58354 0
M  V30 375 H 36.9914 -0.990618 -3.6396 0
M  V30 376 H 39.3784 -0.290911 -2.93663 0
M  V30 377 H 39.4594 -1.71866 -1.89461 0
M  V30 378 H 39.1034 -3.20445 -3.94052 0
M  V30 379 H 39.0334 -1.74989 -4.96675 0
M  V30 380 H 41.5244 -1.62923 -3.40976 0
M  V30 381 H 41.8374 -3.88501 -6.68047 0
M  V30 382 H 40.1824 -3.48788 -6.01142 0
M  V30 383 H 43.3734 -2.0938 -4.18662 0
M  V30 384 H 43.5464 -3.12225 -5.6782 0
M  V30 385 N 36.9525 1.47285 -0.560781 0
M  V30 386 C 38.1775 2.07359 -0.0410566 0
M  V30 387 C 38.6025 1.41017 1.24483 0
M  V30 388 O 37.9605 0.486368 1.74654 0
M  V30 389 C 38.0085 3.6035 0.134123 0
M  V30 390 O 37.1125 3.94681 1.19587 0
M  V30 391 H 36.4535 0.661887 -0.0529291 0
M  V30 392 H 38.9835 1.89252 -0.777482 0
M  V30 393 H 38.9935 4.0652 0.347207 0
M  V30 394 H 37.6685 4.08034 -0.805047 0
M  V30 395 H 36.2455 3.60251 0.962987 0
M  V30 396 N 38.4306 0.297415 1.54768 0
M  V30 397 C 39.6766 -0.313376 2.00364 0
M  V30 398 C 40.0096 -1.53815 1.18553 0
M  V30 399 O 39.2846 -1.92739 0.261103 0
M  V30 400 C 39.5676 -0.673525 3.53745 0
M  V30 401 C 39.4206 0.560133 4.46299 0
M  V30 402 C 40.7396 -1.50143 4.13697 0
M  V30 403 H 37.8586 -0.112428 0.728374 0
M  V30 404 H 40.5006 0.4088 1.8555 0
M  V30 405 H 38.6506 -1.28881 3.665 0
M  V30 406 H 40.3226 1.19863 4.45455 0
M  V30 407 H 38.5656 1.19405 4.17043 0
M  V30 408 H 39.2366 0.26405 5.51368 0
M  V30 409 H 41.7126 -0.981588 4.04356 0
M  V30 410 H 40.5886 -1.72221 5.21182 0
M  V30 411 H 40.8496 -2.48952 3.65343 0
M  V30 412 N 39.9087 -1.5758 0.0250728 0
M  V30 413 C 40.8187 -2.1343 -0.973905 0
M  V30 414 C 41.8347 -1.08556 -1.35984 0
M  V30 415 O 43.0107 -1.40592 -1.44207 0
M  V30 416 C 40.0757 -2.64703 -2.23904 0
M  V30 417 C 39.1367 -3.84276 -1.91391 0
M  V30 418 C 38.3697 -4.33095 -3.11873 0
M  V30 419 O 38.5927 -3.81107 -4.24398 0
M  V30 420 O 37.5267 -5.24984 -2.94406 0
M  V30 421 H 41.3527 -2.99057 -0.529036 0
M  V30 422 H 38.9377 -1.48118 -0.195288 0
M  V30 423 H 40.8197 -2.97769 -2.98181 0
M  V30 424 H 39.4947 -1.82161 -2.6758 0
M  V30 425 H 38.4017 -3.56143 -1.14511 0
M  V30 426 H 39.7347 -4.67968 -1.52534 0
M  V30 427 N 41.3868 0.248026 -1.55636 0
M  V30 428 C 42.6638 0.998988 -1.68165 0
M  V30 429 C 43.0438 2.03409 -0.564621 0
M  V30 430 O 42.3918 2.24378 0.432076 0
M  V30 431 C 42.6018 1.63334 -3.0842 0
M  V30 432 C 43.9498 2.13562 -3.66983 0
M  V30 433 O 44.9738 1.73277 -3.11213 0
M  V30 434 O 43.8328 2.87526 -4.64749 0
M  V30 435 H 40.9268 0.464933 -0.683935 0
M  V30 436 H 43.4728 0.241902 -1.67967 0
M  V30 437 H 42.2448 0.884583 -3.8117 0
M  V30 438 H 41.8678 2.45666 -3.12624 0
M  V30 439 N 42.8649 1.48995 0.513639 0
M  V30 440 C 44.1049 1.59452 1.27885 0
M  V30 441 C 44.4689 0.269479 1.90099 0
M  V30 442 O 45.6699 0.249139 2.67643 0
M  V30 443 C 43.9409 2.71277 2.32688 0
M  V30 444 S 45.4999 3.01604 3.18717 0
M  V30 445 H 42.3179 0.562565 0.434789 0
M  V30 446 H 44.9199 1.86595 0.583301 0
M  V30 447 H 43.6239 3.66089 1.8549 0
M  V30 448 H 43.1549 2.46086 3.06929 0
M  V30 449 H 45.1699 2.42155 4.331 0
M  V30 450 N 44.343 -0.763751 1.37857 0
M  V30 451 C 45.306 -1.85889 1.34081 0
M  V30 452 C 46.306 -1.58949 0.243277 0
M  V30 453 O 47.496 -1.66882 0.499589 0
M  V30 454 C 44.628 -3.23176 1.08489 0
M  V30 455 H 45.821 -1.90648 2.31502 0
M  V30 456 H 43.374 -0.964367 1.23003 0
M  V30 457 H 44.109 -3.24091 0.116318 0
M  V30 458 H 43.894 -3.44124 1.8794 0
M  V30 459 H 45.384 -4.03254 1.08517 0
M  V30 460 N 45.8211 -1.22559 -0.990812 0
M  V30 461 C 46.7841 -0.998863 -2.0629 0
M  V30 462 C 47.7841 0.0354834 -1.60761 0
M  V30 463 O 48.9741 -0.203231 -1.7301 0
M  V30 464 C 46.1061 -0.509203 -3.37076 0
M  V30 465 H 47.2991 -1.95014 -2.27837 0
M  V30 466 H 44.8521 -1.04456 -1.16269 0
M  V30 467 H 45.5871 0.446335 -3.21214 0
M  V30 468 H 45.3721 -1.25547 -3.71457 0
M  V30 469 H 46.8621 -0.370888 -4.1595 0
M  V30 470 N 47.2992 1.18797 -1.03562 0
M  V30 471 C 48.2462 2.22253 -0.622259 0
M  V30 472 C 49.2162 1.61987 0.36736 0
M  V30 473 O 50.4012 1.88986 0.262492 0
M  V30 474 C 47.5412 3.45097 0.0138462 0
M  V30 475 C 46.6542 4.19722 -1.02263 0
M  V30 476 C 45.7892 5.30009 -0.355573 0
M  V30 477 C 44.8282 5.96399 -1.37749 0
M  V30 478 N 43.9652 6.98234 -0.735766 0
M  V30 479 H 48.8052 2.56968 -1.50903 0
M  V30 480 H 46.3422 1.26245 -0.755017 0
M  V30 481 H 48.3002 4.15279 0.399948 0
M  V30 482 H 46.9302 3.11018 0.864158 0
M  V30 483 H 45.9822 3.48418 -1.52673 0
M  V30 484 H 47.2942 4.65227 -1.79903 0
M  V30 485 H 46.4482 6.0664 0.0850095 0
M  V30 486 H 45.1872 4.85592 0.452967 0
M  V30 487 H 44.1922 5.18512 -1.82826 0
M  V30 488 H 45.4172 6.42899 -2.18764 0
M  V30 489 H 43.3632 6.55979 0.0525597 0
M  V30 490 H 43.2802 7.41965 -1.44995 0
M  V30 491 H 44.5482 7.78845 -0.31941 0
M  V30 492 N 48.7773 0.814389 1.34928 0
M  V30 493 C 50.0173 0.404165 2.00364 0
M  V30 494 C 50.3813 -1.01166 1.63185 0
M  V30 495 O 51.5823 -1.52431 2.21401 0
M  V30 496 C 49.8533 0.590718 3.52484 0
M  V30 497 S 51.4123 0.272075 4.37956 0
M  V30 498 H 48.2303 0.15311 0.694319 0
M  V30 499 H 50.8323 1.05834 1.64376 0
M  V30 500 H 49.5363 1.62099 3.77031 0
M  V30 501 H 49.0673 -0.0785013 3.93322 0
M  V30 502 H 51.0823 -0.917405 4.87645 0
M  V30 503 N 50.2554 -1.46986 0.568584 0
M  V30 504 C 51.1654 -2.33942 -0.17555 0
M  V30 505 C 52.1814 -1.48891 -0.90041 0
M  V30 506 O 53.3574 -1.81794 -0.86676 0
M  V30 507 C 50.4224 -3.25811 -1.18524 0
M  V30 508 C 49.4834 -4.26757 -0.466582 0
M  V30 509 C 48.7164 -5.14236 -1.42817 0
M  V30 510 O 48.9394 -5.04379 -2.66379 0
M  V30 511 O 47.8734 -5.94412 -0.946453 0
M  V30 512 H 51.6994 -2.98896 0.538036 0
M  V30 513 H 49.2844 -1.4573 0.329097 0
M  V30 514 H 51.1664 -3.82527 -1.76779 0
M  V30 515 H 49.8414 -2.63471 -1.88055 0
M  V30 516 H 48.7484 -3.73769 0.157451 0
M  V30 517 H 50.0814 -4.91843 0.187485 0
M  V30 518 N 51.7335 -0.305618 -1.54608 0
M  V30 519 C 52.6435 0.57778 -2.27374 0
M  V30 520 C 53.6595 1.14451 -1.31061 0
M  V30 521 O 54.8355 1.16831 -1.6405 0
M  V30 522 C 51.9005 1.73123 -3.00382 0
M  V30 523 C 50.9615 1.19812 -4.12242 0
M  V30 524 C 50.1945 2.2966 -4.81759 0
M  V30 525 O 50.4175 3.49651 -4.50666 0
M  V30 526 O 49.3515 1.96091 -5.69062 0
M  V30 527 H 53.1775 -0.012624 -3.03697 0
M  V30 528 H 50.7625 -0.0719184 -1.49227 0
M  V30 529 H 52.6445 2.40315 -3.4616 0
M  V30 530 H 51.3195 2.30815 -2.26949 0
M  V30 531 H 50.2265 0.491798 -3.70853 0
M  V30 532 H 51.5595 0.666566 -4.87666 0
M  V30 533 N 53.2116 1.57565 -0.0334293 0
M  V30 534 C 54.1216 2.13943 0.962572 0
M  V30 535 C 55.1376 1.09276 1.35406 0
M  V30 536 O 56.3136 1.41355 1.4346 0
M  V30 537 C 53.3786 2.65887 2.22497 0
M  V30 538 C 52.4396 3.85286 1.8935 0
M  V30 539 C 51.6726 4.34743 3.09571 0
M  V30 540 O 51.8956 3.83352 4.22371 0
M  V30 541 O 50.8296 5.26538 2.91618 0
M  V30 542 H 54.6556 2.99333 0.513169 0
M  V30 543 H 52.2406 1.4822 0.18743 0
M  V30 544 H 54.1226 2.99346 2.96598 0
M  V30 545 H 52.7976 1.83578 2.6661 0
M  V30 546 H 51.7046 3.56746 1.1262 0
M  V30 547 H 53.0376 4.68771 1.5005 0
M  V30 548 N 54.6897 -0.239769 1.55765 0
M  V30 549 C 55.9177 -0.98417 1.81994 0
M  V30 550 C 56.3327 -1.7867 0.610124 0
M  V30 551 O 55.6897 -1.77571 -0.421271 0
M  V30 552 C 55.7407 -1.91635 3.06526 0
M  V30 553 O 55.4617 -1.14629 4.22838 0
M  V30 554 C 56.9627 -2.77616 3.45607 0
M  V30 555 H 54.1827 -0.28928 0.605441 0
M  V30 556 H 56.7267 -0.260499 2.02834 0
M  V30 557 H 54.8817 -2.5942 2.87715 0
M  V30 558 H 55.2957 -1.77745 4.93464 0
M  V30 559 H 56.7697 -3.38759 4.35828 0
M  V30 560 H 57.2467 -3.4909 2.6652 0
M  V30 561 H 57.8527 -2.15271 3.66795 0
M  V30 562 N 56.1678 -1.49265 -0.50573 0
M  V30 563 C 57.4448 -1.49012 -1.26707 0
M  V30 564 C 57.8248 -0.215205 -2.1 0
M  V30 565 O 57.1728 0.802547 -2.13943 0
M  V30 566 C 57.3828 -2.7663 -2.12783 0
M  V30 567 C 58.7308 -3.25932 -2.72127 0
M  V30 568 O 59.7548 -2.77715 -2.23054 0
M  V30 569 O 58.6138 -4.09897 -3.61451 0
M  V30 570 H 55.7078 -0.596197 -0.57313 0
M  V30 571 H 58.2538 -1.61524 -0.52039 0
M  V30 572 H 57.0258 -3.60916 -1.5118 0
M  V30 573 H 56.6488 -2.66956 -2.94653 0
M  V30 574 N 57.6459 0.756429 -1.3826 0
M  V30 575 C 58.8929 1.51547 -1.34312 0
M  V30 576 C 59.2209 1.94382 0.0677144 0
M  V30 577 O 58.4759 1.65514 1.04421 0
M  V30 578 C 58.7749 2.78313 -2.24224 0
M  V30 579 C 58.4409 2.54455 -3.72241 0
M  V30 580 C 57.1029 2.47657 -4.12576 0
M  V30 581 C 59.4549 2.3354 -4.65949 0
M  V30 582 C 56.7829 2.17956 -5.44713 0
M  V30 583 C 59.1349 2.05359 -5.9834 0
M  V30 584 C 57.7989 1.97016 -6.37762 0
M  V30 585 H 57.0689 0.55455 -0.491482 0
M  V30 586 H 59.7159 0.870039 -1.70595 0
M  V30 587 H 58.0209 3.47492 -1.80987 0
M  V30 588 H 59.7179 3.36259 -2.18474 0
M  V30 589 H 56.3079 2.60616 -3.40261 0
M  V30 590 H 60.4919 2.37772 -4.35635 0
M  V30 591 H 55.7479 2.10003 -5.74203 0
M  V30 592 H 59.9219 1.88179 -6.70494 0
M  V30 593 H 57.5489 1.73766 -7.40074 0
M  V30 594 N 59.124 1.23083 0.984299 0
M  V30 595 C 60.37 1.06214 1.72761 0
M  V30 596 C 60.703 -0.400584 1.90024 0
M  V30 597 O 59.978 -1.29672 1.44967 0
M  V30 598 C 60.261 1.78375 3.12817 0
M  V30 599 C 60.114 3.32296 3.03149 0
M  V30 600 C 61.433 1.54309 4.12161 0
M  V30 601 H 58.552 0.387251 0.627061 0
M  V30 602 H 61.194 1.51536 1.14616 0
M  V30 603 H 59.344 1.39848 3.62457 0
M  V30 604 H 61.016 3.8032 2.61064 0
M  V30 605 H 59.259 3.6153 2.39747 0
M  V30 606 H 59.93 3.77972 4.02295 0
M  V30 607 H 62.406 1.87791 3.71314 0
M  V30 608 H 61.282 2.07281 5.08258 0
M  V30 609 H 61.543 0.477572 4.39513 0
M  V30 610 N 60.6021 -1.18246 1.0419 0
M  V30 611 C 61.8421 -1.89948 0.754916 0
M  V30 612 C 62.2061 -1.78608 -0.70451 0
M  V30 613 O 63.4071 -2.4503 -1.10516 0
M  V30 614 C 61.6781 -3.36305 1.20969 0
M  V30 615 S 63.2371 -4.26088 1.04854 0
M  V30 616 H 60.0551 -0.655897 0.274446 0
M  V30 617 H 62.6571 -1.42873 1.33445 0
M  V30 618 H 61.3611 -3.42089 2.26722 0
M  V30 619 H 60.8921 -3.8842 0.624004 0
M  V30 620 H 62.9071 -4.96189 -0.0332896 0
M  V30 621 N 62.0802 -0.821533 -1.34494 0
M  V30 622 C 63.4962 -0.507117 -1.51329 0
M  V30 623 C 63.6962 0.968964 -1.76673 0
M  V30 624 O 62.7522 1.75348 -1.81685 0
M  V30 625 C 64.0652 -1.36544 -2.67911 0
M  V30 626 C 65.6132 -1.36242 -2.81793 0
M  V30 627 C 66.0882 -2.2052 -4.01416 0
M  V30 628 N 67.5792 -2.18136 -4.08621 0
M  V30 629 C 68.3142 -2.80095 -5.00334 0
M  V30 630 N 67.8102 -3.51039 -5.9728 0
M  V30 631 N 69.6032 -2.69656 -4.93196 0
M  V30 632 H 61.7542 -1.77729 -1.16302 0
M  V30 633 H 64.0172 -0.757291 -0.570276 0
M  V30 634 H 63.7232 -2.41361 -2.55808 0
M  V30 635 H 63.5972 -1.02917 -3.62888 0
M  V30 636 H 65.9842 -0.322041 -2.93338 0
M  V30 637 H 66.0652 -1.73866 -1.87628 0
M  V30 638 H 65.7092 -3.24607 -3.90631 0
M  V30 639 H 65.6392 -1.80247 -4.94791 0
M  V30 640 H 68.1302 -1.6653 -3.39229 0
M  V30 641 H 68.4432 -3.95565 -6.63889 0
M  V30 642 H 66.7882 -3.55145 -5.97409 0
M  V30 643 H 69.9792 -2.13808 -4.16418 0
M  V30 644 H 70.1522 -3.1823 -5.64476 0
M  V30 645 N 63.5583 1.46682 -0.576371 0
M  V30 646 C 64.5213 2.28707 0.150239 0
M  V30 647 C 65.5213 1.38035 0.824794 0
M  V30 648 O 66.7113 1.60476 0.677719 0
M  V30 649 C 63.8433 3.18248 1.22192 0
M  V30 650 H 65.0363 2.94423 -0.570521 0
M  V30 651 H 62.5893 1.52688 -0.334078 0
M  V30 652 H 63.3243 2.57265 1.97447 0
M  V30 653 H 63.1093 3.85 0.742812 0
M  V30 654 H 64.5993 3.80001 1.73172 0
M  V30 655 N 65.0364 0.313813 1.54444 0
M  V30 656 C 66.2834 -0.291675 2.00388 0
M  V30 657 C 66.6114 -1.52904 1.2021 0
M  V30 658 O 65.8664 -1.93833 0.269707 0
M  V30 659 C 66.1654 -0.680386 3.50864 0
M  V30 660 C 65.8314 0.456699 4.48581 0
M  V30 661 C 64.4934 0.768824 4.75018 0
M  V30 662 C 66.8454 1.22098 5.06697 0
M  V30 663 C 64.1734 1.84812 5.56831 0
M  V30 664 C 66.5254 2.29029 5.89685 0
M  V30 665 C 65.1894 2.60834 6.14428 0
M  V30 666 H 64.4594 -0.106732 0.733273 0
M  V30 667 H 67.1064 0.43557 1.86481 0
M  V30 668 H 65.4114 -1.48791 3.62448 0
M  V30 669 H 67.1084 -1.16026 3.83847 0
M  V30 670 H 63.6984 0.203337 4.28117 0
M  V30 671 H 67.8824 0.993096 4.86263 0
M  V30 672 H 63.1384 2.09912 5.74236 0
M  V30 673 H 67.3124 2.887 6.33739 0
M  V30 674 H 64.9394 3.44596 6.77612 0
M  V30 675 N 66.5145 -1.57545 0.0417849 0
M  V30 676 C 67.4465 -2.07904 -0.964799 0
M  V30 677 C 68.4595 -1.00497 -1.28079 0
M  V30 678 O 69.6485 -1.28087 -1.24322 0
M  V30 679 C 66.7485 -2.49928 -2.28887 0
M  V30 680 C 65.9215 -3.80562 -2.15619 0
M  V30 681 C 64.9805 -4.08999 -3.31069 0
M  V30 682 O 64.0065 -4.79061 -3.0739 0
M  V30 683 N 65.2085 -3.6017 -4.55256 0
M  V30 684 H 67.9735 -2.94886 -0.535029 0
M  V30 685 H 65.5345 -1.61252 -0.144681 0
M  V30 686 H 67.5265 -2.66034 -3.04972 0
M  V30 687 H 66.0965 -1.68245 -2.63463 0
M  V30 688 H 65.3165 -3.74129 -1.24183 0
M  V30 689 H 66.6045 -4.66126 -2.03971 0
M  V30 690 H 66.0025 -3.03512 -4.77386 0
M  V30 691 H 64.5595 -3.81532 -5.28466 0
M  V30 692 N 67.9926 0.231505 -1.5589 0
M  V30 693 C 69.2226 0.973092 -1.82248 0
M  V30 694 C 69.6306 1.78845 -0.617328 0
M  V30 695 O 68.9736 1.78752 0.423499 0
M  V30 696 C 69.0356 1.94732 -3.02192 0
M  V30 697 C 68.6996 1.31743 -4.37599 0
M  V30 698 C 69.6966 0.712238 -5.14998 0
M  V30 699 C 67.3816 1.33218 -4.84312 0
M  V30 700 C 69.3756 0.130195 -6.37267 0
M  V30 701 C 67.0626 0.746286 -6.06526 0
M  V30 702 C 68.0606 0.146337 -6.82843 0
M  V30 703 O 67.7486 -0.430465 -8.02747 0
M  V30 704 H 67.4806 0.29125 -0.61004 0
M  V30 705 H 70.0346 0.254915 -2.03812 0
M  V30 706 H 68.2646 2.70422 -2.76422 0
M  V30 707 H 69.9536 2.55362 -3.15508 0
M  V30 708 H 70.7196 0.69324 -4.8002 0
M  V30 709 H 66.5986 1.78854 -4.24891 0
M  V30 710 H 70.1426 -0.33871 -6.96777 0
M  V30 711 H 66.0396 0.762663 -6.40979 0
M  V30 712 H 66.8076 -0.323818 -8.17859 0
M  V30 713 N 69.4707 1.49531 0.497807 0
M  V30 714 C 70.4207 1.62829 1.59596 0
M  V30 715 C 71.4047 0.483824 1.53453 0
M  V30 716 O 72.5967 0.736937 1.60929 0
M  V30 717 C 69.7257 1.7011 2.98191 0
M  V30 718 C 68.8117 2.90144 3.09317 0
M  V30 719 N 69.2027 4.1418 2.90324 0
M  V30 720 C 67.5007 2.88148 3.40422 0
M  V30 721 C 68.2017 4.94886 3.05717 0
M  V30 722 N 67.1777 4.28314 3.34736 0
M  V30 723 H 70.9797 2.56446 1.4357 0
M  V30 724 H 68.4937 1.46347 0.704001 0
M  V30 725 H 70.4907 1.77735 3.77115 0
M  V30 726 H 69.1507 0.776315 3.15283 0
M  V30 727 H 70.1617 4.44109 2.66436 0
M  V30 728 H 66.8387 2.05061 3.63671 0
M  V30 729 H 68.2287 6.03432 2.95499 0
M  V30 730 N 70.9488 -0.749086 1.3866 0
M  V30 731 C 72.1738 -1.54344 1.38538 0
M  V30 732 C 72.5988 -1.88088 -0.0216655 0
M  V30 733 O 71.9568 -1.50899 -1.00494 0
M  V30 734 C 72.0048 -2.8164 2.25192 0
M  V30 735 O 71.1088 -3.7698 1.67212 0
M  V30 736 H 70.4498 -0.466654 0.472367 0
M  V30 737 H 72.9798 -0.925355 1.82478 0
M  V30 738 H 72.9898 -3.30519 2.3921 0
M  V30 739 H 71.6648 -2.56411 3.27454 0
M  V30 740 H 70.2418 -3.35699 1.6236 0
M  V30 741 N 72.4269 -1.23603 -0.977757 0
M  V30 742 C 73.3739 -1.01954 -2.07061 0
M  V30 743 C 74.3439 0.0638697 -1.65977 0
M  V30 744 O 75.5289 -0.0887624 -1.90593 0
M  V30 745 C 72.6689 -0.619658 -3.39491 0
M  V30 746 C 71.7819 -1.77547 -3.93829 0
M  V30 747 C 70.9169 -1.32212 -5.14484 0
M  V30 748 C 69.9559 -2.44852 -5.60994 0
M  V30 749 N 69.0929 -2.00456 -6.72876 0
M  V30 750 H 73.9329 -1.95495 -2.24913 0
M  V30 751 H 71.4699 -0.973861 -1.10247 0
M  V30 752 H 73.4279 -0.368898 -4.15566 0
M  V30 753 H 72.0579 0.278752 -3.21594 0
M  V30 754 H 71.1099 -2.14016 -3.14486 0
M  V30 755 H 72.4219 -2.62219 -4.24314 0
M  V30 756 H 71.5759 -1.02965 -5.97899 0
M  V30 757 H 70.3149 -0.445808 -4.85658 0
M  V30 758 H 69.3199 -2.74871 -4.76157 0
M  V30 759 H 70.5449 -3.33024 -5.91837 0
M  V30 760 H 68.4909 -1.15208 -6.45804 0
M  V30 761 H 68.4079 -2.78687 -7.02759 0
M  V30 762 H 69.6759 -1.7432 -7.59758 0
M  V30 763 N 73.905 1.17692 -1.04816 0
M  V30 764 C 74.815 2.25229 -0.65643 0
M  V30 765 C 75.831 1.71018 0.320761 0
M  V30 766 O 77.007 2.00649 0.173805 0
M  V30 767 C 74.072 3.46684 -0.0332629 0
M  V30 768 C 73.133 4.15997 -1.06042 0
M  V30 769 C 72.366 5.31654 -0.466893 0
M  V30 770 O 72.589 5.65777 0.724758 0
M  V30 771 O 71.523 5.89831 -1.1993 0
M  V30 772 H 75.349 2.61016 -1.55255 0
M  V30 773 H 72.934 1.24919 -0.81949 0
M  V30 774 H 74.816 4.20234 0.313256 0
M  V30 775 H 73.491 3.12703 0.836566 0
M  V30 776 H 72.398 3.44482 -1.45886 0
M  V30 777 H 73.731 4.53996 -1.90127 0
M  V30 778 N 75.3831 0.828654 1.34056 0
M  V30 779 C 76.3151 0.212052 2.28217 0
M  V30 780 C 77.3281 -0.601362 1.51286 0
M  V30 781 O 78.5171 -0.430104 1.73241 0
M  V30 782 C 75.6171 -0.72088 3.31144 0
M  V30 783 C 74.7901 0.0509587 4.3737 0
M  V30 784 C 73.8491 -0.803766 5.20025 0
M  V30 785 O 72.8751 -0.246667 5.68665 0
M  V30 786 N 74.0771 -2.1227 5.40298 0
M  V30 787 H 76.8421 1.02105 2.81771 0
M  V30 788 H 74.4031 0.686153 1.46641 0
M  V30 789 H 76.3951 -1.29742 3.8334 0
M  V30 790 H 74.9651 -1.43061 2.77943 0
M  V30 791 H 74.1851 0.808831 3.85813 0
M  V30 792 H 75.4731 0.582065 5.0546 0
M  V30 793 H 74.8711 -2.59898 5.02464 0
M  V30 794 H 73.4281 -2.64796 5.95589 0
M  V30 795 N 76.8612 -1.46375 0.584142 0
M  V30 796 C 77.7932 -2.28443 -0.186119 0
M  V30 797 C 78.8062 -1.38596 -0.854115 0
M  V30 798 O 79.9952 -1.63183 -0.723438 0
M  V30 799 C 77.0952 -3.13671 -1.28311 0
M  V30 800 C 76.2682 -4.31652 -0.706758 0
M  V30 801 C 75.3272 -4.98267 -1.69163 0
M  V30 802 O 74.3532 -5.55815 -1.22712 0
M  V30 803 N 75.5552 -4.95408 -3.02575 0
M  V30 804 H 78.3202 -2.9519 0.517986 0
M  V30 805 H 75.8812 -1.56303 0.42201 0
M  V30 806 H 77.8732 -3.55101 -1.94128 0
M  V30 807 H 76.4432 -2.48989 -1.89005 0
M  V30 808 H 75.6632 -3.93989 0.128908 0
M  V30 809 H 76.9512 -5.07906 -0.301506 0
M  V30 810 H 76.3492 -4.49902 -3.42936 0
M  V30 811 H 74.9062 -5.40774 -3.63877 0
M  V30 812 N 78.3393 -0.321999 -1.54275 0
M  V30 813 C 79.5793 0.281657 -2.0245 0
M  V30 814 C 79.9433 1.49468 -1.20513 0
M  V30 815 O 81.1443 2.17109 -1.58484 0
M  V30 816 C 79.4153 0.609014 -3.52173 0
M  V30 817 S 80.9743 1.19255 -4.22284 0
M  V30 818 H 77.7923 0.0852825 -0.705867 0
M  V30 819 H 80.3943 -0.454758 -1.90137 0
M  V30 820 H 79.0983 -0.281982 -4.0943 0
M  V30 821 H 78.6293 1.37567 -3.68563 0
M  V30 822 H 80.6443 2.47944 -4.29812 0
M  V30 823 N 79.8174 1.5752 -0.0501392 0
M  V30 824 C 81.0634 1.92936 0.624798 0
M  V30 825 C 81.3964 0.928685 1.70555 0
M  V30 826 O 80.6714 -0.0454779 1.94447 0
M  V30 827 C 80.9544 3.38737 1.22185 0
M  V30 828 C 80.8074 4.49552 0.149218 0
M  V30 829 C 82.1264 3.84913 2.13378 0
M  V30 830 H 79.2454 0.701604 0.225657 0
M  V30 831 H 81.8874 1.89671 -0.111693 0
M  V30 832 H 80.0374 3.4165 1.84953 0
M  V30 833 H 81.7094 4.58768 -0.482648 0
M  V30 834 H 79.9524 4.30638 -0.522841 0
M  V30 835 H 80.6234 5.48653 0.606966 0
M  V30 836 H 83.0994 3.8387 1.60572 0
M  V30 837 H 81.9754 4.87584 2.52097 0
M  V30 838 H 82.2364 3.21611 3.03346 0
M  V30 839 N 81.2955 -0.223234 1.56011 0
M  V30 840 C 82.5415 -0.949279 1.79211 0
M  V30 841 C 82.8745 -1.84054 0.619494 0
M  V30 842 O 82.1495 -1.90726 -0.381317 0
M  V30 843 C 82.4325 -1.78965 3.12479 0
M  V30 844 C 82.2855 -0.924997 4.40186 0
M  V30 845 C 83.6045 -2.76774 3.42175 0
M  V30 846 H 80.7235 -0.343676 0.651963 0
M  V30 847 H 83.3655 -0.218253 1.88742 0
M  V30 848 H 81.5155 -2.41291 3.04485 0
M  V30 849 H 83.1875 -0.318615 4.60198 0
M  V30 850 H 81.4305 -0.230344 4.33188 0
M  V30 851 H 82.1015 -1.54735 5.29869 0
M  V30 852 H 84.5775 -2.24584 3.50287 0
M  V30 853 H 83.4535 -3.32678 4.36597 0
M  V30 854 H 83.7145 -3.54429 2.64258 0
M  V30 855 N 82.7736 -1.49793 -0.48987 0
M  V30 856 C 83.7066 -1.61898 -1.60823 0
M  V30 857 C 84.6846 -0.467651 -1.5573 0
M  V30 858 O 85.8686 -0.684682 -1.75626 0
M  V30 859 C 82.9956 -1.58422 -2.99366 0
M  V30 860 C 82.0416 -2.78889 -3.22682 0
M  V30 861 S 82.8746 -4.40429 -3.04602 0
M  V30 862 C 84.0306 -4.39617 -4.4552 0
M  V30 863 H 84.2636 -2.56502 -1.50312 0
M  V30 864 H 81.7966 -1.38822 -0.675849 0
M  V30 865 H 83.7546 -1.57103 -3.79248 0
M  V30 866 H 82.4156 -0.650866 -3.07283 0
M  V30 867 H 81.6086 -2.72708 -4.23847 0
M  V30 868 H 81.2106 -2.77678 -2.50541 0
M  V30 869 H 83.5026 -4.12022 -5.37814 0
M  V30 870 H 84.4456 -5.41097 -4.56749 0
M  V30 871 H 84.8536 -3.69554 -4.2672 0
M  V30 872 N 84.2517 0.741722 -1.39055 0
M  V30 873 C 85.2147 1.83733 -1.37021 0
M  V30 874 C 86.2147 1.58542 -0.268534 0
M  V30 875 O 87.4047 1.66067 -0.526076 0
M  V30 876 C 84.5367 3.2141 -1.13617 0
M  V30 877 H 85.7297 1.86941 -2.34506 0
M  V30 878 H 83.2827 0.944676 -1.24521 0
M  V30 879 H 84.0177 3.23865 -0.167863 0
M  V30 880 H 83.8027 3.4109 -1.93391 0
M  V30 881 H 85.2927 4.01477 -1.14918 0
M  V30 882 N 85.7298 1.2412 0.971189 0
M  V30 883 C 86.6398 1.04747 2.09917 0
M  V30 884 C 87.6558 -0.0107162 1.73997 0
M  V30 885 O 88.8318 0.186714 2.00533 0
M  V30 886 C 85.8968 0.650828 3.40537 0
M  V30 887 C 84.9578 1.7851 3.90426 0
M  V30 888 C 84.1908 1.40729 5.14812 0
M  V30 889 O 84.4138 0.29557 5.69634 0
M  V30 890 O 83.3478 2.23168 5.58999 0
M  V30 891 H 87.1738 1.99304 2.29154 0
M  V30 892 H 84.7588 1.02908 1.08307 0
M  V30 893 H 86.6408 0.440992 4.19086 0
M  V30 894 H 85.3158 -0.265649 3.22608 0
M  V30 895 H 84.2228 2.04966 3.12953 0
M  V30 896 H 85.5558 2.68023 4.12825 0
M  V30 897 N 87.2079 -1.17134 1.05439 0
M  V30 898 C 88.1559 -2.23289 0.651511 0
M  V30 899 C 89.1499 -1.66186 -0.328411 0
M  V30 900 O 90.3559 -1.78949 -0.194206 0
M  V30 901 H 86.7309 -0.726938 0.192523 0
M  V30 902 H 88.7019 -2.54565 1.55689 0
M  V30 903 C 87.4509 -3.47671 0.0448436 0
M  V30 904 H 86.7739 -3.91918 0.78996 0
M  V30 905 H 88.2139 -4.2353 -0.19964 0
M  V30 906 C 86.6729 -3.14453 -1.20918 0
M  V30 907 O 87.2029 -3.29459 -2.29825 0
M  V30 908 N 85.4089 -2.68657 -1.10779 0
M  V30 909 H 84.9559 -2.56646 -0.221526 0
M  V30 910 H 84.9139 -2.46804 -1.9477 0
M  V30 911 N 88.686 -0.835752 -1.33615 0
M  V30 912 C 89.911 -0.442389 -2.02627 0
M  V30 913 C 90.336 0.947735 -1.62479 0
M  V30 914 O 89.694 1.61907 -0.815826 0
M  V30 915 C 89.742 -0.567216 -3.56111 0
M  V30 916 O 88.846 0.407799 -4.10379 0
M  V30 917 H 88.187 -0.180278 -0.639059 0
M  V30 918 H 90.717 -1.12972 -1.70583 0
M  V30 919 H 90.727 -0.447708 -4.05536 0
M  V30 920 H 89.402 -1.58103 -3.84677 0
M  V30 921 H 87.979 0.246107 -3.72087 0
M  V30 922 N 90.1641 1.46063 -0.591896 0
M  V30 923 C 91.1111 2.30399 0.136069 0
M  V30 924 C 92.0811 1.41169 0.875238 0
M  V30 925 O 93.2661 1.70112 0.86409 0
M  V30 926 C 90.4061 3.25804 1.13781 0
M  V30 927 C 89.5191 4.30134 0.401137 0
M  V30 928 C 88.6541 5.12659 1.39121 0
M  V30 929 C 87.6931 6.0873 0.641462 0
M  V30 930 N 86.8301 6.8409 1.58004 0
M  V30 931 H 91.6701 2.92118 -0.589144 0
M  V30 932 H 89.2071 1.43959 -0.302342 0
M  V30 933 H 91.1651 3.79569 1.73156 0
M  V30 934 H 89.7951 2.65872 1.83062 0
M  V30 935 H 88.8471 3.79152 -0.307826 0
M  V30 936 H 90.1591 4.98458 -0.184565 0
M  V30 937 H 89.3131 5.70747 2.05749 0
M  V30 938 H 88.0521 4.44316 2.01084 0
M  V30 939 H 87.0571 5.49786 -0.0385419 0
M  V30 940 H 88.2821 6.79095 0.0270945 0
M  V30 941 H 86.2281 6.18449 2.18761 0
M  V30 942 H 86.1451 7.48709 1.04738 0
M  V30 943 H 87.4131 7.4673 2.23639 0
M  V30 944 N 91.6422 0.330177 1.54103 0
M  V30 945 C 92.5902 -0.548226 2.26047 0
M  V30 946 C 93.5842 -1.11309 1.27698 0
M  V30 947 O 94.7902 -1.06036 1.45452 0
M  V30 948 H 91.1652 -0.195456 0.726155 0
M  V30 949 H 93.1362 0.0807567 2.98291 0
M  V30 950 C 91.8852 -1.69415 3.03634 0
M  V30 951 H 91.2082 -1.26876 3.79134 0
M  V30 952 H 92.6482 -2.28423 3.5721 0
M  V30 953 C 91.1072 -2.61569 2.12328 0
M  V30 954 O 91.6372 -3.63462 1.7105 0
M  V30 955 N 89.8432 -2.29952 1.77681 0
M  V30 956 H 89.3902 -1.47134 2.11446 0
M  V30 957 H 89.3482 -2.91871 1.16869 0
M  V30 958 N 93.1203 -1.57491 0.0584922 0
M  V30 959 C 94.3483 -1.97296 -0.623037 0
M  V30 960 C 94.7633 -0.936338 -1.63946 0
M  V30 961 O 94.1203 0.0785981 -1.82331 0
M  V30 962 C 94.1713 -3.37183 -1.30345 0
M  V30 963 O 93.8923 -4.36872 -0.32773 0
M  V30 964 C 95.3933 -3.91788 -2.07406 0
M  V30 965 H 92.6133 -0.649153 -0.169826 0
M  V30 966 H 95.1573 -2.04106 0.12696 0
M  V30 967 H 93.3123 -3.31502 -2.00463 0
M  V30 968 H 93.7263 -5.18141 -0.814269 0
M  V30 969 H 95.2003 -4.91926 -2.50425 0
M  V30 970 H 95.6773 -3.27609 -2.92521 0
M  V30 971 H 96.2833 -4.00829 -1.42184 0
M  V30 972 N 94.5984 0.214957 -1.56127 0
M  V30 973 C 96.0094 0.781386 -1.69562 0
M  V30 974 C 96.3604 1.84707 -0.66165 0
M  V30 975 O 95.4854 2.156 0.185927 0
M  V30 976 C 96.0804 1.42411 -3.07416 0
M  V30 977 C 94.6394 1.93786 -3.22683 0
M  V30 978 C 93.7864 0.800438 -2.65496 0
M  V30 979 H 96.7374 -0.00980633 -1.58697 0
M  V30 980 H 96.7584 2.29309 -3.0364 0
M  V30 981 H 96.2704 0.64826 -3.82648 0
M  V30 982 H 94.3714 2.74152 -2.52332 0
M  V30 983 H 94.4844 2.1133 -4.29973 0
M  V30 984 H 92.8484 1.2095 -2.2415 0
M  V30 985 H 93.6314 0.0371471 -3.4328 0
M  V30 986 N 96.0765 1.50051 0.48192 0
M  V30 987 C 97.3225 1.60736 1.2366 0
M  V30 988 C 97.6555 0.301786 1.91841 0
M  V30 989 O 96.9305 -0.696025 1.8162 0
M  V30 990 C 97.2135 2.78009 2.28874 0
M  V30 991 C 97.0665 4.18416 1.65069 0
M  V30 992 C 98.3855 2.90867 3.30279 0
M  V30 993 H 95.5045 0.585031 0.448228 0
M  V30 994 H 98.1465 1.82402 0.531946 0
M  V30 995 H 96.2965 2.59667 2.88973 0
M  V30 996 H 97.9685 4.48322 1.0865 0
M  V30 997 H 96.2115 4.23177 0.954148 0
M  V30 998 H 96.8825 4.96381 2.41474 0
M  V30 999 H 99.3585 3.07623 2.80191 0
M  V30 1000 H 98.2345 3.74566 4.01238 0
M  V30 1001 H 98.4955 2.01021 3.93755 0
M  V30 1002 N 97.5546 -0.734337 1.39446 0
M  V30 1003 C 98.8016 -1.49391 1.36706 0
M  V30 1004 C 99.1296 -1.94465 -0.0367813 0
M  V30 1005 O 98.3846 -1.67154 -1.01774 0
M  V30 1006 C 98.6836 -2.74711 2.28623 0
M  V30 1007 C 98.3496 -2.48501 3.76242 0
M  V30 1008 C 97.0116 -2.41062 4.16464 0
M  V30 1009 C 99.3636 -2.26098 4.69606 0
M  V30 1010 C 96.6916 -2.09262 5.48112 0
M  V30 1011 C 99.0436 -1.95814 6.01531 0
M  V30 1012 C 97.7076 -1.86845 6.40816 0
M  V30 1013 H 96.9776 -0.546661 0.500243 0
M  V30 1014 H 99.6246 -0.842788 1.71957 0
M  V30 1015 H 97.9296 -3.44569 1.86492 0
M  V30 1016 H 99.6266 -3.32741 2.23796 0
M  V30 1017 H 96.2166 -2.55169 3.44364 0
M  V30 1018 H 100.401 -2.30812 4.39363 0
M  V30 1019 H 95.6566 -2.00841 5.77471 0
M  V30 1020 H 99.8306 -1.77488 6.73403 0
M  V30 1021 H 97.4576 -1.6197 7.42745 0
M  V30 1022 N 99.0327 -1.24633 -0.964593 0
M  V30 1023 C 100.449 -1.01239 -1.2338 0
M  V30 1024 C 100.649 0.2769 -1.99588 0
M  V30 1025 O 99.7047 0.992241 -2.32187 0
M  V30 1026 C 101.018 -2.22937 -2.01791 0
M  V30 1027 C 102.566 -2.27594 -2.14872 0
M  V30 1028 C 103.041 -3.48921 -2.96678 0
M  V30 1029 N 104.532 -3.49257 -3.04259 0
M  V30 1030 C 105.267 -4.39795 -3.67924 0
M  V30 1031 N 104.763 -5.40591 -4.33281 0
M  V30 1032 N 106.556 -4.275 -3.64966 0
M  V30 1033 H 98.7067 -2.0748 -0.454502 0
M  V30 1034 H 100.97 -0.910647 -0.26349 0
M  V30 1035 H 100.676 -3.16587 -1.53184 0
M  V30 1036 H 100.55 -2.25306 -3.02518 0
M  V30 1037 H 102.937 -1.34473 -2.6268 0
M  V30 1038 H 103.018 -2.2925 -1.13482 0
M  V30 1039 H 102.662 -4.42359 -2.49562 0
M  V30 1040 H 102.592 -3.4451 -3.98272 0
M  V30 1041 H 105.083 -2.76337 -2.57771 0
M  V30 1042 H 105.396 -6.05904 -4.79687 0
M  V30 1043 H 103.741 -5.44475 -4.3194 0
M  V30 1044 H 106.932 -3.47987 -3.13086 0
M  V30 1045 H 107.105 -4.98258 -4.14298 0
M  V30 1046 N 100.511 1.16574 -1.06058 0
M  V30 1047 C 101.444 2.19798 -0.61352 0
M  V30 1048 C 102.422 1.58509 0.362453 0
M  V30 1049 O 103.606 1.86527 0.271994 0
M  V30 1050 C 100.733 3.3855 0.100915 0
M  V30 1051 C 99.7788 4.18317 -0.831438 0
M  V30 1052 S 100.612 4.82375 -2.32539 0
M  V30 1053 C 101.768 6.04508 -1.62238 0
M  V30 1054 H 102.001 2.5738 -1.48805 0
M  V30 1055 H 99.5338 1.27327 -0.873338 0
M  V30 1056 H 101.492 4.07358 0.506898 0
M  V30 1057 H 100.153 2.99338 0.951604 0
M  V30 1058 H 99.3458 5.03232 -0.278071 0
M  V30 1059 H 98.9478 3.5499 -1.17719 0
M  V30 1060 H 101.24 6.71133 -0.926622 0
M  V30 1061 H 102.183 6.64389 -2.44934 0
M  V30 1062 H 102.591 5.53559 -1.106 0
M  V30 1063 N 101.989 0.842826 1.3317 0
M  V30 1064 C 103.405 0.531128 1.50503 0
M  V30 1065 C 103.605 -0.940734 1.78192 0
M  V30 1066 O 102.661 -1.72436 1.84451 0
M  V30 1067 C 103.974 1.40789 2.65705 0
M  V30 1068 C 105.522 1.40708 2.79589 0
M  V30 1069 C 105.997 2.26878 3.97857 0
M  V30 1070 N 107.488 2.24609 4.05099 0
M  V30 1071 C 108.223 2.88019 4.95815 0
M  V30 1072 N 107.719 3.60496 5.9162 0
M  V30 1073 N 109.512 2.77469 4.88843 0
M  V30 1074 H 101.663 1.79557 1.1346 0
M  V30 1075 H 103.926 0.766267 0.558156 0
M  V30 1076 H 103.632 2.454 2.51936 0
M  V30 1077 H 103.506 1.08677 3.61205 0
M  V30 1078 H 105.893 0.368668 2.92788 0
M  V30 1079 H 105.974 1.76829 1.84838 0
M  V30 1080 H 105.618 3.3078 3.85418 0
M  V30 1081 H 105.548 1.88096 4.91861 0
M  V30 1082 H 108.039 1.71906 3.36536 0
M  V30 1083 H 108.352 4.06076 6.57512 0
M  V30 1084 H 106.697 3.64604 5.91683 0
M  V30 1085 H 109.888 2.20406 4.12963 0
M  V30 1086 H 110.061 3.2717 5.59342 0
M  V30 1087 N 103.467 -1.45747 0.599634 0
M  V30 1088 C 104.744 -1.95585 0.0240846 0
M  V30 1089 C 105.124 -1.54217 -1.44154 0
M  V30 1090 O 104.472 -0.800903 -2.14004 0
M  V30 1091 C 104.682 -3.48344 0.21385 0
M  V30 1092 C 106.03 -4.24504 0.0904902 0
M  V30 1093 O 107.054 -3.55911 0.143558 0
M  V30 1094 O 105.913 -5.46491 -0.0310766 0
M  V30 1095 H 103.007 -0.82602 -0.0402478 0
M  V30 1096 H 105.553 -1.55951 0.669139 0
M  V30 1097 H 104.325 -3.71397 1.23206 0
M  V30 1098 H 103.948 -3.9485 -0.466842 0
M  V30 1099 N 104.945 -0.338344 -1.53925 0
M  V30 1100 C 106.191 0.260143 -2.01125 0
M  V30 1101 C 106.524 1.50617 -1.22589 0
M  V30 1102 O 105.799 1.91979 -0.312113 0
M  V30 1103 C 106.082 0.579499 -3.55407 0
M  V30 1104 C 105.935 -0.678264 -4.44657 0
M  V30 1105 C 107.254 1.39122 -4.17532 0
M  V30 1106 H 104.373 0.0930772 -0.731099 0
M  V30 1107 H 107.015 -0.457852 -1.84401 0
M  V30 1108 H 105.165 1.19118 -3.69788 0
M  V30 1109 H 106.837 -1.31631 -4.42121 0
M  V30 1110 H 105.08 -1.3042 -4.13731 0
M  V30 1111 H 105.751 -0.410143 -5.50474 0
M  V30 1112 H 108.227 0.874035 -4.06817 0
M  V30 1113 H 107.103 1.58342 -5.25565 0
M  V30 1114 H 107.364 2.39178 -3.71815 0
M  V30 1115 N 106.423 1.57458 -0.0668435 0
M  V30 1116 C 107.672 1.92477 0.602947 0
M  V30 1117 C 107.985 0.948419 1.71068 0
M  V30 1118 O 109.191 1.19124 2.43971 0
M  V30 1119 C 107.647 3.41903 1.12383 0
M  V30 1120 C 107.255 4.47975 0.04737 0
M  V30 1121 C 108.999 3.85931 1.76797 0
M  V30 1122 C 106.906 5.88529 0.582022 0
M  V30 1123 H 105.836 0.718387 0.22899 0
M  V30 1124 H 108.487 1.82978 -0.138276 0
M  V30 1125 H 106.869 3.46459 1.91787 0
M  V30 1126 H 108.043 4.55029 -0.726978 0
M  V30 1127 H 106.358 4.13384 -0.500243 0
M  V30 1128 H 108.955 4.88322 2.17821 0
M  V30 1129 H 109.298 3.23029 2.62599 0
M  V30 1130 H 109.831 3.83958 1.04024 0
M  V30 1131 H 106.57 6.55065 -0.238721 0
M  V30 1132 H 106.09 5.85004 1.324 0
M  V30 1133 H 107.769 6.38258 1.05999 0
M  V30 1134 N 107.901 -0.206675 1.56239 0
M  V30 1135 C 108.831 -1.25909 1.96645 0
M  V30 1136 C 109.812 -1.48097 0.836734 0
M  V30 1137 O 110.997 -1.6003 1.10019 0
M  V30 1138 C 108.127 -2.6058 2.29599 0
M  V30 1139 C 107.081 -2.53024 3.452 0
M  V30 1140 C 106.407 -3.91861 3.63798 0
M  V30 1141 C 107.707 -2.06524 4.79734 0
M  V30 1142 H 109.401 -0.923369 2.84806 0
M  V30 1143 H 106.947 -0.442735 1.37025 0
M  V30 1144 H 108.9 -3.34375 2.56459 0
M  V30 1145 H 107.624 -2.95869 1.38307 0
M  V30 1146 H 106.283 -1.81684 3.18412 0
M  V30 1147 H 105.931 -4.24483 2.69857 0
M  V30 1148 H 105.631 -3.87683 4.4156 0
M  V30 1149 H 107.155 -4.67296 3.93022 0
M  V30 1150 H 108.569 -2.70072 5.05702 0
M  V30 1151 H 106.966 -2.13374 5.60885 0
M  V30 1152 H 108.036 -1.01802 4.74093 0
M  V30 1153 N 109.379 -1.50304 -0.473955 0
M  V30 1154 C 110.609 -1.64663 -1.24778 0
M  V30 1155 C 111.017 -0.328174 -1.86332 0
M  V30 1156 O 110.36 0.699536 -1.69859 0
M  V30 1157 C 110.422 -2.6778 -2.39863 0
M  V30 1158 C 110.086 -4.11413 -1.98969 0
M  V30 1159 C 111.083 -4.97372 -1.51385 0
M  V30 1160 C 108.768 -4.57312 -2.07777 0
M  V30 1161 C 110.762 -6.27277 -1.13148 0
M  V30 1162 C 108.449 -5.87223 -1.69152 0
M  V30 1163 C 109.447 -6.72031 -1.21915 0
M  V30 1164 O 109.135 -7.99518 -0.838237 0
M  V30 1165 H 108.867 -0.556602 -0.383627 0
M  V30 1166 H 111.421 -1.9726 -0.572491 0
M  V30 1167 H 109.651 -2.30419 -3.10554 0
M  V30 1168 H 111.34 -2.71388 -3.01833 0
M  V30 1169 H 112.106 -4.63128 -1.44004 0
M  V30 1170 H 107.985 -3.91449 -2.43493 0
M  V30 1171 H 111.529 -6.93425 -0.762077 0
M  V30 1172 H 107.426 -6.20989 -1.76191 0
M  V30 1173 H 108.194 -8.12764 -0.967339 0
M  V30 1174 N 110.857 0.726932 -1.39834 0
M  V30 1175 C 111.767 1.87131 -1.41489 0
M  V30 1176 C 112.783 1.71239 -0.308757 0
M  V30 1177 O 113.959 1.93701 -0.551529 0
M  V30 1178 C 111.024 3.22811 -1.26468 0
M  V30 1179 C 110.085 3.51039 -2.47124 0
M  V30 1180 C 109.318 4.80245 -2.3281 0
M  V30 1181 O 109.541 5.54537 -1.33585 0
M  V30 1182 O 108.475 5.08554 -3.21957 0
M  V30 1183 H 112.301 1.8869 -2.3797 0
M  V30 1184 H 109.886 0.875837 -1.21035 0
M  V30 1185 H 111.768 4.03877 -1.20255 0
M  V30 1186 H 110.443 3.22005 -0.330862 0
M  V30 1187 H 109.35 2.70027 -2.58914 0
M  V30 1188 H 110.683 3.56632 -3.39227 0
M  V30 1189 N 112.336 1.25143 0.95797 0
M  V30 1190 C 113.283 1.05235 2.05412 0
M  V30 1191 C 114.253 -0.0374561 1.66058 0
M  V30 1192 O 115.438 0.119073 1.90428 0
M  V30 1193 C 112.578 0.673589 3.38462 0
M  V30 1194 C 111.691 1.8379 3.90954 0
M  V30 1195 C 110.826 1.40381 5.12315 0
M  V30 1196 C 109.865 2.53746 5.57027 0
M  V30 1197 N 109.002 2.11136 6.69601 0
M  V30 1198 H 113.842 1.99048 2.21774 0
M  V30 1199 H 111.379 0.991277 1.08683 0
M  V30 1200 H 113.337 0.434964 4.14926 0
M  V30 1201 H 111.967 -0.227554 3.21997 0
M  V30 1202 H 111.019 2.18992 3.11041 0
M  V30 1203 H 112.331 2.68937 4.20089 0
M  V30 1204 H 111.485 1.12464 5.96185 0
M  V30 1205 H 110.224 0.523015 4.84887 0
M  V30 1206 H 109.229 2.82412 4.71724 0
M  V30 1207 H 110.454 3.42398 5.86464 0
M  V30 1208 H 108.4 1.25468 6.4389 0
M  V30 1209 H 108.317 2.89832 6.98236 0
M  V30 1210 H 109.585 1.86385 7.56889 0
M  V30 1211 N 113.814 -1.1601 1.06675 0
M  V30 1212 C 115.23 -1.38622 0.790948 0
M  V30 1213 C 115.43 -1.92109 -0.607965 0
M  V30 1214 O 114.486 -2.12239 -1.36787 0
M  V30 1215 C 115.799 -2.36347 1.85905 0
M  V30 1216 C 117.347 -2.50023 1.88301 0
M  V30 1217 C 117.822 -3.51033 2.94176 0
M  V30 1218 N 119.313 -3.58563 2.93235 0
M  V30 1219 C 120.048 -4.36521 3.71803 0
M  V30 1220 N 119.544 -5.17869 4.602 0
M  V30 1221 N 121.337 -4.31541 3.60178 0
M  V30 1222 H 113.488 -0.796294 1.96908 0
M  V30 1223 H 115.751 -0.412597 0.853503 0
M  V30 1224 H 115.457 -2.04147 2.86386 0
M  V30 1225 H 115.331 -3.36042 1.71334 0
M  V30 1226 H 117.718 -2.81524 0.884769 0
M  V30 1227 H 117.799 -1.5035 2.06951 0
M  V30 1228 H 117.443 -3.20268 3.94196 0
M  V30 1229 H 117.373 -4.50445 2.72776 0
M  V30 1230 H 119.864 -3.00496 2.29152 0
M  V30 1231 H 120.177 -5.74578 5.16797 0
M  V30 1232 H 118.522 -5.17199 4.64253 0
M  V30 1233 H 121.713 -3.67051 2.90502 0
M  V30 1234 H 121.886 -4.9205 4.21653 0
M  V30 1235 N 115.292 -0.849877 -1.32721 0
M  V30 1236 C 116.541 -0.447175 -1.96681 0
M  V30 1237 C 116.854 1.00135 -1.68025 0
M  V30 1238 O 118.06 1.50926 -2.25685 0
M  V30 1239 C 116.516 -0.7487 -3.52026 0
M  V30 1240 C 116.124 -2.21264 -3.89546 0
M  V30 1241 C 117.868 -0.413487 -4.22481 0
M  V30 1242 C 115.775 -2.45763 -5.37917 0
M  V30 1243 H 114.705 -0.163486 -0.736063 0
M  V30 1244 H 117.356 -1.03999 -1.51183 0
M  V30 1245 H 115.738 -0.0853727 -3.95908 0
M  V30 1246 H 116.912 -2.91736 -3.56689 0
M  V30 1247 H 115.227 -2.5119 -3.32103 0
M  V30 1248 H 117.824 -0.574017 -5.3161 0
M  V30 1249 H 118.167 0.644492 -4.11281 0
M  V30 1250 H 118.7 -1.03251 -3.84167 0
M  V30 1251 H 115.439 -3.50168 -5.54132 0
M  V30 1252 H 114.959 -1.79864 -5.72197 0
M  V30 1253 H 116.638 -2.29471 -6.0494 0
M  V30 1254 N 116.77 1.45427 -0.607355 0
M  V30 1255 C 118 2.06314 -0.108656 0
M  V30 1256 C 118.408 1.45269 1.21217 0
M  V30 1257 O 117.751 0.561115 1.74921 0
M  V30 1258 C 117.813 3.59345 0.105618 0
M  V30 1259 C 117.477 4.42723 -1.13337 0
M  V30 1260 C 118.474 4.77715 -2.05145 0
M  V30 1261 C 116.159 4.83478 -1.36213 0
M  V30 1262 C 118.153 5.52317 -3.18158 0
M  V30 1263 C 115.84 5.57835 -2.49527 0
M  V30 1264 C 116.838 5.92171 -3.40327 0
M  V30 1265 O 116.526 6.65019 -4.51669 0
M  V30 1266 H 116.258 0.672782 -0.0658842 0
M  V30 1267 H 118.812 1.87664 -0.834945 0
M  V30 1268 H 117.042 3.76394 0.886796 0
M  V30 1269 H 118.731 4.02076 0.555886 0
M  V30 1270 H 119.497 4.46787 -1.88697 0
M  V30 1271 H 115.376 4.56188 -0.664362 0
M  V30 1272 H 118.92 5.79036 -3.89054 0
M  V30 1273 H 114.817 5.88177 -2.65928 0
M  V30 1274 H 115.585 6.83469 -4.50348 0
M  V30 1275 N 118.248 0.346503 1.53744 0
M  V30 1276 C 119.178 -0.501193 2.28058 0
M  V30 1277 C 120.159 -1.10014 1.29734 0
M  V30 1278 O 121.344 -1.12097 1.58581 0
M  V30 1279 C 118.474 -1.65078 3.05559 0
M  V30 1280 C 117.428 -1.18003 4.11411 0
M  V30 1281 C 116.754 -2.41837 4.76884 0
M  V30 1282 C 118.054 -0.278394 5.21558 0
M  V30 1283 H 119.748 0.11875 2.99164 0
M  V30 1284 H 117.294 0.0585531 1.43881 0
M  V30 1285 H 119.247 -2.25028 3.56287 0
M  V30 1286 H 117.971 -2.29767 2.32109 0
M  V30 1287 H 116.63 -0.603331 3.61601 0
M  V30 1288 H 116.278 -3.0494 4.00026 0
M  V30 1289 H 115.978 -2.1102 5.48402 0
M  V30 1290 H 117.502 -3.02508 5.30397 0
M  V30 1291 H 118.916 -0.784823 5.67903 0
M  V30 1292 H 117.313 -0.0619707 6.00068 0
M  V30 1293 H 118.383 0.684677 4.80042 0
M  V30 1294 N 119.726 -1.57421 0.075193 0
M  V30 1295 C 120.656 -2.15942 -0.888324 0
M  V30 1296 C 121.637 -1.08737 -1.30806 0
M  V30 1297 O 122.822 -1.36787 -1.37851 0
M  V30 1298 C 119.952 -2.72379 -2.1547 0
M  V30 1299 C 118.906 -3.8478 -1.87425 0
M  V30 1300 C 118.232 -4.27834 -3.20721 0
M  V30 1301 C 119.532 -5.08869 -1.17684 0
M  V30 1302 H 121.226 -2.96705 -0.400799 0
M  V30 1303 H 118.772 -1.42723 -0.191342 0
M  V30 1304 H 120.725 -3.11965 -2.83295 0
M  V30 1305 H 119.449 -1.88841 -2.6647 0
M  V30 1306 H 118.108 -3.45703 -1.22004 0
M  V30 1307 H 117.756 -3.41214 -3.6957 0
M  V30 1308 H 117.456 -5.03605 -3.02746 0
M  V30 1309 H 118.98 -4.70039 -3.89738 0
M  V30 1310 H 120.394 -5.4575 -1.75584 0
M  V30 1311 H 118.791 -5.8994 -1.09956 0
M  V30 1312 H 119.861 -4.84648 -0.156453 0
M  V30 1313 N 121.204 0.198386 -1.56346 0
M  V30 1314 C 122.114 1.2664 -1.97483 0
M  V30 1315 C 123.13 1.49989 -0.882002 0
M  V30 1316 O 124.306 1.62668 -1.18748 0
M  V30 1317 C 121.371 2.59141 -2.30319 0
M  V30 1318 C 120.432 2.43892 -3.53292 0
M  V30 1319 C 119.665 3.70074 -3.84553 0
M  V30 1320 O 119.888 4.74101 -3.1715 0
M  V30 1321 O 118.822 3.658 -4.7799 0
M  V30 1322 H 122.648 0.947304 -2.88548 0
M  V30 1323 H 120.233 0.403123 -1.43859 0
M  V30 1324 H 122.115 3.37352 -2.5253 0
M  V30 1325 H 120.79 2.90684 -1.42423 0
M  V30 1326 H 119.697 1.63803 -3.36332 0
M  V30 1327 H 121.03 2.17282 -4.41644 0
M  V30 1328 N 122.682 1.50554 0.465978 0
M  V30 1329 C 123.922 1.63439 1.22747 0
M  V30 1330 C 124.286 0.329822 1.89146 0
M  V30 1331 O 125.487 0.334161 2.66715 0
M  V30 1332 C 123.758 2.78542 2.2394 0
M  V30 1333 S 125.317 3.11591 3.0896 0
M  V30 1334 H 122.135 0.576113 0.416672 0
M  V30 1335 H 124.737 1.88357 0.523641 0
M  V30 1336 H 123.441 3.71805 1.7375 0
M  V30 1337 H 122.972 2.55726 2.98944 0
M  V30 1338 H 124.987 2.55811 4.25176 0
M  V30 1339 N 124.16 -0.719506 1.40217 0
M  V30 1340 C 125.107 -1.83359 1.40172 0
M  V30 1341 C 126.077 -1.64065 0.259206 0
M  V30 1342 O 127.262 -1.85254 0.456677 0
M  V30 1343 C 124.402 -3.2103 1.26624 0
M  V30 1344 C 123.515 -3.51923 2.50548 0
M  V30 1345 C 122.65 -4.79079 2.29471 0
M  V30 1346 C 121.689 -5.02863 3.48992 0
M  V30 1347 N 120.826 -6.2123 3.27135 0
M  V30 1348 H 125.666 -1.82733 2.35399 0
M  V30 1349 H 123.203 -0.892688 1.16917 0
M  V30 1350 H 125.161 -4.00524 1.16776 0
M  V30 1351 H 123.791 -3.20895 0.350176 0
M  V30 1352 H 122.843 -2.67014 2.70939 0
M  V30 1353 H 124.155 -3.6541 3.39525 0
M  V30 1354 H 123.309 -5.66582 2.16955 0
M  V30 1355 H 122.048 -4.67794 1.37913 0
M  V30 1356 H 121.053 -4.13816 3.6199 0
M  V30 1357 H 122.278 -5.16023 4.41472 0
M  V30 1358 H 120.224 -6.11204 2.38256 0
M  V30 1359 H 120.141 -6.35375 4.09675 0
M  V30 1360 H 121.409 -7.11532 3.18344 0
M  V30 1361 N 125.638 -1.25649 -0.95132 0
M  V30 1362 C 126.866 -1.13343 -1.73092 0
M  V30 1363 C 127.281 0.312434 -1.86197 0
M  V30 1364 O 126.638 1.21465 -1.36207 0
M  V30 1365 C 126.689 -1.78602 -3.14299 0
M  V30 1366 O 126.41 -3.17537 -3.01831 0
M  V30 1367 C 127.911 -1.72119 -4.08522 0
M  V30 1368 H 125.131 -0.395181 -0.542285 0
M  V30 1369 H 127.675 -1.66076 -1.19328 0
M  V30 1370 H 125.83 -1.29832 -3.64996 0
M  V30 1371 H 126.244 -3.49676 -3.90931 0
M  V30 1372 H 127.718 -2.22435 -5.052 0
M  V30 1373 H 128.195 -0.685635 -4.33815 0
M  V30 1374 H 128.801 -2.20393 -3.63741 0
M  V30 1375 N 127.117 1.15442 -1.07289 0
M  V30 1376 C 128.365 1.85845 -0.794096 0
M  V30 1377 C 128.686 1.82692 0.681809 0
M  V30 1378 O 127.956 1.26741 1.49377 0
M  V30 1379 H 126.536 0.688089 -0.290763 0
M  V30 1380 H 129.198 1.39947 -1.3565 0
M  V30 1381 H 128.294 2.91001 -1.12804 0
M  V30 1382 N 128.595 0.856903 1.32268 0
M  V30 1383 C 129.543 0.291987 2.3076 0
M  V30 1384 C 130.537 -0.585857 1.58947 0
M  V30 1385 O 131.743 -0.47341 1.73663 0
M  V30 1386 H 128.118 0.075721 0.748178 0
M  V30 1387 H 130.089 1.13687 2.75895 0
M  V30 1388 C 128.838 -0.502869 3.44044 0
M  V30 1389 H 128.161 0.163328 3.99466 0
M  V30 1390 H 129.601 -0.863691 4.1511 0
M  V30 1391 C 128.06 -1.68898 2.91505 0
M  V30 1392 O 128.59 -2.78811 2.89184 0
M  V30 1393 N 126.796 -1.51679 2.47875 0
M  V30 1394 H 126.343 -0.622666 2.49961 0
M  V30 1395 H 126.301 -2.31184 2.13076 0
M  V30 1396 N 130.073 -1.45103 0.615059 0
M  V30 1397 C 131.321 -2.01784 0.112955 0
M  V30 1398 C 131.642 -1.48504 -1.26378 0
M  V30 1399 O 130.912 -0.682245 -1.83636 0
M  V30 1400 H 129.492 -0.745993 0.0387668 0
M  V30 1401 H 132.154 -1.77808 0.798141 0
M  V30 1402 H 131.25 -3.12025 0.0684069 0
M  V30 1403 N 131.551 -0.354651 -1.53558 0
M  V30 1404 C 132.483 0.5315 -2.22952 0
M  V30 1405 C 133.496 1.05503 -1.23988 0
M  V30 1406 O 134.685 0.963279 -1.50277 0
M  V30 1407 C 131.785 1.74538 -2.90499 0
M  V30 1408 C 130.958 1.35524 -4.15875 0
M  V30 1409 C 130.017 2.42999 -4.66731 0
M  V30 1410 O 129.043 2.05844 -5.30676 0
M  V30 1411 N 130.245 3.74423 -4.43608 0
M  V30 1412 H 133.01 -0.0628615 -2.99634 0
M  V30 1413 H 130.571 -0.179302 -1.60904 0
M  V30 1414 H 132.563 2.45892 -3.21433 0
M  V30 1415 H 131.133 2.24686 -2.17336 0
M  V30 1416 H 130.353 0.471998 -3.91364 0
M  V30 1417 H 131.641 1.07071 -4.97406 0
M  V30 1418 H 131.039 4.07391 -3.92491 0
M  V30 1419 H 129.596 4.41913 -4.7912 0
M  V30 1420 N 133.029 1.57378 -0.0835403 0
M  V30 1421 C 134.257 1.98263 0.59157 0
M  V30 1422 C 134.672 0.962302 1.62435 0
M  V30 1423 O 134.029 -0.049581 1.82433 0
M  V30 1424 C 134.08 3.39214 1.24965 0
M  V30 1425 O 133.801 4.37339 0.258186 0
M  V30 1426 C 135.302 3.95038 2.01147 0
M  V30 1427 H 132.522 0.651773 0.159477 0
M  V30 1428 H 135.066 2.03878 -0.159415 0
M  V30 1429 H 133.221 3.34649 1.95164 0
M  V30 1430 H 133.635 5.19371 0.731734 0
M  V30 1431 H 135.109 4.95848 2.42567 0
M  V30 1432 H 135.586 3.32222 2.87272 0
M  V30 1433 H 136.192 4.0304 1.35789 0
M  V30 1434 N 134.507 -0.190092 1.56449 0
M  V30 1435 C 135.737 -0.92443 1.84764 0
M  V30 1436 C 136.145 -1.77146 0.664529 0
M  V30 1437 O 135.488 -1.79812 -0.375957 0
M  V30 1438 C 135.55 -1.86651 3.07248 0
M  V30 1439 C 135.214 -1.20094 4.40938 0
M  V30 1440 C 136.211 -0.575445 5.16706 0
M  V30 1441 C 133.896 -1.2033 4.87674 0
M  V30 1442 C 135.89 0.0388111 6.37388 0
M  V30 1443 C 133.577 -0.585214 6.08291 0
M  V30 1444 C 134.575 0.0347578 6.82991 0
M  V30 1445 O 134.263 0.643147 8.01323 0
M  V30 1446 H 133.995 -0.274974 0.617548 0
M  V30 1447 H 136.549 -0.200788 2.04416 0
M  V30 1448 H 134.779 -2.62998 2.83494 0
M  V30 1449 H 136.468 -2.46907 3.22167 0
M  V30 1450 H 137.234 -0.565728 4.81689 0
M  V30 1451 H 133.113 -1.67526 4.29484 0
M  V30 1452 H 136.657 0.523329 6.95634 0
M  V30 1453 H 132.554 -0.592451 6.42775 0
M  V30 1454 H 133.322 0.540545 8.16713 0
M  V30 1455 N 135.985 -1.50799 -0.457987 0
M  V30 1456 C 137.401 -1.38515 -0.792819 0
M  V30 1457 C 137.601 -0.451409 -1.96379 0
M  V30 1458 O 136.657 0.10112 -2.52297 0
M  V30 1459 C 137.97 -2.80149 -1.09258 0
M  V30 1460 C 139.518 -2.89156 -1.19825 0
M  V30 1461 C 139.993 -4.31651 -1.53106 0
M  V30 1462 N 141.484 -4.34662 -1.60072 0
M  V30 1463 C 142.219 -5.41928 -1.87354 0
M  V30 1464 N 141.715 -6.59384 -2.12568 0
M  V30 1465 N 143.508 -5.29385 -1.88965 0
M  V30 1466 H 135.659 -2.10073 0.313511 0
M  V30 1467 H 137.922 -0.944803 0.0777862 0
M  V30 1468 H 137.628 -3.50374 -0.305084 0
M  V30 1469 H 137.502 -3.18204 -2.02549 0
M  V30 1470 H 139.889 -2.19141 -1.97639 0
M  V30 1471 H 139.97 -2.54626 -0.244821 0
M  V30 1472 H 139.614 -5.02208 -0.758266 0
M  V30 1473 H 139.544 -4.63678 -2.49621 0
M  V30 1474 H 142.035 -3.49973 -1.42573 0
M  V30 1475 H 142.348 -7.36934 -2.32696 0
M  V30 1476 H 140.693 -6.62535 -2.09933 0
M  V30 1477 H 143.884 -4.36616 -1.68772 0
M  V30 1478 H 144.057 -6.13066 -2.09891 0
M  V30 1479 N 137.463 0.71206 -1.40597 0
M  V30 1480 C 138.711 1.46907 -1.38791 0
M  V30 1481 C 139.032 1.94998 0.00780391 0
M  V30 1482 O 138.302 1.70587 0.963174 0
M  V30 1483 H 136.882 0.545043 -0.51082 0
M  V30 1484 H 139.544 0.843882 -1.75683 0
M  V30 1485 H 138.64 2.34021 -2.06496 0
M  V30 1486 N 138.941 1.26152 0.944643 0
M  V30 1487 C 140.169 1.14259 1.72489 0
M  V30 1488 C 140.584 -0.302555 1.8636 0
M  V30 1489 O 139.941 -1.20741 1.36849 0
M  V30 1490 C 139.992 1.80266 3.13347 0
M  V30 1491 O 139.713 3.19133 3.00143 0
M  V30 1492 C 141.214 1.74283 4.07603 0
M  V30 1493 H 138.434 0.398051 0.540181 0
M  V30 1494 H 140.978 1.66706 1.18446 0
M  V30 1495 H 139.133 1.31766 3.64303 0
M  V30 1496 H 139.547 3.51744 3.89071 0
M  V30 1497 H 141.021 2.25111 5.04013 0
M  V30 1498 H 141.498 0.708631 4.33446 0
M  V30 1499 H 142.104 2.22319 3.62567 0
M  V30 1500 N 140.419 -1.14872 1.07899 0
M  V30 1501 C 141.647 -1.89661 0.82683 0
M  V30 1502 C 142.062 -1.78312 -0.620519 0
M  V30 1503 O 141.419 -1.13888 -1.42604 0
M  V30 1504 C 141.47 -3.39817 1.23316 0
M  V30 1505 O 141.191 -3.50845 2.62372 0
M  V30 1506 C 142.692 -4.31615 1.0111 0
M  V30 1507 H 139.912 -0.60092 0.298557 0
M  V30 1508 H 142.456 -1.4551 1.43691 0
M  V30 1509 H 140.611 -3.8161 0.667286 0
M  V30 1510 H 141.025 -4.44076 2.79101 0
M  V30 1511 H 142.499 -5.35367 1.34486 0
M  V30 1512 H 142.976 -4.39169 -0.0522168 0
M  V30 1513 H 143.582 -3.95572 1.56215 0
M  V30 1514 N 141.898 -0.863906 -1.31812 0
M  V30 1515 C 142.861 -0.320212 -2.26952 0
M  V30 1516 C 143.861 0.525369 -1.51975 0
M  V30 1517 O 145.051 0.335547 -1.70938 0
M  V30 1518 C 142.183 0.545919 -3.365 0
M  V30 1519 H 143.376 -1.16004 -2.76556 0
M  V30 1520 H 140.929 -0.638995 -1.42641 0
M  V30 1521 H 141.664 1.40718 -2.92179 0
M  V30 1522 H 141.449 -0.0594674 -3.92055 0
M  V30 1523 H 142.939 0.918796 -4.07367 0
M  V30 1524 N 143.376 1.44774 -0.622745 0
M  V30 1525 C 144.286 2.34433 0.0886031 0
M  V30 1526 C 145.302 1.52131 0.844529 0
M  V30 1527 O 146.478 1.84886 0.798691 0
M  V30 1528 C 143.543 3.29986 1.0635 0
M  V30 1529 C 142.604 4.28195 0.307873 0
M  V30 1530 C 141.837 5.19183 1.23633 0
M  V30 1531 O 142.06 5.13918 2.47476 0
M  V30 1532 O 140.994 5.97515 0.725189 0
M  V30 1533 H 144.82 2.96693 -0.648599 0
M  V30 1534 H 142.405 1.44408 -0.382957 0
M  V30 1535 H 144.287 3.88825 1.6246 0
M  V30 1536 H 142.962 2.70269 1.78146 0
M  V30 1537 H 141.869 3.72927 -0.296064 0
M  V30 1538 H 143.202 4.90808 -0.3699 0
M  V30 1539 N 144.854 0.36279 1.53368 0
M  V30 1540 C 146.082 -0.228613 2.05633 0
M  V30 1541 C 146.497 -1.42676 1.23649 0
M  V30 1542 O 145.854 -1.80394 0.27647 0
M  V30 1543 C 145.905 -0.624845 3.56059 0
M  V30 1544 O 145.626 0.525675 4.34935 0
M  V30 1545 C 147.127 -1.27493 4.24571 0
M  V30 1546 H 144.347 -0.0407183 0.669763 0
M  V30 1547 H 146.891 0.520352 1.97769 0
M  V30 1548 H 145.046 -1.32373 3.64083 0
M  V30 1549 H 145.46 0.205969 5.24095 0
M  V30 1550 H 146.934 -1.50277 5.31151 0
M  V30 1551 H 147.411 -2.23439 3.78116 0
M  V30 1552 H 148.017 -0.617558 4.20792 0
M  V30 1553 N 146.332 -1.57332 0.0918853 0
M  V30 1554 C 147.279 -2.13847 -0.868211 0
M  V30 1555 C 148.249 -1.05618 -1.28196 0
M  V30 1556 O 149.434 -1.33387 -1.36427 0
M  V30 1557 C 146.574 -2.72062 -2.12312 0
M  V30 1558 C 145.687 -3.94514 -1.7602 0
M  V30 1559 C 144.822 -4.40903 -2.96273 0
M  V30 1560 C 143.861 -5.55953 -2.56092 0
M  V30 1561 N 142.998 -5.97209 -3.69169 0
M  V30 1562 H 147.838 -2.95575 -0.379406 0
M  V30 1563 H 145.375 -1.46048 -0.175606 0
M  V30 1564 H 147.333 -3.03931 -2.858 0
M  V30 1565 H 145.963 -1.93068 -2.58698 0
M  V30 1566 H 145.015 -3.68979 -0.925135 0
M  V30 1567 H 146.327 -4.7802 -1.42472 0
M  V30 1568 H 145.481 -4.74539 -3.78018 0
M  V30 1569 H 144.22 -3.56291 -3.33029 0
M  V30 1570 H 143.225 -5.21948 -1.72773 0
M  V30 1571 H 144.45 -6.42311 -2.20484 0
M  V30 1572 H 142.396 -5.15543 -4.05649 0
M  V30 1573 H 142.313 -6.75504 -3.39456 0
M  V30 1574 H 143.581 -6.35475 -4.51434 0
M  V30 1575 N 147.81 0.181792 -1.56548 0
M  V30 1576 C 149.035 0.920019 -1.85877 0
M  V30 1577 C 149.46 1.75494 -0.677021 0
M  V30 1578 O 148.818 1.77399 0.374056 0
M  V30 1579 C 148.866 1.78112 -3.13542 0
M  V30 1580 O 147.97 2.88152 -2.95029 0
M  V30 1581 H 147.311 0.258334 -0.611686 0
M  V30 1582 H 149.841 0.183092 -2.03779 0
M  V30 1583 H 149.851 2.18314 -3.44678 0
M  V30 1584 H 148.526 1.16777 -3.99169 0
M  V30 1585 H 147.103 2.51609 -2.75222 0
M  V30 1586 N 149.288 1.51039 0.449983 0
M  V30 1587 C 150.536 1.62759 1.19808 0
M  V30 1588 C 150.857 0.339981 1.92013 0
M  V30 1589 O 150.127 -0.643606 1.85026 0
M  V30 1590 H 148.707 0.599811 0.445237 0
M  V30 1591 H 151.369 1.87914 0.517138 0
M  V30 1592 H 150.465 2.44911 1.93455 0
M  V30 1593 N 150.766 -0.704594 1.40972 0
M  V30 1594 C 152.012 -1.46675 1.40051 0
M  V30 1595 C 152.345 -1.94199 0.00641102 0
M  V30 1596 O 151.62 -1.68916 -0.964235 0
M  V30 1597 C 151.903 -2.68505 2.39952 0
M  V30 1598 C 151.756 -2.26805 3.88432 0
M  V30 1599 C 153.075 -3.70686 2.37233 0
M  V30 1600 H 150.194 -0.532015 0.510028 0
M  V30 1601 H 152.836 -0.803255 1.72185 0
M  V30 1602 H 150.986 -3.25114 2.1268 0
M  V30 1603 H 152.658 -1.75592 4.26574 0
M  V30 1604 H 150.901 -1.58685 4.03734 0
M  V30 1605 H 151.572 -3.14181 4.53866 0
M  V30 1606 H 154.048 -3.23731 2.61415 0
M  V30 1607 H 152.924 -4.53553 3.09162 0
M  V30 1608 H 153.185 -4.19754 1.38777 0
M  V30 1609 N 152.244 -1.26651 -0.937939 0
M  V30 1610 C 153.472 -1.15173 -1.7188 0
M  V30 1611 C 153.887 0.292668 -1.86518 0
M  V30 1612 O 153.244 1.20014 -1.37488 0
M  V30 1613 C 153.295 -1.81925 -3.12387 0
M  V30 1614 O 153.016 -3.2072 -2.98446 0
M  V30 1615 C 154.517 -1.76442 -4.06673 0
M  V30 1616 H 151.737 -0.400911 -0.538063 0
M  V30 1617 H 154.281 -1.67332 -1.1756 0
M  V30 1618 H 152.436 -1.33696 -3.63599 0
M  V30 1619 H 152.85 -3.53802 -3.872 0
M  V30 1620 H 154.324 -2.27781 -5.02812 0
M  V30 1621 H 154.801 -0.731608 -4.33064 0
M  V30 1622 H 155.407 -2.24238 -3.61382 0
M  V30 1623 N 153.722 1.14298 -1.08507 0
M  V30 1624 C 154.962 1.87016 -0.824894 0
M  V30 1625 C 155.326 1.81099 0.637735 0
M  V30 1626 O 156.527 2.48963 1.01345 0
M  V30 1627 C 154.798 3.31584 -1.33368 0
M  V30 1628 S 156.357 4.21903 -1.20596 0
M  V30 1629 H 153.175 0.645259 -0.2986 0
M  V30 1630 H 155.777 1.37822 -1.38656 0
M  V30 1631 H 154.481 3.33439 -2.39262 0
M  V30 1632 H 154.012 3.85836 -0.767734 0
M  V30 1633 H 156.027 4.95971 -0.150891 0
M  V30 1634 N 155.201 0.870884 1.31352 0
M  V30 1635 C 156.133 0.28455 2.27427 0
M  V30 1636 C 157.146 -0.552927 1.53123 0
M  V30 1637 O 158.335 -0.374771 1.74521 0
M  V30 1638 C 155.435 -0.615164 3.3327 0
M  V30 1639 C 154.608 0.190079 4.36987 0
M  V30 1640 C 153.667 -0.637917 5.22319 0
M  V30 1641 O 152.693 -0.065626 5.69162 0
M  V30 1642 N 153.895 -1.94973 5.46778 0
M  V30 1643 H 156.66 1.11017 2.7838 0
M  V30 1644 H 154.221 0.732458 1.44384 0
M  V30 1645 H 156.213 -1.1748 3.87273 0
M  V30 1646 H 154.783 -1.34146 2.82354 0
M  V30 1647 H 154.003 0.931165 3.83044 0
M  V30 1648 H 155.291 0.742579 5.03352 0
M  V30 1649 H 154.689 -2.4378 5.10478 0
M  V30 1650 H 153.246 -2.45713 6.03712 0
M  V30 1651 N 156.679 -1.44442 0.630414 0
M  V30 1652 C 157.626 -2.30678 -0.0749355 0
M  V30 1653 C 158.596 -1.4344 -0.837502 0
M  V30 1654 O 159.781 -1.72343 -0.818684 0
M  V30 1655 C 156.921 -3.28706 -1.05103 0
M  V30 1656 C 156.034 -4.31046 -0.286954 0
M  V30 1657 C 155.169 -5.16167 -1.2548 0
M  V30 1658 C 154.208 -6.10216 -0.479843 0
M  V30 1659 N 153.345 -6.88039 -1.39811 0
M  V30 1660 H 158.185 -2.90454 0.666386 0
M  V30 1661 H 155.722 -1.43107 0.340404 0
M  V30 1662 H 157.68 -3.84027 -1.63031 0
M  V30 1663 H 156.31 -2.70632 -1.75949 0
M  V30 1664 H 155.362 -3.78203 0.408243 0
M  V30 1665 H 156.674 -4.97794 0.316657 0
M  V30 1666 H 155.828 -5.76002 -1.90544 0
M  V30 1667 H 154.567 -4.49491 -1.89233 0
M  V30 1668 H 153.572 -5.49491 0.184295 0
M  V30 1669 H 154.797 -6.78928 0.152965 0
M  V30 1670 H 152.743 -6.24032 -2.02287 0
M  V30 1671 H 152.66 -7.51223 -0.848508 0
M  V30 1672 H 153.928 -7.52397 -2.03762 0
M  V30 1673 N 158.157 -0.370918 -1.53173 0
M  V30 1674 C 159.403 0.209976 -2.02313 0
M  V30 1675 C 159.758 1.45987 -1.25322 0
M  V30 1676 O 159.051 1.8856 -0.339965 0
M  V30 1677 C 159.245 0.549696 -3.53147 0
M  V30 1678 C 159.074 -0.665721 -4.44745 0
M  V30 1679 C 157.844 -1.17942 -4.91343 0
M  V30 1680 C 160.042 -1.53255 -4.90935 0
M  V30 1681 N 158.024 -2.35431 -5.66962 0
M  V30 1682 C 159.395 -2.55403 -5.64951 0
M  V30 1683 C 161.45 -1.5548 -4.73002 0
M  V30 1684 C 160.153 -3.5964 -6.22938 0
M  V30 1685 C 162.179 -2.58613 -5.31858 0
M  V30 1686 C 161.541 -3.59485 -6.05764 0
M  V30 1687 H 157.64 0.0394095 -0.781006 0
M  V30 1688 H 160.224 -0.516666 -1.8772 0
M  V30 1689 H 158.395 1.24541 -3.67891 0
M  V30 1690 H 160.127 1.11614 -3.89004 0
M  V30 1691 H 156.882 -0.743228 -4.67732 0
M  V30 1692 H 157.306 -2.94827 -6.09431 0
M  V30 1693 H 161.948 -0.788457 -4.15383 0
M  V30 1694 H 159.666 -4.37153 -6.79649 0
M  V30 1695 H 163.252 -2.61195 -5.19873 0
M  V30 1696 H 162.132 -4.3798 -6.50495 0
M  V30 1697 N 159.635 1.57281 -0.100228 0
M  V30 1698 C 160.86 1.99302 0.573881 0
M  V30 1699 C 161.285 0.979059 1.60611 0
M  V30 1700 O 160.643 -0.0517803 1.81226 0
M  V30 1701 C 160.691 3.40274 1.19358 0
M  V30 1702 O 159.795 3.41676 2.30935 0
M  V30 1703 H 159.136 0.647944 0.145138 0
M  V30 1704 H 161.666 2.03779 -0.183156 0
M  V30 1705 H 161.676 3.78078 1.53365 0
M  V30 1706 H 160.351 4.13594 0.437385 0
M  V30 1707 H 158.928 3.15672 1.98509 0
M  V30 1708 N 161.113 -0.173488 1.56642 0
M  V30 1709 C 162.076 -1.19859 1.95362 0
M  V30 1710 C 163.076 -1.37296 0.83704 0
M  V30 1711 O 164.266 -1.34739 1.10413 0
M  V30 1712 C 161.398 -2.56405 2.24654 0
M  V30 1713 H 162.591 -0.867062 2.87092 0
M  V30 1714 H 160.144 -0.415853 1.50666 0
M  V30 1715 H 160.879 -2.94576 1.35631 0
M  V30 1716 H 160.664 -2.45115 3.06041 0
M  V30 1717 H 162.154 -3.30287 2.5554 0
M  V30 1718 N 162.591 -1.51276 -0.441967 0
M  V30 1719 C 163.819 -1.67516 -1.21434 0
M  V30 1720 C 164.234 -0.37055 -1.85128 0
M  V30 1721 O 163.591 0.650498 -1.70513 0
M  V30 1722 C 163.642 -2.78748 -2.30177 0
M  V30 1723 O 163.363 -4.04154 -1.69089 0
M  V30 1724 C 164.864 -3.06217 -3.20541 0
M  V30 1725 H 162.084 -0.562276 -0.366178 0
M  V30 1726 H 164.628 -1.97666 -0.524244 0
M  V30 1727 H 162.783 -2.5121 -2.94911 0
M  V30 1728 H 163.197 -4.65894 -2.40922 0
M  V30 1729 H 164.671 -3.8764 -3.92987 0
M  V30 1730 H 165.148 -2.18439 -3.81026 0
M  V30 1731 H 165.754 -3.35397 -2.61513 0
M  V30 1732 N 164.069 0.697108 -1.41344 0
M  V30 1733 C 165.294 1.49096 -1.44171 0
M  V30 1734 C 165.719 1.88038 -0.0481568 0
M  V30 1735 O 165.077 1.54525 0.948243 0
M  V30 1736 C 165.125 2.73088 -2.3549 0
M  V30 1737 O 164.229 3.70514 -1.81088 0
M  V30 1738 H 163.57 0.448801 -0.489361 0
M  V30 1739 H 166.1 0.856992 -1.85787 0
M  V30 1740 H 166.11 3.21413 -2.51312 0
M  V30 1741 H 164.785 2.44081 -3.36745 0
M  V30 1742 H 163.362 3.29441 -1.74708 0
M  V30 1743 N 165.547 1.27147 0.931209 0
M  V30 1744 C 166.958 1.12044 1.49342 0
M  V30 1745 C 167.309 -0.295795 1.93957 0
M  V30 1746 O 166.434 -1.18835 1.80852 0
M  V30 1747 C 167.029 2.02781 2.71414 0
M  V30 1748 C 165.588 1.91794 3.2387 0
M  V30 1749 C 164.735 1.95543 1.96617 0
M  V30 1750 H 167.686 1.40091 0.745672 0
M  V30 1751 H 167.707 1.58156 3.46074 0
M  V30 1752 H 167.219 3.05848 2.38911 0
M  V30 1753 H 165.32 0.916992 3.6114 0
M  V30 1754 H 165.433 2.77852 3.90302 0
M  V30 1755 H 163.797 1.39722 2.12955 0
M  V30 1756 H 164.58 3.00259 1.66432 0
M  V30 1757 N 167.025 -1.13721 1.09112 0
M  V30 1758 C 167.975 -2.17082 0.697091 0
M  V30 1759 C 168.959 -1.58321 -0.286923 0
M  V30 1760 O 170.151 -1.7673 -0.0978008 0
M  V30 1761 C 167.28 -3.43105 0.115729 0
M  V30 1762 C 166.366 -4.0888 1.12596 0
M  V30 1763 N 166.757 -4.4987 2.31195 0
M  V30 1764 C 165.055 -4.35471 0.963366 0
M  V30 1765 C 165.756 -5.01094 2.95431 0
M  V30 1766 N 164.732 -4.95751 2.23006 0
M  V30 1767 H 168.534 -2.46524 1.6001 0
M  V30 1768 H 166.048 -1.30481 0.966869 0
M  V30 1769 H 168.045 -4.16491 -0.184555 0
M  V30 1770 H 166.705 -3.15138 -0.78217 0
M  V30 1771 H 167.716 -4.42678 2.68806 0
M  V30 1772 H 164.393 -4.17328 0.119878 0
M  V30 1773 H 165.783 -5.4263 3.96236 0
M  V30 1774 N 168.503 -0.877838 -1.30888 0
M  V30 1775 C 169.749 -0.493426 -1.96706 0
M  V30 1776 C 170.082 0.953504 -1.6918 0
M  V30 1777 O 169.357 1.67266 -0.992594 0
M  V30 1778 C 169.64 -0.760429 -3.51979 0
M  V30 1779 C 169.493 -2.25747 -3.89048 0
M  V30 1780 C 170.812 -0.232148 -4.39487 0
M  V30 1781 H 167.931 -0.180746 -0.714493 0
M  V30 1782 H 170.573 -1.10052 -1.54882 0
M  V30 1783 H 168.723 -0.243715 -3.87735 0
M  V30 1784 H 170.395 -2.84204 -3.63354 0
M  V30 1785 H 168.638 -2.72694 -3.37373 0
M  V30 1786 H 169.309 -2.39491 -4.97341 0
M  V30 1787 H 171.785 -0.674314 -4.106 0
M  V30 1788 H 170.661 -0.448355 -5.47066 0
M  V30 1789 H 170.922 0.866297 -4.33529 0
M  V30 1790 N 169.982 1.44106 -0.638065 0
M  V30 1791 C 171.393 1.85316 -0.226894 0
M  V30 1792 C 171.744 1.53399 1.22324 0
M  V30 1793 O 170.869 0.975463 1.93167 0
M  V30 1794 C 171.464 3.3637 -0.405013 0
M  V30 1795 C 170.023 3.76369 -0.0482902 0
M  V30 1796 C 169.17 2.67921 -0.715108 0
M  V30 1797 H 172.121 1.34474 -0.842764 0
M  V30 1798 H 172.142 3.7885 0.354 0
M  V30 1799 H 171.654 3.59569 -1.46053 0
M  V30 1800 H 169.755 3.58784 1.00522 0
M  V30 1801 H 169.868 4.76856 -0.463187 0
M  V30 1802 H 168.232 2.54259 -0.149753 0
M  V30 1803 H 169.015 2.93951 -1.77335 0
M  V30 1804 N 171.46 0.379036 1.52974 0
M  V30 1805 C 172.407 -0.461048 2.26148 0
M  V30 1806 C 173.377 -1.06637 1.27349 0
M  V30 1807 O 174.562 -1.09633 1.56157 0
M  V30 1808 C 171.702 -1.58782 3.06402 0
M  V30 1809 C 170.815 -1.00636 4.20115 0
M  V30 1810 C 169.95 -2.10334 4.87784 0
M  V30 1811 C 168.989 -1.49724 5.93506 0
M  V30 1812 N 168.126 -2.5331 6.54812 0
M  V30 1813 H 172.966 0.169429 2.97518 0
M  V30 1814 H 170.503 0.0953806 1.4679 0
M  V30 1815 H 172.461 -2.25174 3.51215 0
M  V30 1816 H 171.091 -2.18876 2.37261 0
M  V30 1817 H 170.143 -0.232332 3.7969 0
M  V30 1818 H 171.455 -0.523343 4.96047 0
M  V30 1819 H 170.609 -2.84519 5.35849 0
M  V30 1820 H 169.348 -2.61992 4.11353 0
M  V30 1821 H 168.353 -0.740598 5.44789 0
M  V30 1822 H 169.578 -0.988732 6.71864 0
M  V30 1823 H 167.524 -3.04156 5.81227 0
M  V30 1824 H 167.441 -2.09734 7.26325 0
M  V30 1825 H 168.709 -3.27155 7.07524 0
M  V30 1826 N 172.938 -1.57226 0.108567 0
M  V30 1827 C 174.185 -1.94833 -0.551943 0
M  V30 1828 C 174.513 -0.991204 -1.67348 0
M  V30 1829 O 173.768 -0.0131878 -1.95696 0
M  V30 1830 C 174.067 -3.38911 -1.13463 0
M  V30 1831 C 173.733 -4.50696 -0.135509 0
M  V30 1832 C 172.395 -4.80998 0.139252 0
M  V30 1833 C 174.747 -5.18333 0.545957 0
M  V30 1834 C 172.075 -5.76259 1.10194 0
M  V30 1835 C 174.427 -6.14627 1.49721 0
M  V30 1836 C 173.091 -6.43327 1.78006 0
M  V30 1837 H 172.361 -0.712944 -0.20197 0
M  V30 1838 H 175.008 -1.90582 0.18726 0
M  V30 1839 H 173.313 -3.39805 -1.95037 0
M  V30 1840 H 175.01 -3.65317 -1.65362 0
M  V30 1841 H 171.6 -4.27087 -0.359846 0
M  V30 1842 H 175.784 -4.95087 0.346842 0
M  V30 1843 H 171.04 -5.96804 1.32795 0
M  V30 1844 H 175.214 -6.66126 2.03099 0
M  V30 1845 H 172.841 -7.1695 2.52759 0
M  V30 1846 N 174.416 0.165178 -1.56732 0
M  V30 1847 C 175.641 0.900253 -1.86843 0
M  V30 1848 C 176.066 1.74766 -0.695596 0
M  V30 1849 O 175.424 1.77786 0.35522 0
M  V30 1850 C 175.472 1.74777 -3.15413 0
M  V30 1851 O 174.576 2.85007 -2.98068 0
M  V30 1852 H 173.917 0.251832 -0.614391 0
M  V30 1853 H 176.447 0.161468 -2.03962 0
M  V30 1854 H 176.457 2.14646 -3.46974 0
M  V30 1855 H 175.132 1.12537 -4.00385 0
M  V30 1856 H 173.709 2.48676 -2.77875 0
M  V30 1857 N 175.894 1.51508 0.433938 0
M  V30 1858 C 177.305 1.56784 1.01369 0
M  V30 1859 C 177.656 0.393349 1.92217 0
M  V30 1860 O 176.781 -0.489441 2.10792 0
M  V30 1861 C 177.376 2.84144 1.8452 0
M  V30 1862 C 175.935 2.9198 2.37539 0
M  V30 1863 C 175.082 2.51482 1.16843 0
M  V30 1864 H 178.033 1.57236 0.215081 0
M  V30 1865 H 178.054 2.68098 2.70007 0
M  V30 1866 H 177.566 3.69607 1.18373 0
M  V30 1867 H 175.667 2.10955 3.0713 0
M  V30 1868 H 175.78 3.95704 2.70103 0
M  V30 1869 H 174.144 2.04758 1.51481 0
M  V30 1870 H 174.927 3.39293 0.523015 0
M  V30 1871 N 177.372 -0.689602 1.41712 0
M  V30 1872 C 178.282 -1.83314 1.46401 0
M  V30 1873 C 179.298 -1.7036 0.35405 0
M  V30 1874 O 180.474 -1.92171 0.602692 0
M  V30 1875 C 177.539 -3.19344 1.34982 0
M  V30 1876 C 176.6 -3.44363 2.56344 0
M  V30 1877 C 175.833 -4.73904 2.45461 0
M  V30 1878 O 176.056 -5.508 1.48241 0
M  V30 1879 O 174.99 -4.99839 3.35328 0
M  V30 1880 H 178.816 -1.82314 2.42889 0
M  V30 1881 H 176.401 -0.843438 1.23315 0
M  V30 1882 H 178.283 -4.00547 1.3092 0
M  V30 1883 H 176.958 -3.21014 0.41612 0
M  V30 1884 H 175.865 -2.63067 2.65982 0
M  V30 1885 H 177.198 -3.47512 3.48563 0
M  V30 1886 N 178.85 -1.27639 -0.924453 0
M  V30 1887 C 179.797 -1.10644 -2.0255 0
M  V30 1888 C 180.767 -0.00658438 -1.66099 0
M  V30 1889 O 181.952 -0.16952 -1.90045 0
M  V30 1890 C 179.092 -0.76309 -3.36557 0
M  V30 1891 C 178.205 -1.94091 -3.85944 0
M  V30 1892 C 177.34 -1.53914 -5.08413 0
M  V30 1893 C 176.379 -2.68425 -5.50104 0
M  V30 1894 N 175.516 -2.28815 -6.63768 0
M  V30 1895 H 180.356 -2.04858 -2.16419 0
M  V30 1896 H 177.893 -1.01974 -1.06017 0
M  V30 1897 H 179.851 -0.544822 -4.13627 0
M  V30 1898 H 178.481 0.142102 -3.22487 0
M  V30 1899 H 177.533 -2.27162 -3.05125 0
M  V30 1900 H 178.845 -2.7998 -4.12811 0
M  V30 1901 H 177.999 -1.28231 -5.92994 0
M  V30 1902 H 176.738 -0.651391 -4.8333 0
M  V30 1903 H 175.743 -2.94819 -4.64071 0
M  V30 1904 H 176.968 -3.57826 -5.7718 0
M  V30 1905 H 174.914 -1.42495 -6.40337 0
M  V30 1906 H 174.831 -3.08242 -6.90306 0
M  V30 1907 H 176.099 -2.06387 -7.51681 0
M  V30 1908 N 180.328 1.1314 -1.09713 0
M  V30 1909 C 181.575 1.84484 -0.834987 0
M  V30 1910 C 181.903 1.83689 0.639418 0
M  V30 1911 O 181.158 1.2724 1.4869 0
M  V30 1912 C 181.457 3.32167 -1.3191 0
M  V30 1913 C 181.123 3.53139 -2.80363 0
M  V30 1914 C 179.785 3.58571 -3.20905 0
M  V30 1915 C 182.137 3.60866 -3.76065 0
M  V30 1916 C 179.465 3.69267 -4.55916 0
M  V30 1917 C 181.817 3.73089 -5.10869 0
M  V30 1918 C 180.481 3.76775 -5.50996 0
M  V30 1919 H 179.751 0.675073 -0.305544 0
M  V30 1920 H 182.398 1.33554 -1.37243 0
M  V30 1921 H 180.703 3.85469 -0.701517 0
M  V30 1922 H 182.4 3.85821 -1.09284 0
M  V30 1923 H 178.99 3.49569 -2.47991 0
M  V30 1924 H 183.174 3.55946 -3.45855 0
M  V30 1925 H 178.43 3.70388 -4.86438 0
M  V30 1926 H 182.604 3.78011 -5.84877 0
M  V30 1927 H 180.231 3.84815 -6.55608 0
M  V30 1928 N 181.806 0.884767 1.30421 0
M  V30 1929 C 183.217 0.553656 1.78302 0
M  V30 1930 C 183.568 -0.930153 1.7275 0
M  V30 1931 O 182.693 -1.72681 1.30423 0
M  V30 1932 C 183.288 0.998234 3.2376 0
M  V30 1933 C 181.847 0.71854 3.69478 0
M  V30 1934 C 180.994 1.18132 2.50879 0
M  V30 1935 H 183.945 1.06901 1.17294 0
M  V30 1936 H 183.966 0.327118 3.79091 0
M  V30 1937 H 183.478 2.0782 3.27769 0
M  V30 1938 H 181.579 -0.349444 3.70958 0
M  V30 1939 H 181.692 1.30595 4.60958 0
M  V30 1940 H 180.056 0.600669 2.47516 0
M  V30 1941 H 180.839 2.26902 2.57624 0
M  V30 1942 N 183.284 -1.43765 0.645699 0
M  V30 1943 C 184.214 -2.33471 -0.0370477 0
M  V30 1944 C 185.195 -1.49042 -0.819779 0
M  V30 1945 O 186.38 -1.77726 -0.782758 0
M  V30 1946 C 183.51 -3.32311 -1.0093 0
M  V30 1947 C 182.464 -4.2667 -0.337201 0
M  V30 1948 C 181.79 -5.1549 -1.42037 0
M  V30 1949 C 183.09 -5.16657 0.765706 0
M  V30 1950 H 184.784 -2.90809 0.712069 0
M  V30 1951 H 182.33 -1.39834 0.343876 0
M  V30 1952 H 184.283 -3.9396 -1.49578 0
M  V30 1953 H 183.007 -2.73213 -1.78948 0
M  V30 1954 H 181.666 -3.66374 0.128771 0
M  V30 1955 H 181.314 -4.52735 -2.1918 0
M  V30 1956 H 181.014 -5.79438 -0.975966 0
M  V30 1957 H 182.538 -5.80012 -1.90838 0
M  V30 1958 H 183.952 -5.72158 0.361702 0
M  V30 1959 H 182.349 -5.89286 1.13413 0
M  V30 1960 H 183.419 -4.56796 1.62683 0
M  V30 1961 N 184.763 -0.387143 -1.52771 0
M  V30 1962 C 185.726 0.436939 -2.24997 0
M  V30 1963 C 186.726 0.991991 -1.26555 0
M  V30 1964 O 187.916 0.874335 -1.50669 0
M  V30 1965 C 185.048 1.61281 -3.00335 0
M  V30 1966 H 186.241 -0.195365 -2.99263 0
M  V30 1967 H 183.794 -0.139218 -1.55679 0
M  V30 1968 H 184.529 2.2826 -2.30364 0
M  V30 1969 H 184.314 1.22154 -3.72587 0
M  V30 1970 H 185.804 2.19629 -3.5518 0
M  V30 1971 N 186.241 1.57166 -0.116904 0
M  V30 1972 C 187.489 1.94737 0.540533 0
M  V30 1973 C 187.81 1.00096 1.67349 0
M  V30 1974 O 187.08 0.0568854 1.95817 0
M  V30 1975 H 185.66 0.718981 0.202669 0
M  V30 1976 H 188.322 1.94017 -0.185353 0
M  V30 1977 H 187.418 2.97719 0.936483 0
M  V30 1978 N 187.719 -0.156864 1.56817 0
M  V30 1979 C 188.649 -1.19589 2.00551 0
M  V30 1980 C 189.63 -1.4536 0.883426 0
M  V30 1981 O 190.815 -1.56449 1.15054 0
M  V30 1982 C 187.945 -2.53143 2.37773 0
M  V30 1983 C 186.899 -2.41913 3.53075 0
M  V30 1984 C 186.225 -3.80088 3.76081 0
M  V30 1985 C 187.525 -1.91157 4.86062 0
M  V30 1986 H 189.219 -0.832293 2.87599 0
M  V30 1987 H 186.765 -0.398918 1.38364 0
M  V30 1988 H 188.718 -3.26047 2.66967 0
M  V30 1989 H 187.442 -2.91319 1.4765 0
M  V30 1990 H 186.101 -1.71462 3.24031 0
M  V30 1991 H 185.749 -4.15683 2.83225 0
M  V30 1992 H 185.449 -3.73439 4.53671 0
M  V30 1993 H 186.973 -4.54556 4.0769 0
M  V30 1994 H 188.387 -2.53846 5.14038 0
M  V30 1995 H 186.784 -1.95422 5.67389 0
M  V30 1996 H 187.854 -0.866673 4.77092 0
M  V30 1997 N 189.197 -1.51736 -0.425897 0
M  V30 1998 C 190.107 -1.76738 -1.54275 0
M  V30 1999 C 191.123 -0.65211 -1.61318 0
M  V30 2000 O 192.299 -0.935654 -1.78346 0
M  V30 2001 C 189.364 -1.89755 -2.90162 0
M  V30 2002 C 188.425 -3.13633 -2.93143 0
M  V30 2003 C 187.658 -3.2602 -4.22548 0
M  V30 2004 O 187.881 -2.44067 -5.15546 0
M  V30 2005 O 186.815 -4.19071 -4.32046 0
M  V30 2006 H 190.641 -2.71502 -1.36089 0
M  V30 2007 H 188.226 -1.36376 -0.610069 0
M  V30 2008 H 190.108 -2.00236 -3.70788 0
M  V30 2009 H 188.783 -0.981785 -3.08452 0
M  V30 2010 H 187.69 -3.08622 -2.11431 0
M  V30 2011 H 189.023 -4.04936 -2.798 0
M  V30 2012 N 190.675 0.682077 -1.42076 0
M  V30 2013 C 191.585 1.82535 -1.47371 0
M  V30 2014 C 192.601 1.7017 -0.363079 0
M  V30 2015 O 193.777 1.91848 -0.612875 0
M  V30 2016 C 190.842 3.18624 -1.36674 0
M  V30 2017 C 189.903 3.42999 -2.58167 0
M  V30 2018 C 189.136 4.72595 -2.4797 0
M  V30 2019 O 189.359 5.50006 -1.5116 0
M  V30 2020 O 188.293 4.98054 -3.37974 0
M  V30 2021 H 192.119 1.81023 -2.43853 0
M  V30 2022 H 189.704 0.836887 -1.2376 0
M  V30 2023 H 191.586 3.99847 -1.33043 0
M  V30 2024 H 190.261 3.20789 -0.433138 0
M  V30 2025 H 189.168 2.61653 -2.67373 0
M  V30 2026 H 190.501 3.45659 -3.50401 0
M  V30 2027 N 192.153 1.28127 0.917671 0
M  V30 2028 C 193.101 1.11569 2.04096 0
M  V30 2029 C 194.095 0.0360242 1.69362 0
M  V30 2030 O 195.301 0.194501 1.78946 0
M  V30 2031 H 191.676 0.344097 0.668656 0
M  V30 2032 H 193.647 2.06711 2.15205 0
M  V30 2033 C 192.396 0.790197 3.38602 0
M  V30 2034 H 191.719 1.61293 3.6582 0
M  V30 2035 H 193.159 0.714271 4.1794 0
M  V30 2036 C 191.618 -0.505897 3.3308 0
M  V30 2037 O 192.148 -1.53736 3.71117 0
M  V30 2038 N 190.354 -0.505193 2.86175 0
M  V30 2039 H 189.901 0.334621 2.55417 0
M  V30 2040 H 189.859 -1.37243 2.82863 0
M  V30 2041 N 193.631 -1.12557 1.10312 0
M  V30 2042 C 194.861 -1.87592 0.865617 0
M  V30 2043 C 195.269 -1.79851 -0.587389 0
M  V30 2044 O 194.612 -1.16949 -1.41664 0
M  V30 2045 C 194.674 -3.37665 1.23381 0
M  V30 2046 C 194.338 -3.69181 2.69359 0
M  V30 2047 C 195.335 -3.67652 3.67597 0
M  V30 2048 C 193.02 -3.98555 3.05711 0
M  V30 2049 C 195.014 -3.95053 5.00212 0
M  V30 2050 C 192.701 -4.25616 4.38514 0
M  V30 2051 C 193.699 -4.23851 5.35574 0
M  V30 2052 O 193.387 -4.50242 6.65986 0
M  V30 2053 H 193.119 -0.600442 0.310557 0
M  V30 2054 H 195.673 -1.4335 1.47105 0
M  V30 2055 H 193.903 -3.82454 0.571467 0
M  V30 2056 H 195.592 -3.94041 0.973994 0
M  V30 2057 H 196.358 -3.45024 3.40857 0
M  V30 2058 H 192.237 -3.99071 2.30789 0
M  V30 2059 H 195.781 -3.93591 5.75962 0
M  V30 2060 H 191.678 -4.47718 4.64994 0
M  V30 2061 H 192.446 -4.67867 6.71597 0
M  V30 2062 N 195.109 -0.891671 -1.2995 0
M  V30 2063 C 196.349 -0.520296 -1.97667 0
M  V30 2064 C 196.713 0.914797 -1.68806 0
M  V30 2065 O 197.914 1.39263 -2.29911 0
M  V30 2066 C 196.185 -0.795222 -3.48441 0
M  V30 2067 S 197.744 -0.526953 -4.35624 0
M  V30 2068 H 194.562 -0.19333 -0.684211 0
M  V30 2069 H 197.164 -1.15238 -1.57926 0
M  V30 2070 H 195.868 -1.83805 -3.66938 0
M  V30 2071 H 195.399 -0.15095 -3.9311 0
M  V30 2072 H 197.414 0.631533 -4.92165 0
M  V30 2073 N 196.587 1.43421 -0.653314 0
M  V30 2074 C 198.003 1.56341 -0.320886 0
M  V30 2075 C 198.203 1.63696 1.17499 0
M  V30 2076 O 197.259 1.59208 1.95982 0
M  V30 2077 C 198.572 2.82424 -1.03233 0
M  V30 2078 C 200.12 2.96168 -1.01259 0
M  V30 2079 C 200.595 4.25084 -1.70492 0
M  V30 2080 N 202.086 4.31948 -1.67257 0
M  V30 2081 C 202.821 5.30466 -2.17701 0
M  V30 2082 N 202.317 6.35261 -2.76434 0
M  V30 2083 N 204.11 5.2212 -2.082 0
M  V30 2084 H 196.261 1.3689 -1.62403 0
M  V30 2085 H 198.524 0.657455 -0.682977 0
M  V30 2086 H 198.23 2.83053 -2.08744 0
M  V30 2087 H 198.104 3.72653 -0.583948 0
M  V30 2088 H 200.491 2.9508 0.0341235 0
M  V30 2089 H 200.572 2.07229 -1.49966 0
M  V30 2090 H 200.216 4.26932 -2.7512 0
M  V30 2091 H 200.146 5.1292 -1.19251 0
M  V30 2092 H 202.637 3.56838 -1.24398 0
M  V30 2093 H 202.95 7.06754 -3.12601 0
M  V30 2094 H 201.295 6.35884 -2.80495 0
M  V30 2095 H 204.486 4.39166 -1.62021 0
M  V30 2096 H 204.659 5.98739 -2.47822 0
M  V30 2097 N 198.065 0.39524 1.52563 0
M  V30 2098 C 199.013 -0.451859 2.28169 0
M  V30 2099 C 200.007 -1.05792 1.32304 0
M  V30 2100 O 201.213 -0.997718 1.49818 0
M  V30 2101 H 197.588 -0.164481 0.733792 0
M  V30 2102 H 199.559 0.207199 2.9768 0
M  V30 2103 C 198.308 -1.56385 3.10546 0
M  V30 2104 H 197.631 -1.10682 3.84174 0
M  V30 2105 H 199.071 -2.13067 3.66577 0
M  V30 2106 C 197.53 -2.52328 2.23231 0
M  V30 2107 O 198.06 -3.5588 1.86312 0
M  V30 2108 N 196.266 -2.22209 1.87274 0
M  V30 2109 H 195.813 -1.38033 2.17496 0
M  V30 2110 H 195.771 -2.86652 1.29143 0
M  V30 2111 N 199.544 -1.57102 0.125237 0
M  V30 2112 C 200.955 -1.82384 -0.399142 0
M  V30 2113 C 201.306 -1.04276 -1.66195 0
M  V30 2114 O 200.431 -0.281269 -2.14564 0
M  V30 2115 C 201.026 -3.30821 -0.730932 0
M  V30 2116 C 199.585 -3.56762 -1.19992 0
M  V30 2117 C 198.732 -2.7649 -0.211792 0
M  V30 2118 H 201.683 -1.54786 0.350277 0
M  V30 2119 H 201.704 -3.4579 -1.58775 0
M  V30 2120 H 201.216 -3.87643 0.188345 0
M  V30 2121 H 199.317 -3.05305 -2.13588 0
M  V30 2122 H 199.43 -4.65317 -1.14093 0
M  V30 2123 H 197.794 -2.4489 -0.700085 0
M  V30 2124 H 198.577 -3.36073 0.700691 0
M  V30 2125 N 201.022 0.148545 -1.56898 0
M  V30 2126 C 202.299 0.890019 -1.74178 0
M  V30 2127 C 202.679 1.99407 -0.692839 0
M  V30 2128 O 202.027 2.26671 0.288505 0
M  V30 2129 C 202.237 1.43389 -3.18183 0
M  V30 2130 C 203.585 1.89791 -3.79822 0
M  V30 2131 O 204.609 1.53134 -3.21603 0
M  V30 2132 O 203.468 2.57387 -4.82093 0
M  V30 2133 H 200.562 0.420496 -0.712118 0
M  V30 2134 H 203.108 0.134591 -1.69165 0
M  V30 2135 H 201.88 0.640383 -3.86024 0
M  V30 2136 H 201.503 2.25287 -3.27615 0
M  V30 2137 N 202.5 1.5196 0.417844 0
M  V30 2138 C 203.448 1.75278 1.52907 0
M  V30 2139 C 204.442 0.619611 1.57662 0
M  V30 2140 O 205.648 0.801457 1.61173 0
M  V30 2141 H 202.023 0.554141 0.508362 0
M  V30 2142 H 203.994 2.68389 1.30422 0
M  V30 2143 C 202.743 1.91262 2.90369 0
M  V30 2144 H 202.066 2.77872 2.8745 0
M  V30 2145 H 203.506 2.11581 3.67436 0
M  V30 2146 C 201.965 0.677431 3.30019 0
M  V30 2147 O 202.495 -0.158799 4.01386 0
M  V30 2148 N 200.701 0.515851 2.85985 0
M  V30 2149 H 200.248 1.19744 2.28077 0
M  V30 2150 H 200.206 -0.309315 3.12875 0
M  V30 2151 N 203.978 -0.674533 1.42435 0
M  V30 2152 C 205.255 -1.4305 1.33402 0
M  V30 2153 C 205.635 -2.11081 -0.0284674 0
M  V30 2154 O 204.983 -2.03257 -1.04397 0
M  V30 2155 C 205.193 -2.43272 2.50239 0
M  V30 2156 C 206.541 -3.07907 2.92367 0
M  V30 2157 O 207.565 -2.53599 2.50132 0
M  V30 2158 O 206.424 -4.0632 3.65467 0
M  V30 2159 H 203.518 -0.638076 0.526106 0
M  V30 2160 H 206.064 -0.703235 1.54443 0
M  V30 2161 H 204.836 -1.91803 3.41068 0
M  V30 2162 H 204.459 -3.23479 2.31186 0
M  V30 2163 N 205.456 -1.28612 -0.910864 0
M  V30 2164 C 206.366 -1.14643 -2.0468 0
M  V30 2165 C 207.382 -0.0723121 -1.7385 0
M  V30 2166 O 208.558 -0.282178 -1.99413 0
M  V30 2167 C 205.623 -0.812561 -3.37044 0
M  V30 2168 C 204.684 -1.96935 -3.81465 0
M  V30 2169 C 203.917 -1.65131 -5.07511 0
M  V30 2170 O 204.14 -0.567013 -5.67575 0
M  V30 2171 O 203.074 -2.49585 -5.47714 0
M  V30 2172 H 206.9 -2.1001 -2.19384 0
M  V30 2173 H 204.485 -1.07958 -1.03274 0
M  V30 2174 H 206.367 -0.640441 -4.16505 0
M  V30 2175 H 205.042 0.111426 -3.23508 0
M  V30 2176 H 203.949 -2.19664 -3.02818 0
M  V30 2177 H 205.282 -2.87414 -3.99567 0
M  V30 2178 N 206.934 1.1197 -1.10907 0
M  V30 2179 C 207.882 2.19927 -0.757303 0
M  V30 2180 C 208.876 1.67564 0.248747 0
M  V30 2181 O 210.082 1.79672 0.108605 0
M  V30 2182 H 206.457 0.716925 -0.226987 0
M  V30 2183 H 208.428 2.46847 -1.67658 0
M  V30 2184 C 207.177 3.47061 -0.210671 0
M  V30 2185 H 206.5 3.87703 -0.976049 0
M  V30 2186 H 207.94 4.24 -0.0026584 0
M  V30 2187 C 206.399 3.19864 1.05777 0
M  V30 2188 O 206.929 3.40049 2.13845 0
M  V30 2189 N 205.135 2.73636 0.978349 0
M  V30 2190 H 204.682 2.5741 0.0988246 0
M  V30 2191 H 204.64 2.55815 1.82773 0
M  V30 2192 N 208.412 0.89855 1.29475 0
M  V30 2193 C 209.66 0.522847 1.9522 0
M  V30 2194 C 209.981 -0.93371 1.71192 0
M  V30 2195 O 209.251 -1.65823 1.04305 0
M  V30 2196 H 207.831 0.190366 0.722336 0
M  V30 2197 H 210.493 1.14459 1.5775 0
M  V30 2198 H 209.589 0.704476 3.04045 0
M  V30 2199 N 209.89 -1.43072 0.660911 0
M  V30 2200 C 211.301 -1.84932 0.256348 0
M  V30 2201 C 211.652 -1.55325 -1.19868 0
M  V30 2202 O 210.777 -1.00607 -1.91591 0
M  V30 2203 C 211.372 -3.35684 0.458475 0
M  V30 2204 C 209.931 -3.76245 0.108161 0
M  V30 2205 C 209.078 -2.66749 0.757641 0
M  V30 2206 H 212.029 -1.33116 0.864051 0
M  V30 2207 H 212.05 -3.79365 -0.293683 0
M  V30 2208 H 211.562 -3.572 1.51755 0
M  V30 2209 H 209.663 -3.60338 -0.948014 0
M  V30 2210 H 209.776 -4.76058 0.538992 0
M  V30 2211 H 208.14 -2.53989 0.190185 0
M  V30 2212 H 208.923 -2.91092 1.81989 0
M  V30 2213 N 211.368 -0.403325 -1.52352 0
M  V30 2214 C 212.614 0.167015 -2.02713 0
M  V30 2215 C 212.969 1.43296 -1.28391 0
M  V30 2216 O 212.262 1.87796 -0.379885 0
M  V30 2217 C 212.456 0.474665 -3.54234 0
M  V30 2218 C 212.285 -0.759909 -4.43233 0
M  V30 2219 C 211.055 -1.28338 -4.88731 0
M  V30 2220 C 213.253 -1.63634 -4.87574 0
M  V30 2221 N 211.235 -2.47404 -5.6184 0
M  V30 2222 C 212.606 -2.67329 -5.59406 0
M  V30 2223 C 214.661 -1.65478 -4.69597 0
M  V30 2224 C 213.364 -3.72773 -6.15169 0
M  V30 2225 C 215.39 -2.69837 -5.26253 0
M  V30 2226 C 214.752 -3.72253 -5.98002 0
M  V30 2227 H 210.851 0.0228343 -0.781667 0
M  V30 2228 H 213.435 -0.556368 -1.86581 0
M  V30 2229 H 211.606 1.16709 -3.7045 0
M  V30 2230 H 213.338 1.03338 -3.91284 0
M  V30 2231 H 210.093 -0.842273 -4.6605 0
M  V30 2232 H 210.517 -3.07688 -6.0304 0
M  V30 2233 H 215.159 -0.876389 -4.13617 0
M  V30 2234 H 212.877 -4.51471 -6.70223 0
M  V30 2235 H 216.463 -2.72164 -5.14216 0
M  V30 2236 H 215.343 -4.51679 -6.41058 0
M  V30 2237 N 212.846 1.57033 -0.133567 0
M  V30 2238 C 214.086 1.97575 0.523789 0
M  V30 2239 C 214.45 1.01605 1.62912 0
M  V30 2240 O 215.651 1.3114 2.3464 0
M  V30 2241 C 213.922 3.42256 1.02935 0
M  V30 2242 S 215.481 4.04817 1.69319 0
M  V30 2243 H 212.299 0.690427 0.169799 0
M  V30 2244 H 214.901 1.94234 -0.222101 0
M  V30 2245 H 213.605 4.09842 0.213917 0
M  V30 2246 H 213.136 3.4928 1.81017 0
M  V30 2247 H 215.151 3.96767 2.97977 0
M  V30 2248 N 214.325 -0.140222 1.56975 0
M  V30 2249 C 215.555 -0.865181 1.87612 0
M  V30 2250 C 215.963 -1.74942 0.72055 0
M  V30 2251 O 215.306 -1.80917 -0.318561 0
M  V30 2252 C 215.368 -1.76782 3.13031 0
M  V30 2253 C 215.032 -1.06005 4.44536 0
M  V30 2254 C 216.029 -0.410768 5.18275 0
M  V30 2255 C 213.714 -1.04754 4.91255 0
M  V30 2256 C 215.708 0.241572 6.36942 0
M  V30 2257 C 213.395 -0.391394 6.09845 0
M  V30 2258 C 214.393 0.252029 6.82535 0
M  V30 2259 O 214.081 0.897757 7.98871 0
M  V30 2260 H 213.813 -0.255188 0.625983 0
M  V30 2261 H 216.367 -0.135653 2.04952 0
M  V30 2262 H 214.597 -2.53846 2.91718 0
M  V30 2263 H 216.286 -2.36533 3.29859 0
M  V30 2264 H 217.052 -0.412195 4.83245 0
M  V30 2265 H 212.931 -1.53777 4.34596 0
M  V30 2266 H 216.475 0.744375 6.93617 0
M  V30 2267 H 212.372 -0.387656 6.44335 0
M  V30 2268 H 213.14 0.800102 8.1458 0
M  V30 2269 N 215.803 -1.52179 -0.40978 0
M  V30 2270 C 217.031 -1.70054 -1.17853 0
M  V30 2271 C 217.446 -0.409735 -1.843 0
M  V30 2272 O 216.803 0.614183 -1.71855 0
M  V30 2273 C 216.854 -2.83568 -2.24213 0
M  V30 2274 O 216.575 -4.0765 -1.60478 0
M  V30 2275 C 218.076 -3.12947 -3.13973 0
M  V30 2276 H 215.296 -0.569917 -0.354169 0
M  V30 2277 H 217.84 -1.98734 -0.482198 0
M  V30 2278 H 215.995 -2.57409 -2.89516 0
M  V30 2279 H 216.409 -4.70899 -2.30986 0
M  V30 2280 H 217.883 -3.95889 -3.84677 0
M  V30 2281 H 218.36 -2.26472 -3.76307 0
M  V30 2282 H 218.966 -3.40868 -2.5434 0
M  V30 2283 N 217.281 0.66697 -1.42791 0
M  V30 2284 C 218.509 1.45505 -1.47091 0
M  V30 2285 C 218.924 1.8861 -0.0845873 0
M  V30 2286 O 218.281 1.58632 0.90234 0
M  V30 2287 C 218.332 2.69906 -2.40485 0
M  V30 2288 O 218.053 2.28608 -3.73725 0
M  V30 2289 C 219.554 3.63396 -2.53886 0
M  V30 2290 H 216.774 0.447459 -0.500022 0
M  V30 2291 H 219.318 0.818866 -1.8739 0
M  V30 2292 H 217.473 3.29696 -2.03419 0
M  V30 2293 H 217.887 3.08997 -4.23817 0
M  V30 2294 H 219.361 4.47387 -3.2334 0
M  V30 2295 H 219.838 4.09824 -1.57927 0
M  V30 2296 H 220.444 3.09495 -2.91706 0
M  V30 2297 N 218.759 1.29093 0.90403 0
M  V30 2298 C 220.036 1.075 1.63411 0
M  V30 2299 C 220.416 -0.382346 2.07609 0
M  V30 2300 O 219.764 -1.37031 1.82851 0
M  V30 2301 C 219.974 2.05858 2.81822 0
M  V30 2302 C 221.322 2.36539 3.52611 0
M  V30 2303 O 222.346 2.04019 2.91984 0
M  V30 2304 O 221.205 2.92085 4.61897 0
M  V30 2305 H 218.299 0.411547 0.717327 0
M  V30 2306 H 220.845 1.40449 0.952479 0
M  V30 2307 H 219.617 3.04037 2.46327 0
M  V30 2308 H 219.24 1.73613 3.57693 0
M  V30 2309 N 220.237 -1.11381 1.11499 0
M  V30 2310 C 221.648 -1.6465 0.880191 0
M  V30 2311 C 221.999 -1.87199 -0.587434 0
M  V30 2312 O 221.124 -1.60667 -1.44966 0
M  V30 2313 C 221.719 -2.99105 1.59128 0
M  V30 2314 C 220.278 -3.49279 1.40289 0
M  V30 2315 C 219.425 -2.24077 1.63354 0
M  V30 2316 H 222.376 -0.950123 1.27116 0
M  V30 2317 H 222.397 -3.66107 1.03664 0
M  V30 2318 H 221.909 -2.82661 2.65941 0
M  V30 2319 H 220.01 -3.70887 0.356888 0
M  V30 2320 H 220.123 -4.2803 2.15238 0
M  V30 2321 H 218.487 -2.31733 1.05698 0
M  V30 2322 H 219.27 -2.10175 2.71443 0
M  V30 2323 N 221.715 -0.905404 -1.28997 0
M  V30 2324 C 222.992 -0.453513 -1.9027 0
M  V30 2325 C 223.372 1.06721 -1.82137 0
M  V30 2326 O 222.72 1.91159 -1.25182 0
M  V30 2327 C 222.93 -0.974494 -3.35119 0
M  V30 2328 C 224.278 -1.0216 -4.12127 0
M  V30 2329 O 225.302 -0.922557 -3.44046 0
M  V30 2330 O 224.161 -1.17121 -5.33802 0
M  V30 2331 H 221.255 -0.142347 -0.814657 0
M  V30 2332 H 223.801 -0.995642 -1.37423 0
M  V30 2333 H 222.573 -2.01848 -3.35221 0
M  V30 2334 H 222.196 -0.412706 -3.95452 0
M  V30 2335 N 223.193 1.4272 -0.668489 0
M  V30 2336 C 224.14 2.30796 0.0137489 0
M  V30 2337 C 225.11 1.4561 0.799177 0
M  V30 2338 O 226.295 1.74453 0.772702 0
M  V30 2339 C 223.435 3.31377 0.963507 0
M  V30 2340 C 222.548 4.31655 0.172569 0
M  V30 2341 C 221.683 5.19312 1.1175 0
M  V30 2342 C 220.722 6.11274 0.317886 0
M  V30 2343 N 219.859 6.91504 1.2152 0
M  V30 2344 H 224.699 2.88585 -0.743161 0
M  V30 2345 H 222.236 1.42154 -0.378226 0
M  V30 2346 H 224.194 3.88214 1.52792 0
M  V30 2347 H 222.824 2.75202 1.68712 0
M  V30 2348 H 221.876 3.76988 -0.508374 0
M  V30 2349 H 223.188 4.96779 -0.448527 0
M  V30 2350 H 222.342 5.80851 1.75206 0
M  V30 2351 H 221.081 4.5435 1.77249 0
M  V30 2352 H 220.086 5.48809 -0.329918 0
M  V30 2353 H 221.311 6.78283 -0.332917 0
M  V30 2354 H 219.257 6.29176 1.85671 0
M  V30 2355 H 219.174 7.53209 0.649036 0
M  V30 2356 H 220.442 7.57535 1.83742 0
M  V30 2357 N 224.671 0.411399 1.52136 0
M  V30 2358 C 226.087 0.0623865 1.59478 0
M  V30 2359 C 226.287 -1.42554 1.4241 0
M  V30 2360 O 225.343 -2.19263 1.2522 0
M  V30 2361 C 226.656 0.559331 2.95452 0
M  V30 2362 C 228.204 0.517503 3.08692 0
M  V30 2363 C 228.679 0.990994 4.4715 0
M  V30 2364 N 230.17 0.947908 4.53397 0
M  V30 2365 C 230.905 1.28544 5.58806 0
M  V30 2366 N 230.401 1.69454 6.71757 0
M  V30 2367 N 232.194 1.20526 5.49026 0
M  V30 2368 H 224.345 1.37982 1.61477 0
M  V30 2369 H 226.608 0.566977 0.759764 0
M  V30 2370 H 226.314 1.59938 3.1323 0
M  V30 2371 H 226.188 -0.0298014 3.77188 0
M  V30 2372 H 228.575 -0.513505 2.90598 0
M  V30 2373 H 228.656 1.14272 2.28857 0
M  V30 2374 H 228.3 2.02034 4.65988 0
M  V30 2375 H 228.23 0.34257 5.25485 0
M  V30 2376 H 230.721 0.647157 3.72317 0
M  V30 2377 H 231.034 1.93513 7.48179 0
M  V30 2378 H 229.379 1.73359 6.73032 0
M  V30 2379 H 232.57 0.884505 4.59667 0
M  V30 2380 H 232.743 1.47161 6.31069 0
M  V30 2381 N 226.149 -1.5696 0.141893 0
M  V30 2382 C 227.379 -2.00031 -0.516828 0
M  V30 2383 C 227.787 -1.02091 -1.59293 0
M  V30 2384 O 227.13 -0.00909657 -1.83698 0
M  V30 2385 C 227.192 -3.39534 -1.1814 0
M  V30 2386 C 226.856 -4.56313 -0.250513 0
M  V30 2387 C 227.853 -5.17295 0.519839 0
M  V30 2388 C 225.538 -5.02061 -0.154907 0
M  V30 2389 C 227.532 -6.2243 1.3733 0
M  V30 2390 C 225.219 -6.07053 0.702161 0
M  V30 2391 C 226.217 -6.67106 1.46487 0
M  V30 2392 O 225.905 -7.70066 2.30767 0
M  V30 2393 H 225.637 -0.661451 -0.139493 0
M  V30 2394 H 228.191 -2.04086 0.231926 0
M  V30 2395 H 226.421 -3.32302 -1.97769 0
M  V30 2396 H 228.11 -3.66745 -1.73933 0
M  V30 2397 H 228.876 -4.82852 0.45598 0
M  V30 2398 H 224.755 -4.5505 -0.7383 0
M  V30 2399 H 228.299 -6.69233 1.96909 0
M  V30 2400 H 224.196 -6.40923 0.76733 0
M  V30 2401 H 224.964 -7.87264 2.23959 0
M  V30 2402 N 227.627 0.131896 -1.57047 0
M  V30 2403 C 228.904 0.871495 -1.75112 0
M  V30 2404 C 229.284 1.9866 -0.713949 0
M  V30 2405 O 228.632 2.26965 0.264447 0
M  V30 2406 C 228.842 1.40007 -3.19686 0
M  V30 2407 C 230.19 1.85752 -3.81813 0
M  V30 2408 O 231.214 1.49715 -3.23209 0
M  V30 2409 O 230.073 2.5226 -4.84796 0
M  V30 2410 H 227.167 0.412919 -0.716538 0
M  V30 2411 H 229.713 0.116641 -1.69299 0
M  V30 2412 H 228.485 0.599404 -3.86682 0
M  V30 2413 H 228.108 2.218 -3.29986 0
M  V30 2414 N 229.106 1.52395 0.401703 0
M  V30 2415 C 230.336 1.70429 1.1678 0
M  V30 2416 C 230.744 0.416702 1.84554 0
M  V30 2417 O 230.087 -0.617697 1.73003 0
M  V30 2418 C 230.149 2.78919 2.26814 0
M  V30 2419 C 229.813 4.20437 1.79113 0
M  V30 2420 C 230.81 5.04028 1.27482 0
M  V30 2421 C 228.495 4.66704 1.85722 0
M  V30 2422 C 230.489 6.31961 0.830913 0
M  V30 2423 C 228.176 5.94625 1.40942 0
M  V30 2424 C 229.174 6.77082 0.897128 0
M  V30 2425 O 228.862 8.02607 0.455822 0
M  V30 2426 H 228.594 0.574272 0.356634 0
M  V30 2427 H 231.148 1.99767 0.477724 0
M  V30 2428 H 229.378 2.44973 2.99207 0
M  V30 2429 H 231.067 2.8548 2.88541 0
M  V30 2430 H 231.833 4.69471 1.21744 0
M  V30 2431 H 227.712 4.0262 2.24539 0
M  V30 2432 H 231.256 6.96271 0.430368 0
M  V30 2433 H 227.153 6.28688 1.46362 0
M  V30 2434 H 227.921 8.16453 0.578457 0
M  V30 2435 N 230.584 -0.659388 1.43143 0
M  V30 2436 C 231.824 -1.43121 1.45931 0
M  V30 2437 C 232.188 -1.91838 0.0789298 0
M  V30 2438 O 233.389 -2.68794 -0.018491 0
M  V30 2439 C 231.66 -2.58534 2.46769 0
M  V30 2440 S 233.219 -3.47154 2.68384 0
M  V30 2441 H 230.037 -0.488624 0.516496 0
M  V30 2442 H 232.639 -0.766128 1.79863 0
M  V30 2443 H 231.343 -2.21007 3.45809 0
M  V30 2444 H 230.874 -3.29898 2.14315 0
M  V30 2445 H 232.889 -4.55051 1.97845 0
M  V30 2446 N 232.062 -1.29571 -0.897171 0
M  V30 2447 C 233.339 -1.08365 -1.62839 0
M  V30 2448 C 233.719 0.371331 -2.07808 0
M  V30 2449 O 233.067 1.3606 -1.83576 0
M  V30 2450 C 233.277 -2.0735 -2.80726 0
M  V30 2451 C 234.625 -2.38406 -3.51351 0
M  V30 2452 O 235.649 -2.05564 -2.90898 0
M  V30 2453 O 234.508 -2.9453 -4.60341 0
M  V30 2454 H 231.602 -0.415345 -0.715134 0
M  V30 2455 H 234.148 -1.40952 -0.945018 0
M  V30 2456 H 232.92 -3.05339 -2.44711 0
M  V30 2457 H 232.543 -1.75507 -3.56767 0
M  V30 2458 N 233.54 1.10788 -1.12088 0
M  V30 2459 C 234.789 1.82036 -0.868659 0
M  V30 2460 C 235.102 1.85929 0.607426 0
M  V30 2461 O 236.308 2.53346 0.97613 0
M  V30 2462 C 234.764 3.26951 -1.50435 0
M  V30 2463 C 234.372 3.31367 -3.01496 0
M  V30 2464 C 236.116 4.03053 -1.33225 0
M  V30 2465 C 234.023 4.7072 -3.58017 0
M  V30 2466 H 232.953 0.682108 -0.321318 0
M  V30 2467 H 235.604 1.24618 -1.34694 0
M  V30 2468 H 233.986 3.84343 -0.953735 0
M  V30 2469 H 235.16 2.83819 -3.6302 0
M  V30 2470 H 233.475 2.6875 -3.18061 0
M  V30 2471 H 236.072 5.05981 -1.72878 0
M  V30 2472 H 236.415 4.15387 -0.275529 0
M  V30 2473 H 236.948 3.52066 -1.85188 0
M  V30 2474 H 233.687 4.63585 -4.63432 0
M  V30 2475 H 233.207 5.1865 -3.01268 0
M  V30 2476 H 234.886 5.39685 -3.56859 0
M  V30 2477 N 235.018 0.912232 1.28515 0
M  V30 2478 C 236.429 0.591352 1.77087 0
M  V30 2479 C 236.78 -0.8933 1.74684 0
M  V30 2480 O 235.905 -1.69876 1.34056 0
M  V30 2481 C 236.5 1.06668 3.2157 0
M  V30 2482 C 235.059 0.79675 3.67871 0
M  V30 2483 C 234.206 1.23427 2.48316 0
M  V30 2484 H 237.157 1.09365 1.15 0
M  V30 2485 H 237.178 0.407455 3.78312 0
M  V30 2486 H 236.69 2.14726 3.23287 0
M  V30 2487 H 234.791 -0.270679 3.71616 0
M  V30 2488 H 234.904 1.40343 4.58084 0
M  V30 2489 H 233.268 0.653036 2.46186 0
M  V30 2490 H 234.051 2.32316 2.52753 0
M  V30 2491 N 236.496 -1.42363 0.676048 0
M  V30 2492 C 237.406 -2.346 -0.00153389 0
M  V30 2493 C 238.422 -1.5516 -0.787485 0
M  V30 2494 O 239.598 -1.87723 -0.729521 0
M  V30 2495 C 236.663 -3.33705 -0.940298 0
M  V30 2496 C 235.724 -4.29042 -0.148739 0
M  V30 2497 C 234.957 -5.23413 -1.04279 0
M  V30 2498 O 235.18 -5.22749 -2.28232 0
M  V30 2499 O 234.114 -5.99795 -0.502925 0
M  V30 2500 H 237.94 -2.94082 0.758268 0
M  V30 2501 H 235.525 -1.42888 0.436289 0
M  V30 2502 H 237.407 -3.94586 -1.47917 0
M  V30 2503 H 236.082 -2.76695 -1.67993 0
M  V30 2504 H 234.989 -3.71571 0.43427 0
M  V30 2505 H 236.322 -4.89097 0.551805 0
M  V30 2506 N 237.974 -0.419461 -1.51915 0
M  V30 2507 C 239.214 0.152336 -2.03832 0
M  V30 2508 C 239.578 1.41501 -1.29775 0
M  V30 2509 O 240.779 2.06591 -1.7197 0
M  V30 2510 C 239.05 0.383812 -3.55333 0
M  V30 2511 S 240.609 0.921577 -4.29013 0
M  V30 2512 H 237.427 0.0402193 -0.709862 0
M  V30 2513 H 240.029 -0.574758 -1.8686 0
M  V30 2514 H 238.733 -0.541794 -4.06808 0
M  V30 2515 H 238.264 1.13849 -3.76566 0
M  V30 2516 H 240.279 2.20108 -4.4471 0
M  V30 2517 N 239.452 1.56882 -0.150215 0
M  V30 2518 C 240.362 2.20494 0.801222 0
M  V30 2519 C 241.378 1.19019 1.26927 0
M  V30 2520 O 242.554 1.51607 1.32579 0
M  V30 2521 C 239.619 2.81659 2.02161 0
M  V30 2522 C 238.68 3.9827 1.60249 0
M  V30 2523 C 237.913 4.56508 2.7647 0
M  V30 2524 O 238.136 4.13627 3.92771 0
M  V30 2525 O 237.07 5.46719 2.51757 0
M  V30 2526 H 240.896 3.02315 0.289717 0
M  V30 2527 H 238.481 1.49202 0.0769684 0
M  V30 2528 H 240.363 3.20522 2.73576 0
M  V30 2529 H 239.038 2.02849 2.52258 0
M  V30 2530 H 237.945 3.64117 0.858477 0
M  V30 2531 H 239.278 4.78609 1.14864 0
M  V30 2532 N 240.93 -0.123565 1.57115 0
M  V30 2533 C 242.207 -0.862196 1.75572 0
M  V30 2534 C 242.587 -1.98279 0.724475 0
M  V30 2535 O 241.935 -2.27102 -0.252407 0
M  V30 2536 C 242.145 -1.38309 3.20424 0
M  V30 2537 C 243.493 -1.83724 3.82793 0
M  V30 2538 O 244.517 -1.47999 3.23998 0
M  V30 2539 O 243.376 -2.49685 4.86127 0
M  V30 2540 H 240.47 -0.409113 0.718718 0
M  V30 2541 H 243.016 -0.107661 1.69358 0
M  V30 2542 H 241.788 -0.578889 3.86994 0
M  V30 2543 H 241.411 -2.20046 3.31158 0
M  V30 2544 N 242.408 -1.52605 -0.393616 0
M  V30 2545 C 243.355 -1.77055 -1.48054 0
M  V30 2546 C 244.325 -0.61358 -1.54352 0
M  V30 2547 O 245.51 -0.852806 -1.70681 0
M  V30 2548 C 242.65 -1.94108 -2.85335 0
M  V30 2549 C 241.763 -3.21792 -2.88226 0
M  V30 2550 C 240.898 -3.29188 -4.16904 0
M  V30 2551 C 239.937 -4.51013 -4.13828 0
M  V30 2552 N 239.074 -4.55716 -5.34105 0
M  V30 2553 H 243.914 -2.69815 -1.26506 0
M  V30 2554 H 241.451 -1.33683 -0.61379 0
M  V30 2555 H 243.409 -2.01979 -3.65049 0
M  V30 2556 H 242.039 -1.04713 -3.05344 0
M  V30 2557 H 241.091 -3.23015 -2.00911 0
M  V30 2558 H 242.403 -4.11557 -2.8182 0
M  V30 2559 H 241.557 -3.36216 -5.05018 0
M  V30 2560 H 240.296 -2.37389 -4.26026 0
M  V30 2561 H 239.301 -4.44115 -3.24102 0
M  V30 2562 H 240.526 -5.44123 -4.06333 0
M  V30 2563 H 238.472 -3.66807 -5.43865 0
M  V30 2564 H 238.389 -5.39346 -5.29756 0
M  V30 2565 H 239.657 -4.66993 -6.2413 0
M  V30 2566 N 243.887 0.651787 -1.4349 0
M  V30 2567 C 245.127 1.42345 -1.46688 0
M  V30 2568 C 245.491 1.91793 -0.0891023 0
M  V30 2569 O 246.692 2.688 0.00423594 0
M  V30 2570 C 244.963 2.57221 -2.48137 0
M  V30 2571 S 246.522 3.45725 -2.70221 0
M  V30 2572 H 243.34 0.485878 -0.51908 0
M  V30 2573 H 245.942 0.756578 -1.80267 0
M  V30 2574 H 244.646 2.1917 -3.46976 0
M  V30 2575 H 244.177 3.28757 -2.16061 0
M  V30 2576 H 246.192 4.53996 -2.00255 0
M  V30 2577 N 245.365 1.30045 0.890287 0
M  V30 2578 C 246.298 1.10301 1.99772 0
M  V30 2579 C 247.276 0.0121631 1.62595 0
M  V30 2580 O 248.46 0.16469 1.87779 0
M  V30 2581 C 245.587 0.681125 3.31781 0
M  V30 2582 C 244.633 1.77206 3.87944 0
M  V30 2583 S 245.466 3.37335 4.15891 0
M  V30 2584 C 246.622 2.97036 5.50927 0
M  V30 2585 H 246.855 2.04057 2.16213 0
M  V30 2586 H 244.388 1.14299 1.03804 0
M  V30 2587 H 246.346 0.444439 4.08087 0
M  V30 2588 H 245.007 -0.236981 3.13205 0
M  V30 2589 H 244.2 1.42903 4.83316 0
M  V30 2590 H 243.802 1.96275 3.18358 0
M  V30 2591 H 246.094 2.44666 6.31779 0
M  V30 2592 H 247.037 3.91296 5.90164 0
M  V30 2593 H 247.445 2.35057 5.13233 0
M  V30 2594 N 246.843 -1.10192 1.12674 0
M  V30 2595 C 247.793 -2.14754 0.765801 0
M  V30 2596 C 248.777 -1.59154 -0.236409 0
M  V30 2597 O 249.969 -1.76951 -0.0415261 0
M  V30 2598 C 247.098 -3.42563 0.224827 0
M  V30 2599 C 246.184 -4.05091 1.25548 0
M  V30 2600 N 246.575 -4.42287 2.4539 0
M  V30 2601 C 244.873 -4.32186 1.10142 0
M  V30 2602 C 245.574 -4.91441 3.11224 0
M  V30 2603 N 244.55 -4.88405 2.38666 0
M  V30 2604 H 248.352 -2.41309 1.67772 0
M  V30 2605 H 245.866 -1.27339 1.00789 0
M  V30 2606 H 247.863 -4.16868 -0.0519578 0
M  V30 2607 H 246.523 -3.17467 -0.681515 0
M  V30 2608 H 247.534 -4.33902 2.82754 0
M  V30 2609 H 244.211 -4.16735 0.252587 0
M  V30 2610 H 245.601 -5.29749 4.13298 0
M  V30 2611 N 248.321 -0.919034 -1.28029 0
M  V30 2612 C 249.561 -0.562107 -1.96519 0
M  V30 2613 C 249.925 0.878784 -1.70708 0
M  V30 2614 O 251.126 1.34355 -2.32813 0
M  V30 2615 C 249.397 -0.868953 -3.46676 0
M  V30 2616 S 250.956 -0.619237 -4.34409 0
M  V30 2617 H 247.774 -0.2078 -0.679956 0
M  V30 2618 H 250.376 -1.18562 -1.55446 0
M  V30 2619 H 249.08 -1.91547 -3.62957 0
M  V30 2620 H 248.611 -0.234301 -3.92702 0
M  V30 2621 H 250.626 0.526995 -4.93394 0
M  V30 2622 N 249.799 1.42003 -0.683588 0
M  V30 2623 C 251.024 2.06265 -0.216647 0
M  V30 2624 C 251.449 1.51059 1.12083 0
M  V30 2625 O 250.807 0.632638 1.69904 0
M  V30 2626 C 250.855 3.60191 -0.171759 0
M  V30 2627 O 249.959 4.03396 0.857069 0
M  V30 2628 H 249.3 0.65502 -0.108834 0
M  V30 2629 H 251.83 1.81982 -0.935077 0
M  V30 2630 H 251.84 4.08 0.0014303 0
M  V30 2631 H 250.515 3.99743 -1.14796 0
M  V30 2632 H 249.092 3.67117 0.654208 0
M  V30 2633 N 251.277 0.427512 1.51691 0
M  V30 2634 C 252.525 -0.141948 2.01601 0
M  V30 2635 C 252.846 -1.44067 1.31414 0
M  V30 2636 O 252.116 -1.90763 0.445658 0
M  V30 2637 H 250.696 -0.0554468 0.744939 0
M  V30 2638 H 253.358 0.567968 1.86441 0
M  V30 2639 H 252.454 -0.324913 3.10404 0
M  V30 2640 N 252.755 -1.56801 0.158532 0
M  V30 2641 C 253.665 -2.20916 -0.789518 0
M  V30 2642 C 254.681 -1.1969 -1.26294 0
M  V30 2643 O 255.857 -1.52308 -1.31773 0
M  V30 2644 C 252.922 -2.82727 -2.00665 0
M  V30 2645 C 251.983 -3.99114 -1.58134 0
M  V30 2646 C 251.216 -4.57968 -2.74045 0
M  V30 2647 O 251.439 -4.15704 -3.90572 0
M  V30 2648 O 250.373 -5.48047 -2.48855 0
M  V30 2649 H 254.199 -3.02464 -0.273681 0
M  V30 2650 H 251.784 -1.4924 -0.0690548 0
M  V30 2651 H 253.666 -3.21968 -2.71872 0
M  V30 2652 H 252.341 -2.04184 -2.51179 0
M  V30 2653 H 251.248 -3.64567 -0.839155 0
M  V30 2654 H 252.581 -4.79212 -1.12325 0
M  V30 2655 N 254.233 0.115231 -1.57178 0
M  V30 2656 C 255.181 1.16014 -2.01602 0
M  V30 2657 C 256.175 1.42653 -0.913587 0
M  V30 2658 O 257.381 1.42571 -1.09879 0
M  V30 2659 H 253.756 0.391252 -0.642204 0
M  V30 2660 H 255.727 0.758998 -2.88586 0
M  V30 2661 C 254.476 2.47767 -2.4394 0
M  V30 2662 H 253.799 2.28108 -3.28339 0
M  V30 2663 H 255.239 3.19432 -2.78818 0
M  V30 2664 C 253.698 3.10617 -1.30455 0
M  V30 2665 O 254.228 3.96846 -0.622585 0
M  V30 2666 N 252.434 2.70553 -1.06064 0
M  V30 2667 H 251.981 2.00527 -1.61699 0
M  V30 2668 H 251.939 3.12934 -0.303284 0
M  V30 2669 N 255.711 1.52812 0.385517 0
M  V30 2670 C 256.941 1.71658 1.14966 0
M  V30 2671 C 257.349 0.436253 1.84102 0
M  V30 2672 O 256.692 -0.599313 1.73649 0
M  V30 2673 C 256.754 2.81309 2.23843 0
M  V30 2674 C 256.418 4.22313 1.74644 0
M  V30 2675 C 257.415 5.05352 1.22129 0
M  V30 2676 C 255.1 4.68648 1.80761 0
M  V30 2677 C 257.094 6.32807 0.763838 0
M  V30 2678 C 254.781 5.96086 1.34627 0
M  V30 2679 C 255.779 6.77996 0.825264 0
M  V30 2680 O 255.467 8.03045 0.370669 0
M  V30 2681 H 255.199 0.578022 0.350523 0
M  V30 2682 H 257.753 2.00263 0.456509 0
M  V30 2683 H 255.983 2.48133 2.96592 0
M  V30 2684 H 257.672 2.88524 2.85497 0
M  V30 2685 H 258.438 4.70736 1.16758 0
M  V30 2686 H 254.317 4.04979 2.20256 0
M  V30 2687 H 257.861 6.96689 0.356494 0
M  V30 2688 H 253.758 6.30205 1.39686 0
M  V30 2689 H 254.526 8.17021 0.491829 0
M  V30 2690 N 257.189 -0.644168 1.43834 0
M  V30 2691 C 258.099 -1.78563 1.52159 0
M  V30 2692 C 259.115 -1.69147 0.408069 0
M  V30 2693 O 260.291 -1.90156 0.663524 0
M  V30 2694 C 257.356 -3.14888 1.45073 0
M  V30 2695 C 256.417 -3.36034 2.6717 0
M  V30 2696 C 255.65 -4.65855 2.60413 0
M  V30 2697 O 255.873 -5.45805 1.65689 0
M  V30 2698 O 254.807 -4.88918 3.5106 0
M  V30 2699 H 258.633 -1.74494 2.48567 0
M  V30 2700 H 256.218 -0.80378 1.25935 0
M  V30 2701 H 258.1 -3.96179 1.43597 0
M  V30 2702 H 256.775 -3.19528 0.518037 0
M  V30 2703 H 255.682 -2.54472 2.74217 0
M  V30 2704 H 257.015 -3.36247 3.59442 0
M  V30 2705 N 258.668 -1.30515 -0.883378 0
M  V30 2706 C 259.916 -1.19194 -1.63209 0
M  V30 2707 C 260.237 0.253205 -1.93349 0
M  V30 2708 O 259.507 1.17025 -1.57105 0
M  V30 2709 H 258.087 -0.438148 -0.605009 0
M  V30 2710 H 260.749 -1.63663 -1.05832 0
M  V30 2711 H 259.845 -1.75396 -2.58153 0
M  V30 2712 N 260.146 1.09593 -1.13257 0
M  V30 2713 C 261.093 2.1618 -0.808381 0
M  V30 2714 C 262.063 1.64517 0.228754 0
M  V30 2715 O 263.248 1.9053 0.101381 0
M  V30 2716 C 260.388 3.43973 -0.278675 0
M  V30 2717 C 259.501 4.09545 -1.37466 0
M  V30 2718 C 258.636 5.25088 -0.803479 0
M  V30 2719 C 257.675 5.82579 -1.87799 0
M  V30 2720 N 256.812 6.89486 -1.32488 0
M  V30 2721 H 261.652 2.43254 -1.72138 0
M  V30 2722 H 259.189 1.19392 -0.859294 0
M  V30 2723 H 261.147 4.17174 0.0465583 0
M  V30 2724 H 259.777 3.17223 0.597459 0
M  V30 2725 H 258.829 3.34226 -1.81652 0
M  V30 2726 H 260.141 4.48307 -2.18684 0
M  V30 2727 H 259.295 6.05178 -0.429427 0
M  V30 2728 H 258.034 4.87684 0.0397956 0
M  V30 2729 H 257.039 5.01152 -2.26113 0
M  V30 2730 H 258.264 6.22045 -2.72463 0
M  V30 2731 H 256.21 6.54064 -0.503575 0
M  V30 2732 H 256.127 7.27007 -2.07355 0
M  V30 2733 H 257.395 7.73336 -0.978336 0
M  V30 2734 N 261.624 0.925811 1.2754 0
M  V30 2735 C 262.873 0.561084 1.93739 0
M  V30 2736 C 263.186 -0.901685 1.73577 0
M  V30 2737 O 264.392 -1.37511 2.34101 0
M  V30 2738 C 262.848 0.952668 3.47062 0
M  V30 2739 C 262.456 2.43599 3.75983 0
M  V30 2740 C 264.2 0.659103 4.19352 0
M  V30 2741 C 262.107 2.76707 5.22673 0
M  V30 2742 H 261.037 0.206122 0.725279 0
M  V30 2743 H 263.688 1.12637 1.44863 0
M  V30 2744 H 262.07 0.316053 3.94737 0
M  V30 2745 H 263.244 3.12035 3.39073 0
M  V30 2746 H 261.559 2.70125 3.16893 0
M  V30 2747 H 264.156 0.882985 5.27359 0
M  V30 2748 H 264.499 -0.403607 4.14339 0
M  V30 2749 H 265.032 1.25473 3.77494 0
M  V30 2750 H 261.771 3.8188 5.32774 0
M  V30 2751 H 261.291 2.12919 5.60737 0
M  V30 2752 H 262.97 2.6435 5.90532 0
M  V30 2753 N 263.102 -1.41638 0.69111 0
M  V30 2754 C 264.065 -2.29178 0.0319786 0
M  V30 2755 C 265.065 -1.44153 -0.712496 0
M  V30 2756 O 266.255 -1.65354 -0.548053 0
M  V30 2757 C 263.387 -3.26952 -0.965161 0
M  V30 2758 H 264.58 -2.88959 0.802681 0
M  V30 2759 H 262.133 -1.4955 0.454356 0
M  V30 2760 H 262.868 -2.72142 -1.76378 0
M  V30 2761 H 262.653 -3.89685 -0.434522 0
M  V30 2762 H 264.143 -3.92561 -1.42428 0
M  V30 2763 N 264.58 -0.43555 -1.51462 0
M  V30 2764 C 265.527 0.376797 -2.27703 0
M  V30 2765 C 266.497 1.01838 -1.31219 0
M  V30 2766 O 267.682 1.03762 -1.60119 0
M  V30 2767 C 264.822 1.47301 -3.12084 0
M  V30 2768 C 263.935 0.849744 -4.2356 0
M  V30 2769 C 263.07 1.92086 -4.95254 0
M  V30 2770 C 262.109 1.27593 -5.98654 0
M  V30 2771 N 261.246 2.28833 -6.63762 0
M  V30 2772 H 266.086 -0.279734 -2.96684 0
M  V30 2773 H 263.623 -0.149795 -1.46335 0
M  V30 2774 H 265.581 2.11984 -3.59331 0
M  V30 2775 H 264.211 2.0992 -2.45221 0
M  V30 2776 H 263.263 0.0912529 -3.80291 0
M  V30 2777 H 264.575 0.338878 -4.97648 0
M  V30 2778 H 263.729 2.64435 -5.46039 0
M  V30 2779 H 262.468 2.46545 -4.20793 0
M  V30 2780 H 261.473 0.537893 -5.47162 0
M  V30 2781 H 262.698 0.738693 -6.7507 0
M  V30 2782 H 260.644 2.82375 -5.92115 0
M  V30 2783 H 260.561 1.82632 -7.33608 0
M  V30 2784 H 261.829 3.00671 -7.19178 0
M  V30 2785 N 266.058 1.56714 -0.166846 0
M  V30 2786 C 267.286 2.0112 0.485644 0
M  V30 2787 C 267.701 1.04705 1.57106 0
M  V30 2788 O 267.058 0.0471923 1.82439 0
M  V30 2789 C 267.109 3.45361 1.06808 0
M  V30 2790 O 266.83 4.38092 0.0259995 0
M  V30 2791 C 268.331 4.05145 1.79924 0
M  V30 2792 H 265.551 0.65931 0.124704 0
M  V30 2793 H 268.095 2.02746 -0.267262 0
M  V30 2794 H 266.25 3.44524 1.7715 0
M  V30 2795 H 266.664 5.22519 0.455398 0
M  V30 2796 H 268.138 5.08009 2.15942 0
M  V30 2797 H 268.615 3.46982 2.69258 0
M  V30 2798 H 269.221 4.09672 1.14234 0
M  V30 2799 N 267.536 -0.106894 1.57237 0
M  V30 2800 C 268.469 -1.16125 1.96444 0
M  V30 2801 C 269.447 -1.3947 0.835871 0
M  V30 2802 O 270.631 -1.53425 1.09513 0
M  V30 2803 C 267.758 -2.51277 2.27107 0
M  V30 2804 C 266.804 -2.44285 3.4961 0
M  V30 2805 S 267.637 -1.87077 5.01759 0
M  V30 2806 C 268.793 -3.23877 5.35588 0
M  V30 2807 H 269.026 -0.826971 2.85567 0
M  V30 2808 H 266.559 -0.314124 1.51171 0
M  V30 2809 H 268.517 -3.29035 2.45451 0
M  V30 2810 H 267.178 -2.81879 1.38576 0
M  V30 2811 H 266.371 -3.4387 3.68469 0
M  V30 2812 H 265.973 -1.74652 3.30715 0
M  V30 2813 H 268.265 -4.20122 5.31511 0
M  V30 2814 H 269.208 -3.09833 6.36717 0
M  V30 2815 H 269.616 -3.22864 4.63054 0
M  V30 2816 N 269.014 -1.53014 -0.377408 0
M  V30 2817 C 270.239 -1.72818 -1.14668 0
M  V30 2818 C 270.664 -0.450725 -1.8262 0
M  V30 2819 O 270.022 0.59439 -1.7128 0
M  V30 2820 C 270.07 -2.88627 -2.16164 0
M  V30 2821 O 269.174 -2.56409 -3.22998 0
M  V30 2822 H 268.515 -0.574301 -0.333278 0
M  V30 2823 H 271.045 -1.99853 -0.438152 0
M  V30 2824 H 271.055 -3.14455 -2.59966 0
M  V30 2825 H 269.73 -3.81294 -1.66095 0
M  V30 2826 H 268.307 -2.4136 -2.84253 0
M  V30 2827 N 270.492 0.636531 -1.44174 0
M  V30 2828 C 271.74 1.39343 -1.46383 0
M  V30 2829 C 272.061 1.94766 -0.0955715 0
M  V30 2830 O 271.331 1.75452 0.871395 0
M  V30 2831 H 269.911 0.517199 -0.538994 0
M  V30 2832 H 272.573 0.74957 -1.7991 0
M  V30 2833 H 271.669 2.22746 -2.18611 0
M  V30 2834 N 271.97 1.30982 0.876444 0
M  V30 2835 C 273.386 1.09498 1.16113 0
M  V30 2836 C 273.586 -0.13875 2.01022 0
M  V30 2837 O 272.642 -0.829935 2.38471 0
M  V30 2838 C 273.955 2.36308 1.85954 0
M  V30 2839 C 275.503 2.41856 1.98683 0
M  V30 2840 C 275.978 3.6853 2.71937 0
M  V30 2841 N 277.469 3.69387 2.79477 0
M  V30 2842 C 278.204 4.64096 3.36753 0
M  V30 2843 N 277.7 5.69155 3.95012 0
M  V30 2844 N 279.493 4.51626 3.3465 0
M  V30 2845 H 271.644 2.10118 0.310494 0
M  V30 2846 H 273.907 0.926634 0.200131 0
M  V30 2847 H 273.613 3.26388 1.31011 0
M  V30 2848 H 273.487 2.4561 2.86278 0
M  V30 2849 H 275.874 1.52249 2.52793 0
M  V30 2850 H 275.955 2.36523 0.9742 0
M  V30 2851 H 275.599 4.58499 2.18496 0
M  V30 2852 H 275.529 3.71127 3.73593 0
M  V30 2853 H 278.02 2.93438 2.38123 0
M  V30 2854 H 278.333 6.3751 4.36808 0
M  V30 2855 H 276.678 5.72937 3.93406 0
M  V30 2856 H 279.869 3.68728 2.8837 0
M  V30 2857 H 280.042 5.25614 3.7899 0
M  V30 2858 N 273.449 -1.08991 1.13837 0
M  V30 2859 C 274.726 -1.77863 0.813876 0
M  V30 2860 C 275.106 -1.99375 -0.693746 0
M  V30 2861 O 274.454 -1.59875 -1.63255 0
M  V30 2862 C 274.664 -3.0986 1.60586 0
M  V30 2863 C 276.012 -3.84493 1.8014 0
M  V30 2864 O 277.036 -3.19624 1.57222 0
M  V30 2865 O 275.895 -5.00957 2.18413 0
M  V30 2866 H 272.989 -0.771589 0.297624 0
M  V30 2867 H 275.535 -1.15507 1.24323 0
M  V30 2868 H 274.307 -2.89715 2.63022 0
M  V30 2869 H 273.93 -3.79942 1.17173 0
M  V30 2870 N 274.927 -0.932562 -1.27047 0
M  V30 2871 C 276.167 -0.582919 -1.95912 0
M  V30 2872 C 276.531 0.860629 -1.71631 0
M  V30 2873 O 277.732 1.31878 -2.34225 0
M  V30 2874 C 276.003 -0.905673 -3.45734 0
M  V30 2875 S 277.562 -0.665277 -4.33727 0
M  V30 2876 H 274.38 -0.215 -0.677714 0
M  V30 2877 H 276.982 -1.20204 -1.54179 0
M  V30 2878 H 275.686 -1.95386 -3.60905 0
M  V30 2879 H 275.217 -0.275939 -3.92431 0
M  V30 2880 H 277.232 0.474635 -4.93925 0
M  V30 2881 N 276.405 1.4127 -0.698611 0
M  V30 2882 C 277.337 2.292 0.00399731 0
M  V30 2883 C 278.35 1.44944 0.741279 0
M  V30 2884 O 279.539 1.68416 0.591477 0
M  V30 2885 C 276.639 3.22875 1.02979 0
M  V30 2886 C 275.812 4.35904 0.36151 0
M  V30 2887 C 274.871 5.10134 1.29033 0
M  V30 2888 O 273.897 5.63809 0.781562 0
M  V30 2889 N 275.099 5.17885 2.6225 0
M  V30 2890 H 277.864 2.9014 -0.750921 0
M  V30 2891 H 275.425 1.52455 -0.544882 0
M  V30 2892 H 277.417 3.69404 1.65296 0
M  V30 2893 H 275.987 2.63221 1.68622 0
M  V30 2894 H 275.207 3.91719 -0.441584 0
M  V30 2895 H 276.495 5.08696 -0.103055 0
M  V30 2896 H 275.893 4.7573 3.061 0
M  V30 2897 H 274.45 5.6798 3.19754 0
M  V30 2898 N 277.883 0.443576 1.51229 0
M  V30 2899 C 278.846 -0.353132 2.26463 0
M  V30 2900 C 279.846 -0.944338 1.3015 0
M  V30 2901 O 281.036 -0.817813 1.5381 0
M  V30 2902 C 278.168 -1.50023 3.06114 0
M  V30 2903 H 279.361 0.3063 2.98332 0
M  V30 2904 H 276.914 0.196902 1.55055 0
M  V30 2905 H 277.649 -2.19553 2.38677 0
M  V30 2906 H 277.434 -1.08241 3.76864 0
M  V30 2907 H 278.924 -2.06296 3.63087 0
M  V30 2908 N 279.361 -1.56624 0.175154 0
M  V30 2909 C 280.607 -1.98061 -0.462976 0
M  V30 2910 C 280.962 -1.05949 -1.60601 0
M  V30 2911 O 280.255 -0.0999027 -1.91339 0
M  V30 2912 C 280.449 -3.43419 -0.989864 0
M  V30 2913 C 280.278 -4.49587 0.100583 0
M  V30 2914 C 279.048 -5.02281 0.551539 0
M  V30 2915 C 281.246 -5.06322 0.902369 0
M  V30 2916 N 279.228 -5.92088 1.62189 0
M  V30 2917 C 280.599 -5.92607 1.82256 0
M  V30 2918 C 282.654 -4.88811 0.947019 0
M  V30 2919 C 281.357 -6.63254 2.78364 0
M  V30 2920 C 283.383 -5.60182 1.89606 0
M  V30 2921 C 282.745 -6.46197 2.80372 0
M  V30 2922 H 278.844 -0.769833 -0.137409 0
M  V30 2923 H 281.428 -1.9273 0.276256 0
M  V30 2924 H 279.599 -3.49288 -1.6986 0
M  V30 2925 H 281.331 -3.7186 -1.59694 0
M  V30 2926 H 278.086 -4.73367 0.148537 0
M  V30 2927 H 278.51 -6.41696 2.15767 0
M  V30 2928 H 283.152 -4.22004 0.259304 0
M  V30 2929 H 280.87 -7.29271 3.48122 0
M  V30 2930 H 284.456 -5.48617 1.93676 0
M  V30 2931 H 283.336 -7.00453 3.52612 0
M  V30 2932 N 280.839 0.0985539 -1.57292 0
M  V30 2933 C 282.116 0.834155 -1.76921 0
M  V30 2934 C 282.496 1.97101 -0.755928 0
M  V30 2935 O 281.844 2.27474 0.216245 0
M  V30 2936 C 282.054 1.33194 -3.22584 0
M  V30 2937 C 283.402 1.77611 -3.85668 0
M  V30 2938 O 284.426 1.42825 -3.26312 0
M  V30 2939 O 283.285 2.4192 -4.90038 0
M  V30 2940 H 280.379 0.397628 -0.725135 0
M  V30 2941 H 282.925 0.0807044 -1.69508 0
M  V30 2942 H 281.697 0.517248 -3.87866 0
M  V30 2943 H 281.32 2.1475 -3.34616 0
M  V30 2944 N 282.317 1.53212 0.369288 0
M  V30 2945 C 283.542 1.73423 1.1375 0
M  V30 2946 C 283.967 0.460404 1.82378 0
M  V30 2947 O 283.325 -0.585298 1.71592 0
M  V30 2948 C 283.373 2.89769 2.1463 0
M  V30 2949 O 282.477 2.58119 3.21634 0
M  V30 2950 H 281.818 0.576061 0.330227 0
M  V30 2951 H 284.348 2.00083 0.427547 0
M  V30 2952 H 284.358 3.15829 2.58294 0
M  V30 2953 H 283.033 3.8217 1.64071 0
M  V30 2954 H 281.61 2.42864 2.82969 0
M  V30 2955 N 283.795 -0.628877 1.44509 0
M  V30 2956 C 284.727 -1.754 1.47538 0
M  V30 2957 C 285.74 -1.58575 0.368506 0
M  V30 2958 O 286.929 -1.66847 0.634376 0
M  V30 2959 C 284.029 -3.1315 1.29577 0
M  V30 2960 C 283.202 -3.56413 2.53551 0
M  V30 2961 C 282.261 -4.7305 2.30457 0
M  V30 2962 O 281.287 -4.81247 3.03957 0
M  V30 2963 N 282.489 -5.64903 1.3366 0
M  V30 2964 H 285.254 -1.73272 2.44534 0
M  V30 2965 H 282.815 -0.813512 1.39977 0
M  V30 2966 H 284.807 -3.88902 1.11971 0
M  V30 2967 H 283.377 -3.09908 0.409371 0
M  V30 2968 H 282.597 -2.70847 2.86419 0
M  V30 2969 H 283.885 -3.82071 3.36005 0
M  V30 2970 H 283.283 -5.60975 0.729604 0
M  V30 2971 H 281.84 -6.40275 1.22032 0
M  V30 2972 N 285.273 -1.31445 -0.869486 0
M  V30 2973 C 286.498 -1.24256 -1.66058 0
M  V30 2974 C 286.923 0.188928 -1.87149 0
M  V30 2975 O 286.281 1.13522 -1.4136 0
M  V30 2976 C 286.329 -1.9924 -3.00559 0
M  V30 2977 O 285.433 -1.33007 -3.90362 0
M  V30 2978 H 284.774 -0.428973 -0.506831 0
M  V30 2979 H 287.304 -1.73521 -1.08404 0
M  V30 2980 H 287.314 -2.08854 -3.50491 0
M  V30 2981 H 285.989 -3.03342 -2.84528 0
M  V30 2982 H 284.566 -1.31848 -3.48813 0
M  V30 2983 N 286.751 1.08385 -1.14413 0
M  V30 2984 C 288.162 1.62258 -0.923535 0
M  V30 2985 C 288.513 1.88691 0.537595 0
M  V30 2986 O 287.638 1.64454 1.40655 0
M  V30 2987 C 288.233 2.94781 -1.67002 0
M  V30 2988 C 286.792 3.45437 -1.495 0
M  V30 2989 C 285.939 2.19668 -1.69238 0
M  V30 2990 H 288.89 0.916086 -1.2959 0
M  V30 2991 H 288.911 3.63229 -1.13334 0
M  V30 2992 H 288.423 2.7551 -2.73342 0
M  V30 2993 H 286.524 3.6981 -0.455097 0
M  V30 2994 H 286.637 4.22173 -2.2651 0
M  V30 2995 H 285.001 2.28849 -1.11804 0
M  V30 2996 H 285.784 2.02905 -2.7692 0
M  V30 2997 N 288.23 0.939286 1.26551 0
M  V30 2998 C 289.18 0.418284 2.2413 0
M  V30 2999 C 290.164 -0.483935 1.5345 0
M  V30 3000 O 291.356 -0.319489 1.74093 0
M  V30 3001 C 288.485 -0.31709 3.41832 0
M  V30 3002 C 287.571 0.602311 4.19801 0
M  V30 3003 N 287.962 1.72726 4.75394 0
M  V30 3004 C 286.26 0.407534 4.44134 0
M  V30 3005 C 286.961 2.30004 5.34297 0
M  V30 3006 N 285.937 1.58828 5.1988 0
M  V30 3007 H 289.739 1.27705 2.64705 0
M  V30 3008 H 287.253 0.794929 1.41614 0
M  V30 3009 H 289.25 -0.707364 4.10855 0
M  V30 3010 H 287.91 -1.17264 3.02786 0
M  V30 3011 H 288.921 2.10944 4.72994 0
M  V30 3012 H 285.598 -0.406406 4.15517 0
M  V30 3013 H 286.988 3.24778 5.88191 0
M  V30 3014 N 289.708 -1.40897 0.706093 0
M  V30 3015 C 290.671 -2.29131 0.0562841 0
M  V30 3016 C 291.671 -1.44901 -0.697166 0
M  V30 3017 O 292.861 -1.65926 -0.530484 0
M  V30 3018 C 289.993 -3.27957 -0.93043 0
M  V30 3019 H 291.186 -2.88091 0.833284 0
M  V30 3020 H 288.739 -1.4906 0.470192 0
M  V30 3021 H 289.474 -2.73997 -1.73482 0
M  V30 3022 H 289.259 -3.90124 -0.393166 0
M  V30 3023 H 290.749 -3.94049 -1.38256 0
M  V30 3024 N 291.186 -0.45159 -1.50991 0
M  V30 3025 C 292.136 0.370861 -2.24964 0
M  V30 3026 C 293.12 0.978074 -1.2776 0
M  V30 3027 O 294.312 0.893854 -1.52772 0
M  V30 3028 C 291.441 1.46344 -3.10545 0
M  V30 3029 C 290.527 0.864924 -4.15187 0
M  V30 3030 N 290.918 -0.00311354 -5.058 0
M  V30 3031 C 289.216 1.13099 -4.31422 0
M  V30 3032 C 289.917 -0.340772 -5.80701 0
M  V30 3033 N 288.893 0.279203 -5.42883 0
M  V30 3034 H 292.695 -0.298134 -2.92384 0
M  V30 3035 H 290.209 -0.264528 -1.60231 0
M  V30 3036 H 292.206 2.06565 -3.62128 0
M  V30 3037 H 290.866 2.13463 -2.4467 0
M  V30 3038 H 291.877 -0.37058 -5.16572 0
M  V30 3039 H 288.554 1.79861 -3.76771 0
M  V30 3040 H 289.944 -1.048 -6.63677 0
M  V30 3041 N 292.664 1.56529 -0.183458 0
M  V30 3042 C 293.912 1.96855 0.457452 0
M  V30 3043 C 294.233 1.07104 1.62953 0
M  V30 3044 O 293.503 0.139887 1.954 0
M  V30 3045 H 292.083 0.72693 0.171992 0
M  V30 3046 H 294.745 1.93056 -0.267476 0
M  V30 3047 H 293.841 3.01423 0.809368 0
M  V30 3048 N 294.142 -0.090211 1.57342 0
M  V30 3049 C 295.372 -0.805055 1.90269 0
M  V30 3050 C 295.78 -1.72561 0.775842 0
M  V30 3051 O 295.123 -1.81839 -0.260843 0
M  V30 3052 C 295.185 -1.66734 3.18497 0
M  V30 3053 C 294.849 -0.918092 4.47683 0
M  V30 3054 C 295.846 -0.245674 5.19319 0
M  V30 3055 C 293.531 -0.890724 4.94339 0
M  V30 3056 C 295.525 0.444088 6.35851 0
M  V30 3057 C 293.212 -0.197179 6.10782 0
M  V30 3058 C 294.21 0.469044 6.81388 0
M  V30 3059 O 293.898 1.15146 7.95611 0
M  V30 3060 H 293.63 -0.235143 0.633785 0
M  V30 3061 H 296.184 -0.0703805 2.05279 0
M  V30 3062 H 294.414 -2.44437 2.99646 0
M  V30 3063 H 296.103 -2.25919 3.37217 0
M  V30 3064 H 296.869 -0.258246 4.84312 0
M  V30 3065 H 292.748 -1.39873 4.39268 0
M  V30 3066 H 296.292 0.964667 6.90898 0
M  V30 3067 H 292.189 -0.18247 6.45242 0
M  V30 3068 H 292.957 1.05885 8.11622 0
M  V30 3069 N 295.62 -1.53406 -0.361157 0
M  V30 3070 C 296.869 -1.69022 -1.10066 0
M  V30 3071 C 297.182 -0.450838 -1.90333 0
M  V30 3072 O 298.388 -0.487617 -2.67085 0
M  V30 3073 C 296.844 -2.98812 -2.00598 0
M  V30 3074 C 296.452 -4.30027 -1.25621 0
M  V30 3075 C 298.196 -3.23795 -2.74513 0
M  V30 3076 C 296.103 -5.50903 -2.1508 0
M  V30 3077 H 295.033 -0.629776 -0.414606 0
M  V30 3078 H 297.684 -1.79907 -0.361348 0
M  V30 3079 H 296.066 -2.8174 -2.78278 0
M  V30 3080 H 297.24 -4.57745 -0.529739 0
M  V30 3081 H 295.555 -4.11522 -0.635496 0
M  V30 3082 H 298.152 -4.11289 -3.41681 0
M  V30 3083 H 298.495 -2.40045 -3.40123 0
M  V30 3084 H 299.028 -3.41561 -2.03914 0
M  V30 3085 H 295.767 -6.37143 -1.54041 0
M  V30 3086 H 295.287 -5.27459 -2.85565 0
M  V30 3087 H 296.966 -5.85865 -2.74538 0
M  V30 3088 N 297.098 0.621204 -1.44841 0
M  V30 3089 C 298.509 1.20298 -1.42777 0
M  V30 3090 C 298.86 1.95639 -0.148259 0
M  V30 3091 O 297.985 2.02955 0.750892 0
M  V30 3092 C 298.58 2.1882 -2.58657 0
M  V30 3093 C 297.139 2.72403 -2.59756 0
M  V30 3094 C 296.286 1.4757 -2.34773 0
M  V30 3095 H 299.237 0.411297 -1.53278 0
M  V30 3096 H 299.258 3.01607 -2.31977 0
M  V30 3097 H 298.77 1.63957 -3.51766 0
M  V30 3098 H 296.871 3.31242 -1.70615 0
M  V30 3099 H 296.984 3.17765 -3.58556 0
M  V30 3100 H 295.348 1.76051 -1.8406 0
M  V30 3101 H 296.131 0.945954 -3.3001 0
M  V30 3102 N 298.576 1.31904 0.862503 0
M  V30 3103 C 299.801 1.25135 1.65397 0
M  V30 3104 C 300.226 -0.179 1.87246 0
M  V30 3105 O 299.584 -1.1277 1.4196 0
M  V30 3106 C 299.632 2.00832 2.99498 0
M  V30 3107 O 298.736 1.35075 3.89652 0
M  V30 3108 H 298.077 0.431655 0.504549 0
M  V30 3109 H 300.607 1.74094 1.07483 0
M  V30 3110 H 300.617 2.10709 3.49379 0
M  V30 3111 H 299.292 3.04847 2.82916 0
M  V30 3112 H 297.869 1.33696 3.48109 0
M  V30 3113 N 300.054 -1.07777 1.14986 0
M  V30 3114 C 301.001 -2.14867 0.842672 0
M  V30 3115 C 301.971 -1.6486 -0.202552 0
M  V30 3116 O 303.156 -1.90668 -0.0710568 0
M  V30 3117 C 300.296 -3.43486 0.333363 0
M  V30 3118 C 299.409 -4.07306 1.43965 0
M  V30 3119 C 298.544 -5.23744 0.886914 0
M  V30 3120 C 297.583 -5.79517 1.97043 0
M  V30 3121 N 296.72 -6.87291 1.4344 0
M  V30 3122 H 301.56 -2.40485 1.75986 0
M  V30 3123 H 299.097 -1.1801 0.878179 0
M  V30 3124 H 301.055 -4.17195 0.0198163 0
M  V30 3125 H 299.685 -3.18133 -0.546916 0
M  V30 3126 H 298.737 -3.31293 1.86946 0
M  V30 3127 H 300.049 -4.44771 2.25788 0
M  V30 3128 H 299.203 -6.04419 0.525651 0
M  V30 3129 H 297.942 -4.87685 0.0377957 0
M  V30 3130 H 296.947 -4.97491 2.34057 0
M  V30 3131 H 298.172 -6.17632 2.82325 0
M  V30 3132 H 296.118 -6.5318 0.607567 0
M  V30 3133 H 296.035 -7.23617 2.18895 0
M  V30 3134 H 297.303 -7.71682 1.10124 0
M  V30 3135 N 301.532 -0.945985 -1.26051 0
M  V30 3136 C 302.779 -0.596118 -1.93527 0
M  V30 3137 C 303.107 0.865559 -1.74179 0
M  V30 3138 O 302.362 1.63524 -1.0751 0
M  V30 3139 C 302.661 -0.890475 -3.46129 0
M  V30 3140 C 302.327 -2.3368 -3.85622 0
M  V30 3141 C 300.989 -2.73216 -3.96114 0
M  V30 3142 C 303.341 -3.27648 -4.05334 0
M  V30 3143 C 300.669 -4.05806 -4.2372 0
M  V30 3144 C 303.021 -4.59841 -4.3443 0
M  V30 3145 C 301.685 -4.99185 -4.43137 0
M  V30 3146 H 300.955 -0.218135 -0.708165 0
M  V30 3147 H 303.602 -1.1934 -1.49768 0
M  V30 3148 H 301.907 -0.210711 -3.91233 0
M  V30 3149 H 303.604 -0.598478 -3.96509 0
M  V30 3150 H 300.194 -2.02015 -3.78005 0
M  V30 3151 H 304.378 -2.98298 -3.96651 0
M  V30 3152 H 299.634 -4.35945 -4.28675 0
M  V30 3153 H 303.808 -5.32641 -4.48628 0
M  V30 3154 H 301.435 -6.01952 -4.64282 0
M  V30 3155 N 303.011 1.40521 -0.713556 0
M  V30 3156 C 304.422 1.83853 -0.324807 0
M  V30 3157 C 304.773 1.59667 1.14021 0
M  V30 3158 O 303.898 1.07649 1.87725 0
M  V30 3159 C 304.493 3.33751 -0.582746 0
M  V30 3160 C 303.052 3.75584 -0.247727 0
M  V30 3161 C 302.199 2.63753 -0.856121 0
M  V30 3162 H 305.15 1.29817 -0.91286 0
M  V30 3163 H 305.171 3.80194 0.152682 0
M  V30 3164 H 304.683 3.51322 -1.64908 0
M  V30 3165 H 302.784 3.63608 0.813624 0
M  V30 3166 H 302.897 4.7373 -0.715307 0
M  V30 3167 H 301.261 2.53108 -0.28432 0
M  V30 3168 H 302.044 2.84137 -1.92668 0
M  V30 3169 N 304.489 0.459591 1.5075 0
M  V30 3170 C 305.437 -0.354678 2.2988 0
M  V30 3171 C 306.431 -1.00086 1.36672 0
M  V30 3172 O 307.637 -0.933277 1.53915 0
M  V30 3173 H 304.012 -0.13321 0.740107 0
M  V30 3174 H 305.983 0.333269 2.96533 0
M  V30 3175 C 304.732 -1.43073 3.169 0
M  V30 3176 H 304.055 -0.942882 3.88523 0
M  V30 3177 H 305.495 -1.97328 3.75284 0
M  V30 3178 C 303.954 -2.42633 2.33732 0
M  V30 3179 O 304.484 -3.47658 2.01238 0
M  V30 3180 N 302.69 -2.14066 1.9653 0
M  V30 3181 H 302.237 -1.28685 2.23155 0
M  V30 3182 H 302.195 -2.80917 1.41185 0
M  V30 3183 N 305.967 -1.56429 0.191757 0
M  V30 3184 C 306.914 -2.18936 -0.730454 0
M  V30 3185 C 307.884 -1.13557 -1.21219 0
M  V30 3186 O 309.069 -1.41794 -1.27668 0
M  V30 3187 C 306.209 -2.85013 -1.9458 0
M  V30 3188 C 305.322 -4.04909 -1.50574 0
M  V30 3189 C 304.457 -4.58853 -2.67634 0
M  V30 3190 C 303.496 -5.71114 -2.20217 0
M  V30 3191 N 302.633 -6.19478 -3.30442 0
M  V30 3192 H 307.473 -2.97389 -0.190664 0
M  V30 3193 H 305.01 -1.46869 -0.0823694 0
M  V30 3194 H 306.968 -3.21492 -2.65893 0
M  V30 3195 H 305.598 -2.09129 -2.45896 0
M  V30 3196 H 304.65 -3.74115 -0.688605 0
M  V30 3197 H 305.962 -4.86113 -1.11784 0
M  V30 3198 H 305.116 -4.97619 -3.47074 0
M  V30 3199 H 303.855 -3.76749 -3.09696 0
M  V30 3200 H 302.86 -5.31879 -1.3923 0
M  V30 3201 H 304.085 -6.55033 -1.79189 0
M  V30 3202 H 302.031 -5.40297 -3.72041 0
M  V30 3203 H 301.948 -6.95725 -2.9581 0
M  V30 3204 H 303.216 -6.62898 -4.10106 0
M  V30 3205 N 307.445 0.0818655 -1.57387 0
M  V30 3206 C 308.393 1.11712 -2.04018 0
M  V30 3207 C 309.387 1.40683 -0.94364 0
M  V30 3208 O 310.593 1.40209 -1.12878 0
M  V30 3209 H 306.968 0.377542 -0.650358 0
M  V30 3210 H 308.939 0.697614 -2.90131 0
M  V30 3211 C 307.688 2.42537 -2.49141 0
M  V30 3212 H 307.011 2.21092 -3.33104 0
M  V30 3213 H 308.451 3.13446 -2.85531 0
M  V30 3214 C 306.91 3.0778 -1.37014 0
M  V30 3215 O 307.44 3.95436 -0.706621 0
M  V30 3216 N 305.646 2.68242 -1.11779 0
M  V30 3217 H 305.193 1.97052 -1.65917 0
M  V30 3218 H 305.151 3.1222 -0.369594 0
M  V30 3219 N 308.923 1.53595 0.353017 0
M  V30 3220 C 309.853 1.83902 1.43883 0
M  V30 3221 C 310.834 0.693421 1.55324 0
M  V30 3222 O 312.019 0.944452 1.69687 0
M  V30 3223 C 309.149 2.04016 2.8106 0
M  V30 3224 C 308.103 3.19814 2.84434 0
M  V30 3225 C 307.429 3.25244 4.24406 0
M  V30 3226 C 308.729 4.58133 2.50822 0
M  V30 3227 H 310.423 2.74835 1.1877 0
M  V30 3228 H 307.969 1.32242 0.569917 0
M  V30 3229 H 309.922 2.238 3.57059 0
M  V30 3230 H 308.646 1.09804 3.07588 0
M  V30 3231 H 307.305 2.9987 2.10887 0
M  V30 3232 H 306.953 2.28646 4.48029 0
M  V30 3233 H 306.653 4.03054 4.27576 0
M  V30 3234 H 308.177 3.47228 5.0226 0
M  V30 3235 H 309.591 4.77995 3.16534 0
M  V30 3236 H 307.988 5.38276 2.6529 0
M  V30 3237 H 309.058 4.62387 1.46034 0
M  V30 3238 N 310.401 -0.613514 1.45168 0
M  V30 3239 C 311.348 -1.72456 1.53387 0
M  V30 3240 C 312.318 -1.6169 0.380191 0
M  V30 3241 O 313.503 -1.81356 0.592836 0
M  V30 3242 C 310.643 -3.10753 1.50088 0
M  V30 3243 C 309.756 -3.32368 2.75963 0
M  V30 3244 C 308.891 -4.60737 2.64376 0
M  V30 3245 C 307.93 -4.7559 3.85332 0
M  V30 3246 N 307.067 -5.95253 3.72315 0
M  V30 3247 H 311.907 -1.64768 2.48305 0
M  V30 3248 H 309.444 -0.803503 1.23216 0
M  V30 3249 H 311.402 -3.90758 1.46164 0
M  V30 3250 H 310.032 -3.17413 0.587243 0
M  V30 3251 H 309.084 -2.4618 2.89999 0
M  V30 3252 H 310.396 -3.39218 3.65695 0
M  V30 3253 H 309.55 -5.48928 2.58385 0
M  V30 3254 H 308.289 -4.56275 1.72233 0
M  V30 3255 H 307.294 -3.85824 3.91688 0
M  V30 3256 H 308.519 -4.81854 4.78533 0
M  V30 3257 H 306.465 -5.91847 2.82937 0
M  V30 3258 H 306.382 -6.03236 4.55677 0
M  V30 3259 H 307.65 -6.85958 3.70246 0
M  V30 3260 N 311.879 -1.3236 -0.855495 0
M  V30 3261 C 312.812 -1.15559 -1.96777 0
M  V30 3262 C 313.79 -0.0552681 -1.62506 0
M  V30 3263 O 314.974 -0.214419 -1.87277 0
M  V30 3264 C 312.101 -0.768851 -3.29858 0
M  V30 3265 C 311.147 -1.87429 -3.83109 0
M  V30 3266 S 311.98 -3.48243 -4.06801 0
M  V30 3267 C 313.136 -3.11539 -5.42858 0
M  V30 3268 H 313.369 -2.09717 -2.10727 0
M  V30 3269 H 310.902 -1.17011 -1.00737 0
M  V30 3270 H 312.86 -0.55248 -4.06765 0
M  V30 3271 H 311.521 0.153857 -3.13723 0
M  V30 3272 H 310.714 -1.55667 -4.79358 0
M  V30 3273 H 310.316 -2.04647 -3.13042 0
M  V30 3274 H 312.608 -2.61331 -6.2507 0
M  V30 3275 H 313.551 -4.06806 -5.79582 0
M  V30 3276 H 313.959 -2.48582 -5.06821 0
M  V30 3277 N 313.357 1.07166 -1.15556 0
M  V30 3278 C 314.305 2.16517 -0.8499 0
M  V30 3279 C 315.299 1.68468 0.177454 0
M  V30 3280 O 316.505 1.79971 0.0323026 0
M  V30 3281 H 312.88 0.706652 -0.25719 0
M  V30 3282 H 314.851 2.39514 -1.77976 0
M  V30 3283 C 313.6 3.45855 -0.357682 0
M  V30 3284 H 312.923 3.83214 -1.13961 0
M  V30 3285 H 314.363 4.23607 -0.182489 0
M  V30 3286 C 312.822 3.24062 0.921152 0
M  V30 3287 O 313.352 3.48813 1.9923 0
M  V30 3288 N 311.558 2.77539 0.86141 0
M  V30 3289 H 311.105 2.57598 -0.0104408 0
M  V30 3290 H 311.063 2.63337 1.71758 0
M  V30 3291 N 314.835 0.952656 1.25548 0
M  V30 3292 C 316.065 0.622592 1.96996 0
M  V30 3293 C 316.473 -0.809112 1.71026 0
M  V30 3294 O 315.816 -1.55258 0.981861 0
M  V30 3295 C 315.878 0.798946 3.5051 0
M  V30 3296 C 315.542 2.20744 4.00151 0
M  V30 3297 C 316.539 3.18394 4.11001 0
M  V30 3298 C 314.224 2.5311 4.33867 0
M  V30 3299 C 316.218 4.46504 4.54877 0
M  V30 3300 C 313.905 3.8145 4.7743 0
M  V30 3301 C 314.903 4.77959 4.87897 0
M  V30 3302 O 314.591 6.04012 5.30494 0
M  V30 3303 H 314.323 0.232503 0.634758 0
M  V30 3304 H 316.877 1.2789 1.60728 0
M  V30 3305 H 315.107 0.0854903 3.86605 0
M  V30 3306 H 316.796 0.47023 4.03167 0
M  V30 3307 H 317.562 2.94715 3.85186 0
M  V30 3308 H 313.441 1.78719 4.24948 0
M  V30 3309 H 316.985 5.21835 4.62962 0
M  V30 3310 H 312.882 4.04936 5.0269 0
M  V30 3311 H 313.65 6.0736 5.48685 0
M  V30 3312 N 316.313 -1.40141 0.720998 0
M  V30 3313 C 317.553 -2.02644 0.267335 0
M  V30 3314 C 317.917 -1.55948 -1.12001 0
M  V30 3315 O 319.118 -2.10552 -1.67097 0
M  V30 3316 C 317.389 -3.55679 0.350281 0
M  V30 3317 S 318.948 -4.38793 -0.0256004 0
M  V30 3318 H 315.766 -0.703105 0.105664 0
M  V30 3319 H 318.368 -1.71175 0.944416 0
M  V30 3320 H 317.072 -3.87157 1.36153 0
M  V30 3321 H 316.603 -3.91883 -0.345096 0
M  V30 3322 H 318.618 -4.803 -1.24604 0
M  V30 3323 N 317.792 -0.46758 -1.50504 0
M  V30 3324 C 319.208 -0.121533 -1.59137 0
M  V30 3325 C 319.408 1.3717 -1.47603 0
M  V30 3326 O 318.464 2.14464 -1.33272 0
M  V30 3327 C 319.777 -0.6686 -2.93173 0
M  V30 3328 C 321.325 -0.631716 -3.06559 0
M  V30 3329 C 321.8 -1.15627 -4.43164 0
M  V30 3330 N 323.291 -1.11553 -4.49567 0
M  V30 3331 C 324.026 -1.49195 -5.5365 0
M  V30 3332 N 323.522 -1.94269 -6.65005 0
M  V30 3333 N 325.315 -1.4082 -5.44175 0
M  V30 3334 H 317.466 -1.4388 -1.56245 0
M  V30 3335 H 319.729 -0.594784 -0.738198 0
M  V30 3336 H 319.435 -1.71453 -3.07078 0
M  V30 3337 H 319.309 -0.11021 -3.77039 0
M  V30 3338 H 321.696 0.405297 -2.92304 0
M  V30 3339 H 321.777 -1.22687 -2.24458 0
M  V30 3340 H 321.421 -2.1919 -4.58168 0
M  V30 3341 H 321.351 -0.537365 -5.23851 0
M  V30 3342 H 323.842 -0.784895 -3.69659 0
M  V30 3343 H 324.155 -2.21148 -7.40482 0
M  V30 3344 H 322.5 -1.98219 -6.66134 0
M  V30 3345 H 325.691 -1.0545 -4.56068 0
M  V30 3346 H 325.864 -1.70481 -6.25172 0
M  V30 3347 N 319.27 1.56325 -0.20005 0
M  V30 3348 C 320.218 2.20666 0.735482 0
M  V30 3349 C 321.212 1.17934 1.21605 0
M  V30 3350 O 322.418 1.36068 1.17837 0
M  V30 3351 H 318.793 0.70725 0.255542 0
M  V30 3352 H 320.764 2.9792 0.169166 0
M  V30 3353 C 319.513 2.88391 1.94232 0
M  V30 3354 H 318.836 3.67185 1.58161 0
M  V30 3355 H 320.276 3.3684 2.57517 0
M  V30 3356 C 318.735 1.89692 2.78421 0
M  V30 3357 O 319.265 1.40032 3.76502 0
M  V30 3358 N 317.471 1.57813 2.44015 0
M  V30 3359 H 317.018 1.9839 1.64314 0
M  V30 3360 H 316.976 0.920325 3.00628 0
M  V30 3361 N 320.748 -0.0735177 1.57428 0
M  V30 3362 C 322.159 -0.625551 1.75908 0
M  V30 3363 C 322.51 -1.78 0.825261 0
M  V30 3364 O 321.635 -2.16398 0.00893964 0
M  V30 3365 C 322.23 -1.14155 3.18989 0
M  V30 3366 C 320.789 -1.63946 3.38819 0
M  V30 3367 C 319.936 -0.558151 2.71625 0
M  V30 3368 H 322.887 0.152647 1.57964 0
M  V30 3369 H 322.908 -2.0104 3.23053 0
M  V30 3370 H 322.42 -0.301116 3.8693 0
M  V30 3371 H 320.521 -2.50321 2.7599 0
M  V30 3372 H 320.634 -1.71759 4.47253 0
M  V30 3373 H 318.998 -1.00278 2.34129 0
M  V30 3374 H 319.781 0.272071 3.4222 0
M  V30 3375 N 322.226 -1.5378 -0.344866 0
M  V30 3376 C 323.503 -1.61589 -1.10219 0
M  V30 3377 C 323.883 -0.436316 -2.06542 0
M  V30 3378 O 323.231 0.571543 -2.21237 0
M  V30 3379 C 323.441 -2.97602 -1.82301 0
M  V30 3380 C 324.789 -3.5291 -2.36093 0
M  V30 3381 O 325.813 -2.99768 -1.924 0
M  V30 3382 O 324.672 -4.45859 -3.16026 0
M  V30 3383 H 321.766 -0.653522 -0.506792 0
M  V30 3384 H 324.312 -1.66126 -0.346465 0
M  V30 3385 H 323.084 -3.74893 -1.12121 0
M  V30 3386 H 322.707 -2.9665 -2.64735 0
M  V30 3387 N 323.704 0.605807 -1.45491 0
M  V30 3388 C 324.952 1.36207 -1.49305 0
M  V30 3389 C 325.273 1.94519 -0.136863 0
M  V30 3390 O 324.543 1.77261 0.833983 0
M  V30 3391 H 323.123 0.50565 -0.549843 0
M  V30 3392 H 325.785 0.711239 -1.81459 0
M  V30 3393 H 324.881 2.18058 -2.23287 0
M  V30 3394 N 325.182 1.32811 0.848464 0
M  V30 3395 C 326.092 1.24278 1.98978 0
M  V30 3396 C 327.108 0.155176 1.73307 0
M  V30 3397 O 328.284 0.376999 1.9784 0
M  V30 3398 C 325.349 0.972444 3.32783 0
M  V30 3399 C 324.41 2.14911 3.71634 0
M  V30 3400 C 323.643 1.89157 4.99054 0
M  V30 3401 O 323.866 0.837165 5.64223 0
M  V30 3402 O 322.8 2.75433 5.35183 0
M  V30 3403 H 326.626 2.20238 2.09115 0
M  V30 3404 H 324.211 1.12762 0.980052 0
M  V30 3405 H 326.093 0.838432 4.12975 0
M  V30 3406 H 324.768 0.043051 3.23671 0
M  V30 3407 H 323.675 2.33862 2.91992 0
M  V30 3408 H 325.008 3.06151 3.85399 0
M  V30 3409 N 326.66 -1.06551 1.16123 0
M  V30 3410 C 328.071 -1.60768 0.949232 0
M  V30 3411 C 328.422 -1.89523 -0.507508 0
M  V30 3412 O 327.547 -1.66671 -1.38021 0
M  V30 3413 C 328.142 -2.92086 1.71671 0
M  V30 3414 C 326.701 -3.43015 1.54977 0
M  V30 3415 C 325.848 -2.16947 1.72711 0
M  V30 3416 H 328.799 -0.895354 1.31031 0
M  V30 3417 H 328.82 -3.6138 1.19099 0
M  V30 3418 H 328.332 -2.71127 2.7769 0
M  V30 3419 H 326.433 -3.69039 0.513873 0
M  V30 3420 H 326.546 -4.18516 2.33198 0
M  V30 3421 H 324.91 -2.27041 1.15431 0
M  V30 3422 H 325.693 -1.98473 2.80113 0
M  V30 3423 N 328.138 -0.959301 -1.25041 0
M  V30 3424 C 329.554 -0.664474 -1.4511 0
M  V30 3425 C 329.754 0.776481 -1.85938 0
M  V30 3426 O 328.81 1.55128 -1.99227 0
M  V30 3427 C 330.123 -1.64139 -2.5195 0
M  V30 3428 C 331.671 -1.65309 -2.65786 0
M  V30 3429 C 332.146 -2.61777 -3.75815 0
M  V30 3430 N 333.637 -2.60169 -3.83231 0
M  V30 3431 C 334.372 -3.31489 -4.6787 0
M  V30 3432 N 333.868 -4.12298 -5.56761 0
M  V30 3433 N 335.661 -3.20354 -4.61876 0
M  V30 3434 H 327.812 -1.89043 -0.968332 0
M  V30 3435 H 330.075 -0.813408 -0.4869 0
M  V30 3436 H 329.781 -2.67086 -2.28819 0
M  V30 3437 H 329.655 -1.40756 -3.49954 0
M  V30 3438 H 332.042 -0.630778 -2.8828 0
M  V30 3439 H 332.123 -1.92753 -1.68167 0
M  V30 3440 H 331.767 -3.64137 -3.54071 0
M  V30 3441 H 331.697 -2.31616 -4.72929 0
M  V30 3442 H 334.188 -2.01507 -3.19692 0
M  V30 3443 H 334.501 -4.63625 -6.18281 0
M  V30 3444 H 332.846 -4.16395 -5.56454 0
M  V30 3445 H 336.037 -2.56692 -3.91442 0
M  V30 3446 H 336.21 -3.76201 -5.27614 0
M  V30 3447 N 329.616 1.39756 -0.72842 0
M  V30 3448 C 331.027 1.83498 -0.344289 0
M  V30 3449 C 331.378 1.60868 1.12321 0
M  V30 3450 O 330.503 1.09634 1.86573 0
M  V30 3451 C 331.098 3.33114 -0.618112 0
M  V30 3452 C 329.657 3.753 -0.287549 0
M  V30 3453 C 328.804 2.62831 -0.884048 0
M  V30 3454 H 331.755 1.28842 -0.926578 0
M  V30 3455 H 331.776 3.80334 0.112349 0
M  V30 3456 H 331.288 3.49553 -1.68625 0
M  V30 3457 H 329.389 3.64451 0.775012 0
M  V30 3458 H 329.502 4.72945 -0.765512 0
M  V30 3459 H 327.866 2.52792 -0.311149 0
M  V30 3460 H 328.649 2.82078 -1.95671 0
M  V30 3461 N 331.094 0.475555 1.50254 0
M  V30 3462 C 332.34 -0.0701075 2.03279 0
M  V30 3463 C 332.695 -1.37007 1.35081 0
M  V30 3464 O 331.988 -1.8577 0.469052 0
M  V30 3465 C 332.182 -0.305114 3.56095 0
M  V30 3466 C 332.011 0.970515 4.39103 0
M  V30 3467 C 330.781 1.51509 4.82051 0
M  V30 3468 C 332.979 1.8671 4.79212 0
M  V30 3469 N 330.961 2.73928 5.49397 0
M  V30 3470 C 332.332 2.93715 5.46014 0
M  V30 3471 C 334.387 1.87695 4.61167 0
M  V30 3472 C 333.09 4.01699 5.96683 0
M  V30 3473 C 335.116 2.94637 5.12779 0
M  V30 3474 C 334.478 4.00361 5.79561 0
M  V30 3475 H 330.577 0.014486 0.781866 0
M  V30 3476 H 333.161 0.644755 1.83714 0
M  V30 3477 H 331.332 -0.989019 3.75597 0
M  V30 3478 H 333.064 -0.845516 3.95769 0
M  V30 3479 H 329.819 1.06367 4.61501 0
M  V30 3480 H 330.243 3.36109 5.87673 0
M  V30 3481 H 334.885 1.07273 4.08965 0
M  V30 3482 H 332.603 4.82934 6.4792 0
M  V30 3483 H 336.189 2.96388 5.00645 0
M  V30 3484 H 335.069 4.81751 6.18778 0
M  V30 3485 N 332.573 -1.56217 0.208337 0
M  V30 3486 C 333.813 -1.99849 -0.428927 0
M  V30 3487 C 334.177 -1.09262 -1.57879 0
M  V30 3488 O 335.378 -1.42185 -2.28116 0
M  V30 3489 C 333.649 -3.46777 -0.864879 0
M  V30 3490 S 335.208 -4.12434 -1.49811 0
M  V30 3491 H 332.026 -0.697742 -0.136665 0
M  V30 3492 H 334.628 -1.92953 0.314519 0
M  V30 3493 H 333.332 -4.10396 -0.0181326 0
M  V30 3494 H 332.863 -3.57518 -1.64147 0
M  V30 3495 H 334.878 -4.10532 -2.78707 0
M  V30 3496 N 334.051 0.0651679 -1.57465 0
M  V30 3497 C 335.298 0.763063 -1.87573 0
M  V30 3498 C 335.626 1.77242 -0.800961 0
M  V30 3499 O 334.881 1.94651 0.202316 0
M  V30 3500 C 335.18 1.50081 -3.24362 0
M  V30 3501 C 334.846 0.630816 -4.46466 0
M  V30 3502 C 333.508 0.391082 -4.79608 0
M  V30 3503 C 335.86 0.0279465 -5.21193 0
M  V30 3504 C 333.188 -0.460894 -5.84887 0
M  V30 3505 C 335.54 -0.811522 -6.27373 0
M  V30 3506 C 334.204 -1.06106 -6.59013 0
M  V30 3507 H 333.474 0.279224 -0.686378 0
M  V30 3508 H 336.121 0.0236726 -1.91485 0
M  V30 3509 H 334.426 2.31258 -3.16271 0
M  V30 3510 H 336.123 2.04571 -3.44894 0
M  V30 3511 H 332.713 0.8278 -4.2053 0
M  V30 3512 H 336.897 0.200262 -4.95896 0
M  V30 3513 H 332.153 -0.662907 -6.07796 0
M  V30 3514 H 336.327 -1.28537 -6.84435 0
M  V30 3515 H 333.954 -1.723 -7.40417 0
M  V30 3516 N 335.529 1.53961 0.336706 0
M  V30 3517 C 336.757 1.75483 1.09605 0
M  V30 3518 C 337.172 0.4972 1.82136 0
M  V30 3519 O 336.529 -0.53149 1.74589 0
M  V30 3520 C 336.58 2.93943 2.10428 0
M  V30 3521 O 336.301 4.14842 1.40846 0
M  V30 3522 C 337.802 3.27571 2.98684 0
M  V30 3523 H 335.022 0.586166 0.326574 0
M  V30 3524 H 337.566 2.00808 0.38683 0
M  V30 3525 H 335.721 2.70929 2.76905 0
M  V30 3526 H 336.135 4.81383 2.08255 0
M  V30 3527 H 337.609 4.13791 3.6535 0
M  V30 3528 H 338.086 2.44168 3.65074 0
M  V30 3529 H 338.692 3.52615 2.37787 0
M  V30 3530 N 337.007 -0.598083 1.45811 0
M  V30 3531 C 338.235 -1.38322 1.53866 0
M  V30 3532 C 338.65 -1.87992 0.174479 0
M  V30 3533 O 338.007 -1.62756 -0.825627 0
M  V30 3534 C 338.058 -2.58125 2.53089 0
M  V30 3535 O 337.779 -2.10516 3.84206 0
M  V30 3536 C 339.28 -3.50869 2.70935 0
M  V30 3537 H 336.5 -0.423093 0.520801 0
M  V30 3538 H 339.044 -0.728527 1.91083 0
M  V30 3539 H 337.199 -3.19615 2.18917 0
M  V30 3540 H 337.613 -2.88425 4.38077 0
M  V30 3541 H 339.087 -4.31451 3.44317 0
M  V30 3542 H 339.564 -4.01822 1.77301 0
M  V30 3543 H 340.17 -2.95225 3.06141 0
M  V30 3544 N 338.485 -1.33259 -0.841409 0
M  V30 3545 C 339.762 -1.15174 -1.58096 0
M  V30 3546 C 340.142 0.282858 -2.09196 0
M  V30 3547 O 339.49 1.28151 -1.89181 0
M  V30 3548 C 339.7 -2.1907 -2.71679 0
M  V30 3549 C 341.048 -2.53093 -3.40924 0
M  V30 3550 O 342.072 -2.17717 -2.81918 0
M  V30 3551 O 340.931 -3.1379 -4.47435 0
M  V30 3552 H 338.025 -0.445303 -0.696875 0
M  V30 3553 H 340.571 -1.44833 -0.884385 0
M  V30 3554 H 339.343 -3.15443 -2.31541 0
M  V30 3555 H 338.966 -1.90481 -3.49002 0
M  V30 3556 N 339.963 1.05934 -1.16686 0
M  V30 3557 C 341.374 1.60263 -0.957745 0
M  V30 3558 C 341.725 1.89789 0.49745 0
M  V30 3559 O 340.85 1.67401 1.37135 0
M  V30 3560 C 341.445 2.91172 -1.73218 0
M  V30 3561 C 340.004 3.42188 -1.56794 0
M  V30 3562 C 339.151 2.16028 -1.73859 0
M  V30 3563 H 342.102 0.888392 -1.31504 0
M  V30 3564 H 342.123 3.60744 -1.21014 0
M  V30 3565 H 341.635 2.6965 -2.79124 0
M  V30 3566 H 339.736 3.68762 -0.533437 0
M  V30 3567 H 339.849 4.17273 -2.35414 0
M  V30 3568 H 338.213 2.26426 -1.16633 0
M  V30 3569 H 338.996 1.96985 -2.81161 0
M  V30 3570 N 341.441 0.965919 1.2453 0
M  V30 3571 C 342.373 0.452465 2.2469 0
M  V30 3572 C 343.386 -0.437821 1.56802 0
M  V30 3573 O 344.575 -0.244283 1.76821 0
M  V30 3574 C 341.675 -0.366258 3.36915 0
M  V30 3575 C 340.848 0.513701 4.34373 0
M  V30 3576 C 339.907 -0.248716 5.25612 0
M  V30 3577 O 338.933 0.356745 5.68081 0
M  V30 3578 N 340.135 -1.53877 5.59734 0
M  V30 3579 H 342.9 1.31361 2.69378 0
M  V30 3580 H 340.461 0.837541 1.38553 0
M  V30 3581 H 342.453 -0.884297 3.94921 0
M  V30 3582 H 341.023 -1.12832 2.91526 0
M  V30 3583 H 340.243 1.21273 3.75082 0
M  V30 3584 H 341.531 1.11391 4.96457 0
M  V30 3585 H 340.929 -2.05243 5.27154 0
M  V30 3586 H 339.486 -2.00254 6.20275 0
M  V30 3587 N 342.919 -1.39368 0.735821 0
M  V30 3588 C 343.866 -2.30599 0.0963825 0
M  V30 3589 C 344.836 -1.49257 -0.728794 0
M  V30 3590 O 346.021 -1.77941 -0.688588 0
M  V30 3591 C 343.161 -3.35596 -0.804305 0
M  V30 3592 C 342.274 -4.31987 0.0335761 0
M  V30 3593 C 341.409 -5.24053 -0.868461 0
M  V30 3594 C 340.448 -6.12095 -0.0258776 0
M  V30 3595 N 339.585 -6.96514 -0.883893 0
M  V30 3596 H 344.425 -2.8471 0.880002 0
M  V30 3597 H 341.962 -1.40188 0.445619 0
M  V30 3598 H 343.92 -3.95062 -1.34096 0
M  V30 3599 H 342.55 -2.82938 -1.55389 0
M  V30 3600 H 341.602 -3.74133 0.68766 0
M  V30 3601 H 342.914 -4.94074 0.685036 0
M  V30 3602 H 342.068 -5.88549 -1.47293 0
M  V30 3603 H 340.807 -4.62289 -1.5537 0
M  V30 3604 H 339.812 -5.4661 0.591386 0
M  V30 3605 H 341.037 -6.75923 0.656156 0
M  V30 3606 H 338.983 -6.37318 -1.55441 0
M  V30 3607 H 338.9 -7.55448 -0.288931 0
M  V30 3608 H 340.168 -7.65439 -1.4739 0
M  V30 3609 N 344.397 -0.483516 -1.5 0
M  V30 3610 C 345.813 -0.138404 -1.58999 0
M  V30 3611 C 346.013 1.35597 -1.4905 0
M  V30 3612 O 345.069 2.13039 -1.35539 0
M  V30 3613 C 346.382 -0.699658 -2.92447 0
M  V30 3614 C 347.93 -0.664195 -3.05872 0
M  V30 3615 C 348.405 -1.20321 -4.41913 0
M  V30 3616 N 349.896 -1.16315 -4.48358 0
M  V30 3617 C 350.631 -1.55058 -5.52037 0
M  V30 3618 N 350.127 -2.01311 -6.62907 0
M  V30 3619 N 351.92 -1.46584 -5.42651 0
M  V30 3620 H 344.071 -1.45529 -1.5471 0
M  V30 3621 H 346.334 -0.60258 -0.731848 0
M  V30 3622 H 346.04 -1.747 -3.05242 0
M  V30 3623 H 345.914 -0.150194 -3.76901 0
M  V30 3624 H 348.301 0.374272 -2.92717 0
M  V30 3625 H 348.382 -1.25061 -2.23144 0
M  V30 3626 H 348.026 -2.24037 -4.55818 0
M  V30 3627 H 347.956 -0.592896 -5.23252 0
M  V30 3628 H 350.447 -0.824058 -3.68806 0
M  V30 3629 H 350.76 -2.2899 -7.38095 0
M  V30 3630 H 349.105 -2.05273 -6.63994 0
M  V30 3631 H 352.296 -1.10281 -4.54924 0
M  V30 3632 H 352.469 -1.77103 -6.23329 0
M  V30 3633 N 345.875 1.56104 -0.216619 0
M  V30 3634 C 347.121 1.99219 0.410301 0
M  V30 3635 C 347.476 1.10169 1.57735 0
M  V30 3636 O 346.769 0.150598 1.91007 0
M  V30 3637 C 346.963 3.45923 0.898464 0
M  V30 3638 C 346.792 4.49163 -0.219748 0
M  V30 3639 C 345.562 5.00642 -0.684516 0
M  V30 3640 C 347.76 5.03751 -1.03629 0
M  V30 3641 N 345.742 5.87579 -1.7783 0
M  V30 3642 C 347.113 5.87566 -1.97904 0
M  V30 3643 C 349.168 4.86128 -1.07629 0
M  V30 3644 C 347.871 6.5564 -2.95851 0
M  V30 3645 C 349.897 5.54958 -2.04392 0
M  V30 3646 C 349.259 6.38536 -2.97407 0
M  V30 3647 H 345.358 0.773206 0.11695 0
M  V30 3648 H 347.942 1.9193 -0.327258 0
M  V30 3649 H 346.113 3.53669 1.6054 0
M  V30 3650 H 347.845 3.75963 1.49779 0
M  V30 3651 H 344.6 4.72807 -0.27399 0
M  V30 3652 H 345.024 6.3575 -2.32705 0
M  V30 3653 H 349.666 4.21168 -0.371099 0
M  V30 3654 H 347.384 7.19785 -3.67335 0
M  V30 3655 H 350.97 5.43289 -2.08154 0
M  V30 3656 H 349.85 6.90858 -3.71059 0
M  V30 3657 N 347.353 -0.0568162 1.57498 0
M  V30 3658 C 348.263 -1.08346 2.08083 0
M  V30 3659 C 349.279 -1.41439 1.01346 0
M  V30 3660 O 350.455 -1.51316 1.32912 0
M  V30 3661 C 347.52 -2.37352 2.52715 0
M  V30 3662 C 346.581 -2.11093 3.73816 0
M  V30 3663 C 345.814 -3.33949 4.1631 0
M  V30 3664 O 346.037 -4.43622 3.58547 0
M  V30 3665 O 344.971 -3.21279 5.08983 0
M  V30 3666 H 348.797 -0.683667 2.95905 0
M  V30 3667 H 346.382 -0.271965 1.46904 0
M  V30 3668 H 348.264 -3.13246 2.81877 0
M  V30 3669 H 346.939 -2.76681 1.68016 0
M  V30 3670 H 345.846 -1.32856 3.49714 0
M  V30 3671 H 347.179 -1.76637 4.59413 0
M  V30 3672 N 348.832 -1.54138 -0.328536 0
M  V30 3673 C 350.079 -1.72105 -1.06706 0
M  V30 3674 C 350.407 -0.492111 -1.88171 0
M  V30 3675 O 349.662 0.526153 -1.88494 0
M  V30 3676 C 349.961 -2.9457 -2.02393 0
M  V30 3677 C 349.627 -4.29544 -1.37122 0
M  V30 3678 C 348.289 -4.6624 -1.19052 0
M  V30 3679 C 350.641 -5.1333 -0.902331 0
M  V30 3680 C 347.969 -5.84325 -0.527331 0
M  V30 3681 C 350.321 -6.32094 -0.252988 0
M  V30 3682 C 348.985 -6.67473 -0.0600901 0
M  V30 3683 H 348.255 -0.629775 -0.390466 0
M  V30 3684 H 350.902 -1.88372 -0.34473 0
M  V30 3685 H 349.207 -2.72969 -2.81061 0
M  V30 3686 H 350.904 -3.05665 -2.59557 0
M  V30 3687 H 347.494 -4.0067 -1.52188 0
M  V30 3688 H 351.678 -4.855 -1.02974 0
M  V30 3689 H 346.934 -6.103 -0.366634 0
M  V30 3690 H 351.108 -6.96299 0.118366 0
M  V30 3691 H 348.735 -7.58832 0.455828 0
M  V30 3692 N 350.31 0.590341 -1.46126 0
M  V30 3693 C 351.55 1.35995 -1.52593 0
M  V30 3694 C 351.914 1.91243 -0.170368 0
M  V30 3695 O 353.115 2.68576 -0.109775 0
M  V30 3696 C 351.386 2.46465 -2.58823 0
M  V30 3697 S 352.945 3.33953 -2.84641 0
M  V30 3698 H 349.763 0.463425 -0.53922 0
M  V30 3699 H 352.365 0.67944 -1.83314 0
M  V30 3700 H 351.069 2.04256 -3.5596 0
M  V30 3701 H 350.6 3.19297 -2.2981 0
M  V30 3702 H 352.615 4.45094 -2.19331 0
M  V30 3703 N 351.788 1.33704 0.83433 0
M  V30 3704 C 353.065 1.16011 1.57483 0
M  V30 3705 C 353.445 -0.27176 2.09343 0
M  V30 3706 O 352.793 -1.27146 1.89858 0
M  V30 3707 C 353.003 2.20507 2.70514 0
M  V30 3708 C 354.351 2.54898 3.39577 0
M  V30 3709 O 355.375 2.19209 2.80759 0
M  V30 3710 O 354.234 3.16158 4.45765 0
M  V30 3711 H 351.328 0.448992 0.694503 0
M  V30 3712 H 353.874 1.453 0.876691 0
M  V30 3713 H 352.646 3.16667 2.29865 0
M  V30 3714 H 352.269 1.92329 3.47987 0
M  V30 3715 N 353.266 -1.05314 1.17247 0
M  V30 3716 C 354.515 -1.77685 0.954521 0
M  V30 3717 C 354.828 -1.88616 -0.518025 0
M  V30 3718 O 356.034 -2.57714 -0.854144 0
M  V30 3719 C 354.49 -3.19402 1.65863 0
M  V30 3720 C 354.098 -3.16605 3.16963 0
M  V30 3721 C 355.842 -3.96237 1.52303 0
M  V30 3722 C 353.749 -4.53103 3.80068 0
M  V30 3723 H 352.679 -0.666 0.353496 0
M  V30 3724 H 355.33 -1.1805 1.40486 0
M  V30 3725 H 353.712 -3.79355 1.13602 0
M  V30 3726 H 354.886 -2.66176 3.76148 0
M  V30 3727 H 353.201 -2.53268 3.30521 0
M  V30 3728 H 355.798 -4.97157 1.96822 0
M  V30 3729 H 356.141 -4.136 0.473401 0
M  V30 3730 H 356.674 -3.42829 2.01775 0
M  V30 3731 H 353.413 -4.40946 4.85023 0
M  V30 3732 H 352.933 -5.03686 3.2567 0
M  V30 3733 H 354.612 -5.22045 3.82202 0
M  V30 3734 N 354.744 -0.972509 -1.24016 0
M  V30 3735 C 356.155 -0.67517 -1.74064 0
M  V30 3736 C 356.506 0.808939 -1.78747 0
M  V30 3737 O 355.631 1.63286 -1.42009 0
M  V30 3738 C 356.226 -1.21889 -3.16115 0
M  V30 3739 C 354.785 -0.971358 -3.6365 0
M  V30 3740 C 353.932 -1.35134 -2.42145 0
M  V30 3741 H 356.883 -1.14727 -1.09651 0
M  V30 3742 H 356.904 -0.587489 -3.75937 0
M  V30 3743 H 356.416 -2.29906 -3.12674 0
M  V30 3744 H 354.517 0.0930686 -3.72484 0
M  V30 3745 H 354.63 -1.62039 -4.50866 0
M  V30 3746 H 352.994 -0.769751 -2.4279 0
M  V30 3747 H 353.777 -2.4411 -2.41381 0
M  V30 3748 N 356.222 1.38976 -0.743202 0
M  V30 3749 C 357.638 1.53984 -0.419664 0
M  V30 3750 C 357.838 1.70837 1.0685 0
M  V30 3751 O 356.894 1.7135 1.8546 0
M  V30 3752 C 358.207 2.75287 -1.20985 0
M  V30 3753 C 359.755 2.89129 -1.19889 0
M  V30 3754 C 360.23 4.13381 -1.97181 0
M  V30 3755 N 361.721 4.20437 -1.94389 0
M  V30 3756 C 362.456 5.15547 -2.50996 0
M  V30 3757 N 361.952 6.16395 -3.16274 0
M  V30 3758 N 363.745 5.07822 -2.40984 0
M  V30 3759 H 355.896 1.26285 -1.7078 0
M  V30 3760 H 358.159 0.612689 -0.723406 0
M  V30 3761 H 357.865 2.69204 -2.26323 0
M  V30 3762 H 357.739 3.68184 -0.819759 0
M  V30 3763 H 360.126 2.947 -0.153606 0
M  V30 3764 H 360.207 1.97272 -1.62841 0
M  V30 3765 H 359.851 4.08572 -3.01714 0
M  V30 3766 H 359.781 5.04298 -1.51629 0
M  V30 3767 H 362.272 3.48205 -1.46839 0
M  V30 3768 H 362.585 6.85443 -3.56915 0
M  V30 3769 H 360.93 6.16758 -3.20367 0
M  V30 3770 H 364.121 4.27973 -1.89622 0
M  V30 3771 H 364.294 5.81767 -2.85397 0
M  V30 3772 N 357.7 0.491464 1.49741 0
M  V30 3773 C 358.94 -0.0549118 2.04326 0
M  V30 3774 C 359.304 -1.35148 1.36378 0
M  V30 3775 O 360.505 -1.9815 1.81631 0
M  V30 3776 C 358.776 -0.213841 3.5676 0
M  V30 3777 S 360.335 -0.715839 4.32922 0
M  V30 3778 H 357.153 -0.00630513 0.710972 0
M  V30 3779 H 359.755 0.663257 1.83905 0
M  V30 3780 H 358.459 0.73527 4.0376 0
M  V30 3781 H 357.99 -0.957529 3.81569 0
M  V30 3782 H 360.005 -1.9864 4.54705 0
M  V30 3783 N 359.178 -1.55987 0.224894 0
M  V30 3784 C 360.406 -2.02784 -0.410665 0
M  V30 3785 C 360.821 -1.10464 -1.53112 0
M  V30 3786 O 360.178 -0.114871 -1.82138 0
M  V30 3787 C 360.229 -3.49087 -0.939165 0
M  V30 3788 O 359.95 -4.37887 0.136614 0
M  V30 3789 C 361.451 -4.11543 -1.64763 0
M  V30 3790 H 358.671 -0.663484 -0.100148 0
M  V30 3791 H 361.215 -2.01614 0.342326 0
M  V30 3792 H 359.37 -3.50861 -1.64242 0
M  V30 3793 H 359.784 -5.23849 -0.261155 0
M  V30 3794 H 361.258 -5.15673 -1.96939 0
M  V30 3795 H 361.735 -3.56736 -2.56195 0
M  V30 3796 H 362.341 -4.13629 -0.989503 0
M  V30 3797 N 360.656 0.0484629 -1.57525 0
M  V30 3798 C 361.884 0.755421 -1.92616 0
M  V30 3799 C 362.299 1.69919 -0.822984 0
M  V30 3800 O 361.656 1.81378 0.202085 0
M  V30 3801 C 361.707 1.52915 -3.27566 0
M  V30 3802 O 361.428 0.62329 -4.33644 0
M  V30 3803 C 362.929 2.33502 -3.76818 0
M  V30 3804 H 360.149 0.213465 -0.63614 0
M  V30 3805 H 362.693 0.0117698 -2.04497 0
M  V30 3806 H 360.848 2.22486 -3.17142 0
M  V30 3807 H 361.262 1.16383 -5.11425 0
M  V30 3808 H 362.736 2.83214 -4.73808 0
M  V30 3809 H 363.213 3.14068 -3.07014 0
M  V30 3810 H 363.819 1.69043 -3.90262 0
M  V30 3811 N 362.134 1.5431 0.320358 0
M  V30 3812 C 363.545 1.63872 0.894594 0
M  V30 3813 C 363.896 0.534847 1.88769 0
M  V30 3814 O 363.021 -0.331732 2.13842 0
M  V30 3815 C 363.616 2.97049 1.62934 0
M  V30 3816 C 362.175 3.08796 2.15226 0
M  V30 3817 C 361.322 2.59456 0.978671 0
M  V30 3818 H 364.273 1.58398 0.0978544 0
M  V30 3819 H 364.294 2.87388 2.49376 0
M  V30 3820 H 363.806 3.7737 0.906302 0
M  V30 3821 H 361.907 2.33156 2.90636 0
M  V30 3822 H 362.02 4.14649 2.40006 0
M  V30 3823 H 360.384 2.1543 1.35875 0
M  V30 3824 H 361.167 3.42237 0.269895 0
M  V30 3825 N 363.613 -0.582584 1.46437 0
M  V30 3826 C 365.024 -1.1647 1.45916 0
M  V30 3827 C 365.375 -1.95177 0.200077 0
M  V30 3828 O 364.5 -2.04874 -0.696819 0
M  V30 3829 C 365.095 -2.11885 2.64367 0
M  V30 3830 C 363.654 -2.65421 2.66887 0
M  V30 3831 C 362.801 -1.41294 2.38603 0
M  V30 3832 H 365.752 -0.370514 1.54314 0
M  V30 3833 H 365.773 -2.9535 2.39892 0
M  V30 3834 H 365.285 -1.54573 3.5599 0
M  V30 3835 H 363.386 -3.26602 1.79338 0
M  V30 3836 H 363.499 -3.08147 3.66854 0
M  V30 3837 H 361.863 -1.71109 1.88663 0
M  V30 3838 H 362.646 -0.858125 3.32402 0
M  V30 3839 N 365.091 -1.34144 -0.827227 0
M  V30 3840 C 366.502 -1.23557 -1.39966 0
M  V30 3841 C 366.853 0.140731 -1.95695 0
M  V30 3842 O 365.978 1.04087 -1.89723 0
M  V30 3843 C 366.573 -2.23708 -2.54441 0
M  V30 3844 C 365.132 -2.16924 -3.07605 0
M  V30 3845 C 364.279 -2.10549 -1.80456 0
M  V30 3846 H 367.23 -1.45573 -0.631991 0
M  V30 3847 H 367.251 -1.85157 -3.32411 0
M  V30 3848 H 366.763 -3.23866 -2.13851 0
M  V30 3849 H 364.864 -1.20107 -3.52711 0
M  V30 3850 H 364.977 -3.07988 -3.66988 0
M  V30 3851 H 363.341 -1.56203 -2.01178 0
M  V30 3852 H 364.124 -3.12535 -1.42046 0
M  V30 3853 N 366.569 1.04691 -1.17803 0
M  V30 3854 C 367.794 1.81984 -0.994813 0
M  V30 3855 C 368.219 1.82586 0.452112 0
M  V30 3856 O 367.577 1.23854 1.324 0
M  V30 3857 C 367.625 3.2575 -1.54659 0
M  V30 3858 O 366.729 4.05267 -0.763728 0
M  V30 3859 H 366.07 0.562483 -0.352857 0
M  V30 3860 H 368.6 1.3189 -1.56417 0
M  V30 3861 H 368.61 3.76541 -1.57102 0
M  V30 3862 H 367.285 3.24627 -2.59981 0
M  V30 3863 H 365.862 3.63972 -0.811108 0
M  V30 3864 N 368.047 0.979072 1.23499 0
M  V30 3865 C 369.272 0.664845 1.96455 0
M  V30 3866 C 369.697 -0.761287 1.72006 0
M  V30 3867 O 369.055 -1.51837 0.990713 0
M  V30 3868 C 369.103 0.959479 3.47601 0
M  V30 3869 O 368.207 0.0508168 4.12369 0
M  V30 3870 H 367.548 0.250185 0.615064 0
M  V30 3871 H 370.078 1.31231 1.5697 0
M  V30 3872 H 370.088 0.895642 3.98048 0
M  V30 3873 H 368.763 1.99876 3.64723 0
M  V30 3874 H 367.34 0.16895 3.72517 0
M  V30 3875 N 369.525 -1.3858 0.750561 0
M  V30 3876 C 370.773 -1.99789 0.30477 0
M  V30 3877 C 371.094 -1.59874 -1.11649 0
M  V30 3878 O 370.364 -0.85417 -1.76297 0
M  V30 3879 H 368.944 -0.738902 0.109694 0
M  V30 3880 H 371.606 -1.69391 0.963983 0
M  V30 3881 H 370.702 -3.09952 0.365499 0
M  V30 3882 N 371.003 -0.499398 -1.49478 0
M  V30 3883 C 372.414 -0.051215 -1.8663 0
M  V30 3884 C 372.765 1.36238 -1.41186 0
M  V30 3885 O 371.89 2.01502 -0.789051 0
M  V30 3886 C 372.485 -0.0861651 -3.3869 0
M  V30 3887 C 371.044 0.30667 -3.75149 0
M  V30 3888 C 370.191 -0.459397 -2.73468 0
M  V30 3889 H 373.142 -0.712264 -1.41818 0
M  V30 3890 H 373.163 0.709507 -3.73826 0
M  V30 3891 H 372.675 -1.11512 -3.71735 0
M  V30 3892 H 370.776 1.33892 -3.47712 0
M  V30 3893 H 370.889 -0.0116669 -4.79099 0
M  V30 3894 H 369.253 0.0905645 -2.54539 0
M  V30 3895 H 370.036 -1.4884 -3.09357 0
M  V30 3896 N 372.481 1.55866 -0.233164 0
M  V30 3897 C 373.428 2.20796 0.67215 0
M  V30 3898 C 374.398 1.16731 1.18166 0
M  V30 3899 O 375.583 1.45129 1.23864 0
M  V30 3900 C 372.723 2.90072 1.86955 0
M  V30 3901 C 371.836 4.08759 1.39786 0
M  V30 3902 C 370.971 4.65787 2.55374 0
M  V30 3903 C 370.01 5.76752 2.04998 0
M  V30 3904 N 369.147 6.28021 3.13901 0
M  V30 3905 H 373.987 2.9779 0.111749 0
M  V30 3906 H 371.524 1.47036 0.0434007 0
M  V30 3907 H 373.482 3.28428 2.57276 0
M  V30 3908 H 372.112 2.15575 2.40265 0
M  V30 3909 H 371.164 3.7581 0.589173 0
M  V30 3910 H 372.476 4.88906 0.98856 0
M  V30 3911 H 371.63 5.06646 3.33758 0
M  V30 3912 H 370.369 3.84828 2.99598 0
M  V30 3913 H 369.374 5.35383 1.25079 0
M  V30 3914 H 370.599 6.59553 1.61759 0
M  V30 3915 H 368.545 5.49971 3.57586 0
M  V30 3916 H 368.462 7.03323 2.7726 0
M  V30 3917 H 369.73 6.73538 3.92386 0
M  V30 3918 N 373.959 -0.0401083 1.57549 0
M  V30 3919 C 375.189 -0.744115 1.92734 0
M  V30 3920 C 375.597 -1.70005 0.830348 0
M  V30 3921 O 374.94 -1.82576 -0.20286 0
M  V30 3922 C 375.002 -1.56516 3.2364 0
M  V30 3923 C 374.666 -0.7752 4.50377 0
M  V30 3924 C 375.663 -0.0803326 5.19838 0
M  V30 3925 C 373.348 -0.733002 4.96923 0
M  V30 3926 C 375.342 0.646154 6.34116 0
M  V30 3927 C 373.029 -0.00276321 6.111 0
M  V30 3928 C 374.027 0.685585 6.7955 0
M  V30 3929 O 373.715 1.40399 7.91545 0
M  V30 3930 H 373.447 -0.214861 0.640945 0
M  V30 3931 H 376.001 -0.00503675 2.05399 0
M  V30 3932 H 374.231 -2.3478 3.07271 0
M  V30 3933 H 375.92 -2.15076 3.44234 0
M  V30 3934 H 376.686 -0.104035 4.84888 0
M  V30 3935 H 372.565 -1.25827 4.43496 0
M  V30 3936 H 376.109 1.18398 6.87479 0
M  V30 3937 H 372.006 0.0229012 6.45496 0
M  V30 3938 H 372.774 1.31653 8.07843 0
M  V30 3939 N 375.437 -1.54477 -0.31217 0
M  V30 3940 C 376.369 -1.81011 -1.40598 0
M  V30 3941 C 377.382 -0.692546 -1.47335 0
M  V30 3942 O 378.571 -0.969847 -1.49854 0
M  V30 3943 C 375.671 -1.92307 -2.79054 0
M  V30 3944 C 374.844 -3.22594 -2.95384 0
M  V30 3945 C 373.903 -3.24448 -4.1427 0
M  V30 3946 O 372.929 -3.98035 -4.06887 0
M  V30 3947 N 374.131 -2.49042 -5.24365 0
M  V30 3948 H 376.896 -2.75408 -1.18196 0
M  V30 3949 H 374.457 -1.53914 -0.502202 0
M  V30 3950 H 376.449 -1.90962 -3.56813 0
M  V30 3951 H 375.019 -1.04955 -2.94454 0
M  V30 3952 H 374.239 -3.36806 -2.04831 0
M  V30 3953 H 375.527 -4.08593 -3.03198 0
M  V30 3954 H 374.925 -1.88867 -5.33241 0
M  V30 3955 H 373.482 -2.53463 -6.005 0
M  V30 3956 N 376.915 0.57481 -1.46744 0
M  V30 3957 C 378.155 1.34369 -1.54027 0
M  V30 3958 C 378.519 1.91051 -0.190642 0
M  V30 3959 O 379.72 2.68444 -0.138255 0
M  V30 3960 C 377.991 2.43706 -2.61423 0
M  V30 3961 S 379.55 3.30915 -2.88167 0
M  V30 3962 H 376.368 0.45768 -0.544105 0
M  V30 3963 H 378.97 0.659959 -1.84024 0
M  V30 3964 H 377.674 2.0047 -3.58106 0
M  V30 3965 H 377.205 3.16842 -2.33184 0
M  V30 3966 H 379.22 4.42742 -2.24039 0
M  V30 3967 N 378.394 1.34581 0.820102 0
M  V30 3968 C 379.324 1.29038 1.94606 0
M  V30 3969 C 380.305 0.1673 1.69275 0
M  V30 3970 O 381.49 0.360112 1.90832 0
M  V30 3971 C 378.62 1.04793 3.31113 0
M  V30 3972 C 377.574 2.13597 3.70891 0
M  V30 3973 C 376.9 1.74537 5.05412 0
M  V30 3974 C 378.2 3.55451 3.8269 0
M  V30 3975 H 379.894 2.23248 1.99501 0
M  V30 3976 H 377.44 1.0747 0.958449 0
M  V30 3977 H 379.393 0.995592 4.0947 0
M  V30 3978 H 378.117 0.0702565 3.26524 0
M  V30 3979 H 376.776 2.17905 2.9481 0
M  V30 3980 H 376.424 0.754226 4.97313 0
M  V30 3981 H 376.124 2.47361 5.32997 0
M  V30 3982 H 377.648 1.70803 5.86224 0
M  V30 3983 H 379.062 3.5354 4.51312 0
M  V30 3984 H 377.459 4.26922 4.21732 0
M  V30 3985 H 378.529 3.92587 2.84611 0
M  V30 3986 N 379.872 -1.04064 1.18357 0
M  V30 3987 C 380.819 -2.12077 0.910603 0
M  V30 3988 C 381.789 -1.65421 -0.15 0
M  V30 3989 O 382.974 -1.90797 -0.0103614 0
M  V30 3990 C 380.114 -3.42252 0.442472 0
M  V30 3991 C 379.227 -4.0252 1.5685 0
M  V30 3992 C 378.362 -5.20657 1.05309 0
M  V30 3993 C 377.401 -5.72955 2.1538 0
M  V30 3994 N 376.538 -6.8238 1.65233 0
M  V30 3995 H 381.378 -2.34764 1.83548 0
M  V30 3996 H 378.915 -1.15157 0.915279 0
M  V30 3997 H 380.873 -4.16921 0.152534 0
M  V30 3998 H 379.503 -3.19712 -0.445428 0
M  V30 3999 H 378.555 -3.25178 1.97391 0
M  V30 4000 H 379.867 -4.37362 2.39824 0
M  V30 4001 H 379.021 -6.0244 0.717677 0
M  V30 4002 H 377.76 -4.87318 0.19293 0
M  V30 4003 H 376.765 -4.89793 2.49766 0
M  V30 4004 H 377.99 -6.08337 3.01832 0
M  V30 4005 H 375.936 -6.50917 0.815064 0
M  V30 4006 H 375.853 -7.16286 2.41805 0
M  V30 4007 H 377.121 -7.67788 1.34619 0
M  V30 4008 N 381.35 -0.985608 -1.22978 0
M  V30 4009 C 382.598 -0.656087 -1.91154 0
M  V30 4010 C 382.919 0.813561 -1.77218 0
M  V30 4011 O 382.189 1.58244 -1.1548 0
M  V30 4012 H 380.769 -0.239674 -0.707506 0
M  V30 4013 H 383.431 -1.25054 -1.49491 0
M  V30 4014 H 382.527 -0.912253 -2.9847 0
M  V30 4015 N 382.828 1.3818 -0.7579 0
M  V30 4016 C 384.056 2.04301 -0.326937 0
M  V30 4017 C 384.471 1.57163 1.0462 0
M  V30 4018 O 383.828 0.746626 1.66529 0
M  V30 4019 C 383.879 3.59846 -0.345363 0
M  V30 4020 O 383.6 4.05256 -1.66432 0
M  V30 4021 C 385.101 4.4319 0.098927 0
M  V30 4022 H 382.321 0.656443 -0.139012 0
M  V30 4023 H 384.865 1.76786 -1.02796 0
M  V30 4024 H 383.02 3.86182 0.306955 0
M  V30 4025 H 383.434 4.99709 -1.59345 0
M  V30 4026 H 384.908 5.51989 0.0348745 0
M  V30 4027 H 385.385 4.23947 1.14741 0
M  V30 4028 H 385.991 4.22051 -0.52468 0
M  V30 4029 N 384.306 0.507319 1.49211 0
M  V30 4030 C 385.554 -0.0348839 2.0207 0
M  V30 4031 C 385.875 -1.36898 1.38866 0
M  V30 4032 O 385.145 -1.88133 0.546151 0
M  V30 4033 H 383.725 -0.0158812 0.746831 0
M  V30 4034 H 386.387 0.665998 1.83168 0
M  V30 4035 H 385.483 -0.159917 3.1169 0
M  V30 4036 N 385.784 -1.5574 0.241426 0
M  V30 4037 C 386.731 -2.21149 -0.660432 0
M  V30 4038 C 387.701 -1.17356 -1.17545 0
M  V30 4039 O 388.886 -1.45784 -1.23093 0
M  V30 4040 C 386.026 -2.91059 -1.85414 0
M  V30 4041 C 385.139 -4.09495 -1.37616 0
M  V30 4042 C 384.274 -4.67135 -2.529 0
M  V30 4043 C 383.313 -5.77831 -2.01936 0
M  V30 4044 N 382.45 -6.29677 -3.10566 0
M  V30 4045 H 387.29 -2.97845 -0.095955 0
M  V30 4046 H 384.827 -1.47057 -0.0356024 0
M  V30 4047 H 386.785 -3.29788 -2.5553 0
M  V30 4048 H 385.415 -2.16846 -2.39118 0
M  V30 4049 H 384.467 -3.76117 -0.569235 0
M  V30 4050 H 385.779 -4.89423 -0.962618 0
M  V30 4051 H 384.933 -5.08409 -3.31067 0
M  V30 4052 H 383.672 -3.86411 -2.97553 0
M  V30 4053 H 382.677 -5.36039 -1.22238 0
M  V30 4054 H 383.902 -6.60402 -1.58259 0
M  V30 4055 H 381.848 -5.5186 -3.54664 0
M  V30 4056 H 381.765 -7.04783 -2.73526 0
M  V30 4057 H 383.033 -6.75609 -3.88809 0
M  V30 4058 N 387.262 0.0317525 -1.57568 0
M  V30 4059 C 388.21 1.05165 -2.07468 0
M  V30 4060 C 389.204 1.3761 -0.98792 0
M  V30 4061 O 390.41 1.36546 -1.17282 0
M  V30 4062 H 386.785 0.35666 -0.66204 0
M  V30 4063 H 388.756 0.604958 -2.92203 0
M  V30 4064 C 387.505 2.34488 -2.56731 0
M  V30 4065 H 386.828 2.10383 -3.39969 0
M  V30 4066 H 388.268 3.04203 -2.95358 0
M  V30 4067 C 386.727 3.03266 -1.46736 0
M  V30 4068 O 387.257 3.92988 -0.832069 0
M  V30 4069 N 385.463 2.6455 -1.20256 0
M  V30 4070 H 385.01 1.91674 -1.72102 0
M  V30 4071 H 384.968 3.10886 -0.468737 0
M  V30 4072 N 388.74 1.54641 0.303973 0
M  V30 4073 C 389.97 1.77511 1.05705 0
M  V30 4074 C 390.378 0.533228 1.81531 0
M  V30 4075 O 389.721 -0.506423 1.76582 0
M  V30 4076 C 389.783 2.92779 2.08617 0
M  V30 4077 C 389.447 4.30977 1.52013 0
M  V30 4078 C 390.444 5.11115 0.9517 0
M  V30 4079 C 388.129 4.77571 1.55665 0
M  V30 4080 C 390.123 6.35966 0.427327 0
M  V30 4081 C 387.81 6.02384 1.02841 0
M  V30 4082 C 388.808 6.81417 0.464713 0
M  V30 4083 O 388.496 8.03881 -0.0555283 0
M  V30 4084 H 388.228 0.59579 0.319391 0
M  V30 4085 H 390.782 2.02401 0.349712 0
M  V30 4086 H 389.012 2.63506 2.83022 0
M  V30 4087 H 390.701 3.03252 2.69802 0
M  V30 4088 H 391.467 4.76264 0.916407 0
M  V30 4089 H 387.346 4.16085 1.9848 0
M  V30 4090 H 390.89 6.97599 -0.0133062 0
M  V30 4091 H 386.787 6.36723 1.06084 0
M  V30 4092 H 387.555 8.18479 0.0580522 0
M  V30 4093 N 390.218 -0.567019 1.47046 0
M  V30 4094 C 391.466 -1.322 1.52864 0
M  V30 4095 C 391.787 -1.94088 0.188388 0
M  V30 4096 O 391.057 -1.7941 -0.786693 0
M  V30 4097 H 389.637 -0.490894 0.563056 0
M  V30 4098 H 392.299 -0.662879 1.83281 0
M  V30 4099 H 391.395 -2.12062 2.2899 0
M  V30 4100 N 391.696 -1.35014 -0.812953 0
M  V30 4101 C 392.944 -1.27678 -1.56661 0
M  V30 4102 C 393.265 0.150359 -1.94419 0
M  V30 4103 O 392.535 1.08532 -1.63088 0
M  V30 4104 H 391.115 -0.469602 -0.580933 0
M  V30 4105 H 393.777 -1.69043 -0.970076 0
M  V30 4106 H 392.873 -1.88833 -2.48492 0
M  V30 4107 N 393.175 1.03435 -1.18907 0
M  V30 4108 C 394.403 1.80381 -1.01342 0
M  V30 4109 C 394.818 1.83649 0.438005 0
M  V30 4110 O 394.175 1.27655 1.30424 0
M  V30 4111 C 394.226 3.25689 -1.56873 0
M  V30 4112 O 393.947 3.22673 -2.96334 0
M  V30 4113 C 395.448 4.19255 -1.44014 0
M  V30 4114 H 392.668 0.56784 -0.35749 0
M  V30 4115 H 395.212 1.30317 -1.576 0
M  V30 4116 H 393.367 3.72962 -1.04777 0
M  V30 4117 H 393.781 4.13748 -3.22355 0
M  V30 4118 H 395.255 5.19123 -1.87657 0
M  V30 4119 H 395.732 4.37467 -0.389815 0
M  V30 4120 H 396.338 3.77851 -1.95214 0
M  V30 4121 N 394.653 0.992116 1.22453 0
M  V30 4122 C 395.899 0.668523 1.91464 0
M  V30 4123 C 396.232 -0.797313 1.77078 0
M  V30 4124 O 395.507 -1.5765 1.13916 0
M  V30 4125 C 395.79 1.07424 3.43703 0
M  V30 4126 C 395.643 2.59857 3.67143 0
M  V30 4127 C 396.962 0.626891 4.35612 0
M  V30 4128 H 394.081 0.244341 0.695318 0
M  V30 4129 H 396.723 1.2355 1.44345 0
M  V30 4130 H 394.873 0.591816 3.83966 0
M  V30 4131 H 396.545 3.15764 3.3629 0
M  V30 4132 H 394.788 3.01961 3.11451 0
M  V30 4133 H 395.459 2.83296 4.73759 0
M  V30 4134 H 397.935 1.04125 4.02861 0
M  V30 4135 H 396.811 0.939076 5.40807 0
M  V30 4136 H 397.072 -0.472457 4.39568 0
M  V30 4137 N 396.131 -1.37776 0.765217 0
M  V30 4138 C 397.094 -2.28686 0.153416 0
M  V30 4139 C 398.094 -1.47727 -0.635081 0
M  V30 4140 O 399.284 -1.68027 -0.459632 0
M  V30 4141 C 396.416 -3.31608 -0.790495 0
M  V30 4142 H 397.609 -2.84297 0.954723 0
M  V30 4143 H 395.162 -1.46932 0.53299 0
M  V30 4144 H 395.897 -2.81109 -1.61705 0
M  V30 4145 H 395.682 -3.9144 -0.227348 0
M  V30 4146 H 397.172 -3.99559 -1.21419 0
M  V30 4147 N 397.609 -0.515225 -1.4894 0
M  V30 4148 C 398.855 0.0242508 -2.02785 0
M  V30 4149 C 399.188 1.35323 -1.39289 0
M  V30 4150 O 398.463 1.87041 -0.533469 0
M  V30 4151 C 398.746 0.16184 -3.59736 0
M  V30 4152 C 398.599 -1.19127 -4.33738 0
M  V30 4153 C 399.918 0.895719 -4.30888 0
M  V30 4154 H 397.037 0.00733914 -0.736963 0
M  V30 4155 H 399.679 -0.669395 -1.77818 0
M  V30 4156 H 397.829 0.752624 -3.8114 0
M  V30 4157 H 399.501 -1.82202 -4.23792 0
M  V30 4158 H 397.744 -1.77695 -3.95736 0
M  V30 4159 H 398.415 -1.04815 -5.41957 0
M  V30 4160 H 400.891 0.394528 -4.14225 0
M  V30 4161 H 399.767 0.960859 -5.40425 0
M  V30 4162 H 400.028 1.9427 -3.97129 0
M  V30 4163 N 399.087 1.5561 -0.249682 0
M  V30 4164 C 400.315 2.03411 0.378352 0
M  V30 4165 C 400.73 1.12886 1.51335 0
M  V30 4166 O 400.087 0.143833 1.81932 0
M  V30 4167 C 400.138 3.50537 0.88351 0
M  V30 4168 O 399.859 4.37614 -0.20626 0
M  V30 4169 C 401.36 4.14113 1.58195 0
M  V30 4170 H 398.58 0.664994 0.08958 0
M  V30 4171 H 401.124 2.01044 -0.374357 0
M  V30 4172 H 399.279 3.5343 1.58639 0
M  V30 4173 H 399.693 5.24199 0.177782 0
M  V30 4174 H 401.167 5.18741 1.8871 0
M  V30 4175 H 401.644 3.60767 2.50487 0
M  V30 4176 H 402.25 4.15151 0.923573 0
M  V30 4177 N 400.565 -0.0233959 1.57583 0
M  V30 4178 C 401.475 -1.03907 2.10334 0
M  V30 4179 C 402.491 -1.39257 1.04323 0
M  V30 4180 O 403.667 -1.48462 1.36091 0
M  V30 4181 C 400.732 -2.31938 2.57693 0
M  V30 4182 C 399.793 -2.03117 3.78209 0
M  V30 4183 C 399.026 -3.25043 4.233 0
M  V30 4184 O 399.249 -4.35916 3.67876 0
M  V30 4185 O 398.183 -3.10411 5.15683 0
M  V30 4186 H 402.009 -0.620748 2.97288 0
M  V30 4187 H 399.594 -0.240743 1.47448 0
M  V30 4188 H 401.476 -3.07196 2.88458 0
M  V30 4189 H 400.151 -2.73055 1.73847 0
M  V30 4190 H 399.058 -1.25408 3.52454 0
M  V30 4191 H 400.391 -1.66852 4.63056 0
M  V30 4192 N 402.043 -1.548 -0.295768 0
M  V30 4193 C 403.268 -1.78653 -1.05346 0
M  V30 4194 C 403.693 -0.546894 -1.79974 0
M  V30 4195 O 403.051 0.502763 -1.7419 0
M  V30 4196 C 403.099 -2.99679 -2.00561 0
M  V30 4197 O 402.203 -2.7317 -3.08953 0
M  V30 4198 H 401.544 -0.59116 -0.302367 0
M  V30 4199 H 404.074 -2.01895 -0.331598 0
M  V30 4200 H 404.084 -3.27793 -2.42932 0
M  V30 4201 H 402.759 -3.89562 -1.4565 0
M  V30 4202 H 401.336 -2.56089 -2.71059 0
M  V30 4203 N 403.521 0.559213 -1.47345 0
M  V30 4204 C 404.769 1.31388 -1.53563 0
M  V30 4205 C 405.09 1.93985 -0.198678 0
M  V30 4206 O 404.36 1.79825 0.777167 0
M  V30 4207 H 402.94 0.487901 -0.565652 0
M  V30 4208 H 405.602 0.65315 -1.8363 0
M  V30 4209 H 404.698 2.10844 -2.30111 0
M  V30 4210 N 404.999 1.35443 0.805782 0
M  V30 4211 C 405.949 1.24972 1.90699 0
M  V30 4212 C 406.933 0.144806 1.60247 0
M  V30 4213 O 408.125 0.376102 1.72958 0
M  V30 4214 C 405.254 1.02475 3.27649 0
M  V30 4215 C 404.34 2.17361 3.64164 0
M  V30 4216 N 404.731 3.42591 3.72109 0
M  V30 4217 C 403.029 2.08765 3.94123 0
M  V30 4218 C 403.73 4.18144 4.04389 0
M  V30 4219 N 402.706 3.4691 4.18515 0
M  V30 4220 H 406.508 2.19852 1.95044 0
M  V30 4221 H 404.022 1.27928 1.00041 0
M  V30 4222 H 406.019 0.930617 4.06381 0
M  V30 4223 H 404.679 0.0848009 3.24589 0
M  V30 4224 H 405.69 3.76932 3.55166 0
M  V30 4225 H 402.367 1.22629 3.99084 0
M  V30 4226 H 403.757 5.26367 4.17597 0
M  V30 4227 N 406.477 -1.02803 1.19454 0
M  V30 4228 C 407.705 -1.79841 1.02297 0
M  V30 4229 C 408.12 -1.83879 -0.428259 0
M  V30 4230 O 407.477 -1.28345 -1.29745 0
M  V30 4231 C 407.528 -3.24852 1.58598 0
M  V30 4232 O 407.249 -3.21097 2.98041 0
M  V30 4233 C 408.75 -4.18485 1.46236 0
M  V30 4234 H 405.97 -0.565936 0.360496 0
M  V30 4235 H 408.514 -1.2948 1.58288 0
M  V30 4236 H 406.669 -3.72401 1.06753 0
M  V30 4237 H 407.083 -4.12033 3.24545 0
M  V30 4238 H 408.557 -5.18121 1.90407 0
M  V30 4239 H 409.034 -4.37254 0.41301 0
M  V30 4240 H 409.64 -3.76811 1.97215 0
M  V30 4241 N 407.956 -0.998596 -1.21925 0
M  V30 4242 C 409.196 -0.685948 -1.92546 0
M  V30 4243 C 409.56 0.768441 -1.75952 0
M  V30 4244 O 410.761 1.19277 -2.40887 0
M  V30 4245 C 409.032 -1.08767 -3.40448 0
M  V30 4246 S 410.591 -0.894251 -4.29591 0
M  V30 4247 H 407.409 -0.250622 -0.665364 0
M  V30 4248 H 410.011 -1.28207 -1.47591 0
M  V30 4249 H 408.715 -2.14242 -3.50041 0
M  V30 4250 H 408.246 -0.48357 -3.90417 0
M  V30 4251 H 410.261 0.212149 -4.95746 0
M  V30 4252 N 409.434 1.37368 -0.772513 0
M  V30 4253 C 410.366 2.28899 -0.117502 0
M  V30 4254 C 411.379 1.4867 0.663405 0
M  V30 4255 O 412.568 1.71314 0.501372 0
M  V30 4256 C 409.668 3.2788 0.857192 0
M  V30 4257 C 408.841 4.37207 0.129938 0
M  V30 4258 C 407.9 5.16257 1.01811 0
M  V30 4259 O 406.926 5.67159 0.481601 0
M  V30 4260 N 408.128 5.31058 2.3443 0
M  V30 4261 H 410.893 2.85752 -0.903662 0
M  V30 4262 H 408.454 1.49353 -0.62493 0
M  V30 4263 H 410.446 3.77647 1.45482 0
M  V30 4264 H 409.016 2.7179 1.54432 0
M  V30 4265 H 408.236 3.88827 -0.648605 0
M  V30 4266 H 409.524 5.07434 -0.372559 0
M  V30 4267 H 408.922 4.91287 2.80452 0
M  V30 4268 H 407.479 5.84131 2.89197 0
M  V30 4269 N 410.912 0.523116 1.48665 0
M  V30 4270 C 412.328 0.180511 1.58576 0
M  V30 4271 C 412.528 -1.31597 1.52592 0
M  V30 4272 O 411.584 -2.0937 1.4114 0
M  V30 4273 C 412.897 0.776949 2.90489 0
M  V30 4274 C 414.445 0.745058 3.04003 0
M  V30 4275 C 414.92 1.31995 4.38567 0
M  V30 4276 N 416.411 1.28162 4.45117 0
M  V30 4277 C 417.146 1.6964 5.47731 0
M  V30 4278 N 416.642 2.18816 6.57337 0
M  V30 4279 N 418.435 1.6092 5.38573 0
M  V30 4280 H 410.586 1.4958 1.50797 0
M  V30 4281 H 412.849 0.621772 0.715614 0
M  V30 4282 H 412.555 1.82732 3.00503 0
M  V30 4283 H 412.429 0.25007 3.7637 0
M  V30 4284 H 414.816 -0.296532 2.93606 0
M  V30 4285 H 414.897 1.30933 2.1975 0
M  V30 4286 H 414.541 2.36043 4.49718 0
M  V30 4287 H 414.471 0.731418 5.21496 0
M  V30 4288 H 416.962 0.92155 3.66491 0
M  V30 4289 H 417.275 2.48478 7.31764 0
M  V30 4290 H 415.62 2.22805 6.58318 0
M  V30 4291 H 418.811 1.22304 4.5184 0
M  V30 4292 H 418.984 1.93567 6.18414 0
M  V30 4293 N 412.39 -1.55475 0.257931 0
M  V30 4294 C 413.636 -2.00237 -0.357338 0
M  V30 4295 C 413.991 -1.14313 -1.54759 0
M  V30 4296 O 413.284 -0.201187 -1.90541 0
M  V30 4297 C 413.478 -3.48183 -0.806433 0
M  V30 4298 C 413.307 -4.48422 0.338758 0
M  V30 4299 C 412.077 -4.98651 0.817011 0
M  V30 4300 C 414.275 -5.00827 1.16949 0
M  V30 4301 N 412.257 -5.82658 1.93346 0
M  V30 4302 C 413.628 -5.82113 2.13413 0
M  V30 4303 C 415.683 -4.83104 1.2048 0
M  V30 4304 C 414.386 -6.47566 3.13131 0
M  V30 4305 C 416.412 -5.49343 2.19034 0
M  V30 4306 C 415.774 -6.30427 3.14232 0
M  V30 4307 H 411.873 -0.776034 -0.0964083 0
M  V30 4308 H 414.457 -1.90995 0.37803 0
M  V30 4309 H 412.628 -3.57801 -1.51107 0
M  V30 4310 H 414.36 -3.79802 -1.39758 0
M  V30 4311 H 411.115 -4.71914 0.39925 0
M  V30 4312 H 411.539 -6.29356 2.49478 0
M  V30 4313 H 416.181 -4.20036 0.482634 0
M  V30 4314 H 413.899 -7.09793 3.8629 0
M  V30 4315 H 417.485 -5.37579 2.22485 0
M  V30 4316 H 416.365 -6.80777 3.89246 0
M  V30 4317 N 413.868 0.0150385 -1.57593 0
M  V30 4318 C 415.093 0.718067 -1.94573 0
M  V30 4319 C 415.518 1.6734 -0.859005 0
M  V30 4320 O 414.876 1.80362 0.184147 0
M  V30 4321 C 414.924 1.43918 -3.30636 0
M  V30 4322 O 414.028 2.55299 -3.23876 0
M  V30 4323 H 413.369 0.192125 -0.635597 0
M  V30 4324 H 415.899 -0.0336708 -2.04572 0
M  V30 4325 H 415.909 1.80598 -3.65853 0
M  V30 4326 H 414.584 0.738619 -4.09289 0
M  V30 4327 H 413.161 2.21058 -3.00312 0
M  V30 4328 N 415.346 1.54954 0.287554 0
M  V30 4329 C 416.256 1.8991 1.37736 0
M  V30 4330 C 417.272 0.794701 1.54792 0
M  V30 4331 O 418.448 1.09243 1.69198 0
M  V30 4332 C 415.513 2.15108 2.71899 0
M  V30 4333 C 414.574 3.38752 2.63715 0
M  V30 4334 C 413.807 3.62739 3.91479 0
M  V30 4335 O 414.03 2.89492 4.91478 0
M  V30 4336 O 412.964 4.56267 3.92561 0
M  V30 4337 H 416.79 2.82652 1.11092 0
M  V30 4338 H 414.375 1.41315 0.484807 0
M  V30 4339 H 416.257 2.32806 3.51254 0
M  V30 4340 H 414.932 1.25551 2.9836 0
M  V30 4341 H 413.839 3.26405 1.82786 0
M  V30 4342 H 415.172 4.28483 2.42205 0
M  V30 4343 N 416.824 -0.551391 1.4764 0
M  V30 4344 C 417.756 -1.67333 1.56628 0
M  V30 4345 C 418.769 -1.56398 0.452045 0
M  V30 4346 O 419.958 -1.6325 0.721926 0
M  V30 4347 C 417.058 -3.05841 1.45994 0
M  V30 4348 C 416.231 -3.42472 2.72088 0
M  V30 4349 C 415.29 -4.60168 2.55209 0
M  V30 4350 O 414.316 -4.64458 3.2904 0
M  V30 4351 N 415.518 -5.57024 1.63416 0
M  V30 4352 H 418.283 -1.60066 2.53375 0
M  V30 4353 H 415.844 -0.738169 1.44093 0
M  V30 4354 H 417.836 -3.8242 1.32428 0
M  V30 4355 H 416.406 -3.07302 0.573071 0
M  V30 4356 H 415.626 -2.55284 3.00373 0
M  V30 4357 H 416.914 -3.63723 3.55785 0
M  V30 4358 H 416.312 -5.56319 1.02594 0
M  V30 4359 H 414.869 -6.32906 1.558 0
M  V30 4360 N 418.302 -1.35869 -0.798587 0
M  V30 4361 C 419.53 -1.32722 -1.58722 0
M  V30 4362 C 419.945 0.0935631 -1.88568 0
M  V30 4363 O 419.302 1.04784 -1.49421 0
M  V30 4364 C 419.353 -2.13974 -2.91371 0
M  V30 4365 O 419.074 -3.50514 -2.62815 0
M  V30 4366 C 420.575 -2.18504 -3.85708 0
M  V30 4367 H 417.795 -0.45562 -0.492596 0
M  V30 4368 H 420.339 -1.78837 -0.991843 0
M  V30 4369 H 418.494 -1.71438 -3.47402 0
M  V30 4370 H 418.908 -3.92806 -3.47568 0
M  V30 4371 H 420.382 -2.79732 -4.75872 0
M  V30 4372 H 420.859 -1.18597 -4.22885 0
M  V30 4373 H 421.465 -2.61236 -3.35612 0
M  V30 4374 N 419.78 1.02168 -1.19998 0
M  V30 4375 C 421.191 1.57135 -1.00825 0
M  V30 4376 C 421.542 1.91276 0.436818 0
M  V30 4377 O 420.667 1.71679 1.3174 0
M  V30 4378 C 421.262 2.85514 -1.82393 0
M  V30 4379 C 419.821 3.37027 -1.67601 0
M  V30 4380 C 418.968 2.10388 -1.80644 0
M  V30 4381 H 421.919 0.846106 -1.34264 0
M  V30 4382 H 421.94 3.56711 -1.32429 0
M  V30 4383 H 421.452 2.60634 -2.87561 0
M  V30 4384 H 419.553 3.66878 -0.650485 0
M  V30 4385 H 419.666 4.09572 -2.4857 0
M  V30 4386 H 418.03 2.22601 -1.23778 0
M  V30 4387 H 418.813 1.8794 -2.87286 0
M  V30 4388 N 421.258 1.00505 1.21394 0
M  V30 4389 C 422.208 0.536503 2.21598 0
M  V30 4390 C 423.192 -0.401914 1.55799 0
M  V30 4391 O 424.384 -0.226757 1.75541 0
M  V30 4392 C 421.513 -0.135446 3.43033 0
M  V30 4393 C 420.599 0.823992 4.16018 0
M  V30 4394 N 420.99 1.97683 4.6557 0
M  V30 4395 C 419.288 0.642387 4.4135 0
M  V30 4396 C 419.989 2.58003 5.21354 0
M  V30 4397 N 418.965 1.86162 5.1073 0
M  V30 4398 H 422.767 1.41557 2.57563 0
M  V30 4399 H 420.281 0.868878 1.37202 0
M  V30 4400 H 422.278 -0.488584 4.14027 0
M  V30 4401 H 420.938 -1.01049 3.08576 0
M  V30 4402 H 421.949 2.3572 4.61147 0
M  V30 4403 H 418.626 -0.185578 4.17087 0
M  V30 4404 H 420.016 3.555 5.70149 0
M  V30 4405 N 422.737 -1.36956 0.779787 0
M  V30 4406 C 423.684 -2.30175 0.169697 0
M  V30 4407 C 424.654 -1.51501 -0.68094 0
M  V30 4408 O 425.839 -1.80042 -0.631629 0
M  V30 4409 C 422.979 -3.37985 -0.697131 0
M  V30 4410 C 422.092 -4.31661 0.170992 0
M  V30 4411 C 421.227 -5.2655 -0.701298 0
M  V30 4412 C 420.266 -6.11867 0.168869 0
M  V30 4413 N 419.403 -6.98973 -0.661855 0
M  V30 4414 H 424.243 -2.81767 0.970135 0
M  V30 4415 H 421.78 -1.38699 0.489994 0
M  V30 4416 H 423.738 -3.99128 -1.2146 0
M  V30 4417 H 422.368 -2.87739 -1.46309 0
M  V30 4418 H 421.42 -3.71756 0.80634 0
M  V30 4419 H 422.732 -4.91644 0.841875 0
M  V30 4420 H 421.886 -5.92937 -1.28494 0
M  V30 4421 H 420.625 -4.66998 -1.40584 0
M  V30 4422 H 419.63 -5.44452 0.764986 0
M  V30 4423 H 420.855 -6.73493 0.870863 0
M  V30 4424 H 418.801 -6.41941 -1.35086 0
M  V30 4425 H 418.718 -7.55984 -0.0484447 0
M  V30 4426 H 419.986 -7.6974 -1.22963 0
M  V30 4427 N 424.215 -0.530993 -1.48385 0
M  V30 4428 C 425.165 0.251092 -2.26613 0
M  V30 4429 C 426.149 0.908977 -1.32765 0
M  V30 4430 O 427.341 0.811616 -1.57295 0
M  V30 4431 C 424.47 1.29677 -3.17866 0
M  V30 4432 C 423.556 0.643627 -4.19188 0
M  V30 4433 N 423.947 -0.271223 -5.05072 0
M  V30 4434 C 422.245 0.900711 -4.3681 0
M  V30 4435 C 422.946 -0.648109 -5.78078 0
M  V30 4436 N 421.922 -0.00895987 -5.43599 0
M  V30 4437 H 425.724 -0.452702 -2.90393 0
M  V30 4438 H 423.238 -0.349091 -1.58604 0
M  V30 4439 H 425.235 1.87079 -3.72568 0
M  V30 4440 H 423.895 2.00193 -2.55642 0
M  V30 4441 H 424.906 -0.643883 -5.13882 0
M  V30 4442 H 421.583 1.59636 -3.85775 0
M  V30 4443 H 422.973 -1.39833 -6.57188 0
M  V30 4444 N 425.693 1.55336 -0.266172 0
M  V30 4445 C 426.641 2.23587 0.641228 0
M  V30 4446 C 427.635 1.22986 1.16494 0
M  V30 4447 O 428.841 1.40943 1.1196 0
M  V30 4448 H 425.216 0.717452 0.225315 0
M  V30 4449 H 427.187 2.9837 0.0426561 0
M  V30 4450 C 425.936 2.96369 1.81826 0
M  V30 4451 H 425.259 3.73563 1.42445 0
M  V30 4452 H 426.699 3.47459 2.42998 0
M  V30 4453 C 425.158 2.0133 2.70125 0
M  V30 4454 O 425.688 1.55875 3.70224 0
M  V30 4455 N 423.894 1.6802 2.37102 0
M  V30 4456 H 423.441 2.05181 1.55751 0
M  V30 4457 H 423.399 1.047 2.96454 0
M  V30 4458 N 427.171 -0.0066808 1.57599 0
M  V30 4459 C 428.587 -0.36267 1.55425 0
M  V30 4460 C 428.787 -1.75209 0.995187 0
M  V30 4461 O 427.843 -2.44616 0.626058 0
M  V30 4462 C 429.156 -0.244017 2.99708 0
M  V30 4463 C 430.704 -0.319451 3.11366 0
M  V30 4464 C 431.179 -0.229998 4.57422 0
M  V30 4465 N 432.67 -0.288105 4.62303 0
M  V30 4466 C 433.405 -0.242127 5.72889 0
M  V30 4467 N 432.901 -0.147133 6.92644 0
M  V30 4468 N 434.694 -0.293502 5.61333 0
M  V30 4469 H 426.845 0.902314 1.92281 0
M  V30 4470 H 429.108 0.34525 0.882896 0
M  V30 4471 H 428.814 0.711678 3.44424 0
M  V30 4472 H 428.688 -1.02877 3.629 0
M  V30 4473 H 431.075 -1.26559 2.66584 0
M  V30 4474 H 431.156 0.495055 2.50964 0
M  V30 4475 H 430.8 0.712566 5.02877 0
M  V30 4476 H 430.73 -1.0629 5.15761 0
M  V30 4477 H 433.221 -0.363126 3.76151 0
M  V30 4478 H 433.534 -0.117763 7.7271 0
M  V30 4479 H 431.879 -0.112857 6.94908 0
M  V30 4480 H 435.07 -0.365864 4.66668 0
M  V30 4481 H 435.243 -0.254204 6.47501 0
M  V30 4482 N 428.649 -1.55105 -0.279332 0
M  V30 4483 C 429.877 -1.7943 -1.03017 0
M  V30 4484 C 430.292 -0.564456 -1.80165 0
M  V30 4485 O 429.649 0.466326 -1.76442 0
M  V30 4486 C 429.7 -3.0155 -1.99374 0
M  V30 4487 O 429.421 -4.19784 -1.25352 0
M  V30 4488 C 430.922 -3.3843 -2.86321 0
M  V30 4489 H 428.142 -0.597882 -0.304594 0
M  V30 4490 H 430.686 -2.02105 -0.312035 0
M  V30 4491 H 428.841 -2.81019 -2.66659 0
M  V30 4492 H 429.255 -4.88781 -1.90246 0
M  V30 4493 H 430.729 -4.27066 -3.49741 0
M  V30 4494 H 431.206 -2.57549 -3.5576 0
M  V30 4495 H 431.812 -3.61197 -2.24536 0
M  V30 4496 N 430.127 0.543554 -1.4793 0
M  V30 4497 C 431.538 1.12561 -1.48953 0
M  V30 4498 C 431.889 1.94578 -0.251754 0
M  V30 4499 O 431.014 2.0665 0.642255 0
M  V30 4500 C 431.609 2.04801 -2.69892 0
M  V30 4501 C 430.168 2.58251 -2.73831 0
M  V30 4502 C 429.315 1.34918 -2.42265 0
M  V30 4503 H 432.266 0.32947 -1.55242 0
M  V30 4504 H 432.287 2.88886 -2.47639 0
M  V30 4505 H 431.799 1.4508 -3.59963 0
M  V30 4506 H 429.9 3.21732 -1.87934 0
M  V30 4507 H 430.013 2.98312 -3.74895 0
M  V30 4508 H 428.377 1.66046 -1.93134 0
M  V30 4509 H 429.16 0.769693 -3.3456 0
M  V30 4510 N 431.605 1.3629 0.791371 0
M  V30 4511 C 432.515 1.32606 1.93527 0
M  V30 4512 C 433.531 0.228541 1.72493 0
M  V30 4513 O 434.707 0.460571 1.96063 0
M  V30 4514 C 431.772 1.11271 3.28359 0
M  V30 4515 C 430.833 2.3048 3.62185 0
M  V30 4516 C 430.066 2.10154 4.90583 0
M  V30 4517 O 430.289 1.07572 5.60165 0
M  V30 4518 O 429.223 2.97884 5.23019 0
M  V30 4519 H 433.049 2.28909 1.99585 0
M  V30 4520 H 430.634 1.16818 0.931344 0
M  V30 4521 H 432.516 1.01283 4.09047 0
M  V30 4522 H 431.191 0.180292 3.23198 0
M  V30 4523 H 430.098 2.46036 2.81811 0
M  V30 4524 H 431.431 3.22221 3.72068 0
M  V30 4525 N 433.083 -1.0153 1.20538 0
M  V30 4526 C 434.031 -2.12215 0.952235 0
M  V30 4527 C 435.025 -1.69123 -0.0968735 0
M  V30 4528 O 436.231 -1.7992 0.0536006 0
M  V30 4529 H 432.606 -0.693576 0.290613 0
M  V30 4530 H 434.577 -2.3075 1.89201 0
M  V30 4531 C 433.326 -3.43755 0.522287 0
M  V30 4532 H 432.649 -3.7734 1.32115 0
M  V30 4533 H 434.089 -4.22254 0.384389 0
M  V30 4534 C 432.548 -3.28088 -0.765489 0
M  V30 4535 O 433.078 -3.57921 -1.8236 0
M  V30 4536 N 431.284 -2.81333 -0.728011 0
M  V30 4537 H 430.831 -2.57255 0.133332 0
M  V30 4538 H 430.789 -2.71232 -1.58999 0
M  V30 4539 N 434.561 -1.01147 -1.20859 0
M  V30 4540 C 435.808 -0.697865 -1.90095 0
M  V30 4541 C 436.136 0.772014 -1.78522 0
M  V30 4542 O 435.391 1.57595 -1.16027 0
M  V30 4543 C 435.69 -1.0727 -3.40922 0
M  V30 4544 C 435.356 -2.53792 -3.72693 0
M  V30 4545 C 434.018 -2.93829 -3.81075 0
M  V30 4546 C 436.37 -3.48674 -3.87397 0
M  V30 4547 C 433.698 -4.27696 -4.01613 0
M  V30 4548 C 436.05 -4.82223 -4.09444 0
M  V30 4549 C 434.714 -5.21973 -4.16054 0
M  V30 4550 H 433.984 -0.255367 -0.695607 0
M  V30 4551 H 436.631 -1.27111 -1.43231 0
M  V30 4552 H 434.936 -0.417799 -3.89566 0
M  V30 4553 H 436.633 -0.807818 -3.92779 0
M  V30 4554 H 433.223 -2.21768 -3.66765 0
M  V30 4555 H 437.407 -3.18904 -3.80281 0
M  V30 4556 H 432.663 -4.58055 -4.04964 0
M  V30 4557 H 436.837 -5.55672 -4.19763 0
M  V30 4558 H 434.464 -6.25717 -4.31721 0
M  V30 4559 N 436.039 1.36541 -0.78704 0
M  V30 4560 C 437.45 1.81873 -0.421807 0
M  V30 4561 C 437.801 1.65487 1.05397 0
M  V30 4562 O 436.926 1.17448 1.81755 0
M  V30 4563 C 437.521 3.30192 -0.758841 0
M  V30 4564 C 436.08 3.73743 -0.446468 0
M  V30 4565 C 435.227 2.58844 -0.994728 0
M  V30 4566 H 438.178 1.24796 -0.98039 0
M  V30 4567 H 438.199 3.80468 -0.0490648 0
M  V30 4568 H 437.711 3.42087 -1.83299 0
M  V30 4569 H 435.812 3.6741 0.619739 0
M  V30 4570 H 435.925 4.69272 -0.965415 0
M  V30 4571 H 434.289 2.51245 -0.418087 0
M  V30 4572 H 435.072 2.73525 -2.07458 0
M  V30 4573 N 437.518 0.538854 1.48102 0
M  V30 4574 C 438.758 0.0101209 2.04397 0
M  V30 4575 C 439.122 -1.30741 1.40609 0
M  V30 4576 O 440.323 -1.92272 1.87843 0
M  V30 4577 C 438.594 -0.100232 3.57259 0
M  V30 4578 S 440.153 -0.577746 4.3498 0
M  V30 4579 H 436.971 0.0163171 0.710813 0
M  V30 4580 H 439.573 0.721429 1.81702 0
M  V30 4581 H 438.277 0.863351 4.01216 0
M  V30 4582 H 437.808 -0.835651 3.84422 0
M  V30 4583 H 439.823 -1.84073 4.60794 0
M  V30 4584 N 438.996 -1.55193 0.274407 0
M  V30 4585 C 439.943 -2.225 -0.613374 0
M  V30 4586 C 440.913 -1.19823 -1.15029 0
M  V30 4587 O 442.098 -1.48362 -1.19973 0
M  V30 4588 C 439.238 -2.94927 -1.79199 0
M  V30 4589 C 438.351 -4.12322 -1.28899 0
M  V30 4590 C 437.486 -4.72394 -2.42934 0
M  V30 4591 C 436.525 -5.81984 -1.89634 0
M  V30 4592 N 435.662 -6.36123 -2.9714 0
M  V30 4593 H 440.502 -2.97982 -0.032756 0
M  V30 4594 H 438.039 -1.47099 -0.00440146 0
M  V30 4595 H 439.997 -3.35134 -2.48478 0
M  V30 4596 H 438.627 -2.2187 -2.34465 0
M  V30 4597 H 437.679 -3.7724 -0.489327 0
M  V30 4598 H 438.991 -4.91355 -0.858587 0
M  V30 4599 H 438.145 -5.15317 -3.20208 0
M  V30 4600 H 436.884 -3.92636 -2.8929 0
M  V30 4601 H 435.889 -5.38511 -1.1084 0
M  V30 4602 H 437.114 -6.6361 -1.44215 0
M  V30 4603 H 435.06 -5.59259 -3.42878 0
M  V30 4604 H 434.977 -7.10427 -2.58515 0
M  V30 4605 H 436.245 -6.83704 -3.74391 0
M  V30 4606 N 440.474 -0.00167713 -1.576 0
M  V30 4607 C 441.422 1.0074 -2.09652 0
M  V30 4608 C 442.416 1.35483 -1.01689 0
M  V30 4609 O 443.622 1.34028 -1.20152 0
M  V30 4610 H 439.997 0.342537 -0.669457 0
M  V30 4611 H 441.968 0.542841 -2.93421 0
M  V30 4612 C 440.717 2.2899 -2.61647 0
M  V30 4613 H 440.04 2.03124 -3.44355 0
M  V30 4614 H 441.48 2.9787 -3.01744 0
M  V30 4615 C 439.939 3.00085 -1.53136 0
M  V30 4616 O 440.469 3.91135 -0.91524 0
M  V30 4617 N 438.675 2.6194 -1.25841 0
M  V30 4618 H 438.222 1.8798 -1.76129 0
M  V30 4619 H 438.18 3.09822 -0.534576 0
M  V30 4620 N 441.952 1.55251 0.271103 0
M  V30 4621 C 442.882 1.9127 1.33933 0
M  V30 4622 C 443.863 0.77478 1.5143 0
M  V30 4623 O 445.048 1.03307 1.64442 0
M  V30 4624 C 442.178 2.18627 2.69851 0
M  V30 4625 C 441.132 3.34442 2.67081 0
M  V30 4626 C 440.458 3.47284 4.06569 0
M  V30 4627 C 441.758 4.70784 2.26185 0
M  V30 4628 H 443.452 2.80744 1.04035 0
M  V30 4629 H 440.998 1.35077 0.499017 0
M  V30 4630 H 442.951 2.42413 3.44694 0
M  V30 4631 H 441.675 1.25955 3.01335 0
M  V30 4632 H 440.334 3.10627 1.94695 0
M  V30 4633 H 439.982 2.52074 4.35279 0
M  V30 4634 H 439.682 4.25152 4.0561 0
M  V30 4635 H 441.206 3.73363 4.83148 0
M  V30 4636 H 442.62 4.94102 2.90751 0
M  V30 4637 H 441.017 5.51582 2.36384 0
M  V30 4638 H 442.087 4.69478 1.21319 0
M  V30 4639 N 443.43 -0.535701 1.48216 0
M  V30 4640 C 444.34 -1.66785 1.64985 0
M  V30 4641 C 445.356 -1.65654 0.532414 0
M  V30 4642 O 446.532 -1.8471 0.80275 0
M  V30 4643 C 443.597 -3.0326 1.68031 0
M  V30 4644 C 442.658 -3.1529 2.9136 0
M  V30 4645 C 441.891 -4.45255 2.94252 0
M  V30 4646 O 442.114 -5.32011 2.05719 0
M  V30 4647 O 441.048 -4.6153 3.86359 0
M  V30 4648 H 444.874 -1.55576 2.60825 0
M  V30 4649 H 442.459 -0.70815 1.31551 0
M  V30 4650 H 444.341 -3.84436 1.72589 0
M  V30 4651 H 443.016 -3.14805 0.753628 0
M  V30 4652 H 441.923 -2.3343 2.92337 0
M  V30 4653 H 443.256 -3.08658 3.83394 0
M  V30 4654 N 444.908 -1.36708 -0.784132 0
M  V30 4655 C 445.818 -1.3363 -1.92822 0
M  V30 4656 C 446.834 -0.237686 -1.72369 0
M  V30 4657 O 448.01 -0.470962 -1.95816 0
M  V30 4658 C 445.075 -1.13011 -3.27764 0
M  V30 4659 C 444.136 -2.32397 -3.60957 0
M  V30 4660 C 443.369 -2.12752 -4.89461 0
M  V30 4661 O 443.592 -1.10541 -5.59586 0
M  V30 4662 O 442.526 -3.00653 -5.21432 0
M  V30 4663 H 446.352 -2.29964 -1.98369 0
M  V30 4664 H 443.937 -1.1731 -0.925136 0
M  V30 4665 H 445.819 -1.03451 -4.08504 0
M  V30 4666 H 444.494 -0.19743 -3.23097 0
M  V30 4667 H 443.401 -2.47527 -2.80502 0
M  V30 4668 H 444.734 -3.2419 -3.70354 0
M  V30 4669 N 446.386 1.0089 -1.21074 0
M  V30 4670 C 447.334 2.11707 -0.963476 0
M  V30 4671 C 448.328 1.69172 0.0879032 0
M  V30 4672 O 449.534 1.79889 -0.0631415 0
M  V30 4673 H 445.909 0.692026 -0.294287 0
M  V30 4674 H 447.88 2.29743 -1.90422 0
M  V30 4675 C 446.629 3.43473 -0.540509 0
M  V30 4676 H 445.952 3.76634 -1.34114 0
M  V30 4677 H 447.392 4.22044 -0.406777 0
M  V30 4678 C 445.851 3.2849 0.748079 0
M  V30 4679 O 446.381 3.58883 1.8046 0
M  V30 4680 N 444.587 2.81715 0.713081 0
M  V30 4681 H 444.134 2.5718 -0.146973 0
M  V30 4682 H 444.092 2.72071 1.57558 0
M  V30 4683 N 447.864 1.01787 1.20321 0
M  V30 4684 C 449.094 0.72614 1.93419 0
M  V30 4685 C 449.502 -0.717317 1.75075 0
M  V30 4686 O 448.845 -1.49836 1.06278 0
M  V30 4687 C 448.907 0.983621 3.45782 0
M  V30 4688 C 448.571 2.41645 3.87888 0
M  V30 4689 C 449.568 3.39732 3.93545 0
M  V30 4690 C 447.253 2.75752 4.19841 0
M  V30 4691 C 449.247 4.69988 4.30569 0
M  V30 4692 C 446.934 4.06221 4.56539 0
M  V30 4693 C 447.932 5.0315 4.61876 0
M  V30 4694 O 447.62 6.31284 4.97731 0
M  V30 4695 H 447.352 0.265824 0.621541 0
M  V30 4696 H 449.906 1.3623 1.53722 0
M  V30 4697 H 448.136 0.290301 3.85609 0
M  V30 4698 H 449.825 0.683279 4.00108 0
M  V30 4699 H 450.591 3.14718 3.69022 0
M  V30 4700 H 446.47 2.00993 4.14877 0
M  V30 4701 H 450.014 5.45642 4.3465 0
M  V30 4702 H 445.911 4.31013 4.80518 0
M  V30 4703 H 446.679 6.35591 5.15719 0
M  V30 4704 N 449.342 -1.36122 0.79427 0
M  V30 4705 C 450.582 -2.00942 0.374376 0
M  V30 4706 C 450.946 -1.61666 -1.03577 0
M  V30 4707 O 452.147 -2.19113 -1.55701 0
M  V30 4708 C 450.418 -3.53323 0.538327 0
M  V30 4709 S 451.977 -4.38311 0.20703 0
M  V30 4710 H 448.795 -0.696515 0.142785 0
M  V30 4711 H 451.397 -1.65929 1.03382 0
M  V30 4712 H 450.101 -3.79395 1.56484 0
M  V30 4713 H 449.632 -3.93162 -0.136882 0
M  V30 4714 H 451.647 -4.8623 -0.989695 0
M  V30 4715 N 450.82 -0.546701 -1.47814 0
M  V30 4716 C 452.236 -0.205717 -1.58269 0
M  V30 4717 C 452.436 1.29153 -1.54667 0
M  V30 4718 O 451.492 2.07098 -1.44453 0
M  V30 4719 C 452.805 -0.823065 -2.89216 0
M  V30 4720 C 454.353 -0.793328 -3.02779 0
M  V30 4721 C 454.828 -1.38955 -4.36412 0
M  V30 4722 N 456.319 -1.35227 -4.43021 0
M  V30 4723 C 457.054 -1.78333 -5.44963 0
M  V30 4724 N 456.55 -2.29246 -6.53772 0
M  V30 4725 N 458.343 -1.69467 -5.35945 0
M  V30 4726 H 450.494 -1.5196 -1.48398 0
M  V30 4727 H 452.757 -0.633078 -0.705632 0
M  V30 4728 H 452.463 -1.8749 -2.97558 0
M  V30 4729 H 452.337 -0.309915 -3.75925 0
M  V30 4730 H 454.724 0.249784 -2.94041 0
M  V30 4731 H 454.805 -1.34412 -2.17639 0
M  V30 4732 H 454.449 -2.43168 -4.45906 0
M  V30 4733 H 454.379 -0.814291 -5.20266 0
M  V30 4734 H 456.87 -0.979739 -3.64979 0
M  V30 4735 H 457.183 -2.60089 -7.27718 0
M  V30 4736 H 455.528 -2.3325 -6.5469 0
M  V30 4737 H 458.719 -1.29477 -4.49837 0
M  V30 4738 H 458.892 -2.03381 -6.15256 0
M  V30 4739 N 452.299 1.55045 -0.282633 0
M  V30 4740 C 453.247 2.24254 0.617478 0
M  V30 4741 C 454.241 1.24215 1.15183 0
M  V30 4742 O 455.447 1.42123 1.10459 0
M  V30 4743 H 451.822 0.719801 0.217693 0
M  V30 4744 H 453.793 2.98398 0.0110076 0
M  V30 4745 C 452.542 2.98281 1.78672 0
M  V30 4746 H 451.865 3.75053 1.38475 0
M  V30 4747 H 453.305 3.50017 2.393 0
M  V30 4748 C 451.764 2.04184 2.67975 0
M  V30 4749 O 452.294 1.59792 3.6855 0
M  V30 4750 N 450.5 1.70526 2.35307 0
M  V30 4751 H 450.047 2.06821 1.53567 0
M  V30 4752 H 450.005 1.07839 2.95327 0
M  V30 4753 N 453.777 0.010035 1.57597 0
M  V30 4754 C 455.188 -0.531426 1.78977 0
M  V30 4755 C 455.539 -1.73375 0.918454 0
M  V30 4756 O 454.664 -2.16047 0.123635 0
M  V30 4757 C 455.259 -0.97086 3.24592 0
M  V30 4758 C 453.818 -1.45756 3.47033 0
M  V30 4759 C 452.965 -0.413384 2.74201 0
M  V30 4760 H 455.916 0.236166 1.56933 0
M  V30 4761 H 455.937 -1.83633 3.33255 0
M  V30 4762 H 455.449 -0.0955893 3.87982 0
M  V30 4763 H 453.55 -2.35339 2.88871 0
M  V30 4764 H 453.663 -1.4781 4.55729 0
M  V30 4765 H 452.027 -0.877266 2.39115 0
M  V30 4766 H 452.81 0.453092 3.40297 0
M  V30 4767 N 455.255 -1.55392 -0.262866 0
M  V30 4768 C 456.203 -1.8977 -1.345 0
M  V30 4769 C 457.197 -0.775063 -1.50629 0
M  V30 4770 O 458.403 -0.959519 -1.52293 0
M  V30 4771 H 454.778 -0.602467 -0.450041 0
M  V30 4772 H 456.749 -2.80147 -1.02762 0
M  V30 4773 C 455.498 -2.19501 -2.69657 0
M  V30 4774 H 454.821 -3.05378 -2.5804 0
M  V30 4775 H 456.261 -2.47469 -3.44289 0
M  V30 4776 C 454.72 -1.00597 -3.21531 0
M  V30 4777 O 455.25 -0.245768 -4.00947 0
M  V30 4778 N 453.456 -0.800911 -2.79345 0
M  V30 4779 H 453.003 -1.42079 -2.14875 0
M  V30 4780 H 452.961 -0.00697996 -3.14399 0
M  V30 4781 N 456.733 0.527833 -1.48498 0
M  V30 4782 C 457.981 1.28101 -1.56316 0
M  V30 4783 C 458.302 1.9352 -0.239781 0
M  V30 4784 O 457.572 1.81433 0.738849 0
M  V30 4785 H 456.152 0.475793 -0.575873 0
M  V30 4786 H 458.814 0.614052 -1.84974 0
M  V30 4787 H 457.91 2.05916 -2.34532 0
M  V30 4788 N 458.211 1.37122 0.776871 0
M  V30 4789 C 459.121 1.34651 1.9211 0
M  V30 4790 C 460.137 0.246824 1.7224 0
M  V30 4791 O 461.313 0.48134 1.95563 0
M  V30 4792 C 458.378 1.14748 3.2716 0
M  V30 4793 C 457.439 2.34308 3.5972 0
M  V30 4794 C 456.672 2.15345 4.88326 0
M  V30 4795 O 456.895 1.13507 5.58992 0
M  V30 4796 O 455.829 3.03414 5.1983 0
M  V30 4797 H 459.655 2.31013 1.97146 0
M  V30 4798 H 457.24 1.17799 0.918901 0
M  V30 4799 H 459.122 1.05616 4.0795 0
M  V30 4800 H 457.797 0.214562 3.22988 0
M  V30 4801 H 456.704 2.49011 2.79185 0
M  V30 4802 H 458.037 3.26149 3.68629 0
M  V30 4803 N 459.689 -1.00246 1.21608 0
M  V30 4804 C 460.636 -2.09073 0.977613 0
M  V30 4805 C 461.606 -1.65815 -0.097297 0
M  V30 4806 O 462.791 -1.90734 0.0503445 0
M  V30 4807 C 459.931 -3.40671 0.551133 0
M  V30 4808 C 459.044 -3.97326 1.69576 0
M  V30 4809 C 458.179 -5.17043 1.2182 0
M  V30 4810 C 457.218 -5.65813 2.335 0
M  V30 4811 N 456.355 -6.76778 1.86859 0
M  V30 4812 H 461.195 -2.28806 1.90924 0
M  V30 4813 H 458.732 -1.12186 0.951452 0
M  V30 4814 H 460.69 -4.16225 0.285097 0
M  V30 4815 H 459.32 -3.20967 -0.343489 0
M  V30 4816 H 458.372 -3.18734 2.07637 0
M  V30 4817 H 459.684 -4.29511 2.53617 0
M  V30 4818 H 458.838 -5.99852 0.908975 0
M  V30 4819 H 457.577 -4.86458 0.347869 0
M  V30 4820 H 456.582 -4.81599 2.65222 0
M  V30 4821 H 457.807 -5.98427 3.21033 0
M  V30 4822 H 455.753 -6.47994 1.02174 0
M  V30 4823 H 455.67 -7.08231 2.64471 0
M  V30 4824 H 456.938 -7.63116 1.58978 0
M  V30 4825 N 461.167 -1.02423 -1.1978 0
M  V30 4826 C 462.13 -0.605703 -2.21052 0
M  V30 4827 C 463.13 0.328209 -1.57415 0
M  V30 4828 O 464.32 0.115853 -1.73814 0
M  V30 4829 C 461.452 0.114366 -3.40708 0
M  V30 4830 H 462.645 -1.5017 -2.59594 0
M  V30 4831 H 460.198 -0.814888 -1.33376 0
M  V30 4832 H 460.933 1.02492 -3.07678 0
M  V30 4833 H 460.718 -0.556641 -3.88129 0
M  V30 4834 H 462.208 0.394272 -4.15735 0
M  V30 4835 N 462.645 1.35699 -0.801477 0
M  V30 4836 C 464.056 1.81415 -0.441073 0
M  V30 4837 C 464.407 1.66595 1.03636 0
M  V30 4838 O 463.532 1.19369 1.80499 0
M  V30 4839 C 464.127 3.29369 -0.793819 0
M  V30 4840 C 462.686 3.73248 -0.486083 0
M  V30 4841 C 461.833 2.57775 -1.02213 0
M  V30 4842 H 464.784 1.23749 -0.993572 0
M  V30 4843 H 464.805 3.80395 -0.0894158 0
M  V30 4844 H 464.317 3.40123 -1.86917 0
M  V30 4845 H 462.418 3.68046 0.580735 0
M  V30 4846 H 462.531 4.68222 -1.01513 0
M  V30 4847 H 460.895 2.50788 -0.444712 0
M  V30 4848 H 461.678 2.71309 -2.10348 0
M  V30 4849 N 464.123 0.554532 1.47522 0
M  V30 4850 C 465.369 0.0377449 2.03365 0
M  V30 4851 C 465.724 -1.29654 1.42154 0
M  V30 4852 O 465.017 -1.83022 0.566865 0
M  V30 4853 C 465.211 -0.115927 3.57212 0
M  V30 4854 C 465.04 1.20191 4.33341 0
M  V30 4855 C 463.81 1.76849 4.73342 0
M  V30 4856 C 466.008 2.11849 4.68641 0
M  V30 4857 N 463.99 3.02665 5.34104 0
M  V30 4858 C 465.361 3.22245 5.29677 0
M  V30 4859 C 467.416 2.11876 4.5057 0
M  V30 4860 C 466.119 4.32763 5.74551 0
M  V30 4861 C 468.145 3.21405 4.9644 0
M  V30 4862 C 467.507 4.30519 5.57523 0
M  V30 4863 H 463.606 0.0559107 0.779999 0
M  V30 4864 H 466.19 0.741232 1.80038 0
M  V30 4865 H 464.361 -0.788533 3.80311 0
M  V30 4866 H 466.093 -0.634538 3.99695 0
M  V30 4867 H 462.848 1.30681 4.55214 0
M  V30 4868 H 463.272 3.66788 5.69031 0
M  V30 4869 H 467.914 1.28801 4.02704 0
M  V30 4870 H 465.632 5.166 6.2141 0
M  V30 4871 H 469.218 3.22509 4.8423 0
M  V30 4872 H 468.098 5.13873 5.92371 0
M  V30 4873 N 465.601 -1.54893 0.290851 0
M  V30 4874 C 466.841 -2.01842 -0.322388 0
M  V30 4875 C 467.205 -1.17477 -1.51865 0
M  V30 4876 O 468.406 -1.54077 -2.20258 0
M  V30 4877 C 466.677 -3.50874 -0.679844 0
M  V30 4878 S 468.236 -4.19796 -1.27739 0
M  V30 4879 H 465.054 -0.704005 -0.0994866 0
M  V30 4880 H 467.656 -1.91015 0.416358 0
M  V30 4881 H 466.36 -4.09915 0.199435 0
M  V30 4882 H 465.891 -3.65717 -1.44964 0
M  V30 4883 H 467.906 -4.24729 -2.56554 0
M  V30 4884 N 467.08 -0.0183926 -1.57589 0
M  V30 4885 C 468.31 0.67207 -1.95363 0
M  V30 4886 C 468.718 1.66807 -0.892872 0
M  V30 4887 O 468.061 1.83204 0.134958 0
M  V30 4888 C 468.123 1.44397 -3.29226 0
M  V30 4889 C 467.787 0.607511 -4.52944 0
M  V30 4890 C 468.784 -0.112657 -5.19778 0
M  V30 4891 C 466.469 0.548068 -4.99301 0
M  V30 4892 C 468.463 -0.881057 -6.31281 0
M  V30 4893 C 466.15 -0.224044 -6.10689 0
M  V30 4894 C 467.148 -0.937323 -6.76538 0
M  V30 4895 O 466.836 -1.6968 -7.85789 0
M  V30 4896 H 466.568 0.190925 -0.648478 0
M  V30 4897 H 469.122 -0.0711994 -2.05277 0
M  V30 4898 H 467.352 2.23214 -3.15773 0
M  V30 4899 H 469.041 2.02152 -3.51979 0
M  V30 4900 H 469.807 -0.0759998 -4.8494 0
M  V30 4901 H 465.686 1.09281 -4.4786 0
M  V30 4902 H 469.23 -1.43832 -6.82611 0
M  V30 4903 H 465.127 -0.262457 -6.44966 0
M  V30 4904 H 465.895 -1.61544 -8.024 0
M  V30 4905 N 468.558 1.5553 0.254621 0
M  V30 4906 C 469.786 1.81046 1.00149 0
M  V30 4907 C 470.201 0.593047 1.79244 0
M  V30 4908 O 469.558 -0.438196 1.77161 0
M  V30 4909 C 469.609 3.04684 1.94551 0
M  V30 4910 O 469.33 4.21725 1.18658 0
M  V30 4911 C 470.831 3.42943 2.80901 0
M  V30 4912 H 468.051 0.602653 0.295044 0
M  V30 4913 H 470.595 2.02576 0.279842 0
M  V30 4914 H 468.75 2.85226 2.62154 0
M  V30 4915 H 469.164 4.91746 1.82445 0
M  V30 4916 H 470.638 4.32576 3.42902 0
M  V30 4917 H 471.115 2.63176 3.51617 0
M  V30 4918 H 471.721 3.64724 2.18762 0
M  V30 4919 N 470.036 -0.519951 1.48776 0
M  V30 4920 C 471.264 -1.29971 1.60982 0
M  V30 4921 C 471.679 -1.86803 0.273885 0
M  V30 4922 O 471.036 -1.66904 -0.738193 0
M  V30 4923 C 471.087 -2.44346 2.66415 0
M  V30 4924 O 470.808 -1.89855 3.94825 0
M  V30 4925 C 472.309 -3.36014 2.89153 0
M  V30 4926 H 469.529 -0.394891 0.542496 0
M  V30 4927 H 472.073 -0.626214 1.94676 0
M  V30 4928 H 470.228 -3.07562 2.35552 0
M  V30 4929 H 470.642 -2.64798 4.5275 0
M  V30 4930 H 472.116 -4.12593 3.66703 0
M  V30 4931 H 472.593 -3.91859 1.98351 0
M  V30 4932 H 473.199 -2.78582 3.21359 0
M  V30 4933 N 471.514 -1.37532 -0.769588 0
M  V30 4934 C 472.462 -1.33561 -1.90432 0
M  V30 4935 C 473.456 -0.224027 -1.67912 0
M  V30 4936 O 474.662 -0.392174 -1.75676 0
M  V30 4937 H 471.037 -0.416279 -0.626271 0
M  V30 4938 H 473.008 -2.29348 -1.90899 0
M  V30 4939 C 471.757 -1.16162 -3.27722 0
M  V30 4940 H 471.08 -2.00951 -3.45628 0
M  V30 4941 H 472.52 -1.17434 -4.07413 0
M  V30 4942 C 470.979 0.132583 -3.36639 0
M  V30 4943 O 471.509 1.11539 -3.85904 0
M  V30 4944 N 469.715 0.184013 -2.90017 0
M  V30 4945 H 469.262 -0.616415 -2.50116 0
M  V30 4946 H 469.22 1.04956 -2.96364 0
M  V30 4947 N 472.992 0.995999 -1.22138 0
M  V30 4948 C 474.217 1.77601 -1.0711 0
M  V30 4949 C 474.642 1.84339 0.374264 0
M  V30 4950 O 474 1.29359 1.27028 0
M  V30 4951 C 474.048 3.18897 -1.68336 0
M  V30 4952 O 473.152 4.01663 -0.934928 0
M  V30 4953 H 472.493 0.547011 -0.376397 0
M  V30 4954 H 475.023 1.25137 -1.6187 0
M  V30 4955 H 475.033 3.69539 -1.72931 0
M  V30 4956 H 473.708 3.13308 -2.73516 0
M  V30 4957 H 472.285 3.60204 -0.964751 0
M  V30 4958 N 474.47 1.03057 1.19235 0
M  V30 4959 C 475.38 0.622922 2.26179 0
M  V30 4960 C 476.396 -0.346113 1.70523 0
M  V30 4961 O 477.572 -0.203572 2.00369 0
M  V30 4962 C 474.637 -0.0182063 3.46695 0
M  V30 4963 C 473.698 0.998546 4.17526 0
M  V30 4964 C 472.931 0.387917 5.32288 0
M  V30 4965 O 473.154 -0.808668 5.64639 0
M  V30 4966 O 472.088 1.1116 5.91546 0
M  V30 4967 H 475.914 1.51363 2.63292 0
M  V30 4968 H 473.499 0.800856 1.26122 0
M  V30 4969 H 475.381 -0.375606 4.19723 0
M  V30 4970 H 474.056 -0.882895 3.11427 0
M  V30 4971 H 472.963 1.40756 3.4661 0
M  V30 4972 H 474.296 1.83366 4.56769 0
M  V30 4973 N 475.948 -1.35272 0.808662 0
M  V30 4974 C 477.194 -1.99003 0.390581 0
M  V30 4975 C 477.527 -1.63999 -1.0401 0
M  V30 4976 O 476.802 -0.904368 -1.72196 0
M  V30 4977 C 477.085 -3.55454 0.576566 0
M  V30 4978 C 476.938 -4.00249 2.05233 0
M  V30 4979 C 478.257 -4.401 0.00354277 0
M  V30 4980 H 475.376 -0.722917 0.143388 0
M  V30 4981 H 478.018 -1.6039 1.01858 0
M  V30 4982 H 476.168 -3.88477 0.0419766 0
M  V30 4983 H 477.84 -3.77626 2.64946 0
M  V30 4984 H 476.083 -3.51082 2.54801 0
M  V30 4985 H 476.754 -5.0911 2.13333 0
M  V30 4986 H 479.23 -4.13548 0.460117 0
M  V30 4987 H 478.106 -5.48656 0.163575 0
M  V30 4988 H 478.367 -4.28444 -1.09032 0
M  V30 4989 N 477.426 -0.562348 -1.47226 0
M  V30 4990 C 478.842 -0.222492 -1.58042 0
M  V30 4991 C 479.042 1.27505 -1.56028 0
M  V30 4992 O 478.098 2.05555 -1.46641 0
M  V30 4993 C 479.411 -0.853694 -2.88327 0
M  V30 4994 C 480.959 -0.825397 -3.01921 0
M  V30 4995 C 481.434 -1.43576 -4.34914 0
M  V30 4996 N 482.925 -1.39918 -4.41562 0
M  V30 4997 C 483.66 -1.84103 -5.43041 0
M  V30 4998 N 483.156 -2.36167 -6.51304 0
M  V30 4999 N 484.949 -1.75142 -5.34118 0
M  V30 5000 H 477.1 -1.53525 -1.46778 0
M  V30 5001 H 479.363 -0.640527 -0.698877 0
M  V30 5002 H 479.069 -1.90635 -2.95552 0
M  V30 5003 H 478.943 -0.34977 -3.75575 0
M  V30 5004 H 481.33 0.218583 -2.94289 0
M  V30 5005 H 481.411 -1.36713 -2.16202 0
M  V30 5006 H 481.055 -2.47884 -4.43301 0
M  V30 5007 H 480.985 -0.869427 -5.19373 0
M  V30 5008 H 483.476 -1.0184 -3.63919 0
M  V30 5009 H 483.789 -2.67793 -7.24919 0
M  V30 5010 H 482.134 -2.40181 -6.52179 0
M  V30 5011 H 485.325 -1.34241 -4.48439 0
M  V30 5012 H 485.498 -2.09895 -6.13065 0
M  V30 5013 N 478.904 1.54736 -0.299062 0
M  V30 5014 C 480.15 2.01114 0.304123 0
M  V30 5015 C 480.505 1.18376 1.51674 0
M  V30 5016 O 479.798 0.251635 1.8994 0
M  V30 5017 C 479.992 3.50199 0.713835 0
M  V30 5018 C 479.821 4.47366 -0.457531 0
M  V30 5019 C 478.591 4.9631 -0.948933 0
M  V30 5020 C 480.789 4.9755 -1.30186 0
M  V30 5021 N 478.771 5.77327 -2.08726 0
M  V30 5022 C 480.142 5.7625 -2.28771 0
M  V30 5023 C 482.197 4.79739 -1.33246 0
M  V30 5024 C 480.9 6.39036 -3.3019 0
M  V30 5025 C 482.926 5.43343 -2.33521 0
M  V30 5026 C 482.288 6.21874 -3.30836 0
M  V30 5027 H 478.387 0.778318 0.0757992 0
M  V30 5028 H 480.971 1.89925 -0.428536 0
M  V30 5029 H 479.142 3.61681 1.41567 0
M  V30 5030 H 480.874 3.83374 1.29639 0
M  V30 5031 H 477.629 4.7069 -0.52423 0
M  V30 5032 H 478.053 6.22521 -2.66077 0
M  V30 5033 H 482.695 4.18609 -0.59383 0
M  V30 5034 H 480.413 6.99302 -4.04973 0
M  V30 5035 H 483.999 5.31492 -2.3666 0
M  V30 5036 H 482.879 6.70217 -4.07159 0
M  V30 5037 N 480.382 0.0267497 1.57577 0
M  V30 5038 C 481.292 -0.971633 2.13533 0
M  V30 5039 C 482.308 -1.35868 1.08701 0
M  V30 5040 O 483.484 -1.44058 1.40746 0
M  V30 5041 C 480.549 -2.23622 2.64941 0
M  V30 5042 C 479.61 -1.90982 3.8448 0
M  V30 5043 C 478.843 -3.11411 4.33427 0
M  V30 5044 O 479.066 -4.23992 3.81558 0
M  V30 5045 O 478 -2.93848 5.25297 0
M  V30 5046 H 481.826 -0.525853 2.99113 0
M  V30 5047 H 479.411 -0.193712 1.48139 0
M  V30 5048 H 481.293 -2.97864 2.98086 0
M  V30 5049 H 479.968 -2.67386 1.82446 0
M  V30 5050 H 478.875 -1.14132 3.56265 0
M  V30 5051 H 480.208 -1.52036 4.6813 0
M  V30 5052 N 481.861 -1.55662 -0.24637 0
M  V30 5053 C 483.091 -1.81312 -0.990438 0
M  V30 5054 C 483.499 -0.600234 -1.79426 0
M  V30 5055 O 482.842 0.440537 -1.78339 0
M  V30 5056 C 482.904 -3.0032 -1.97607 0
M  V30 5057 C 482.568 -4.36322 -1.35912 0
M  V30 5058 C 483.565 -5.14295 -0.761348 0
M  V30 5059 C 481.25 -4.83019 -1.37833 0
M  V30 5060 C 483.244 -6.37114 -0.190998 0
M  V30 5061 C 480.931 -6.05786 -0.804128 0
M  V30 5062 C 481.929 -6.82672 -0.211489 0
M  V30 5063 O 481.617 -8.03121 0.353845 0
M  V30 5064 H 481.349 -0.607233 -0.297058 0
M  V30 5065 H 483.903 -2.0356 -0.274351 0
M  V30 5066 H 482.133 -2.73829 -2.73047 0
M  V30 5067 H 483.822 -3.13057 -2.58361 0
M  V30 5068 H 484.588 -4.79337 -0.739013 0
M  V30 5069 H 480.467 -4.23165 -1.829 0
M  V30 5070 H 484.011 -6.97069 0.272206 0
M  V30 5071 H 479.908 -6.40222 -0.823792 0
M  V30 5072 H 480.676 -8.18131 0.245761 0
M  V30 5073 N 483.339 0.512053 -1.4905 0
M  V30 5074 C 484.579 1.27715 -1.59588 0
M  V30 5075 C 484.943 1.90071 -0.271502 0
M  V30 5076 O 486.144 2.67616 -0.251987 0
M  V30 5077 C 484.415 2.32399 -2.71524 0
M  V30 5078 S 485.974 3.18396 -3.01943 0
M  V30 5079 H 482.792 0.43419 -0.563027 0
M  V30 5080 H 485.394 0.581315 -1.86657 0
M  V30 5081 H 484.098 1.85101 -3.66287 0
M  V30 5082 H 483.629 3.06667 -2.46412 0
M  V30 5083 H 485.644 4.32842 -2.42616 0
M  V30 5084 N 484.817 1.37938 0.762283 0
M  V30 5085 C 486.045 1.36883 1.55147 0
M  V30 5086 C 486.46 -0.0435348 1.8875 0
M  V30 5087 O 485.817 -1.00786 1.52146 0
M  V30 5088 C 485.868 2.21624 2.85596 0
M  V30 5089 O 485.589 3.57358 2.5343 0
M  V30 5090 C 487.09 2.28653 3.7978 0
M  V30 5091 H 484.31 0.468521 0.480343 0
M  V30 5092 H 486.854 1.81404 0.944079 0
M  V30 5093 H 485.009 1.80588 3.42734 0
M  V30 5094 H 485.423 4.01883 3.37032 0
M  V30 5095 H 486.897 2.9225 4.68288 0
M  V30 5096 H 487.374 1.29767 4.19592 0
M  V30 5097 H 487.98 2.70043 3.28568 0
M  V30 5098 N 486.295 -0.989507 1.22664 0
M  V30 5099 C 487.544 -1.72375 1.04737 0
M  V30 5100 C 487.857 -1.91096 -0.417316 0
M  V30 5101 O 489.063 -2.6188 -0.716334 0
M  V30 5102 C 487.519 -3.10161 1.82561 0
M  V30 5103 C 487.127 -2.99358 3.333 0
M  V30 5104 C 488.871 -3.87607 1.73093 0
M  V30 5105 C 486.778 -4.32319 4.03552 0
M  V30 5106 H 485.708 -0.646326 0.388302 0
M  V30 5107 H 488.359 -1.10437 1.46546 0
M  V30 5108 H 486.741 -3.728 1.33552 0
M  V30 5109 H 487.915 -2.45863 3.89728 0
M  V30 5110 H 486.23 -2.35392 3.43481 0
M  V30 5111 H 488.827 -4.86025 2.22899 0
M  V30 5112 H 489.17 -4.10509 0.691976 0
M  V30 5113 H 489.703 -3.31652 2.19663 0
M  V30 5114 H 486.442 -4.14616 5.07714 0
M  V30 5115 H 485.962 -4.85714 3.51911 0
M  V30 5116 H 487.641 -5.01051 4.09337 0
M  V30 5117 N 487.773 -1.03688 -1.18687 0
M  V30 5118 C 489.184 -0.766488 -1.70241 0
M  V30 5119 C 489.535 0.713052 -1.82784 0
M  V30 5120 O 488.66 1.55529 -1.50465 0
M  V30 5121 C 489.255 -1.38475 -3.09209 0
M  V30 5122 C 487.814 -1.16276 -3.5799 0
M  V30 5123 C 486.961 -1.4778 -2.34641 0
M  V30 5124 H 489.912 -1.20378 -1.03415 0
M  V30 5125 H 489.933 -0.785939 -3.72295 0
M  V30 5126 H 489.445 -2.46157 -3.00048 0
M  V30 5127 H 487.546 -0.104508 -3.72453 0
M  V30 5128 H 487.659 -1.8571 -4.41643 0
M  V30 5129 H 486.023 -0.897366 -2.38368 0
M  V30 5130 H 486.806 -2.56562 -2.28102 0
M  V30 5131 N 489.251 1.34841 -0.815825 0
M  V30 5132 C 490.476 2.03261 -0.41226 0
M  V30 5133 C 490.901 1.61055 0.971751 0
M  V30 5134 O 490.259 0.7917 1.63101 0
M  V30 5135 C 490.307 3.56914 -0.514289 0
M  V30 5136 O 489.411 4.09728 0.468675 0
M  V30 5137 H 488.752 0.641664 -0.170771 0
M  V30 5138 H 491.282 1.72241 -1.10427 0
M  V30 5139 H 491.292 4.06156 -0.387457 0
M  V30 5140 H 489.967 3.86982 -1.52375 0
M  V30 5141 H 488.544 3.71681 0.301316 0
M  V30 5142 N 490.729 0.570148 1.46925 0
M  V30 5143 C 491.969 0.0534743 2.0433 0
M  V30 5144 C 492.333 -1.27729 1.4335 0
M  V30 5145 O 493.534 -1.88244 1.91879 0
M  V30 5146 C 491.805 -0.0244296 3.57392 0
M  V30 5147 S 493.364 -0.485351 4.36108 0
M  V30 5148 H 490.182 0.0313908 0.710307 0
M  V30 5149 H 492.784 0.759808 1.80131 0
M  V30 5150 H 491.488 0.948261 3.99295 0
M  V30 5151 H 491.019 -0.753922 3.86108 0
M  V30 5152 H 493.034 -1.74258 4.64595 0
M  V30 5153 N 492.207 -1.54576 0.307264 0
M  V30 5154 C 493.117 -2.27435 -0.57536 0
M  V30 5155 C 494.133 -1.31183 -1.14311 0
M  V30 5156 O 495.309 -1.64175 -1.16656 0
M  V30 5157 C 492.374 -3.00566 -1.72803 0
M  V30 5158 C 491.435 -4.12369 -1.19373 0
M  V30 5159 C 490.668 -4.82003 -2.29147 0
M  V30 5160 O 490.891 -4.51038 -3.49171 0
M  V30 5161 O 489.825 -5.69271 -1.95485 0
M  V30 5162 H 493.651 -3.03696 0.0158558 0
M  V30 5163 H 491.236 -1.49219 0.0735064 0
M  V30 5164 H 493.118 -3.46416 -2.39946 0
M  V30 5165 H 491.793 -2.27195 -2.30574 0
M  V30 5166 H 490.7 -3.70905 -0.487851 0
M  V30 5167 H 492.033 -4.87736 -0.661376 0
M  V30 5168 N 493.685 -0.035106 -1.57561 0
M  V30 5169 C 494.91 0.655802 -1.96759 0
M  V30 5170 C 495.335 1.64523 -0.911809 0
M  V30 5171 O 494.693 1.80857 0.126673 0
M  V30 5172 C 494.741 1.33326 -3.35047 0
M  V30 5173 O 493.845 2.44866 -3.31835 0
M  V30 5174 H 493.186 0.171807 -0.641388 0
M  V30 5175 H 495.716 -0.0987369 -2.04362 0
M  V30 5176 H 495.726 1.68867 -3.71413 0
M  V30 5177 H 494.401 0.608033 -4.11431 0
M  V30 5178 H 492.978 2.11392 -3.07193 0
M  V30 5179 N 495.163 1.55791 0.238111 0
M  V30 5180 C 496.388 1.8244 0.986432 0
M  V30 5181 C 496.813 0.613314 1.7782 0
M  V30 5182 O 496.171 -0.437767 1.75935 0
M  V30 5183 C 496.219 3.06917 1.893 0
M  V30 5184 O 495.323 2.84449 2.98601 0
M  V30 5185 H 494.664 0.601975 0.280218 0
M  V30 5186 H 497.194 2.02987 0.256437 0
M  V30 5187 H 497.204 3.36583 2.30598 0
M  V30 5188 H 495.879 3.947 1.31091 0
M  V30 5189 H 494.456 2.65972 2.61368 0
M  V30 5190 N 496.642 -0.504142 1.49319 0
M  V30 5191 C 498.053 -1.08572 1.51885 0
M  V30 5192 C 498.404 -1.93842 0.303255 0
M  V30 5193 O 497.529 -2.0828 -0.58724 0
M  V30 5194 C 498.124 -1.97574 2.75227 0
M  V30 5195 C 496.683 -2.509 2.80581 0
M  V30 5196 C 495.83 -1.28447 2.45757 0
M  V30 5197 H 498.781 -0.288194 1.56061 0
M  V30 5198 H 498.802 -2.82219 2.55211 0
M  V30 5199 H 498.314 -1.35486 3.63683 0
M  V30 5200 H 496.415 -3.16636 1.96398 0
M  V30 5201 H 496.528 -2.88268 3.82673 0
M  V30 5202 H 494.892 -1.60868 1.97468 0
M  V30 5203 H 495.675 -0.68072 3.36483 0
M  V30 5204 N 498.12 -1.38341 -0.754957 0
M  V30 5205 C 499.05 -1.38176 -1.88227 0
M  V30 5206 C 500.031 -0.247873 -1.68284 0
M  V30 5207 O 501.216 -0.45075 -1.88896 0
M  V30 5208 C 498.346 -1.20471 -3.25736 0
M  V30 5209 C 497.3 -2.3105 -3.60278 0
M  V30 5210 C 496.626 -1.98452 -4.96509 0
M  V30 5211 C 497.926 -3.73305 -3.65295 0
M  V30 5212 H 499.62 -2.32512 -1.88622 0
M  V30 5213 H 497.166 -1.1192 -0.906082 0
M  V30 5214 H 499.119 -1.18982 -4.04254 0
M  V30 5215 H 497.843 -0.225965 -3.25817 0
M  V30 5216 H 496.502 -2.31723 -2.84078 0
M  V30 5217 H 496.15 -0.990641 -4.93148 0
M  V30 5218 H 495.85 -2.7251 -5.20588 0
M  V30 5219 H 497.374 -1.98578 -5.77407 0
M  V30 5220 H 498.788 -3.7467 -4.3393 0
M  V30 5221 H 497.185 -4.46557 -4.00883 0
M  V30 5222 H 498.255 -4.05719 -2.65556 0
M  V30 5223 N 499.598 0.982988 -1.23187 0
M  V30 5224 C 500.823 1.76455 -1.08988 0
M  V30 5225 C 501.248 1.84726 0.354691 0
M  V30 5226 O 500.606 1.30699 1.25649 0
M  V30 5227 C 500.654 3.17094 -1.71708 0
M  V30 5228 O 499.758 4.00648 -0.977477 0
M  V30 5229 H 499.099 0.542988 -0.382177 0
M  V30 5230 H 501.629 1.23413 -1.63188 0
M  V30 5231 H 501.639 3.67684 -1.76841 0
M  V30 5232 H 500.314 3.10389 -2.76823 0
M  V30 5233 H 498.891 3.59161 -1.0029 0
M  V30 5234 N 501.076 1.04316 1.18135 0
M  V30 5235 C 502.304 0.768117 1.92113 0
M  V30 5236 C 502.719 -0.675057 1.76319 0
M  V30 5237 O 502.076 -1.46038 1.09449 0
M  V30 5238 C 502.127 1.12808 3.43448 0
M  V30 5239 O 501.848 2.5146 3.58747 0
M  V30 5240 C 503.349 0.8779 4.3452 0
M  V30 5241 H 500.569 0.279937 0.609817 0
M  V30 5242 H 503.113 1.39149 1.49859 0
M  V30 5243 H 501.268 0.549623 3.83481 0
M  V30 5244 H 501.682 2.65313 4.52448 0
M  V30 5245 H 503.156 1.17959 5.39249 0
M  V30 5246 H 503.633 -0.187239 4.38801 0
M  V30 5247 H 504.239 1.43977 4.00188 0
M  V30 5248 N 502.554 -1.34406 0.822964 0
M  V30 5249 C 503.464 -2.33298 0.246838 0
M  V30 5250 C 504.48 -1.62625 -0.618797 0
M  V30 5251 O 505.656 -1.94391 -0.526685 0
M  V30 5252 C 502.721 -3.41785 -0.581731 0
M  V30 5253 C 501.782 -4.28206 0.306309 0
M  V30 5254 C 501.015 -5.31512 -0.48281 0
M  V30 5255 O 501.238 -5.43973 -1.71607 0
M  V30 5256 O 500.172 -6.01749 0.134884 0
M  V30 5257 H 503.998 -2.84401 1.06534 0
M  V30 5258 H 501.583 -1.37466 0.585108 0
M  V30 5259 H 503.465 -4.08028 -1.05313 0
M  V30 5260 H 502.14 -2.92925 -1.37756 0
M  V30 5261 H 501.047 -3.64885 0.825199 0
M  V30 5262 H 502.38 -4.80507 1.06649 0
M  V30 5263 N 504.032 -0.577932 -1.46621 0
M  V30 5264 C 505.448 -0.239242 -1.57797 0
M  V30 5265 C 505.648 1.25843 -1.57371 0
M  V30 5266 O 504.704 2.03988 -1.48813 0
M  V30 5267 C 506.017 -0.884227 -2.87405 0
M  V30 5268 C 507.565 -0.857373 -3.01028 0
M  V30 5269 C 508.04 -1.48181 -4.33366 0
M  V30 5270 N 509.531 -1.44593 -4.40053 0
M  V30 5271 C 510.266 -1.89852 -5.41058 0
M  V30 5272 N 509.762 -2.43062 -6.48762 0
M  V30 5273 N 511.555 -1.80797 -5.3223 0
M  V30 5274 H 503.706 -1.55073 -1.45142 0
M  V30 5275 H 505.969 -0.647903 -0.692044 0
M  V30 5276 H 505.675 -1.93759 -2.93514 0
M  V30 5277 H 505.549 -0.389585 -3.75183 0
M  V30 5278 H 507.936 0.187357 -2.94505 0
M  V30 5279 H 508.017 -1.38999 -2.14739 0
M  V30 5280 H 507.661 -2.52572 -4.40647 0
M  V30 5281 H 507.591 -0.924464 -5.18422 0
M  V30 5282 H 510.082 -1.05694 -3.62819 0
M  V30 5283 H 510.395 -2.75466 -7.22038 0
M  V30 5284 H 508.74 -2.47085 -6.49595 0
M  V30 5285 H 511.931 -1.38989 -4.46989 0
M  V30 5286 H 512.104 -2.16385 -6.10804 0
M  V30 5287 N 505.51 1.54411 -0.315457 0
M  V30 5288 C 506.443 2.20265 0.596522 0
M  V30 5289 C 507.421 1.17693 1.12192 0
M  V30 5290 O 508.605 1.46397 1.18744 0
M  V30 5291 C 505.732 2.85794 1.81767 0
M  V30 5292 C 504.778 4.02017 1.42424 0
M  V30 5293 S 505.611 5.33452 0.467836 0
M  V30 5294 C 506.767 6.02471 1.69645 0
M  V30 5295 H 507 2.97277 0.0370896 0
M  V30 5296 H 504.533 1.54079 -0.0995562 0
M  V30 5297 H 506.491 3.24172 2.51839 0
M  V30 5298 H 505.152 2.08601 2.34828 0
M  V30 5299 H 504.345 4.46701 2.33396 0
M  V30 5300 H 503.947 3.65271 0.803311 0
M  V30 5301 H 506.239 6.24157 2.63504 0
M  V30 5302 H 507.182 6.96215 1.29192 0
M  V30 5303 H 507.59 5.32284 1.87974 0
M  V30 5304 N 506.988 0.0434614 1.5754 0
M  V30 5305 C 508.265 -0.671479 1.83713 0
M  V30 5306 C 508.645 -1.89495 0.930315 0
M  V30 5307 O 507.993 -2.28498 -0.0105639 0
M  V30 5308 C 508.203 -1.0361 3.33266 0
M  V30 5309 C 509.551 -1.42167 4.00092 0
M  V30 5310 O 510.575 -1.12866 3.37846 0
M  V30 5311 O 509.434 -1.96817 5.09829 0
M  V30 5312 H 506.528 -0.330726 0.75799 0
M  V30 5313 H 509.074 0.0722373 1.69546 0
M  V30 5314 H 507.846 -0.165938 3.90948 0
M  V30 5315 H 507.469 -1.83751 3.52592 0
M  V30 5316 N 508.466 -1.55915 -0.229846 0
M  V30 5317 C 509.712 -1.78807 -0.956868 0
M  V30 5318 C 510.045 -0.611687 -1.84315 0
M  V30 5319 O 509.32 0.389398 -1.90562 0
M  V30 5320 C 509.603 -3.11718 -1.80288 0
M  V30 5321 C 509.456 -4.3979 -0.943649 0
M  V30 5322 C 510.775 -3.40999 -2.78222 0
M  V30 5323 H 507.894 -0.6505 -0.346437 0
M  V30 5324 H 510.536 -1.88648 -0.226252 0
M  V30 5325 H 508.686 -3.03459 -2.42579 0
M  V30 5326 H 510.358 -4.60059 -0.338121 0
M  V30 5327 H 508.601 -4.33086 -0.248705 0
M  V30 5328 H 509.272 -5.29208 -1.5698 0
M  V30 5329 H 511.748 -3.49332 -2.26067 0
M  V30 5330 H 510.624 -4.35183 -3.34526 0
M  V30 5331 H 510.885 -2.62754 -3.55546 0
M  V30 5332 N 509.944 0.496216 -1.49584 0
M  V30 5333 C 511.355 1.07765 -1.52459 0
M  V30 5334 C 511.706 1.93679 -0.31353 0
M  V30 5335 O 510.831 2.08588 0.576186 0
M  V30 5336 C 511.426 1.96111 -2.76271 0
M  V30 5337 C 509.985 2.49409 -2.81908 0
M  V30 5338 C 509.132 1.27142 -2.46435 0
M  V30 5339 H 512.083 0.279914 -1.56212 0
M  V30 5340 H 512.104 2.80862 -2.56704 0
M  V30 5341 H 511.616 1.33555 -3.64396 0
M  V30 5342 H 509.717 3.1559 -1.98074 0
M  V30 5343 H 509.83 2.86234 -3.84196 0
M  V30 5344 H 508.194 1.59818 -1.98319 0
M  V30 5345 H 508.977 0.662866 -3.3684 0
M  V30 5346 N 511.423 1.38739 0.74761 0
M  V30 5347 C 512.669 1.35475 1.50912 0
M  V30 5348 C 513.002 -0.0533093 1.94127 0
M  V30 5349 O 512.277 -1.01572 1.65871 0
M  V30 5350 C 512.56 2.31582 2.75757 0
M  V30 5351 C 512.413 3.81274 2.38642 0
M  V30 5352 C 513.732 2.25722 3.77806 0
M  V30 5353 H 510.851 0.493427 0.547447 0
M  V30 5354 H 513.493 1.69634 0.855823 0
M  V30 5355 H 511.643 2.02582 3.31501 0
M  V30 5356 H 513.315 4.20972 1.88626 0
M  V30 5357 H 511.558 3.98664 1.71025 0
M  V30 5358 H 512.229 4.4399 3.27989 0
M  V30 5359 H 514.705 2.51336 3.31616 0
M  V30 5360 H 513.581 2.95069 4.62845 0
M  V30 5361 H 513.842 1.25803 4.23823 0
M  V30 5362 N 512.901 -0.976442 1.23707 0
M  V30 5363 C 514.312 -1.53284 1.06587 0
M  V30 5364 C 514.663 -1.92765 -0.365526 0
M  V30 5365 O 513.788 -1.7645 -1.25277 0
M  V30 5366 C 514.383 -2.78548 1.92864 0
M  V30 5367 C 512.942 -3.30574 1.79994 0
M  V30 5368 C 512.089 -2.03538 1.88328 0
M  V30 5369 H 515.04 -0.795692 1.37311 0
M  V30 5370 H 515.061 -3.5155 1.45577 0
M  V30 5371 H 514.573 -2.49782 2.97037 0
M  V30 5372 H 512.674 -3.64211 0.786202 0
M  V30 5373 H 512.787 -4.00065 2.636 0
M  V30 5374 H 511.151 -2.17853 1.31954 0
M  V30 5375 H 511.934 -1.77149 2.94063 0
M  V30 5376 N 514.379 -1.04941 -1.1758 0
M  V30 5377 C 515.79 -0.784501 -1.69418 0
M  V30 5378 C 516.141 0.693625 -1.8353 0
M  V30 5379 O 515.266 1.53925 -1.52106 0
M  V30 5380 C 515.861 -1.41746 -3.07723 0
M  V30 5381 C 514.42 -1.20066 -3.56737 0
M  V30 5382 C 513.567 -1.5026 -2.33061 0
M  V30 5383 H 516.518 -1.21469 -1.02133 0
M  V30 5384 H 516.539 -0.825381 -3.7144 0
M  V30 5385 H 516.051 -2.49325 -2.9742 0
M  V30 5386 H 514.152 -0.144006 -3.72322 0
M  V30 5387 H 514.265 -1.90384 -4.39648 0
M  V30 5388 H 512.629 -0.922598 -2.37403 0
M  V30 5389 H 513.412 -2.58967 -2.25368 0
M  V30 5390 N 515.857 1.33968 -0.830081 0
M  V30 5391 C 516.767 2.33164 -0.259207 0
M  V30 5392 C 517.783 1.62951 0.610164 0
M  V30 5393 O 518.959 1.94668 0.516369 0
M  V30 5394 C 516.024 3.42088 0.563598 0
M  V30 5395 C 515.085 4.28037 -0.329014 0
M  V30 5396 C 514.318 5.3176 0.454616 0
M  V30 5397 O 514.541 5.44876 1.6872 0
M  V30 5398 O 513.475 6.01669 -0.166794 0
M  V30 5399 H 517.301 2.83832 -1.08041 0
M  V30 5400 H 514.886 1.37154 -0.59239 0
M  V30 5401 H 516.768 4.08581 1.03147 0
M  V30 5402 H 515.443 2.93651 1.36201 0
M  V30 5403 H 514.35 3.64443 -0.844538 0
M  V30 5404 H 515.683 4.79934 -1.09196 0
M  V30 5405 N 517.335 0.585699 1.46312 0
M  V30 5406 C 518.267 -0.183687 2.28463 0
M  V30 5407 C 519.28 -0.85264 1.38686 0
M  V30 5408 O 520.469 -0.721701 1.6326 0
M  V30 5409 C 517.569 -1.27977 3.13808 0
M  V30 5410 C 516.742 -0.702164 4.31727 0
M  V30 5411 C 515.801 -1.68633 4.98447 0
M  V30 5412 O 514.827 -1.22121 5.55945 0
M  V30 5413 N 516.029 -3.02047 4.95729 0
M  V30 5414 H 518.794 0.521127 2.95134 0
M  V30 5415 H 516.355 0.423673 1.56258 0
M  V30 5416 H 518.347 -1.9375 3.55307 0
M  V30 5417 H 516.917 -1.8874 2.4919 0
M  V30 5418 H 516.137 0.1331 3.93975 0
M  V30 5419 H 517.425 -0.296101 5.07938 0
M  V30 5420 H 516.823 -3.42457 4.50266 0
M  V30 5421 H 515.38 -3.63301 5.41161 0
M  V30 5422 N 518.813 -1.54241 0.323641 0
M  V30 5423 C 520.041 -2.04985 -0.280871 0
M  V30 5424 C 520.456 -1.19978 -1.45777 0
M  V30 5425 O 519.813 -0.230471 -1.81039 0
M  V30 5426 C 519.864 -3.54353 -0.715258 0
M  V30 5427 O 519.585 -4.36132 0.414817 0
M  V30 5428 C 521.086 -4.21189 -1.38257 0
M  V30 5429 H 518.306 -0.66851 -0.0577502 0
M  V30 5430 H 520.85 -1.99029 0.469852 0
M  V30 5431 H 519.005 -3.60596 -1.41596 0
M  V30 5432 H 519.419 -5.2445 0.0725227 0
M  V30 5433 H 520.893 -5.27154 -1.63745 0
M  V30 5434 H 521.37 -3.72307 -2.32989 0
M  V30 5435 H 521.976 -4.19085 -0.724447 0
M  V30 5436 N 520.291 -0.0518155 -1.57515 0
M  V30 5437 C 521.702 0.483787 -1.80323 0
M  V30 5438 C 522.053 1.70879 -0.964099 0
M  V30 5439 O 521.178 2.15643 -0.180872 0
M  V30 5440 C 521.773 0.884459 -3.27052 0
M  V30 5441 C 520.332 1.36504 -3.50776 0
M  V30 5442 C 519.479 0.340539 -2.75201 0
M  V30 5443 H 522.43 -0.277691 -1.56252 0
M  V30 5444 H 522.451 1.74733 -3.38007 0
M  V30 5445 H 521.963 -0.00731093 -3.88099 0
M  V30 5446 H 520.064 2.27598 -2.95009 0
M  V30 5447 H 520.177 1.35675 -4.59488 0
M  V30 5448 H 518.541 0.81356 -2.41357 0
M  V30 5449 H 519.324 -0.543156 -3.38976 0
M  V30 5450 N 521.769 1.56035 0.221574 0
M  V30 5451 C 523.015 1.79312 0.947372 0
M  V30 5452 C 523.348 0.621453 1.83988 0
M  V30 5453 O 522.623 -0.379287 1.90766 0
M  V30 5454 C 522.906 3.1267 1.78633 0
M  V30 5455 C 522.759 4.40284 0.920312 0
M  V30 5456 C 524.078 3.4247 2.7641 0
M  V30 5457 H 521.197 0.652328 0.342982 0
M  V30 5458 H 523.839 1.88765 0.216244 0
M  V30 5459 H 521.989 3.04741 2.40967 0
M  V30 5460 H 523.661 4.60232 0.313718 0
M  V30 5461 H 521.904 4.33212 0.225734 0
M  V30 5462 H 522.575 5.30033 1.54171 0
M  V30 5463 H 525.051 3.50526 2.24211 0
M  V30 5464 H 523.927 4.3695 3.32213 0
M  V30 5465 H 524.188 2.64635 3.54148 0
M  V30 5466 N 523.247 -0.488276 1.49845 0
M  V30 5467 C 524.658 -1.06955 1.53028 0
M  V30 5468 C 525.009 -1.9351 0.323797 0
M  V30 5469 O 524.134 -2.08891 -0.565116 0
M  V30 5470 C 524.729 -1.94643 2.77307 0
M  V30 5471 C 523.288 -2.4791 2.83227 0
M  V30 5472 C 522.435 -1.25833 2.47106 0
M  V30 5473 H 525.386 -0.271626 1.56358 0
M  V30 5474 H 525.407 -2.79496 2.5819 0
M  V30 5475 H 524.919 -1.31621 3.65099 0
M  V30 5476 H 523.02 -3.14535 1.99745 0
M  V30 5477 H 523.133 -2.84193 3.85709 0
M  V30 5478 H 521.497 -1.58764 1.99163 0
M  V30 5479 H 522.28 -0.644993 3.37186 0
M  V30 5480 N 524.725 -1.39134 -0.740242 0
M  V30 5481 C 525.657 -1.33332 -1.86428 0
M  V30 5482 C 526.67 -0.243042 -1.60976 0
M  V30 5483 O 527.859 -0.501608 -1.71307 0
M  V30 5484 C 524.959 -1.04626 -3.22346 0
M  V30 5485 C 524.132 -2.24826 -3.75196 0
M  V30 5486 C 523.191 -1.92659 -4.89662 0
M  V30 5487 O 522.217 -2.6529 -5.03597 0
M  V30 5488 N 523.419 -0.889575 -5.73643 0
M  V30 5489 H 526.184 -2.30196 -1.91911 0
M  V30 5490 H 523.745 -1.33168 -0.920756 0
M  V30 5491 H 525.737 -0.811347 -3.96484 0
M  V30 5492 H 524.307 -0.165129 -3.12164 0
M  V30 5493 H 523.527 -2.64301 -2.9247 0
M  V30 5494 H 524.815 -3.05015 -4.07239 0
M  V30 5495 H 524.213 -0.287529 -5.64969 0
M  V30 5496 H 522.77 -0.714557 -6.47871 0
M  V30 5497 N 526.204 0.969867 -1.24223 0
M  V30 5498 C 527.481 1.68774 -0.988664 0
M  V30 5499 C 527.861 2.05342 0.489673 0
M  V30 5500 O 527.209 1.75486 1.46345 0
M  V30 5501 C 527.419 2.92135 -1.90941 0
M  V30 5502 C 528.767 3.64422 -2.17903 0
M  V30 5503 O 529.791 3.02188 -1.88576 0
M  V30 5504 O 528.65 4.76446 -2.67697 0
M  V30 5505 H 525.744 0.737736 -0.37373 0
M  V30 5506 H 528.29 1.02415 -1.35312 0
M  V30 5507 H 527.062 2.61788 -2.90831 0
M  V30 5508 H 526.685 3.66228 -1.54798 0
M  V30 5509 N 527.682 1.05563 1.17022 0
M  V30 5510 C 528.922 0.777033 1.89054 0
M  V30 5511 C 529.286 -0.683617 1.79418 0
M  V30 5512 O 530.487 -1.07648 2.46303 0
M  V30 5513 C 528.758 1.24886 3.34871 0
M  V30 5514 S 530.317 1.0982 4.24835 0
M  V30 5515 H 527.135 0.282082 0.652649 0
M  V30 5516 H 529.737 1.35103 1.41306 0
M  V30 5517 H 528.441 2.30699 3.3942 0
M  V30 5518 H 527.972 0.669292 3.87665 0
M  V30 5519 H 529.987 0.02462 4.96194 0
M  V30 5520 N 529.16 -1.33526 0.837174 0
M  V30 5521 C 530.39 -2.01754 0.444848 0
M  V30 5522 C 530.798 -1.63149 -0.958072 0
M  V30 5523 O 530.141 -0.839827 -1.63379 0
M  V30 5524 C 530.203 -3.56228 0.483917 0
M  V30 5525 C 529.867 -4.18205 1.84265 0
M  V30 5526 C 530.864 -4.37699 2.80563 0
M  V30 5527 C 528.549 -4.54667 2.13503 0
M  V30 5528 C 530.543 -4.928 4.04261 0
M  V30 5529 C 528.23 -5.09475 3.37458 0
M  V30 5530 C 529.228 -5.28488 4.32654 0
M  V30 5531 O 528.916 -5.82132 5.54417 0
M  V30 5532 H 528.648 -0.652928 0.175104 0
M  V30 5533 H 531.202 -1.71469 1.13082 0
M  V30 5534 H 529.432 -3.85833 -0.258826 0
M  V30 5535 H 531.121 -4.05752 0.109653 0
M  V30 5536 H 531.887 -4.0988 2.59274 0
M  V30 5537 H 527.766 -4.39164 1.40201 0
M  V30 5538 H 531.31 -5.07555 4.78574 0
M  V30 5539 H 527.207 -5.36725 3.58604 0
M  V30 5540 H 527.975 -6.00548 5.56133 0
M  V30 5541 N 530.638 -0.59345 -1.46 0
M  V30 5542 C 531.588 0.154751 -2.27474 0
M  V30 5543 C 532.572 0.851849 -1.365 0
M  V30 5544 O 533.764 0.744171 -1.60596 0
M  V30 5545 C 530.893 1.16079 -3.2308 0
M  V30 5546 C 529.979 0.465256 -4.2154 0
M  V30 5547 N 530.37 -0.485197 -5.03467 0
M  V30 5548 C 528.668 0.714634 -4.40237 0
M  V30 5549 C 529.369 -0.892709 -5.74809 0
M  V30 5550 N 528.345 -0.239511 -5.43072 0
M  V30 5551 H 532.147 -0.57546 -2.88211 0
M  V30 5552 H 529.661 -0.416046 -1.5698 0
M  V30 5553 H 531.658 1.71108 -3.80168 0
M  V30 5554 H 530.318 1.89171 -2.63903 0
M  V30 5555 H 531.329 -0.861258 -5.10689 0
M  V30 5556 H 528.006 1.43131 -3.92199 0
M  V30 5557 H 529.396 -1.67581 -6.50666 0
M  V30 5558 N 532.116 1.54067 -0.331816 0
M  V30 5559 C 533.364 2.00319 0.267739 0
M  V30 5560 C 533.685 1.22148 1.52003 0
M  V30 5561 O 532.955 0.325494 1.93177 0
M  V30 5562 H 531.535 0.740014 0.101922 0
M  V30 5563 H 534.197 1.89628 -0.450267 0
M  V30 5564 H 533.293 3.07765 0.518385 0
M  V30 5565 N 533.594 0.0601682 1.57485 0
M  V30 5566 C 534.542 -0.928899 2.13247 0
M  V30 5567 C 535.536 -1.31616 1.06647 0
M  V30 5568 O 536.742 -1.29476 1.25043 0
M  V30 5569 H 533.117 -0.317455 0.681708 0
M  V30 5570 H 535.088 -0.433566 2.95233 0
M  V30 5571 C 533.837 -2.19121 2.69965 0
M  V30 5572 H 533.16 -1.90204 3.51657 0
M  V30 5573 H 534.6 -2.86465 3.12592 0
M  V30 5574 C 533.059 -2.94195 1.64168 0
M  V30 5575 O 533.589 -3.87468 1.05978 0
M  V30 5576 N 531.795 -2.57089 1.35476 0
M  V30 5577 H 531.342 -1.81314 1.82984 0
M  V30 5578 H 531.3 -3.07624 0.649196 0
M  V30 5579 N 535.072 -1.5615 -0.213296 0
M  V30 5580 C 536.32 -1.79191 -0.934612 0
M  V30 5581 C 536.641 -0.630112 -1.84539 0
M  V30 5582 O 535.911 0.35257 -1.92701 0
M  V30 5583 H 534.491 -0.660937 -0.348097 0
M  V30 5584 H 537.153 -1.93618 -0.22317 0
M  V30 5585 H 536.249 -2.71656 -1.53654 0
M  V30 5586 N 536.55 0.480323 -1.50102 0
M  V30 5587 C 537.482 1.59669 -1.64433 0
M  V30 5588 C 538.495 1.54063 -0.52615 0
M  V30 5589 O 539.684 1.59619 -0.798992 0
M  V30 5590 C 536.784 2.98527 -1.6042 0
M  V30 5591 C 535.957 3.291 -2.88117 0
M  V30 5592 C 535.016 4.47468 -2.76873 0
M  V30 5593 O 534.042 4.4823 -3.50825 0
M  V30 5594 N 535.244 5.48593 -1.89806 0
M  V30 5595 H 538.009 1.47795 -2.60723 0
M  V30 5596 H 535.57 0.66858 -1.4745 0
M  V30 5597 H 537.562 3.75666 -1.50523 0
M  V30 5598 H 536.132 3.04218 -0.719036 0
M  V30 5599 H 535.352 2.40662 -3.12211 0
M  V30 5600 H 536.64 3.46334 -3.72734 0
M  V30 5601 H 536.038 5.50791 -1.2902 0
M  V30 5602 H 534.595 6.24752 -1.85819 0
M  V30 5603 N 538.028 1.39524 0.732853 0
M  V30 5604 C 539.253 1.40329 1.52717 0
M  V30 5605 C 539.678 0.000286574 1.881 0
M  V30 5606 O 539.036 -0.987262 1.52062 0
M  V30 5607 C 539.084 2.28464 2.78992 0
M  V30 5608 O 538.188 1.716 3.75003 0
M  V30 5609 H 537.529 0.47778 0.461109 0
M  V30 5610 H 540.059 1.83546 0.903996 0
M  V30 5611 H 540.069 2.43051 3.27705 0
M  V30 5612 H 538.744 3.30425 2.52572 0
M  V30 5613 H 537.321 1.66267 3.33781 0
M  V30 5614 N 539.506 -0.963266 1.24736 0
M  V30 5615 C 540.736 -1.73913 1.11524 0
M  V30 5616 C 541.144 -1.86218 -0.334612 0
M  V30 5617 O 540.487 -1.3531 -1.24245 0
M  V30 5618 C 540.549 -3.17501 1.68622 0
M  V30 5619 C 540.213 -3.28655 3.17546 0
M  V30 5620 C 541.21 -3.13637 4.14642 0
M  V30 5621 C 538.895 -3.52753 3.5759 0
M  V30 5622 C 540.889 -3.2255 5.49764 0
M  V30 5623 C 538.576 -3.61303 4.92852 0
M  V30 5624 C 539.574 -3.46214 5.88748 0
M  V30 5625 O 539.262 -3.5443 7.2155 0
M  V30 5626 H 538.994 -0.552057 0.390139 0
M  V30 5627 H 541.548 -1.2177 1.65412 0
M  V30 5628 H 539.778 -3.70969 1.09172 0
M  V30 5629 H 541.467 -3.76914 1.50635 0
M  V30 5630 H 542.233 -2.94899 3.85045 0
M  V30 5631 H 538.112 -3.63561 2.83451 0
M  V30 5632 H 541.656 -3.1069 6.24594 0
M  V30 5633 H 537.553 -3.79556 5.22118 0
M  V30 5634 H 538.321 -3.71116 7.29531 0
M  V30 5635 N 540.985 -1.06182 -1.16461 0
M  V30 5636 C 542.401 -0.785065 -1.38956 0
M  V30 5637 C 542.601 0.616103 -1.9185 0
M  V30 5638 O 541.657 1.37686 -2.11657 0
M  V30 5639 C 542.97 -1.84902 -2.37132 0
M  V30 5640 C 544.518 -1.8724 -2.50819 0
M  V30 5641 C 544.993 -2.92686 -3.52277 0
M  V30 5642 N 546.484 -2.91712 -3.59803 0
M  V30 5643 C 547.219 -3.69949 -4.38093 0
M  V30 5644 N 546.715 -4.58 -5.19815 0
M  V30 5645 N 548.508 -3.58346 -4.33064 0
M  V30 5646 H 540.659 -1.96569 -0.804634 0
M  V30 5647 H 542.922 -0.851747 -0.416211 0
M  V30 5648 H 542.628 -2.85518 -2.0536 0
M  V30 5649 H 542.502 -1.69908 -3.36766 0
M  V30 5650 H 544.889 -0.872827 -2.81897 0
M  V30 5651 H 544.97 -2.06311 -1.51226 0
M  V30 5652 H 544.614 -3.92835 -3.21937 0
M  V30 5653 H 544.544 -2.70864 -4.51598 0
M  V30 5654 H 547.035 -2.27876 -3.01464 0
M  V30 5655 H 547.348 -5.14357 -5.76764 0
M  V30 5656 H 545.693 -4.62056 -5.19162 0
M  V30 5657 H 548.884 -2.88943 -3.68279 0
M  V30 5658 H 549.057 -4.19563 -4.93833 0
M  V30 5659 N 542.463 1.3308 -0.844243 0
M  V30 5660 C 543.711 1.97215 -0.441676 0
M  V30 5661 C 544.032 1.67185 1.0037 0
M  V30 5662 O 543.302 0.973588 1.69994 0
M  V30 5663 H 541.882 0.72959 -0.160335 0
M  V30 5664 H 544.544 1.62348 -1.07838 0
M  V30 5665 H 543.64 3.06698 -0.57815 0
M  V30 5666 N 543.941 0.601185 1.45683 0
M  V30 5667 C 545.169 0.100054 2.06658 0
M  V30 5668 C 545.584 -1.21285 1.44691 0
M  V30 5669 O 544.941 -1.73735 0.558772 0
M  V30 5670 C 544.992 -0.0528579 3.61461 0
M  V30 5671 O 544.713 1.20809 4.21114 0
M  V30 5672 C 546.214 -0.586193 4.39407 0
M  V30 5673 H 543.434 0.065905 0.667756 0
M  V30 5674 H 545.978 0.827101 1.87028 0
M  V30 5675 H 544.133 -0.730203 3.80456 0
M  V30 5676 H 544.547 1.03368 5.14213 0
M  V30 5677 H 546.021 -0.642297 5.4825 0
M  V30 5678 H 546.498 -1.60713 4.0874 0
M  V30 5679 H 547.104 0.0568935 4.25262 0
M  V30 5680 N 545.419 -1.53889 0.339982 0
M  V30 5681 C 546.644 -2.05741 -0.261798 0
M  V30 5682 C 547.069 -1.21354 -1.43718 0
M  V30 5683 O 546.427 -0.22645 -1.7988 0
M  V30 5684 C 546.475 -3.54542 -0.658228 0
M  V30 5685 O 545.579 -3.7302 -1.75869 0
M  V30 5686 H 544.92 -0.662529 -0.0441672 0
M  V30 5687 H 547.45 -1.98568 0.493161 0
M  V30 5688 H 547.46 -3.9711 -0.936368 0
M  V30 5689 H 546.135 -4.15412 0.201358 0
M  V30 5690 H 544.712 -3.42355 -1.47809 0
M  V30 5691 N 546.897 -0.0685191 -1.57451 0
M  V30 5692 C 548.122 0.613919 -1.98106 0
M  V30 5693 C 548.547 1.62551 -0.946501 0
M  V30 5694 O 547.905 1.81085 0.0882824 0
M  V30 5695 C 547.953 1.26189 -3.378 0
M  V30 5696 O 547.057 2.37773 -3.36954 0
M  V30 5697 H 546.398 0.158163 -0.644888 0
M  V30 5698 H 548.928 -0.142063 -2.04106 0
M  V30 5699 H 548.938 1.60951 -3.74912 0
M  V30 5700 H 547.613 0.520625 -4.12629 0
M  V30 5701 H 546.19 2.04829 -3.11608 0
M  V30 5702 N 548.375 1.56261 0.205012 0
M  V30 5703 C 549.603 1.84141 0.943386 0
M  V30 5704 C 550.018 0.649772 1.77266 0
M  V30 5705 O 549.375 -0.381612 1.78466 0
M  V30 5706 C 549.426 3.10719 1.84759 0
M  V30 5707 O 549.147 4.25286 1.05181 0
M  V30 5708 C 550.648 3.51706 2.69848 0
M  V30 5709 H 547.868 0.611734 0.275721 0
M  V30 5710 H 550.412 2.03364 0.215253 0
M  V30 5711 H 548.567 2.93422 2.52947 0
M  V30 5712 H 548.981 4.97301 1.66709 0
M  V30 5713 H 550.455 4.43266 3.28967 0
M  V30 5714 H 550.932 2.7423 3.43067 0
M  V30 5715 H 551.538 3.71499 2.07047 0
M  V30 5716 N 549.853 -0.472356 1.50355 0
M  V30 5717 C 551.081 -1.24784 1.65035 0
M  V30 5718 C 551.496 -1.85837 0.333176 0
M  V30 5719 O 550.853 -1.69168 -0.68472 0
M  V30 5720 C 550.904 -2.35747 2.74054 0
M  V30 5721 O 550.625 -1.77197 4.00665 0
M  V30 5722 C 552.126 -3.26645 2.99696 0
M  V30 5723 H 549.346 -0.377432 0.554785 0
M  V30 5724 H 551.89 -0.563962 1.9657 0
M  V30 5725 H 550.045 -2.99912 2.45217 0
M  V30 5726 H 550.459 -2.5026 4.60945 0
M  V30 5727 H 551.933 -4.00718 3.79644 0
M  V30 5728 H 552.41 -3.8535 2.10718 0
M  V30 5729 H 553.016 -2.68218 3.3006 0
M  V30 5730 N 551.331 -1.39911 -0.725443 0
M  V30 5731 C 552.58 -1.36963 -1.48068 0
M  V30 5732 C 552.893 0.0284478 -1.95579 0
M  V30 5733 O 554.099 0.180535 -2.70899 0
M  V30 5734 C 552.555 -2.40664 -2.67598 0
M  V30 5735 C 552.163 -3.86234 -2.26997 0
M  V30 5736 C 553.907 -2.46807 -3.45379 0
M  V30 5737 C 551.814 -4.81554 -3.43307 0
M  V30 5738 H 550.744 -0.509223 -0.556065 0
M  V30 5739 H 553.395 -1.65602 -0.790454 0
M  V30 5740 H 551.777 -2.05109 -3.38742 0
M  V30 5741 H 552.951 -4.3088 -1.63337 0
M  V30 5742 H 551.266 -3.83475 -1.62284 0
M  V30 5743 H 553.863 -3.15213 -4.31909 0
M  V30 5744 H 554.206 -1.49552 -3.8851 0
M  V30 5745 H 554.739 -2.81303 -2.81271 0
M  V30 5746 H 551.478 -5.80106 -3.05217 0
M  V30 5747 H 550.998 -4.4158 -4.05915 0
M  V30 5748 H 552.677 -5.0091 -4.0951 0
M  V30 5749 N 552.809 0.956637 -1.25245 0
M  V30 5750 C 554.037 1.73571 -1.12608 0
M  V30 5751 C 554.452 1.86063 0.320324 0
M  V30 5752 O 553.809 1.35691 1.22042 0
M  V30 5753 C 553.86 3.15053 -1.77268 0
M  V30 5754 O 553.581 3.03174 -3.16255 0
M  V30 5755 C 555.082 4.09248 -1.70386 0
M  V30 5756 H 552.302 0.543955 -0.392879 0
M  V30 5757 H 554.846 1.20031 -1.65568 0
M  V30 5758 H 553.001 3.65543 -1.28284 0
M  V30 5759 H 553.415 3.9241 -3.48015 0
M  V30 5760 H 554.889 5.06138 -2.20291 0
M  V30 5761 H 555.366 4.34102 -0.667239 0
M  V30 5762 H 555.972 3.64672 -2.18849 0
M  V30 5763 N 554.287 1.06798 1.15896 0
M  V30 5764 C 555.535 0.786211 1.8618 0
M  V30 5765 C 555.856 -0.689547 1.82401 0
M  V30 5766 O 555.126 -1.49913 1.26107 0
M  V30 5767 H 553.706 0.287843 0.689315 0
M  V30 5768 H 556.368 1.35055 1.40521 0
M  V30 5769 H 555.464 1.1157 2.91477 0
M  V30 5770 N 555.766 -1.3263 0.851289 0
M  V30 5771 C 557.182 -1.50162 0.5407 0
M  V30 5772 C 557.382 -1.78788 -0.929369 0
M  V30 5773 O 556.438 -1.85545 -1.71258 0
M  V30 5774 C 557.751 -2.64803 1.42478 0
M  V30 5775 C 559.299 -2.78688 1.42485 0
M  V30 5776 C 559.774 -3.96405 2.29407 0
M  V30 5777 N 561.265 -4.0366 2.27184 0
M  V30 5778 C 562 -4.93971 2.9117 0
M  V30 5779 N 561.496 -5.89313 3.64256 0
M  V30 5780 N 563.289 -4.87066 2.80576 0
M  V30 5781 H 555.44 -1.12315 1.80275 0
M  V30 5782 H 557.703 -0.553266 0.769806 0
M  V30 5783 H 557.409 -2.50368 2.46999 0
M  V30 5784 H 557.283 -3.60506 1.10974 0
M  V30 5785 H 559.67 -2.92547 0.387304 0
M  V30 5786 H 559.751 -1.83708 1.78002 0
M  V30 5787 H 559.395 -3.83304 3.33228 0
M  V30 5788 H 559.325 -4.90654 1.91224 0
M  V30 5789 H 561.816 -3.35435 1.74045 0
M  V30 5790 H 562.129 -6.54913 4.10255 0
M  V30 5791 H 560.474 -5.8935 3.68364 0
M  V30 5792 H 563.665 -4.11552 2.23031 0
M  V30 5793 H 563.838 -5.57248 3.30725 0
M  V30 5794 N 557.244 -0.608902 -1.45362 0
M  V30 5795 C 558.191 0.109172 -2.30542 0
M  V30 5796 C 559.161 0.858704 -1.42181 0
M  V30 5797 O 560.346 0.844178 -1.71109 0
M  V30 5798 C 557.486 1.09971 -3.27109 0
M  V30 5799 C 556.599 0.350911 -4.30572 0
M  V30 5800 C 555.734 1.33129 -5.14247 0
M  V30 5801 C 554.773 0.570377 -6.09437 0
M  V30 5802 N 553.91 1.5001 -6.85887 0
M  V30 5803 H 558.75 -0.623195 -2.91411 0
M  V30 5804 H 556.287 -0.319122 -1.43597 0
M  V30 5805 H 558.245 1.68714 -3.81564 0
M  V30 5806 H 556.875 1.79947 -2.67991 0
M  V30 5807 H 555.927 -0.352054 -3.78767 0
M  V30 5808 H 557.239 -0.242725 -4.98209 0
M  V30 5809 H 556.393 1.99074 -5.73109 0
M  V30 5810 H 555.132 1.95885 -4.46632 0
M  V30 5811 H 554.137 -0.102702 -5.49704 0
M  V30 5812 H 555.362 -0.0521607 -6.7908 0
M  V30 5813 H 553.308 2.11529 -6.2096 0
M  V30 5814 H 553.225 0.959934 -7.49881 0
M  V30 5815 H 554.493 2.14909 -7.49289 0
M  V30 5816 N 558.722 1.53707 -0.348139 0
M  V30 5817 C 559.962 2.02899 0.247254 0
M  V30 5818 C 560.326 1.23033 1.47401 0
M  V30 5819 O 561.527 1.62146 2.14388 0
M  V30 5820 C 559.798 3.53156 0.549151 0
M  V30 5821 S 561.357 4.24247 1.1207 0
M  V30 5822 H 558.175 0.707213 0.0732894 0
M  V30 5823 H 560.777 1.89338 -0.486965 0
M  V30 5824 H 559.481 4.08893 -0.351435 0
M  V30 5825 H 559.012 3.70845 1.31291 0
M  V30 5826 H 561.027 4.33958 2.40613 0
M  V30 5827 N 560.2 0.0768682 1.57412 0
M  V30 5828 C 561.132 -0.918248 2.10002 0
M  V30 5829 C 562.145 -1.25808 1.03325 0
M  V30 5830 O 563.334 -1.21438 1.30824 0
M  V30 5831 C 560.434 -2.23263 2.54964 0
M  V30 5832 C 559.607 -2.07088 3.8527 0
M  V30 5833 C 558.666 -3.21876 4.16272 0
M  V30 5834 O 557.692 -2.96643 4.8579 0
M  V30 5835 N 558.894 -4.4712 3.70221 0
M  V30 5836 H 561.659 -0.469209 2.96004 0
M  V30 5837 H 559.22 -0.108725 1.61535 0
M  V30 5838 H 561.212 -2.9897 2.72762 0
M  V30 5839 H 559.782 -2.59649 1.74072 0
M  V30 5840 H 559.002 -1.15818 3.76802 0
M  V30 5841 H 560.29 -1.93537 4.70554 0
M  V30 5842 H 559.688 -4.70506 3.1407 0
M  V30 5843 H 558.245 -5.19837 3.93209 0
M  V30 5844 N 561.678 -1.56367 -0.196722 0
M  V30 5845 C 562.903 -1.84991 -0.937714 0
M  V30 5846 C 563.328 -0.660244 -1.76132 0
M  V30 5847 O 562.686 0.390967 -1.77034 0
M  V30 5848 C 562.734 -3.11828 -1.81096 0
M  V30 5849 O 561.838 -2.92266 -2.90955 0
M  V30 5850 H 561.179 -0.609193 -0.264159 0
M  V30 5851 H 563.709 -2.03595 -0.202529 0
M  V30 5852 H 563.719 -3.42579 -2.21594 0
M  V30 5853 H 562.394 -3.98037 -1.2058 0
M  V30 5854 H 560.971 -2.72809 -2.54224 0
M  V30 5855 N 563.156 0.464375 -1.50603 0
M  V30 5856 C 564.402 1.21485 -1.63135 0
M  V30 5857 C 564.757 1.89538 -0.33063 0
M  V30 5858 O 564.05 1.79432 0.671903 0
M  V30 5859 C 564.244 2.278 -2.75394 0
M  V30 5860 C 564.073 1.70178 -4.16257 0
M  V30 5861 C 562.843 1.49854 -4.82568 0
M  V30 5862 C 565.041 1.19298 -5.00272 0
M  V30 5863 N 563.023 0.875458 -6.07626 0
M  V30 5864 C 564.394 0.693527 -6.16109 0
M  V30 5865 C 566.449 1.08216 -4.85998 0
M  V30 5866 C 565.152 0.0941808 -7.19238 0
M  V30 5867 C 567.178 0.496745 -5.8931 0
M  V30 5868 C 566.54 0.00770448 -7.044 0
M  V30 5869 H 562.639 0.433184 -0.651057 0
M  V30 5870 H 565.223 0.515748 -1.87745 0
M  V30 5871 H 563.394 2.95129 -2.52495 0
M  V30 5872 H 565.126 2.94814 -2.77249 0
M  V30 5873 H 561.881 1.75269 -4.39975 0
M  V30 5874 H 562.305 0.582135 -6.74493 0
M  V30 5875 H 566.947 1.44617 -3.97298 0
M  V30 5876 H 564.665 -0.28202 -8.07608 0
M  V30 5877 H 568.251 0.413275 -5.8033 0
M  V30 5878 H 567.131 -0.438188 -7.82975 0
M  V30 5879 N 564.634 1.40294 0.718013 0
M  V30 5880 C 565.859 1.41941 1.5122 0
M  V30 5881 C 566.284 0.0202371 1.88089 0
M  V30 5882 O 565.642 -0.971078 1.53101 0
M  V30 5883 C 565.69 2.3141 2.76554 0
M  V30 5884 O 564.794 1.75567 3.73162 0
M  V30 5885 H 564.135 0.482644 0.456016 0
M  V30 5886 H 566.665 1.84494 0.884478 0
M  V30 5887 H 566.675 2.46513 3.25108 0
M  V30 5888 H 565.35 3.33085 2.49053 0
M  V30 5889 H 563.927 1.69798 3.31999 0
M  V30 5890 N 566.112 -0.949982 1.2575 0
M  V30 5891 C 567.337 -1.73503 1.13628 0
M  V30 5892 C 567.762 -1.85601 -0.30559 0
M  V30 5893 O 567.12 -1.33984 -1.22139 0
M  V30 5894 C 567.168 -3.1243 1.80055 0
M  V30 5895 O 566.272 -3.97916 1.08336 0
M  V30 5896 H 565.613 -0.532665 0.396439 0
M  V30 5897 H 568.143 -1.19043 1.66403 0
M  V30 5898 H 568.153 -3.62866 1.86527 0
M  V30 5899 H 566.828 -3.02941 2.84956 0
M  V30 5900 H 565.405 -3.56375 1.09777 0
M  V30 5901 N 567.59 -1.07411 -1.15328 0
M  V30 5902 C 568.523 -0.63913 -2.19067 0
M  V30 5903 C 569.501 0.343929 -1.58921 0
M  V30 5904 O 570.685 0.250207 -1.86832 0
M  V30 5905 C 567.812 0.0613977 -3.38644 0
M  V30 5906 C 566.858 -0.880201 -4.17318 0
M  V30 5907 S 567.691 -2.38152 -4.79629 0
M  V30 5908 C 568.847 -1.69281 -6.02573 0
M  V30 5909 H 569.08 -1.51799 -2.55626 0
M  V30 5910 H 566.613 -0.888138 -1.26299 0
M  V30 5911 H 568.571 0.459323 -4.07922 0
M  V30 5912 H 567.232 0.916605 -3.00428 0
M  V30 5913 H 566.425 -0.336781 -5.02874 0
M  V30 5914 H 566.027 -1.21854 -3.53592 0
M  V30 5915 H 568.319 -1.00488 -6.70006 0
M  V30 5916 H 569.262 -2.52671 -6.61485 0
M  V30 5917 H 569.67 -1.17053 -5.52231 0
M  V30 5918 N 569.068 1.32177 -0.85831 0
M  V30 5919 C 570.296 2.01313 -0.477582 0
M  V30 5920 C 570.711 1.6449 0.926736 0
M  V30 5921 O 570.068 0.868096 1.60531 0
M  V30 5922 C 570.119 3.56293 -0.611337 0
M  V30 5923 O 569.84 3.91794 -1.96034 0
M  V30 5924 C 571.341 4.42702 -0.230093 0
M  V30 5925 H 568.561 0.644323 -0.187322 0
M  V30 5926 H 571.105 1.68674 -1.15626 0
M  V30 5927 H 569.26 3.87395 0.0196494 0
M  V30 5928 H 569.674 4.86513 -1.95973 0
M  V30 5929 H 571.148 5.50727 -0.374674 0
M  V30 5930 H 571.625 4.3129 0.829779 0
M  V30 5931 H 572.231 4.16997 -0.836302 0
M  V30 5932 N 570.547 0.616602 1.45037 0
M  V30 5933 C 571.958 0.199359 1.85633 0
M  V30 5934 C 572.309 -1.24588 1.51566 0
M  V30 5935 O 571.434 -1.94594 0.94668 0
M  V30 5936 C 572.029 0.355033 3.36935 0
M  V30 5937 C 570.588 -0.00758748 3.76399 0
M  V30 5938 C 569.735 0.675256 2.68953 0
M  V30 5939 H 572.686 0.822708 1.3571 0
M  V30 5940 H 572.707 -0.410201 3.78282 0
M  V30 5941 H 572.219 1.40699 3.61698 0
M  V30 5942 H 570.32 -1.05837 3.57252 0
M  V30 5943 H 570.433 0.392346 4.77491 0
M  V30 5944 H 568.797 0.111992 2.54454 0
M  V30 5945 H 569.58 1.72952 2.96551 0
M  V30 5946 N 572.025 -1.5352 0.356285 0
M  V30 5947 C 572.975 -2.22204 -0.510815 0
M  V30 5948 C 573.959 -1.21393 -1.05605 0
M  V30 5949 O 575.151 -1.46883 -0.987639 0
M  V30 5950 C 572.28 -3.00786 -1.65478 0
M  V30 5951 C 571.366 -4.08965 -1.12287 0
M  V30 5952 N 571.757 -5.04829 -0.313191 0
M  V30 5953 C 570.055 -4.23505 -1.39856 0
M  V30 5954 C 570.756 -5.81695 -0.0230322 0
M  V30 5955 N 569.732 -5.40074 -0.618144 0
M  V30 5956 H 573.534 -2.93676 0.114711 0
M  V30 5957 H 571.048 -1.61572 0.163811 0
M  V30 5958 H 573.045 -3.48502 -2.28806 0
M  V30 5959 H 571.705 -2.30843 -2.28345 0
M  V30 5960 H 572.716 -5.17879 0.0468202 0
M  V30 5961 H 569.393 -3.64786 -2.0307 0
M  V30 5962 H 570.783 -6.68931 0.630927 0
M  V30 5963 N 573.503 -0.0852151 -1.57369 0
M  V30 5964 C 574.919 0.271436 -1.57275 0
M  V30 5965 C 575.119 1.69109 -1.09565 0
M  V30 5966 O 574.175 2.40549 -0.767611 0
M  V30 5967 C 575.488 0.0688638 -3.00621 0
M  V30 5968 C 577.036 0.137373 -3.12698 0
M  V30 5969 C 577.511 -0.0370832 -4.57985 0
M  V30 5970 N 579.002 0.0180794 -4.63196 0
M  V30 5971 C 579.737 -0.0922953 -5.73326 0
M  V30 5972 N 579.233 -0.256948 -6.92323 0
M  V30 5973 N 581.026 -0.0342702 -5.6209 0
M  V30 5974 H 573.177 -1.01288 -1.86693 0
M  V30 5975 H 575.44 -0.396138 -0.861266 0
M  V30 5976 H 575.146 -0.911277 -3.39689 0
M  V30 5977 H 575.02 0.815442 -3.6828 0
M  V30 5978 H 577.407 1.10801 -2.73509 0
M  V30 5979 H 577.488 -0.640532 -2.47651 0
M  V30 5980 H 577.132 -1.00455 -4.97867 0
M  V30 5981 H 577.062 0.760392 -5.21081 0
M  V30 5982 H 579.553 0.143202 -3.77629 0
M  V30 5983 H 579.866 -0.332949 -7.72082 0
M  V30 5984 H 578.211 -0.292487 -6.94384 0
M  V30 5985 H 581.402 0.0931605 -4.68007 0
M  V30 5986 H 581.575 -0.12374 -6.47882 0
M  V30 5987 N 574.981 1.5647 0.188427 0
M  V30 5988 C 575.931 1.91479 1.23774 0
M  V30 5989 C 576.915 0.78119 1.40664 0
M  V30 5990 O 578.107 1.04414 1.42922 0
M  V30 5991 C 575.236 2.26354 2.58106 0
M  V30 5992 C 574.322 3.46186 2.44981 0
M  V30 5993 N 574.713 4.63911 2.01546 0
M  V30 5994 C 573.011 3.50456 2.75856 0
M  V30 5995 C 573.712 5.46064 2.00472 0
M  V30 5996 N 572.688 4.86648 2.42229 0
M  V30 5997 H 576.49 2.79994 0.893339 0
M  V30 5998 H 574.004 1.57477 0.39682 0
M  V30 5999 H 576.001 2.49622 3.33908 0
M  V30 6000 H 574.661 1.39168 2.93364 0
M  V30 6001 H 575.672 4.88451 1.7215 0
M  V30 6002 H 572.349 2.73704 3.15265 0
M  V30 6003 H 573.739 6.50368 1.68734 0
M  V30 6004 N 576.459 -0.456382 1.50847 0
M  V30 6005 C 577.389 -1.56025 1.73719 0
M  V30 6006 C 578.37 -1.5967 0.586473 0
M  V30 6007 O 579.555 -1.75702 0.827185 0
M  V30 6008 C 576.685 -2.94251 1.84483 0
M  V30 6009 C 575.639 -3.05471 2.99786 0
M  V30 6010 C 574.965 -4.45489 2.95709 0
M  V30 6011 C 576.265 -2.81318 4.40065 0
M  V30 6012 H 577.959 -1.37138 2.66146 0
M  V30 6013 H 575.505 -0.658299 1.28072 0
M  V30 6014 H 577.458 -3.71417 1.99067 0
M  V30 6015 H 576.182 -3.14328 0.886891 0
M  V30 6016 H 574.841 -2.30741 2.84876 0
M  V30 6017 H 574.489 -4.62505 1.97732 0
M  V30 6018 H 574.189 -4.53929 3.73125 0
M  V30 6019 H 575.713 -5.24655 3.12362 0
M  V30 6020 H 577.127 -3.48226 4.55425 0
M  V30 6021 H 575.524 -3.01188 5.19043 0
M  V30 6022 H 576.594 -1.7706 4.51418 0
M  V30 6023 N 577.937 -1.40673 -0.710563 0
M  V30 6024 C 578.884 -1.41336 -1.82463 0
M  V30 6025 C 579.854 -0.269648 -1.63897 0
M  V30 6026 O 581.039 -0.468463 -1.8496 0
M  V30 6027 C 578.179 -1.28665 -3.20218 0
M  V30 6028 C 577.292 -2.52784 -3.5032 0
M  V30 6029 C 576.427 -2.32517 -4.77608 0
M  V30 6030 C 575.466 -3.52187 -5.0063 0
M  V30 6031 N 574.603 -3.31084 -6.19135 0
M  V30 6032 H 579.443 -2.36558 -1.8123 0
M  V30 6033 H 576.98 -1.17483 -0.885226 0
M  V30 6034 H 578.938 -1.19324 -3.99772 0
M  V30 6035 H 577.568 -0.370602 -3.20666 0
M  V30 6036 H 576.62 -2.72634 -2.65283 0
M  V30 6037 H 577.932 -3.41845 -3.63241 0
M  V30 6038 H 577.086 -2.20558 -5.65189 0
M  V30 6039 H 575.825 -1.40889 -4.66906 0
M  V30 6040 H 574.83 -3.64617 -4.11502 0
M  V30 6041 H 576.055 -4.44749 -5.13201 0
M  V30 6042 H 574.001 -2.42143 -6.09674 0
M  V30 6043 H 573.918 -4.13713 -6.32754 0
M  V30 6044 H 575.186 -3.22868 -7.0949 0
M  V30 6045 N 579.415 0.9433 -1.26252 0
M  V30 6046 C 580.643 1.72367 -1.14443 0
M  V30 6047 C 581.058 1.86392 0.300572 0
M  V30 6048 O 580.415 1.36978 1.20596 0
M  V30 6049 C 580.466 3.13155 -1.806 0
M  V30 6050 O 580.187 2.99803 -3.19452 0
M  V30 6051 C 581.688 4.07417 -1.74717 0
M  V30 6052 H 578.908 0.539758 -0.398626 0
M  V30 6053 H 581.452 1.18268 -1.66832 0
M  V30 6054 H 579.607 3.64162 -1.32154 0
M  V30 6055 H 580.021 3.88697 -3.52158 0
M  V30 6056 H 581.495 5.03773 -2.25647 0
M  V30 6057 H 581.972 4.3337 -0.713244 0
M  V30 6058 H 582.578 3.6233 -2.22704 0
M  V30 6059 N 580.893 1.08022 1.14757 0
M  V30 6060 C 582.304 0.829144 1.67279 0
M  V30 6061 C 582.655 -0.644721 1.85305 0
M  V30 6062 O 581.78 -1.49838 1.56133 0
M  V30 6063 C 582.375 1.49855 3.03857 0
M  V30 6064 C 580.934 1.29482 3.53428 0
M  V30 6065 C 580.081 1.56386 2.28995 0
M  V30 6066 H 583.032 1.24134 0.988762 0
M  V30 6067 H 583.053 0.923572 3.69121 0
M  V30 6068 H 582.565 2.57123 2.90705 0
M  V30 6069 H 580.666 0.242669 3.71809 0
M  V30 6070 H 580.779 2.01974 4.34446 0
M  V30 6071 H 579.143 0.985217 2.34874 0
M  V30 6072 H 579.926 2.64851 2.18423 0
M  V30 6073 N 582.371 -1.3172 0.865308 0
M  V30 6074 C 583.281 -2.32394 0.320935 0
M  V30 6075 C 584.297 -1.64511 -0.566746 0
M  V30 6076 O 585.473 -1.95969 -0.464575 0
M  V30 6077 C 582.538 -3.43462 -0.472701 0
M  V30 6078 C 581.599 -4.27015 0.442385 0
M  V30 6079 C 580.832 -5.32779 -0.313469 0
M  V30 6080 O 581.055 -5.49158 -1.54214 0
M  V30 6081 O 579.989 -6.01015 0.326257 0
M  V30 6082 H 583.815 -2.80868 1.15528 0
M  V30 6083 H 581.4 -1.35535 0.628545 0
M  V30 6084 H 583.282 -4.11172 -0.922781 0
M  V30 6085 H 581.957 -2.97159 -1.28367 0
M  V30 6086 H 580.864 -3.62075 0.940866 0
M  V30 6087 H 582.197 -4.76871 1.21882 0
M  V30 6088 N 583.85 -0.624285 -1.44708 0
M  V30 6089 C 584.798 0.0969952 -2.32398 0
M  V30 6090 C 585.792 0.842762 -1.46949 0
M  V30 6091 O 586.998 0.756436 -1.63334 0
M  V30 6092 H 583.373 0.0501306 -0.750327 0
M  V30 6093 H 585.344 -0.660767 -2.90992 0
M  V30 6094 C 584.093 1.06967 -3.30837 0
M  V30 6095 H 583.416 0.505242 -3.96595 0
M  V30 6096 H 584.856 1.54397 -3.94889 0
M  V30 6097 C 583.315 2.15153 -2.5925 0
M  V30 6098 O 583.845 3.23139 -2.3863 0
M  V30 6099 N 582.051 1.90898 -2.19103 0
M  V30 6100 H 581.598 1.03086 -2.36074 0
M  V30 6101 H 581.556 2.63485 -1.71531 0
M  V30 6102 N 585.328 1.53329 -0.364422 0
M  V30 6103 C 586.558 2.05359 0.226096 0
M  V30 6104 C 586.966 1.23777 1.43094 0
M  V30 6105 O 586.309 0.271139 1.81688 0
M  V30 6106 C 586.371 3.52918 0.684794 0
M  V30 6107 C 586.035 4.55218 -0.403206 0
M  V30 6108 C 587.032 5.04583 -1.2527 0
M  V30 6109 C 584.717 4.99134 -0.563117 0
M  V30 6110 C 586.711 5.96463 -2.24745 0
M  V30 6111 C 584.398 5.9082 -1.56124 0
M  V30 6112 C 585.396 6.39375 -2.40184 0
M  V30 6113 O 585.084 7.29255 -3.38293 0
M  V30 6114 H 584.816 0.674588 0.0436772 0
M  V30 6115 H 587.37 1.98688 -0.520782 0
M  V30 6116 H 585.6 3.57122 1.48326 0
M  V30 6117 H 587.289 3.87812 1.19818 0
M  V30 6118 H 588.055 4.71403 -1.14034 0
M  V30 6119 H 583.934 4.60928 0.0813909 0
M  V30 6120 H 587.478 6.34285 -2.90393 0
M  V30 6121 H 583.375 6.23414 -1.67407 0
M  V30 6122 H 584.143 7.47249 -3.34009 0
M  V30 6123 N 586.806 0.0935595 1.57322 0
M  V30 6124 C 588.217 -0.435807 1.81542 0
M  V30 6125 C 588.568 -1.68263 1.00907 0
M  V30 6126 O 587.693 -2.15087 0.237983 0
M  V30 6127 C 588.288 -0.797436 3.29282 0
M  V30 6128 C 586.847 -1.27155 3.54272 0
M  V30 6129 C 585.994 -0.267455 2.76007 0
M  V30 6130 H 588.945 0.31902 1.5546 0
M  V30 6131 H 588.966 -1.6571 3.42521 0
M  V30 6132 H 588.478 0.110206 3.87943 0
M  V30 6133 H 586.579 -2.19696 3.00939 0
M  V30 6134 H 586.692 -1.23445 4.62923 0
M  V30 6135 H 585.056 -0.749282 2.43429 0
M  V30 6136 H 585.839 0.632839 3.37417 0
M  V30 6137 N 588.284 -1.56567 -0.180126 0
M  V30 6138 C 589.232 -1.96632 -1.24251 0
M  V30 6139 C 590.226 -0.853818 -1.46309 0
M  V30 6140 O 591.432 -1.0389 -1.46993 0
M  V30 6141 H 587.807 -0.625476 -0.417473 0
M  V30 6142 H 589.778 -2.85201 -0.877679 0
M  V30 6143 C 588.527 -2.33486 -2.57642 0
M  V30 6144 H 587.85 -3.18626 -2.4149 0
M  V30 6145 H 589.29 -2.65371 -3.30688 0
M  V30 6146 C 587.749 -1.17499 -3.15746 0
M  V30 6147 O 588.279 -0.457956 -3.99081 0
M  V30 6148 N 586.485 -0.94786 -2.74707 0
M  V30 6149 H 586.032 -1.53269 -2.07042 0
M  V30 6150 H 585.99 -0.173626 -3.1392 0
M  V30 6151 N 589.762 0.448376 -1.51087 0
M  V30 6152 C 590.725 1.52588 -1.71025 0
M  V30 6153 C 591.725 1.49958 -0.580442 0
M  V30 6154 O 592.915 1.52176 -0.847833 0
M  V30 6155 C 590.047 2.92163 -1.75652 0
M  V30 6156 H 591.24 1.36218 -2.67179 0
M  V30 6157 H 588.793 0.676313 -1.4091 0
M  V30 6158 H 589.528 3.13951 -0.812724 0
M  V30 6159 H 589.313 2.95478 -2.57751 0
M  V30 6160 H 590.803 3.70349 -1.92953 0
M  V30 6161 N 591.24 1.41047 0.703093 0
M  V30 6162 C 592.488 1.39723 1.4602 0
M  V30 6163 C 592.809 0.00461257 1.94999 0
M  V30 6164 O 592.079 -0.952292 1.71196 0
M  V30 6165 H 590.659 0.514281 0.541779 0
M  V30 6166 H 593.321 1.76217 0.832678 0
M  V30 6167 H 592.417 2.07982 2.32701 0
M  V30 6168 N 592.718 -0.936591 1.26751 0
M  V30 6169 C 593.648 -2.05315 1.11212 0
M  V30 6170 C 594.629 -1.70092 0.0160262 0
M  V30 6171 O 595.814 -1.93279 0.188894 0
M  V30 6172 C 592.944 -3.39123 0.749171 0
M  V30 6173 C 591.898 -3.88425 1.79751 0
M  V30 6174 C 591.224 -5.18936 1.28876 0
M  V30 6175 C 592.524 -4.12798 3.19992 0
M  V30 6176 H 594.218 -2.18573 2.04613 0
M  V30 6177 H 591.764 -1.05027 0.985159 0
M  V30 6178 H 593.717 -4.16704 0.627323 0
M  V30 6179 H 592.441 -3.25855 -0.220543 0
M  V30 6180 H 591.1 -3.13028 1.90811 0
M  V30 6181 H 590.748 -5.02051 0.308757 0
M  V30 6182 H 590.448 -5.52892 1.98958 0
M  V30 6183 H 591.972 -5.99096 1.17967 0
M  V30 6184 H 593.386 -4.80977 3.11983 0
M  V30 6185 H 591.783 -4.58044 3.87705 0
M  V30 6186 H 592.853 -3.18412 3.65707 0
M  V30 6187 N 594.196 -1.08629 -1.14182 0
M  V30 6188 C 595.424 -0.838889 -1.8913 0
M  V30 6189 C 595.839 0.609153 -1.78703 0
M  V30 6190 O 595.196 1.41876 -1.14794 0
M  V30 6191 C 595.247 -1.25477 -3.39025 0
M  V30 6192 O 594.968 -2.64601 -3.49167 0
M  V30 6193 C 596.469 -1.03856 -4.30963 0
M  V30 6194 H 593.689 -0.302377 -0.599007 0
M  V30 6195 H 596.233 -1.44615 -1.44592 0
M  V30 6196 H 594.388 -0.691571 -3.81177 0
M  V30 6197 H 594.802 -2.81922 -4.42289 0
M  V30 6198 H 596.276 -1.37892 -5.345 0
M  V30 6199 H 596.753 0.0242522 -4.39193 0
M  V30 6200 H 597.359 -1.58731 -3.94569 0
M  V30 6201 N 595.674 1.31259 -0.872281 0
M  V30 6202 C 596.607 2.26544 -0.274394 0
M  V30 6203 C 597.585 1.51213 0.597776 0
M  V30 6204 O 598.769 1.80277 0.550687 0
M  V30 6205 C 595.896 3.33139 0.611256 0
M  V30 6206 C 594.942 4.26077 -0.189876 0
M  V30 6207 S 595.775 5.11971 -1.56989 0
M  V30 6208 C 596.931 6.2208 -0.690427 0
M  V30 6209 H 597.164 2.76908 -1.0821 0
M  V30 6210 H 594.697 1.3906 -0.670939 0
M  V30 6211 H 596.655 3.95024 1.11654 0
M  V30 6212 H 595.316 2.81525 1.39294 0
M  V30 6213 H 594.509 5.01657 0.485433 0
M  V30 6214 H 594.111 3.68701 -0.627339 0
M  V30 6215 H 596.403 6.77429 0.098001 0
M  V30 6216 H 597.346 6.93768 -1.41742 0
M  V30 6217 H 597.754 5.63915 -0.256953 0
M  V30 6218 N 597.152 0.631951 1.44375 0
M  V30 6219 C 598.1 -0.0846693 2.32446 0
M  V30 6220 C 599.094 -0.834957 1.47393 0
M  V30 6221 O 600.3 -0.747764 1.63733 0
M  V30 6222 H 596.675 -0.0461508 0.750583 0
M  V30 6223 H 598.646 0.67619 2.90638 0
M  V30 6224 C 597.395 -1.05211 3.314 0
M  V30 6225 H 596.718 -0.484203 3.96857 0
M  V30 6226 H 598.158 -1.523 3.95703 0
M  V30 6227 C 596.617 -2.13776 2.60387 0
M  V30 6228 O 597.147 -3.21869 2.4034 0
M  V30 6229 N 595.353 -1.89733 2.20113 0
M  V30 6230 H 594.9 -1.01833 2.36618 0
M  V30 6231 H 594.858 -2.62572 1.72926 0
M  V30 6232 N 598.631 -1.53133 0.372548 0
M  V30 6233 C 599.861 -2.05476 -0.215202 0
M  V30 6234 C 600.269 -1.24534 -1.42436 0
M  V30 6235 O 599.612 -0.280771 -1.81542 0
M  V30 6236 C 599.674 -3.53276 -0.666068 0
M  V30 6237 C 599.338 -4.54998 0.427342 0
M  V30 6238 C 600.335 -5.03911 1.27944 0
M  V30 6239 C 598.02 -4.98828 0.589579 0
M  V30 6240 C 600.014 -5.95263 2.27905 0
M  V30 6241 C 597.701 -5.89984 1.59255 0
M  V30 6242 C 598.699 -6.38093 2.43571 0
M  V30 6243 O 598.387 -7.27451 3.42156 0
M  V30 6244 H 598.119 -0.67481 -0.040099 0
M  V30 6245 H 600.673 -1.98409 0.531312 0
M  V30 6246 H 598.903 -3.57904 -1.4643 0
M  V30 6247 H 600.592 -3.88442 -1.1776 0
M  V30 6248 H 601.358 -4.70792 1.16532 0
M  V30 6249 H 597.237 -4.60965 -0.0569456 0
M  V30 6250 H 600.781 -6.32736 2.93753 0
M  V30 6251 H 596.678 -6.22518 1.70711 0
M  V30 6252 H 597.446 -7.45467 3.37967 0
M  V30 6253 N 600.109 -0.101901 -1.5727 0
M  V30 6254 C 601.349 0.563489 -1.96479 0
M  V30 6255 C 601.713 1.64926 -0.983021 0
M  V30 6256 O 602.914 2.37234 -1.26386 0
M  V30 6257 C 601.185 1.09809 -3.40113 0
M  V30 6258 S 602.744 1.7744 -4.01323 0
M  V30 6259 H 599.562 0.183675 -0.686866 0
M  V30 6260 H 602.164 -0.182922 -1.94642 0
M  V30 6261 H 600.868 0.296447 -4.09328 0
M  V30 6262 H 600.399 1.88018 -3.45562 0
M  V30 6263 H 602.414 3.0591 -3.90683 0
M  V30 6264 N 601.587 1.56661 0.17182 0
M  V30 6265 C 603.003 1.50768 0.52357 0
M  V30 6266 C 603.203 0.806072 1.84675 0
M  V30 6267 O 602.259 0.366233 2.4983 0
M  V30 6268 C 603.572 2.955 0.556793 0
M  V30 6269 C 605.12 3.06303 0.644029 0
M  V30 6270 C 605.595 4.52492 0.708148 0
M  V30 6271 N 607.086 4.56737 0.771051 0
M  V30 6272 C 607.821 5.67196 0.841229 0
M  V30 6273 N 607.317 6.87287 0.872272 0
M  V30 6274 N 609.11 5.55165 0.88021 0
M  V30 6275 H 601.261 2.00679 -0.695817 0
M  V30 6276 H 603.524 0.914219 -0.250814 0
M  V30 6277 H 603.23 3.49986 -0.346774 0
M  V30 6278 H 603.104 3.50119 1.40346 0
M  V30 6279 H 605.491 2.51851 1.53802 0
M  V30 6280 H 605.572 2.5477 -0.229297 0
M  V30 6281 H 605.216 5.07575 -0.181585 0
M  V30 6282 H 605.146 5.01781 1.59761 0
M  V30 6283 H 607.637 3.70274 0.755364 0
M  V30 6284 H 607.95 7.6722 0.92698 0
M  V30 6285 H 606.295 6.89898 0.840557 0
M  V30 6286 H 609.486 4.60263 0.852956 0
M  V30 6287 H 609.659 6.41271 0.931439 0
M  V30 6288 N 603.065 -0.440357 1.51323 0
M  V30 6289 C 604.013 -1.55492 1.72988 0
M  V30 6290 C 605.007 -1.58564 0.596138 0
M  V30 6291 O 606.213 -1.62345 0.777443 0
M  V30 6292 H 602.588 -0.516532 0.546533 0
M  V30 6293 H 604.559 -1.34392 2.66423 0
M  V30 6294 C 603.308 -2.93176 1.86931 0
M  V30 6295 H 602.631 -2.91543 2.73574 0
M  V30 6296 H 604.071 -3.70537 2.06103 0
M  V30 6297 C 602.53 -3.30988 0.628365 0
M  V30 6298 O 603.06 -4.01106 -0.218367 0
M  V30 6299 N 601.266 -2.86719 0.473339 0
M  V30 6300 H 600.813 -2.2983 1.16345 0
M  V30 6301 H 600.771 -3.12381 -0.355727 0
M  V30 6302 N 604.543 -1.41418 -0.695603 0
M  V30 6303 C 605.954 -1.36335 -1.27552 0
M  V30 6304 C 606.305 -0.0464336 -1.96145 0
M  V30 6305 O 605.43 0.855304 -1.9878 0
M  V30 6306 C 606.025 -2.46941 -2.3196 0
M  V30 6307 C 604.584 -2.45256 -2.85529 0
M  V30 6308 C 603.731 -2.2679 -1.59566 0
M  V30 6309 H 606.682 -1.50934 -0.490362 0
M  V30 6310 H 606.703 -2.15997 -3.1325 0
M  V30 6311 H 606.215 -3.42775 -1.82008 0
M  V30 6312 H 604.316 -1.53179 -3.39657 0
M  V30 6313 H 604.429 -3.41565 -3.35961 0
M  V30 6314 H 602.793 -1.74667 -1.85374 0
M  V30 6315 H 603.576 -3.24651 -1.1161 0
M  V30 6316 N 606.021 0.929856 -1.27246 0
M  V30 6317 C 607.298 1.65544 -1.04186 0
M  V30 6318 C 607.678 2.06796 0.424097 0
M  V30 6319 O 607.026 1.80053 1.40688 0
M  V30 6320 C 607.236 2.85912 -2.00138 0
M  V30 6321 C 608.584 3.57305 -2.29387 0
M  V30 6322 O 609.608 2.96036 -1.98094 0
M  V30 6323 O 608.467 4.67688 -2.82719 0
M  V30 6324 H 605.561 0.725473 -0.397011 0
M  V30 6325 H 608.107 0.980583 -1.38501 0
M  V30 6326 H 606.879 2.52403 -2.99013 0
M  V30 6327 H 606.502 3.61118 -1.66371 0
M  V30 6328 N 607.499 1.09233 1.13605 0
M  V30 6329 C 608.462 0.733553 2.17144 0
M  V30 6330 C 609.462 -0.235873 1.59061 0
M  V30 6331 O 610.652 -0.0143167 1.74194 0
M  V30 6332 C 607.784 0.084471 3.40795 0
M  V30 6333 H 608.977 1.65049 2.50397 0
M  V30 6334 H 606.53 0.891264 1.28399 0
M  V30 6335 H 607.265 -0.843795 3.1313 0
M  V30 6336 H 607.05 0.781985 3.84223 0
M  V30 6337 H 608.54 -0.151216 4.17326 0
M  V30 6338 N 608.977 -1.30795 0.87923 0
M  V30 6339 C 610.254 -1.91145 0.415086 0
M  V30 6340 C 610.634 -1.7995 -1.10368 0
M  V30 6341 O 609.982 -1.21305 -1.93642 0
M  V30 6342 C 610.192 -3.37014 0.906778 0
M  V30 6343 C 611.54 -4.14101 0.938358 0
M  V30 6344 O 612.564 -3.45834 0.853053 0
M  V30 6345 O 611.423 -5.36054 1.06342 0
M  V30 6346 H 608.517 -0.81736 0.125905 0
M  V30 6347 H 611.063 -1.39401 0.967753 0
M  V30 6348 H 609.835 -3.3922 1.95053 0
M  V30 6349 H 609.458 -3.96204 0.332948 0
M  V30 6350 N 610.455 -0.639598 -1.44038 0
M  V30 6351 C 611.402 0.0602458 -2.30721 0
M  V30 6352 C 612.372 0.828352 -1.43971 0
M  V30 6353 O 613.557 0.807693 -1.72861 0
M  V30 6354 C 610.697 1.03008 -3.29368 0
M  V30 6355 C 609.81 0.259502 -4.3122 0
M  V30 6356 C 608.945 1.22191 -5.16955 0
M  V30 6357 C 607.984 0.440978 -6.10509 0
M  V30 6358 N 607.121 1.35428 -6.88915 0
M  V30 6359 H 611.961 -0.684867 -2.90023 0
M  V30 6360 H 609.498 -0.349509 -1.42888 0
M  V30 6361 H 611.456 1.60583 -3.85057 0
M  V30 6362 H 610.086 1.74222 -2.71747 0
M  V30 6363 H 609.138 -0.432317 -3.77935 0
M  V30 6364 H 610.45 -0.348347 -4.97582 0
M  V30 6365 H 609.604 1.86873 -5.77203 0
M  V30 6366 H 608.343 1.86367 -4.50687 0
M  V30 6367 H 607.348 -0.219279 -5.49363 0
M  V30 6368 H 608.573 -0.196192 -6.78817 0
M  V30 6369 H 606.519 1.9831 -6.25307 0
M  V30 6370 H 606.436 0.800657 -7.51748 0
M  V30 6371 H 607.704 1.98967 -7.53679 0
M  V30 6372 N 611.933 1.52934 -0.380664 0
M  V30 6373 C 613.158 2.06363 0.207157 0
M  V30 6374 C 613.583 1.25122 1.4045 0
M  V30 6375 O 612.941 0.274062 1.79217 0
M  V30 6376 C 612.989 3.56162 0.563996 0
M  V30 6377 O 612.093 3.77552 1.65917 0
M  V30 6378 H 611.434 0.663468 0.0265859 0
M  V30 6379 H 613.964 1.9719 -0.545635 0
M  V30 6380 H 613.974 3.99453 0.830752 0
M  V30 6381 H 612.649 4.14732 -0.311427 0
M  V30 6382 H 611.226 3.46154 1.3868 0
M  V30 6383 N 613.412 0.11024 1.57214 0
M  V30 6384 C 614.823 -0.416527 1.81994 0
M  V30 6385 C 615.174 -1.67183 1.02686 0
M  V30 6386 O 614.299 -2.14823 0.260782 0
M  V30 6387 C 614.894 -0.762466 3.30109 0
M  V30 6388 C 613.453 -1.23391 3.556 0
M  V30 6389 C 612.6 -0.238166 2.76275 0
M  V30 6390 H 615.551 0.335491 1.55113 0
M  V30 6391 H 615.572 -1.62068 3.44259 0
M  V30 6392 H 615.084 0.151346 3.87805 0
M  V30 6393 H 613.185 -2.16492 3.03253 0
M  V30 6394 H 613.298 -1.18528 4.64207 0
M  V30 6395 H 611.662 -0.723421 2.4421 0
M  V30 6396 H 612.445 0.668591 3.36727 0
M  V30 6397 N 614.89 -1.56749 -0.16351 0
M  V30 6398 C 616.136 -1.83597 -0.875436 0
M  V30 6399 C 616.491 -0.691907 -1.79528 0
M  V30 6400 O 615.784 0.311193 -1.89056 0
M  V30 6401 C 615.978 -3.14342 -1.70071 0
M  V30 6402 C 615.807 -4.41356 -0.862265 0
M  V30 6403 C 614.577 -5.02467 -0.534299 0
M  V30 6404 C 616.775 -5.1391 -0.200203 0
M  V30 6405 N 614.757 -6.13068 0.31947 0
M  V30 6406 C 616.128 -6.17862 0.514398 0
M  V30 6407 C 618.183 -4.97757 -0.119171 0
M  V30 6408 C 616.886 -7.07412 1.30236 0
M  V30 6409 C 618.912 -5.87756 0.655477 0
M  V30 6410 C 618.274 -6.91178 1.35842 0
M  V30 6411 H 614.373 -0.722702 -0.298708 0
M  V30 6412 H 616.957 -1.94182 -0.141883 0
M  V30 6413 H 615.128 -3.04933 -2.40562 0
M  V30 6414 H 616.86 -3.29156 -2.35453 0
M  V30 6415 H 613.615 -4.65611 -0.866222 0
M  V30 6416 H 614.039 -6.72978 0.736893 0
M  V30 6417 H 618.681 -4.178 -0.648278 0
M  V30 6418 H 616.399 -7.86808 1.84278 0
M  V30 6419 H 619.985 -5.77328 0.719948 0
M  V30 6420 H 618.865 -7.59614 1.94822 0
M  V30 6421 N 616.368 0.432326 -1.51554 0
M  V30 6422 C 617.608 1.19076 -1.66133 0
M  V30 6423 C 617.972 1.88364 -0.371873 0
M  V30 6424 O 619.173 2.65904 -0.39349 0
M  V30 6425 C 617.444 2.1768 -2.83461 0
M  V30 6426 S 619.003 3.01943 -3.18396 0
M  V30 6427 H 615.821 0.403735 -0.585251 0
M  V30 6428 H 618.423 0.481554 -1.89476 0
M  V30 6429 H 617.127 1.65424 -3.75583 0
M  V30 6430 H 616.658 2.93174 -2.62322 0
M  V30 6431 H 618.673 4.19373 -2.65219 0
M  V30 6432 N 617.846 1.41785 0.688094 0
M  V30 6433 C 619.076 1.44705 1.47459 0
M  V30 6434 C 619.484 0.052916 1.89126 0
M  V30 6435 O 618.827 -0.939781 1.57841 0
M  V30 6436 C 618.889 2.29935 2.76352 0
M  V30 6437 C 618.553 3.77996 2.56843 0
M  V30 6438 C 619.55 4.69976 2.22304 0
M  V30 6439 C 617.235 4.2212 2.7225 0
M  V30 6440 C 619.229 6.04068 2.03421 0
M  V30 6441 C 616.916 5.56275 2.52985 0
M  V30 6442 C 617.914 6.47065 2.18621 0
M  V30 6443 O 617.602 7.78744 1.9953 0
M  V30 6444 H 617.334 0.494703 0.460701 0
M  V30 6445 H 619.888 1.86802 0.854057 0
M  V30 6446 H 618.118 1.82664 3.40839 0
M  V30 6447 H 619.807 2.24467 3.38186 0
M  V30 6448 H 620.573 4.37175 2.10008 0
M  V30 6449 H 616.452 3.51752 2.97979 0
M  V30 6450 H 619.996 6.74897 1.76523 0
M  V30 6451 H 615.893 5.88653 2.64873 0
M  V30 6452 H 616.661 7.89966 2.14234 0
M  V30 6453 N 619.324 -0.923095 1.27737 0
M  V30 6454 C 620.552 -1.70525 1.17171 0
M  V30 6455 C 620.967 -1.86847 -0.270881 0
M  V30 6456 O 620.324 -1.38879 -1.18401 0
M  V30 6457 C 620.375 -3.10242 1.85559 0
M  V30 6458 O 620.096 -2.94683 3.24182 0
M  V30 6459 C 621.597 -4.04586 1.81176 0
M  V30 6460 H 618.817 -0.533347 0.407163 0
M  V30 6461 H 621.361 -1.15599 1.68692 0
M  V30 6462 H 619.516 -3.62014 1.3793 0
M  V30 6463 H 619.93 -3.83045 3.58297 0
M  V30 6464 H 621.404 -5.00119 2.33633 0
M  V30 6465 H 621.881 -4.3218 0.782099 0
M  V30 6466 H 622.487 -3.58741 2.2844 0
M  V30 6467 N 620.802 -1.09834 -1.13024 0
M  V30 6468 C 622.03 -0.858902 -1.8823 0
M  V30 6469 C 622.445 0.590164 -1.79339 0
M  V30 6470 O 621.802 1.4065 -1.16292 0
M  V30 6471 C 621.853 -1.29066 -3.37675 0
M  V30 6472 O 621.574 -2.6829 -3.46341 0
M  V30 6473 C 623.075 -1.08421 -4.29837 0
M  V30 6474 H 620.295 -0.308713 -0.595766 0
M  V30 6475 H 622.839 -1.4614 -1.4305 0
M  V30 6476 H 620.994 -0.731961 -3.80422 0
M  V30 6477 H 621.408 -2.86598 -4.39274 0
M  V30 6478 H 622.882 -1.43553 -5.33007 0
M  V30 6479 H 623.359 -0.0223315 -4.39194 0
M  V30 6480 H 623.965 -1.62907 -3.92863 0
M  V30 6481 N 622.28 1.30327 -0.886154 0
M  V30 6482 C 623.557 1.90922 -0.425217 0
M  V30 6483 C 623.937 1.80533 1.09413 0
M  V30 6484 O 623.285 1.2233 1.92996 0
M  V30 6485 C 623.495 3.36529 -0.924638 0
M  V30 6486 C 624.843 4.13598 -0.960305 0
M  V30 6487 O 625.867 3.45377 -0.871382 0
M  V30 6488 O 624.726 5.35482 -1.09184 0
M  V30 6489 H 621.82 0.81668 -0.130238 0
M  V30 6490 H 624.366 1.38886 -0.975132 0
M  V30 6491 H 623.138 3.38181 -1.96849 0
M  V30 6492 H 622.761 3.96021 -0.353955 0
M  V30 6493 N 623.758 0.647228 1.43697 0
M  V30 6494 C 625.169 0.238689 1.85168 0
M  V30 6495 C 625.52 -1.21345 1.54175 0
M  V30 6496 O 624.645 -1.92542 0.987743 0
M  V30 6497 C 625.24 0.426422 3.36106 0
M  V30 6498 C 623.799 0.0722541 3.76331 0
M  V30 6499 C 622.946 0.732153 2.6746 0
M  V30 6500 H 625.897 0.851309 1.33934 0
M  V30 6501 H 625.918 -0.32987 3.79067 0
M  V30 6502 H 625.43 1.48339 3.58632 0
M  V30 6503 H 623.531 -0.982355 3.59417 0
M  V30 6504 H 623.644 0.493541 4.76551 0
M  V30 6505 H 622.008 0.16594 2.54159 0
M  V30 6506 H 622.791 1.79204 2.92816 0
M  V30 6507 N 625.236 -1.5273 0.388769 0
M  V30 6508 C 626.652 -1.59553 0.0387049 0
M  V30 6509 C 626.852 -1.40278 -1.44652 0
M  V30 6510 O 625.908 -1.21951 -2.21098 0
M  V30 6511 C 627.221 -2.9625 0.515409 0
M  V30 6512 C 628.769 -3.09426 0.471621 0
M  V30 6513 C 629.244 -4.48572 0.924505 0
M  V30 6514 N 630.735 -4.54754 0.880496 0
M  V30 6515 C 631.47 -5.60653 1.20234 0
M  V30 6516 N 630.966 -6.74198 1.59463 0
M  V30 6517 N 632.759 -5.50755 1.12363 0
M  V30 6518 H 624.91 -1.63508 1.35569 0
M  V30 6519 H 627.173 -0.768097 0.555636 0
M  V30 6520 H 626.879 -3.15569 1.5527 0
M  V30 6521 H 626.753 -3.77102 -0.085792 0
M  V30 6522 H 629.14 -2.89804 -0.556588 0
M  V30 6523 H 629.221 -2.30528 1.10862 0
M  V30 6524 H 628.865 -4.68936 1.95094 0
M  V30 6525 H 628.795 -5.25935 0.264524 0
M  V30 6526 H 631.286 -3.73237 0.591815 0
M  V30 6527 H 631.599 -7.5097 1.82385 0
M  V30 6528 H 629.944 -6.75531 1.63349 0
M  V30 6529 H 633.135 -4.6093 0.816169 0
M  V30 6530 H 633.308 -6.33184 1.37777 0
M  V30 6531 N 626.714 -0.118576 -1.57153 0
M  V30 6532 C 627.96 0.540326 -1.95469 0
M  V30 6533 C 628.293 1.66356 -1.00196 0
M  V30 6534 O 627.568 1.94461 -0.039104 0
M  V30 6535 C 627.851 1.07342 -3.43729 0
M  V30 6536 C 627.704 -0.0463732 -4.49776 0
M  V30 6537 C 629.023 1.96442 -3.93826 0
M  V30 6538 H 626.142 0.19494 -0.710751 0
M  V30 6539 H 628.784 -0.19405 -1.89006 0
M  V30 6540 H 626.934 1.69925 -3.49368 0
M  V30 6541 H 628.606 -0.681648 -4.56236 0
M  V30 6542 H 626.849 -0.709574 -4.27957 0
M  V30 6543 H 627.52 0.367856 -5.50773 0
M  V30 6544 H 629.996 1.43731 -3.90488 0
M  V30 6545 H 628.872 2.3066 -4.98084 0
M  V30 6546 H 629.133 2.89077 -3.34495 0
M  V30 6547 N 628.193 1.56834 0.155195 0
M  V30 6548 C 629.609 1.51315 0.50755 0
M  V30 6549 C 629.809 0.825614 1.83809 0
M  V30 6550 O 628.865 0.39271 2.49427 0
M  V30 6551 C 630.178 2.96074 0.52542 0
M  V30 6552 C 631.726 3.06968 0.611505 0
M  V30 6553 C 632.201 4.53218 0.660115 0
M  V30 6554 N 633.692 4.5753 0.722564 0
M  V30 6555 C 634.427 5.68056 0.781023 0
M  V30 6556 N 633.923 6.88173 0.799327 0
M  V30 6557 N 635.716 5.56068 0.821278 0
M  V30 6558 H 627.867 1.9993 -0.717063 0
M  V30 6559 H 630.13 0.911507 -0.260496 0
M  V30 6560 H 629.836 3.49599 -0.383875 0
M  V30 6561 H 629.71 3.51587 1.36624 0
M  V30 6562 H 632.097 2.53468 1.51122 0
M  V30 6563 H 632.178 2.54513 -0.256306 0
M  V30 6564 H 631.822 5.07354 -0.23541 0
M  V30 6565 H 631.752 5.03447 1.5443 0
M  V30 6566 H 634.243 3.71054 0.716049 0
M  V30 6567 H 634.556 7.6816 0.845553 0
M  V30 6568 H 632.901 6.90751 0.767337 0
M  V30 6569 H 636.092 4.61142 0.804091 0
M  V30 6570 H 636.265 6.42223 0.863372 0
M  V30 6571 N 629.671 -0.424282 1.51781 0
M  V30 6572 C 630.917 -1.17117 1.66298 0
M  V30 6573 C 631.272 -1.88595 0.380767 0
M  V30 6574 O 630.565 -1.81151 -0.624094 0
M  V30 6575 C 630.759 -2.20418 2.81337 0
M  V30 6576 C 630.588 -1.59081 4.20622 0
M  V30 6577 C 629.358 -1.37007 4.86371 0
M  V30 6578 C 631.556 -1.05992 5.0326 0
M  V30 6579 N 629.538 -0.714049 6.09733 0
M  V30 6580 C 630.909 -0.529933 6.17731 0
M  V30 6581 C 632.964 -0.952927 4.88696 0
M  V30 6582 C 631.667 0.0965457 7.19235 0
M  V30 6583 C 633.693 -0.340325 5.9042 0
M  V30 6584 C 633.055 0.179057 7.04172 0
M  V30 6585 H 629.154 -0.41577 0.662314 0
M  V30 6586 H 631.738 -0.46579 1.89046 0
M  V30 6587 H 629.909 -2.8833 2.60231 0
M  V30 6588 H 631.641 -2.8736 2.84968 0
M  V30 6589 H 628.396 -1.63543 4.44467 0
M  V30 6590 H 628.82 -0.403101 6.75799 0
M  V30 6591 H 633.462 -1.34033 4.00993 0
M  V30 6592 H 631.18 0.496044 8.06576 0
M  V30 6593 H 634.766 -0.259266 5.81222 0
M  V30 6594 H 633.646 0.645626 7.81538 0
M  V30 6595 N 631.149 -1.42148 -0.680565 0
M  V30 6596 C 632.059 -1.47565 -1.82378 0
M  V30 6597 C 633.075 -0.36489 -1.70131 0
M  V30 6598 O 634.251 -0.614916 -1.91783 0
M  V30 6599 C 631.316 -1.37013 -3.18478 0
M  V30 6600 C 630.377 -2.58532 -3.42724 0
M  V30 6601 C 629.61 -2.48473 -4.72331 0
M  V30 6602 O 629.833 -1.51745 -5.49845 0
M  V30 6603 O 628.767 -3.38503 -4.97694 0
M  V30 6604 H 632.593 -2.44045 -1.80764 0
M  V30 6605 H 630.178 -1.23849 -0.835569 0
M  V30 6606 H 632.06 -1.33468 -3.99705 0
M  V30 6607 H 630.735 -0.436552 -3.20743 0
M  V30 6608 H 629.642 -2.67652 -2.61368 0
M  V30 6609 H 630.975 -3.50769 -3.45286 0
M  V30 6610 N 632.627 0.916307 -1.28225 0
M  V30 6611 C 633.874 1.66518 -1.1523 0
M  V30 6612 C 634.202 1.92178 0.299632 0
M  V30 6613 O 633.457 1.51842 1.2346 0
M  V30 6614 C 633.756 3.03125 -1.8934 0
M  V30 6615 C 633.422 2.97135 -3.39148 0
M  V30 6616 C 632.084 2.95208 -3.80007 0
M  V30 6617 C 634.436 2.87574 -4.34685 0
M  V30 6618 C 631.764 2.81518 -5.14747 0
M  V30 6619 C 634.116 2.75424 -5.69495 0
M  V30 6620 C 632.78 2.71854 -6.09632 0
M  V30 6621 H 632.05 0.609334 -0.421655 0
M  V30 6622 H 634.697 1.06776 -1.58969 0
M  V30 6623 H 633.002 3.66639 -1.38143 0
M  V30 6624 H 634.699 3.59968 -1.76704 0
M  V30 6625 H 631.289 2.99428 -3.06661 0
M  V30 6626 H 635.473 2.88152 -4.04082 0
M  V30 6627 H 630.729 2.77148 -5.44976 0
M  V30 6628 H 634.903 2.66993 -6.43185 0
M  V30 6629 H 632.53 2.61003 -7.1399 0
M  V30 6630 N 634.105 1.10431 1.1244 0
M  V30 6631 C 635.345 0.856518 1.85589 0
M  V30 6632 C 635.709 -0.606905 1.82156 0
M  V30 6633 O 636.91 -0.97105 2.50647 0
M  V30 6634 C 635.181 1.38977 3.29272 0
M  V30 6635 S 636.74 1.27739 4.19795 0
M  V30 6636 H 633.558 0.309509 0.640098 0
M  V30 6637 H 636.16 1.40975 1.35449 0
M  V30 6638 H 634.864 2.44887 3.2933 0
M  V30 6639 H 634.395 0.833112 3.84477 0
M  V30 6640 H 636.41 0.235051 4.95643 0
M  V30 6641 N 635.583 -1.29855 0.893053 0
M  V30 6642 C 636.531 -2.29867 0.355512 0
M  V30 6643 C 637.525 -1.60502 -0.541801 0
M  V30 6644 O 638.731 -1.74902 -0.425339 0
M  V30 6645 H 635.106 -0.745805 0.0963247 0
M  V30 6646 H 637.077 -2.72655 1.21252 0
M  V30 6647 C 635.826 -3.453 -0.407801 0
M  V30 6648 H 635.149 -3.98864 0.273426 0
M  V30 6649 H 636.589 -4.17334 -0.748887 0
M  V30 6650 C 635.048 -2.96051 -1.60795 0
M  V30 6651 O 635.578 -2.96763 -2.7073 0
M  V30 6652 N 633.784 -2.51963 -1.44786 0
M  V30 6653 H 633.331 -2.51583 -0.553498 0
M  V30 6654 H 633.289 -2.1937 -2.2522 0
M  V30 6655 N 637.061 -0.65484 -1.43351 0
M  V30 6656 C 637.991 0.0221809 -2.33489 0
M  V30 6657 C 638.972 0.810272 -1.49561 0
M  V30 6658 O 640.157 0.771426 -1.78221 0
M  V30 6659 C 637.287 0.988117 -3.32947 0
M  V30 6660 C 636.241 0.310026 -4.26876 0
M  V30 6661 C 635.567 1.38752 -5.16384 0
M  V30 6662 C 636.867 -0.798589 -5.16159 0
M  V30 6663 H 638.561 -0.730571 -2.9035 0
M  V30 6664 H 636.107 -0.352773 -1.39612 0
M  V30 6665 H 638.06 1.47067 -3.94904 0
M  V30 6666 H 636.784 1.77205 -2.74346 0
M  V30 6667 H 635.443 -0.152097 -3.66284 0
M  V30 6668 H 635.091 2.16293 -4.54121 0
M  V30 6669 H 634.791 0.939051 -5.80048 0
M  V30 6670 H 636.315 1.87141 -5.81215 0
M  V30 6671 H 637.729 -0.398126 -5.71916 0
M  V30 6672 H 636.126 -1.17163 -5.88552 0
M  V30 6673 H 637.196 -1.65588 -4.55751 0
M  V30 6674 N 638.539 1.52521 -0.396863 0
M  V30 6675 C 639.486 2.26671 0.434624 0
M  V30 6676 C 640.456 1.28584 1.05144 0
M  V30 6677 O 641.641 1.57426 1.07804 0
M  V30 6678 C 638.781 3.08234 1.55196 0
M  V30 6679 C 637.894 4.21261 0.957262 0
M  V30 6680 C 637.029 4.90205 2.04627 0
M  V30 6681 C 636.068 5.95213 1.42787 0
M  V30 6682 N 635.205 6.57723 2.45651 0
M  V30 6683 H 640.045 2.973 -0.204139 0
M  V30 6684 H 637.582 1.46669 -0.112505 0
M  V30 6685 H 639.54 3.53819 2.2106 0
M  V30 6686 H 638.17 2.398 2.16092 0
M  V30 6687 H 637.222 3.79935 0.188005 0
M  V30 6688 H 638.534 4.96624 0.465416 0
M  V30 6689 H 637.688 5.39133 2.78246 0
M  V30 6690 H 636.427 4.14383 2.57174 0
M  V30 6691 H 635.432 5.45616 0.676968 0
M  V30 6692 H 636.657 6.72972 0.910255 0
M  V30 6693 H 634.603 5.84737 2.97353 0
M  V30 6694 H 634.52 7.28723 2.01243 0
M  V30 6695 H 635.788 7.11293 3.18876 0
M  V30 6696 N 640.017 0.126909 1.57088 0
M  V30 6697 C 640.964 -0.82036 2.15728 0
M  V30 6698 C 641.934 -1.25811 1.08447 0
M  V30 6699 O 643.119 -1.33422 1.36393 0
M  V30 6700 C 640.259 -2.06199 2.76724 0
M  V30 6701 C 639.372 -1.67188 3.98337 0
M  V30 6702 C 638.507 -2.86378 4.47393 0
M  V30 6703 C 637.546 -2.43644 5.61519 0
M  V30 6704 N 636.683 -3.55775 6.05284 0
M  V30 6705 H 641.523 -0.313472 2.96347 0
M  V30 6706 H 639.06 -0.14303 1.46403 0
M  V30 6707 H 641.018 -2.78959 3.10222 0
M  V30 6708 H 639.648 -2.54333 1.98782 0
M  V30 6709 H 638.7 -0.842714 3.70948 0
M  V30 6710 H 640.012 -1.31789 4.81075 0
M  V30 6711 H 639.166 -3.67353 4.82842 0
M  V30 6712 H 637.905 -3.25009 3.63621 0
M  V30 6713 H 636.91 -1.61104 5.25667 0
M  V30 6714 H 638.135 -2.06122 6.47063 0
M  V30 6715 H 636.081 -3.94065 5.24451 0
M  V30 6716 H 635.998 -3.24325 6.82898 0
M  V30 6717 H 637.266 -4.37166 6.45373 0
M  V30 6718 N 641.495 -1.56914 -0.146875 0
M  V30 6719 C 642.735 -1.85163 -0.86568 0
M  V30 6720 C 643.099 -0.711215 -1.78342 0
M  V30 6721 O 644.3 -0.874754 -2.54168 0
M  V30 6722 C 642.571 -3.18593 -1.61967 0
M  V30 6723 S 644.13 -3.68397 -2.38388 0
M  V30 6724 H 640.948 -0.6494 -0.289483 0
M  V30 6725 H 643.55 -1.95096 -0.125679 0
M  V30 6726 H 642.254 -3.99562 -0.93694 0
M  V30 6727 H 641.785 -3.11666 -2.40058 0
M  V30 6728 H 643.8 -3.37672 -3.63582 0
M  V30 6729 N 642.974 0.416227 -1.52004 0
M  V30 6730 C 644.199 1.19029 -1.69843 0
M  V30 6731 C 644.624 1.83708 -0.404103 0
M  V30 6732 O 643.982 1.69711 0.637787 0
M  V30 6733 C 644.03 2.23439 -2.83032 0
M  V30 6734 O 643.134 3.29419 -2.48106 0
M  V30 6735 H 642.475 0.347785 -0.565634 0
M  V30 6736 H 645.005 0.488871 -1.98674 0
M  V30 6737 H 645.015 2.67884 -3.07737 0
M  V30 6738 H 643.69 1.75745 -3.76944 0
M  V30 6739 H 642.267 2.90303 -2.34048 0
M  V30 6740 N 644.452 1.42507 0.673017 0
M  V30 6741 C 645.362 1.4853 1.81593 0
M  V30 6742 C 646.378 0.373907 1.69935 0
M  V30 6743 O 647.554 0.625078 1.91454 0
M  V30 6744 C 644.619 1.387 3.17747 0
M  V30 6745 C 643.68 2.60346 3.41348 0
M  V30 6746 C 642.913 2.50975 4.71007 0
M  V30 6747 O 643.136 1.54659 5.49033 0
M  V30 6748 O 642.07 3.41138 4.95892 0
M  V30 6749 H 645.896 2.45001 1.79467 0
M  V30 6750 H 643.481 1.2429 0.82899 0
M  V30 6751 H 645.363 1.35586 3.98992 0
M  V30 6752 H 644.038 0.453555 3.20507 0
M  V30 6753 H 642.945 2.69034 2.59945 0
M  V30 6754 H 644.278 3.52595 3.43421 0
M  V30 6755 N 645.93 -0.909495 1.28709 0
M  V30 6756 C 647.158 -1.69272 1.18973 0
M  V30 6757 C 647.573 -1.87123 -0.251048 0
M  V30 6758 O 646.93 -1.40127 -1.16922 0
M  V30 6759 C 646.981 -3.08257 1.88839 0
M  V30 6760 O 646.702 -2.91228 3.27289 0
M  V30 6761 C 648.203 -4.02642 1.85457 0
M  V30 6762 H 645.423 -0.528999 0.412797 0
M  V30 6763 H 647.967 -1.13803 1.69909 0
M  V30 6764 H 646.122 -3.6053 1.41762 0
M  V30 6765 H 646.536 -3.79223 3.6234 0
M  V30 6766 H 648.01 -4.97613 2.38925 0
M  V30 6767 H 648.487 -4.31327 0.827893 0
M  V30 6768 H 649.093 -3.56298 2.32233 0
M  V30 6769 N 647.408 -1.11026 -1.11852 0
M  V30 6770 C 648.819 -0.873203 -1.65021 0
M  V30 6771 C 649.17 0.595364 -1.86949 0
M  V30 6772 O 648.295 1.45645 -1.60051 0
M  V30 6773 C 648.89 -1.57859 -2.99777 0
M  V30 6774 C 647.449 -1.38807 -3.49871 0
M  V30 6775 C 646.596 -1.62403 -2.24768 0
M  V30 6776 H 649.547 -1.26712 -0.955503 0
M  V30 6777 H 649.568 -1.02111 -3.66543 0
M  V30 6778 H 649.08 -2.6474 -2.83786 0
M  V30 6779 H 647.181 -0.341163 -3.71035 0
M  V30 6780 H 647.294 -2.13421 -4.28938 0
M  V30 6781 H 645.658 -1.04714 -2.32179 0
M  V30 6782 H 646.441 -2.70549 -2.11324 0
M  V30 6783 N 648.886 1.2938 -0.899927 0
M  V30 6784 C 649.796 2.31462 -0.382437 0
M  V30 6785 C 650.812 1.65956 0.522929 0
M  V30 6786 O 651.988 1.97131 0.412454 0
M  V30 6787 C 649.053 3.44595 0.381472 0
M  V30 6788 C 648.114 4.25692 -0.555444 0
M  V30 6789 C 647.347 5.33422 0.172102 0
M  V30 6790 O 647.57 5.53053 1.396 0
M  V30 6791 O 646.504 5.99939 -0.485491 0
M  V30 6792 H 650.33 2.77706 -1.22934 0
M  V30 6793 H 647.915 1.33821 -0.664259 0
M  V30 6794 H 649.797 4.13474 0.813442 0
M  V30 6795 H 648.472 3.00458 1.20443 0
M  V30 6796 H 647.379 3.59453 -1.03653 0
M  V30 6797 H 648.712 4.73471 -1.34483 0
M  V30 6798 N 650.364 0.662433 1.43002 0
M  V30 6799 C 651.296 -0.062326 2.29115 0
M  V30 6800 C 652.309 -0.777926 1.43011 0
M  V30 6801 O 653.498 -0.634146 1.66856 0
M  V30 6802 C 650.598 -1.11163 3.2015 0
M  V30 6803 C 649.771 -0.472327 4.34842 0
M  V30 6804 C 648.83 -1.41974 5.06685 0
M  V30 6805 O 647.856 -0.924795 5.61637 0
M  V30 6806 N 649.058 -2.75345 5.11043 0
M  V30 6807 H 651.823 0.676838 2.91957 0
M  V30 6808 H 649.384 0.505907 1.53793 0
M  V30 6809 H 651.376 -1.74643 3.65078 0
M  V30 6810 H 649.946 -1.75266 2.58845 0
M  V30 6811 H 649.166 0.341751 3.92716 0
M  V30 6812 H 650.454 -0.0264381 5.08793 0
M  V30 6813 H 649.852 -3.18108 4.67786 0
M  V30 6814 H 648.409 -3.34105 5.59658 0
M  V30 6815 N 651.842 -1.52309 0.404946 0
M  V30 6816 C 653.088 -2.02065 -0.172455 0
M  V30 6817 C 653.421 -1.29022 -1.45145 0
M  V30 6818 O 652.696 -0.395284 -1.90441 0
M  V30 6819 C 652.979 -3.5759 -0.424433 0
M  V30 6820 C 652.832 -4.41287 0.870945 0
M  V30 6821 C 654.151 -4.23186 -1.20837 0
M  V30 6822 H 651.27 -0.734454 -0.0612035 0
M  V30 6823 H 653.912 -1.82236 0.53759 0
M  V30 6824 H 652.062 -3.74617 -1.02929 0
M  V30 6825 H 653.734 -4.3598 1.50729 0
M  V30 6826 H 651.977 -4.07669 1.48284 0
M  V30 6827 H 652.648 -5.48171 0.649083 0
M  V30 6828 H 655.124 -4.10232 -0.696338 0
M  V30 6829 H 654 -5.31953 -1.35343 0
M  V30 6830 H 654.261 -3.81862 -2.22786 0
M  V30 6831 N 653.32 -0.135238 -1.57019 0
M  V30 6832 C 654.731 0.387521 -1.82634 0
M  V30 6833 C 655.082 1.65528 -1.05332 0
M  V30 6834 O 654.207 2.14381 -0.294926 0
M  V30 6835 C 654.802 0.709852 -3.3128 0
M  V30 6836 C 653.361 1.17718 -3.57518 0
M  V30 6837 C 652.508 0.194183 -2.76619 0
M  V30 6838 H 655.459 -0.360126 -1.5456 0
M  V30 6839 H 655.48 1.5657 -3.46794 0
M  V30 6840 H 654.992 -0.213024 -3.87515 0
M  V30 6841 H 653.093 2.1164 -3.06658 0
M  V30 6842 H 653.206 1.11128 -4.66034 0
M  V30 6843 H 651.57 0.684478 -2.4533 0
M  V30 6844 H 652.353 -0.722076 -3.3562 0
M  V30 6845 N 654.798 1.5699 0.138552 0
M  V30 6846 C 655.761 1.97984 1.15478 0
M  V30 6847 C 656.761 0.867416 1.35398 0
M  V30 6848 O 657.951 1.13387 1.32246 0
M  V30 6849 C 655.083 2.3031 2.51337 0
M  V30 6850 H 656.276 2.88953 0.802896 0
M  V30 6851 H 653.829 1.51555 0.382189 0
M  V30 6852 H 654.564 1.42159 2.91481 0
M  V30 6853 H 654.349 3.11425 2.38237 0
M  V30 6854 H 655.839 2.62834 3.24512 0
M  V30 6855 N 656.276 -0.40816 1.52223 0
M  V30 6856 C 657.239 -1.48 1.7501 0
M  V30 6857 C 658.239 -1.48367 0.619996 0
M  V30 6858 O 659.429 -1.49874 0.887881 0
M  V30 6859 C 656.561 -2.87403 1.83336 0
M  V30 6860 H 657.754 -1.29086 2.70697 0
M  V30 6861 H 655.307 -0.638715 1.42654 0
M  V30 6862 H 656.042 -3.11686 0.895677 0
M  V30 6863 H 655.827 -2.8854 2.65494 0
M  V30 6864 H 657.317 -3.65103 2.02705 0
M  V30 6865 N 657.755 -1.42862 -0.66545 0
M  V30 6866 C 659.166 -1.3901 -1.24632 0
M  V30 6867 C 659.517 -0.0880285 -1.96002 0
M  V30 6868 O 658.642 0.812947 -2.0055 0
M  V30 6869 C 659.237 -2.51806 -2.2667 0
M  V30 6870 C 657.796 -2.51257 -2.80262 0
M  V30 6871 C 656.943 -2.30124 -1.5472 0
M  V30 6872 H 659.894 -1.5194 -0.458237 0
M  V30 6873 H 659.915 -2.22593 -3.08598 0
M  V30 6874 H 659.427 -3.46558 -1.74697 0
M  V30 6875 H 657.528 -1.60349 -3.36332 0
M  V30 6876 H 657.641 -3.48614 -3.28641 0
M  V30 6877 H 656.005 -1.7856 -1.81627 0
M  V30 6878 H 656.788 -3.26945 -1.04699 0
M  V30 6879 N 659.233 0.902656 -1.29189 0
M  V30 6880 C 660.165 2.01149 -1.09872 0
M  V30 6881 C 661.178 1.62732 -0.0471046 0
M  V30 6882 O 662.367 1.76107 -0.29132 0
M  V30 6883 C 659.467 3.32612 -0.649818 0
M  V30 6884 C 658.64 3.99574 -1.7793 0
M  V30 6885 C 657.699 5.09325 -1.32191 0
M  V30 6886 O 656.725 5.31919 -2.02611 0
M  V30 6887 N 657.927 5.80185 -0.191171 0
M  V30 6888 H 660.692 2.18276 -2.05368 0
M  V30 6889 H 658.253 1.07466 -1.2109 0
M  V30 6890 H 660.245 4.03375 -0.327199 0
M  V30 6891 H 658.815 3.11876 0.212597 0
M  V30 6892 H 658.035 3.22213 -2.27095 0
M  V30 6893 H 659.323 4.41056 -2.53668 0
M  V30 6894 H 658.721 5.64312 0.396016 0
M  V30 6895 H 657.278 6.5176 0.0721001 0
M  V30 6896 N 660.711 1.11618 1.11262 0
M  V30 6897 C 661.674 0.779447 2.15539 0
M  V30 6898 C 662.674 -0.202081 1.59525 0
M  V30 6899 O 663.864 0.0226356 1.74185 0
M  V30 6900 C 660.996 0.15674 3.40539 0
M  V30 6901 H 662.189 1.70324 2.4684 0
M  V30 6902 H 659.742 0.918298 1.26479 0
M  V30 6903 H 660.477 -0.777186 3.1485 0
M  V30 6904 H 660.262 0.863308 3.82478 0
M  V30 6905 H 661.752 -0.062661 4.17553 0
M  V30 6906 N 662.189 -1.289 0.906776 0
M  V30 6907 C 663.6 -1.77336 0.58384 0
M  V30 6908 C 663.951 -1.74304 -0.900697 0
M  V30 6909 O 663.076 -1.33335 -1.70443 0
M  V30 6910 C 663.671 -3.22019 1.05304 0
M  V30 6911 C 662.23 -3.68205 0.781148 0
M  V30 6912 C 661.377 -2.48837 1.22373 0
M  V30 6913 H 664.328 -1.15462 1.08877 0
M  V30 6914 H 664.349 -3.78481 0.391414 0
M  V30 6915 H 663.861 -3.24194 2.13353 0
M  V30 6916 H 661.962 -3.71497 -0.28643 0
M  V30 6917 H 662.075 -4.58675 1.384 0
M  V30 6918 H 660.439 -2.46461 0.642594 0
M  V30 6919 H 661.222 -2.53736 2.31242 0
M  V30 6920 N 663.667 -0.670007 -1.42649 0
M  V30 6921 C 664.915 -0.18991 -2.01206 0
M  V30 6922 C 665.236 1.20617 -1.53221 0
M  V30 6923 O 664.506 1.80898 -0.751856 0
M  V30 6924 H 663.086 -0.0672189 -0.743969 0
M  V30 6925 H 665.748 -0.865442 -1.74631 0
M  V30 6926 H 664.844 -0.187481 -3.11536 0
M  V30 6927 N 665.145 1.52092 -0.413018 0
M  V30 6928 C 666.391 2.02154 0.161737 0
M  V30 6929 C 666.724 1.29789 1.44459 0
M  V30 6930 O 665.999 0.405378 1.90229 0
M  V30 6931 C 666.282 3.5781 0.405463 0
M  V30 6932 C 666.135 4.40819 -0.894335 0
M  V30 6933 C 667.454 4.23821 1.18591 0
M  V30 6934 H 664.573 0.734769 0.0573077 0
M  V30 6935 H 667.215 1.81948 -0.547247 0
M  V30 6936 H 665.365 3.75158 1.0094 0
M  V30 6937 H 667.037 4.35175 -1.53039 0
M  V30 6938 H 665.28 4.06877 -1.50444 0
M  V30 6939 H 665.951 5.47819 -0.678144 0
M  V30 6940 H 668.427 4.10596 0.674573 0
M  V30 6941 H 667.303 5.32663 1.3252 0
M  V30 6942 H 667.564 3.83038 2.20758 0
M  V30 6943 N 666.623 0.143563 1.56945 0
M  V30 6944 C 667.533 -0.810562 2.20152 0
M  V30 6945 C 668.549 -1.27431 1.1848 0
M  V30 6946 O 669.725 -1.33221 1.51044 0
M  V30 6947 C 666.79 -2.03353 2.80799 0
M  V30 6948 C 665.851 -1.61936 3.97587 0
M  V30 6949 C 665.084 -2.78403 4.55332 0
M  V30 6950 O 665.307 -3.94521 4.11958 0
M  V30 6951 O 664.241 -2.54073 5.45647 0
M  V30 6952 H 668.067 -0.30253 3.02189 0
M  V30 6953 H 665.652 -0.0832925 1.49168 0
M  V30 6954 H 667.534 -2.74932 3.19359 0
M  V30 6955 H 666.209 -2.53116 2.01777 0
M  V30 6956 H 665.116 -0.873904 3.6375 0
M  V30 6957 H 666.449 -1.16892 4.78118 0
M  V30 6958 N 668.101 -1.57061 -0.130224 0
M  V30 6959 C 669.049 -2.00486 -1.17933 0
M  V30 6960 C 670.043 -0.899933 -1.43519 0
M  V30 6961 O 671.249 -1.08514 -1.43613 0
M  V30 6962 H 667.624 -0.638441 -0.397363 0
M  V30 6963 H 669.595 -2.87848 -0.786501 0
M  V30 6964 C 668.344 -2.41565 -2.50084 0
M  V30 6965 H 667.667 -3.26148 -2.31231 0
M  V30 6966 H 669.107 -2.75757 -3.22078 0
M  V30 6967 C 667.566 -1.27485 -3.11848 0
M  V30 6968 O 668.096 -0.584688 -3.97422 0
M  V30 6969 N 666.302 -1.03478 -2.71552 0
M  V30 6970 H 665.849 -1.59779 -2.02061 0
M  V30 6971 H 665.807 -0.27341 -3.13209 0
M  V30 6972 N 669.579 0.400081 -1.52437 0
M  V30 6973 C 670.99 0.97851 -1.59003 0
M  V30 6974 C 671.341 1.91293 -0.436068 0
M  V30 6975 O 670.466 2.1183 0.442365 0
M  V30 6976 C 671.061 1.78145 -2.88184 0
M  V30 6977 C 669.62 2.30976 -2.97199 0
M  V30 6978 C 668.767 1.11212 -2.54022 0
M  V30 6979 H 671.718 0.180002 -1.57676 0
M  V30 6980 H 671.739 2.63968 -2.74046 0
M  V30 6981 H 671.251 1.1011 -3.72152 0
M  V30 6982 H 669.352 3.02355 -2.17744 0
M  V30 6983 H 669.465 2.61221 -4.01622 0
M  V30 6984 H 667.829 1.46882 -2.08081 0
M  V30 6985 H 668.612 0.447307 -3.40373 0
M  V30 6986 N 671.057 1.43213 0.657864 0
M  V30 6987 C 672.468 1.39669 1.23893 0
M  V30 6988 C 672.819 0.0984217 1.95953 0
M  V30 6989 O 671.944 -0.8023 2.00978 0
M  V30 6990 C 672.539 2.53004 2.25332 0
M  V30 6991 C 671.098 2.5274 2.78926 0
M  V30 6992 C 670.245 2.30941 1.53497 0
M  V30 6993 H 673.196 1.52181 0.450172 0
M  V30 6994 H 673.217 2.24226 3.07413 0
M  V30 6995 H 672.729 3.4748 1.72856 0
M  V30 6996 H 670.83 1.6213 3.35477 0
M  V30 6997 H 670.943 3.50352 3.26787 0
M  V30 6998 H 669.307 1.7952 1.80678 0
M  V30 6999 H 670.09 3.27496 1.02963 0
M  V30 7000 N 672.536 -0.895792 1.29666 0
M  V30 7001 C 673.446 -2.03329 1.17024 0
M  V30 7002 C 674.462 -1.73753 0.0925962 0
M  V30 7003 O 675.638 -1.99071 0.305431 0
M  V30 7004 C 672.703 -3.36072 0.851841 0
M  V30 7005 C 671.764 -3.7914 2.01373 0
M  V30 7006 C 670.997 -5.05549 1.71043 0
M  V30 7007 O 671.22 -5.66874 0.633213 0
M  V30 7008 O 670.154 -5.44764 2.5596 0
M  V30 7009 H 673.98 -2.16918 2.12556 0
M  V30 7010 H 671.565 -1.02007 1.09156 0
M  V30 7011 H 673.447 -4.15729 0.689006 0
M  V30 7012 H 672.122 -3.23616 -0.0736634 0
M  V30 7013 H 671.029 -3.00233 2.23183 0
M  V30 7014 H 672.362 -3.96186 2.92058 0
M  V30 7015 N 674.014 -1.12206 -1.10668 0
M  V30 7016 C 674.977 -0.790867 -2.15123 0
M  V30 7017 C 675.977 0.193618 -1.5963 0
M  V30 7018 O 677.167 -0.0318728 -1.74171 0
M  V30 7019 C 674.299 -0.174797 -3.40452 0
M  V30 7020 H 675.492 -1.7163 -2.45933 0
M  V30 7021 H 673.045 -0.924993 -1.2599 0
M  V30 7022 H 673.78 0.760478 -3.15257 0
M  V30 7023 H 673.565 -0.88358 -3.82015 0
M  V30 7024 H 675.055 0.0405162 -4.1758 0
M  V30 7025 N 675.492 1.28418 -0.913599 0
M  V30 7026 C 676.769 1.89977 -0.465619 0
M  V30 7027 C 677.149 1.82813 1.05559 0
M  V30 7028 O 676.497 1.26397 1.90358 0
M  V30 7029 C 676.707 3.34492 -0.995813 0
M  V30 7030 C 678.055 4.11468 -1.04782 0
M  V30 7031 O 679.079 3.43451 -0.944445 0
M  V30 7032 O 677.938 5.33046 -1.20518 0
M  V30 7033 H 675.032 0.813734 -0.147532 0
M  V30 7034 H 677.578 1.36786 -1.00437 0
M  V30 7035 H 676.35 3.33929 -2.03978 0
M  V30 7036 H 675.973 3.95181 -0.437878 0
M  V30 7037 N 676.97 0.677563 1.42291 0
M  V30 7038 C 678.21 0.204894 2.0337 0
M  V30 7039 C 678.574 -1.16744 1.5243 0
M  V30 7040 O 679.775 -1.73492 2.05314 0
M  V30 7041 C 678.046 0.240742 3.56588 0
M  V30 7042 S 679.605 -0.16052 4.38506 0
M  V30 7043 H 676.423 0.0839932 0.706021 0
M  V30 7044 H 679.025 0.891332 1.73999 0
M  V30 7045 H 677.729 1.24184 3.91161 0
M  V30 7046 H 677.26 -0.465439 3.90637 0
M  V30 7047 H 679.275 -1.39315 4.76241 0
M  V30 7048 N 678.448 -1.51871 0.421078 0
M  V30 7049 C 679.381 -2.23851 -0.443369 0
M  V30 7050 C 680.359 -1.25142 -1.03818 0
M  V30 7051 O 681.543 -1.5423 -1.08377 0
M  V30 7052 C 678.67 -2.97637 -1.61648 0
M  V30 7053 C 677.716 -4.10873 -1.14391 0
M  V30 7054 S 678.549 -5.35408 -0.0992403 0
M  V30 7055 C 679.705 -6.12726 -1.27739 0
M  V30 7056 H 679.938 -2.96826 0.167786 0
M  V30 7057 H 677.471 -1.53027 0.205461 0
M  V30 7058 H 679.429 -3.40751 -2.28909 0
M  V30 7059 H 678.09 -2.24282 -2.199 0
M  V30 7060 H 677.283 -4.61718 -2.02069 0
M  V30 7061 H 676.885 -3.69937 -0.549775 0
M  V30 7062 H 679.177 -6.40827 -2.19881 0
M  V30 7063 H 680.12 -7.03461 -0.809239 0
M  V30 7064 H 680.528 -5.43968 -1.5086 0
M  V30 7065 N 679.926 -0.151884 -1.56866 0
M  V30 7066 C 681.175 0.497992 -1.95456 0
M  V30 7067 C 681.488 1.6569 -1.03953 0
M  V30 7068 O 682.694 2.37173 -1.32142 0
M  V30 7069 C 681.15 0.93732 -3.4748 0
M  V30 7070 C 680.758 -0.194921 -4.47576 0
M  V30 7071 C 682.502 1.55671 -3.94926 0
M  V30 7072 C 680.409 0.26295 -5.90815 0
M  V30 7073 H 679.339 0.189811 -0.729717 0
M  V30 7074 H 681.99 -0.237011 -1.81963 0
M  V30 7075 H 680.372 1.72773 -3.56322 0
M  V30 7076 H 681.546 -0.971951 -4.50433 0
M  V30 7077 H 679.861 -0.72303 -4.10075 0
M  V30 7078 H 682.458 1.91099 -4.99385 0
M  V30 7079 H 682.801 2.44748 -3.36755 0
M  V30 7080 H 683.334 0.831109 -3.89021 0
M  V30 7081 H 680.073 -0.592568 -6.52816 0
M  V30 7082 H 679.593 1.00575 -5.91308 0
M  V30 7083 H 681.272 0.713333 -6.43056 0
M  V30 7084 N 681.404 1.57128 0.121893 0
M  V30 7085 C 682.652 1.84335 0.828548 0
M  V30 7086 C 682.973 0.736632 1.80551 0
M  V30 7087 O 682.243 -0.23962 1.94429 0
M  V30 7088 H 680.823 0.680108 0.30897 0
M  V30 7089 H 683.485 1.9459 0.109906 0
M  V30 7090 H 682.581 2.80152 1.37554 0
M  V30 7091 N 682.882 -0.391992 1.52647 0
M  V30 7092 C 684.11 -1.1586 1.71418 0
M  V30 7093 C 684.525 -1.8381 0.431216 0
M  V30 7094 O 683.882 -1.7256 -0.594085 0
M  V30 7095 C 683.933 -2.20888 2.86165 0
M  V30 7096 O 683.654 -1.5571 4.09495 0
M  V30 7097 C 685.155 -3.103 3.1659 0
M  V30 7098 H 682.375 -0.347494 0.574011 0
M  V30 7099 H 684.919 -0.458972 1.99283 0
M  V30 7100 H 683.074 -2.86492 2.6077 0
M  V30 7101 H 683.488 -2.25474 4.73563 0
M  V30 7102 H 684.962 -3.8003 4.00351 0
M  V30 7103 H 685.439 -3.73639 2.30848 0
M  V30 7104 H 686.045 -2.50345 3.43813 0
M  V30 7105 N 684.36 -1.4356 -0.65026 0
M  V30 7106 C 685.608 -1.45046 -1.40734 0
M  V30 7107 C 685.929 -0.0769822 -1.94848 0
M  V30 7108 O 685.199 0.888098 -1.74613 0
M  V30 7109 H 683.779 -0.534034 -0.522318 0
M  V30 7110 H 686.441 -1.79186 -0.766703 0
M  V30 7111 H 685.537 -2.16476 -2.24822 0
M  V30 7112 N 685.838 0.888903 -1.30139 0
M  V30 7113 C 686.785 1.99422 -1.16188 0
M  V30 7114 C 687.755 1.66017 -0.0523869 0
M  V30 7115 O 688.94 1.89506 -0.221864 0
M  V30 7116 C 686.08 3.34325 -0.855612 0
M  V30 7117 C 685.193 3.80445 -2.0466 0
M  V30 7118 C 684.328 5.03975 -1.67876 0
M  V30 7119 C 683.367 5.42492 -2.83493 0
M  V30 7120 N 682.504 6.57206 -2.47032 0
M  V30 7121 H 687.344 2.10687 -2.10749 0
M  V30 7122 H 684.881 1.03165 -1.04859 0
M  V30 7123 H 686.839 4.11968 -0.658681 0
M  V30 7124 H 685.469 3.22756 0.0531155 0
M  V30 7125 H 684.521 2.98745 -2.3549 0
M  V30 7126 H 685.833 4.04933 -2.91257 0
M  V30 7127 H 684.987 5.89232 -1.44535 0
M  V30 7128 H 683.726 4.8135 -0.784431 0
M  V30 7129 H 682.731 4.55764 -3.07505 0
M  V30 7130 H 683.956 5.67093 -3.73607 0
M  V30 7131 H 681.902 6.36164 -1.601 0
M  V30 7132 H 681.819 6.81543 -3.27161 0
M  V30 7133 H 683.087 7.45704 -2.27038 0
M  V30 7134 N 687.317 1.12792 1.10072 0
M  V30 7135 C 688.542 0.908838 1.86427 0
M  V30 7136 C 688.967 -0.536793 1.80278 0
M  V30 7137 O 688.325 -1.38033 1.17543 0
M  V30 7138 C 688.373 1.39295 3.3261 0
M  V30 7139 O 687.477 0.573846 4.08388 0
M  V30 7140 H 686.818 0.326234 0.578331 0
M  V30 7141 H 689.348 1.50094 1.39043 0
M  V30 7142 H 689.358 1.39366 3.83459 0
M  V30 7143 H 688.033 2.44555 3.36401 0
M  V30 7144 H 686.61 0.640438 3.67359 0
M  V30 7145 N 688.795 -1.27931 0.920396 0
M  V30 7146 C 690.025 -1.98516 0.572256 0
M  V30 7147 C 690.433 -1.68912 -0.852375 0
M  V30 7148 O 689.776 -0.94203 -1.57707 0
M  V30 7149 C 689.838 -3.5243 0.709485 0
M  V30 7150 C 689.502 -4.0564 2.10489 0
M  V30 7151 C 690.499 -4.1897 3.07831 0
M  V30 7152 C 688.184 -4.40168 2.41986 0
M  V30 7153 C 690.178 -4.66093 4.34783 0
M  V30 7154 C 687.865 -4.86983 3.69176 0
M  V30 7155 C 688.863 -4.99903 4.65388 0
M  V30 7156 O 688.551 -5.45694 5.90316 0
M  V30 7157 H 688.283 -0.64047 0.216274 0
M  V30 7158 H 690.837 -1.6393 1.23758 0
M  V30 7159 H 689.067 -3.86698 -0.0129263 0
M  V30 7160 H 690.756 -4.04233 0.367474 0
M  V30 7161 H 691.522 -3.92562 2.84816 0
M  V30 7162 H 687.401 -4.29358 1.67846 0
M  V30 7163 H 690.945 -4.76092 5.09884 0
M  V30 7164 H 686.842 -5.12832 3.92012 0
M  V30 7165 H 687.61 -5.63965 5.932 0
M  V30 7166 N 690.273 -0.685099 -1.4193 0
M  V30 7167 C 691.689 -0.355632 -1.55587 0
M  V30 7168 C 691.889 1.13823 -1.66273 0
M  V30 7169 O 690.945 1.92387 -1.63534 0
M  V30 7170 C 692.258 -1.09498 -2.80055 0
M  V30 7171 C 693.806 -1.07831 -2.93839 0
M  V30 7172 C 694.281 -1.79919 -4.21181 0
M  V30 7173 N 695.772 -1.76837 -4.28115 0
M  V30 7174 C 696.507 -2.29463 -5.25485 0
M  V30 7175 N 696.003 -2.90516 -6.28945 0
M  V30 7176 N 697.796 -2.19779 -5.17353 0
M  V30 7177 H 689.947 -1.65412 -1.33239 0
M  V30 7178 H 692.21 -0.697453 -0.642078 0
M  V30 7179 H 691.916 -2.14997 -2.78333 0
M  V30 7180 H 691.79 -0.666813 -3.71259 0
M  V30 7181 H 694.177 -0.0316152 -2.95083 0
M  V30 7182 H 694.258 -1.54545 -2.03837 0
M  V30 7183 H 693.902 -2.84562 -4.20698 0
M  V30 7184 H 693.832 -1.30647 -5.10136 0
M  V30 7185 H 696.323 -1.32315 -3.53979 0
M  V30 7186 H 696.636 -3.28266 -6.99615 0
M  V30 7187 H 694.981 -2.94589 -6.29478 0
M  V30 7188 H 698.172 -1.71763 -4.35448 0
M  V30 7189 H 698.345 -2.61097 -5.9307 0
M  V30 7190 N 691.751 1.51645 -0.429126 0
M  V30 7191 C 692.999 2.01616 0.139802 0
M  V30 7192 C 693.32 1.31568 1.43927 0
M  V30 7193 O 692.59 0.447688 1.90716 0
M  V30 7194 H 691.17 0.744998 0.054654 0
M  V30 7195 H 693.832 1.8638 -0.569952 0
M  V30 7196 H 692.928 3.10439 0.321609 0
M  V30 7197 N 693.229 0.160201 1.56784 0
M  V30 7198 C 694.176 -0.774416 2.1742 0
M  V30 7199 C 695.146 -1.23483 1.11091 0
M  V30 7200 O 696.331 -1.30499 1.39193 0
M  V30 7201 C 693.471 -2.00283 2.81035 0
M  V30 7202 C 692.584 -1.58701 4.01793 0
M  V30 7203 C 691.719 -2.76824 4.53367 0
M  V30 7204 C 690.758 -2.31679 5.66561 0
M  V30 7205 N 689.895 -3.42856 6.12694 0
M  V30 7206 H 694.735 -0.250542 2.96945 0
M  V30 7207 H 692.272 -0.111943 1.46673 0
M  V30 7208 H 694.23 -2.72316 3.16069 0
M  V30 7209 H 692.86 -2.5006 2.04132 0
M  V30 7210 H 691.912 -0.76384 3.72652 0
M  V30 7211 H 693.224 -1.21555 4.83762 0
M  V30 7212 H 692.378 -3.57029 4.90525 0
M  V30 7213 H 691.117 -3.17223 3.70433 0
M  V30 7214 H 690.122 -1.49917 5.28966 0
M  V30 7215 H 691.347 -1.9235 6.5129 0
M  V30 7216 H 689.293 -3.82852 5.32692 0
M  V30 7217 H 689.21 -3.09767 6.89624 0
M  V30 7218 H 690.478 -4.23379 6.545 0
M  V30 7219 N 694.707 -1.5719 -0.113559 0
M  V30 7220 C 695.654 -2.00736 -1.13901 0
M  V30 7221 C 696.624 -0.88044 -1.40846 0
M  V30 7222 O 697.809 -1.14507 -1.5262 0
M  V30 7223 C 694.949 -2.42132 -2.45899 0
M  V30 7224 C 694.062 -3.68264 -2.25844 0
M  V30 7225 C 693.197 -3.98617 -3.5111 0
M  V30 7226 C 692.236 -5.17915 -3.26236 0
M  V30 7227 N 691.373 -5.44111 -4.4372 0
M  V30 7228 H 696.213 -2.88128 -0.760677 0
M  V30 7229 H 693.75 -1.42523 -0.364099 0
M  V30 7230 H 695.708 -2.6417 -3.22908 0
M  V30 7231 H 694.338 -1.57775 -2.81615 0
M  V30 7232 H 693.39 -3.53809 -1.39726 0
M  V30 7233 H 694.702 -4.55425 -2.03444 0
M  V30 7234 H 693.856 -4.21333 -4.36536 0
M  V30 7235 H 692.595 -3.09942 -3.76546 0
M  V30 7236 H 691.6 -4.95038 -2.39202 0
M  V30 7237 H 692.825 -6.08172 -3.02165 0
M  V30 7238 H 690.771 -4.58394 -4.69266 0
M  V30 7239 H 690.688 -6.25606 -4.24444 0
M  V30 7240 H 691.956 -5.71351 -5.30263 0
M  V30 7241 N 696.185 0.383891 -1.52853 0
M  V30 7242 C 697.148 1.45197 -1.77343 0
M  V30 7243 C 698.148 1.47362 -0.643522 0
M  V30 7244 O 699.338 1.48443 -0.911613 0
M  V30 7245 C 696.47 2.8445 -1.87885 0
M  V30 7246 H 697.663 1.24764 -2.72716 0
M  V30 7247 H 695.216 0.615939 -1.43652 0
M  V30 7248 H 695.951 3.10222 -0.94515 0
M  V30 7249 H 695.736 2.8428 -2.70051 0
M  V30 7250 H 697.226 3.61832 -2.08488 0
M  V30 7251 N 697.663 1.43903 0.642637 0
M  V30 7252 C 698.891 1.4954 1.42988 0
M  V30 7253 C 699.306 0.116588 1.8844 0
M  V30 7254 O 698.663 -0.875285 1.60141 0
M  V30 7255 C 698.714 2.45031 2.65785 0
M  V30 7256 O 698.435 3.77551 2.22232 0
M  V30 7257 C 699.936 2.60017 3.59035 0
M  V30 7258 H 697.156 0.507544 0.438907 0
M  V30 7259 H 699.7 1.88752 0.786942 0
M  V30 7260 H 697.855 2.08985 3.26196 0
M  V30 7261 H 698.269 4.29001 3.01759 0
M  V30 7262 H 699.743 3.30887 4.41835 0
M  V30 7263 H 700.22 1.64861 4.07084 0
M  V30 7264 H 700.826 2.96918 3.045 0
M  V30 7265 N 699.141 -0.881989 1.30609 0
M  V30 7266 C 700.369 -1.66711 1.22536 0
M  V30 7267 C 700.784 -1.87614 -0.2113 0
M  V30 7268 O 700.141 -1.42576 -1.13923 0
M  V30 7269 C 700.192 -3.04182 1.95335 0
M  V30 7270 O 699.913 -2.8422 3.33393 0
M  V30 7271 C 701.414 -3.98617 1.93956 0
M  V30 7272 H 698.634 -0.520124 0.423925 0
M  V30 7273 H 701.178 -1.10174 1.72285 0
M  V30 7274 H 699.333 -3.57442 1.49378 0
M  V30 7275 H 699.747 -3.71452 3.70302 0
M  V30 7276 H 701.221 -4.92433 2.49426 0
M  V30 7277 H 701.698 -4.29473 0.919198 0
M  V30 7278 H 702.304 -3.51292 2.39738 0
M  V30 7279 N 700.619 -1.13374 -1.09472 0
M  V30 7280 C 701.865 -0.896516 -1.81908 0
M  V30 7281 C 702.198 0.575933 -1.85463 0
M  V30 7282 O 701.473 1.42618 -1.32251 0
M  V30 7283 C 701.756 -1.48445 -3.28079 0
M  V30 7284 C 701.609 -3.02598 -3.32798 0
M  V30 7285 C 702.928 -1.15226 -4.24748 0
M  V30 7286 H 700.047 -0.327127 -0.660422 0
M  V30 7287 H 702.689 -1.40195 -1.2824 0
M  V30 7288 H 700.839 -1.0546 -3.73912 0
M  V30 7289 H 702.511 -3.54335 -2.95372 0
M  V30 7290 H 700.754 -3.37613 -2.72397 0
M  V30 7291 H 701.425 -3.38835 -4.3577 0
M  V30 7292 H 703.901 -1.52369 -3.87199 0
M  V30 7293 H 702.777 -1.59012 -5.25363 0
M  V30 7294 H 703.038 -0.0658891 -4.42051 0
M  V30 7295 N 702.098 1.27442 -0.927168 0
M  V30 7296 C 703.061 2.2512 -0.430525 0
M  V30 7297 C 704.061 1.54357 0.450619 0
M  V30 7298 O 705.251 1.72371 0.251774 0
M  V30 7299 C 702.383 3.38763 0.381144 0
M  V30 7300 H 703.576 2.70569 -1.29354 0
M  V30 7301 H 701.129 1.39355 -0.707806 0
M  V30 7302 H 701.864 2.98695 1.263 0
M  V30 7303 H 701.649 3.91298 -0.250618 0
M  V30 7304 H 703.139 4.11364 0.719012 0
M  V30 7305 N 703.576 0.692616 1.41565 0
M  V30 7306 C 704.824 0.221896 2.00878 0
M  V30 7307 C 705.145 -1.18164 1.5512 0
M  V30 7308 O 704.415 -1.79679 0.78054 0
M  V30 7309 H 702.995 0.0790463 0.742806 0
M  V30 7310 H 705.657 0.893115 1.73232 0
M  V30 7311 H 704.753 0.23702 3.11199 0
M  V30 7312 N 705.054 -1.51416 0.437162 0
M  V30 7313 C 706.3 -2.02386 -0.129555 0
M  V30 7314 C 706.633 -1.32071 -1.42376 0
M  V30 7315 O 705.908 -0.43559 -1.8956 0
M  V30 7316 C 706.191 -3.5841 -0.348487 0
M  V30 7317 C 706.044 -4.39341 0.964352 0
M  V30 7318 C 707.363 -4.25654 -1.11834 0
M  V30 7319 H 704.482 -0.735587 -0.0456109 0
M  V30 7320 H 707.124 -1.81055 0.576124 0
M  V30 7321 H 705.274 -3.76716 -0.949592 0
M  V30 7322 H 706.946 -4.32685 1.59942 0
M  V30 7323 H 705.189 -4.04432 1.56898 0
M  V30 7324 H 705.86 -5.4667 0.765212 0
M  V30 7325 H 708.336 -4.11617 -0.609165 0
M  V30 7326 H 707.212 -5.34704 -1.24029 0
M  V30 7327 H 707.473 -3.86502 -2.14636 0
M  V30 7328 N 706.532 -0.168513 -1.56696 0
M  V30 7329 C 707.943 0.348694 -1.83415 0
M  V30 7330 C 708.294 1.63257 -1.0882 0
M  V30 7331 O 707.419 2.13707 -0.340333 0
M  V30 7332 C 708.014 0.639423 -3.32711 0
M  V30 7333 C 706.573 1.10108 -3.59935 0
M  V30 7334 C 705.72 0.135464 -2.76969 0
M  V30 7335 H 708.671 -0.392829 -1.53761 0
M  V30 7336 H 708.692 1.49179 -3.50037 0
M  V30 7337 H 708.204 -0.295173 -3.86976 0
M  V30 7338 H 706.305 2.05088 -3.11079 0
M  V30 7339 H 706.418 1.01218 -4.68286 0
M  V30 7340 H 704.782 0.632286 -2.46727 0
M  V30 7341 H 705.565 -0.793104 -3.34013 0
M  V30 7342 N 708.01 1.57248 0.105221 0
M  V30 7343 C 709.25 1.87393 0.816283 0
M  V30 7344 C 709.614 0.758249 1.76393 0
M  V30 7345 O 710.815 0.941835 2.5176 0
M  V30 7346 C 709.086 3.22775 1.53463 0
M  V30 7347 S 710.645 3.74588 2.28537 0
M  V30 7348 H 707.463 0.656847 0.272164 0
M  V30 7349 H 710.065 1.9536 0.073909 0
M  V30 7350 H 708.769 4.01905 0.830674 0
M  V30 7351 H 708.3 3.17921 2.3171 0
M  V30 7352 H 710.315 3.47193 3.54502 0
M  V30 7353 N 709.488 -0.375779 1.53054 0
M  V30 7354 C 710.42 -1.47963 1.75042 0
M  V30 7355 C 711.433 -1.50073 0.631031 0
M  V30 7356 O 712.622 -1.53736 0.907052 0
M  V30 7357 C 709.722 -2.86767 1.80604 0
M  V30 7358 C 708.895 -3.08471 3.10104 0
M  V30 7359 C 707.954 -4.27332 3.07041 0
M  V30 7360 O 706.98 -4.22998 3.80869 0
M  V30 7361 N 708.182 -5.34214 2.27147 0
M  V30 7362 H 710.947 -1.29484 2.70285 0
M  V30 7363 H 708.508 -0.565416 1.51706 0
M  V30 7364 H 710.5 -3.64404 1.76045 0
M  V30 7365 H 709.07 -2.98542 0.926897 0
M  V30 7366 H 708.29 -2.18583 3.28048 0
M  V30 7367 H 709.578 -3.19834 3.95706 0
M  V30 7368 H 708.976 -5.40594 1.66656 0
M  V30 7369 H 707.533 -6.10467 2.28415 0
M  V30 7370 N 710.966 -1.44241 -0.634997 0
M  V30 7371 C 711.876 -1.53293 -1.77591 0
M  V30 7372 C 712.892 -0.418831 -1.68884 0
M  V30 7373 O 714.068 -0.675619 -1.8973 0
M  V30 7374 C 711.133 -1.47075 -3.13958 0
M  V30 7375 C 710.194 -2.69304 -3.34326 0
M  V30 7376 C 709.427 -2.63374 -4.64187 0
M  V30 7377 O 709.65 -1.69161 -5.44739 0
M  V30 7378 O 708.584 -3.54166 -4.86673 0
M  V30 7379 H 712.41 -2.49673 -1.72908 0
M  V30 7380 H 709.995 -1.26445 -0.795745 0
M  V30 7381 H 711.877 -1.46117 -3.95257 0
M  V30 7382 H 710.552 -0.538373 -3.19192 0
M  V30 7383 H 709.459 -2.75831 -2.52721 0
M  V30 7384 H 710.792 -3.61576 -3.33951 0
M  V30 7385 N 712.444 0.87505 -1.31075 0
M  V30 7386 C 713.69 1.63006 -1.21657 0
M  V30 7387 C 714.045 1.91088 0.224306 0
M  V30 7388 O 713.338 1.52779 1.15625 0
M  V30 7389 C 713.532 2.96948 -1.98888 0
M  V30 7390 C 713.361 2.81944 -3.50339 0
M  V30 7391 C 712.131 2.814 -4.19693 0
M  V30 7392 C 714.329 2.57171 -4.45385 0
M  V30 7393 N 712.311 2.57392 -5.57335 0
M  V30 7394 C 713.682 2.42379 -5.7066 0
M  V30 7395 C 715.737 2.42474 -4.34868 0
M  V30 7396 C 714.44 2.14385 -6.86609 0
M  V30 7397 C 716.466 2.15868 -5.50595 0
M  V30 7398 C 715.828 2.0186 -6.74857 0
M  V30 7399 H 711.927 0.601043 -0.500271 0
M  V30 7400 H 714.511 1.03033 -1.65204 0
M  V30 7401 H 712.682 3.54936 -1.57718 0
M  V30 7402 H 714.414 3.61702 -1.81531 0
M  V30 7403 H 711.169 2.93596 -3.71616 0
M  V30 7404 H 711.593 2.48373 -6.29794 0
M  V30 7405 H 716.235 2.52035 -3.39468 0
M  V30 7406 H 713.953 2.03562 -7.82041 0
M  V30 7407 H 717.539 2.05304 -5.44372 0
M  V30 7408 H 716.419 1.81562 -7.62892 0
M  V30 7409 N 713.922 1.13953 1.08869 0
M  V30 7410 C 714.885 0.824991 2.13838 0
M  V30 7411 C 715.885 -0.168198 1.59918 0
M  V30 7412 O 717.075 0.0595778 1.74098 0
M  V30 7413 C 714.207 0.228938 3.4013 0
M  V30 7414 H 715.4 1.75521 2.43171 0
M  V30 7415 H 712.953 0.94492 1.24503 0
M  V30 7416 H 713.688 -0.710227 3.16427 0
M  V30 7417 H 713.473 0.944243 3.80561 0
M  V30 7418 H 714.963 0.0259223 4.17592 0
M  V30 7419 N 715.4 -1.26948 0.933913 0
M  V30 7420 C 716.363 -2.24889 0.442457 0
M  V30 7421 C 717.363 -1.54594 -0.442426 0
M  V30 7422 O 718.553 -1.72502 -0.242629 0
M  V30 7423 C 715.685 -3.3896 -0.363173 0
M  V30 7424 H 716.878 -2.69879 1.30787 0
M  V30 7425 H 714.431 -1.38978 0.715187 0
M  V30 7426 H 715.166 -2.99361 -1.24714 0
M  V30 7427 H 714.951 -3.9116 0.271366 0
M  V30 7428 H 716.441 -4.11739 -0.697186 0
M  V30 7429 N 716.879 -0.700114 -1.41195 0
M  V30 7430 C 717.811 0.00155823 -2.292 0
M  V30 7431 C 718.824 0.739736 -1.45023 0
M  V30 7432 O 720.013 0.589684 -1.68478 0
M  V30 7433 C 717.113 1.02635 -3.22985 0
M  V30 7434 C 716.286 0.356871 -4.35942 0
M  V30 7435 C 715.345 1.28491 -5.10271 0
M  V30 7436 O 714.371 0.775562 -5.63892 0
M  V30 7437 N 715.573 2.61699 -5.18164 0
M  V30 7438 H 718.338 -0.754008 -2.9006 0
M  V30 7439 H 715.899 -0.546504 -1.52397 0
M  V30 7440 H 717.891 1.64902 -3.6958 0
M  V30 7441 H 716.461 1.68341 -2.63401 0
M  V30 7442 H 715.681 -0.445753 -3.91672 0
M  V30 7443 H 716.969 -0.108469 -5.08684 0
M  V30 7444 H 716.367 3.05594 -4.76056 0
M  V30 7445 H 714.924 3.19149 -5.6832 0
M  V30 7446 N 718.357 1.51182 -0.445186 0
M  V30 7447 C 719.267 2.31692 0.368255 0
M  V30 7448 C 720.283 1.40942 1.02036 0
M  V30 7449 O 721.459 1.74011 1.01401 0
M  V30 7450 C 718.524 3.14903 1.45041 0
M  V30 7451 C 717.585 4.21442 0.817615 0
M  V30 7452 C 716.818 5.00677 1.8482 0
M  V30 7453 O 717.041 4.80644 3.07145 0
M  V30 7454 O 715.975 5.84559 1.43438 0
M  V30 7455 H 719.801 3.0232 -0.289219 0
M  V30 7456 H 717.386 1.47951 -0.207555 0
M  V30 7457 H 719.268 3.66612 2.07783 0
M  V30 7458 H 717.943 2.47031 2.09182 0
M  V30 7459 H 716.85 3.73791 0.151931 0
M  V30 7460 H 718.183 4.9171 0.219564 0
M  V30 7461 N 719.835 0.176821 1.56605 0
M  V30 7462 C 721.246 -0.338963 1.83597 0
M  V30 7463 C 721.597 -1.62677 1.09684 0
M  V30 7464 O 720.722 -2.13524 0.351661 0
M  V30 7465 C 721.317 -0.62177 3.33046 0
M  V30 7466 C 719.876 -1.08198 3.60514 0
M  V30 7467 C 719.023 -0.120774 2.77037 0
M  V30 7468 H 721.974 0.400978 1.53551 0
M  V30 7469 H 721.995 -1.47321 3.50823 0
M  V30 7470 H 721.507 0.315692 3.86814 0
M  V30 7471 H 719.608 -2.03435 3.12162 0
M  V30 7472 H 719.721 -0.987329 4.68816 0
M  V30 7473 H 718.085 -0.619192 2.47059 0
M  V30 7474 H 718.868 0.810806 3.33588 0
M  V30 7475 N 721.313 -1.57302 -0.09688 0
M  V30 7476 C 722.263 -1.98369 -1.12399 0
M  V30 7477 C 723.247 -0.861872 -1.3587 0
M  V30 7478 O 724.439 -1.1257 -1.36591 0
M  V30 7479 C 721.568 -2.41017 -2.4447 0
M  V30 7480 C 720.654 -3.59881 -2.24381 0
M  V30 7481 N 721.045 -4.74872 -1.74155 0
M  V30 7482 C 719.343 -3.65943 -2.54954 0
M  V30 7483 C 720.044 -5.56823 -1.68294 0
M  V30 7484 N 719.02 -4.99942 -2.13444 0
M  V30 7485 H 722.822 -2.84726 -0.728575 0
M  V30 7486 H 720.336 -1.59523 -0.304332 0
M  V30 7487 H 722.333 -2.68665 -3.18786 0
M  V30 7488 H 720.993 -1.56036 -2.84751 0
M  V30 7489 H 722.004 -4.97657 -1.43379 0
M  V30 7490 H 718.681 -2.9162 -2.98771 0
M  V30 7491 H 720.071 -6.59099 -1.30528 0
M  V30 7492 N 722.791 0.367657 -1.53252 0
M  V30 7493 C 723.723 1.47032 -1.75824 0
M  V30 7494 C 724.736 1.49736 -0.63898 0
M  V30 7495 O 725.925 1.53253 -0.915193 0
M  V30 7496 C 723.025 2.85805 -1.82122 0
M  V30 7497 C 722.198 3.06822 -3.11736 0
M  V30 7498 C 721.257 4.25698 -3.09302 0
M  V30 7499 O 720.283 4.20972 -3.83107 0
M  V30 7500 N 721.485 5.33002 -2.29977 0
M  V30 7501 H 724.25 1.28048 -2.70968 0
M  V30 7502 H 721.811 0.557363 -1.52004 0
M  V30 7503 H 723.803 3.63465 -1.77975 0
M  V30 7504 H 722.373 2.98046 -0.942716 0
M  V30 7505 H 721.593 2.1684 -3.29202 0
M  V30 7506 H 722.881 3.17731 -3.97397 0
M  V30 7507 H 722.279 5.39703 -1.69521 0
M  V30 7508 H 720.836 6.09247 -2.3165 0
M  V30 7509 N 724.269 1.44576 0.627338 0
M  V30 7510 C 725.219 1.48168 1.73293 0
M  V30 7511 C 726.203 0.347045 1.57113 0
M  V30 7512 O 727.395 0.592605 1.66785 0
M  V30 7513 C 724.524 1.43236 3.11991 0
M  V30 7514 C 723.61 2.61828 3.33627 0
M  V30 7515 N 724.001 3.87053 3.25612 0
M  V30 7516 C 722.299 2.57104 3.64436 0
M  V30 7517 C 723 4.66093 3.48041 0
M  V30 7518 N 721.976 3.97228 3.71095 0
M  V30 7519 H 725.778 2.42832 1.6556 0
M  V30 7520 H 723.292 1.39592 0.829934 0
M  V30 7521 H 725.289 1.43893 3.91281 0
M  V30 7522 H 723.949 0.496133 3.20887 0
M  V30 7523 H 724.96 4.18966 3.04447 0
M  V30 7524 H 721.637 1.72295 3.8029 0
M  V30 7525 H 723.027 5.75117 3.47404 0
M  V30 7526 N 725.747 -0.868086 1.31537 0
M  V30 7527 C 726.972 -1.65926 1.24432 0
M  V30 7528 C 727.397 -1.87169 -0.186936 0
M  V30 7529 O 726.755 -1.4148 -1.13371 0
M  V30 7530 C 726.803 -3.00347 1.9956 0
M  V30 7531 O 725.907 -3.90221 1.33422 0
M  V30 7532 H 725.248 -0.506375 0.429512 0
M  V30 7533 H 727.778 -1.0822 1.73637 0
M  V30 7534 H 727.788 -3.50269 2.09226 0
M  V30 7535 H 726.463 -2.84205 3.03645 0
M  V30 7536 H 725.04 -3.48672 1.32219 0
M  V30 7537 N 727.225 -1.14528 -1.08264 0
M  V30 7538 C 728.474 -0.908992 -1.80056 0
M  V30 7539 C 728.787 0.565859 -1.87236 0
M  V30 7540 O 729.993 0.919454 -2.55457 0
M  V30 7541 C 728.449 -1.57681 -3.23519 0
M  V30 7542 C 728.057 -3.08803 -3.24569 0
M  V30 7543 C 729.801 -1.4217 -3.99985 0
M  V30 7544 C 727.708 -3.68414 -4.62629 0
M  V30 7545 H 726.638 -0.336432 -0.674781 0
M  V30 7546 H 729.289 -1.37437 -1.21587 0
M  V30 7547 H 727.671 -1.03911 -3.82124 0
M  V30 7548 H 728.845 -3.69252 -2.75663 0
M  V30 7549 H 727.16 -3.23968 -2.61598 0
M  V30 7550 H 729.757 -1.84106 -5.02005 0
M  V30 7551 H 730.1 -0.367989 -4.1467 0
M  V30 7552 H 730.633 -1.92984 -3.47853 0
M  V30 7553 H 727.372 -4.73644 -4.53147 0
M  V30 7554 H 726.892 -3.12746 -5.11811 0
M  V30 7555 H 728.571 -3.68793 -5.31602 0
M  V30 7556 N 728.703 1.26451 -0.940633 0
M  V30 7557 C 729.95 1.93778 -0.587909 0
M  V30 7558 C 730.278 1.73811 0.872935 0
M  V30 7559 O 729.533 1.06816 1.63978 0
M  V30 7560 C 729.832 3.46503 -0.875794 0
M  V30 7561 C 729.498 3.86609 -2.32043 0
M  V30 7562 C 728.16 3.97269 -2.71534 0
M  V30 7563 C 730.512 4.0672 -3.25927 0
M  V30 7564 C 727.84 4.25436 -4.04006 0
M  V30 7565 C 730.192 4.36375 -4.57995 0
M  V30 7566 C 728.856 4.45249 -4.97302 0
M  V30 7567 H 728.126 0.709084 -0.215131 0
M  V30 7568 H 730.773 1.50272 -1.18704 0
M  V30 7569 H 729.078 3.91319 -0.194124 0
M  V30 7570 H 730.775 3.96759 -0.581665 0
M  V30 7571 H 727.365 3.78858 -2.00411 0
M  V30 7572 H 731.549 3.97912 -2.96614 0
M  V30 7573 H 726.805 4.30519 -4.34124 0
M  V30 7574 H 730.979 4.50882 -5.30734 0
M  V30 7575 H 728.606 4.66829 -5.99979 0
M  V30 7576 N 730.181 0.707592 1.40822 0
M  V30 7577 C 731.409 0.253073 2.05346 0
M  V30 7578 C 731.824 -1.10218 1.53289 0
M  V30 7579 O 731.181 -1.69112 0.686105 0
M  V30 7580 C 731.232 0.215411 3.60858 0
M  V30 7581 O 730.953 1.51714 4.10992 0
M  V30 7582 C 732.454 -0.258636 4.42545 0
M  V30 7583 H 729.674 0.115256 0.661027 0
M  V30 7584 H 732.218 0.963555 1.80377 0
M  V30 7585 H 730.373 -0.445978 3.84824 0
M  V30 7586 H 730.787 1.41226 5.05129 0
M  V30 7587 H 732.261 -0.233849 5.51504 0
M  V30 7588 H 732.738 -1.2995 4.19535 0
M  V30 7589 H 733.344 0.372186 4.23668 0
M  V30 7590 N 731.66 -1.50943 0.453197 0
M  V30 7591 C 733.071 -1.86699 -0.00619892 0
M  V30 7592 C 733.422 -1.3693 -1.40515 0
M  V30 7593 O 732.547 -0.726715 -2.03833 0
M  V30 7594 C 733.142 -3.38795 -0.018025 0
M  V30 7595 C 731.701 -3.74028 -0.421885 0
M  V30 7596 C 730.848 -2.74752 0.375087 0
M  V30 7597 H 733.799 -1.43942 0.668317 0
M  V30 7598 H 733.82 -3.71468 -0.824125 0
M  V30 7599 H 733.332 -3.74988 1.00028 0
M  V30 7600 H 731.433 -3.43431 -1.44521 0
M  V30 7601 H 731.546 -4.78908 -0.135664 0
M  V30 7602 H 729.91 -2.5414 -0.168794 0
M  V30 7603 H 730.693 -3.13787 1.39256 0
M  V30 7604 N 733.138 -0.185124 -1.56509 0
M  V30 7605 C 734.048 0.751908 -2.22224 0
M  V30 7606 C 735.064 1.24244 -1.21817 0
M  V30 7607 O 736.24 1.29169 -1.54523 0
M  V30 7608 C 733.305 1.95837 -2.86092 0
M  V30 7609 C 732.366 1.51337 -4.01741 0
M  V30 7610 C 731.599 2.66233 -4.62554 0
M  V30 7611 O 731.822 3.8346 -4.22273 0
M  V30 7612 O 730.756 2.39517 -5.52191 0
M  V30 7613 H 734.582 0.222304 -3.02885 0
M  V30 7614 H 732.167 0.0437141 -1.49336 0
M  V30 7615 H 734.049 2.66368 -3.26536 0
M  V30 7616 H 732.724 2.47677 -2.08417 0
M  V30 7617 H 731.631 0.777155 -3.65939 0
M  V30 7618 H 732.964 1.04175 -4.81049 0
M  V30 7619 N 734.616 1.57351 0.0885366 0
M  V30 7620 C 735.844 1.90631 0.804196 0
M  V30 7621 C 736.259 0.779474 1.71958 0
M  V30 7622 O 735.616 -0.248179 1.80805 0
M  V30 7623 C 735.667 3.23568 1.61202 0
M  V30 7624 O 735.388 4.31917 0.733447 0
M  V30 7625 C 736.889 3.70753 2.43016 0
M  V30 7626 H 734.109 0.630501 0.229585 0
M  V30 7627 H 736.653 2.044 0.0638092 0
M  V30 7628 H 734.808 3.11377 2.30485 0
M  V30 7629 H 735.222 5.08297 1.29361 0
M  V30 7630 H 736.696 4.66447 2.9518 0
M  V30 7631 H 737.173 2.98922 3.2178 0
M  V30 7632 H 737.779 3.85834 1.7892 0
M  V30 7633 N 736.094 -0.359525 1.53444 0
M  V30 7634 C 737.042 -1.46104 1.80987 0
M  V30 7635 C 738.036 -1.55181 0.679351 0
M  V30 7636 O 739.242 -1.57995 0.862405 0
M  V30 7637 H 735.617 -0.486835 0.573145 0
M  V30 7638 H 737.588 -1.2008 2.73173 0
M  V30 7639 C 736.337 -2.82855 2.02208 0
M  V30 7640 H 735.66 -2.76631 2.88644 0
M  V30 7641 H 737.1 -3.59091 2.25455 0
M  V30 7642 C 735.559 -3.27192 0.802931 0
M  V30 7643 O 736.089 -4.017 -0.00544286 0
M  V30 7644 N 734.295 -2.83807 0.624657 0
M  V30 7645 H 733.842 -2.23339 1.28364 0
M  V30 7646 H 733.8 -3.13828 -0.189641 0
M  V30 7647 N 737.572 -1.44907 -0.619662 0
M  V30 7648 C 738.983 -1.42905 -1.20146 0
M  V30 7649 C 739.334 -0.150341 -1.95623 0
M  V30 7650 O 738.459 0.748732 -2.03034 0
M  V30 7651 C 739.054 -2.58889 -2.18545 0
M  V30 7652 C 737.613 -2.60046 -2.72127 0
M  V30 7653 C 736.76 -2.3493 -1.4732 0
M  V30 7654 H 739.711 -1.53321 -0.409666 0
M  V30 7655 H 739.732 -2.32298 -3.0136 0
M  V30 7656 H 739.244 -3.51941 -1.63583 0
M  V30 7657 H 737.345 -1.70968 -3.3106 0
M  V30 7658 H 737.458 -3.58893 -3.17384 0
M  V30 7659 H 735.822 -1.84248 -1.75855 0
M  V30 7660 H 736.605 -3.3011 -0.942442 0
M  V30 7661 N 739.05 0.861098 -1.31996 0
M  V30 7662 C 739.982 1.97551 -1.16216 0
M  V30 7663 C 740.995 1.625 -0.0988527 0
M  V30 7664 O 742.184 1.75091 -0.3472 0
M  V30 7665 C 739.284 3.30376 -0.755307 0
M  V30 7666 C 738.457 3.93711 -1.90552 0
M  V30 7667 C 737.516 5.04862 -1.48328 0
M  V30 7668 O 736.542 5.25204 -2.19431 0
M  V30 7669 N 737.744 5.79283 -0.375656 0
M  V30 7670 H 740.509 2.11632 -2.12208 0
M  V30 7671 H 738.07 1.03559 -1.24448 0
M  V30 7672 H 740.062 4.0213 -0.455364 0
M  V30 7673 H 738.632 3.12395 0.113269 0
M  V30 7674 H 737.852 3.14825 -2.37231 0
M  V30 7675 H 739.14 4.32762 -2.67571 0
M  V30 7676 H 738.538 5.65286 0.216284 0
M  V30 7677 H 737.095 6.5166 -0.135289 0
M  V30 7678 N 740.528 1.15101 1.07655 0
M  V30 7679 C 741.753 0.948177 1.84457 0
M  V30 7680 C 742.178 -0.498432 1.81376 0
M  V30 7681 O 741.536 -1.35509 1.20445 0
M  V30 7682 C 741.584 1.46318 3.29581 0
M  V30 7683 O 740.688 0.660342 4.07079 0
M  V30 7684 H 740.029 0.338428 0.571281 0
M  V30 7685 H 742.559 1.5301 1.35828 0
M  V30 7686 H 742.569 1.47468 3.80417 0
M  V30 7687 H 741.244 2.51635 3.31138 0
M  V30 7688 H 739.821 0.718216 3.65918 0
M  V30 7689 N 742.006 -1.2595 0.947325 0
M  V30 7690 C 743.254 -1.93081 0.596996 0
M  V30 7691 C 743.575 -1.74632 -0.867672 0
M  V30 7692 O 742.845 -1.1056 -1.6172 0
M  V30 7693 H 741.425 -0.714542 0.217805 0
M  V30 7694 H 744.087 -1.53265 1.20398 0
M  V30 7695 H 743.183 -3.01134 0.82004 0
M  V30 7696 N 743.484 -0.715051 -1.40445 0
M  V30 7697 C 744.414 -0.0768699 -2.33373 0
M  V30 7698 C 745.395 0.746109 -1.52863 0
M  V30 7699 O 746.58 0.695142 -1.81332 0
M  V30 7700 C 743.71 0.846014 -3.36838 0
M  V30 7701 C 742.664 0.128694 -4.27806 0
M  V30 7702 C 741.99 1.16726 -5.21804 0
M  V30 7703 C 743.29 -1.01679 -5.12307 0
M  V30 7704 H 744.984 -0.853061 -2.8699 0
M  V30 7705 H 742.53 -0.41167 -1.3799 0
M  V30 7706 H 744.483 1.30185 -4.00786 0
M  V30 7707 H 743.207 1.6541 -2.81615 0
M  V30 7708 H 741.866 -0.307314 -3.6531 0
M  V30 7709 H 741.514 1.96838 -4.62887 0
M  V30 7710 H 741.214 0.692188 -5.83509 0
M  V30 7711 H 742.738 1.62321 -5.88629 0
M  V30 7712 H 744.152 -0.640337 -5.69713 0
M  V30 7713 H 742.549 -1.4202 -5.83053 0
M  V30 7714 H 743.619 -1.84769 -4.48317 0
M  V30 7715 N 744.962 1.50701 -0.461195 0
M  V30 7716 C 745.872 2.32069 0.343661 0
M  V30 7717 C 746.888 1.42016 1.00535 0
M  V30 7718 O 748.064 1.75077 0.995498 0
M  V30 7719 C 745.129 3.16424 1.41692 0
M  V30 7720 C 744.19 4.22286 0.772869 0
M  V30 7721 C 743.423 5.02609 1.79499 0
M  V30 7722 O 743.646 4.83874 3.0203 0
M  V30 7723 O 742.58 5.86047 1.3723 0
M  V30 7724 H 746.406 3.01996 -0.321268 0
M  V30 7725 H 743.991 1.47723 -0.223235 0
M  V30 7726 H 745.873 3.68795 2.03883 0
M  V30 7727 H 744.548 2.49236 2.0655 0
M  V30 7728 H 743.455 3.73931 0.112277 0
M  V30 7729 H 744.788 4.91915 0.167399 0
M  V30 7730 N 746.441 0.193421 1.56409 0
M  V30 7731 C 747.857 -0.162447 1.58771 0
M  V30 7732 C 748.057 -1.6116 1.20954 0
M  V30 7733 O 747.113 -2.3469 0.931497 0
M  V30 7734 C 748.426 0.138391 3.00381 0
M  V30 7735 C 749.974 0.0783649 3.12902 0
M  V30 7736 C 750.449 0.352491 4.56642 0
M  V30 7737 N 751.94 0.30105 4.62221 0
M  V30 7738 C 752.675 0.487028 5.71328 0
M  V30 7739 N 752.171 0.733265 6.88909 0
M  V30 7740 N 753.964 0.4214 5.60518 0
M  V30 7741 H 746.115 1.13909 1.79272 0
M  V30 7742 H 748.378 0.454528 0.83193 0
M  V30 7743 H 748.084 1.14312 3.32604 0
M  V30 7744 H 747.958 -0.559804 3.73023 0
M  V30 7745 H 750.345 -0.916963 2.80492 0
M  V30 7746 H 750.426 0.809611 2.4265 0
M  V30 7747 H 750.07 1.34513 4.89764 0
M  V30 7748 H 750 -0.399624 5.25081 0
M  V30 7749 H 752.491 0.117279 3.77718 0
M  V30 7750 H 752.804 0.86403 7.67955 0
M  V30 7751 H 751.149 0.770138 6.9072 0
M  V30 7752 H 754.34 0.229461 4.67537 0
M  V30 7753 H 754.513 0.569758 6.4549 0
M  V30 7754 N 747.919 -1.57396 -0.0801906 0
M  V30 7755 C 748.867 -2.04136 -1.11495 0
M  V30 7756 C 749.861 -0.945137 -1.40583 0
M  V30 7757 O 751.067 -1.13028 -1.40088 0
M  V30 7758 H 747.442 -0.65076 -0.37685 0
M  V30 7759 H 749.413 -2.90205 -0.694526 0
M  V30 7760 C 748.162 -2.49399 -2.42272 0
M  V30 7761 H 747.485 -3.33339 -2.20737 0
M  V30 7762 H 748.925 -2.85864 -3.13142 0
M  V30 7763 C 747.384 -1.37341 -3.07635 0
M  V30 7764 O 747.914 -0.710829 -3.95361 0
M  V30 7765 N 746.12 -1.12064 -2.68123 0
M  V30 7766 H 745.667 -1.66126 -1.96875 0
M  V30 7767 H 745.625 -0.372916 -3.12181 0
M  V30 7768 N 749.397 0.351382 -1.53633 0
M  V30 7769 C 750.627 1.11113 -1.74176 0
M  V30 7770 C 751.035 1.83084 -0.477154 0
M  V30 7771 O 750.378 1.74941 0.560483 0
M  V30 7772 C 750.44 2.17521 -2.86225 0
M  V30 7773 C 750.104 1.65193 -4.26099 0
M  V30 7774 C 751.101 1.10842 -5.07947 0
M  V30 7775 C 748.786 1.70277 -4.72558 0
M  V30 7776 C 750.78 0.622689 -6.34351 0
M  V30 7777 C 748.467 1.21316 -5.98937 0
M  V30 7778 C 749.465 0.674033 -6.79666 0
M  V30 7779 O 749.153 0.191696 -8.03671 0
M  V30 7780 H 748.885 0.33756 -0.585687 0
M  V30 7781 H 751.439 0.411786 -2.0123 0
M  V30 7782 H 749.669 2.90991 -2.54678 0
M  V30 7783 H 751.358 2.78999 -2.94812 0
M  V30 7784 H 752.124 1.06243 -4.7322 0
M  V30 7785 H 748.003 2.11181 -4.09785 0
M  V30 7786 H 751.547 0.201216 -6.9731 0
M  V30 7787 H 747.444 1.25613 -6.3316 0
M  V30 7788 H 748.212 0.309712 -8.17914 0
M  V30 7789 N 750.875 1.45233 0.611969 0
M  V30 7790 C 752.115 1.50558 1.38245 0
M  V30 7791 C 752.479 0.141959 1.91474 0
M  V30 7792 O 753.68 0.0698926 2.68709 0
M  V30 7793 C 751.951 2.55136 2.50281 0
M  V30 7794 S 753.51 2.79652 3.38142 0
M  V30 7795 H 750.328 0.532281 0.471378 0
M  V30 7796 H 752.93 1.82285 0.706578 0
M  V30 7797 H 751.634 3.52888 2.09518 0
M  V30 7798 H 751.165 2.25045 3.22674 0
M  V30 7799 H 753.18 2.12699 4.48301 0
M  V30 7800 N 752.353 -0.854086 1.3245 0
M  V30 7801 C 753.769 -1.14238 1.11453 0
M  V30 7802 C 753.969 -2.01228 -0.10461 0
M  V30 7803 O 753.025 -2.39845 -0.789339 0
M  V30 7804 C 754.338 -1.81916 2.39431 0
M  V30 7805 C 755.886 -1.94549 2.45193 0
M  V30 7806 C 756.361 -2.65642 3.73093 0
M  V30 7807 N 757.852 -2.73167 3.74078 0
M  V30 7808 C 758.587 -3.28828 4.69744 0
M  V30 7809 N 758.083 -3.85295 5.75778 0
M  V30 7810 N 759.876 -3.26936 4.57241 0
M  V30 7811 H 752.027 -0.274786 2.10615 0
M  V30 7812 H 754.29 -0.184375 0.929898 0
M  V30 7813 H 753.996 -1.25452 3.28565 0
M  V30 7814 H 753.87 -2.82068 2.50434 0
M  V30 7815 H 756.257 -2.50172 1.56518 0
M  V30 7816 H 756.338 -0.933914 2.38142 0
M  V30 7817 H 755.982 -2.10683 4.62142 0
M  V30 7818 H 755.912 -3.6724 3.77415 0
M  V30 7819 H 758.403 -2.33108 2.97438 0
M  V30 7820 H 758.716 -4.25925 6.44832 0
M  V30 7821 H 757.061 -3.83625 5.79531 0
M  V30 7822 H 760.252 -2.8207 3.7357 0
M  V30 7823 H 760.425 -3.70014 5.31971 0
M  V30 7824 N 753.831 -1.1567 -1.07043 0
M  V30 7825 C 754.779 -0.852204 -2.16426 0
M  V30 7826 C 755.773 0.175661 -1.68487 0
M  V30 7827 O 756.979 0.0303874 -1.79974 0
M  V30 7828 H 753.354 -0.257942 -0.706378 0
M  V30 7829 H 755.325 -1.78231 -2.39324 0
M  V30 7830 C 754.074 -0.361362 -3.45817 0
M  V30 7831 H 753.397 -1.14369 -3.83092 0
M  V30 7832 H 754.837 -0.186997 -4.23587 0
M  V30 7833 C 753.296 0.917703 -3.2416 0
M  V30 7834 O 753.826 1.98858 -3.49025 0
M  V30 7835 N 752.032 0.858456 -2.77631 0
M  V30 7836 H 751.579 -0.0131821 -2.57597 0
M  V30 7837 H 751.537 1.71478 -2.6352 0
M  V30 7838 N 755.309 1.25446 -0.953992 0
M  V30 7839 C 756.72 1.75047 -0.649255 0
M  V30 7840 C 757.071 1.77527 0.835385 0
M  V30 7841 O 756.196 1.39569 1.65377 0
M  V30 7842 C 756.791 3.17889 -1.17183 0
M  V30 7843 C 755.35 3.65052 -0.917267 0
M  V30 7844 C 754.497 2.44124 -1.31525 0
M  V30 7845 H 757.448 1.11342 -1.13087 0
M  V30 7846 H 757.469 3.76768 -0.531616 0
M  V30 7847 H 756.981 3.16052 -2.25239 0
M  V30 7848 H 755.082 3.72305 0.148354 0
M  V30 7849 H 755.195 4.53222 -1.55328 0
M  V30 7850 H 753.559 2.43906 -0.733624 0
M  V30 7851 H 754.342 2.44979 -2.405 0
M  V30 7852 N 756.787 0.722489 1.40064 0
M  V30 7853 C 758.064 0.191829 1.94657 0
M  V30 7854 C 758.444 -1.30389 1.66018 0
M  V30 7855 O 757.792 -2.06342 0.981588 0
M  V30 7856 C 758.002 0.511978 3.45224 0
M  V30 7857 C 759.35 0.454426 4.22161 0
M  V30 7858 O 760.374 0.448438 3.53366 0
M  V30 7859 O 759.233 0.437986 5.44742 0
M  V30 7860 H 756.327 0.0307821 0.826427 0
M  V30 7861 H 758.873 0.800493 1.49634 0
M  V30 7862 H 757.645 1.54622 3.59455 0
M  V30 7863 H 757.268 -0.126296 3.97399 0
M  V30 7864 N 758.265 -1.50454 0.469181 0
M  V30 7865 C 759.513 -2.01916 -0.0862982 0
M  V30 7866 C 759.834 -1.35337 -1.40388 0
M  V30 7867 O 759.104 -0.498096 -1.89462 0
M  V30 7868 H 757.684 -0.746185 -0.0348825 0
M  V30 7869 H 760.346 -1.84804 0.619167 0
M  V30 7870 H 759.442 -3.11182 -0.239189 0
M  V30 7871 N 759.743 -0.201713 -1.56304 0
M  V30 7872 C 761.02 0.483273 -1.89536 0
M  V30 7873 C 761.4 1.79176 -1.11621 0
M  V30 7874 O 760.748 2.27445 -0.219339 0
M  V30 7875 C 760.958 0.695604 -3.41998 0
M  V30 7876 C 762.306 1.012 -4.12364 0
M  V30 7877 O 763.33 0.783094 -3.47485 0
M  V30 7878 O 762.189 1.44534 -5.27041 0
M  V30 7879 H 759.283 0.252801 -0.787414 0
M  V30 7880 H 761.829 -0.24242 -1.6796 0
M  V30 7881 H 760.601 -0.228165 -3.90634 0
M  V30 7882 H 760.224 1.47351 -3.69288 0
M  V30 7883 N 761.222 1.57436 0.0718424 0
M  V30 7884 C 762.468 1.87525 0.772149 0
M  V30 7885 C 762.801 0.79399 1.77227 0
M  V30 7886 O 762.076 -0.195733 1.93513 0
M  V30 7887 C 762.359 3.28272 1.48018 0
M  V30 7888 C 762.212 4.47052 0.49647 0
M  V30 7889 C 763.531 3.67256 2.42509 0
M  V30 7890 H 760.65 0.682049 0.279245 0
M  V30 7891 H 763.292 1.89967 0.03534 0
M  V30 7892 H 761.442 3.26321 2.10824 0
M  V30 7893 H 763.114 4.61127 -0.126375 0
M  V30 7894 H 761.357 4.33392 -0.188205 0
M  V30 7895 H 762.028 5.42315 1.02949 0
M  V30 7896 H 764.504 3.70301 1.89781 0
M  V30 7897 H 763.38 4.66626 2.89053 0
M  V30 7898 H 763.641 2.97186 3.27312 0
M  V30 7899 N 762.7 -0.34323 1.53817 0
M  V30 7900 C 763.648 -1.44176 1.82527 0
M  V30 7901 C 764.642 -1.54452 0.695772 0
M  V30 7902 O 765.848 -1.57072 0.879114 0
M  V30 7903 H 762.223 -0.480729 0.578277 0
M  V30 7904 H 764.194 -1.17176 2.74431 0
M  V30 7905 C 762.943 -2.80695 2.05197 0
M  V30 7906 H 762.266 -2.73554 2.91561 0
M  V30 7907 H 763.706 -3.56679 2.29251 0
M  V30 7908 C 762.165 -3.26322 0.837589 0
M  V30 7909 O 762.695 -4.01683 0.0371631 0
M  V30 7910 N 760.901 -2.83128 0.654724 0
M  V30 7911 H 760.448 -2.21965 1.30725 0
M  V30 7912 H 760.406 -3.14011 -0.156345 0
M  V30 7913 N 764.178 -1.45556 -0.604258 0
M  V30 7914 C 765.426 -1.4945 -1.36048 0
M  V30 7915 C 765.747 -0.138933 -1.94504 0
M  V30 7916 O 765.017 0.832097 -1.7735 0
M  V30 7917 H 763.597 -0.550381 -0.505064 0
M  V30 7918 H 766.259 -1.81535 -0.709308 0
M  V30 7919 H 765.355 -2.23519 -2.17821 0
M  V30 7920 N 765.656 0.84705 -1.32902 0
M  V30 7921 C 767.067 1.41785 -1.21466 0
M  V30 7922 C 767.418 1.95464 0.169767 0
M  V30 7923 O 766.543 1.88157 1.06892 0
M  V30 7924 C 767.138 2.57734 -2.19906 0
M  V30 7925 C 765.697 3.10791 -2.12334 0
M  V30 7926 C 764.844 1.83562 -2.07847 0
M  V30 7927 H 767.795 0.653532 -1.44619 0
M  V30 7928 H 767.816 3.35123 -1.80202 0
M  V30 7929 H 767.328 2.18635 -3.20656 0
M  V30 7930 H 765.429 3.54455 -1.14858 0
M  V30 7931 H 765.542 3.71519 -3.02506 0
M  V30 7932 H 763.906 2.03475 -1.53199 0
M  V30 7933 H 764.689 1.4667 -3.10392 0
M  V30 7934 N 767.134 1.16236 1.06428 0
M  V30 7935 C 768.38 0.954417 1.79617 0
M  V30 7936 C 768.735 -0.512411 1.85451 0
M  V30 7937 O 768.028 -1.37523 1.33409 0
M  V30 7938 C 768.222 1.51396 3.2375 0
M  V30 7939 C 768.051 3.03367 3.31962 0
M  V30 7940 C 766.821 3.71996 3.41975 0
M  V30 7941 C 769.019 4.01075 3.21937 0
M  V30 7942 N 767.001 5.11688 3.39187 0
M  V30 7943 C 768.372 5.27142 3.26376 0
M  V30 7944 C 770.427 3.92917 3.05812 0
M  V30 7945 C 769.13 6.46 3.16348 0
M  V30 7946 C 771.156 5.11344 2.97121 0
M  V30 7947 C 770.518 6.36291 3.02181 0
M  V30 7948 H 766.617 0.403007 0.670156 0
M  V30 7949 H 769.201 1.47605 1.26968 0
M  V30 7950 H 767.372 1.01883 3.74799 0
M  V30 7951 H 769.104 1.2439 3.85109 0
M  V30 7952 H 765.859 3.22623 3.46715 0
M  V30 7953 H 766.283 5.84676 3.41297 0
M  V30 7954 H 770.925 2.97172 3.00746 0
M  V30 7955 H 768.643 7.41968 3.2017 0
M  V30 7956 H 772.229 5.06801 2.85734 0
M  V30 7957 H 771.109 7.26389 2.95513 0
M  V30 7958 N 768.612 -1.24939 0.960631 0
M  V30 7959 C 769.852 -1.94565 0.626414 0
M  V30 7960 C 770.216 -1.73505 -0.822184 0
M  V30 7961 O 771.417 -2.37105 -1.26628 0
M  V30 7962 C 769.688 -3.43631 0.982462 0
M  V30 7963 S 771.247 -4.32138 0.761726 0
M  V30 7964 H 768.065 -0.672757 0.230043 0
M  V30 7965 H 770.667 -1.51464 1.23608 0
M  V30 7966 H 769.371 -3.56463 2.03377 0
M  V30 7967 H 768.902 -3.91719 0.363286 0
M  V30 7968 H 770.917 -4.94859 -0.364493 0
M  V30 7969 N 770.09 -0.729906 -1.39679 0
M  V30 7970 C 771.32 -0.285295 -2.04621 0
M  V30 7971 C 771.728 1.08304 -1.55135 0
M  V30 7972 O 771.071 1.6946 -0.709146 0
M  V30 7973 C 771.133 -0.203129 -3.58926 0
M  V30 7974 C 770.797 -1.50909 -4.31365 0
M  V30 7975 C 771.794 -2.45381 -4.58349 0
M  V30 7976 C 769.479 -1.77198 -4.70007 0
M  V30 7977 C 771.473 -3.64379 -5.22979 0
M  V30 7978 C 769.16 -2.96474 -5.34365 0
M  V30 7979 C 770.158 -3.89886 -5.60783 0
M  V30 7980 O 769.846 -5.07069 -6.23808 0
M  V30 7981 H 769.578 -0.123373 -0.664647 0
M  V30 7982 H 772.132 -0.992901 -1.79807 0
M  V30 7983 H 770.362 0.560538 -3.82616 0
M  V30 7984 H 772.051 0.208811 -4.05363 0
M  V30 7985 H 772.817 -2.2634 -4.28947 0
M  V30 7986 H 768.696 -1.05337 -4.48804 0
M  V30 7987 H 772.24 -4.37307 -5.43515 0
M  V30 7988 H 768.137 -3.15419 -5.63188 0
M  V30 7989 H 768.905 -5.07335 -6.42303 0
M  V30 7990 N 771.568 1.50203 -0.477153 0
M  V30 7991 C 772.796 2.0677 0.0732489 0
M  V30 7992 C 773.211 1.34033 1.32968 0
M  V30 7993 O 772.568 0.411412 1.77802 0
M  V30 7994 C 772.619 3.59751 0.35518 0
M  V30 7995 O 772.34 4.29747 -0.851425 0
M  V30 7996 C 773.841 4.3296 0.951877 0
M  V30 7997 H 771.061 0.670929 -0.00978923 0
M  V30 7998 H 773.605 1.93293 -0.667676 0
M  V30 7999 H 771.76 3.7301 1.04605 0
M  V30 8000 H 772.174 5.2106 -0.599708 0
M  V30 8001 H 773.648 5.40952 1.09888 0
M  V30 8002 H 774.125 3.93856 1.94356 0
M  V30 8003 H 774.731 4.24246 0.299208 0
M  V30 8004 N 773.046 0.209999 1.56195 0
M  V30 8005 C 773.979 -0.744546 2.15712 0
M  V30 8006 C 774.957 -1.19917 1.09812 0
M  V30 8007 O 776.141 -1.284 1.38006 0
M  V30 8008 C 773.268 -2.00733 2.72807 0
M  V30 8009 C 772.314 -1.69363 3.91431 0
M  V30 8010 S 773.147 -0.828579 5.29051 0
M  V30 8011 C 774.303 -2.10118 5.89577 0
M  V30 8012 H 774.536 -0.238636 2.96341 0
M  V30 8013 H 772.069 -0.00517877 1.54399 0
M  V30 8014 H 774.027 -2.73246 3.06344 0
M  V30 8015 H 772.688 -2.48436 1.92193 0
M  V30 8016 H 771.881 -2.63157 4.29842 0
M  V30 8017 H 771.483 -1.04921 3.58981 0
M  V30 8018 H 773.775 -3.05231 6.04847 0
M  V30 8019 H 774.718 -1.76116 6.85849 0
M  V30 8020 H 775.126 -2.23644 5.18308 0
M  V30 8021 N 774.524 -1.57472 -0.0634922 0
M  V30 8022 C 775.472 -2.05307 -1.09323 0
M  V30 8023 C 776.466 -0.959995 -1.39572 0
M  V30 8024 O 777.672 -1.14507 -1.38882 0
M  V30 8025 H 774.047 -0.65472 -0.369927 0
M  V30 8026 H 776.018 -2.90925 -0.663707 0
M  V30 8027 C 774.767 -2.51954 -2.39613 0
M  V30 8028 H 774.09 -3.35662 -2.1719 0
M  V30 8029 H 775.53 -2.89169 -3.10092 0
M  V30 8030 C 773.989 -1.40596 -3.06161 0
M  V30 8031 O 774.519 -0.752722 -3.94585 0
M  V30 8032 N 772.725 -1.14902 -2.66919 0
M  V30 8033 H 772.272 -1.68205 -1.95102 0
M  V30 8034 H 772.23 -0.406006 -3.11767 0
M  V30 8035 N 776.003 0.335068 -1.53997 0
M  V30 8036 C 777.414 0.910191 -1.6301 0
M  V30 8037 C 777.765 1.89271 -0.516809 0
M  V30 8038 O 776.89 2.13516 0.352123 0
M  V30 8039 C 777.485 1.65761 -2.9548 0
M  V30 8040 C 776.044 2.18163 -3.06728 0
M  V30 8041 C 775.191 1.00338 -2.5851 0
M  V30 8042 H 778.142 0.112965 -1.58297 0
M  V30 8043 H 778.163 2.52107 -2.84995 0
M  V30 8044 H 777.675 0.94227 -3.76488 0
M  V30 8045 H 775.776 2.92847 -2.30372 0
M  V30 8046 H 775.889 2.43952 -4.1234 0
M  V30 8047 H 774.253 1.37925 -2.14124 0
M  V30 8048 H 775.036 0.30254 -3.41964 0
M  V30 8049 N 777.481 1.45874 0.596531 0
M  V30 8050 C 778.897 1.30524 0.918459 0
M  V30 8051 C 779.097 0.266429 1.99731 0
M  V30 8052 O 778.153 -0.335809 2.50257 0
M  V30 8053 C 779.466 2.68747 1.3489 0
M  V30 8054 C 781.014 2.7673 1.46251 0
M  V30 8055 C 781.489 4.15504 1.92667 0
M  V30 8056 N 782.98 4.17853 1.99883 0
M  V30 8057 C 783.715 5.22109 2.37044 0
M  V30 8058 N 783.211 6.36704 2.73094 0
M  V30 8059 N 785.004 5.09471 2.37479 0
M  V30 8060 H 777.155 2.12081 -0.116368 0
M  V30 8061 H 779.418 0.947941 0.0106033 0
M  V30 8062 H 779.124 3.46006 0.630288 0
M  V30 8063 H 778.998 2.97942 2.31323 0
M  V30 8064 H 781.385 1.99768 2.17202 0
M  V30 8065 H 781.466 2.51236 0.481054 0
M  V30 8066 H 781.11 4.92956 1.223 0
M  V30 8067 H 781.04 4.38396 2.91747 0
M  V30 8068 H 783.531 3.35163 1.74568 0
M  V30 8069 H 783.844 7.12041 3.00362 0
M  V30 8070 H 782.189 6.40087 2.70764 0
M  V30 8071 H 785.38 4.18987 2.08728 0
M  V30 8072 H 785.553 5.90837 2.66112 0
M  V30 8073 N 778.959 -0.83999 1.33349 0
M  V30 8074 C 779.906 -1.94972 1.23509 0
M  V30 8075 C 780.876 -1.65709 0.113967 0
M  V30 8076 O 782.061 -1.88552 0.292045 0
M  V30 8077 C 779.201 -3.30919 0.979105 0
M  V30 8078 C 778.314 -3.72587 2.18639 0
M  V30 8079 C 777.449 -4.97397 1.86465 0
M  V30 8080 C 776.488 -5.31597 3.03432 0
M  V30 8081 N 775.625 -6.47584 2.71254 0
M  V30 8082 H 780.465 -2.0272 2.18423 0
M  V30 8083 H 778.002 -0.992017 1.08616 0
M  V30 8084 H 779.96 -4.09239 0.811126 0
M  V30 8085 H 778.59 -3.22731 0.0667099 0
M  V30 8086 H 777.642 -2.89799 2.46416 0
M  V30 8087 H 778.954 -3.93844 3.06086 0
M  V30 8088 H 778.108 -5.83462 1.66305 0
M  V30 8089 H 776.847 -4.78107 0.96254 0
M  V30 8090 H 775.852 -4.44037 3.24208 0
M  V30 8091 H 777.077 -5.52836 3.94397 0
M  V30 8092 H 775.023 -6.29783 1.836 0
M  V30 8093 H 774.94 -6.68931 3.52231 0
M  V30 8094 H 776.208 -7.36764 2.54558 0
M  V30 8095 N 780.437 -1.16799 -1.0581 0
M  V30 8096 C 781.848 -0.95945 -1.60161 0
M  V30 8097 C 782.199 0.49543 -1.89842 0
M  V30 8098 O 781.324 1.36957 -1.67546 0
M  V30 8099 C 781.919 -1.73527 -2.90987 0
M  V30 8100 C 780.478 -1.57158 -3.42021 0
M  V30 8101 C 779.625 -1.74089 -2.15843 0
M  V30 8102 H 782.576 -1.31598 -0.886992 0
M  V30 8103 H 782.597 -1.21397 -3.60615 0
M  V30 8104 H 782.109 -2.79411 -2.69353 0
M  V30 8105 H 780.21 -0.537361 -3.68705 0
M  V30 8106 H 780.323 -2.35858 -4.17022 0
M  V30 8107 H 778.687 -1.16874 -2.26302 0
M  V30 8108 H 779.47 -2.81371 -1.96686 0
M  V30 8109 N 781.915 1.24427 -0.967243 0
M  V30 8110 C 783.162 1.92487 -0.62888 0
M  V30 8111 C 783.49 1.75623 0.835871 0
M  V30 8112 O 782.745 1.1027 1.61675 0
M  V30 8113 C 783.044 3.44568 -0.949096 0
M  V30 8114 C 782.71 3.816 -2.40192 0
M  V30 8115 C 781.372 3.9142 -2.799 0
M  V30 8116 C 783.724 3.99715 -3.34481 0
M  V30 8117 C 781.052 4.16771 -4.12939 0
M  V30 8118 C 783.404 4.26562 -4.67148 0
M  V30 8119 C 782.068 4.34601 -5.06634 0
M  V30 8120 H 781.338 0.704361 -0.230124 0
M  V30 8121 H 783.985 1.4772 -1.21864 0
M  V30 8122 H 782.29 3.90819 -0.277085 0
M  V30 8123 H 783.987 3.95436 -0.665692 0
M  V30 8124 H 780.577 3.74522 -2.08402 0
M  V30 8125 H 784.761 3.91531 -3.04987 0
M  V30 8126 H 780.017 4.21214 -4.43158 0
M  V30 8127 H 784.191 4.39523 -5.40178 0
M  V30 8128 H 781.818 4.53998 -6.09746 0
M  V30 8129 N 783.393 0.737304 1.3929 0
M  V30 8130 C 784.67 0.212464 1.94443 0
M  V30 8131 C 785.05 -1.28621 1.67391 0
M  V30 8132 O 784.398 -2.0529 1.00342 0
M  V30 8133 C 784.608 0.548565 3.44662 0
M  V30 8134 C 785.956 0.499177 4.21656 0
M  V30 8135 O 786.98 0.485892 3.5287 0
M  V30 8136 O 785.839 0.495739 5.44247 0
M  V30 8137 H 782.933 0.0395457 0.826054 0
M  V30 8138 H 785.479 0.816319 1.48776 0
M  V30 8139 H 784.251 1.58426 3.57795 0
M  V30 8140 H 783.874 -0.0841399 3.97511 0
M  V30 8141 N 784.871 -1.49948 0.485112 0
M  V30 8142 C 786.101 -2.06506 -0.0621921 0
M  V30 8143 C 786.509 -1.34756 -1.32806 0
M  V30 8144 O 785.852 -0.41466 -1.78959 0
M  V30 8145 C 785.914 -3.57243 -0.402182 0
M  V30 8146 C 785.578 -4.50574 0.763671 0
M  V30 8147 C 786.575 -4.93032 1.6497 0
M  V30 8148 C 784.26 -4.9308 0.957973 0
M  V30 8149 C 786.254 -5.76718 2.71432 0
M  V30 8150 C 783.941 -5.76546 2.0258 0
M  V30 8151 C 784.939 -6.18267 2.90232 0
M  V30 8152 O 784.627 -7.00066 3.95174 0
M  V30 8153 H 784.359 -0.675925 0.0100672 0
M  V30 8154 H 786.913 -1.93922 0.677023 0
M  V30 8155 H 785.143 -3.6778 -1.19478 0
M  V30 8156 H 786.832 -3.96107 -0.886219 0
M  V30 8157 H 787.598 -4.60851 1.51134 0
M  V30 8158 H 783.477 -4.60117 0.285144 0
M  V30 8159 H 787.021 -6.09203 3.39878 0
M  V30 8160 H 782.918 -6.0814 2.16417 0
M  V30 8161 H 783.686 -7.18343 3.92333 0
M  V30 8162 N 786.349 -0.21828 -1.56081 0
M  V30 8163 C 787.589 0.416193 -2.00118 0
M  V30 8164 C 787.953 1.5718 -1.10265 0
M  V30 8165 O 789.154 2.27206 -1.43635 0
M  V30 8166 C 787.425 0.842781 -3.47321 0
M  V30 8167 S 788.984 1.47182 -4.1338 0
M  V30 8168 H 785.802 0.132219 -0.698598 0
M  V30 8169 H 788.404 -0.326799 -1.92749 0
M  V30 8170 H 787.108 -0.00799925 -4.10399 0
M  V30 8171 H 786.639 1.61867 -3.58556 0
M  V30 8172 H 788.654 2.76087 -4.12299 0
M  V30 8173 N 787.827 1.57504 0.0551401 0
M  V30 8174 C 789.104 1.79155 0.785048 0
M  V30 8175 C 789.484 0.809995 1.94942 0
M  V30 8176 O 788.832 -0.153432 2.27984 0
M  V30 8177 C 789.042 3.26134 1.24247 0
M  V30 8178 C 790.39 3.90419 1.66908 0
M  V30 8179 O 791.414 3.30126 1.33772 0
M  V30 8180 O 790.273 4.96523 2.28314 0
M  V30 8181 H 787.367 0.735825 0.377479 0
M  V30 8182 H 789.913 1.69666 0.0339285 0
M  V30 8183 H 788.685 3.89145 0.410089 0
M  V30 8184 H 788.308 3.40411 2.05441 0
M  V30 8185 N 789.305 -0.326896 1.54172 0
M  V30 8186 C 790.551 -1.06681 1.72473 0
M  V30 8187 C 790.884 -1.87779 0.49523 0
M  V30 8188 O 790.159 -1.87754 -0.507803 0
M  V30 8189 C 790.442 -1.99429 2.99834 0
M  V30 8190 C 790.295 -1.21682 4.33028 0
M  V30 8191 C 791.614 -2.99002 3.22933 0
M  V30 8192 H 788.733 -0.386438 0.627563 0
M  V30 8193 H 791.375 -0.343779 1.86864 0
M  V30 8194 H 789.525 -2.61081 2.87696 0
M  V30 8195 H 791.197 -0.625153 4.57044 0
M  V30 8196 H 789.44 -0.519045 4.30684 0
M  V30 8197 H 790.111 -1.89766 5.18356 0
M  V30 8198 H 792.587 -2.4747 3.34511 0
M  V30 8199 H 791.463 -3.61085 4.13412 0
M  V30 8200 H 791.724 -3.71281 2.40006 0
M  V30 8201 N 790.784 -1.46188 -0.588786 0
M  V30 8202 C 792.195 -1.45421 -1.17088 0
M  V30 8203 C 792.546 -0.191801 -1.9526 0
M  V30 8204 O 791.671 0.705497 -2.04577 0
M  V30 8205 C 792.266 -2.63467 -2.13004 0
M  V30 8206 C 790.825 -2.6576 -2.6655 0
M  V30 8207 C 789.972 -2.38002 -1.42304 0
M  V30 8208 H 792.923 -1.54156 -0.377052 0
M  V30 8209 H 792.944 -2.38638 -2.96365 0
M  V30 8210 H 792.456 -3.55331 -1.56081 0
M  V30 8211 H 790.557 -1.77952 -3.27359 0
M  V30 8212 H 790.67 -3.65545 -3.09699 0
M  V30 8213 H 789.034 -1.87936 -1.71907 0
M  V30 8214 H 789.817 -3.32035 -0.872209 0
M  V30 8215 N 792.262 0.832906 -1.33792 0
M  V30 8216 C 793.194 1.95042 -1.2038 0
M  V30 8217 C 794.207 1.62253 -0.133299 0
M  V30 8218 O 795.396 1.74315 -0.384261 0
M  V30 8219 C 792.496 3.287 -0.825215 0
M  V30 8220 C 791.669 3.89581 -1.98861 0
M  V30 8221 C 790.728 5.01602 -1.59003 0
M  V30 8222 O 789.754 5.20431 -2.30522 0
M  V30 8223 N 790.956 5.78356 -0.498446 0
M  V30 8224 H 793.721 2.07083 -2.16649 0
M  V30 8225 H 791.282 1.00896 -1.26616 0
M  V30 8226 H 793.274 4.01074 -0.540559 0
M  V30 8227 H 791.844 3.12565 0.0469796 0
M  V30 8228 H 791.064 3.09723 -2.43856 0
M  V30 8229 H 792.352 4.26989 -2.76691 0
M  V30 8230 H 791.75 5.65618 0.0963297 0
M  V30 8231 H 790.307 6.51226 -0.273485 0
M  V30 8232 N 793.74 1.17359 1.05189 0
M  V30 8233 C 794.98 0.972812 1.79766 0
M  V30 8234 C 795.344 -0.489832 1.85647 0
M  V30 8235 O 796.545 -0.809682 2.56315 0
M  V30 8236 C 794.816 1.59636 3.19767 0
M  V30 8237 S 796.375 1.54178 4.10822 0
M  V30 8238 H 793.193 0.34959 0.619119 0
M  V30 8239 H 795.795 1.49304 1.26209 0
M  V30 8240 H 794.499 2.65336 3.13089 0
M  V30 8241 H 794.03 1.07594 3.78401 0
M  V30 8242 H 796.045 0.549785 4.93145 0
M  V30 8243 N 795.218 -1.23913 0.973828 0
M  V30 8244 C 796.128 -2.28838 0.516735 0
M  V30 8245 C 797.144 -1.68723 -0.425282 0
M  V30 8246 O 798.32 -1.99201 -0.296819 0
M  V30 8247 C 795.385 -3.46233 -0.179914 0
M  V30 8248 C 794.446 -4.21729 0.80269 0
M  V30 8249 C 793.679 -5.33518 0.139191 0
M  V30 8250 O 793.902 -5.60252 -1.07118 0
M  V30 8251 O 792.836 -5.96088 0.834447 0
M  V30 8252 H 796.662 -2.70067 1.38916 0
M  V30 8253 H 794.247 -1.2972 0.74115 0
M  V30 8254 H 796.129 -4.17514 -0.570991 0
M  V30 8255 H 794.804 -3.06969 -1.02721 0
M  V30 8256 H 793.711 -3.52799 1.24434 0
M  V30 8257 H 795.044 -4.64825 1.61859 0
M  V30 8258 N 796.696 -0.74468 -1.38897 0
M  V30 8259 C 797.921 -0.306119 -2.05128 0
M  V30 8260 C 798.346 1.0541 -1.55789 0
M  V30 8261 O 797.704 1.66993 -0.705909 0
M  V30 8262 C 797.752 -0.328195 -3.59103 0
M  V30 8263 O 796.856 0.680876 -4.06741 0
M  V30 8264 H 796.197 -0.137209 -0.649669 0
M  V30 8265 H 798.727 -1.01331 -1.77745 0
M  V30 8266 H 798.737 -0.175956 -4.0762 0
M  V30 8267 H 797.412 -1.32067 -3.94374 0
M  V30 8268 H 795.989 0.49398 -3.69614 0
M  V30 8269 N 798.174 1.49689 -0.493057 0
M  V30 8270 C 799.399 2.07331 0.0535114 0
M  V30 8271 C 799.824 1.35196 1.30781 0
M  V30 8272 O 799.182 0.406246 1.7669 0
M  V30 8273 C 799.23 3.59364 0.29825 0
M  V30 8274 O 798.334 3.88819 1.37454 0
M  V30 8275 H 797.675 0.663612 -0.0227018 0
M  V30 8276 H 800.205 1.926 -0.690402 0
M  V30 8277 H 800.215 4.04515 0.532159 0
M  V30 8278 H 798.89 4.1128 -0.618207 0
M  V30 8279 H 797.467 3.55487 1.12621 0
M  V30 8280 N 799.652 0.226554 1.55963 0
M  V30 8281 C 800.899 -0.403789 1.98433 0
M  V30 8282 C 801.227 -1.59416 1.1143 0
M  V30 8283 O 800.482 -1.95042 0.160389 0
M  V30 8284 C 800.781 -0.87642 3.46488 0
M  V30 8285 C 800.447 0.203973 4.50438 0
M  V30 8286 C 799.109 0.500754 4.78587 0
M  V30 8287 C 801.461 0.934396 5.12756 0
M  V30 8288 C 798.789 1.53239 5.66334 0
M  V30 8289 C 801.141 1.9554 6.0162 0
M  V30 8290 C 799.805 2.25905 6.28111 0
M  V30 8291 H 799.075 -0.147757 0.726119 0
M  V30 8292 H 801.722 0.330121 1.88633 0
M  V30 8293 H 800.027 -1.68918 3.53517 0
M  V30 8294 H 801.724 -1.37407 3.76723 0
M  V30 8295 H 798.314 -0.0374917 4.28584 0
M  V30 8296 H 802.498 0.718355 4.91074 0
M  V30 8297 H 797.754 1.77321 5.85122 0
M  V30 8298 H 801.928 2.52642 6.48957 0
M  V30 8299 H 799.555 3.05985 6.959 0
M  V30 8300 N 801.13 -1.57531 -0.0467866 0
M  V30 8301 C 802.407 -1.79568 -0.775536 0
M  V30 8302 C 802.787 -0.820322 -1.94509 0
M  V30 8303 O 802.135 0.14134 -2.28062 0
M  V30 8304 C 802.345 -3.26789 -1.22516 0
M  V30 8305 C 803.693 -3.91299 -1.64835 0
M  V30 8306 O 804.717 -3.30831 -1.3202 0
M  V30 8307 O 803.576 -4.97727 -2.25677 0
M  V30 8308 H 800.67 -0.737817 -0.373572 0
M  V30 8309 H 803.216 -1.69682 -0.0249302 0
M  V30 8310 H 801.988 -3.89357 -0.389446 0
M  V30 8311 H 801.611 -3.41496 -2.03633 0
M  V30 8312 N 802.608 0.318715 -1.54344 0
M  V30 8313 C 803.848 1.06425 -1.74508 0
M  V30 8314 C 804.212 1.85087 -0.510572 0
M  V30 8315 O 805.413 2.62253 -0.589647 0
M  V30 8316 C 803.684 1.96054 -2.98827 0
M  V30 8317 S 805.243 2.77493 -3.39916 0
M  V30 8318 H 802.061 0.35921 -0.613587 0
M  V30 8319 H 804.663 0.339679 -1.92526 0
M  V30 8320 H 803.367 1.37109 -3.8682 0
M  V30 8321 H 802.898 2.72908 -2.83346 0
M  V30 8322 H 804.913 3.98544 -2.95596 0
M  V30 8323 N 804.086 1.46499 0.581025 0
M  V30 8324 C 805.334 1.51596 1.33653 0
M  V30 8325 C 805.655 0.169859 1.94259 0
M  V30 8326 O 804.925 -0.803776 1.78651 0
M  V30 8327 H 803.505 0.558346 0.496244 0
M  V30 8328 H 806.167 1.8264 0.680338 0
M  V30 8329 H 805.263 2.26956 2.14237 0
M  V30 8330 N 805.565 -0.825799 1.34232 0
M  V30 8331 C 806.512 -1.93651 1.2557 0
M  V30 8332 C 807.482 -1.65578 0.131536 0
M  V30 8333 O 808.667 -1.88231 0.312027 0
M  V30 8334 C 805.807 -3.29862 1.01415 0
M  V30 8335 C 804.92 -3.70247 2.22579 0
M  V30 8336 C 804.055 -4.95392 1.91731 0
M  V30 8337 C 803.094 -5.28349 3.09053 0
M  V30 8338 N 802.231 -6.44671 2.78107 0
M  V30 8339 H 807.071 -2.00392 2.20561 0
M  V30 8340 H 804.608 -0.980441 1.09662 0
M  V30 8341 H 806.566 -4.08356 0.854485 0
M  V30 8342 H 805.196 -3.22642 0.100936 0
M  V30 8343 H 804.248 -2.87169 2.49476 0
M  V30 8344 H 805.56 -3.90575 3.10246 0
M  V30 8345 H 804.714 -5.81665 1.72484 0
M  V30 8346 H 803.453 -4.77059 1.0132 0
M  V30 8347 H 802.458 -4.40574 3.289 0
M  V30 8348 H 803.683 -5.48622 4.00239 0
M  V30 8349 H 801.629 -6.278 1.9027 0
M  V30 8350 H 801.546 -6.65158 3.59306 0
M  V30 8351 H 802.814 -7.34022 2.62358 0
M  V30 8352 N 807.043 -1.17915 -1.04565 0
M  V30 8353 C 808.454 -0.976383 -1.59134 0
M  V30 8354 C 808.805 0.475267 -1.90357 0
M  V30 8355 O 807.93 1.35172 -1.6899 0
M  V30 8356 C 808.525 -1.76604 -2.89131 0
M  V30 8357 C 807.084 -1.60777 -3.40335 0
M  V30 8358 C 806.231 -1.76369 -2.13985 0
M  V30 8359 H 809.182 -1.32532 -0.872985 0
M  V30 8360 H 809.203 -1.25215 -3.59307 0
M  V30 8361 H 808.715 -2.82252 -2.66375 0
M  V30 8362 H 806.816 -0.576436 -3.68114 0
M  V30 8363 H 806.929 -2.40268 -4.14497 0
M  V30 8364 H 805.293 -1.19268 -2.25049 0
M  V30 8365 H 806.076 -2.83441 -1.9369 0
M  V30 8366 N 808.521 1.23394 -0.980386 0
M  V30 8367 C 809.468 2.24859 -0.520298 0
M  V30 8368 C 810.438 1.60144 0.440821 0
M  V30 8369 O 811.623 1.87593 0.348369 0
M  V30 8370 C 808.763 3.44675 0.171145 0
M  V30 8371 C 807.876 4.23947 -0.830233 0
M  V30 8372 C 807.011 5.31079 -0.113597 0
M  V30 8373 C 806.05 6.02058 -1.10419 0
M  V30 8374 N 805.187 7.00862 -0.416709 0
M  V30 8375 H 810.027 2.63579 -1.39032 0
M  V30 8376 H 807.564 1.29556 -0.696682 0
M  V30 8377 H 809.522 4.13024 0.588838 0
M  V30 8378 H 808.152 3.06755 1.00504 0
M  V30 8379 H 807.204 3.55016 -1.36631 0
M  V30 8380 H 808.516 4.72945 -1.58508 0
M  V30 8381 H 807.67 6.05622 0.36146 0
M  V30 8382 H 806.409 4.83022 0.673854 0
M  V30 8383 H 805.414 5.26307 -1.59 0
M  V30 8384 H 806.639 6.52203 -1.8923 0
M  V30 8385 H 804.585 6.55057 0.351535 0
M  V30 8386 H 804.502 7.47804 -1.11021 0
M  V30 8387 H 805.77 7.79492 0.0359606 0
M  V30 8388 N 809.999 0.752036 1.385 0
M  V30 8389 C 811.245 0.307958 2.00448 0
M  V30 8390 C 811.578 -1.10702 1.59558 0
M  V30 8391 O 810.853 -1.75788 0.832391 0
M  V30 8392 C 811.136 0.429092 3.57534 0
M  V30 8393 C 810.989 1.88507 4.08393 0
M  V30 8394 C 812.308 -0.178442 4.39738 0
M  V30 8395 H 809.427 0.113373 0.728228 0
M  V30 8396 H 812.069 0.951389 1.64465 0
M  V30 8397 H 810.219 -0.118695 3.88319 0
M  V30 8398 H 811.891 2.49104 3.88259 0
M  V30 8399 H 810.134 2.40066 3.61318 0
M  V30 8400 H 810.805 1.92099 5.17496 0
M  V30 8401 H 813.281 0.28872 4.15097 0
M  V30 8402 H 812.157 -0.0634349 5.48863 0
M  V30 8403 H 812.418 -1.26655 4.23569 0
M  V30 8404 N 811.477 -1.49425 0.500989 0
M  V30 8405 C 812.387 -2.32899 -0.282011 0
M  V30 8406 C 813.403 -1.44632 -0.967346 0
M  V30 8407 O 814.579 -1.77654 -0.94873 0
M  V30 8408 C 811.644 -3.20069 -1.33253 0
M  V30 8409 C 810.705 -4.24186 -0.660636 0
M  V30 8410 C 809.938 -5.07191 -1.6611 0
M  V30 8411 O 810.161 -4.91712 -2.89094 0
M  V30 8412 O 809.095 -5.8948 -1.21643 0
M  V30 8413 H 812.921 -3.01038 0.401224 0
M  V30 8414 H 810.506 -1.47079 0.262323 0
M  V30 8415 H 812.388 -3.74071 -1.94033 0
M  V30 8416 H 811.063 -2.54625 -1.9987 0
M  V30 8417 H 809.97 -3.74098 -0.0130959 0
M  V30 8418 H 811.303 -4.92186 -0.0369179 0
M  V30 8419 N 812.955 -0.234822 -1.55841 0
M  V30 8420 C 814.366 0.270588 -1.84729 0
M  V30 8421 C 814.717 1.58494 -1.15646 0
M  V30 8422 O 813.842 2.12071 -0.430667 0
M  V30 8423 C 814.437 0.497733 -3.35124 0
M  V30 8424 C 812.996 0.947428 -3.64281 0
M  V30 8425 C 812.143 0.01787 -2.77294 0
M  V30 8426 H 815.094 -0.457691 -1.51957 0
M  V30 8427 H 815.115 1.34199 -3.56049 0
M  V30 8428 H 814.627 -0.459037 -3.85376 0
M  V30 8429 H 812.728 1.91709 -3.19497 0
M  V30 8430 H 812.841 0.812651 -4.72158 0
M  V30 8431 H 811.205 0.527071 -2.49187 0
M  V30 8432 H 811.988 -0.934056 -3.30349 0
M  V30 8433 N 814.433 1.57553 0.0384317 0
M  V30 8434 C 815.38 2.05942 1.04194 0
M  V30 8435 C 816.35 0.946637 1.36484 0
M  V30 8436 O 817.535 1.21658 1.46983 0
M  V30 8437 C 814.675 2.53588 2.34066 0
M  V30 8438 C 813.788 3.7862 2.08017 0
M  V30 8439 C 812.923 4.14915 3.31692 0
M  V30 8440 C 811.962 5.32891 3.01155 0
M  V30 8441 N 811.099 5.64662 4.17254 0
M  V30 8442 H 815.939 2.91429 0.622341 0
M  V30 8443 H 813.476 1.44098 0.295684 0
M  V30 8444 H 815.434 2.79276 3.09937 0
M  V30 8445 H 814.064 1.71031 2.73767 0
M  V30 8446 H 813.116 3.60073 1.22686 0
M  V30 8447 H 814.428 4.64613 1.81484 0
M  V30 8448 H 813.582 4.41681 4.15936 0
M  V30 8449 H 812.321 3.27555 3.6133 0
M  V30 8450 H 811.326 5.05887 2.15311 0
M  V30 8451 H 812.551 6.21896 2.72804 0
M  V30 8452 H 810.497 4.80261 4.46861 0
M  V30 8453 H 810.414 6.45145 3.94112 0
M  V30 8454 H 811.682 5.96 5.02399 0
M  V30 8455 N 815.911 -0.310526 1.54511 0
M  V30 8456 C 816.858 -1.38264 1.84802 0
M  V30 8457 C 817.828 -1.50808 0.696141 0
M  V30 8458 O 819.013 -1.6582 0.943846 0
M  V30 8459 C 816.153 -2.74422 2.09252 0
M  V30 8460 C 815.266 -2.70405 3.36906 0
M  V30 8461 C 814.401 -3.98495 3.51248 0
M  V30 8462 C 813.44 -3.88836 4.72729 0
M  V30 8463 N 812.577 -5.08683 4.83928 0
M  V30 8464 H 817.417 -1.11732 2.76261 0
M  V30 8465 H 814.954 -0.540609 1.36806 0
M  V30 8466 H 816.912 -3.53593 2.21422 0
M  V30 8467 H 815.542 -2.99235 1.2107 0
M  V30 8468 H 814.594 -1.83151 3.33406 0
M  V30 8469 H 815.906 -2.59155 4.26193 0
M  V30 8470 H 815.06 -4.861 3.63031 0
M  V30 8471 H 813.799 -4.12567 2.60077 0
M  V30 8472 H 812.804 -2.99615 4.60989 0
M  V30 8473 H 814.029 -3.76318 5.65298 0
M  V30 8474 H 811.975 -5.23236 3.95677 0
M  V30 8475 H 811.892 -4.99819 5.67201 0
M  V30 8476 H 813.16 -5.97966 5.00057 0
M  V30 8477 N 817.389 -1.46805 -0.573248 0
M  V30 8478 C 818.629 -1.5417 -1.34205 0
M  V30 8479 C 818.993 -0.192675 -1.91031 0
M  V30 8480 O 820.194 -0.141111 -2.68429 0
M  V30 8481 C 818.465 -2.61682 -2.43428 0
M  V30 8482 S 820.024 -2.88519 -3.30609 0
M  V30 8483 H 816.842 -0.544592 -0.4571 0
M  V30 8484 H 819.444 -1.84094 -0.658001 0
M  V30 8485 H 818.148 -3.58319 -2.00088 0
M  V30 8486 H 817.679 -2.33521 -3.16594 0
M  V30 8487 H 819.694 -2.2451 -4.42504 0
M  V30 8488 N 818.867 0.818669 -1.34668 0
M  V30 8489 C 820.092 1.61193 -1.30505 0
M  V30 8490 C 820.517 1.87734 0.117341 0
M  V30 8491 O 819.875 1.45591 1.08042 0
M  V30 8492 C 819.923 2.92733 -2.1057 0
M  V30 8493 O 819.027 3.85 -1.47813 0
M  V30 8494 H 818.368 0.490085 -0.44801 0
M  V30 8495 H 820.898 1.01701 -1.77534 0
M  V30 8496 H 820.908 3.42262 -2.22082 0
M  V30 8497 H 819.583 2.7274 -3.13984 0
M  V30 8498 H 818.16 3.43525 -1.45069 0
M  V30 8499 N 820.346 1.18468 1.03938 0
M  V30 8500 C 821.594 0.978895 1.76811 0
M  V30 8501 C 821.915 -0.49257 1.88676 0
M  V30 8502 O 821.185 -1.3572 1.41269 0
M  V30 8503 H 819.765 0.359201 0.654968 0
M  V30 8504 H 822.427 1.49173 1.25433 0
M  V30 8505 H 821.523 1.418 2.78027 0
M  V30 8506 N 821.824 -1.22873 0.986916 0
M  V30 8507 C 823.24 -1.43594 0.696633 0
M  V30 8508 C 823.44 -1.87622 -0.734869 0
M  V30 8509 O 822.496 -2.02633 -1.50652 0
M  V30 8510 C 823.809 -2.48231 1.69711 0
M  V30 8511 C 825.357 -2.62037 1.71188 0
M  V30 8512 C 825.832 -3.6989 2.70084 0
M  V30 8513 N 827.323 -3.77341 2.68641 0
M  V30 8514 C 828.058 -4.6037 3.41829 0
M  V30 8515 N 827.554 -5.47438 4.24598 0
M  V30 8516 N 829.347 -4.54626 3.30563 0
M  V30 8517 H 821.498 -0.925982 1.91153 0
M  V30 8518 H 823.761 -0.46866 0.824052 0
M  V30 8519 H 823.467 -2.22812 2.72117 0
M  V30 8520 H 823.341 -3.46731 1.48516 0
M  V30 8521 H 825.728 -2.86803 0.694837 0
M  V30 8522 H 825.809 -1.63831 1.96451 0
M  V30 8523 H 825.453 -3.45872 3.71934 0
M  V30 8524 H 825.383 -4.67652 2.42093 0
M  V30 8525 H 827.874 -3.15124 2.08578 0
M  V30 8526 H 828.187 -6.078 4.77283 0
M  V30 8527 H 826.532 -5.4704 4.28687 0
M  V30 8528 H 829.723 -3.85627 2.65347 0
M  V30 8529 H 829.896 -5.19103 3.8786 0
M  V30 8530 O 823.341 -0.896491 -1.34333 0
M  V30 8531 H 824.032 -0.506358 -1.86964 0
M  V30 END ATOM
M  V30 BEGIN BOND
M  V30 END BOND
M  V30 END CTAB
M  END
$$$$
