drugbank_target|O43246 Cationic amino acid transporter 4 (DB00123; DB00125)
 OpenBabel12092119233D

  0  0  0     0  0            999 V3000
M  V30 BEGIN CTAB
M  V30 COUNTS 9722 9854 0 0 0
M  V30 BEGIN ATOM
M  V30 1 H -0.908 1.98254 -0.117106 0
M  V30 2 N 0 1.576 0 0
M  V30 3 C 0.933 2.03868 1.02534 0
M  V30 4 C 1.911 0.928543 1.3348 0
M  V30 5 O 3.095 1.19667 1.45644 0
M  V30 6 C 0.222 2.43627 2.35294 0
M  V30 7 C -0.732 3.65373 2.2001 0
M  V30 8 S 0.101 5.13292 1.52614 0
M  V30 9 C 1.257 5.56322 2.86805 0
M  V30 10 H 1.49 2.90518 0.631377 0
M  V30 11 H -0.977 1.52953 0.210867 0
M  V30 12 H 0.981 2.67203 3.11629 0
M  V30 13 H -0.358 1.57376 2.7183 0
M  V30 14 H -1.165 3.90944 3.18086 0
M  V30 15 H -1.563 3.418 1.51819 0
M  V30 16 H 0.729 5.58782 3.83104 0
M  V30 17 H 1.672 6.56266 2.65933 0
M  V30 18 H 2.08 4.83886 2.90714 0
M  V30 19 N 1.4781 -0.272755 1.55222 0
M  V30 20 C 2.4411 -1.32041 1.87344 0
M  V30 21 C 3.4411 -1.42342 0.74803 0
M  V30 22 O 4.6311 -1.41488 1.0162 0
M  V30 23 C 1.7631 -2.70173 2.07893 0
M  V30 24 H 2.9561 -1.04789 2.80997 0
M  V30 25 H 0.5091 -0.51083 1.47717 0
M  V30 26 H 1.2441 -3.02605 1.16622 0
M  V30 27 H 1.0291 -2.64082 2.89833 0
M  V30 28 H 2.5191 -3.45869 2.34017 0
M  V30 29 N 2.9562 -1.48159 -0.537278 0
M  V30 30 C 4.3722 -1.34118 -0.865129 0
M  V30 31 C 4.5722 -0.346678 -1.98495 0
M  V30 32 O 3.6282 0.234715 -2.51407 0
M  V30 33 C 4.9412 -2.73963 -1.23954 0
M  V30 34 C 6.4892 -2.82397 -1.34984 0
M  V30 35 C 6.9642 -4.22928 -1.75772 0
M  V30 36 N 8.4552 -4.25566 -1.82887 0
M  V30 37 C 9.1902 -5.31235 -2.15817 0
M  V30 38 N 8.6862 -6.47189 -2.47222 0
M  V30 39 N 10.4792 -5.18624 -2.16761 0
M  V30 40 H 2.6302 -2.1144 0.201715 0
M  V30 41 H 4.8932 -0.947598 0.0275949 0
M  V30 42 H 4.5992 -3.48264 -0.490381 0
M  V30 43 H 4.4732 -3.0702 -2.19132 0
M  V30 44 H 6.8602 -2.08356 -2.08978 0
M  V30 45 H 6.9412 -2.5297 -0.379448 0
M  V30 46 H 6.5852 -4.97482 -1.02341 0
M  V30 47 H 6.5152 -4.49794 -2.73848 0
M  V30 48 H 9.0062 -3.41924 -1.60924 0
M  V30 49 H 9.3192 -7.23564 -2.71433 0
M  V30 50 H 7.6642 -6.50476 -2.44757 0
M  V30 51 H 10.8552 -4.27056 -1.91679 0
M  V30 52 H 11.0282 -6.01078 -2.42093 0
M  V30 53 N 4.4343 0.785586 -1.36625 0
M  V30 54 C 5.6823 1.54057 -1.30808 0
M  V30 55 C 6.0033 1.94683 0.111157 0
M  V30 56 O 5.2733 1.65241 1.05224 0
M  V30 57 H 3.8533 0.571354 -0.481211 0
M  V30 58 H 6.5153 0.935821 -1.70963 0
M  V30 59 H 5.6113 2.44637 -1.93801 0
M  V30 60 N 5.9124 1.20967 1.01018 0
M  V30 61 C 6.8424 0.988272 2.11555 0
M  V30 62 C 7.8234 -0.0849778 1.69888 0
M  V30 63 O 9.0084 0.0738202 1.9406 0
M  V30 64 C 6.1384 0.546528 3.42973 0
M  V30 65 C 5.0924 1.56375 3.9841 0
M  V30 66 C 4.4184 0.97842 5.25672 0
M  V30 67 C 5.7184 2.94922 4.31066 0
M  V30 68 H 7.4124 1.91276 2.30334 0
M  V30 69 H 4.9584 0.921073 1.1069 0
M  V30 70 H 6.9114 0.378839 4.19694 0
M  V30 71 H 5.6354 -0.413598 3.23971 0
M  V30 72 H 4.2944 1.71891 3.23804 0
M  V30 73 H 3.9424 0.0101688 5.02999 0
M  V30 74 H 3.6424 1.65784 5.63728 0
M  V30 75 H 5.1664 0.821939 6.05043 0
M  V30 76 H 6.5804 2.8288 4.9865 0
M  V30 77 H 4.9774 3.5983 4.80253 0
M  V30 78 H 6.0474 3.4616 3.39561 0
M  V30 79 N 7.3905 -1.2043 1.01659 0
M  V30 80 C 8.8015 -1.71517 0.737482 0
M  V30 81 C 9.1525 -1.81547 -0.743973 0
M  V30 82 O 8.2775 -1.47803 -1.58061 0
M  V30 83 C 8.8725 -3.11515 1.33206 0
M  V30 84 C 7.4315 -3.59912 1.10183 0
M  V30 85 C 6.5785 -2.37116 1.43776 0
M  V30 86 H 9.5295 -1.05444 1.18606 0
M  V30 87 H 9.5505 -3.73575 0.722636 0
M  V30 88 H 9.0625 -3.04182 2.41028 0
M  V30 89 H 7.1635 -3.72577 0.0412756 0
M  V30 90 H 7.2765 -4.44731 1.78188 0
M  V30 91 H 5.6405 -2.39857 0.856778 0
M  V30 92 H 6.4235 -2.32424 2.52654 0
M  V30 93 N 8.8686 -0.792821 -1.36206 0
M  V30 94 C 10.0966 -0.378825 -2.03402 0
M  V30 95 C 10.5116 1.00586 -1.59774 0
M  V30 96 O 9.8686 1.64574 -0.788764 0
M  V30 97 C 9.9196 -0.43683 -3.58851 0
M  V30 98 O 9.6406 -1.76691 -4.00889 0
M  V30 99 C 11.1416 -0.0138943 -4.43298 0
M  V30 100 H 8.3616 -0.155673 -0.652692 0
M  V30 101 H 10.9056 -1.07261 -1.74113 0
M  V30 102 H 9.0606 0.208575 -3.86838 0
M  V30 103 H 9.4746 -1.72011 -4.95492 0
M  V30 104 H 10.9486 -0.105615 -5.51899 0
M  V30 105 H 11.4256 1.03915 -4.2673 0
M  V30 106 H 12.0316 -0.63192 -4.20579 0
M  V30 107 N 10.3467 1.47872 -0.545128 0
M  V30 108 C 11.5957 2.01695 -0.0145033 0
M  V30 109 C 11.9087 1.42609 1.33873 0
M  V30 110 O 13.1147 1.88021 1.95858 0
M  V30 111 C 11.5707 3.59892 0.0245068 0
M  V30 112 C 11.1787 4.27966 -1.32475 0
M  V30 113 C 12.9227 4.21507 0.50316 0
M  V30 114 C 10.8297 5.78136 -1.2455 0
M  V30 115 H 9.7597 0.753998 -0.00165172 0
M  V30 116 H 12.4107 1.69985 -0.691175 0
M  V30 117 H 10.7927 3.88509 0.766575 0
M  V30 118 H 11.9667 4.11003 -2.08357 0
M  V30 119 H 10.2817 3.78286 -1.74036 0
M  V30 120 H 12.8787 5.31538 0.580656 0
M  V30 121 H 13.2217 3.87855 1.51243 0
M  V30 122 H 13.7547 3.97376 -0.183681 0
M  V30 123 H 10.4937 6.16388 -2.23039 0
M  V30 124 H 10.0137 5.97469 -0.528282 0
M  V30 125 H 11.6927 6.40099 -0.942488 0
M  V30 126 N 11.8248 0.280983 1.55075 0
M  V30 127 C 12.7878 -0.590896 2.21452 0
M  V30 128 C 13.7878 -1.07682 1.19421 0
M  V30 129 O 14.9778 -0.97605 1.44288 0
M  V30 130 C 12.1098 -1.81587 2.88511 0
M  V30 131 H 13.3028 -0.0112554 2.99898 0
M  V30 132 H 10.8558 0.0316438 1.56268 0
M  V30 133 H 11.5908 -2.43587 2.14093 0
M  V30 134 H 11.3758 -1.4753 3.63287 0
M  V30 135 H 12.8658 -2.43575 3.39206 0
M  V30 136 N 13.3029 -1.57598 0.00835791 0
M  V30 137 C 14.5279 -1.95617 -0.689103 0
M  V30 138 C 14.9529 -0.883753 -1.66046 0
M  V30 139 O 14.3109 0.157352 -1.80616 0
M  V30 140 C 14.3589 -3.32736 -1.38994 0
M  V30 141 O 13.4629 -3.27631 -2.50463 0
M  V30 142 H 12.8039 -0.638379 -0.182668 0
M  V30 143 H 15.3339 -2.045 0.064036 0
M  V30 144 H 15.3439 -3.68494 -1.75147 0
M  V30 145 H 14.0189 -4.1034 -0.677778 0
M  V30 146 H 12.5959 -3.03561 -2.16576 0
M  V30 147 N 14.781 0.264519 -1.55364 0
M  V30 148 C 15.711 1.33121 -1.91836 0
M  V30 149 C 16.692 1.51101 -0.781192 0
M  V30 150 O 17.877 1.64003 -1.04003 0
M  V30 151 C 15.007 2.68921 -2.19769 0
M  V30 152 C 13.961 2.65661 -3.35571 0
M  V30 153 C 13.287 4.05093 -3.49004 0
M  V30 154 C 14.587 2.24187 -4.71739 0
M  V30 155 H 16.281 1.02844 -2.81182 0
M  V30 156 H 13.827 0.493286 -1.35287 0
M  V30 157 H 15.78 3.43663 -2.43872 0
M  V30 158 H 14.504 3.00799 -1.27231 0
M  V30 159 H 13.163 1.93377 -3.1145 0
M  V30 160 H 12.811 4.34206 -2.53917 0
M  V30 161 H 12.511 4.03804 -4.26868 0
M  V30 162 H 14.035 4.81561 -3.75408 0
M  V30 163 H 15.449 2.88654 -4.9533 0
M  V30 164 H 13.846 2.34044 -5.52579 0
M  V30 165 H 14.916 1.19327 -4.69988 0
M  V30 166 N 16.2591 1.48442 0.529413 0
M  V30 167 C 17.2221 1.62524 1.61612 0
M  V30 168 C 18.2221 0.498509 1.52877 0
M  V30 169 O 19.4121 0.76431 1.56537 0
M  V30 170 C 16.5441 1.59597 3.01233 0
M  V30 171 H 17.7371 2.59423 1.50465 0
M  V30 172 H 15.2901 1.37047 0.751514 0
M  V30 173 H 16.0251 0.641781 3.17886 0
M  V30 174 H 15.8101 2.41397 3.08982 0
M  V30 175 H 17.3001 1.72646 3.80241 0
M  V30 176 N 17.7372 -0.778329 1.37039 0
M  V30 177 C 19.1532 -1.07796 1.17695 0
M  V30 178 C 19.3532 -2.01498 0.00860115 0
M  V30 179 O 18.4092 -2.43901 -0.653352 0
M  V30 180 C 19.7222 -1.68178 2.49272 0
M  V30 181 C 21.2702 -1.80467 2.55735 0
M  V30 182 C 21.7452 -2.44263 3.87427 0
M  V30 183 N 23.2362 -2.51721 3.88833 0
M  V30 184 C 23.9712 -3.01919 4.87476 0
M  V30 185 N 23.4672 -3.5234 5.96513 0
M  V30 186 N 25.2602 -3.00733 4.74885 0
M  V30 187 H 17.4112 -0.156032 2.11826 0
M  V30 188 H 19.6742 -0.131844 0.938787 0
M  V30 189 H 19.3802 -1.06796 3.35093 0
M  V30 190 H 19.2542 -2.67554 2.65885 0
M  V30 191 H 21.6412 -2.40984 1.70325 0
M  V30 192 H 21.7222 -0.798656 2.43013 0
M  V30 193 H 21.3662 -1.84388 4.73248 0
M  V30 194 H 21.2962 -3.45458 3.9745 0
M  V30 195 H 23.7872 -2.1603 3.10063 0
M  V30 196 H 24.1002 -3.89027 6.67741 0
M  V30 197 H 22.4452 -3.50462 6.00168 0
M  V30 198 H 25.6362 -2.60638 3.88826 0
M  V30 199 H 25.8092 -3.39545 5.51918 0
M  V30 200 N 19.2153 -1.21501 -1.00376 0
M  V30 201 C 20.1453 -0.999478 -2.11028 0
M  V30 202 C 21.1263 0.0759671 -1.6993 0
M  V30 203 O 22.3113 -0.0841106 -1.94018 0
M  V30 204 C 19.4413 -0.564709 -3.42678 0
M  V30 205 C 18.3953 -1.58486 -3.97576 0
M  V30 206 C 17.7213 -1.00628 -5.25146 0
M  V30 207 C 19.0213 -2.97204 -4.29496 0
M  V30 208 H 20.7153 -1.92495 -2.29317 0
M  V30 209 H 18.2613 -0.92693 -1.102 0
M  V30 210 H 20.2143 -0.401091 -4.19487 0
M  V30 211 H 18.9383 0.396411 -3.24185 0
M  V30 212 H 17.5973 -1.73606 -3.22888 0
M  V30 213 H 17.2453 -0.0368439 -5.02987 0
M  V30 214 H 16.9453 -1.68771 -5.62841 0
M  V30 215 H 18.4693 -0.854015 -6.04598 0
M  V30 216 H 19.8833 -2.8552 -4.97143 0
M  V30 217 H 18.2803 -3.62372 -4.78338 0
M  V30 218 H 19.3503 -3.47956 -3.3772 0
M  V30 219 N 20.6934 1.19889 -1.02296 0
M  V30 220 C 21.9334 1.91125 -0.724602 0
M  V30 221 C 22.2974 1.77464 0.732835 0
M  V30 222 O 23.4984 2.43241 1.144 0
M  V30 223 C 21.7694 3.38187 -1.15604 0
M  V30 224 S 23.3284 4.27702 -0.980621 0
M  V30 225 H 20.1464 0.66018 -0.263976 0
M  V30 226 H 22.7484 1.44978 -1.31155 0
M  V30 227 H 21.4524 3.45653 -2.21251 0
M  V30 228 H 20.9834 3.89363 -0.562131 0
M  V30 229 H 22.9984 4.96073 0.112225 0
M  V30 230 N 22.1715 0.800033 1.35784 0
M  V30 231 C 23.1035 0.163596 2.28615 0
M  V30 232 C 24.1165 -0.633317 1.49976 0
M  V30 233 O 25.3055 -0.466754 1.72289 0
M  V30 234 C 22.4055 -0.790958 3.29541 0
M  V30 235 C 21.5785 -0.0418255 4.3738 0
M  V30 236 C 20.6375 -0.91389 5.18203 0
M  V30 237 O 19.6635 -0.367234 5.68014 0
M  V30 238 N 20.8655 -2.23682 5.35674 0
M  V30 239 H 23.6305 0.96105 2.83873 0
M  V30 240 H 21.1915 0.654894 1.48063 0
M  V30 241 H 23.1835 -1.37844 3.80501 0
M  V30 242 H 21.7535 -1.48925 2.74846 0
M  V30 243 H 20.9735 0.726813 3.87442 0
M  V30 244 H 22.2615 0.474719 5.06581 0
M  V30 245 H 21.6595 -2.70497 4.96838 0
M  V30 246 H 20.2165 -2.77369 5.89839 0
M  V30 247 N 23.6496 -1.47581 0.552962 0
M  V30 248 C 24.5966 -2.29957 -0.197108 0
M  V30 249 C 25.5666 -1.38799 -0.912359 0
M  V30 250 O 26.7516 -1.67761 -0.908888 0
M  V30 251 C 23.8916 -3.22672 -1.22379 0
M  V30 252 C 23.0046 -4.28919 -0.515038 0
M  V30 253 C 22.1396 -5.0879 -1.52664 0
M  V30 254 C 21.1786 -6.06815 -0.802631 0
M  V30 255 N 20.3156 -6.7966 -1.76086 0
M  V30 256 H 25.1556 -2.93578 0.511486 0
M  V30 257 H 22.6926 -1.4471 0.264067 0
M  V30 258 H 24.6506 -3.74845 -1.83159 0
M  V30 259 H 23.2806 -2.60925 -1.90047 0
M  V30 260 H 22.3326 -3.79835 0.207192 0
M  V30 261 H 23.6446 -4.98773 0.0523425 0
M  V30 262 H 22.7986 -5.65091 -2.20809 0
M  V30 263 H 21.5376 -4.38828 -2.12794 0
M  V30 264 H 20.5426 -5.49695 -0.107238 0
M  V30 265 H 21.7676 -6.78784 -0.207135 0
M  V30 266 H 19.7136 -6.12432 -2.35081 0
M  V30 267 H 19.6306 -7.45669 -1.24552 0
M  V30 268 H 20.8986 -7.40538 -2.43359 0
M  V30 269 N 25.1277 -0.289203 -1.54924 0
M  V30 270 C 26.0577 0.58549 -2.2604 0
M  V30 271 C 27.0387 1.14753 -1.25562 0
M  V30 272 O 28.2237 1.17906 -1.54311 0
M  V30 273 C 25.3537 1.76305 -2.99222 0
M  V30 274 C 24.3077 1.33191 -4.06748 0
M  V30 275 C 23.6337 2.5937 -4.6758 0
M  V30 276 C 24.9337 0.471775 -5.20165 0
M  V30 277 H 26.6277 -0.00763532 -2.99399 0
M  V30 278 H 24.1737 -0.00511229 -1.43999 0
M  V30 279 H 26.1267 2.38097 -3.47689 0
M  V30 280 H 24.8507 2.38223 -2.23422 0
M  V30 281 H 23.5097 0.737121 -3.59113 0
M  V30 282 H 23.1577 3.19576 -3.88433 0
M  V30 283 H 22.8577 2.31228 -5.40192 0
M  V30 284 H 24.3817 3.21985 -5.18804 0
M  V30 285 H 25.7957 0.995056 -5.64599 0
M  V30 286 H 24.1927 0.284639 -5.99425 0
M  V30 287 H 25.2627 -0.506041 -4.82252 0
M  V30 288 N 26.6058 1.57591 -0.0167156 0
M  V30 289 C 27.5538 2.10604 0.987353 0
M  V30 290 C 28.5478 1.02977 1.34507 0
M  V30 291 O 29.7538 1.21425 1.32875 0
M  V30 292 H 26.1288 0.672695 0.336134 0
M  V30 293 H 28.0998 2.93925 0.514817 0
M  V30 294 C 26.8488 2.6382 2.26483 0
M  V30 295 H 26.1718 3.46278 1.99829 0
M  V30 296 H 27.6118 3.04573 2.94977 0
M  V30 297 C 26.0708 1.55992 2.9861 0
M  V30 298 O 26.6008 0.952521 3.90243 0
M  V30 299 N 24.8068 1.28335 2.60727 0
M  V30 300 H 24.3538 1.77914 1.86291 0
M  V30 301 H 24.3118 0.564115 3.09298 0
M  V30 302 N 28.0839 -0.256276 1.55502 0
M  V30 303 C 29.4999 -0.604325 1.47716 0
M  V30 304 C 29.6999 -1.88763 0.705039 0
M  V30 305 O 28.7559 -2.51445 0.230613 0
M  V30 306 C 30.0689 -0.715756 2.92057 0
M  V30 307 C 31.6169 -0.808706 3.02372 0
M  V30 308 C 32.0919 -0.951777 4.48001 0
M  V30 309 N 33.5829 -1.01688 4.519 0
M  V30 310 C 34.3179 -1.14668 5.61817 0
M  V30 311 N 33.8139 -1.24261 6.81565 0
M  V30 312 N 35.6069 -1.1791 5.49594 0
M  V30 313 H 27.7579 0.586291 2.04148 0
M  V30 314 H 30.0209 0.201015 0.926443 0
M  V30 315 H 29.7269 0.157027 3.51349 0
M  V30 316 H 29.6009 -1.59071 3.42018 0
M  V30 317 H 31.9879 -1.67195 2.43166 0
M  V30 318 H 32.0689 0.0912063 2.55637 0
M  V30 319 H 31.7129 -0.0931291 5.07815 0
M  V30 320 H 31.6429 -1.86659 4.92408 0
M  V30 321 H 34.1339 -0.954468 3.65648 0
M  V30 322 H 34.4469 -1.34046 7.61086 0
M  V30 323 H 32.7919 -1.21236 6.84344 0
M  V30 324 H 35.9829 -1.10057 4.54978 0
M  V30 325 H 36.1559 -1.27681 6.35296 0
M  V30 326 N 29.562 -1.4872 -0.521534 0
M  V30 327 C 30.492 -1.66771 -1.63431 0
M  V30 328 C 31.473 -0.516499 -1.62069 0
M  V30 329 O 32.658 -0.750013 -1.79132 0
M  V30 330 C 29.788 -1.71515 -3.01993 0
M  V30 331 C 28.742 -2.86222 -3.18216 0
M  V30 332 C 28.068 -2.76061 -4.57924 0
M  V30 333 C 29.368 -4.27419 -3.00184 0
M  V30 334 H 31.062 -2.59932 -1.48579 0
M  V30 335 H 28.608 -1.25089 -0.713358 0
M  V30 336 H 30.561 -1.82731 -3.7972 0
M  V30 337 H 29.285 -0.749393 -3.17886 0
M  V30 338 H 27.944 -2.74575 -2.42908 0
M  V30 339 H 27.592 -1.77437 -4.70665 0
M  V30 340 H 27.292 -3.53037 -4.69722 0
M  V30 341 H 28.816 -2.89256 -5.37739 0
M  V30 342 H 30.23 -4.39855 -3.67697 0
M  V30 343 H 28.627 -5.05458 -3.2347 0
M  V30 344 H 29.697 -4.43293 -1.96518 0
M  V30 345 N 31.0401 0.771051 -1.3745 0
M  V30 346 C 31.9871 1.88435 -1.3327 0
M  V30 347 C 32.9571 1.64914 -0.198136 0
M  V30 348 O 34.1421 1.86821 -0.387606 0
M  V30 349 C 31.2821 3.25509 -1.14622 0
M  V30 350 C 30.3951 3.60979 -2.37314 0
M  V30 351 C 29.5301 4.87265 -2.11533 0
M  V30 352 C 28.5691 5.15469 -3.30088 0
M  V30 353 N 27.7061 6.32944 -3.03853 0
M  V30 354 H 32.5461 1.91344 -2.28455 0
M  V30 355 H 30.0831 0.935466 -1.13523 0
M  V30 356 H 32.0411 4.04582 -1.01831 0
M  V30 357 H 30.6711 3.21974 -0.230837 0
M  V30 358 H 29.7231 2.76885 -2.60842 0
M  V30 359 H 31.0351 3.77759 -3.25729 0
M  V30 360 H 30.1891 5.74244 -1.95777 0
M  V30 361 H 28.9281 4.7259 -1.20457 0
M  V30 362 H 27.9331 4.26966 -3.46382 0
M  V30 363 H 29.1581 5.32052 -4.22016 0
M  V30 364 H 27.1041 6.19625 -2.15407 0
M  V30 365 H 27.0211 6.50143 -3.85812 0
M  V30 366 H 28.2891 7.22857 -2.91716 0
M  V30 367 N 32.5182 1.22032 0.997298 0
M  V30 368 C 33.9292 1.0397 1.55071 0
M  V30 369 C 34.2802 -0.398192 1.92117 0
M  V30 370 O 33.4052 -1.28254 1.74298 0
M  V30 371 C 34.0002 1.88109 2.81781 0
M  V30 372 C 32.5592 1.74357 3.33581 0
M  V30 373 C 31.7062 1.84846 2.06706 0
M  V30 374 H 34.6572 1.35941 0.818883 0
M  V30 375 H 34.6782 1.39589 3.53971 0
M  V30 376 H 34.1902 2.92754 2.54787 0
M  V30 377 H 32.2912 0.72427 3.65493 0
M  V30 378 H 32.4042 2.56772 4.04481 0
M  V30 379 H 30.7682 1.28238 2.20062 0
M  V30 380 H 31.5512 2.91014 1.82114 0
M  V30 381 N 33.9963 -1.19345 1.0293 0
M  V30 382 C 34.9263 -2.2481 0.631105 0
M  V30 383 C 35.9073 -1.66245 -0.360104 0
M  V30 384 O 37.0923 -1.92677 -0.242726 0
M  V30 385 C 34.2223 -3.47295 -0.0184607 0
M  V30 386 C 33.1763 -4.18536 0.895073 0
M  V30 387 C 32.5023 -5.34586 0.110592 0
M  V30 388 C 33.8023 -4.73287 2.209 0
M  V30 389 H 35.4963 -2.58372 1.51275 0
M  V30 390 H 33.0423 -1.24194 0.728818 0
M  V30 391 H 34.9953 -4.20268 -0.308675 0
M  V30 392 H 33.7193 -3.12933 -0.934907 0
M  V30 393 H 32.3783 -3.47446 1.16949 0
M  V30 394 H 32.0263 -4.96469 -0.807902 0
M  V30 395 H 31.7263 -5.83183 0.719087 0
M  V30 396 H 33.2503 -6.10355 -0.172871 0
M  V30 397 H 34.6643 -5.38013 1.98028 0
M  V30 398 H 33.0613 -5.32373 2.76946 0
M  V30 399 H 34.1313 -3.91331 2.86336 0
M  V30 400 N 35.4744 -0.807222 -1.35358 0
M  V30 401 C 36.3844 -0.219594 -2.3357 0
M  V30 402 C 37.4004 0.637734 -1.61892 0
M  V30 403 O 38.5764 0.549336 -1.93763 0
M  V30 404 C 35.6414 0.62158 -3.41083 0
M  V30 405 C 34.7024 -0.256315 -4.28534 0
M  V30 406 C 33.9354 0.544807 -5.30912 0
M  V30 407 O 34.1584 1.77944 -5.41934 0
M  V30 408 O 33.0924 -0.0646478 -6.01865 0
M  V30 409 H 36.9184 -1.03208 -2.85625 0
M  V30 410 H 34.5034 -0.569025 -1.38139 0
M  V30 411 H 36.3854 1.10067 -4.06772 0
M  V30 412 H 35.0604 1.41165 -2.91297 0
M  V30 413 H 33.9674 -0.782559 -3.65823 0
M  V30 414 H 35.3004 -1.01034 -4.81719 0
M  V30 415 N 36.9525 1.47285 -0.560781 0
M  V30 416 C 38.2295 1.9558 0.0277798 0
M  V30 417 C 38.6095 1.5034 1.48192 0
M  V30 418 O 37.9575 0.743882 2.16052 0
M  V30 419 C 38.1675 3.48789 -0.121418 0
M  V30 420 C 39.5155 4.24594 0.0220912 0
M  V30 421 O 40.5395 3.56166 -0.0491439 0
M  V30 422 O 39.3985 5.46217 0.175958 0
M  V30 423 H 36.4925 0.824663 0.0621342 0
M  V30 424 H 39.0385 1.5767 -0.627556 0
M  V30 425 H 37.8105 3.74533 -1.13316 0
M  V30 426 H 37.4335 3.93473 0.571366 0
M  V30 427 N 38.4306 0.297415 1.54768 0
M  V30 428 C 39.6556 -0.318435 2.04941 0
M  V30 429 C 40.0806 -1.4701 1.17345 0
M  V30 430 O 39.4386 -1.80436 0.176758 0
M  V30 431 C 39.4866 -0.755749 3.52592 0
M  V30 432 O 38.5906 -1.86088 3.68028 0
M  V30 433 H 37.9316 -0.062421 0.661059 0
M  V30 434 H 40.4616 0.438215 1.99852 0
M  V30 435 H 40.4716 -1.04552 3.94376 0
M  V30 436 H 39.1466 0.0867233 4.1581 0
M  V30 437 H 37.7236 -1.57193 3.38149 0
M  V30 438 N 39.9087 -1.5758 0.0250728 0
M  V30 439 C 41.1367 -1.9593 -0.664747 0
M  V30 440 C 41.5517 -0.901352 -1.65895 0
M  V30 441 O 40.9087 0.117255 -1.82123 0
M  V30 442 C 40.9597 -3.34342 -1.37468 0
M  V30 443 O 40.6807 -4.36079 -0.420324 0
M  V30 444 C 42.1817 -3.873 -2.1567 0
M  V30 445 H 39.4017 -0.645405 -0.183557 0
M  V30 446 H 41.9457 -2.04329 0.0836372 0
M  V30 447 H 40.1007 -3.27175 -2.0745 0
M  V30 448 H 40.5147 -5.16297 -0.923991 0
M  V30 449 H 41.9887 -4.86504 -2.60803 0
M  V30 450 H 42.4657 -3.21331 -2.99405 0
M  V30 451 H 43.0717 -3.97723 -1.50654 0
M  V30 452 N 41.3868 0.248026 -1.55636 0
M  V30 453 C 42.3198 1.3334 -1.85191 0
M  V30 454 C 43.2978 1.46429 -0.706906 0
M  V30 455 O 44.4818 1.62662 -0.952544 0
M  V30 456 C 41.6088 2.70703 -2.03562 0
M  V30 457 C 40.6548 2.7477 -3.26196 0
M  V30 458 S 41.4878 2.31493 -4.82878 0
M  V30 459 C 42.6438 3.70783 -5.04253 0
M  V30 460 H 42.8768 1.08072 -2.76962 0
M  V30 461 H 40.4098 0.448952 -1.47729 0
M  V30 462 H 42.3678 3.49798 -2.1483 0
M  V30 463 H 41.0288 2.9321 -1.12635 0
M  V30 464 H 40.2218 3.75648 -3.36013 0
M  V30 465 H 39.8238 2.03719 -3.13647 0
M  V30 466 H 42.1158 4.6627 -4.91527 0
M  V30 467 H 43.0588 3.65901 -6.06236 0
M  V30 468 H 43.4668 3.63244 -4.32105 0
M  V30 469 N 42.8649 1.48995 0.513639 0
M  V30 470 C 43.7749 1.67443 1.64317 0
M  V30 471 C 44.7909 0.556947 1.64846 0
M  V30 472 O 45.9669 0.830082 1.83498 0
M  V30 473 C 43.0319 1.72515 3.00732 0
M  V30 474 C 42.0929 2.96009 3.1093 0
M  V30 475 C 41.3259 3.00829 4.40837 0
M  V30 476 O 41.5489 2.13594 5.28898 0
M  V30 477 O 40.4829 3.93168 4.55744 0
M  V30 478 H 44.3089 2.63106 1.51687 0
M  V30 479 H 41.8939 1.32588 0.688543 0
M  V30 480 H 43.7759 1.78277 3.81831 0
M  V30 481 H 42.4509 0.800278 3.13651 0
M  V30 482 H 41.3579 2.9577 2.29065 0
M  V30 483 H 42.6909 3.87934 3.02933 0
M  V30 484 N 44.343 -0.763751 1.37857 0
M  V30 485 C 45.571 -1.55293 1.36718 0
M  V30 486 C 45.986 -1.88745 -0.0455434 0
M  V30 487 O 45.343 -1.52039 -1.00947 0
M  V30 488 C 45.394 -2.85831 2.2132 0
M  V30 489 O 45.115 -2.5381 3.57089 0
M  V30 490 C 46.616 -3.80023 2.28249 0
M  V30 491 H 43.836 -0.480841 0.468009 0
M  V30 492 H 46.38 -0.946009 1.81303 0
M  V30 493 H 44.535 -3.42926 1.80223 0
M  V30 494 H 44.949 -3.37459 4.01524 0
M  V30 495 H 46.423 -4.68599 2.91752 0
M  V30 496 H 46.9 -4.1973 1.2932 0
M  V30 497 H 47.506 -3.28855 2.69693 0
M  V30 498 N 45.8211 -1.22559 -0.990812 0
M  V30 499 C 47.0461 -1.07862 -1.77145 0
M  V30 500 C 47.4711 0.366447 -1.84496 0
M  V30 501 O 46.8291 1.26478 -1.29896 0
M  V30 502 C 46.8771 -1.69686 -3.18181 0
M  V30 503 O 45.9811 -0.951946 -4.01263 0
M  V30 504 H 45.3221 -0.378712 -0.545411 0
M  V30 505 H 47.8521 -1.62399 -1.2445 0
M  V30 506 H 47.8621 -1.74496 -3.68802 0
M  V30 507 H 46.5371 -2.74841 -3.12146 0
M  V30 508 H 45.1141 -0.980011 -3.59792 0
M  V30 509 N 47.2992 1.18797 -1.03562 0
M  V30 510 C 48.2292 2.24472 -0.643019 0
M  V30 511 C 49.2102 1.66433 0.351283 0
M  V30 512 O 50.3952 1.92803 0.232505 0
M  V30 513 C 47.5252 3.473 4.24935e-05 0
M  V30 514 C 46.4792 4.18055 -0.917257 0
M  V30 515 C 45.8052 5.34519 -0.138941 0
M  V30 516 C 47.1052 4.72109 -2.23407 0
M  V30 517 H 48.7992 2.57566 -1.52643 0
M  V30 518 H 46.3452 1.23806 -0.735394 0
M  V30 519 H 48.2982 4.20426 0.286383 0
M  V30 520 H 47.0222 3.13424 0.918299 0
M  V30 521 H 45.6812 3.46821 -1.1879 0
M  V30 522 H 45.3292 4.96891 0.781562 0
M  V30 523 H 45.0292 5.82794 -0.750005 0
M  V30 524 H 46.5532 6.10438 0.1405 0
M  V30 525 H 47.9672 5.36955 -2.00879 0
M  V30 526 H 46.3642 5.30897 -2.79765 0
M  V30 527 H 47.4342 3.89807 -2.88407 0
M  V30 528 N 48.7773 0.814389 1.34928 0
M  V30 529 C 50.1933 0.499084 1.51596 0
M  V30 530 C 50.3933 -0.978319 1.76157 0
M  V30 531 O 49.4493 -1.76309 1.80752 0
M  V30 532 C 50.7623 1.35121 2.68631 0
M  V30 533 C 52.3103 1.34746 2.82511 0
M  V30 534 C 52.7853 2.18388 4.0258 0
M  V30 535 N 54.2763 2.15966 4.09772 0
M  V30 536 C 55.0113 2.77437 5.01813 0
M  V30 537 N 54.5073 3.47866 5.99134 0
M  V30 538 N 56.3003 2.67037 4.94619 0
M  V30 539 H 48.4513 1.7711 1.17243 0
M  V30 540 H 50.7143 0.754256 0.574284 0
M  V30 541 H 50.4203 2.40001 2.57085 0
M  V30 542 H 50.2943 1.00991 3.63429 0
M  V30 543 H 52.6813 0.30648 2.93504 0
M  V30 544 H 52.7623 1.72869 1.88547 0
M  V30 545 H 52.4063 3.2253 3.92347 0
M  V30 546 H 52.3363 1.77621 4.9574 0
M  V30 547 H 54.8273 1.64729 3.40107 0
M  V30 548 H 55.1403 3.92038 6.65977 0
M  V30 549 H 53.4853 3.51972 5.99284 0
M  V30 550 H 56.6763 2.11597 4.17546 0
M  V30 551 H 56.8493 3.15232 5.66156 0
M  V30 552 N 50.2554 -1.46986 0.568584 0
M  V30 553 C 51.6714 -1.57946 0.229189 0
M  V30 554 C 51.8714 -1.56567 -1.26843 0
M  V30 555 O 50.9274 -1.47511 -2.04931 0
M  V30 556 C 52.2404 -2.87963 0.865909 0
M  V30 557 C 53.7884 -3.01568 0.838188 0
M  V30 558 C 54.2634 -4.34301 1.45419 0
M  V30 559 N 55.7544 -4.40965 1.41788 0
M  V30 560 C 56.4894 -5.42256 1.86403 0
M  V30 561 N 55.9854 -6.50297 2.38926 0
M  V30 562 N 57.7784 -5.3337 1.77405 0
M  V30 563 H 49.9294 -1.46126 1.54146 0
M  V30 564 H 52.1924 -0.696156 0.643484 0
M  V30 565 H 51.8984 -2.94742 1.91886 0
M  V30 566 H 51.7724 -3.75423 0.365687 0
M  V30 567 H 54.1594 -2.94379 -0.206106 0
M  V30 568 H 54.2404 -2.1562 1.37629 0
M  V30 569 H 53.8844 -4.42247 2.49761 0
M  V30 570 H 53.8144 -5.19 0.891435 0
M  V30 571 H 56.3054 -3.63484 1.03381 0
M  V30 572 H 56.6184 -7.23777 2.70863 0
M  V30 573 H 54.9634 -6.51155 2.42944 0
M  V30 574 H 58.1544 -4.47865 1.3614 0
M  V30 575 H 58.3274 -6.12169 2.12492 0
M  V30 576 N 51.7335 -0.305618 -1.54608 0
M  V30 577 C 52.9735 0.303114 -2.0214 0
M  V30 578 C 53.3375 1.50737 -1.18921 0
M  V30 579 O 54.5385 2.18778 -1.56172 0
M  V30 580 C 52.8095 0.646332 -3.51507 0
M  V30 581 S 54.3685 1.23727 -4.20995 0
M  V30 582 H 51.1865 0.0927643 -0.704923 0
M  V30 583 H 53.7885 -0.434566 -1.90609 0
M  V30 584 H 52.4925 -0.238541 -4.09706 0
M  V30 585 H 52.0235 1.41468 -3.67084 0
M  V30 586 H 54.0385 2.52489 -4.27158 0
M  V30 587 N 53.2116 1.57565 -0.0334293 0
M  V30 588 C 54.1416 2.13511 0.945265 0
M  V30 589 C 55.1226 1.05231 1.33643 0
M  V30 590 O 56.3076 1.33084 1.41429 0
M  V30 591 C 53.4376 2.6657 2.22616 0
M  V30 592 C 52.3916 3.79676 1.97561 0
M  V30 593 C 51.7176 4.1918 3.31952 0
M  V30 594 C 53.0176 5.0557 1.31135 0
M  V30 595 H 54.7116 2.95538 0.479325 0
M  V30 596 H 52.2576 1.42166 0.229115 0
M  V30 597 H 54.2106 3.04344 2.91466 0
M  V30 598 H 52.9346 1.8171 2.71384 0
M  V30 599 H 51.5936 3.42347 1.31127 0
M  V30 600 H 51.2416 3.31296 3.78487 0
M  V30 601 H 50.9416 4.95402 3.15992 0
M  V30 602 H 52.4656 4.59541 4.02063 0
M  V30 603 H 53.8796 5.40903 1.89992 0
M  V30 604 H 52.2766 5.86818 1.25559 0
M  V30 605 H 53.3466 4.84062 0.284894 0
M  V30 606 N 54.6897 -0.239769 1.55765 0
M  V30 607 C 55.9147 -0.988373 1.82335 0
M  V30 608 C 56.3397 -1.77886 0.611421 0
M  V30 609 O 55.6977 -1.75889 -0.439639 0
M  V30 610 C 55.7457 -1.89627 3.06715 0
M  V30 611 O 54.8497 -2.98904 2.84131 0
M  V30 612 H 54.1907 -0.280858 0.601677 0
M  V30 613 H 56.7207 -0.258597 2.02959 0
M  V30 614 H 56.7307 -2.30957 3.36338 0
M  V30 615 H 55.4057 -1.31511 3.9456 0
M  V30 616 H 53.9827 -2.61651 2.65694 0
M  V30 617 N 56.1678 -1.49265 -0.50573 0
M  V30 618 C 57.3958 -1.62215 -1.28429 0
M  V30 619 C 57.8108 -0.291697 -1.86533 0
M  V30 620 O 57.1678 0.722233 -1.67601 0
M  V30 621 C 57.2188 -2.68735 -2.41793 0
M  V30 622 O 56.9398 -3.96619 -1.86078 0
M  V30 623 C 58.4408 -2.92346 -3.3324 0
M  V30 624 H 55.6608 -0.546239 -0.389697 0
M  V30 625 H 58.2048 -1.95265 -0.607609 0
M  V30 626 H 56.3598 -2.38476 -3.053 0
M  V30 627 H 56.7738 -4.55256 -2.60465 0
M  V30 628 H 58.2478 -3.70623 -4.09075 0
M  V30 629 H 58.7248 -2.02081 -3.89948 0
M  V30 630 H 59.3308 -3.24003 -2.75503 0
M  V30 631 N 57.6459 0.756429 -1.3826 0
M  V30 632 C 58.5759 1.88374 -1.37976 0
M  V30 633 C 59.5569 1.68311 -0.246082 0
M  V30 634 O 60.7419 1.88944 -0.44874 0
M  V30 635 C 57.8719 3.25864 -1.20125 0
M  V30 636 C 56.8259 3.60523 -2.30666 0
M  V30 637 C 56.1519 4.9672 -1.97923 0
M  V30 638 C 57.4519 3.65692 -3.72916 0
M  V30 639 H 59.1459 1.88869 -2.32312 0
M  V30 640 H 56.6919 0.907272 -1.11824 0
M  V30 641 H 58.6449 4.0438 -1.18552 0
M  V30 642 H 57.3689 3.25841 -0.222498 0
M  V30 643 H 56.0279 2.84324 -2.3142 0
M  V30 644 H 55.6759 4.93253 -0.985393 0
M  V30 645 H 55.3759 5.20878 -2.71955 0
M  V30 646 H 56.8999 5.77618 -1.97964 0
M  V30 647 H 58.3139 4.34328 -3.74208 0
M  V30 648 H 56.7109 4.01358 -4.4613 0
M  V30 649 H 57.7809 2.65987 -4.05436 0
M  V30 650 N 59.124 1.23083 0.984299 0
M  V30 651 C 60.401 0.9689 1.69917 0
M  V30 652 C 60.781 -0.513604 2.04757 0
M  V30 653 O 60.129 -1.48383 1.73767 0
M  V30 654 C 60.339 1.87518 2.94343 0
M  V30 655 C 61.687 2.13636 3.6694 0
M  V30 656 O 62.711 1.85036 3.04368 0
M  V30 657 O 61.57 2.62119 4.79537 0
M  V30 658 H 58.664 0.365095 0.742048 0
M  V30 659 H 61.21 1.34107 1.03987 0
M  V30 660 H 59.982 2.87756 2.65164 0
M  V30 661 H 59.605 1.50514 3.6801 0
M  V30 662 N 60.6021 -1.18246 1.0419 0
M  V30 663 C 61.5321 -2.24127 0.654914 0
M  V30 664 C 62.5131 -1.66617 -0.342451 0
M  V30 665 O 63.6981 -1.92924 -0.222277 0
M  V30 666 C 60.8281 -3.47295 0.0183757 0
M  V30 667 C 59.7821 -4.17563 0.939414 0
M  V30 668 C 59.1081 -5.34438 0.167286 0
M  V30 669 C 60.4081 -4.70917 2.25908 0
M  V30 670 H 62.1021 -2.56753 1.54007 0
M  V30 671 H 59.6481 -1.23414 0.74195 0
M  V30 672 H 61.6011 -4.20572 -0.264082 0
M  V30 673 H 60.3251 -3.13907 -0.901664 0
M  V30 674 H 58.9841 -3.46186 1.20628 0
M  V30 675 H 58.6321 -4.97298 -0.7552 0
M  V30 676 H 58.3321 -5.82388 0.780901 0
M  V30 677 H 59.8561 -6.10504 -0.108125 0
M  V30 678 H 61.2701 -5.35882 2.03724 0
M  V30 679 H 59.6671 -5.29406 2.82577 0
M  V30 680 H 60.7371 -3.88272 2.9047 0
M  V30 681 N 62.0802 -0.821533 -1.34494 0
M  V30 682 C 63.3082 -0.421884 -2.02553 0
M  V30 683 C 63.7232 0.971745 -1.61872 0
M  V30 684 O 63.0802 1.62864 -0.823496 0
M  V30 685 C 63.1312 -0.51285 -3.57844 0
M  V30 686 O 62.8522 -1.85155 -3.97051 0
M  V30 687 C 64.3532 -0.107921 -4.43169 0
M  V30 688 H 61.5732 -0.169482 -0.649243 0
M  V30 689 H 64.1172 -1.1093 -1.71798 0
M  V30 690 H 62.2722 0.126474 -3.87193 0
M  V30 691 H 62.6862 -1.82482 -4.91732 0
M  V30 692 H 64.1602 -0.222657 -5.51551 0
M  V30 693 H 64.6372 0.948401 -4.28838 0
M  V30 694 H 65.2432 -0.720989 -4.19144 0
M  V30 695 N 63.5583 1.46682 -0.576371 0
M  V30 696 C 64.4883 2.33028 0.148397 0
M  V30 697 C 65.4693 1.44961 0.889956 0
M  V30 698 O 66.6543 1.73789 0.866662 0
M  V30 699 C 63.7843 3.27117 1.1667 0
M  V30 700 C 62.7383 4.24575 0.540386 0
M  V30 701 C 62.0643 5.08126 1.6647 0
M  V30 702 C 63.3643 5.19722 -0.518331 0
M  V30 703 H 65.0583 2.93875 -0.572509 0
M  V30 704 H 62.6043 1.41315 -0.276768 0
M  V30 705 H 64.5573 3.86374 1.68204 0
M  V30 706 H 63.2813 2.64364 1.9178 0
M  V30 707 H 61.9403 3.66571 0.0461769 0
M  V30 708 H 61.5883 4.41762 2.40531 0
M  V30 709 H 61.2883 5.74122 1.25131 0
M  V30 710 H 62.8123 5.70246 2.18293 0
M  V30 711 H 64.2263 5.73232 -0.0883058 0
M  V30 712 H 62.6233 5.94026 -0.851679 0
M  V30 713 H 63.6933 4.64037 -1.40703 0
M  V30 714 N 65.0364 0.313813 1.54444 0
M  V30 715 C 65.9664 -0.549454 2.26943 0
M  V30 716 C 66.9474 -1.12741 1.27372 0
M  V30 717 O 68.1324 -1.15436 1.56167 0
M  V30 718 C 65.2624 -1.71523 3.01989 0
M  V30 719 C 64.2164 -1.26703 4.08816 0
M  V30 720 C 63.5424 -2.51898 4.71647 0
M  V30 721 C 64.8424 -0.388962 5.2085 0
M  V30 722 H 66.5364 0.0552661 2.99349 0
M  V30 723 H 64.0824 0.0280207 1.43973 0
M  V30 724 H 66.0354 -2.32535 3.51433 0
M  V30 725 H 64.7594 -2.34639 2.27183 0
M  V30 726 H 63.4184 -0.679896 3.6024 0
M  V30 727 H 63.0664 -3.13356 3.93468 0
M  V30 728 H 62.7664 -2.22605 5.43802 0
M  V30 729 H 64.2904 -3.1369 5.23861 0
M  V30 730 H 65.7044 -0.905107 5.6611 0
M  V30 731 H 64.1014 -0.18924 5.99802 0
M  V30 732 H 65.1714 0.582699 4.81386 0
M  V30 733 N 66.5145 -1.57545 0.0417849 0
M  V30 734 C 67.7625 -1.91937 -0.632829 0
M  V30 735 C 68.0835 -0.919978 -1.71934 0
M  V30 736 O 67.3535 0.0366064 -1.95866 0
M  V30 737 H 65.9335 -0.708493 -0.236742 0
M  V30 738 H 68.5955 -1.9468 0.0925745 0
M  V30 739 H 67.6915 -2.92912 -1.07746 0
M  V30 740 N 67.9926 0.231505 -1.5589 0
M  V30 741 C 69.2386 0.95877 -1.78705 0
M  V30 742 C 69.5716 1.8438 -0.609725 0
M  V30 743 O 68.8466 1.90521 0.391426 0
M  V30 744 C 69.1296 1.8062 -3.11526 0
M  V30 745 C 68.9826 0.948328 -4.39689 0
M  V30 746 C 70.3016 2.78585 -3.40703 0
M  V30 747 H 67.4206 0.347129 -0.650131 0
M  V30 748 H 70.0626 0.228259 -1.88624 0
M  V30 749 H 68.2126 2.42902 -3.03201 0
M  V30 750 H 69.8846 0.343016 -4.60023 0
M  V30 751 H 68.1276 0.253314 -4.3306 0
M  V30 752 H 68.7986 1.57543 -5.29041 0
M  V30 753 H 71.2746 2.26439 -3.49091 0
M  V30 754 H 70.1506 3.34988 -4.34826 0
M  V30 755 H 70.4116 3.55825 -2.62375 0
M  V30 756 N 69.4707 1.49531 0.497807 0
M  V30 757 C 70.7187 1.58865 1.24926 0
M  V30 758 C 71.0397 0.278721 1.92998 0
M  V30 759 O 70.3097 -0.702144 1.82885 0
M  V30 760 H 68.8897 0.585343 0.464094 0
M  V30 761 H 71.5517 1.86174 0.57666 0
M  V30 762 H 70.6477 2.38633 2.01149 0
M  V30 763 N 70.9488 -0.749086 1.3866 0
M  V30 764 C 72.1968 -1.50535 1.34847 0
M  V30 765 C 72.5178 -1.94909 -0.0595016 0
M  V30 766 O 71.7878 -1.67973 -1.00806 0
M  V30 767 H 70.3678 -0.558395 0.49619 0
M  V30 768 H 73.0298 -0.890165 1.73384 0
M  V30 769 H 72.1258 -2.39413 2.00219 0
M  V30 770 N 72.4269 -1.23603 -0.977757 0
M  V30 771 C 73.3599 -0.962772 -2.06896 0
M  V30 772 C 74.3379 0.0998743 -1.62293 0
M  V30 773 O 75.5219 -0.0349421 -1.88468 0
M  V30 774 C 72.6489 -0.45095 -3.35685 0
M  V30 775 C 71.6949 -1.50061 -3.99229 0
M  V30 776 S 72.5279 -3.07884 -4.38142 0
M  V30 777 C 73.6839 -2.58378 -5.7008 0
M  V30 778 H 73.9169 -1.88677 -2.29757 0
M  V30 779 H 71.4499 -1.06876 -1.11431 0
M  V30 780 H 73.4079 -0.162261 -4.10179 0
M  V30 781 H 72.0689 0.452179 -3.10828 0
M  V30 782 H 71.2619 -1.09269 -4.92013 0
M  V30 783 H 70.8639 -1.73878 -3.31123 0
M  V30 784 H 73.1559 -2.00563 -6.47133 0
M  V30 785 H 74.0989 -3.49711 -6.15717 0
M  V30 786 H 74.5069 -1.99143 -5.28207 0
M  V30 787 N 73.905 1.17692 -1.04816 0
M  V30 788 C 75.151 1.88137 -0.75711 0
M  V30 789 C 75.484 1.80604 0.713841 0
M  V30 790 O 74.759 1.21146 1.52164 0
M  V30 791 C 75.042 3.38318 -1.2334 0
M  V30 792 C 74.895 3.54622 -2.76701 0
M  V30 793 C 76.214 4.32214 -0.829415 0
M  V30 794 H 73.333 0.683163 -0.27651 0
M  V30 795 H 75.975 1.38424 -1.30149 0
M  V30 796 H 74.125 3.80787 -0.770286 0
M  V30 797 H 75.797 3.21194 -3.31107 0
M  V30 798 H 74.04 2.97026 -3.16161 0
M  V30 799 H 74.711 4.60028 -3.05088 0
M  V30 800 H 77.187 3.97565 -1.22805 0
M  V30 801 H 76.063 5.35838 -1.19033 0
M  V30 802 H 76.324 4.41294 0.266891 0
M  V30 803 N 75.3831 0.828654 1.34056 0
M  V30 804 C 76.6311 0.41863 1.97717 0
M  V30 805 C 76.9521 -1.02314 1.66002 0
M  V30 806 O 76.2221 -1.71119 0.953683 0
M  V30 807 H 74.8021 0.151809 0.731412 0
M  V30 808 H 77.4641 1.05936 1.63596 0
M  V30 809 H 76.5601 0.542318 3.07352 0
M  V30 810 N 76.8612 -1.46375 0.584142 0
M  V30 811 C 78.0862 -2.07268 0.0740405 0
M  V30 812 C 78.5112 -1.42979 -1.22223 0
M  V30 813 O 77.8692 -0.514092 -1.73859 0
M  V30 814 C 77.9172 -3.60518 -0.0767769 0
M  V30 815 O 77.0212 -3.96533 -1.13292 0
M  V30 816 H 76.3622 -0.660961 0.0634524 0
M  V30 817 H 78.8922 -1.87991 0.807492 0
M  V30 818 H 78.9022 -4.07021 -0.282489 0
M  V30 819 H 77.5772 -4.06702 0.86986 0
M  V30 820 H 76.1542 -3.61738 -0.905553 0
M  V30 821 N 78.3393 -0.321999 -1.54275 0
M  V30 822 C 79.5873 0.280489 -2.00144 0
M  V30 823 C 79.9083 1.52777 -1.21178 0
M  V30 824 O 79.1783 1.9338 -0.313187 0
M  V30 825 H 77.7583 0.106632 -0.73935 0
M  V30 826 H 80.4203 -0.438184 -1.8991 0
M  V30 827 H 79.5163 0.537972 -3.07428 0
M  V30 828 N 79.8174 1.5752 -0.0501392 0
M  V30 829 C 80.7474 2.14502 0.922566 0
M  V30 830 C 81.7284 1.06642 1.3252 0
M  V30 831 O 82.9134 1.34577 1.4001 0
M  V30 832 C 80.0434 2.68916 2.19776 0
M  V30 833 C 78.9974 3.8175 1.93523 0
M  V30 834 C 78.3234 4.22677 3.27487 0
M  V30 835 C 79.6234 5.06932 1.25765 0
M  V30 836 H 81.3174 2.9603 0.447952 0
M  V30 837 H 78.8634 1.42401 0.214024 0
M  V30 838 H 80.8164 3.07419 2.88222 0
M  V30 839 H 79.5404 1.84578 2.69441 0
M  V30 840 H 78.1994 3.43718 1.27489 0
M  V30 841 H 77.8474 3.35291 3.74952 0
M  V30 842 H 77.5474 4.98725 3.1072 0
M  V30 843 H 79.0714 4.63779 3.97166 0
M  V30 844 H 80.4854 5.42888 1.84244 0
M  V30 845 H 78.8824 5.88116 1.19328 0
M  V30 846 H 79.9524 4.84337 0.233536 0
M  V30 847 N 81.2955 -0.223234 1.56011 0
M  V30 848 C 82.5255 -0.963413 1.82762 0
M  V30 849 C 82.9335 -1.78516 0.626804 0
M  V30 850 O 82.2765 -1.78974 -0.414014 0
M  V30 851 C 82.3385 -1.93126 3.0322 0
M  V30 852 C 82.0025 -1.2942 4.38291 0
M  V30 853 C 82.9995 -0.684916 5.15369 0
M  V30 854 C 80.6845 -1.30647 4.85012 0
M  V30 855 C 82.6785 -0.0963971 6.37327 0
M  V30 856 C 80.3655 -0.71411 6.06913 0
M  V30 857 C 81.3635 -0.110123 6.82911 0
M  V30 858 O 81.0515 0.47303 8.02507 0
M  V30 859 H 80.7835 -0.288011 0.611576 0
M  V30 860 H 83.3375 -0.244103 2.03944 0
M  V30 861 H 81.5675 -2.68952 2.77852 0
M  V30 862 H 83.2565 -2.53685 3.16857 0
M  V30 863 H 84.0225 -0.667774 4.80381 0
M  V30 864 H 79.9015 -1.76598 4.25833 0
M  V30 865 H 83.4455 0.375657 6.96588 0
M  V30 866 H 79.3425 -0.728659 6.41374 0
M  V30 867 H 80.1105 0.367186 8.17676 0
M  V30 868 N 82.7736 -1.49793 -0.48987 0
M  V30 869 C 84.0196 -1.60078 -1.24511 0
M  V30 870 C 84.3526 -0.291608 -1.91998 0
M  V30 871 O 83.6276 0.705647 -1.81248 0
M  V30 872 C 83.9106 -2.76791 -2.30345 0
M  V30 873 C 83.7636 -4.17535 -1.67286 0
M  V30 874 C 85.0826 -2.89111 -3.31817 0
M  V30 875 H 82.2016 -0.582645 -0.451324 0
M  V30 876 H 84.8436 -1.82117 -0.541612 0
M  V30 877 H 82.9936 -2.5813 -2.90346 0
M  V30 878 H 84.6656 -4.4774 -1.11026 0
M  V30 879 H 82.9086 -4.22665 -0.976577 0
M  V30 880 H 83.5796 -4.95094 -2.44103 0
M  V30 881 H 86.0556 -3.06133 -2.81819 0
M  V30 882 H 84.9316 -3.72433 -4.03219 0
M  V30 883 H 85.1926 -1.9893 -3.94815 0
M  V30 884 N 84.2517 0.741722 -1.39055 0
M  V30 885 C 85.1817 1.869 -1.39966 0
M  V30 886 C 86.1627 1.6804 -0.26392 0
M  V30 887 O 87.3477 1.88458 -0.468755 0
M  V30 888 C 84.4777 3.24572 -1.23574 0
M  V30 889 C 83.4317 3.58056 -2.34477 0
M  V30 890 C 82.7577 4.94593 -2.0318 0
M  V30 891 C 84.0577 3.61716 -3.76774 0
M  V30 892 H 85.7517 1.86395 -2.34302 0
M  V30 893 H 83.2977 0.895361 -1.1278 0
M  V30 894 H 85.2507 4.031 -1.22834 0
M  V30 895 H 83.9747 3.25587 -0.257045 0
M  V30 896 H 82.6337 2.81854 -2.34423 0
M  V30 897 H 82.2817 4.92181 -1.03765 0
M  V30 898 H 81.9817 5.17964 -2.77465 0
M  V30 899 H 83.5057 5.75486 -2.04079 0
M  V30 900 H 84.9197 4.30335 -3.78794 0
M  V30 901 H 83.3167 3.96603 -4.50362 0
M  V30 902 H 84.3867 2.61672 -4.08235 0
M  V30 903 N 85.7298 1.2412 0.971189 0
M  V30 904 C 86.9578 1.10575 1.74874 0
M  V30 905 C 87.3728 -0.342017 1.85676 0
M  V30 906 O 86.7298 -1.23617 1.34258 0
M  V30 907 C 86.7808 1.73579 3.171 0
M  V30 908 O 86.5018 3.12695 3.06844 0
M  V30 909 C 88.0028 1.65598 4.11208 0
M  V30 910 H 85.2228 0.386504 0.548503 0
M  V30 911 H 87.7668 1.64156 1.21955 0
M  V30 912 H 85.9218 1.24009 3.67016 0
M  V30 913 H 86.3358 3.43412 3.96445 0
M  V30 914 H 87.8098 2.1437 5.08674 0
M  V30 915 H 88.2868 0.616532 4.34851 0
M  V30 916 H 88.8928 2.14578 3.67201 0
M  V30 917 N 87.2079 -1.17134 1.05439 0
M  V30 918 C 88.4559 -1.87085 0.764429 0
M  V30 919 C 88.7769 -1.81584 -0.710787 0
M  V30 920 O 88.0469 -1.24349 -1.51374 0
M  V30 921 H 86.6269 -0.692627 0.279779 0
M  V30 922 H 89.2889 -1.42087 1.33406 0
M  V30 923 H 88.3849 -2.92759 1.0816 0
M  V30 924 N 88.686 -0.835752 -1.33615 0
M  V30 925 C 89.649 -0.272 -2.2758 0
M  V30 926 C 90.649 0.557487 -1.50827 0
M  V30 927 O 91.839 0.37173 -1.70188 0
M  V30 928 C 88.971 0.617173 -3.35267 0
M  V30 929 H 90.164 -1.10111 -2.78954 0
M  V30 930 H 87.717 -0.608594 -1.43965 0
M  V30 931 H 88.452 1.46884 -2.89129 0
M  V30 932 H 88.237 0.0237066 -3.92093 0
M  V30 933 H 89.727 1.005 -4.05326 0
M  V30 934 N 90.1641 1.46063 -0.591896 0
M  V30 935 C 91.4101 2.02638 -0.0811191 0
M  V30 936 C 91.7431 1.4613 1.27905 0
M  V30 937 O 91.0181 0.629908 1.84017 0
M  V30 938 C 91.3011 3.60091 -0.0252436 0
M  V30 939 C 91.1541 4.26965 -1.41496 0
M  V30 940 C 92.4731 4.3496 0.670685 0
M  V30 941 H 89.5921 0.73635 -0.0309524 0
M  V30 942 H 92.2341 1.741 -0.760859 0
M  V30 943 H 90.3841 3.84535 0.553624 0
M  V30 944 H 92.0561 4.13756 -2.0397 0
M  V30 945 H 90.2991 3.85971 -1.98011 0
M  V30 946 H 90.9701 5.35781 -1.32825 0
M  V30 947 H 93.4461 4.15716 0.178825 0
M  V30 948 H 92.3221 5.44686 0.678837 0
M  V30 949 H 92.5831 4.06685 1.73379 0
M  V30 950 N 91.6422 0.330177 1.54103 0
M  V30 951 C 92.6052 -0.520144 2.2322 0
M  V30 952 C 93.6052 -1.03828 1.22786 0
M  V30 953 O 94.7952 -0.929652 1.4732 0
M  V30 954 C 91.9272 -1.72317 2.94142 0
M  V30 955 H 93.1202 0.0841605 2.99782 0
M  V30 956 H 90.6732 0.0813433 1.56088 0
M  V30 957 H 91.4082 -2.36653 2.21734 0
M  V30 958 H 91.1932 -1.35898 3.67796 0
M  V30 959 H 92.6832 -2.3266 3.46784 0
M  V30 960 N 93.1203 -1.57491 0.0584922 0
M  V30 961 C 94.0673 -2.11958 -0.913376 0
M  V30 962 C 95.0373 -1.02875 -1.30407 0
M  V30 963 O 96.2223 -1.30464 -1.39226 0
M  V30 964 C 93.3623 -2.67497 -2.18035 0
M  V30 965 C 92.4753 -3.90691 -1.84349 0
M  V30 966 C 91.6103 -4.3452 -3.05559 0
M  V30 967 C 90.6493 -5.50395 -2.67827 0
M  V30 968 N 89.7863 -5.89244 -3.81754 0
M  V30 969 H 94.6263 -2.94704 -0.442017 0
M  V30 970 H 92.1633 -1.45643 -0.206545 0
M  V30 971 H 94.1213 -2.978 -2.92183 0
M  V30 972 H 92.7513 -1.87537 -2.62735 0
M  V30 973 H 91.8033 -3.66934 -1.00319 0
M  V30 974 H 93.1153 -4.7489 -1.5258 0
M  V30 975 H 92.2693 -4.66414 -3.87998 0
M  V30 976 H 91.0083 -3.49147 -3.40511 0
M  V30 977 H 90.0133 -5.18165 -1.83806 0
M  V30 978 H 91.2383 -6.3749 -2.34059 0
M  V30 979 H 89.1843 -5.06823 -4.16493 0
M  V30 980 H 89.1013 -6.68151 -3.53708 0
M  V30 981 H 90.3693 -6.25756 -4.64811 0
M  V30 982 N 94.5984 0.214957 -1.56127 0
M  V30 983 C 95.5084 1.28727 -1.96129 0
M  V30 984 C 96.5244 1.50916 -0.866044 0
M  V30 985 O 97.7004 1.63918 -1.17016 0
M  V30 986 C 94.7654 2.61569 -2.27558 0
M  V30 987 C 93.8264 2.47625 -3.50685 0
M  V30 988 C 93.0594 3.74132 -3.80606 0
M  V30 989 O 93.2824 4.77438 -3.12104 0
M  V30 990 O 92.2164 3.70849 -4.74083 0
M  V30 991 H 96.0424 0.977855 -2.87527 0
M  V30 992 H 93.6274 0.418358 -1.43423 0
M  V30 993 H 95.5094 3.40012 -2.48938 0
M  V30 994 H 94.1844 2.92178 -1.39332 0
M  V30 995 H 93.0914 1.67361 -3.34576 0
M  V30 996 H 94.4244 2.21954 -4.39315 0
M  V30 997 N 96.0765 1.50051 0.48192 0
M  V30 998 C 97.3225 1.60736 1.2366 0
M  V30 999 C 97.6555 0.301786 1.91841 0
M  V30 1000 O 96.9305 -0.696025 1.8162 0
M  V30 1001 C 97.2135 2.78009 2.28874 0
M  V30 1002 C 97.0665 4.18416 1.65069 0
M  V30 1003 C 98.3855 2.90867 3.30279 0
M  V30 1004 H 95.5045 0.585031 0.448228 0
M  V30 1005 H 98.1465 1.82402 0.531946 0
M  V30 1006 H 96.2965 2.59667 2.88973 0
M  V30 1007 H 97.9685 4.48322 1.0865 0
M  V30 1008 H 96.2115 4.23177 0.954148 0
M  V30 1009 H 96.8825 4.96381 2.41474 0
M  V30 1010 H 99.3585 3.07623 2.80191 0
M  V30 1011 H 98.2345 3.74566 4.01238 0
M  V30 1012 H 98.4955 2.01021 3.93755 0
M  V30 1013 N 97.5546 -0.734337 1.39446 0
M  V30 1014 C 98.5176 -1.83004 1.37994 0
M  V30 1015 C 99.5176 -1.58397 0.276938 0
M  V30 1016 O 100.708 -1.65785 0.534875 0
M  V30 1017 C 97.8396 -3.20802 1.1532 0
M  V30 1018 H 99.0326 -1.85694 2.35494 0
M  V30 1019 H 96.5856 -0.938059 1.25021 0
M  V30 1020 H 97.3206 -3.23772 0.185036 0
M  V30 1021 H 97.1056 -3.4006 1.95197 0
M  V30 1022 H 98.5956 -4.00862 1.17046 0
M  V30 1023 N 99.0327 -1.24633 -0.964593 0
M  V30 1024 C 100.281 -1.08573 -1.70459 0
M  V30 1025 C 100.602 0.375655 -1.91347 0
M  V30 1026 O 99.8717 1.26779 -1.49345 0
M  V30 1027 H 98.4517 -0.398784 -0.631649 0
M  V30 1028 H 101.114 -1.56601 -1.16026 0
M  V30 1029 H 100.21 -1.58623 -2.68785 0
M  V30 1030 N 100.511 1.16574 -1.06058 0
M  V30 1031 C 101.922 1.68662 -0.800632 0
M  V30 1032 C 102.273 1.84184 0.67608 0
M  V30 1033 O 101.398 1.53568 1.52466 0
M  V30 1034 C 101.993 3.06356 -1.44676 0
M  V30 1035 C 100.552 3.55575 -1.23465 0
M  V30 1036 C 99.6988 2.31616 -1.52477 0
M  V30 1037 H 102.65 1.00969 -1.22438 0
M  V30 1038 H 102.671 3.70636 -0.860788 0
M  V30 1039 H 102.183 2.95027 -2.52152 0
M  V30 1040 H 100.284 3.72167 -0.179527 0
M  V30 1041 H 100.397 4.37812 -1.94571 0
M  V30 1042 H 98.7608 2.36512 -0.945209 0
M  V30 1043 H 99.5438 2.22887 -2.61106 0
M  V30 1044 N 101.989 0.842826 1.3317 0
M  V30 1045 C 102.952 0.284065 2.27433 0
M  V30 1046 C 103.952 -0.54948 1.5112 0
M  V30 1047 O 105.142 -0.362699 1.70382 0
M  V30 1048 C 102.274 -0.599384 3.35589 0
M  V30 1049 H 103.467 1.11589 2.78366 0
M  V30 1050 H 101.02 0.616221 1.4364 0
M  V30 1051 H 101.755 -1.45349 2.89904 0
M  V30 1052 H 101.54 -0.00291266 3.921 0
M  V30 1053 H 103.03 -0.983488 4.05854 0
M  V30 1054 N 103.467 -1.45747 0.599634 0
M  V30 1055 C 104.713 -2.02592 0.0918643 0
M  V30 1056 C 105.046 -1.46806 -1.27128 0
M  V30 1057 O 104.321 -0.639658 -1.83681 0
M  V30 1058 C 104.604 -3.60073 0.0443398 0
M  V30 1059 C 104.457 -4.26208 1.43759 0
M  V30 1060 C 105.776 -4.35309 -0.647608 0
M  V30 1061 H 102.895 -0.736175 0.034857 0
M  V30 1062 H 105.537 -1.73694 0.770081 0
M  V30 1063 H 103.687 -3.84823 -0.533224 0
M  V30 1064 H 105.359 -4.12668 2.06162 0
M  V30 1065 H 103.602 -3.84916 2.00056 0
M  V30 1066 H 104.273 -5.35069 1.35665 0
M  V30 1067 H 106.749 -4.15805 -0.156776 0
M  V30 1068 H 105.625 -5.45038 -0.649942 0
M  V30 1069 H 105.886 -4.07598 -1.71219 0
M  V30 1070 N 104.945 -0.338344 -1.53925 0
M  V30 1071 C 105.875 0.51328 -2.27789 0
M  V30 1072 C 106.856 1.107 -1.29149 0
M  V30 1073 O 108.041 1.12937 -1.57984 0
M  V30 1074 C 105.171 1.66697 -3.04679 0
M  V30 1075 C 104.125 1.20183 -4.1078 0
M  V30 1076 C 103.451 2.44363 -4.75595 0
M  V30 1077 C 104.751 0.30605 -5.21403 0
M  V30 1078 H 106.445 -0.102883 -2.99223 0
M  V30 1079 H 103.991 -0.0509219 -1.4391 0
M  V30 1080 H 105.944 2.26915 -3.55088 0
M  V30 1081 H 104.668 2.30995 -2.30887 0
M  V30 1082 H 103.327 0.622499 -3.61276 0
M  V30 1083 H 102.975 3.07057 -3.98403 0
M  V30 1084 H 102.675 2.13925 -5.47275 0
M  V30 1085 H 104.199 3.05317 -5.28786 0
M  V30 1086 H 105.613 0.814929 -5.67478 0
M  V30 1087 H 104.01 0.0937929 -6.00027 0
M  V30 1088 H 105.08 -0.65921 -4.80398 0
M  V30 1089 N 106.423 1.57458 -0.0668435 0
M  V30 1090 C 107.353 2.15468 0.899764 0
M  V30 1091 C 108.334 1.08042 1.31381 0
M  V30 1092 O 109.519 1.36054 1.38574 0
M  V30 1093 C 106.649 2.71232 2.16911 0
M  V30 1094 C 105.603 3.83781 1.89463 0
M  V30 1095 C 104.929 4.26127 3.22986 0
M  V30 1096 C 106.229 5.08238 1.20381 0
M  V30 1097 H 107.923 2.96488 0.416529 0
M  V30 1098 H 105.469 1.4262 0.198908 0
M  V30 1099 H 107.422 3.10458 2.84945 0
M  V30 1100 H 106.146 1.87426 2.67468 0
M  V30 1101 H 104.805 3.45051 1.23836 0
M  V30 1102 H 104.453 3.39249 3.71374 0
M  V30 1103 H 104.153 5.01993 3.05413 0
M  V30 1104 H 105.677 4.67966 3.92225 0
M  V30 1105 H 107.091 5.44811 1.78475 0
M  V30 1106 H 105.488 5.89349 1.13083 0
M  V30 1107 H 106.558 4.84558 0.182153 0
M  V30 1108 N 107.901 -0.206675 1.56239 0
M  V30 1109 C 109.126 -0.949474 1.8439 0
M  V30 1110 C 109.551 -1.76549 0.649016 0
M  V30 1111 O 108.909 -1.76782 -0.402231 0
M  V30 1112 C 108.957 -1.83078 3.10668 0
M  V30 1113 O 108.061 -2.9281 2.90407 0
M  V30 1114 H 107.402 -0.268033 0.607499 0
M  V30 1115 H 109.932 -0.215488 2.03462 0
M  V30 1116 H 109.942 -2.2377 3.41161 0
M  V30 1117 H 108.617 -1.23112 3.97261 0
M  V30 1118 H 107.194 -2.55956 2.71184 0
M  V30 1119 N 109.379 -1.50304 -0.473955 0
M  V30 1120 C 110.626 -1.6115 -1.22625 0
M  V30 1121 C 110.954 -0.310517 -1.92005 0
M  V30 1122 O 110.209 0.703419 -1.82621 0
M  V30 1123 C 110.508 -2.73938 -2.29549 0
M  V30 1124 C 110.174 -4.14519 -1.7744 0
M  V30 1125 C 108.836 -4.5277 -1.62949 0
M  V30 1126 C 111.188 -5.02392 -1.3875 0
M  V30 1127 C 108.516 -5.76639 -1.08187 0
M  V30 1128 C 110.868 -6.26805 -0.854309 0
M  V30 1129 C 109.532 -6.63861 -0.696011 0
M  V30 1130 H 108.802 -0.589691 -0.448715 0
M  V30 1131 H 111.449 -1.84228 -0.522705 0
M  V30 1132 H 109.754 -2.44937 -3.05799 0
M  V30 1133 H 111.451 -2.79534 -2.87509 0
M  V30 1134 H 108.041 -3.8434 -1.89685 0
M  V30 1135 H 112.225 -4.73474 -1.4878 0
M  V30 1136 H 107.481 -6.04027 -0.946666 0
M  V30 1137 H 111.655 -6.94258 -0.545843 0
M  V30 1138 H 109.282 -7.59722 -0.26952 0
M  V30 1139 N 110.857 0.726932 -1.39834 0
M  V30 1140 C 112.105 1.4837 -1.37225 0
M  V30 1141 C 112.426 1.94979 0.0284857 0
M  V30 1142 O 111.696 1.69555 0.981213 0
M  V30 1143 H 110.276 0.55043 -0.505011 0
M  V30 1144 H 112.938 0.862468 -1.74778 0
M  V30 1145 H 112.034 2.36198 -2.04003 0
M  V30 1146 N 112.336 1.25143 0.95797 0
M  V30 1147 C 113.582 1.09855 1.70469 0
M  V30 1148 C 113.915 -0.360187 1.90831 0
M  V30 1149 O 113.19 -1.26568 1.47685 0
M  V30 1150 C 113.473 1.8497 3.08963 0
M  V30 1151 C 113.326 3.38652 2.96032 0
M  V30 1152 C 114.645 1.63016 4.08795 0
M  V30 1153 H 111.764 0.400465 0.618706 0
M  V30 1154 H 114.406 1.53933 1.11376 0
M  V30 1155 H 112.556 1.47505 3.59409 0
M  V30 1156 H 114.228 3.85772 2.52938 0
M  V30 1157 H 112.471 3.66534 2.32025 0
M  V30 1158 H 113.142 3.8642 3.94187 0
M  V30 1159 H 115.618 1.95625 3.67247 0
M  V30 1160 H 114.494 2.18015 5.03747 0
M  V30 1161 H 114.755 0.570692 4.38401 0
M  V30 1162 N 113.814 -1.1601 1.06675 0
M  V30 1163 C 114.777 -2.18724 0.685001 0
M  V30 1164 C 115.777 -1.58496 -0.271246 0
M  V30 1165 O 116.967 -1.74119 -0.0531156 0
M  V30 1166 C 114.099 -3.40899 0.00853648 0
M  V30 1167 H 115.292 -2.54011 1.59431 0
M  V30 1168 H 112.845 -1.30352 0.862441 0
M  V30 1169 H 113.58 -3.11173 -0.913337 0
M  V30 1170 H 113.365 -3.8587 0.696204 0
M  V30 1171 H 114.855 -4.16886 -0.24414 0
M  V30 1172 N 115.292 -0.849877 -1.32721 0
M  V30 1173 C 116.255 -0.296122 -2.27279 0
M  V30 1174 C 117.255 0.541458 -1.5141 0
M  V30 1175 O 118.445 0.353658 -1.70572 0
M  V30 1176 C 115.577 0.581579 -3.35902 0
M  V30 1177 H 116.77 -1.13064 -2.77771 0
M  V30 1178 H 114.323 -0.62383 -1.43311 0
M  V30 1179 H 115.058 1.43809 -2.9067 0
M  V30 1180 H 114.843 -0.0178814 -3.92096 0
M  V30 1181 H 116.333 0.961951 -4.0637 0
M  V30 1182 N 116.77 1.45427 -0.607355 0
M  V30 1183 C 118.016 2.0254 -0.102607 0
M  V30 1184 C 118.349 1.47478 1.26348 0
M  V30 1185 O 117.624 0.64939 1.83339 0
M  V30 1186 C 117.907 3.60044 -0.0634347 0
M  V30 1187 C 117.76 4.2544 -1.46017 0
M  V30 1188 C 119.079 4.35646 0.624514 0
M  V30 1189 H 116.198 0.73598 -0.0387607 0
M  V30 1190 H 118.84 1.73284 -0.779282 0
M  V30 1191 H 116.99 3.85101 0.512808 0
M  V30 1192 H 118.662 4.11569 -2.08347 0
M  V30 1193 H 116.905 3.83849 -2.02094 0
M  V30 1194 H 117.576 5.34342 -1.385 0
M  V30 1195 H 120.052 4.15882 0.134723 0
M  V30 1196 H 118.928 5.45376 0.621028 0
M  V30 1197 H 119.189 4.08501 1.69055 0
M  V30 1198 N 118.248 0.346503 1.53744 0
M  V30 1199 C 119.211 -0.496439 2.23759 0
M  V30 1200 C 120.211 -1.0252 1.2388 0
M  V30 1201 O 121.401 -0.913974 1.48297 0
M  V30 1202 C 118.533 -1.69187 2.95954 0
M  V30 1203 H 119.726 0.115952 2.99676 0
M  V30 1204 H 117.279 0.0978939 1.55993 0
M  V30 1205 H 118.014 -2.34288 2.24231 0
M  V30 1206 H 117.799 -1.31989 3.69217 0
M  V30 1207 H 119.289 -2.28969 3.49232 0
M  V30 1208 N 119.726 -1.57421 0.075193 0
M  V30 1209 C 120.951 -1.98364 -0.605515 0
M  V30 1210 C 121.376 -0.953383 -1.62149 0
M  V30 1211 O 120.734 0.0806053 -1.81121 0
M  V30 1212 C 120.782 -3.38332 -1.24756 0
M  V30 1213 O 119.886 -3.37959 -2.36342 0
M  V30 1214 H 119.227 -0.645553 -0.155428 0
M  V30 1215 H 121.757 -2.04044 0.150714 0
M  V30 1216 H 121.767 -3.75591 -1.5936 0
M  V30 1217 H 120.442 -4.12846 -0.503129 0
M  V30 1218 H 119.019 -3.12474 -2.03506 0
M  V30 1219 N 121.204 0.198386 -1.56346 0
M  V30 1220 C 122.134 1.24865 -1.9731 0
M  V30 1221 C 123.115 1.47651 -0.844576 0
M  V30 1222 O 124.3 1.59444 -1.10866 0
M  V30 1223 C 121.43 2.59358 -2.30977 0
M  V30 1224 C 120.384 2.5119 -3.46537 0
M  V30 1225 C 119.71 3.89926 -3.65871 0
M  V30 1226 C 121.01 2.03977 -4.80823 0
M  V30 1227 H 122.704 0.908252 -2.85291 0
M  V30 1228 H 120.25 0.435462 -1.37258 0
M  V30 1229 H 122.203 3.33011 -2.58228 0
M  V30 1230 H 120.927 2.95132 -1.39874 0
M  V30 1231 H 119.586 1.79993 -3.19371 0
M  V30 1232 H 119.234 4.23046 -2.72105 0
M  V30 1233 H 118.934 3.85336 -4.4361 0
M  V30 1234 H 120.458 4.65205 -3.95495 0
M  V30 1235 H 121.872 2.67386 -5.07127 0
M  V30 1236 H 120.269 2.10397 -5.62008 0
M  V30 1237 H 121.339 0.992861 -4.74626 0
M  V30 1238 N 122.682 1.50554 0.465978 0
M  V30 1239 C 123.612 1.72722 1.57128 0
M  V30 1240 C 124.593 0.576294 1.6004 0
M  V30 1241 O 125.778 0.81598 1.76225 0
M  V30 1242 C 122.908 1.82605 2.95419 0
M  V30 1243 C 121.862 2.97835 3.07373 0
M  V30 1244 C 121.188 2.92867 4.47363 0
M  V30 1245 C 122.488 4.38265 2.84114 0
M  V30 1246 H 124.182 2.65267 1.38829 0
M  V30 1247 H 121.728 1.2765 0.666441 0
M  V30 1248 H 123.681 1.96698 3.72677 0
M  V30 1249 H 122.405 0.866858 3.14886 0
M  V30 1250 H 121.064 2.83401 2.3255 0
M  V30 1251 H 120.712 1.94783 4.63755 0
M  V30 1252 H 120.412 3.70227 4.56296 0
M  V30 1253 H 121.936 3.09015 5.26633 0
M  V30 1254 H 123.35 4.53198 3.51118 0
M  V30 1255 H 121.747 5.17115 3.04487 0
M  V30 1256 H 122.817 4.50281 1.7993 0
M  V30 1257 N 124.16 -0.719506 1.40217 0
M  V30 1258 C 125.123 -1.8153 1.39927 0
M  V30 1259 C 126.123 -1.58095 0.293723 0
M  V30 1260 O 127.313 -1.65209 0.552429 0
M  V30 1261 C 124.445 -3.19561 1.18716 0
M  V30 1262 H 125.638 -1.83186 2.37451 0
M  V30 1263 H 123.191 -0.924746 1.26008 0
M  V30 1264 H 123.926 -3.23557 0.219366 0
M  V30 1265 H 123.711 -3.3797 1.98793 0
M  V30 1266 H 125.201 -3.99598 1.21291 0
M  V30 1267 N 125.638 -1.25649 -0.95132 0
M  V30 1268 C 126.601 -1.06399 -2.03007 0
M  V30 1269 C 127.601 -0.0156794 -1.60792 0
M  V30 1270 O 128.791 -0.25817 -1.72276 0
M  V30 1271 C 125.923 -0.616184 -3.35285 0
M  V30 1272 H 127.116 -2.02164 -2.21517 0
M  V30 1273 H 124.669 -1.08103 -1.12887 0
M  V30 1274 H 125.404 0.343917 -3.22471 0
M  V30 1275 H 125.189 -1.37301 -3.67275 0
M  V30 1276 H 126.679 -0.503032 -4.14559 0
M  V30 1277 N 127.117 1.15442 -1.07289 0
M  V30 1278 C 128.047 2.22312 -0.714107 0
M  V30 1279 C 129.028 1.67467 0.298155 0
M  V30 1280 O 130.213 1.93445 0.171048 0
M  V30 1281 C 127.343 3.47124 -0.110448 0
M  V30 1282 C 126.297 4.14926 -1.04979 0
M  V30 1283 C 125.623 5.33807 -0.308924 0
M  V30 1284 C 126.923 4.64762 -2.38314 0
M  V30 1285 H 128.617 2.5258 -1.6076 0
M  V30 1286 H 126.163 1.21404 -0.77441 0
M  V30 1287 H 128.116 4.21124 0.152482 0
M  V30 1288 H 126.84 3.16187 0.81812 0
M  V30 1289 H 125.499 3.42866 -1.29764 0
M  V30 1290 H 125.147 4.99126 0.623084 0
M  V30 1291 H 124.847 5.80113 -0.935036 0
M  V30 1292 H 126.371 6.10576 -0.0537771 0
M  V30 1293 H 127.785 5.30292 -2.1786 0
M  V30 1294 H 126.182 5.21728 -2.96514 0
M  V30 1295 H 127.252 3.80434 -3.00663 0
M  V30 1296 N 128.595 0.856903 1.32268 0
M  V30 1297 C 129.835 0.467705 1.98977 0
M  V30 1298 C 130.199 -0.959231 1.66321 0
M  V30 1299 O 131.4 -1.4531 2.26138 0
M  V30 1300 C 129.671 0.70256 3.50427 0
M  V30 1301 S 131.23 0.411269 4.36868 0
M  V30 1302 H 128.048 0.175121 0.689096 0
M  V30 1303 H 130.65 1.1101 1.60925 0
M  V30 1304 H 129.354 1.74012 3.71683 0
M  V30 1305 H 128.885 0.0466707 3.93372 0
M  V30 1306 H 130.9 -0.761799 4.90317 0
M  V30 1307 N 130.073 -1.45103 0.615059 0
M  V30 1308 C 131.303 -2.06254 0.119596 0
M  V30 1309 C 131.711 -1.4591 -1.20445 0
M  V30 1310 O 131.054 -0.570384 -1.7462 0
M  V30 1311 C 131.116 -3.59396 -0.0865591 0
M  V30 1312 C 130.78 -4.42116 1.15683 0
M  V30 1313 C 131.777 -4.7662 2.07676 0
M  V30 1314 C 129.462 -4.82749 1.38775 0
M  V30 1315 C 131.456 -5.50622 3.21082 0
M  V30 1316 C 129.143 -5.56504 2.52481 0
M  V30 1317 C 130.141 -5.90358 3.43463 0
M  V30 1318 O 129.829 -6.62615 4.55189 0
M  V30 1319 H 129.561 -0.672423 0.0694512 0
M  V30 1320 H 132.115 -1.87219 0.844885 0
M  V30 1321 H 130.345 -3.76859 -0.866823 0
M  V30 1322 H 132.034 -4.02365 -0.534555 0
M  V30 1323 H 132.8 -4.4578 1.91063 0
M  V30 1324 H 128.679 -4.55829 0.688545 0
M  V30 1325 H 132.223 -5.76965 3.92119 0
M  V30 1326 H 128.12 -5.86759 2.69043 0
M  V30 1327 H 128.888 -6.81071 4.53966 0
M  V30 1328 N 131.551 -0.354651 -1.53558 0
M  V30 1329 C 132.514 0.484566 -2.24019 0
M  V30 1330 C 133.514 1.01861 -1.24422 0
M  V30 1331 O 134.704 0.906097 -1.4878 0
M  V30 1332 C 131.836 1.67615 -2.96847 0
M  V30 1333 H 133.029 -0.131843 -2.9961 0
M  V30 1334 H 130.582 -0.106165 -1.55939 0
M  V30 1335 H 131.317 2.33095 -2.25471 0
M  V30 1336 H 131.102 1.30029 -3.69912 0
M  V30 1337 H 132.592 2.27114 -3.50441 0
M  V30 1338 N 133.029 1.57378 -0.0835403 0
M  V30 1339 C 133.939 2.16897 0.894021 0
M  V30 1340 C 134.955 1.13528 1.31861 0
M  V30 1341 O 136.131 1.45848 1.3889 0
M  V30 1342 C 133.196 2.72831 2.13925 0
M  V30 1343 C 132.257 3.91115 1.76997 0
M  V30 1344 C 131.49 4.44371 2.95584 0
M  V30 1345 O 131.713 3.96596 4.09961 0
M  V30 1346 O 130.647 5.35549 2.74719 0
M  V30 1347 H 134.473 3.00814 0.417679 0
M  V30 1348 H 132.058 1.48741 0.140181 0
M  V30 1349 H 133.94 3.0863 2.86924 0
M  V30 1350 H 132.615 1.91967 2.60635 0
M  V30 1351 H 131.522 3.60148 1.01214 0
M  V30 1352 H 132.855 4.73307 1.3506 0
M  V30 1353 N 134.507 -0.190092 1.56449 0
M  V30 1354 C 135.754 -0.909705 1.80916 0
M  V30 1355 C 136.082 -1.83047 0.657583 0
M  V30 1356 O 135.337 -1.92428 -0.356356 0
M  V30 1357 C 135.636 -1.75382 3.1141 0
M  V30 1358 C 135.302 -0.983606 4.40041 0
M  V30 1359 C 133.964 -0.770967 4.74984 0
M  V30 1360 C 136.316 -0.442024 5.19322 0
M  V30 1361 C 133.644 -0.0053448 5.867 0
M  V30 1362 C 135.996 0.310412 6.31838 0
M  V30 1363 C 134.66 0.534023 6.6536 0
M  V30 1364 H 133.93 -0.332885 0.662019 0
M  V30 1365 H 136.577 -0.175762 1.90692 0
M  V30 1366 H 134.882 -2.55659 2.96893 0
M  V30 1367 H 136.579 -2.31331 3.27547 0
M  V30 1368 H 133.169 -1.15936 4.12622 0
M  V30 1369 H 137.353 -0.593693 4.92736 0
M  V30 1370 H 132.609 0.177825 6.11141 0
M  V30 1371 H 136.783 0.737419 6.92485 0
M  V30 1372 H 134.41 1.12918 7.51767 0
M  V30 1373 N 135.985 -1.50799 -0.457987 0
M  V30 1374 C 137.233 -1.62121 -1.2067 0
M  V30 1375 C 137.554 -0.329793 -1.92191 0
M  V30 1376 O 136.824 0.653409 -1.84682 0
M  V30 1377 H 135.404 -0.597441 -0.448411 0
M  V30 1378 H 138.066 -1.87637 -0.527096 0
M  V30 1379 H 137.162 -2.43882 -1.94751 0
M  V30 1380 N 137.463 0.71206 -1.40597 0
M  V30 1381 C 138.426 1.80785 -1.40888 0
M  V30 1382 C 139.426 1.57937 -0.302103 0
M  V30 1383 O 140.616 1.64913 -0.561182 0
M  V30 1384 C 137.748 3.18927 -1.20409 0
M  V30 1385 H 138.941 1.81924 -2.38419 0
M  V30 1386 H 136.494 0.91805 -1.26497 0
M  V30 1387 H 137.229 3.23436 -0.236522 0
M  V30 1388 H 137.014 3.36911 -2.00582 0
M  V30 1389 H 138.504 3.98949 -1.23408 0
M  V30 1390 N 138.941 1.26152 0.944643 0
M  V30 1391 C 140.357 1.03189 1.21754 0
M  V30 1392 C 140.557 -0.245112 2.00004 0
M  V30 1393 O 139.613 -0.955176 2.33736 0
M  V30 1394 C 140.926 2.26119 1.98219 0
M  V30 1395 C 142.474 2.30984 2.11224 0
M  V30 1396 C 142.949 3.53597 2.91089 0
M  V30 1397 N 144.44 3.54053 2.98664 0
M  V30 1398 C 145.175 4.45593 3.60881 0
M  V30 1399 N 144.671 5.47416 4.24626 0
M  V30 1400 N 146.464 4.33252 3.58119 0
M  V30 1401 H 138.615 2.08177 0.421437 0
M  V30 1402 H 140.878 0.914723 0.248969 0
M  V30 1403 H 140.584 3.18984 1.48128 0
M  V30 1404 H 140.458 2.3009 2.98895 0
M  V30 1405 H 142.845 1.38635 2.60508 0
M  V30 1406 H 142.926 2.31026 1.09821 0
M  V30 1407 H 142.57 4.46273 2.42493 0
M  V30 1408 H 142.5 3.50802 3.92741 0
M  V30 1409 H 144.991 2.80403 2.53343 0
M  V30 1410 H 145.304 6.13459 4.69987 0
M  V30 1411 H 143.649 5.51278 4.23223 0
M  V30 1412 H 146.84 3.52924 3.0751 0
M  V30 1413 H 147.013 5.04786 4.06319 0
M  V30 1414 N 140.419 -1.14872 1.07899 0
M  V30 1415 C 141.665 -1.86064 0.806725 0
M  V30 1416 C 141.998 -1.82434 -0.665706 0
M  V30 1417 O 141.273 -1.25138 -1.48899 0
M  V30 1418 C 141.556 -3.34929 1.32267 0
M  V30 1419 C 141.409 -3.47161 2.86006 0
M  V30 1420 C 142.728 -4.29863 0.943717 0
M  V30 1421 H 139.847 -0.675591 0.294526 0
M  V30 1422 H 142.489 -1.34925 1.33773 0
M  V30 1423 H 140.639 -3.78611 0.870974 0
M  V30 1424 H 142.311 -3.12302 3.39507 0
M  V30 1425 H 140.554 -2.88539 3.23925 0
M  V30 1426 H 141.225 -4.51777 3.17177 0
M  V30 1427 H 143.701 -3.9417 1.33302 0
M  V30 1428 H 142.577 -5.32494 1.33198 0
M  V30 1429 H 142.838 -4.41846 -0.149796 0
M  V30 1430 N 141.898 -0.863906 -1.31812 0
M  V30 1431 C 143.309 -0.52522 -1.7916 0
M  V30 1432 C 143.66 0.957518 -1.71248 0
M  V30 1433 O 142.785 1.74734 -1.27659 0
M  V30 1434 C 143.38 -0.9466 -3.25307 0
M  V30 1435 C 141.939 -0.659668 -3.70574 0
M  V30 1436 C 141.086 -1.14126 -2.52726 0
M  V30 1437 H 144.037 -1.05022 -1.1898 0
M  V30 1438 H 144.058 -0.266766 -3.79564 0
M  V30 1439 H 143.57 -2.02579 -3.31034 0
M  V30 1440 H 141.671 0.408416 -3.70355 0
M  V30 1441 H 141.784 -1.23245 -4.62977 0
M  V30 1442 H 140.148 -0.561216 -2.4844 0
M  V30 1443 H 140.931 -2.22775 -2.61201 0
M  V30 1444 N 143.376 1.44774 -0.622745 0
M  V30 1445 C 144.792 1.56986 -0.287652 0
M  V30 1446 C 144.992 1.61167 1.20944 0
M  V30 1447 O 144.048 1.55015 1.99315 0
M  V30 1448 C 145.361 2.84551 -0.972188 0
M  V30 1449 C 146.909 2.9825 -0.949536 0
M  V30 1450 C 147.384 4.28605 -1.61437 0
M  V30 1451 N 148.875 4.35399 -1.58057 0
M  V30 1452 C 149.61 5.34964 -2.064 0
M  V30 1453 N 149.106 6.40981 -2.62897 0
M  V30 1454 N 150.899 5.26419 -1.97078 0
M  V30 1455 H 143.05 1.40304 -1.59463 0
M  V30 1456 H 145.313 0.671794 -0.668878 0
M  V30 1457 H 145.019 2.87417 -2.02693 0
M  V30 1458 H 144.893 3.73807 -0.504771 0
M  V30 1459 H 147.28 2.94941 0.0967067 0
M  V30 1460 H 147.361 2.10364 -1.45536 0
M  V30 1461 H 147.005 4.32672 -2.66002 0
M  V30 1462 H 146.935 5.15334 -1.08344 0
M  V30 1463 H 149.426 3.59397 -1.16801 0
M  V30 1464 H 149.739 7.13225 -2.97539 0
M  V30 1465 H 148.084 6.4169 -2.66943 0
M  V30 1466 H 151.275 4.42504 -1.52669 0
M  V30 1467 H 151.448 6.03861 -2.35066 0
M  V30 1468 N 144.854 0.36279 1.53368 0
M  V30 1469 C 146.082 -0.228613 2.05633 0
M  V30 1470 C 146.497 -1.42676 1.23649 0
M  V30 1471 O 145.854 -1.80394 0.27647 0
M  V30 1472 C 145.905 -0.624845 3.56059 0
M  V30 1473 O 145.626 0.525675 4.34935 0
M  V30 1474 C 147.127 -1.27493 4.24571 0
M  V30 1475 H 144.347 -0.0407183 0.669763 0
M  V30 1476 H 146.891 0.520352 1.97769 0
M  V30 1477 H 145.046 -1.32373 3.64083 0
M  V30 1478 H 145.46 0.205969 5.24095 0
M  V30 1479 H 146.934 -1.50277 5.31151 0
M  V30 1480 H 147.411 -2.23439 3.78116 0
M  V30 1481 H 148.017 -0.617558 4.20792 0
M  V30 1482 N 146.332 -1.57332 0.0918853 0
M  V30 1483 C 147.58 -1.93853 -0.571446 0
M  V30 1484 C 147.901 -0.974212 -1.6892 0
M  V30 1485 O 147.171 -0.0257254 -1.95883 0
M  V30 1486 H 145.751 -0.715666 -0.214082 0
M  V30 1487 H 148.413 -1.94287 0.154464 0
M  V30 1488 H 147.509 -2.96191 -0.983729 0
M  V30 1489 N 147.81 0.181792 -1.56548 0
M  V30 1490 C 149.035 0.920019 -1.85877 0
M  V30 1491 C 149.46 1.75494 -0.677021 0
M  V30 1492 O 148.818 1.77399 0.374056 0
M  V30 1493 C 148.866 1.78112 -3.13542 0
M  V30 1494 O 147.97 2.88152 -2.95029 0
M  V30 1495 H 147.311 0.258334 -0.611686 0
M  V30 1496 H 149.841 0.183092 -2.03779 0
M  V30 1497 H 149.851 2.18314 -3.44678 0
M  V30 1498 H 148.526 1.16777 -3.99169 0
M  V30 1499 H 147.103 2.51609 -2.75222 0
M  V30 1500 N 149.288 1.51039 0.449983 0
M  V30 1501 C 150.251 1.70863 1.5277 0
M  V30 1502 C 151.251 0.578846 1.5002 0
M  V30 1503 O 152.441 0.846213 1.52266 0
M  V30 1504 C 149.573 1.75341 2.9235 0
M  V30 1505 H 150.766 2.67034 1.36502 0
M  V30 1506 H 148.319 1.40838 0.677812 0
M  V30 1507 H 149.054 0.809383 3.14037 0
M  V30 1508 H 148.839 2.57436 2.95752 0
M  V30 1509 H 150.329 1.92559 3.70555 0
M  V30 1510 N 150.766 -0.704594 1.40972 0
M  V30 1511 C 151.996 -1.49138 1.42974 0
M  V30 1512 C 152.404 -1.89175 0.0308406 0
M  V30 1513 O 151.747 -1.56734 -0.958138 0
M  V30 1514 C 151.809 -2.79016 2.26694 0
M  V30 1515 C 151.473 -2.61236 3.74973 0
M  V30 1516 C 152.47 -2.27773 4.67349 0
M  V30 1517 C 150.155 -2.77158 4.18914 0
M  V30 1518 C 152.149 -2.10457 6.01653 0
M  V30 1519 C 149.836 -2.59459 5.53285 0
M  V30 1520 C 150.834 -2.26158 6.4447 0
M  V30 1521 O 150.522 -2.08605 7.76363 0
M  V30 1522 H 150.254 -0.466443 0.489292 0
M  V30 1523 H 152.808 -0.8758 1.85793 0
M  V30 1524 H 151.038 -3.42947 1.78673 0
M  V30 1525 H 152.727 -3.40782 2.20504 0
M  V30 1526 H 153.493 -2.15095 4.34694 0
M  V30 1527 H 149.372 -3.02064 3.48251 0
M  V30 1528 H 152.916 -1.84387 6.72791 0
M  V30 1529 H 148.813 -2.71725 5.85522 0
M  V30 1530 H 149.581 -2.23439 7.87412 0
M  V30 1531 N 152.244 -1.26651 -0.937939 0
M  V30 1532 C 153.174 -1.10993 -2.05433 0
M  V30 1533 C 154.155 -0.0142161 -1.70094 0
M  V30 1534 O 155.34 -0.186837 -1.93299 0
M  V30 1535 C 152.47 -0.745561 -3.39203 0
M  V30 1536 C 151.424 -1.79337 -3.88616 0
M  V30 1537 C 150.75 -1.28324 -5.19073 0
M  V30 1538 C 152.05 -3.19553 -4.13138 0
M  V30 1539 H 153.744 -2.0438 -2.1879 0
M  V30 1540 H 151.29 -0.984041 -1.05131 0
M  V30 1541 H 153.243 -0.622888 -4.16771 0
M  V30 1542 H 151.967 0.22401 -3.25831 0
M  V30 1543 H 150.626 -1.90477 -3.13231 0
M  V30 1544 H 150.274 -0.303414 -5.02084 0
M  V30 1545 H 149.974 -1.98369 -5.53103 0
M  V30 1546 H 151.498 -1.1733 -5.99221 0
M  V30 1547 H 152.912 -3.11471 -4.81309 0
M  V30 1548 H 151.309 -3.87218 -4.58457 0
M  V30 1549 H 152.379 -3.65368 -3.18801 0
M  V30 1550 N 153.722 1.14298 -1.08507 0
M  V30 1551 C 154.969 1.85359 -0.815373 0
M  V30 1552 C 155.297 1.83001 0.658865 0
M  V30 1553 O 154.552 1.25655 1.50031 0
M  V30 1554 C 154.851 3.33547 -1.28379 0
M  V30 1555 C 154.517 3.56093 -2.76602 0
M  V30 1556 C 153.179 3.61955 -3.17084 0
M  V30 1557 C 155.531 3.64834 -3.72217 0
M  V30 1558 C 152.859 3.74082 -4.51973 0
M  V30 1559 C 155.211 3.78487 -5.06883 0
M  V30 1560 C 153.875 3.82598 -5.46969 0
M  V30 1561 H 153.145 0.678276 -0.298366 0
M  V30 1562 H 155.792 1.35002 -1.35819 0
M  V30 1563 H 154.097 3.86191 -0.660593 0
M  V30 1564 H 155.794 3.86959 -1.05186 0
M  V30 1565 H 152.384 3.52179 -2.4427 0
M  V30 1566 H 156.568 3.59595 -3.42061 0
M  V30 1567 H 151.824 3.75527 -4.82483 0
M  V30 1568 H 155.998 3.84193 -5.80834 0
M  V30 1569 H 153.625 3.91747 -6.51489 0
M  V30 1570 N 155.201 0.870884 1.31352 0
M  V30 1571 C 156.429 0.49677 2.00848 0
M  V30 1572 C 156.844 -0.910998 1.65367 0
M  V30 1573 O 156.201 -1.59696 0.883374 0
M  V30 1574 C 156.252 0.645308 3.55694 0
M  V30 1575 O 155.973 1.99764 3.89905 0
M  V30 1576 C 157.474 0.272326 4.42463 0
M  V30 1577 H 154.694 0.193462 0.642506 0
M  V30 1578 H 157.238 1.1723 1.67563 0
M  V30 1579 H 155.393 0.0173176 3.87396 0
M  V30 1580 H 155.807 2.00607 4.84621 0
M  V30 1581 H 157.281 0.427208 5.50344 0
M  V30 1582 H 157.758 -0.788587 4.32062 0
M  V30 1583 H 158.364 0.876054 4.1618 0
M  V30 1584 N 156.679 -1.44442 0.630414 0
M  V30 1585 C 157.909 -2.06115 0.141465 0
M  V30 1586 C 158.317 -1.47179 -1.1889 0
M  V30 1587 O 157.66 -0.588873 -1.74006 0
M  V30 1588 C 157.722 -3.59467 -0.0484355 0
M  V30 1589 C 157.386 -4.40864 1.20366 0
M  V30 1590 C 158.383 -4.74391 2.12719 0
M  V30 1591 C 156.068 -4.8125 1.43887 0
M  V30 1592 C 158.062 -5.47186 3.26904 0
M  V30 1593 C 155.749 -5.53795 2.5837 0
M  V30 1594 C 156.747 -5.86682 3.49705 0
M  V30 1595 O 156.435 -6.57749 4.62191 0
M  V30 1596 H 156.167 -0.671648 0.0765792 0
M  V30 1597 H 158.721 -1.86312 0.864695 0
M  V30 1598 H 156.951 -3.77758 -0.826803 0
M  V30 1599 H 158.64 -4.02909 -0.491849 0
M  V30 1600 H 159.406 -4.43728 1.95781 0
M  V30 1601 H 155.285 -4.55073 0.736853 0
M  V30 1602 H 158.829 -5.72773 3.98217 0
M  V30 1603 H 154.726 -5.83872 2.75251 0
M  V30 1604 H 155.494 -6.76217 4.61164 0
M  V30 1605 N 158.157 -0.370918 -1.53173 0
M  V30 1606 C 159.403 0.217423 -2.01631 0
M  V30 1607 C 159.736 1.47983 -1.25756 0
M  V30 1608 O 159.011 1.91274 -0.352764 0
M  V30 1609 C 159.294 0.503982 -3.56556 0
M  V30 1610 C 159.147 -0.77243 -4.43118 0
M  V30 1611 C 160.466 1.30234 -4.20389 0
M  V30 1612 H 157.585 0.0775486 -0.732909 0
M  V30 1613 H 160.227 -0.496863 -1.83388 0
M  V30 1614 H 158.377 1.11248 -3.72231 0
M  V30 1615 H 160.049 -1.4098 -4.39229 0
M  V30 1616 H 158.292 -1.39167 -4.10871 0
M  V30 1617 H 158.963 -0.526815 -5.4948 0
M  V30 1618 H 161.439 0.787546 -4.08579 0
M  V30 1619 H 160.315 1.47158 -5.28806 0
M  V30 1620 H 160.576 2.31237 -3.76805 0
M  V30 1621 N 159.635 1.57281 -0.100228 0
M  V30 1622 C 160.86 1.99302 0.573881 0
M  V30 1623 C 161.285 0.979059 1.60611 0
M  V30 1624 O 160.643 -0.0517803 1.81226 0
M  V30 1625 C 160.691 3.40274 1.19358 0
M  V30 1626 O 159.795 3.41676 2.30935 0
M  V30 1627 H 159.136 0.647944 0.145138 0
M  V30 1628 H 161.666 2.03779 -0.183156 0
M  V30 1629 H 161.676 3.78078 1.53365 0
M  V30 1630 H 160.351 4.13594 0.437385 0
M  V30 1631 H 158.928 3.15672 1.98509 0
M  V30 1632 N 161.113 -0.173488 1.56642 0
M  V30 1633 C 162.046 -1.24353 1.91342 0
M  V30 1634 C 163.024 -1.4289 0.775965 0
M  V30 1635 O 164.208 -1.57932 1.02907 0
M  V30 1636 C 161.335 -2.60683 2.16245 0
M  V30 1637 C 160.381 -2.58894 3.38934 0
M  V30 1638 S 161.214 -2.0819 4.93373 0
M  V30 1639 C 162.37 -3.46302 5.21369 0
M  V30 1640 H 162.603 -0.947345 2.81803 0
M  V30 1641 H 160.136 -0.377958 1.49703 0
M  V30 1642 H 162.094 -3.39149 2.31275 0
M  V30 1643 H 160.755 -2.87502 1.26496 0
M  V30 1644 H 159.948 -3.59188 3.53553 0
M  V30 1645 H 159.55 -1.88522 3.2301 0
M  V30 1646 H 161.842 -4.42287 5.13214 0
M  V30 1647 H 162.785 -3.3656 6.23003 0
M  V30 1648 H 163.193 -3.42214 4.48943 0
M  V30 1649 N 162.591 -1.51276 -0.441967 0
M  V30 1650 C 163.839 -1.63392 -1.18943 0
M  V30 1651 C 164.16 -0.350159 -1.9183 0
M  V30 1652 O 163.43 0.633784 -1.85364 0
M  V30 1653 H 162.01 -0.602164 -0.442049 0
M  V30 1654 H 164.672 -1.88186 -0.507165 0
M  V30 1655 H 163.768 -2.45934 -1.92154 0
M  V30 1656 N 164.069 0.697108 -1.41344 0
M  V30 1657 C 164.979 1.84088 -1.45427 0
M  V30 1658 C 165.995 1.70545 -0.34501 0
M  V30 1659 O 167.171 1.92488 -0.592492 0
M  V30 1660 C 164.236 3.20056 -1.33286 0
M  V30 1661 C 163.297 3.45718 -2.54514 0
M  V30 1662 C 162.53 4.75199 -2.42944 0
M  V30 1663 O 162.753 5.51579 -1.45318 0
M  V30 1664 O 161.687 5.0161 -3.32672 0
M  V30 1665 H 165.513 1.836 -2.41919 0
M  V30 1666 H 163.098 0.849966 -1.22866 0
M  V30 1667 H 164.98 4.01236 -1.28794 0
M  V30 1668 H 163.655 3.2123 -0.39909 0
M  V30 1669 H 162.562 2.64474 -2.64583 0
M  V30 1670 H 163.895 3.49356 -3.46715 0
M  V30 1671 N 165.547 1.27147 0.931209 0
M  V30 1672 C 166.477 1.12081 2.04842 0
M  V30 1673 C 167.458 0.0232364 1.70084 0
M  V30 1674 O 168.643 0.197085 1.93197 0
M  V30 1675 C 165.773 0.76354 3.38803 0
M  V30 1676 C 164.727 1.81396 3.87659 0
M  V30 1677 C 164.053 1.31075 5.18385 0
M  V30 1678 C 165.353 3.21739 4.11438 0
M  V30 1679 H 167.047 2.05537 2.17703 0
M  V30 1680 H 164.593 0.989603 1.04608 0
M  V30 1681 H 166.546 0.644982 4.16435 0
M  V30 1682 H 165.27 -0.206727 3.25945 0
M  V30 1683 H 163.929 1.92136 3.12217 0
M  V30 1684 H 163.577 0.330037 5.01916 0
M  V30 1685 H 163.277 2.013 5.52044 0
M  V30 1686 H 164.801 1.20506 5.98591 0
M  V30 1687 H 166.215 3.14019 4.79651 0
M  V30 1688 H 164.612 3.89644 4.56397 0
M  V30 1689 H 165.682 3.67054 3.16859 0
M  V30 1690 N 167.025 -1.13721 1.09112 0
M  V30 1691 C 168.271 -1.85413 0.836283 0
M  V30 1692 C 168.626 -1.8175 -0.631249 0
M  V30 1693 O 167.919 -1.24238 -1.45861 0
M  V30 1694 C 168.113 -3.32861 1.30146 0
M  V30 1695 C 167.942 -3.50882 2.81268 0
M  V30 1696 C 166.712 -3.65312 3.49106 0
M  V30 1697 C 168.91 -3.47196 3.7942 0
M  V30 1698 N 166.892 -3.71563 4.88686 0
M  V30 1699 C 168.263 -3.59777 5.04936 0
M  V30 1700 C 170.318 -3.30577 3.72321 0
M  V30 1701 C 169.021 -3.57455 6.24194 0
M  V30 1702 C 171.047 -3.29562 4.91063 0
M  V30 1703 C 170.409 -3.42691 6.15421 0
M  V30 1704 H 166.508 -0.694812 0.358832 0
M  V30 1705 H 169.092 -1.36246 1.39087 0
M  V30 1706 H 167.263 -3.80602 0.774361 0
M  V30 1707 H 168.995 -3.92346 0.99229 0
M  V30 1708 H 165.75 -3.6685 2.9953 0
M  V30 1709 H 166.174 -3.78387 5.61384 0
M  V30 1710 H 170.816 -3.19332 2.77105 0
M  V30 1711 H 168.534 -3.67475 7.19714 0
M  V30 1712 H 172.12 -3.17905 4.87266 0
M  V30 1713 H 171 -3.41862 7.05762 0
M  V30 1714 N 168.503 -0.877838 -1.30888 0
M  V30 1715 C 169.466 -0.344265 -2.266 0
M  V30 1716 C 170.466 0.50922 -1.52524 0
M  V30 1717 O 171.656 0.317398 -1.71284 0
M  V30 1718 C 168.788 0.510198 -3.37061 0
M  V30 1719 H 169.981 -1.1893 -2.7531 0
M  V30 1720 H 167.534 -0.654088 -1.41956 0
M  V30 1721 H 168.269 1.37612 -2.93655 0
M  V30 1722 H 168.054 -0.101047 -3.9197 0
M  V30 1723 H 169.544 0.875537 -4.08319 0
M  V30 1724 N 169.982 1.44106 -0.638065 0
M  V30 1725 C 171.229 2.01978 -0.14533 0
M  V30 1726 C 171.557 1.50234 1.23532 0
M  V30 1727 O 170.812 0.679548 1.83523 0
M  V30 1728 C 171.111 3.5729 -0.0887327 0
M  V30 1729 C 170.777 4.28317 -1.40909 0
M  V30 1730 C 169.439 4.47437 -1.77069 0
M  V30 1731 C 171.791 4.6867 -2.28031 0
M  V30 1732 C 169.119 5.04171 -3.00047 0
M  V30 1733 C 171.471 5.26766 -3.50286 0
M  V30 1734 C 170.135 5.44104 -3.86661 0
M  V30 1735 H 169.405 0.739089 -0.0531801 0
M  V30 1736 H 172.052 1.72781 -0.825761 0
M  V30 1737 H 170.357 3.8594 0.675095 0
M  V30 1738 H 172.054 3.99807 0.309145 0
M  V30 1739 H 168.644 4.1377 -1.1177 0
M  V30 1740 H 172.828 4.53604 -2.01388 0
M  V30 1741 H 168.084 5.15782 -3.28298 0
M  V30 1742 H 172.258 5.56983 -4.18023 0
M  V30 1743 H 169.885 5.87832 -4.82034 0
M  V30 1744 N 171.46 0.379036 1.52974 0
M  V30 1745 C 172.39 -0.452706 2.29069 0
M  V30 1746 C 173.371 -1.07237 1.32039 0
M  V30 1747 O 174.556 -1.08708 1.60923 0
M  V30 1748 C 171.686 -1.5856 3.08992 0
M  V30 1749 C 170.64 -1.0925 4.13822 0
M  V30 1750 C 169.966 -2.31668 4.81907 0
M  V30 1751 C 171.266 -0.167702 5.22031 0
M  V30 1752 H 172.96 0.182181 2.98845 0
M  V30 1753 H 170.506 0.0890592 1.43724 0
M  V30 1754 H 172.459 -2.1742 3.6098 0
M  V30 1755 H 171.183 -2.24792 2.36931 0
M  V30 1756 H 169.842 -0.526494 3.628 0
M  V30 1757 H 169.49 -2.96386 4.06404 0
M  V30 1758 H 169.19 -1.9934 5.52754 0
M  V30 1759 H 170.714 -2.91189 5.36695 0
M  V30 1760 H 172.128 -0.664186 5.6944 0
M  V30 1761 H 170.525 0.0653265 6.00064 0
M  V30 1762 H 171.595 0.786347 4.78482 0
M  V30 1763 N 172.938 -1.57226 0.108567 0
M  V30 1764 C 174.187 -1.94008 -0.551703 0
M  V30 1765 C 174.5 -0.993442 -1.68494 0
M  V30 1766 O 175.706 -1.25551 -2.40726 0
M  V30 1767 C 174.162 -3.44763 -1.03279 0
M  V30 1768 C 173.77 -4.47943 0.0714193 0
M  V30 1769 C 175.514 -3.90483 -1.66503 0
M  V30 1770 C 173.421 -5.89865 -0.425779 0
M  V30 1771 H 172.351 -0.724206 -0.209863 0
M  V30 1772 H 175.002 -1.82547 0.186741 0
M  V30 1773 H 173.384 -3.51422 -1.82533 0
M  V30 1774 H 174.558 -4.52942 0.847365 0
M  V30 1775 H 172.873 -4.11913 0.609669 0
M  V30 1776 H 175.47 -4.93925 -2.04798 0
M  V30 1777 H 175.813 -3.29877 -2.53942 0
M  V30 1778 H 176.346 -3.86581 -0.938074 0
M  V30 1779 H 173.085 -6.54202 0.412316 0
M  V30 1780 H 172.605 -5.88309 -1.16843 0
M  V30 1781 H 174.284 -6.40844 -0.890397 0
M  V30 1782 N 174.416 0.165178 -1.56732 0
M  V30 1783 C 175.664 0.879068 -1.8198 0
M  V30 1784 C 175.985 1.82514 -0.686561 0
M  V30 1785 O 175.255 1.93694 0.293146 0
M  V30 1786 H 173.835 0.327608 -0.671329 0
M  V30 1787 H 176.497 0.163526 -1.94213 0
M  V30 1788 H 175.593 1.45228 -2.76252 0
M  V30 1789 N 175.894 1.51508 0.433938 0
M  V30 1790 C 177.14 1.65549 1.18173 0
M  V30 1791 C 177.495 0.368751 1.88833 0
M  V30 1792 O 176.788 -0.635616 1.8075 0
M  V30 1793 C 176.982 2.79928 2.22205 0
M  V30 1794 C 176.811 4.19601 1.61756 0
M  V30 1795 C 175.581 4.85489 1.40101 0
M  V30 1796 C 177.779 5.02574 1.09194 0
M  V30 1797 N 175.761 6.09266 0.752859 0
M  V30 1798 C 177.132 6.17381 0.569255 0
M  V30 1799 C 179.187 4.88079 0.984025 0
M  V30 1800 C 177.89 7.19282 -0.0507472 0
M  V30 1801 C 179.916 5.90191 0.377912 0
M  V30 1802 C 179.278 7.04272 -0.134216 0
M  V30 1803 H 175.377 0.659653 0.419979 0
M  V30 1804 H 177.961 1.88746 0.477818 0
M  V30 1805 H 176.132 2.5839 2.89982 0
M  V30 1806 H 177.864 2.83132 2.89168 0
M  V30 1807 H 174.619 4.43417 1.66369 0
M  V30 1808 H 175.043 6.75528 0.446123 0
M  V30 1809 H 179.685 4.00131 1.36583 0
M  V30 1810 H 177.403 8.06876 -0.444676 0
M  V30 1811 H 180.989 5.81045 0.296269 0
M  V30 1812 H 179.869 7.81933 -0.59585 0
M  V30 1813 N 177.372 -0.689602 1.41712 0
M  V30 1814 C 178.32 -1.82475 1.44242 0
M  V30 1815 C 179.314 -1.66354 0.319774 0
M  V30 1816 O 180.52 -1.73143 0.492089 0
M  V30 1817 H 176.895 -0.601416 0.451445 0
M  V30 1818 H 178.866 -1.77458 2.39899 0
M  V30 1819 C 177.615 -3.20535 1.3473 0
M  V30 1820 H 176.938 -3.33559 2.20405 0
M  V30 1821 H 178.378 -4.00023 1.40562 0
M  V30 1822 C 176.837 -3.36846 0.0603281 0
M  V30 1823 O 177.367 -3.91656 -0.892663 0
M  V30 1824 N 175.573 -2.90595 -0.0177039 0
M  V30 1825 H 175.12 -2.46178 0.758572 0
M  V30 1826 H 175.078 -3.01886 -0.878201 0
M  V30 1827 N 178.85 -1.27639 -0.924453 0
M  V30 1828 C 180.096 -1.14336 -1.67497 0
M  V30 1829 C 180.429 0.309465 -1.91718 0
M  V30 1830 O 179.704 1.22608 -1.50989 0
M  V30 1831 C 179.987 -1.93096 -3.0395 0
M  V30 1832 C 179.84 -3.46381 -2.8695 0
M  V30 1833 C 181.159 -1.73798 -4.0433 0
M  V30 1834 H 178.278 -0.416728 -0.607871 0
M  V30 1835 H 180.92 -1.56832 -1.07256 0
M  V30 1836 H 179.07 -1.56982 -3.55372 0
M  V30 1837 H 180.742 -3.92343 -2.42621 0
M  V30 1838 H 178.985 -3.72557 -2.22225 0
M  V30 1839 H 179.656 -3.96735 -3.83804 0
M  V30 1840 H 182.132 -2.05293 -3.61931 0
M  V30 1841 H 181.008 -2.31294 -4.97789 0
M  V30 1842 H 181.269 -0.686725 -4.36734 0
M  V30 1843 N 180.328 1.1314 -1.09713 0
M  V30 1844 C 181.258 2.20748 -0.761102 0
M  V30 1845 C 182.239 1.68061 0.262566 0
M  V30 1846 O 183.424 1.93765 0.129977 0
M  V30 1847 C 180.554 3.46812 -0.184054 0
M  V30 1848 C 179.508 4.12606 -1.13757 0
M  V30 1849 C 178.834 5.33031 -0.422083 0
M  V30 1850 C 180.134 4.59603 -2.48118 0
M  V30 1851 H 181.828 2.49113 -1.66082 0
M  V30 1852 H 179.374 1.19734 -0.799987 0
M  V30 1853 H 181.327 4.21353 0.0631215 0
M  V30 1854 H 180.051 3.17851 0.750868 0
M  V30 1855 H 178.71 3.40036 -1.37007 0
M  V30 1856 H 178.358 5.00335 0.517072 0
M  V30 1857 H 178.058 5.77999 -1.05788 0
M  V30 1858 H 179.582 6.10325 -0.183277 0
M  V30 1859 H 180.996 5.25552 -2.29059 0
M  V30 1860 H 179.393 5.15321 -3.07514 0
M  V30 1861 H 180.463 3.73971 -3.08665 0
M  V30 1862 N 181.806 0.884767 1.30421 0
M  V30 1863 C 182.736 0.367574 2.30589 0
M  V30 1864 C 183.717 -0.549464 1.60981 0
M  V30 1865 O 184.902 -0.46336 1.88591 0
M  V30 1866 C 182.032 -0.418944 3.44764 0
M  V30 1867 C 180.986 0.406316 4.26067 0
M  V30 1868 C 180.312 -0.506793 5.32293 0
M  V30 1869 C 181.612 1.64832 4.95608 0
M  V30 1870 H 183.306 1.20462 2.74097 0
M  V30 1871 H 180.852 0.580695 1.31772 0
M  V30 1872 H 182.805 -0.791395 4.13902 0
M  V30 1873 H 181.529 -1.28964 3.0006 0
M  V30 1874 H 180.188 0.760903 3.58617 0
M  V30 1875 H 179.836 -1.37519 4.83836 0
M  V30 1876 H 179.536 0.0415828 5.87585 0
M  V30 1877 H 181.06 -0.875764 6.04287 0
M  V30 1878 H 182.474 1.34646 5.57264 0
M  V30 1879 H 180.871 2.13688 5.60765 0
M  V30 1880 H 181.941 2.39284 4.21748 0
M  V30 1881 N 183.284 -1.43765 0.645699 0
M  V30 1882 C 184.194 -2.34544 -0.0512957 0
M  V30 1883 C 185.21 -1.53455 -0.82022 0
M  V30 1884 O 186.386 -1.86133 -0.769176 0
M  V30 1885 C 183.451 -3.31636 -1.01087 0
M  V30 1886 C 182.512 -4.2863 -0.239712 0
M  V30 1887 C 181.745 -5.21084 -1.15358 0
M  V30 1888 O 181.968 -5.1779 -2.39269 0
M  V30 1889 O 180.902 -5.98593 -0.630038 0
M  V30 1890 H 184.728 -2.95624 0.695718 0
M  V30 1891 H 182.313 -1.43781 0.405882 0
M  V30 1892 H 184.195 -3.9136 -1.56254 0
M  V30 1893 H 182.87 -2.73069 -1.73824 0
M  V30 1894 H 181.777 -3.72408 0.355356 0
M  V30 1895 H 183.11 -4.90157 0.447936 0
M  V30 1896 N 184.763 -0.387143 -1.52771 0
M  V30 1897 C 185.993 0.195585 -2.05672 0
M  V30 1898 C 186.401 1.41241 -1.25887 0
M  V30 1899 O 185.744 1.81265 -0.298081 0
M  V30 1900 C 185.806 0.632327 -3.53895 0
M  V30 1901 C 185.47 -0.470739 -4.54569 0
M  V30 1902 C 186.467 -1.32746 -5.02667 0
M  V30 1903 C 184.152 -0.637151 -4.98243 0
M  V30 1904 C 186.146 -2.33574 -5.93061 0
M  V30 1905 C 183.833 -1.64877 -5.88438 0
M  V30 1906 C 184.831 -2.49649 -6.35739 0
M  V30 1907 O 184.519 -3.49082 -7.24153 0
M  V30 1908 H 184.251 0.033658 -0.675162 0
M  V30 1909 H 186.805 -0.550221 -1.97893 0
M  V30 1910 H 185.035 1.43008 -3.59285 0
M  V30 1911 H 186.724 1.14048 -3.89548 0
M  V30 1912 H 187.49 -1.21019 -4.69659 0
M  V30 1913 H 183.369 0.0129567 -4.60998 0
M  V30 1914 H 186.913 -2.99777 -6.29904 0
M  V30 1915 H 182.81 -1.76643 -6.2086 0
M  V30 1916 H 183.578 -3.45065 -7.42208 0
M  V30 1917 N 186.241 1.57166 -0.116904 0
M  V30 1918 C 187.49 1.94298 0.541407 0
M  V30 1919 C 187.803 1.00236 1.67964 0
M  V30 1920 O 189.009 1.26826 2.40057 0
M  V30 1921 C 187.465 3.45306 1.01449 0
M  V30 1922 C 187.073 4.47899 -0.0951738 0
M  V30 1923 C 188.817 3.91361 1.6443 0
M  V30 1924 C 186.724 5.90083 0.394491 0
M  V30 1925 H 185.654 0.725308 0.206019 0
M  V30 1926 H 188.305 1.82446 -0.196419 0
M  V30 1927 H 186.687 3.52385 1.80667 0
M  V30 1928 H 187.861 4.52486 -0.871374 0
M  V30 1929 H 186.176 4.11583 -0.631505 0
M  V30 1930 H 188.773 4.95004 2.02176 0
M  V30 1931 H 189.116 3.3122 2.52189 0
M  V30 1932 H 189.649 3.87073 0.917559 0
M  V30 1933 H 186.388 6.53974 -0.447004 0
M  V30 1934 H 185.908 5.88921 1.13722 0
M  V30 1935 H 187.587 6.41307 0.856399 0
M  V30 1936 N 187.719 -0.156864 1.56817 0
M  V30 1937 C 188.968 -0.869504 1.81996 0
M  V30 1938 C 189.281 -1.82777 0.696545 0
M  V30 1939 O 190.487 -2.58384 0.833658 0
M  V30 1940 C 188.943 -1.59679 3.22538 0
M  V30 1941 C 188.551 -0.681431 4.42787 0
M  V30 1942 C 190.295 -2.2968 3.56997 0
M  V30 1943 C 188.202 -1.40978 5.74351 0
M  V30 1944 H 187.132 -0.328438 0.678708 0
M  V30 1945 H 189.783 -0.1223 1.83092 0
M  V30 1946 H 188.165 -2.38927 3.158 0
M  V30 1947 H 189.339 0.0751166 4.60739 0
M  V30 1948 H 187.654 -0.0903431 4.16302 0
M  V30 1949 H 190.251 -2.84794 4.52544 0
M  V30 1950 H 190.594 -3.05707 2.82576 0
M  V30 1951 H 191.127 -1.57361 3.65352 0
M  V30 1952 H 187.866 -0.691561 6.51842 0
M  V30 1953 H 187.386 -2.13929 5.60352 0
M  V30 1954 H 189.065 -1.95337 6.16808 0
M  V30 1955 N 189.197 -1.51736 -0.425897 0
M  V30 1956 C 190.445 -1.64644 -1.17204 0
M  V30 1957 C 190.766 -0.370486 -1.91448 0
M  V30 1958 O 190.036 0.614088 -1.86026 0
M  V30 1959 H 188.616 -0.606819 -0.435638 0
M  V30 1960 H 191.278 -1.88713 -0.487177 0
M  V30 1961 H 190.374 -2.47958 -1.89534 0
M  V30 1962 N 190.675 0.682077 -1.42076 0
M  V30 1963 C 191.923 1.4393 -1.41876 0
M  V30 1964 C 192.244 1.94971 -0.0335599 0
M  V30 1965 O 191.514 1.72591 0.926773 0
M  V30 1966 H 190.094 0.534085 -0.522267 0
M  V30 1967 H 192.756 0.806427 -1.77434 0
M  V30 1968 H 191.852 2.29588 -2.11414 0
M  V30 1969 N 192.153 1.28127 0.917671 0
M  V30 1970 C 193.116 1.11744 2.00115 0
M  V30 1971 C 194.116 0.0583052 1.60694 0
M  V30 1972 O 195.306 0.303755 1.71531 0
M  V30 1973 C 192.438 0.704862 3.33533 0
M  V30 1974 H 193.631 2.07966 2.16079 0
M  V30 1975 H 191.184 1.11058 1.09981 0
M  V30 1976 H 191.919 -0.258299 3.2327 0
M  V30 1977 H 191.704 1.4699 3.63505 0
M  V30 1978 H 193.194 0.612768 4.1308 0
M  V30 1979 N 193.631 -1.12557 1.10312 0
M  V30 1980 C 194.594 -2.16434 0.75424 0
M  V30 1981 C 195.594 -1.59278 -0.220685 0
M  V30 1982 O 196.784 -1.742 0.00230591 0
M  V30 1983 C 193.916 -3.40699 0.116987 0
M  V30 1984 H 195.109 -2.48811 1.67431 0
M  V30 1985 H 192.662 -1.27542 0.903475 0
M  V30 1986 H 193.397 -3.13921 -0.813877 0
M  V30 1987 H 193.182 -3.83459 0.818613 0
M  V30 1988 H 194.672 -4.17451 -0.111387 0
M  V30 1989 N 195.109 -0.891671 -1.2995 0
M  V30 1990 C 196.355 -0.514261 -1.96171 0
M  V30 1991 C 196.688 0.935506 -1.70182 0
M  V30 1992 O 195.963 1.66204 -1.01028 0
M  V30 1993 C 196.246 -0.797719 -3.51153 0
M  V30 1994 C 196.099 -2.2986 -3.86632 0
M  V30 1995 C 197.418 -0.278749 -4.39216 0
M  V30 1996 H 194.537 -0.188314 -0.712535 0
M  V30 1997 H 197.179 -1.11689 -1.53706 0
M  V30 1998 H 195.329 -0.284826 -3.87455 0
M  V30 1999 H 197.001 -2.88042 -3.60319 0
M  V30 2000 H 195.244 -2.76257 -3.34462 0
M  V30 2001 H 195.915 -2.44753 -4.94773 0
M  V30 2002 H 198.391 -0.717825 -4.09862 0
M  V30 2003 H 197.267 -0.506353 -5.46559 0
M  V30 2004 H 197.528 0.820266 -4.34424 0
M  V30 2005 N 196.587 1.43421 -0.653314 0
M  V30 2006 C 197.55 2.29182 0.0287951 0
M  V30 2007 C 198.55 1.42213 0.750465 0
M  V30 2008 O 199.74 1.63843 0.591701 0
M  V30 2009 C 196.872 3.24278 1.05151 0
M  V30 2010 H 198.065 2.90985 -0.725786 0
M  V30 2011 H 195.618 1.50702 -0.414545 0
M  V30 2012 H 196.353 2.6737 1.83532 0
M  V30 2013 H 196.138 3.88396 0.537687 0
M  V30 2014 H 197.628 3.88647 1.52786 0
M  V30 2015 N 198.065 0.39524 1.52563 0
M  V30 2016 C 199.481 0.0454682 1.59535 0
M  V30 2017 C 199.681 -1.44056 1.4089 0
M  V30 2018 O 198.737 -2.20579 1.22888 0
M  V30 2019 C 200.05 0.527963 2.96029 0
M  V30 2020 C 201.598 0.484733 3.09224 0
M  V30 2021 C 202.073 0.943512 4.48176 0
M  V30 2022 N 203.564 0.899765 4.54377 0
M  V30 2023 C 204.299 1.22609 5.60138 0
M  V30 2024 N 203.795 1.62319 6.73516 0
M  V30 2025 N 205.588 1.14696 5.50274 0
M  V30 2026 H 197.739 1.36261 1.62931 0
M  V30 2027 H 200.002 0.558887 0.765735 0
M  V30 2028 H 199.708 1.56607 3.14908 0
M  V30 2029 H 199.582 -0.0698056 3.77135 0
M  V30 2030 H 201.969 -0.544298 2.90037 0
M  V30 2031 H 202.05 1.11838 2.30056 0
M  V30 2032 H 201.694 1.9708 4.68104 0
M  V30 2033 H 201.624 0.286817 5.25818 0
M  V30 2034 H 204.115 0.607632 3.72983 0
M  V30 2035 H 204.428 1.85567 7.5019 0
M  V30 2036 H 202.773 1.66211 6.74833 0
M  V30 2037 H 205.964 0.835701 4.6058 0
M  V30 2038 H 206.137 1.40459 6.32594 0
M  V30 2039 N 199.544 -1.57102 0.125237 0
M  V30 2040 C 200.507 -2.14471 -0.80838 0
M  V30 2041 C 201.507 -1.0811 -1.19033 0
M  V30 2042 O 202.697 -1.33856 -1.11482 0
M  V30 2043 C 199.829 -2.69005 -2.09402 0
M  V30 2044 H 201.022 -2.98297 -0.309696 0
M  V30 2045 H 198.575 -1.55807 -0.124051 0
M  V30 2046 H 199.31 -1.88785 -2.63687 0
M  V30 2047 H 199.095 -3.46799 -1.82957 0
M  V30 2048 H 200.585 -3.13278 -2.76128 0
M  V30 2049 N 201.022 0.148545 -1.56898 0
M  V30 2050 C 202.268 0.857877 -1.84424 0
M  V30 2051 C 202.623 1.7886 -0.709006 0
M  V30 2052 O 201.916 1.89344 0.293139 0
M  V30 2053 C 202.11 1.67064 -3.1595 0
M  V30 2054 C 201.939 0.82011 -4.42159 0
M  V30 2055 C 200.709 0.486328 -5.02954 0
M  V30 2056 C 202.907 0.151155 -5.14078 0
M  V30 2057 N 200.889 -0.377956 -6.12735 0
M  V30 2058 C 202.26 -0.573333 -6.17343 0
M  V30 2059 C 204.315 0.0716685 -4.97848 0
M  V30 2060 C 203.018 -1.3698 -7.06137 0
M  V30 2061 C 205.044 -0.711532 -5.87104 0
M  V30 2062 C 204.406 -1.42431 -6.8985 0
M  V30 2063 H 200.505 0.291798 -0.725519 0
M  V30 2064 H 203.089 0.123347 -1.94309 0
M  V30 2065 H 201.26 2.37642 -3.07215 0
M  V30 2066 H 202.992 2.32302 -3.31388 0
M  V30 2067 H 199.747 0.821753 -4.66416 0
M  V30 2068 H 200.171 -0.801077 -6.72244 0
M  V30 2069 H 204.813 0.608381 -4.184 0
M  V30 2070 H 202.531 -1.91778 -7.85014 0
M  V30 2071 H 206.117 -0.775005 -5.76615 0
M  V30 2072 H 204.997 -2.02061 -7.57721 0
M  V30 2073 N 202.5 1.5196 0.417844 0
M  V30 2074 C 203.725 1.69717 1.1921 0
M  V30 2075 C 204.15 0.402148 1.83751 0
M  V30 2076 O 203.508 -0.639593 1.69643 0
M  V30 2077 C 203.556 2.82794 2.2374 0
M  V30 2078 O 202.66 2.47756 3.29683 0
M  V30 2079 H 202.001 0.565263 0.348387 0
M  V30 2080 H 204.531 1.98621 0.490985 0
M  V30 2081 H 204.541 3.07452 2.68212 0
M  V30 2082 H 203.216 3.76756 1.76146 0
M  V30 2083 H 201.793 2.33739 2.90552 0
M  V30 2084 N 203.978 -0.674533 1.42435 0
M  V30 2085 C 205.226 -1.43175 1.42637 0
M  V30 2086 C 205.547 -1.94951 0.0438992 0
M  V30 2087 O 204.817 -1.7308 -0.917607 0
M  V30 2088 H 203.397 -0.531307 0.525092 0
M  V30 2089 H 206.059 -0.797006 1.77859 0
M  V30 2090 H 205.155 -2.28463 2.12629 0
M  V30 2091 N 205.456 -1.28612 -0.910864 0
M  V30 2092 C 206.686 -1.1862 -1.69153 0
M  V30 2093 C 207.094 0.257324 -1.87442 0
M  V30 2094 O 206.437 1.18543 -1.40332 0
M  V30 2095 C 206.499 -1.81606 -3.10257 0
M  V30 2096 C 206.163 -3.30864 -3.15243 0
M  V30 2097 C 207.16 -4.27256 -2.96223 0
M  V30 2098 C 204.845 -3.71871 -3.37664 0
M  V30 2099 C 206.839 -5.62631 -2.99541 0
M  V30 2100 C 204.526 -5.07371 -3.40614 0
M  V30 2101 C 205.524 -6.02561 -3.21573 0
M  V30 2102 O 205.212 -7.35589 -3.2429 0
M  V30 2103 H 204.944 -0.412633 -0.535453 0
M  V30 2104 H 207.498 -1.70306 -1.14827 0
M  V30 2105 H 205.728 -1.24418 -3.66138 0
M  V30 2106 H 207.417 -1.66092 -3.70362 0
M  V30 2107 H 208.183 -3.9691 -2.78725 0
M  V30 2108 H 204.062 -2.98241 -3.5153 0
M  V30 2109 H 207.606 -6.36907 -2.84597 0
M  V30 2110 H 203.503 -5.37366 -3.57642 0
M  V30 2111 H 204.271 -7.44252 -3.40633 0
M  V30 2112 N 206.934 1.1197 -1.10907 0
M  V30 2113 C 207.864 2.19928 -0.784473 0
M  V30 2114 C 208.845 1.6833 0.244726 0
M  V30 2115 O 210.03 1.93892 0.109418 0
M  V30 2116 C 207.16 3.46597 -0.220827 0
M  V30 2117 C 206.114 4.11376 -1.18127 0
M  V30 2118 C 205.44 5.32554 -0.478594 0
M  V30 2119 C 206.74 4.56945 -2.52979 0
M  V30 2120 H 208.434 2.47337 -1.68715 0
M  V30 2121 H 205.98 1.18879 -0.812642 0
M  V30 2122 H 207.933 4.21396 0.0184278 0
M  V30 2123 H 206.657 3.1863 0.717113 0
M  V30 2124 H 205.316 3.38564 -1.40606 0
M  V30 2125 H 204.964 5.00856 0.463976 0
M  V30 2126 H 204.664 5.76844 -1.11912 0
M  V30 2127 H 206.188 6.10096 -0.248 0
M  V30 2128 H 207.602 5.23093 -2.3462 0
M  V30 2129 H 205.999 5.1203 -3.12962 0
M  V30 2130 H 207.069 3.70676 -3.12614 0
M  V30 2131 N 208.412 0.89855 1.29475 0
M  V30 2132 C 209.689 0.443416 1.90508 0
M  V30 2133 C 210.069 -1.07685 1.81569 0
M  V30 2134 O 209.417 -1.9182 1.24166 0
M  V30 2135 C 209.627 0.956708 3.35631 0
M  V30 2136 C 210.975 0.999728 4.12663 0
M  V30 2137 O 211.999 0.904299 3.4453 0
M  V30 2138 O 210.858 1.14289 5.34416 0
M  V30 2139 H 207.952 0.138025 0.815401 0
M  V30 2140 H 210.498 0.98834 1.37949 0
M  V30 2141 H 209.27 2.00067 3.36287 0
M  V30 2142 H 208.893 0.391728 3.95666 0
M  V30 2143 N 209.89 -1.43072 0.660911 0
M  V30 2144 C 211.115 -2.06584 0.183805 0
M  V30 2145 C 211.54 -1.49257 -1.14472 0
M  V30 2146 O 210.898 -0.605528 -1.70889 0
M  V30 2147 C 210.946 -3.60418 0.114434 0
M  V30 2148 O 210.05 -4.01981 -0.921137 0
M  V30 2149 H 209.391 -0.656669 0.0983994 0
M  V30 2150 H 211.921 -1.83447 0.906006 0
M  V30 2151 H 211.931 -4.07946 -0.0663394 0
M  V30 2152 H 210.606 -4.01519 1.08422 0
M  V30 2153 H 209.183 -3.66029 -0.71253 0
M  V30 2154 N 211.368 -0.403325 -1.52352 0
M  V30 2155 C 212.301 0.469463 -2.23319 0
M  V30 2156 C 213.279 1.05272 -1.23922 0
M  V30 2157 O 214.463 1.10169 -1.52954 0
M  V30 2158 C 211.59 1.6511 -2.9573 0
M  V30 2159 C 210.636 1.19178 -4.0951 0
M  V30 2160 S 211.469 0.161718 -5.35256 0
M  V30 2161 C 212.625 1.34882 -6.11194 0
M  V30 2162 H 212.858 -0.133134 -2.97002 0
M  V30 2163 H 210.391 -0.187588 -1.53256 0
M  V30 2164 H 212.349 2.3287 -3.38056 0
M  V30 2165 H 211.01 2.22503 -2.21701 0
M  V30 2166 H 210.203 2.07444 -4.59329 0
M  V30 2167 H 209.805 0.592911 -3.6927 0
M  V30 2168 H 212.097 2.27345 -6.38217 0
M  V30 2169 H 213.04 0.89128 -7.02468 0
M  V30 2170 H 213.448 1.57198 -5.42171 0
M  V30 2171 N 212.846 1.57033 -0.133567 0
M  V30 2172 C 214.093 1.95686 0.520877 0
M  V30 2173 C 214.421 1.0177 1.6575 0
M  V30 2174 O 213.676 0.0443195 1.9565 0
M  V30 2175 C 213.975 3.40674 1.08057 0
M  V30 2176 C 213.641 4.50855 0.0637899 0
M  V30 2177 C 212.303 4.80716 -0.215757 0
M  V30 2178 C 214.655 5.17398 -0.62835 0
M  V30 2179 C 211.983 5.74433 -1.19348 0
M  V30 2180 C 214.335 6.12167 -1.5948 0
M  V30 2181 C 212.999 6.40414 -1.88218 0
M  V30 2182 H 212.269 0.716067 0.190602 0
M  V30 2183 H 214.916 1.9026 -0.217556 0
M  V30 2184 H 213.221 3.42865 1.89606 0
M  V30 2185 H 214.918 3.67902 1.59529 0
M  V30 2186 H 211.508 4.27605 0.291855 0
M  V30 2187 H 215.692 4.94472 -0.425562 0
M  V30 2188 H 210.948 5.94616 -1.42272 0
M  V30 2189 H 215.122 6.6281 -2.13671 0
M  V30 2190 H 212.749 7.12838 -2.64133 0
M  V30 2191 N 214.325 -0.140222 1.56975 0
M  V30 2192 C 215.55 -0.870414 1.88251 0
M  V30 2193 C 215.975 -1.73637 0.723312 0
M  V30 2194 O 215.333 -1.78329 -0.32689 0
M  V30 2195 C 215.381 -1.69737 3.18154 0
M  V30 2196 O 214.485 -2.80229 3.02565 0
M  V30 2197 H 213.826 -0.242025 0.61832 0
M  V30 2198 H 216.356 -0.128999 2.04193 0
M  V30 2199 H 216.366 -2.09099 3.50345 0
M  V30 2200 H 215.041 -1.06152 4.02125 0
M  V30 2201 H 213.618 -2.44224 2.81796 0
M  V30 2202 N 215.803 -1.52179 -0.40978 0
M  V30 2203 C 216.753 -1.71857 -1.49831 0
M  V30 2204 C 217.737 -0.572469 -1.50372 0
M  V30 2205 O 218.929 -0.829509 -1.56359 0
M  V30 2206 C 216.058 -1.87206 -2.87765 0
M  V30 2207 C 215.144 -3.07685 -2.91875 0
M  V30 2208 N 215.535 -4.30403 -2.65683 0
M  V30 2209 C 213.833 -3.07505 -3.23043 0
M  V30 2210 C 214.534 -5.11868 -2.76344 0
M  V30 2211 N 213.51 -4.47101 -3.09195 0
M  V30 2212 H 217.312 -2.64381 -1.28375 0
M  V30 2213 H 214.826 -1.50203 -0.617479 0
M  V30 2214 H 216.823 -1.99419 -3.66111 0
M  V30 2215 H 215.483 -0.958814 -3.10221 0
M  V30 2216 H 216.494 -4.58887 -2.4009 0
M  V30 2217 H 213.171 -2.25915 -3.51096 0
M  V30 2218 H 214.561 -6.19634 -2.59814 0
M  V30 2219 N 217.281 0.66697 -1.42791 0
M  V30 2220 C 218.506 1.46004 -1.47301 0
M  V30 2221 C 218.931 1.87894 -0.0880317 0
M  V30 2222 O 218.289 1.56502 0.915253 0
M  V30 2223 C 218.337 2.68031 -2.41229 0
M  V30 2224 O 217.441 3.6659 -1.88906 0
M  V30 2225 H 216.782 0.43832 -0.49877 0
M  V30 2226 H 219.312 0.817391 -1.87563 0
M  V30 2227 H 219.322 3.1601 -2.58073 0
M  V30 2228 H 217.997 2.36883 -3.41847 0
M  V30 2229 H 216.574 3.25661 -1.81656 0
M  V30 2230 N 218.759 1.29093 0.90403 0
M  V30 2231 C 220.008 1.16187 1.64874 0
M  V30 2232 C 220.321 -0.286742 1.93487 0
M  V30 2233 O 221.527 -0.537062 2.66135 0
M  V30 2234 C 219.983 2.03177 2.97064 0
M  V30 2235 C 219.591 3.52836 2.76062 0
M  V30 2236 C 221.335 1.98984 3.74974 0
M  V30 2237 C 219.242 4.31945 4.03952 0
M  V30 2238 H 218.172 0.431246 0.618501 0
M  V30 2239 H 220.823 1.53699 1.00243 0
M  V30 2240 H 219.205 1.5853 3.62883 0
M  V30 2241 H 220.379 4.05507 2.18863 0
M  V30 2242 H 218.694 3.58656 2.11553 0
M  V30 2243 H 221.291 2.55351 4.69787 0
M  V30 2244 H 221.634 0.968815 4.0487 0
M  V30 2245 H 222.167 2.41652 3.15989 0
M  V30 2246 H 218.906 5.34667 3.79225 0
M  V30 2247 H 218.426 3.84045 4.60727 0
M  V30 2248 H 220.105 4.42379 4.72133 0
M  V30 2249 N 220.237 -1.11381 1.11499 0
M  V30 2250 C 221.653 -1.35143 0.849031 0
M  V30 2251 C 221.853 -1.94515 -0.525938 0
M  V30 2252 O 220.909 -2.1785 -1.27662 0
M  V30 2253 C 222.222 -2.28249 1.95762 0
M  V30 2254 C 223.77 -2.41812 1.98736 0
M  V30 2255 C 224.245 -3.3824 3.088 0
M  V30 2256 N 225.736 -3.45803 3.08179 0
M  V30 2257 C 226.471 -4.20358 3.89982 0
M  V30 2258 N 225.967 -4.97884 4.8175 0
M  V30 2259 N 227.76 -4.15877 3.78157 0
M  V30 2260 H 219.911 -0.712062 2.00109 0
M  V30 2261 H 222.174 -0.376025 0.870235 0
M  V30 2262 H 221.88 -1.91817 2.94787 0
M  V30 2263 H 221.754 -3.28473 1.85433 0
M  V30 2264 H 224.141 -2.77518 1.00338 0
M  V30 2265 H 224.222 -1.41437 2.13141 0
M  V30 2266 H 223.866 -3.03261 4.07425 0
M  V30 2267 H 223.796 -4.38471 2.91635 0
M  V30 2268 H 226.287 -2.90506 2.41691 0
M  V30 2269 H 226.6 -5.52142 5.40702 0
M  V30 2270 H 224.945 -4.97043 4.85771 0
M  V30 2271 H 228.136 -3.544 3.05808 0
M  V30 2272 H 228.309 -4.73723 4.42143 0
M  V30 2273 N 221.715 -0.905404 -1.28997 0
M  V30 2274 C 222.663 -0.377431 -2.29517 0
M  V30 2275 C 223.657 0.526461 -1.61012 0
M  V30 2276 O 224.863 0.40863 -1.753 0
M  V30 2277 H 221.238 -0.103437 -0.744852 0
M  V30 2278 H 223.209 -1.23848 -2.71485 0
M  V30 2279 C 221.958 0.374833 -3.45674 0
M  V30 2280 H 221.281 -0.311474 -3.98585 0
M  V30 2281 H 222.721 0.70903 -4.1803 0
M  V30 2282 C 221.18 1.57963 -2.97572 0
M  V30 2283 O 221.71 2.67886 -2.99333 0
M  V30 2284 N 219.916 1.42375 -2.53333 0
M  V30 2285 H 219.463 0.529466 -2.521 0
M  V30 2286 H 219.421 2.23117 -2.21509 0
M  V30 2287 N 223.193 1.4272 -0.668489 0
M  V30 2288 C 224.44 2.01624 -0.18814 0
M  V30 2289 C 224.768 1.5282 1.20317 0
M  V30 2290 O 224.023 0.718323 1.8204 0
M  V30 2291 C 224.322 3.57021 -0.164499 0
M  V30 2292 C 223.988 4.25232 -1.49962 0
M  V30 2293 C 222.65 4.4358 -1.8652 0
M  V30 2294 C 225.002 4.63727 -2.37921 0
M  V30 2295 C 222.33 4.97694 -3.10674 0
M  V30 2296 C 224.682 5.19218 -3.6138 0
M  V30 2297 C 223.346 5.3578 -3.98115 0
M  V30 2298 H 222.616 0.737795 -0.0688454 0
M  V30 2299 H 225.263 1.70991 -0.862225 0
M  V30 2300 H 223.568 3.87285 0.593079 0
M  V30 2301 H 225.265 4.00372 0.224271 0
M  V30 2302 H 221.855 4.11306 -1.20522 0
M  V30 2303 H 226.039 4.4923 -2.10964 0
M  V30 2304 H 221.295 5.08702 -3.39164 0
M  V30 2305 H 225.469 5.4799 -4.29743 0
M  V30 2306 H 223.096 5.77475 -4.94395 0
M  V30 2307 N 224.671 0.411399 1.52136 0
M  V30 2308 C 225.899 -0.163076 2.06256 0
M  V30 2309 C 226.314 -1.3867 1.28125 0
M  V30 2310 O 225.671 -1.79423 0.333721 0
M  V30 2311 C 225.722 -0.511252 3.57867 0
M  V30 2312 O 225.443 0.66378 4.33042 0
M  V30 2313 C 226.944 -1.13921 4.28412 0
M  V30 2314 H 224.164 -0.0193897 0.67072 0
M  V30 2315 H 226.708 0.583007 1.96013 0
M  V30 2316 H 224.863 -1.20723 3.6811 0
M  V30 2317 H 225.277 0.372601 5.23175 0
M  V30 2318 H 226.751 -1.33302 5.35663 0
M  V30 2319 H 227.228 -2.11296 3.85033 0
M  V30 2320 H 227.834 -0.483373 4.22544 0
M  V30 2321 N 226.149 -1.5696 0.141893 0
M  V30 2322 C 227.059 -2.20066 -0.812905 0
M  V30 2323 C 228.075 -1.18344 -1.27557 0
M  V30 2324 O 229.251 -1.50902 -1.33381 0
M  V30 2325 C 226.316 -2.80583 -2.03652 0
M  V30 2326 C 225.377 -3.97414 -1.62359 0
M  V30 2327 C 224.61 -4.55036 -2.78887 0
M  V30 2328 O 224.833 -4.11538 -3.94959 0
M  V30 2329 O 223.767 -5.45376 -2.54653 0
M  V30 2330 H 227.593 -3.02157 -0.305746 0
M  V30 2331 H 225.178 -1.49159 -0.0848799 0
M  V30 2332 H 227.06 -3.19067 -2.75272 0
M  V30 2333 H 225.735 -2.01508 -2.5333 0
M  V30 2334 H 224.642 -3.63656 -0.877775 0
M  V30 2335 H 225.975 -4.77994 -1.17401 0
M  V30 2336 N 227.627 0.131896 -1.57047 0
M  V30 2337 C 228.855 0.856461 -1.88341 0
M  V30 2338 C 229.27 1.74042 -0.731757 0
M  V30 2339 O 228.627 1.80051 0.297945 0
M  V30 2340 C 228.678 1.70064 -3.18999 0
M  V30 2341 O 228.399 0.852278 -4.2973 0
M  V30 2342 C 229.9 2.53148 -3.63911 0
M  V30 2343 H 227.12 0.246885 -0.62393 0
M  V30 2344 H 229.664 0.120152 -2.04147 0
M  V30 2345 H 227.819 2.38984 -3.04902 0
M  V30 2346 H 228.233 1.43329 -5.04537 0
M  V30 2347 H 229.707 3.07931 -4.58129 0
M  V30 2348 H 230.184 3.29901 -2.89935 0
M  V30 2349 H 230.79 1.89492 -3.80753 0
M  V30 2350 N 229.106 1.52395 0.401703 0
M  V30 2351 C 230.056 1.72649 1.48917 0
M  V30 2352 C 231.04 0.580436 1.50066 0
M  V30 2353 O 232.232 0.83779 1.55917 0
M  V30 2354 C 229.361 1.88729 2.86769 0
M  V30 2355 C 228.447 3.09228 2.90239 0
M  V30 2356 N 228.838 4.31805 2.63396 0
M  V30 2357 C 227.136 3.09214 3.21408 0
M  V30 2358 C 227.837 5.13326 2.73625 0
M  V30 2359 N 226.813 4.48735 3.06819 0
M  V30 2360 H 230.615 2.65058 1.26971 0
M  V30 2361 H 228.129 1.50528 0.609504 0
M  V30 2362 H 230.126 2.01358 3.65049 0
M  V30 2363 H 228.786 0.975252 3.09708 0
M  V30 2364 H 229.797 4.60154 2.37653 0
M  V30 2365 H 226.474 2.27774 3.49893 0
M  V30 2366 H 227.864 6.21003 2.56524 0
M  V30 2367 N 230.584 -0.659388 1.43143 0
M  V30 2368 C 231.83 -1.42145 1.44647 0
M  V30 2369 C 232.163 -1.9408 0.0681907 0
M  V30 2370 O 231.438 -1.71899 -0.910007 0
M  V30 2371 C 231.721 -2.60735 2.48373 0
M  V30 2372 C 231.574 -2.14332 3.95451 0
M  V30 2373 C 232.893 -3.62951 2.48906 0
M  V30 2374 H 230.012 -0.51552 0.526696 0
M  V30 2375 H 232.654 -0.748069 1.74654 0
M  V30 2376 H 230.804 -3.18184 2.22916 0
M  V30 2377 H 232.476 -1.61932 4.31944 0
M  V30 2378 H 230.719 -1.4576 4.08578 0
M  V30 2379 H 231.39 -2.99583 4.63631 0
M  V30 2380 H 233.866 -3.1525 2.71582 0
M  V30 2381 H 232.742 -4.43487 3.23435 0
M  V30 2382 H 233.003 -4.15126 1.52061 0
M  V30 2383 N 232.062 -1.29571 -0.897171 0
M  V30 2384 C 233.31 -1.17456 -1.64464 0
M  V30 2385 C 233.631 0.273698 -1.9307 0
M  V30 2386 O 232.901 1.18684 -1.55855 0
M  V30 2387 H 231.481 -0.431706 -0.609622 0
M  V30 2388 H 234.143 -1.62531 -1.07562 0
M  V30 2389 H 233.239 -1.72648 -2.59998 0
M  V30 2390 N 233.54 1.10788 -1.12088 0
M  V30 2391 C 234.765 1.87002 -0.896949 0
M  V30 2392 C 235.19 1.79933 0.548261 0
M  V30 2393 O 234.548 1.16662 1.38779 0
M  V30 2394 C 234.596 3.3349 -1.37174 0
M  V30 2395 O 233.7 4.08745 -0.547831 0
M  V30 2396 H 233.041 0.580397 -0.322545 0
M  V30 2397 H 235.571 1.39996 -1.49206 0
M  V30 2398 H 235.581 3.84339 -1.36922 0
M  V30 2399 H 234.256 3.37951 -2.42408 0
M  V30 2400 H 232.833 3.6776 -0.617034 0
M  V30 2401 N 235.018 0.912232 1.28515 0
M  V30 2402 C 236.264 0.554851 1.95686 0
M  V30 2403 C 236.619 -0.89138 1.70506 0
M  V30 2404 O 235.912 -1.62529 1.01464 0
M  V30 2405 C 236.106 0.798392 3.48368 0
M  V30 2406 C 235.935 2.26674 3.88393 0
M  V30 2407 C 234.705 2.91657 4.12631 0
M  V30 2408 C 236.903 3.24303 3.99164 0
M  V30 2409 N 234.885 4.28805 4.39317 0
M  V30 2410 C 236.256 4.4661 4.30046 0
M  V30 2411 C 238.311 3.19723 3.81683 0
M  V30 2412 C 237.014 5.64915 4.45268 0
M  V30 2413 C 239.04 4.37325 3.98121 0
M  V30 2414 C 238.402 5.58406 4.29375 0
M  V30 2415 H 234.501 0.252876 0.739985 0
M  V30 2416 H 237.085 1.17565 1.55199 0
M  V30 2417 H 235.256 0.20688 3.87849 0
M  V30 2418 H 236.988 0.405193 4.02666 0
M  V30 2419 H 233.743 2.42393 4.06869 0
M  V30 2420 H 234.167 4.99712 4.56746 0
M  V30 2421 H 238.809 2.27191 3.56573 0
M  V30 2422 H 236.527 6.57927 4.6921 0
M  V30 2423 H 240.113 4.35282 3.86033 0
M  V30 2424 H 238.993 6.47889 4.41825 0
M  V30 2425 N 236.496 -1.42363 0.676048 0
M  V30 2426 C 237.428 -2.29164 -0.0404605 0
M  V30 2427 C 238.441 -1.43747 -0.764245 0
M  V30 2428 O 239.63 -1.67453 -0.618195 0
M  V30 2429 C 236.73 -3.21196 -1.08103 0
M  V30 2430 C 235.903 -4.35273 -0.430812 0
M  V30 2431 C 234.962 -5.08017 -1.37133 0
M  V30 2432 O 233.988 -5.62494 -0.87116 0
M  V30 2433 N 235.19 -5.13647 -2.70456 0
M  V30 2434 H 237.955 -2.91298 0.704667 0
M  V30 2435 H 235.516 -1.53303 0.520559 0
M  V30 2436 H 237.508 -3.66728 -1.71152 0
M  V30 2437 H 236.078 -2.60505 -1.72788 0
M  V30 2438 H 235.298 -3.92372 0.379209 0
M  V30 2439 H 236.586 -5.08795 0.0221132 0
M  V30 2440 H 235.984 -4.708 -3.1363 0
M  V30 2441 H 234.541 -5.62821 -3.28749 0
M  V30 2442 N 237.974 -0.419461 -1.51915 0
M  V30 2443 C 239.22 0.153166 -2.02221 0
M  V30 2444 C 239.553 1.43907 -1.30401 0
M  V30 2445 O 238.828 1.90055 -0.413438 0
M  V30 2446 C 239.111 0.390291 -3.57979 0
M  V30 2447 C 238.964 -0.913014 -4.40436 0
M  V30 2448 C 240.283 1.16794 -4.2432 0
M  V30 2449 H 237.402 0.0541924 -0.735005 0
M  V30 2450 H 240.044 -0.554955 -1.81715 0
M  V30 2451 H 238.194 0.993491 -3.75582 0
M  V30 2452 H 239.866 -1.54882 -4.34522 0
M  V30 2453 H 238.109 -1.52168 -4.06236 0
M  V30 2454 H 238.78 -0.701361 -5.47526 0
M  V30 2455 H 241.256 0.657161 -4.10878 0
M  V30 2456 H 240.132 1.3026 -5.3322 0
M  V30 2457 H 240.393 2.19132 -3.83971 0
M  V30 2458 N 239.452 1.56882 -0.150215 0
M  V30 2459 C 240.863 1.82995 0.370076 0
M  V30 2460 C 241.214 1.06907 1.64515 0
M  V30 2461 O 240.339 0.315369 2.1409 0
M  V30 2462 C 240.934 3.31942 0.678208 0
M  V30 2463 C 239.493 3.58625 1.14301 0
M  V30 2464 C 238.64 2.76792 0.167778 0
M  V30 2465 H 241.591 1.54209 -0.374858 0
M  V30 2466 H 241.612 3.48272 1.53254 0
M  V30 2467 H 241.124 3.87294 -0.249991 0
M  V30 2468 H 239.225 3.08664 2.08704 0
M  V30 2469 H 239.338 4.67073 1.06676 0
M  V30 2470 H 237.702 2.45972 0.661037 0
M  V30 2471 H 238.485 3.34916 -0.754069 0
M  V30 2472 N 240.93 -0.123565 1.57115 0
M  V30 2473 C 241.86 -1.15309 2.03042 0
M  V30 2474 C 242.841 -1.43454 0.914061 0
M  V30 2475 O 244.026 -1.53973 1.18347 0
M  V30 2476 C 241.156 -2.48043 2.43089 0
M  V30 2477 C 240.11 -2.3437 3.58127 0
M  V30 2478 C 239.436 -3.72026 3.84059 0
M  V30 2479 C 240.736 -1.80804 4.90007 0
M  V30 2480 H 242.43 -0.771102 2.893 0
M  V30 2481 H 239.976 -0.369479 1.39179 0
M  V30 2482 H 241.929 -3.20311 2.73823 0
M  V30 2483 H 240.653 -2.88122 1.53796 0
M  V30 2484 H 239.312 -1.64551 3.27595 0
M  V30 2485 H 238.96 -4.09582 2.91979 0
M  V30 2486 H 238.66 -3.63732 4.6149 0
M  V30 2487 H 240.184 -4.45806 4.1724 0
M  V30 2488 H 241.598 -2.42886 5.19307 0
M  V30 2489 H 239.995 -1.83343 5.71407 0
M  V30 2490 H 241.065 -0.76528 4.78823 0
M  V30 2491 N 242.408 -1.52605 -0.393616 0
M  V30 2492 C 243.338 -1.80022 -1.48709 0
M  V30 2493 C 244.319 -0.651995 -1.57108 0
M  V30 2494 O 245.504 -0.89913 -1.72132 0
M  V30 2495 C 242.634 -1.96492 -2.86371 0
M  V30 2496 C 241.588 -3.12161 -2.92813 0
M  V30 2497 C 240.914 -3.13877 -4.3288 0
M  V30 2498 C 242.214 -4.51322 -2.6288 0
M  V30 2499 H 243.908 -2.71589 -1.26015 0
M  V30 2500 H 241.454 -1.30684 -0.604778 0
M  V30 2501 H 243.407 -2.14255 -3.62867 0
M  V30 2502 H 242.131 -1.01611 -3.10391 0
M  V30 2503 H 240.79 -2.94173 -2.18764 0
M  V30 2504 H 240.438 -2.16687 -4.53933 0
M  V30 2505 H 240.138 -3.91576 -4.38112 0
M  V30 2506 H 241.662 -3.33789 -5.1129 0
M  V30 2507 H 243.076 -4.69435 -3.29096 0
M  V30 2508 H 241.473 -5.31053 -2.79468 0
M  V30 2509 H 242.543 -4.58353 -1.58242 0
M  V30 2510 N 243.887 0.651787 -1.4349 0
M  V30 2511 C 245.135 1.40888 -1.44897 0
M  V30 2512 C 245.456 1.94856 -0.0749086 0
M  V30 2513 O 244.726 1.74518 0.889956 0
M  V30 2514 H 243.306 0.522887 -0.533478 0
M  V30 2515 H 245.968 0.768609 -1.79104 0
M  V30 2516 H 245.064 2.25052 -2.16236 0
M  V30 2517 N 245.365 1.30045 0.890287 0
M  V30 2518 C 246.315 1.12592 1.9826 0
M  V30 2519 C 247.299 0.0426021 1.60844 0
M  V30 2520 O 248.491 0.265346 1.75 0
M  V30 2521 C 245.62 0.814301 3.33503 0
M  V30 2522 C 244.706 1.93761 3.7725 0
M  V30 2523 N 245.097 3.18232 3.93143 0
M  V30 2524 C 243.395 1.83277 4.06602 0
M  V30 2525 C 244.096 3.9158 4.30163 0
M  V30 2526 N 243.072 3.19591 4.3973 0
M  V30 2527 H 246.874 2.07003 2.08631 0
M  V30 2528 H 244.388 1.21307 1.07974 0
M  V30 2529 H 246.385 0.67029 4.11476 0
M  V30 2530 H 245.045 -0.121797 3.24471 0
M  V30 2531 H 246.056 3.53581 3.78419 0
M  V30 2532 H 242.733 0.97001 4.06075 0
M  V30 2533 H 244.123 4.98744 4.50226 0
M  V30 2534 N 246.843 -1.10192 1.12674 0
M  V30 2535 C 248.073 -1.85713 0.905213 0
M  V30 2536 C 248.481 -1.81056 -0.549108 0
M  V30 2537 O 247.824 -1.19927 -1.39151 0
M  V30 2538 C 247.886 -3.34972 1.30516 0
M  V30 2539 C 247.55 -3.63385 2.77129 0
M  V30 2540 C 248.547 -3.59772 3.75313 0
M  V30 2541 C 246.232 -3.91981 3.14096 0
M  V30 2542 C 248.226 -3.84354 5.08479 0
M  V30 2543 C 245.913 -4.16218 4.47443 0
M  V30 2544 C 246.911 -4.12395 5.44444 0
M  V30 2545 O 246.599 -4.36014 6.75387 0
M  V30 2546 H 246.331 -0.593719 0.323223 0
M  V30 2547 H 248.885 -1.40198 1.50112 0
M  V30 2548 H 247.115 -3.81156 0.652463 0
M  V30 2549 H 248.804 -3.91886 1.05736 0
M  V30 2550 H 249.57 -3.37716 3.48099 0
M  V30 2551 H 245.449 -3.94085 2.39202 0
M  V30 2552 H 248.993 -3.81285 5.84181 0
M  V30 2553 H 244.89 -4.37754 4.74386 0
M  V30 2554 H 245.658 -4.53516 6.8137 0
M  V30 2555 N 248.321 -0.919034 -1.28029 0
M  V30 2556 C 249.732 -0.600735 -1.76771 0
M  V30 2557 C 250.083 0.884024 -1.75156 0
M  V30 2558 O 249.208 1.69163 -1.34956 0
M  V30 2559 C 249.803 -1.08372 -3.21 0
M  V30 2560 C 248.362 -0.816248 -3.67443 0
M  V30 2561 C 247.509 -1.24742 -2.47658 0
M  V30 2562 H 250.46 -1.09974 -1.14418 0
M  V30 2563 H 250.481 -0.427512 -3.78091 0
M  V30 2564 H 249.993 -2.16437 -3.22144 0
M  V30 2565 H 248.094 0.250968 -3.71754 0
M  V30 2566 H 248.207 -1.4277 -4.57333 0
M  V30 2567 H 246.571 -0.666083 -2.45836 0
M  V30 2568 H 247.354 -2.33653 -2.51518 0
M  V30 2569 N 249.799 1.42003 -0.683588 0
M  V30 2570 C 251.076 1.95112 -0.138075 0
M  V30 2571 C 251.456 1.62359 1.34918 0
M  V30 2572 O 250.804 0.924311 2.08971 0
M  V30 2573 C 251.014 3.46505 -0.416581 0
M  V30 2574 C 252.362 4.23254 -0.337834 0
M  V30 2575 O 253.386 3.54468 -0.35082 0
M  V30 2576 O 252.245 5.45743 -0.287596 0
M  V30 2577 H 249.339 0.826961 -0.00797996 0
M  V30 2578 H 251.885 1.51784 -0.758924 0
M  V30 2579 H 250.657 3.63582 -1.4465 0
M  V30 2580 H 250.28 3.969 0.235839 0
M  V30 2581 N 251.277 0.427512 1.51691 0
M  V30 2582 C 252.524 -0.142229 2.02 0
M  V30 2583 C 252.852 -1.43566 1.31221 0
M  V30 2584 O 252.107 -1.91298 0.412744 0
M  V30 2585 C 252.406 -0.418249 3.54944 0
M  V30 2586 C 252.072 0.788187 4.43958 0
M  V30 2587 C 250.734 1.11906 4.68007 0
M  V30 2588 C 253.086 1.59347 4.96244 0
M  V30 2589 C 250.414 2.25608 5.41588 0
M  V30 2590 C 252.766 2.7214 5.71072 0
M  V30 2591 C 251.43 3.05692 5.93387 0
M  V30 2592 H 250.7 -0.0520451 0.73917 0
M  V30 2593 H 253.347 0.572697 1.82736 0
M  V30 2594 H 251.652 -1.21496 3.72486 0
M  V30 2595 H 253.349 -0.872339 3.91397 0
M  V30 2596 H 249.939 0.520344 4.2543 0
M  V30 2597 H 254.123 1.35106 4.77556 0
M  V30 2598 H 249.379 2.51929 5.57083 0
M  V30 2599 H 253.553 3.34914 6.10578 0
M  V30 2600 H 251.18 3.9391 6.50184 0
M  V30 2601 N 252.755 -1.56801 0.158532 0
M  V30 2602 C 253.685 -2.20347 -0.772609 0
M  V30 2603 C 254.666 -1.15518 -1.24859 0
M  V30 2604 O 255.851 -1.43902 -1.30406 0
M  V30 2605 C 252.981 -2.83417 -2.00729 0
M  V30 2606 C 251.935 -3.94174 -1.66765 0
M  V30 2607 C 251.261 -4.44233 -2.97592 0
M  V30 2608 C 252.561 -5.14392 -0.905447 0
M  V30 2609 H 254.255 -2.98413 -0.242959 0
M  V30 2610 H 251.801 -1.43537 -0.115419 0
M  V30 2611 H 253.754 -3.26543 -2.6636 0
M  V30 2612 H 252.478 -2.02701 -2.56086 0
M  V30 2613 H 251.137 -3.51684 -1.03508 0
M  V30 2614 H 250.785 -3.60325 -3.50963 0
M  V30 2615 H 250.485 -5.18945 -2.75626 0
M  V30 2616 H 252.009 -4.90037 -3.64274 0
M  V30 2617 H 253.423 -5.5429 -1.46408 0
M  V30 2618 H 251.82 -5.9494 -0.7853 0
M  V30 2619 H 252.89 -4.84795 0.100668 0
M  V30 2620 N 254.233 0.115231 -1.57178 0
M  V30 2621 C 255.196 1.12526 -1.99676 0
M  V30 2622 C 256.196 1.34095 -0.88742 0
M  V30 2623 O 257.386 1.30548 -1.15337 0
M  V30 2624 C 254.518 2.4789 -2.34015 0
M  V30 2625 H 255.711 0.759912 -2.90113 0
M  V30 2626 H 253.264 0.359648 -1.52106 0
M  V30 2627 H 253.999 2.89339 -1.4647 0
M  V30 2628 H 253.784 2.33588 -3.14927 0
M  V30 2629 H 255.274 3.20575 -2.67622 0
M  V30 2630 N 255.711 1.52812 0.385517 0
M  V30 2631 C 256.674 1.77188 1.45386 0
M  V30 2632 C 257.674 0.641953 1.4743 0
M  V30 2633 O 258.864 0.910033 1.4854 0
M  V30 2634 C 255.996 1.87582 2.8465 0
M  V30 2635 H 257.189 2.72583 1.25054 0
M  V30 2636 H 254.742 1.43586 0.617467 0
M  V30 2637 H 255.477 0.941849 3.10322 0
M  V30 2638 H 255.262 2.69748 2.84567 0
M  V30 2639 H 256.752 2.08102 3.62054 0
M  V30 2640 N 257.189 -0.644168 1.43834 0
M  V30 2641 C 258.437 -1.40117 1.45642 0
M  V30 2642 C 258.758 -1.94814 0.0852413 0
M  V30 2643 O 258.028 -1.74988 -0.880688 0
M  V30 2644 H 256.608 -0.52005 0.536243 0
M  V30 2645 H 259.27 -0.7591 1.7951 0
M  V30 2646 H 258.366 -2.23902 2.17427 0
M  V30 2647 N 258.668 -1.30515 -0.883378 0
M  V30 2648 C 259.917 -1.18795 -1.63005 0
M  V30 2649 C 260.23 0.255923 -1.93919 0
M  V30 2650 O 261.436 0.494654 -2.66956 0
M  V30 2651 C 259.892 -2.07878 -2.93794 0
M  V30 2652 C 259.5 -3.57184 -2.70414 0
M  V30 2653 C 261.244 -2.04924 -3.71761 0
M  V30 2654 C 259.151 -4.38317 -3.97029 0
M  V30 2655 H 258.081 -0.441031 -0.611562 0
M  V30 2656 H 260.732 -1.55275 -0.977854 0
M  V30 2657 H 259.114 -1.64283 -3.60315 0
M  V30 2658 H 260.288 -4.08937 -2.12384 0
M  V30 2659 H 258.603 -3.61976 -2.0582 0
M  V30 2660 H 261.2 -2.62792 -4.65665 0
M  V30 2661 H 261.543 -1.0331 -4.03277 0
M  V30 2662 H 262.076 -2.46649 -3.12104 0
M  V30 2663 H 258.815 -5.40632 -3.70671 0
M  V30 2664 H 258.335 -3.91326 -4.54559 0
M  V30 2665 H 260.014 -4.49834 -4.65036 0
M  V30 2666 N 260.146 1.09593 -1.13257 0
M  V30 2667 C 261.395 1.81105 -0.887917 0
M  V30 2668 C 261.708 1.86563 0.587672 0
M  V30 2669 O 262.914 2.54367 0.949204 0
M  V30 2670 C 261.37 3.25338 -1.53895 0
M  V30 2671 C 260.978 3.28151 -3.04994 0
M  V30 2672 C 262.722 4.01617 -1.37492 0
M  V30 2673 C 260.629 4.66897 -3.6299 0
M  V30 2674 H 259.559 0.678661 -0.328534 0
M  V30 2675 H 262.21 1.23183 -1.36008 0
M  V30 2676 H 260.592 3.8331 -0.994446 0
M  V30 2677 H 261.766 2.79953 -3.66009 0
M  V30 2678 H 260.081 2.65361 -3.20893 0
M  V30 2679 H 262.678 5.04119 -1.78235 0
M  V30 2680 H 263.021 4.15072 -0.31957 0
M  V30 2681 H 263.554 3.50082 -1.88912 0
M  V30 2682 H 260.293 4.58643 -4.68323 0
M  V30 2683 H 259.813 5.15426 -3.06752 0
M  V30 2684 H 261.492 5.3587 -3.62563 0
M  V30 2685 N 261.624 0.925811 1.2754 0
M  V30 2686 C 262.554 0.440748 2.29303 0
M  V30 2687 C 263.535 -0.497971 1.62648 0
M  V30 2688 O 264.72 -0.403126 1.8997 0
M  V30 2689 C 261.85 -0.309048 3.45922 0
M  V30 2690 C 260.804 0.54166 4.24559 0
M  V30 2691 C 260.13 -0.337191 5.33636 0
M  V30 2692 C 261.43 1.80516 4.90114 0
M  V30 2693 H 263.124 1.29121 2.70126 0
M  V30 2694 H 260.67 0.622323 1.29858 0
M  V30 2695 H 262.623 -0.659315 4.1621 0
M  V30 2696 H 261.347 -1.19352 3.04011 0
M  V30 2697 H 260.006 0.874609 3.56014 0
M  V30 2698 H 259.654 -1.22056 4.87966 0
M  V30 2699 H 259.354 0.228497 5.87156 0
M  V30 2700 H 260.878 -0.683072 6.06767 0
M  V30 2701 H 262.292 1.52307 5.52698 0
M  V30 2702 H 260.689 2.3142 5.53683 0
M  V30 2703 H 261.759 2.52581 4.13921 0
M  V30 2704 N 263.102 -1.41638 0.69111 0
M  V30 2705 C 264.032 -2.3347 0.037248 0
M  V30 2706 C 265.013 -1.51575 -0.771947 0
M  V30 2707 O 266.198 -1.80126 -0.72582 0
M  V30 2708 C 263.328 -3.35354 -0.903064 0
M  V30 2709 C 262.282 -4.27526 -0.201288 0
M  V30 2710 C 261.608 -5.19747 -1.25565 0
M  V30 2711 C 262.908 -5.13959 0.929689 0
M  V30 2712 H 264.602 -2.88397 0.804227 0
M  V30 2713 H 262.148 -1.38669 0.388189 0
M  V30 2714 H 264.101 -3.98519 -1.36969 0
M  V30 2715 H 262.825 -2.78767 -1.70166 0
M  V30 2716 H 261.484 -3.65779 0.245265 0
M  V30 2717 H 261.132 -4.59479 -2.04666 0
M  V30 2718 H 260.832 -5.8225 -0.791128 0
M  V30 2719 H 262.356 -5.85789 -1.72288 0
M  V30 2720 H 263.77 -5.70718 0.543546 0
M  V30 2721 H 262.167 -5.85379 1.32103 0
M  V30 2722 H 263.237 -4.51389 1.77133 0
M  V30 2723 N 264.58 -0.43555 -1.51462 0
M  V30 2724 C 265.543 0.365137 -2.26273 0
M  V30 2725 C 266.543 0.951227 -1.29647 0
M  V30 2726 O 267.733 0.825958 -1.53374 0
M  V30 2727 C 264.865 1.51645 -3.05314 0
M  V30 2728 H 266.058 -0.290474 -2.9849 0
M  V30 2729 H 263.611 -0.188676 -1.55157 0
M  V30 2730 H 264.346 2.20816 -2.3751 0
M  V30 2731 H 264.131 1.10238 -3.76284 0
M  V30 2732 H 265.621 2.08218 -3.61987 0
M  V30 2733 N 266.058 1.56714 -0.166846 0
M  V30 2734 C 267.283 2.01557 0.488833 0
M  V30 2735 C 267.708 1.0463 1.56314 0
M  V30 2736 O 267.066 0.0251304 1.81283 0
M  V30 2737 C 267.114 3.4503 1.04818 0
M  V30 2738 O 266.218 3.51163 2.16236 0
M  V30 2739 H 265.559 0.653516 0.117526 0
M  V30 2740 H 268.089 2.02818 -0.269421 0
M  V30 2741 H 268.099 3.84243 1.37191 0
M  V30 2742 H 266.774 4.15077 0.261572 0
M  V30 2743 H 265.351 3.23807 1.84942 0
M  V30 2744 N 267.536 -0.106894 1.57237 0
M  V30 2745 C 268.499 -1.11466 2.0027 0
M  V30 2746 C 269.499 -1.33623 0.894519 0
M  V30 2747 O 270.689 -1.29935 1.16028 0
M  V30 2748 C 267.821 -2.46646 2.35327 0
M  V30 2749 H 269.014 -0.744516 2.90512 0
M  V30 2750 H 266.567 -0.351576 1.52295 0
M  V30 2751 H 267.302 -2.88558 1.48003 0
M  V30 2752 H 267.087 -2.31915 3.16161 0
M  V30 2753 H 268.577 -3.19151 2.69318 0
M  V30 2754 N 269.014 -1.53014 -0.377408 0
M  V30 2755 C 270.261 -1.68623 -1.12128 0
M  V30 2756 C 270.589 -0.431997 -1.89642 0
M  V30 2757 O 269.844 0.585855 -1.86725 0
M  V30 2758 C 270.143 -2.87982 -2.11663 0
M  V30 2759 C 269.809 -4.24964 -1.50719 0
M  V30 2760 C 268.471 -4.62217 -1.33825 0
M  V30 2761 C 270.823 -5.10199 -1.06519 0
M  V30 2762 C 268.151 -5.82352 -0.712963 0
M  V30 2763 C 270.503 -6.30969 -0.453955 0
M  V30 2764 C 269.167 -6.66944 -0.272411 0
M  V30 2765 H 268.437 -0.617034 -0.410305 0
M  V30 2766 H 271.084 -1.8718 -0.404484 0
M  V30 2767 H 269.389 -2.63889 -2.89603 0
M  V30 2768 H 271.086 -2.97253 -2.6915 0
M  V30 2769 H 267.676 -3.95626 -1.64858 0
M  V30 2770 H 271.86 -4.81978 -1.18368 0
M  V30 2771 H 267.116 -6.08824 -0.560611 0
M  V30 2772 H 271.29 -6.96324 -0.103217 0
M  V30 2773 H 268.917 -7.59898 0.214181 0
M  V30 2774 N 270.492 0.636531 -1.44174 0
M  V30 2775 C 271.738 1.39826 -1.4689 0
M  V30 2776 C 272.071 1.93947 -0.0990585 0
M  V30 2777 O 271.346 1.73325 0.882544 0
M  V30 2778 C 271.629 2.56751 -2.5249 0
M  V30 2779 C 271.482 2.08014 -3.98811 0
M  V30 2780 C 272.801 3.58946 -2.54649 0
M  V30 2781 H 269.92 0.507075 -0.53483 0
M  V30 2782 H 272.562 0.720188 -1.75822 0
M  V30 2783 H 270.712 3.14597 -2.2795 0
M  V30 2784 H 272.384 1.5504 -4.34466 0
M  V30 2785 H 270.627 1.39242 -4.10846 0
M  V30 2786 H 271.298 2.92169 -4.68339 0
M  V30 2787 H 273.774 3.1089 -2.76563 0
M  V30 2788 H 272.65 4.38286 -3.3045 0
M  V30 2789 H 272.911 4.12655 -1.58646 0
M  V30 2790 N 271.97 1.30982 0.876444 0
M  V30 2791 C 273.195 1.23373 1.66715 0
M  V30 2792 C 273.62 -0.19885 1.87046 0
M  V30 2793 O 272.978 -1.1427 1.40756 0
M  V30 2794 C 273.026 1.97644 3.01611 0
M  V30 2795 O 272.13 1.30935 3.91062 0
M  V30 2796 H 271.471 0.426279 0.509099 0
M  V30 2797 H 274.001 1.72944 1.09323 0
M  V30 2798 H 274.011 2.06992 3.51594 0
M  V30 2799 H 272.686 3.01829 2.86133 0
M  V30 2800 H 271.263 1.29996 3.49507 0
M  V30 2801 N 273.449 -1.08991 1.13837 0
M  V30 2802 C 274.689 -1.82867 0.913183 0
M  V30 2803 C 275.053 -1.83936 -0.550604 0
M  V30 2804 O 276.254 -2.53515 -0.893515 0
M  V30 2805 C 274.525 -3.24843 1.49036 0
M  V30 2806 S 276.084 -4.15669 1.40588 0
M  V30 2807 H 272.902 -0.630278 0.329046 0
M  V30 2808 H 275.504 -1.31049 1.45073 0
M  V30 2809 H 274.208 -3.21644 2.54899 0
M  V30 2810 H 273.739 -3.81734 0.950947 0
M  V30 2811 H 275.754 -4.94686 0.387353 0
M  V30 2812 N 274.927 -0.932562 -1.27047 0
M  V30 2813 C 276.175 -0.574422 -1.93765 0
M  V30 2814 C 276.496 0.887993 -1.73608 0
M  V30 2815 O 275.766 1.62999 -1.08665 0
M  V30 2816 H 274.346 -0.209451 -0.717035 0
M  V30 2817 H 277.008 -1.18601 -1.5466 0
M  V30 2818 H 276.104 -0.784841 -3.02071 0
M  V30 2819 N 276.405 1.4127 -0.698611 0
M  V30 2820 C 277.368 2.29158 -0.044132 0
M  V30 2821 C 278.368 1.44529 0.704841 0
M  V30 2822 O 279.558 1.65643 0.539276 0
M  V30 2823 C 276.69 3.27459 0.947809 0
M  V30 2824 H 277.883 2.88529 -0.817994 0
M  V30 2825 H 275.436 1.49307 -0.46228 0
M  V30 2826 H 276.171 2.73073 1.74933 0
M  V30 2827 H 275.956 3.8991 0.41385 0
M  V30 2828 H 277.446 3.93311 1.40344 0
M  V30 2829 N 277.883 0.443576 1.51229 0
M  V30 2830 C 279.299 0.0962001 1.5931 0
M  V30 2831 C 279.499 -1.39501 1.45402 0
M  V30 2832 O 278.555 -2.16557 1.29843 0
M  V30 2833 C 279.868 0.621875 2.94199 0
M  V30 2834 C 281.416 0.582865 3.07525 0
M  V30 2835 C 281.891 1.08562 4.44948 0
M  V30 2836 N 283.382 1.04387 4.51284 0
M  V30 2837 C 284.117 1.40368 5.55954 0
M  V30 2838 N 283.613 1.83664 6.68011 0
M  V30 2839 N 285.406 1.32145 5.46346 0
M  V30 2840 H 277.557 1.41376 1.58514 0
M  V30 2841 H 279.82 0.582965 0.747567 0
M  V30 2842 H 279.526 1.66546 3.09767 0
M  V30 2843 H 279.4 0.0502125 3.77167 0
M  V30 2844 H 281.787 -0.451749 2.91622 0
M  V30 2845 H 281.868 1.191 2.26382 0
M  V30 2846 H 281.512 2.11873 4.61598 0
M  V30 2847 H 281.442 0.453956 5.2464 0
M  V30 2848 H 283.933 0.725986 3.70861 0
M  V30 2849 H 284.246 2.0934 7.43906 0
M  V30 2850 H 282.591 1.87596 6.69203 0
M  V30 2851 H 285.782 0.981808 4.57688 0
M  V30 2852 H 285.955 1.60514 6.27805 0
M  V30 2853 N 279.361 -1.56624 0.175154 0
M  V30 2854 C 280.607 -1.9729 -0.469506 0
M  V30 2855 C 280.94 -1.06128 -1.62636 0
M  V30 2856 O 280.215 -0.109183 -1.94193 0
M  V30 2857 C 280.498 -3.47375 -0.948804 0
M  V30 2858 C 280.351 -4.49317 0.208491 0
M  V30 2859 C 281.67 -4.00652 -1.82116 0
M  V30 2860 H 278.789 -0.717317 -0.16919 0
M  V30 2861 H 281.431 -1.88184 0.262062 0
M  V30 2862 H 279.581 -3.55267 -1.57219 0
M  V30 2863 H 281.253 -4.53482 0.845682 0
M  V30 2864 H 279.496 -4.25121 0.863395 0
M  V30 2865 H 280.167 -5.51741 -0.169059 0
M  V30 2866 H 282.643 -3.95416 -1.2956 0
M  V30 2867 H 281.519 -5.06075 -2.12554 0
M  V30 2868 H 281.78 -3.44699 -2.7683 0
M  V30 2869 N 280.839 0.0985539 -1.57292 0
M  V30 2870 C 282.064 0.820196 -1.90493 0
M  V30 2871 C 282.489 1.71658 -0.769094 0
M  V30 2872 O 281.847 1.79133 0.279495 0
M  V30 2873 C 281.895 1.61242 -3.22542 0
M  V30 2874 O 280.999 2.72108 -3.09888 0
M  V30 2875 H 280.34 0.225547 -0.62452 0
M  V30 2876 H 282.87 0.0748159 -2.04463 0
M  V30 2877 H 282.88 1.99737 -3.55766 0
M  V30 2878 H 281.555 0.954535 -4.04798 0
M  V30 2879 H 280.132 2.36667 -2.88172 0
M  V30 2880 N 282.317 1.53212 0.369288 0
M  V30 2881 C 283.542 1.73423 1.1375 0
M  V30 2882 C 283.967 0.460404 1.82378 0
M  V30 2883 O 283.325 -0.585298 1.71592 0
M  V30 2884 C 283.373 2.89769 2.1463 0
M  V30 2885 O 282.477 2.58119 3.21634 0
M  V30 2886 H 281.818 0.576061 0.330227 0
M  V30 2887 H 284.348 2.00083 0.427547 0
M  V30 2888 H 284.358 3.15829 2.58294 0
M  V30 2889 H 283.033 3.8217 1.64071 0
M  V30 2890 H 281.61 2.42864 2.82969 0
M  V30 2891 N 283.795 -0.628877 1.44509 0
M  V30 2892 C 285.041 -1.38863 1.48623 0
M  V30 2893 C 285.396 -1.92038 0.117933 0
M  V30 2894 O 284.689 -1.70853 -0.86716 0
M  V30 2895 C 284.883 -2.56995 2.48371 0
M  V30 2896 C 284.712 -2.15385 3.94765 0
M  V30 2897 C 283.482 -2.02558 4.62924 0
M  V30 2898 C 285.68 -1.74158 4.83915 0
M  V30 2899 N 283.662 -1.54534 5.94132 0
M  V30 2900 C 285.033 -1.37396 6.04584 0
M  V30 2901 C 287.088 -1.61559 4.7096 0
M  V30 2902 C 285.791 -0.892948 7.13736 0
M  V30 2903 C 287.817 -1.14862 5.80139 0
M  V30 2904 C 287.179 -0.790516 6.9995 0
M  V30 2905 H 283.278 -0.502858 0.59888 0
M  V30 2906 H 285.862 -0.72121 1.8085 0
M  V30 2907 H 284.033 -3.21362 2.1813 0
M  V30 2908 H 285.765 -3.23801 2.42766 0
M  V30 2909 H 282.52 -2.23082 4.1777 0
M  V30 2910 H 282.944 -1.32815 6.63844 0
M  V30 2911 H 287.586 -1.87876 3.78764 0
M  V30 2912 H 285.304 -0.617291 8.05739 0
M  V30 2913 H 288.89 -1.05569 5.72142 0
M  V30 2914 H 287.77 -0.434713 7.82994 0
M  V30 2915 N 285.273 -1.31445 -0.869486 0
M  V30 2916 C 286.203 -1.21727 -1.99261 0
M  V30 2917 C 287.184 -0.104359 -1.6978 0
M  V30 2918 O 288.369 -0.289038 -1.92037 0
M  V30 2919 C 285.499 -0.924317 -3.34774 0
M  V30 2920 C 284.453 -1.99685 -3.78563 0
M  V30 2921 C 283.779 -1.55658 -5.11541 0
M  V30 2922 C 285.079 -3.41003 -3.95619 0
M  V30 2923 H 286.773 -2.1569 -2.07649 0
M  V30 2924 H 284.319 -1.03839 -0.997675 0
M  V30 2925 H 286.272 -0.842934 -4.12883 0
M  V30 2926 H 284.996 0.0509793 -3.2656 0
M  V30 2927 H 283.655 -2.06813 -3.02694 0
M  V30 2928 H 283.303 -0.569132 -4.9977 0
M  V30 2929 H 283.003 -2.27409 -5.41811 0
M  V30 2930 H 284.527 -1.48928 -5.92159 0
M  V30 2931 H 285.941 -3.36547 -4.64122 0
M  V30 2932 H 284.338 -4.10975 -4.37286 0
M  V30 2933 H 285.408 -3.81754 -2.98985 0
M  V30 2934 N 286.751 1.08385 -1.14413 0
M  V30 2935 C 287.699 2.17406 -0.826888 0
M  V30 2936 C 288.693 1.6827 0.195312 0
M  V30 2937 O 289.899 1.79927 0.0513892 0
M  V30 2938 H 286.274 0.70934 -0.249681 0
M  V30 2939 H 288.245 2.41388 -1.75426 0
M  V30 2940 C 286.994 3.46215 -0.320979 0
M  V30 2941 H 286.317 3.84401 -1.0989 0
M  V30 2942 H 287.757 4.23777 -0.137549 0
M  V30 2943 C 286.216 3.23067 0.955472 0
M  V30 2944 O 286.746 3.4668 2.02918 0
M  V30 2945 N 284.952 2.7661 0.890798 0
M  V30 2946 H 284.499 2.57594 0.0168815 0
M  V30 2947 H 284.457 2.61501 1.74542 0
M  V30 2948 N 288.23 0.939286 1.26551 0
M  V30 2949 C 289.18 0.418284 2.2413 0
M  V30 2950 C 290.164 -0.483935 1.5345 0
M  V30 2951 O 291.356 -0.319489 1.74093 0
M  V30 2952 C 288.485 -0.31709 3.41832 0
M  V30 2953 C 287.571 0.602311 4.19801 0
M  V30 2954 N 287.962 1.72726 4.75394 0
M  V30 2955 C 286.26 0.407534 4.44134 0
M  V30 2956 C 286.961 2.30004 5.34297 0
M  V30 2957 N 285.937 1.58828 5.1988 0
M  V30 2958 H 289.739 1.27705 2.64705 0
M  V30 2959 H 287.253 0.794929 1.41614 0
M  V30 2960 H 289.25 -0.707364 4.10855 0
M  V30 2961 H 287.91 -1.17264 3.02786 0
M  V30 2962 H 288.921 2.10944 4.72994 0
M  V30 2963 H 285.598 -0.406406 4.15517 0
M  V30 2964 H 286.988 3.24778 5.88191 0
M  V30 2965 N 289.708 -1.40897 0.706093 0
M  V30 2966 C 290.936 -2.05373 0.250887 0
M  V30 2967 C 291.351 -1.53172 -1.10381 0
M  V30 2968 O 290.708 -0.684305 -1.69185 0
M  V30 2969 C 290.759 -3.6088 0.211571 0
M  V30 2970 O 290.48 -4.11153 1.51276 0
M  V30 2971 C 291.981 -4.42517 -0.263346 0
M  V30 2972 H 289.201 -0.66115 0.114552 0
M  V30 2973 H 291.745 -1.80479 0.961635 0
M  V30 2974 H 289.9 -3.84777 -0.450073 0
M  V30 2975 H 290.314 -5.05279 1.40689 0
M  V30 2976 H 291.788 -5.51479 -0.239718 0
M  V30 2977 H 292.265 -4.19396 -1.30397 0
M  V30 2978 H 292.871 -4.23708 0.367677 0
M  V30 2979 N 291.186 -0.45159 -1.50991 0
M  V30 2980 C 292.433 0.110074 -2.02201 0
M  V30 2981 C 292.761 1.4146 -1.33489 0
M  V30 2982 O 292.016 1.90617 -0.443125 0
M  V30 2983 C 292.315 0.361728 -3.55565 0
M  V30 2984 C 291.981 -0.858717 -4.42648 0
M  V30 2985 C 290.643 -1.19338 -4.66167 0
M  V30 2986 C 292.995 -1.67221 -4.93646 0
M  V30 2987 C 290.323 -2.34195 -5.37931 0
M  V30 2988 C 292.675 -2.8119 -5.6667 0
M  V30 2989 C 291.339 -3.15094 -5.88449 0
M  V30 2990 H 290.609 0.040279 -0.739904 0
M  V30 2991 H 293.256 -0.601696 -1.81802 0
M  V30 2992 H 291.561 1.15554 -3.74372 0
M  V30 2993 H 293.258 0.80996 -3.92735 0
M  V30 2994 H 289.848 -0.58796 -4.24548 0
M  V30 2995 H 294.032 -1.42686 -4.75347 0
M  V30 2996 H 289.288 -2.6076 -5.53005 0
M  V30 2997 H 293.462 -3.44585 -6.05173 0
M  V30 2998 H 291.089 -4.04204 -6.43835 0
M  V30 2999 N 292.664 1.56529 -0.183458 0
M  V30 3000 C 293.889 2.02064 0.467428 0
M  V30 3001 C 294.314 1.06282 1.55196 0
M  V30 3002 O 293.672 0.0443565 1.81246 0
M  V30 3003 C 293.72 3.46122 1.01153 0
M  V30 3004 O 292.824 3.53437 2.12499 0
M  V30 3005 H 292.165 0.654726 0.110588 0
M  V30 3006 H 294.695 2.02521 -0.290917 0
M  V30 3007 H 294.705 3.85676 1.33108 0
M  V30 3008 H 293.38 4.15331 0.217533 0
M  V30 3009 H 291.957 3.2575 1.81497 0
M  V30 3010 N 294.142 -0.090211 1.57342 0
M  V30 3011 C 295.105 -1.09335 2.01441 0
M  V30 3012 C 296.105 -1.32666 0.908641 0
M  V30 3013 O 297.295 -1.28697 1.174 0
M  V30 3014 C 294.427 -2.44136 2.3793 0
M  V30 3015 H 295.62 -0.713662 2.91285 0
M  V30 3016 H 293.173 -0.335404 1.52659 0
M  V30 3017 H 293.908 -2.86972 1.51055 0
M  V30 3018 H 293.693 -2.28548 3.18603 0
M  V30 3019 H 295.183 -3.16277 2.72688 0
M  V30 3020 N 295.62 -1.53406 -0.361157 0
M  V30 3021 C 296.869 -1.69022 -1.10066 0
M  V30 3022 C 297.182 -0.450838 -1.90333 0
M  V30 3023 O 298.388 -0.487617 -2.67085 0
M  V30 3024 C 296.844 -2.98812 -2.00598 0
M  V30 3025 C 296.452 -4.30027 -1.25621 0
M  V30 3026 C 298.196 -3.23795 -2.74513 0
M  V30 3027 C 296.103 -5.50903 -2.1508 0
M  V30 3028 H 295.033 -0.629776 -0.414606 0
M  V30 3029 H 297.684 -1.79907 -0.361348 0
M  V30 3030 H 296.066 -2.8174 -2.78278 0
M  V30 3031 H 297.24 -4.57745 -0.529739 0
M  V30 3032 H 295.555 -4.11522 -0.635496 0
M  V30 3033 H 298.152 -4.11289 -3.41681 0
M  V30 3034 H 298.495 -2.40045 -3.40123 0
M  V30 3035 H 299.028 -3.41561 -2.03914 0
M  V30 3036 H 295.767 -6.37143 -1.54041 0
M  V30 3037 H 295.287 -5.27459 -2.85565 0
M  V30 3038 H 296.966 -5.85865 -2.74538 0
M  V30 3039 N 297.098 0.621204 -1.44841 0
M  V30 3040 C 298.323 1.41244 -1.51871 0
M  V30 3041 C 298.748 1.87519 -0.147764 0
M  V30 3042 O 298.106 1.59334 0.865 0
M  V30 3043 C 298.154 2.60221 -2.49634 0
M  V30 3044 O 297.258 3.60395 -2.00473 0
M  V30 3045 H 296.599 0.42223 -0.512463 0
M  V30 3046 H 299.129 0.757305 -1.90069 0
M  V30 3047 H 299.139 3.0764 -2.67996 0
M  V30 3048 H 297.814 2.25887 -3.4921 0
M  V30 3049 H 296.391 3.19717 -1.91925 0
M  V30 3050 N 298.576 1.31904 0.862503 0
M  V30 3051 C 299.506 1.22782 1.98612 0
M  V30 3052 C 300.487 0.113362 1.69722 0
M  V30 3053 O 301.672 0.299218 1.91881 0
M  V30 3054 C 298.802 0.942058 3.34279 0
M  V30 3055 C 297.756 2.0169 3.77499 0
M  V30 3056 C 297.082 1.58369 5.10709 0
M  V30 3057 C 298.382 3.43096 3.93805 0
M  V30 3058 H 300.076 2.16788 2.06502 0
M  V30 3059 H 297.622 1.04366 0.992154 0
M  V30 3060 H 299.575 0.864818 4.1243 0
M  V30 3061 H 298.299 -0.0336603 3.26583 0
M  V30 3062 H 296.958 2.08416 3.01593 0
M  V30 3063 H 296.606 0.595628 4.99461 0
M  V30 3064 H 296.306 2.30279 5.40597 0
M  V30 3065 H 297.83 1.52067 5.91361 0
M  V30 3066 H 299.244 3.39003 4.62331 0
M  V30 3067 H 297.641 4.13288 4.35101 0
M  V30 3068 H 298.711 3.83334 2.96957 0
M  V30 3069 N 300.054 -1.07777 1.14986 0
M  V30 3070 C 300.984 -2.16865 0.865557 0
M  V30 3071 C 301.965 -1.69123 -0.182083 0
M  V30 3072 O 303.15 -1.94164 -0.0373815 0
M  V30 3073 C 300.28 -3.45539 0.349313 0
M  V30 3074 C 299.234 -4.06708 1.33313 0
M  V30 3075 C 298.56 -5.30411 0.675918 0
M  V30 3076 C 299.86 -4.47241 2.69764 0
M  V30 3077 H 301.554 -2.40905 1.77778 0
M  V30 3078 H 299.1 -1.15781 0.856203 0
M  V30 3079 H 301.053 -4.21174 0.137983 0
M  V30 3080 H 299.777 -3.21072 -0.598362 0
M  V30 3081 H 298.436 -3.33112 1.53075 0
M  V30 3082 H 298.084 -5.02232 -0.277767 0
M  V30 3083 H 297.784 -5.72293 1.33244 0
M  V30 3084 H 299.308 -6.08755 0.474262 0
M  V30 3085 H 300.722 -5.14025 2.53873 0
M  V30 3086 H 299.119 -5.00062 3.3175 0
M  V30 3087 H 300.189 -3.58818 3.26156 0
M  V30 3088 N 301.532 -0.945985 -1.26051 0
M  V30 3089 C 302.778 -0.597002 -1.93814 0
M  V30 3090 C 303.111 0.862484 -1.73997 0
M  V30 3091 O 302.386 1.61769 -1.07986 0
M  V30 3092 C 302.669 -0.945937 -3.47454 0
M  V30 3093 C 302.522 -2.46052 -3.76535 0
M  V30 3094 C 303.841 -0.464785 -4.37639 0
M  V30 3095 H 300.96 -0.218366 -0.703907 0
M  V30 3096 H 303.602 -1.18107 -1.48831 0
M  V30 3097 H 301.752 -0.448902 -3.85898 0
M  V30 3098 H 303.424 -3.03065 -3.47778 0
M  V30 3099 H 301.667 -2.90194 -3.22444 0
M  V30 3100 H 302.338 -2.65517 -4.83947 0
M  V30 3101 H 304.814 -0.891016 -4.06448 0
M  V30 3102 H 303.69 -0.737712 -5.4392 0
M  V30 3103 H 303.951 0.635274 -4.37512 0
M  V30 3104 N 303.011 1.40521 -0.713556 0
M  V30 3105 C 304.26 2.00155 -0.249192 0
M  V30 3106 C 304.573 1.57224 1.16362 0
M  V30 3107 O 305.779 2.09542 1.72639 0
M  V30 3108 C 304.235 3.5773 -0.3946 0
M  V30 3109 C 303.843 4.09635 -1.81392 0
M  V30 3110 C 305.587 4.24499 0.00907364 0
M  V30 3111 C 303.494 5.59707 -1.91003 0
M  V30 3112 H 302.424 0.74868 -0.0894114 0
M  V30 3113 H 305.075 1.60784 -0.884352 0
M  V30 3114 H 303.457 3.94792 0.30911 0
M  V30 3115 H 304.631 3.83955 -2.54785 0
M  V30 3116 H 302.946 3.55456 -2.16888 0
M  V30 3117 H 305.543 5.34683 -0.0420404 0
M  V30 3118 H 305.886 4.02824 1.05065 0
M  V30 3119 H 306.419 3.92536 -0.645007 0
M  V30 3120 H 303.158 5.86234 -2.93275 0
M  V30 3121 H 302.678 5.87258 -1.22019 0
M  V30 3122 H 304.357 6.24776 -1.6812 0
M  V30 3123 N 304.489 0.459591 1.5075 0
M  V30 3124 C 305.419 -0.330644 2.31147 0
M  V30 3125 C 306.4 -1.00087 1.37538 0
M  V30 3126 O 307.585 -1.00025 1.66459 0
M  V30 3127 C 304.715 -1.41958 3.16962 0
M  V30 3128 C 303.669 -0.871608 4.19031 0
M  V30 3129 C 302.995 -2.05797 4.9351 0
M  V30 3130 C 304.295 0.109251 5.22186 0
M  V30 3131 H 305.989 0.340336 2.97459 0
M  V30 3132 H 303.535 0.165119 1.4305 0
M  V30 3133 H 305.488 -1.9798 3.71997 0
M  V30 3134 H 304.212 -2.11917 2.48513 0
M  V30 3135 H 302.871 -0.333442 3.6508 0
M  V30 3136 H 302.519 -2.74427 4.21544 0
M  V30 3137 H 302.219 -1.6976 5.62544 0
M  V30 3138 H 303.743 -2.62331 5.51375 0
M  V30 3139 H 305.157 -0.361405 5.7216 0
M  V30 3140 H 303.554 0.383316 5.98875 0
M  V30 3141 H 304.624 1.03887 4.73641 0
M  V30 3142 N 305.967 -1.56429 0.191757 0
M  V30 3143 C 307.214 -1.97485 -0.447891 0
M  V30 3144 C 307.542 -1.07852 -1.61859 0
M  V30 3145 O 306.797 -0.116903 -1.95351 0
M  V30 3146 C 307.096 -3.44449 -0.953384 0
M  V30 3147 C 306.762 -4.50781 0.103586 0
M  V30 3148 C 305.424 -4.79584 0.394023 0
M  V30 3149 C 307.776 -5.1471 0.819946 0
M  V30 3150 C 305.104 -5.69607 1.40585 0
M  V30 3151 C 307.456 -6.05827 1.8209 0
M  V30 3152 C 306.12 -6.32987 2.11857 0
M  V30 3153 H 305.39 -0.722648 -0.163895 0
M  V30 3154 H 308.037 -1.89322 0.28802 0
M  V30 3155 H 306.342 -3.49666 -1.76751 0
M  V30 3156 H 308.039 -3.73569 -1.45765 0
M  V30 3157 H 304.629 -4.28394 -0.132951 0
M  V30 3158 H 308.813 -4.92552 0.608789 0
M  V30 3159 H 304.069 -5.88926 1.64243 0
M  V30 3160 H 308.243 -6.54424 2.38123 0
M  V30 3161 H 305.87 -7.02544 2.90407 0
M  V30 3162 N 307.445 0.0818655 -1.57387 0
M  V30 3163 C 308.694 0.781681 -1.85937 0
M  V30 3164 C 309.007 1.79246 -0.782957 0
M  V30 3165 O 310.213 2.54112 -0.955987 0
M  V30 3166 C 308.669 1.44109 -3.29789 0
M  V30 3167 C 308.277 0.469396 -4.45534 0
M  V30 3168 C 310.021 2.12386 -3.67549 0
M  V30 3169 C 307.928 1.13415 -5.80423 0
M  V30 3170 H 306.858 0.295682 -0.693605 0
M  V30 3171 H 309.509 0.0348051 -1.83467 0
M  V30 3172 H 307.891 2.23588 -3.2684 0
M  V30 3173 H 309.065 -0.294856 -4.59856 0
M  V30 3174 H 307.38 -0.108383 -4.16259 0
M  V30 3175 H 309.977 2.62878 -4.65617 0
M  V30 3176 H 310.32 2.91877 -2.96839 0
M  V30 3177 H 310.853 1.39751 -3.72444 0
M  V30 3178 H 307.592 0.379771 -6.54399 0
M  V30 3179 H 307.112 1.8695 -5.69921 0
M  V30 3180 H 308.791 1.65686 -6.25426 0
M  V30 3181 N 308.923 1.53595 0.353017 0
M  V30 3182 C 310.169 1.70638 1.09593 0
M  V30 3183 C 310.502 0.463286 1.88593 0
M  V30 3184 O 309.777 -0.539597 1.86865 0
M  V30 3185 C 310.06 2.96406 2.04489 0
M  V30 3186 C 309.913 4.30901 1.29014 0
M  V30 3187 C 311.232 3.17812 3.0444 0
M  V30 3188 H 308.351 0.620913 0.397034 0
M  V30 3189 H 310.993 1.86254 0.375446 0
M  V30 3190 H 309.143 2.83223 2.65927 0
M  V30 3191 H 310.815 4.55917 0.702638 0
M  V30 3192 H 309.058 4.29741 0.592071 0
M  V30 3193 H 309.729 5.1506 1.98537 0
M  V30 3194 H 312.205 3.30263 2.53112 0
M  V30 3195 H 311.081 4.07223 3.6805 0
M  V30 3196 H 311.342 2.33669 3.75301 0
M  V30 3197 N 310.401 -0.613514 1.45168 0
M  V30 3198 C 311.65 -1.36874 1.4815 0
M  V30 3199 C 311.963 -1.952 0.124982 0
M  V30 3200 O 313.169 -2.71481 0.0324176 0
M  V30 3201 C 311.625 -2.47905 2.60904 0
M  V30 3202 C 311.233 -1.96016 4.02842 0
M  V30 3203 C 312.977 -3.24965 2.73126 0
M  V30 3204 C 310.884 -3.04494 5.06988 0
M  V30 3205 H 309.814 -0.514428 0.551253 0
M  V30 3206 H 312.465 -0.658182 1.7129 0
M  V30 3207 H 310.847 -3.21618 2.31037 0
M  V30 3208 H 312.021 -1.29051 4.4236 0
M  V30 3209 H 310.336 -1.31719 3.95018 0
M  V30 3210 H 312.933 -4.05865 3.48106 0
M  V30 3211 H 313.276 -3.75588 1.79553 0
M  V30 3212 H 313.809 -2.5835 3.0249 0
M  V30 3213 H 310.548 -2.58795 6.0225 0
M  V30 3214 H 310.068 -3.70044 4.72046 0
M  V30 3215 H 311.747 -3.68976 5.31475 0
M  V30 3216 N 311.879 -1.3236 -0.855495 0
M  V30 3217 C 312.809 -1.23833 -1.97958 0
M  V30 3218 C 313.79 -0.122361 -1.69659 0
M  V30 3219 O 314.975 -0.30939 -1.9172 0
M  V30 3220 C 312.105 -0.959772 -3.33775 0
M  V30 3221 C 311.059 -2.03689 -3.76424 0
M  V30 3222 C 310.385 -1.61075 -5.09862 0
M  V30 3223 C 311.685 -3.4518 -3.9198 0
M  V30 3224 H 313.379 -2.1788 -2.0535 0
M  V30 3225 H 310.925 -1.04891 -0.986605 0
M  V30 3226 H 312.878 -0.886678 -4.11966 0
M  V30 3227 H 311.602 0.0163404 -3.26596 0
M  V30 3228 H 310.261 -2.10012 -3.00484 0
M  V30 3229 H 309.909 -0.622107 -4.99138 0
M  V30 3230 H 309.609 -2.33143 -5.39368 0
M  V30 3231 H 311.133 -1.55201 -5.90546 0
M  V30 3232 H 312.547 -3.4145 -4.60526 0
M  V30 3233 H 310.944 -4.1559 -4.32903 0
M  V30 3234 H 312.014 -3.84903 -2.94919 0
M  V30 3235 N 313.357 1.07166 -1.15556 0
M  V30 3236 C 314.605 1.79443 -0.929764 0
M  V30 3237 C 314.926 1.87246 0.544414 0
M  V30 3238 O 314.196 1.37473 1.39564 0
M  V30 3239 H 312.776 0.664625 -0.341003 0
M  V30 3240 H 315.438 1.29499 -1.45657 0
M  V30 3241 H 314.534 2.81832 -1.34079 0
M  V30 3242 N 314.835 0.952656 1.25548 0
M  V30 3243 C 316.082 0.606373 1.93208 0
M  V30 3244 C 316.41 -0.85631 1.74636 0
M  V30 3245 O 315.665 -1.62951 1.08376 0
M  V30 3246 C 315.964 0.908818 3.45652 0
M  V30 3247 C 315.63 2.35722 3.84378 0
M  V30 3248 C 314.292 2.75312 3.9466 0
M  V30 3249 C 316.644 3.29793 4.03591 0
M  V30 3250 C 313.972 4.08047 4.21562 0
M  V30 3251 C 316.324 4.62138 4.31985 0
M  V30 3252 C 314.988 5.01528 4.40484 0
M  V30 3253 H 314.258 0.221888 0.706998 0
M  V30 3254 H 316.905 1.20132 1.49133 0
M  V30 3255 H 315.21 0.231456 3.91116 0
M  V30 3256 H 316.907 0.619498 3.96186 0
M  V30 3257 H 313.497 2.04017 3.76928 0
M  V30 3258 H 317.681 3.00397 3.95064 0
M  V30 3259 H 312.937 4.38212 4.26357 0
M  V30 3260 H 317.111 5.35012 4.45797 0
M  V30 3261 H 314.738 6.04406 4.61083 0
M  V30 3262 N 316.313 -1.40141 0.720998 0
M  V30 3263 C 317.562 -2.0002 0.259804 0
M  V30 3264 C 317.875 -1.57839 -1.15526 0
M  V30 3265 O 319.081 -2.10455 -1.71525 0
M  V30 3266 C 317.537 -3.57516 0.413566 0
M  V30 3267 C 317.145 -4.08667 1.83562 0
M  V30 3268 C 318.889 -4.24498 0.0134387 0
M  V30 3269 C 316.796 -5.58686 1.93968 0
M  V30 3270 H 315.726 -0.748195 0.0933806 0
M  V30 3271 H 318.377 -1.60313 0.892866 0
M  V30 3272 H 316.759 -3.9495 -0.288169 0
M  V30 3273 H 317.933 -3.82598 2.56817 0
M  V30 3274 H 316.248 -3.543 2.1877 0
M  V30 3275 H 318.845 -5.34654 0.0703954 0
M  V30 3276 H 319.188 -4.03375 -1.02927 0
M  V30 3277 H 319.721 -3.92188 0.665815 0
M  V30 3278 H 316.46 -5.8467 2.96379 0
M  V30 3279 H 315.98 -5.86602 1.25131 0
M  V30 3280 H 317.659 -6.23875 1.71431 0
M  V30 3281 N 317.792 -0.46758 -1.50504 0
M  V30 3282 C 318.722 0.318381 -2.31319 0
M  V30 3283 C 319.703 0.993564 -1.38066 0
M  V30 3284 O 320.888 0.991411 -1.66987 0
M  V30 3285 C 318.018 1.40275 -3.17711 0
M  V30 3286 C 316.972 0.849373 -4.19487 0
M  V30 3287 C 316.298 2.03177 -4.94594 0
M  V30 3288 C 317.598 -0.136942 -5.2212 0
M  V30 3289 H 319.292 -0.356106 -2.97275 0
M  V30 3290 H 316.838 -0.172703 -1.42961 0
M  V30 3291 H 318.791 1.96004 -3.73042 0
M  V30 3292 H 317.515 2.10596 -2.49634 0
M  V30 3293 H 316.174 0.314076 -3.65252 0
M  V30 3294 H 315.822 2.72187 -4.22993 0
M  V30 3295 H 315.522 1.66774 -5.63436 0
M  V30 3296 H 317.046 2.59403 -5.52759 0
M  V30 3297 H 318.46 0.331056 -5.72343 0
M  V30 3298 H 316.857 -0.41507 -5.98663 0
M  V30 3299 H 317.927 -1.06398 -4.73083 0
M  V30 3300 N 319.27 1.56325 -0.20005 0
M  V30 3301 C 320.233 2.18084 0.705132 0
M  V30 3302 C 321.233 1.13666 1.1374 0
M  V30 3303 O 322.423 1.39023 1.04968 0
M  V30 3304 C 319.555 2.78689 1.96329 0
M  V30 3305 H 320.748 2.99435 0.167023 0
M  V30 3306 H 318.301 1.56221 0.0495725 0
M  V30 3307 H 319.036 2.0115 2.5438 0
M  V30 3308 H 318.821 3.55133 1.66202 0
M  V30 3309 H 320.311 3.26096 2.60866 0
M  V30 3310 N 320.748 -0.0735177 1.57428 0
M  V30 3311 C 321.68 -1.11423 2.00294 0
M  V30 3312 C 322.693 -1.35084 0.908637 0
M  V30 3313 O 323.882 -1.33355 1.18654 0
M  V30 3314 C 320.982 -2.46548 2.32523 0
M  V30 3315 C 320.155 -2.42867 3.63778 0
M  V30 3316 C 319.214 -3.60087 3.83697 0
M  V30 3317 O 318.24 -3.41595 4.55304 0
M  V30 3318 N 319.442 -4.80372 3.25919 0
M  V30 3319 H 322.207 -0.749206 2.90184 0
M  V30 3320 H 319.768 -0.262195 1.59763 0
M  V30 3321 H 321.76 -3.23607 2.43024 0
M  V30 3322 H 320.33 -2.75059 1.48531 0
M  V30 3323 H 319.55 -1.51206 3.64047 0
M  V30 3324 H 320.838 -2.37506 4.49965 0
M  V30 3325 H 320.236 -4.983 2.67795 0
M  V30 3326 H 318.793 -5.54948 3.41871 0
M  V30 3327 N 322.226 -1.5378 -0.344866 0
M  V30 3328 C 323.637 -1.62428 -0.920552 0
M  V30 3329 C 323.988 -0.504747 -1.89596 0
M  V30 3330 O 323.113 0.365711 -2.13287 0
M  V30 3331 C 323.708 -2.94419 -1.67639 0
M  V30 3332 C 322.267 -3.05333 -2.20111 0
M  V30 3333 C 321.414 -2.57866 -1.01982 0
M  V30 3334 H 324.365 -1.58222 -0.123042 0
M  V30 3335 H 324.386 -2.83384 -2.53917 0
M  V30 3336 H 323.898 -3.7588 -0.966224 0
M  V30 3337 H 321.999 -2.28502 -2.94308 0
M  V30 3338 H 322.112 -4.10778 -2.46573 0
M  V30 3339 H 320.476 -2.13241 -1.39285 0
M  V30 3340 H 321.259 -3.41765 -0.324308 0
M  V30 3341 N 323.704 0.605807 -1.45491 0
M  V30 3342 C 324.654 1.71074 -1.50724 0
M  V30 3343 C 325.638 1.5658 -0.37033 0
M  V30 3344 O 326.83 1.65887 -0.617299 0
M  V30 3345 C 323.959 3.0983 -1.47852 0
M  V30 3346 C 323.045 3.29704 -2.66751 0
M  V30 3347 N 323.436 3.19831 -3.91844 0
M  V30 3348 C 321.734 3.60579 -2.62486 0
M  V30 3349 C 322.435 3.41083 -4.71208 0
M  V30 3350 N 321.411 3.65157 -4.02693 0
M  V30 3351 H 325.213 1.61937 -2.45263 0
M  V30 3352 H 322.727 0.80912 -1.40808 0
M  V30 3353 H 324.724 3.89101 -1.49686 0
M  V30 3354 H 323.384 3.20115 -0.543714 0
M  V30 3355 H 324.395 2.98194 -4.23439 0
M  V30 3356 H 321.072 3.7769 -1.77922 0
M  V30 3357 H 322.462 3.38828 -5.80211 0
M  V30 3358 N 325.182 1.32811 0.848464 0
M  V30 3359 C 326.13 1.22231 1.97895 0
M  V30 3360 C 327.124 0.125749 1.68933 0
M  V30 3361 O 328.33 0.289083 1.77663 0
M  V30 3362 H 324.705 0.379058 0.649476 0
M  V30 3363 H 326.676 2.17828 2.03945 0
M  V30 3364 C 325.425 0.968572 3.33937 0
M  V30 3365 H 324.748 1.80458 3.56756 0
M  V30 3366 H 326.188 0.934808 4.13567 0
M  V30 3367 C 324.647 -0.328628 3.35293 0
M  V30 3368 O 325.177 -1.33848 3.78745 0
M  V30 3369 N 323.383 -0.352788 2.88451 0
M  V30 3370 H 322.93 0.469541 2.53285 0
M  V30 3371 H 322.888 -1.22057 2.89741 0
M  V30 3372 N 326.66 -1.06551 1.16123 0
M  V30 3373 C 327.906 -1.79719 0.952505 0
M  V30 3374 C 328.261 -1.85396 -0.514385 0
M  V30 3375 O 327.554 -1.33263 -1.37665 0
M  V30 3376 C 327.748 -3.23911 1.51052 0
M  V30 3377 C 327.577 -3.32284 3.03013 0
M  V30 3378 C 326.347 -3.42371 3.71632 0
M  V30 3379 C 328.545 -3.22363 4.00732 0
M  V30 3380 N 326.527 -3.39732 5.11327 0
M  V30 3381 C 327.898 -3.26937 5.26794 0
M  V30 3382 C 329.953 -3.0623 3.92591 0
M  V30 3383 C 328.656 -3.17035 6.45663 0
M  V30 3384 C 330.682 -2.97665 5.11028 0
M  V30 3385 C 330.044 -3.02858 6.35969 0
M  V30 3386 H 326.143 -0.670585 0.402293 0
M  V30 3387 H 328.727 -1.27125 1.4747 0
M  V30 3388 H 326.898 -3.74907 1.01484 0
M  V30 3389 H 328.63 -3.85242 1.2398 0
M  V30 3390 H 325.385 -3.47058 3.22254 0
M  V30 3391 H 325.809 -3.41919 5.84312 0
M  V30 3392 H 330.451 -3.01063 2.96852 0
M  V30 3393 H 328.169 -3.2096 7.41627 0
M  V30 3394 H 331.755 -2.86273 5.06497 0
M  V30 3395 H 330.635 -2.96286 7.26075 0
M  V30 3396 N 328.138 -0.959301 -1.25041 0
M  V30 3397 C 329.363 -0.633507 -1.97488 0
M  V30 3398 C 329.788 0.788555 -1.70773 0
M  V30 3399 O 329.146 1.53394 -0.966431 0
M  V30 3400 C 329.194 -0.904057 -3.49083 0
M  V30 3401 O 328.298 0.0147939 -4.12397 0
M  V30 3402 H 327.639 -0.240368 -0.618966 0
M  V30 3403 H 330.169 -1.28717 -1.59038 0
M  V30 3404 H 330.179 -0.832203 -3.99423 0
M  V30 3405 H 328.854 -1.94048 -3.67856 0
M  V30 3406 H 327.431 -0.109664 -3.72739 0
M  V30 3407 N 329.616 1.39756 -0.72842 0
M  V30 3408 C 330.579 2.29012 -0.0927297 0
M  V30 3409 C 331.579 1.45992 0.674025 0
M  V30 3410 O 332.769 1.66749 0.50402 0
M  V30 3411 C 329.901 3.29396 0.878137 0
M  V30 3412 H 331.094 2.86729 -0.879011 0
M  V30 3413 H 328.647 1.48293 -0.493847 0
M  V30 3414 H 329.382 2.76722 1.69101 0
M  V30 3415 H 329.167 3.907 0.331051 0
M  V30 3416 H 330.657 3.96199 1.3197 0
M  V30 3417 N 331.094 0.475555 1.50254 0
M  V30 3418 C 332.371 -0.139685 1.95101 0
M  V30 3419 C 332.751 -1.56555 1.41611 0
M  V30 3420 O 332.099 -2.19956 0.618993 0
M  V30 3421 C 332.309 -0.0784298 3.48912 0
M  V30 3422 C 333.657 -0.265095 4.23772 0
M  V30 3423 O 334.681 -0.154808 3.55863 0
M  V30 3424 O 333.54 -0.488327 5.44314 0
M  V30 3425 H 330.634 -0.109236 0.819754 0
M  V30 3426 H 333.18 0.536276 1.61004 0
M  V30 3427 H 331.952 0.916918 3.80405 0
M  V30 3428 H 331.575 -0.795655 3.89558 0
M  V30 3429 N 332.573 -1.56217 0.208337 0
M  V30 3430 C 333.483 -2.23316 -0.718836 0
M  V30 3431 C 334.499 -1.23648 -1.22422 0
M  V30 3432 O 335.675 -1.56423 -1.26861 0
M  V30 3433 C 332.74 -2.88968 -1.91568 0
M  V30 3434 C 331.801 -4.03943 -1.45357 0
M  V30 3435 C 331.034 -4.66455 -2.59337 0
M  V30 3436 O 331.257 -4.27919 -3.77149 0
M  V30 3437 O 330.191 -5.55686 -2.31293 0
M  V30 3438 H 334.017 -3.03182 -0.177315 0
M  V30 3439 H 331.602 -1.49384 -0.0215402 0
M  V30 3440 H 333.484 -3.30455 -2.61491 0
M  V30 3441 H 332.159 -2.12071 -2.44556 0
M  V30 3442 H 331.066 -3.67052 -0.722746 0
M  V30 3443 H 332.399 -4.82543 -0.970219 0
M  V30 3444 N 334.051 0.0651679 -1.57465 0
M  V30 3445 C 335.299 0.761555 -1.87202 0
M  V30 3446 C 335.62 1.77778 -0.801243 0
M  V30 3447 O 334.89 1.95166 0.16937 0
M  V30 3448 H 333.47 0.284251 -0.690804 0
M  V30 3449 H 336.132 0.0396827 -1.9486 0
M  V30 3450 H 335.228 1.27365 -2.84929 0
M  V30 3451 N 335.529 1.53961 0.336706 0
M  V30 3452 C 336.777 1.71197 1.07405 0
M  V30 3453 C 337.098 0.481475 1.88962 0
M  V30 3454 O 336.368 -0.504585 1.8929 0
M  V30 3455 H 334.948 0.631185 0.399517 0
M  V30 3456 H 337.61 1.91232 0.376323 0
M  V30 3457 H 336.706 2.58587 1.74755 0
M  V30 3458 N 337.007 -0.598083 1.45811 0
M  V30 3459 C 338.254 -1.35681 1.50323 0
M  V30 3460 C 338.582 -1.9393 0.148739 0
M  V30 3461 O 337.837 -1.76094 -0.853787 0
M  V30 3462 C 338.136 -2.51669 2.53766 0
M  V30 3463 C 337.802 -2.11508 3.98215 0
M  V30 3464 C 336.464 -2.0027 4.37545 0
M  V30 3465 C 338.816 -1.80308 4.89018 0
M  V30 3466 C 336.144 -1.56067 5.65562 0
M  V30 3467 C 338.496 -1.37589 6.17456 0
M  V30 3468 C 337.16 -1.24916 6.55708 0
M  V30 3469 H 336.43 -0.496492 0.550069 0
M  V30 3470 H 339.077 -0.675052 1.79207 0
M  V30 3471 H 337.382 -3.25225 2.18486 0
M  V30 3472 H 339.079 -3.09895 2.54492 0
M  V30 3473 H 335.669 -2.21185 3.67117 0
M  V30 3474 H 339.853 -1.87884 4.59362 0
M  V30 3475 H 335.109 -1.44886 5.93985 0
M  V30 3476 H 339.283 -1.12495 6.87254 0
M  V30 3477 H 336.91 -0.904386 7.54801 0
M  V30 3478 N 338.485 -1.33259 -0.841409 0
M  V30 3479 C 339.448 -1.23221 -1.9326 0
M  V30 3480 C 340.448 -0.151895 -1.60081 0
M  V30 3481 O 341.638 -0.403246 -1.69468 0
M  V30 3482 C 338.77 -0.898123 -3.28856 0
M  V30 3483 H 339.963 -2.2021 -2.03587 0
M  V30 3484 H 337.516 -1.17281 -1.03319 0
M  V30 3485 H 338.251 0.0693841 -3.24226 0
M  V30 3486 H 338.036 -1.67934 -3.54317 0
M  V30 3487 H 339.526 -0.852563 -4.08805 0
M  V30 3488 N 339.963 1.05934 -1.16686 0
M  V30 3489 C 341.374 1.60263 -0.957745 0
M  V30 3490 C 341.725 1.89789 0.49745 0
M  V30 3491 O 340.85 1.67401 1.37135 0
M  V30 3492 C 341.445 2.91172 -1.73218 0
M  V30 3493 C 340.004 3.42188 -1.56794 0
M  V30 3494 C 339.151 2.16028 -1.73859 0
M  V30 3495 H 342.102 0.888392 -1.31504 0
M  V30 3496 H 342.123 3.60744 -1.21014 0
M  V30 3497 H 341.635 2.6965 -2.79124 0
M  V30 3498 H 339.736 3.68762 -0.533437 0
M  V30 3499 H 339.849 4.17273 -2.35414 0
M  V30 3500 H 338.213 2.26426 -1.16633 0
M  V30 3501 H 338.996 1.96985 -2.81161 0
M  V30 3502 N 341.441 0.965919 1.2453 0
M  V30 3503 C 342.688 0.626831 1.92554 0
M  V30 3504 C 343.016 -0.837739 1.75534 0
M  V30 3505 O 342.271 -1.61793 1.10098 0
M  V30 3506 C 342.57 0.945428 3.44669 0
M  V30 3507 C 342.236 2.39785 3.81856 0
M  V30 3508 C 340.898 2.79483 3.91718 0
M  V30 3509 C 343.25 3.34055 4.00071 0
M  V30 3510 C 340.578 4.12496 4.1721 0
M  V30 3511 C 342.93 4.66694 4.27059 0
M  V30 3512 C 341.594 5.06172 4.3514 0
M  V30 3513 H 340.864 0.229374 0.704605 0
M  V30 3514 H 343.511 1.21707 1.4785 0
M  V30 3515 H 341.816 0.272926 3.90848 0
M  V30 3516 H 343.513 0.661484 3.95507 0
M  V30 3517 H 340.103 2.08003 3.74743 0
M  V30 3518 H 344.287 3.04571 3.91855 0
M  V30 3519 H 339.543 4.42709 4.21685 0
M  V30 3520 H 343.717 5.3971 4.40097 0
M  V30 3521 H 341.344 6.09262 4.54646 0
M  V30 3522 N 342.919 -1.39368 0.735821 0
M  V30 3523 C 344.167 -2.00101 0.283562 0
M  V30 3524 C 344.488 -1.5868 -1.13338 0
M  V30 3525 O 343.758 -0.835423 -1.77193 0
M  V30 3526 H 342.338 -0.740024 0.101851 0
M  V30 3527 H 345 -1.70404 0.945962 0
M  V30 3528 H 344.096 -3.10323 0.332604 0
M  V30 3529 N 344.397 -0.483516 -1.5 0
M  V30 3530 C 345.644 0.0671597 -2.02389 0
M  V30 3531 C 345.972 1.38597 -1.36459 0
M  V30 3532 O 345.227 1.89634 -0.483458 0
M  V30 3533 C 345.526 0.286226 -3.56252 0
M  V30 3534 C 345.192 -0.952416 -4.40726 0
M  V30 3535 C 343.854 -1.29199 -4.63531 0
M  V30 3536 C 346.206 -1.77655 -4.89988 0
M  V30 3537 C 343.534 -2.45553 -5.32842 0
M  V30 3538 C 345.886 -2.93147 -5.60578 0
M  V30 3539 C 344.55 -3.27505 -5.81633 0
M  V30 3540 H 343.82 0.0245755 -0.740592 0
M  V30 3541 H 346.467 -0.640124 -1.80485 0
M  V30 3542 H 344.772 1.07587 -3.76739 0
M  V30 3543 H 346.469 0.726473 -3.94365 0
M  V30 3544 H 343.059 -0.677881 -4.23205 0
M  V30 3545 H 347.243 -1.52737 -4.72213 0
M  V30 3546 H 342.499 -2.72431 -5.47349 0
M  V30 3547 H 346.673 -3.57344 -5.97727 0
M  V30 3548 H 344.3 -4.1777 -6.35116 0
M  V30 3549 N 345.875 1.56104 -0.216619 0
M  V30 3550 C 347.1 2.0301 0.424462 0
M  V30 3551 C 347.525 1.0955 1.52907 0
M  V30 3552 O 346.883 0.0827914 1.81111 0
M  V30 3553 C 346.931 3.4819 0.937883 0
M  V30 3554 O 346.035 3.57865 2.04955 0
M  V30 3555 H 345.376 0.656925 0.0966755 0
M  V30 3556 H 347.906 2.01859 -0.33381 0
M  V30 3557 H 347.916 3.88413 1.24897 0
M  V30 3558 H 346.591 4.15699 0.129387 0
M  V30 3559 H 345.168 3.29527 1.74546 0
M  V30 3560 N 347.353 -0.0568162 1.57498 0
M  V30 3561 C 348.601 -0.751617 1.87604 0
M  V30 3562 C 348.922 -1.77351 0.81066 0
M  V30 3563 O 348.192 -1.95254 -0.159018 0
M  V30 3564 H 346.772 -0.280583 0.692302 0
M  V30 3565 H 349.434 -0.0293483 1.94878 0
M  V30 3566 H 348.53 -1.25852 2.856 0
M  V30 3567 N 348.832 -1.54138 -0.328536 0
M  V30 3568 C 350.078 -1.7236 -1.06865 0
M  V30 3569 C 350.411 -0.493231 -1.87832 0
M  V30 3570 O 349.686 0.5098 -1.877 0
M  V30 3571 C 349.969 -2.99621 -1.99747 0
M  V30 3572 C 349.822 -4.32899 -1.22143 0
M  V30 3573 C 351.141 -3.22615 -2.99345 0
M  V30 3574 H 348.26 -0.627151 -0.387105 0
M  V30 3575 H 350.902 -1.86827 -0.345767 0
M  V30 3576 H 349.052 -2.87418 -2.61387 0
M  V30 3577 H 350.724 -4.56978 -0.630017 0
M  V30 3578 H 348.967 -4.30628 -0.523628 0
M  V30 3579 H 349.638 -5.18154 -1.90318 0
M  V30 3580 H 352.114 -3.34248 -2.47826 0
M  V30 3581 H 350.99 -4.13027 -3.61524 0
M  V30 3582 H 351.251 -2.3961 -3.71536 0
M  V30 3583 N 350.31 0.590341 -1.46126 0
M  V30 3584 C 351.243 1.71434 -1.50617 0
M  V30 3585 C 352.221 1.58543 -0.360948 0
M  V30 3586 O 353.405 1.79865 -0.563985 0
M  V30 3587 C 350.532 3.09422 -1.37753 0
M  V30 3588 C 349.578 3.40854 -2.5636 0
M  V30 3589 S 350.411 3.33773 -4.18755 0
M  V30 3590 C 351.567 4.74312 -4.08386 0
M  V30 3591 H 351.8 1.67364 -2.45717 0
M  V30 3592 H 349.333 0.76845 -1.33919 0
M  V30 3593 H 351.291 3.8903 -1.31018 0
M  V30 3594 H 349.952 3.10989 -0.440949 0
M  V30 3595 H 349.145 4.41368 -2.43332 0
M  V30 3596 H 348.747 2.68798 -2.60046 0
M  V30 3597 H 351.039 5.64522 -3.74595 0
M  V30 3598 H 351.982 4.92397 -5.08872 0
M  V30 3599 H 352.39 4.50803 -3.3976 0
M  V30 3600 N 351.788 1.33704 0.83433 0
M  V30 3601 C 352.751 1.24244 1.92603 0
M  V30 3602 C 353.751 0.160383 1.59998 0
M  V30 3603 O 354.941 0.412228 1.69252 0
M  V30 3604 C 352.073 0.91555 3.28376 0
M  V30 3605 H 353.266 2.21287 2.02416 0
M  V30 3606 H 350.819 1.17827 1.02696 0
M  V30 3607 H 351.554 -0.0521886 3.24258 0
M  V30 3608 H 351.339 1.69811 3.53422 0
M  V30 3609 H 352.829 0.874231 4.08347 0
M  V30 3610 N 353.266 -1.05314 1.17247 0
M  V30 3611 C 354.514 -1.77941 0.958194 0
M  V30 3612 C 354.835 -1.88089 -0.514556 0
M  V30 3613 O 354.105 -1.39676 -1.37359 0
M  V30 3614 H 352.685 -0.659116 0.351533 0
M  V30 3615 H 355.347 -1.27166 1.47699 0
M  V30 3616 H 354.443 -2.79663 1.38546 0
M  V30 3617 N 354.744 -0.972509 -1.24016 0
M  V30 3618 C 355.972 -0.654803 -1.96265 0
M  V30 3619 C 356.387 0.776708 -1.72083 0
M  V30 3620 O 355.744 1.52171 -1.00748 0
M  V30 3621 C 355.795 -0.92592 -3.49441 0
M  V30 3622 O 355.516 -2.30116 -3.72798 0
M  V30 3623 C 357.017 -0.623068 -4.38899 0
M  V30 3624 H 354.237 -0.243907 -0.6251 0
M  V30 3625 H 356.781 -1.30175 -1.57717 0
M  V30 3626 H 354.936 -0.325108 -3.86033 0
M  V30 3627 H 355.35 -2.38483 -4.67147 0
M  V30 3628 H 356.824 -0.863189 -5.45209 0
M  V30 3629 H 357.301 0.442754 -4.36963 0
M  V30 3630 H 357.907 -1.204 -4.07902 0
M  V30 3631 N 356.222 1.38976 -0.743202 0
M  V30 3632 C 357.185 2.28901 -0.117014 0
M  V30 3633 C 358.185 1.46698 0.658503 0
M  V30 3634 O 359.375 1.67274 0.486305 0
M  V30 3635 C 356.507 3.30309 0.84315 0
M  V30 3636 H 357.7 2.8578 -0.909373 0
M  V30 3637 H 355.253 1.47761 -0.509547 0
M  V30 3638 H 355.988 2.785 1.66157 0
M  V30 3639 H 355.773 3.91029 0.289594 0
M  V30 3640 H 357.263 3.97577 1.2776 0
M  V30 3641 N 357.7 0.491464 1.49741 0
M  V30 3642 C 358.925 -0.0557177 2.07325 0
M  V30 3643 C 359.35 -1.30925 1.35056 0
M  V30 3644 O 358.708 -1.76733 0.404365 0
M  V30 3645 C 358.756 -0.302074 3.59333 0
M  V30 3646 O 357.86 -1.37868 3.88672 0
M  V30 3647 H 357.201 0.0219956 0.663636 0
M  V30 3648 H 359.731 0.688352 1.92673 0
M  V30 3649 H 359.741 -0.536464 4.04458 0
M  V30 3650 H 358.416 0.61383 4.11345 0
M  V30 3651 H 356.993 -1.12999 3.55367 0
M  V30 3652 N 359.178 -1.55987 0.224894 0
M  V30 3653 C 360.418 -2.00293 -0.407706 0
M  V30 3654 C 360.782 -1.1093 -1.56711 0
M  V30 3655 O 361.983 -1.44597 -2.26595 0
M  V30 3656 C 360.254 -3.47675 -0.82805 0
M  V30 3657 S 361.813 -4.14 -1.45429 0
M  V30 3658 H 358.631 -0.699152 -0.129256 0
M  V30 3659 H 361.233 -1.92609 0.334967 0
M  V30 3660 H 359.937 -4.10392 0.0253964 0
M  V30 3661 H 359.468 -3.59239 -1.60345 0
M  V30 3662 H 361.483 -4.13465 -2.74337 0
M  V30 3663 N 360.656 0.0484629 -1.57525 0
M  V30 3664 C 361.903 0.743125 -1.88372 0
M  V30 3665 C 362.231 1.76383 -0.819715 0
M  V30 3666 O 361.486 1.94855 0.181659 0
M  V30 3667 C 361.785 1.46632 -3.25935 0
M  V30 3668 C 361.451 0.583427 -4.4711 0
M  V30 3669 C 360.113 0.340191 -4.79996 0
M  V30 3670 C 362.465 -0.0273345 -5.21193 0
M  V30 3671 C 359.793 -0.522903 -5.84365 0
M  V30 3672 C 362.145 -0.878017 -6.26477 0
M  V30 3673 C 360.809 -1.1309 -6.5785 0
M  V30 3674 H 360.079 0.271929 -0.689301 0
M  V30 3675 H 362.726 0.00336166 -1.915 0
M  V30 3676 H 361.031 2.2789 -3.18706 0
M  V30 3677 H 362.728 2.00902 -3.47044 0
M  V30 3678 H 359.318 0.783151 -4.21384 0
M  V30 3679 H 363.502 0.147654 -4.9608 0
M  V30 3680 H 358.758 -0.727335 -6.07058 0
M  V30 3681 H 362.932 -1.35789 -6.83033 0
M  V30 3682 H 360.559 -1.80144 -7.38547 0
M  V30 3683 N 362.134 1.5431 0.320358 0
M  V30 3684 C 363.364 1.7638 1.07582 0
M  V30 3685 C 363.772 0.513944 1.82086 0
M  V30 3686 O 363.115 -0.525123 1.76035 0
M  V30 3687 C 363.177 2.9055 2.1171 0
M  V30 3688 C 362.841 4.2934 1.56575 0
M  V30 3689 C 363.838 5.10077 1.00586 0
M  V30 3690 C 361.523 4.75893 1.60722 0
M  V30 3691 C 363.517 6.35477 0.494756 0
M  V30 3692 C 361.204 6.0126 1.09224 0
M  V30 3693 C 362.202 6.80886 0.53696 0
M  V30 3694 O 361.89 8.03894 0.0297371 0
M  V30 3695 H 361.622 0.592369 0.325692 0
M  V30 3696 H 364.176 2.02019 0.37116 0
M  V30 3697 H 362.406 2.60489 2.85801 0
M  V30 3698 H 364.095 3.00373 2.73003 0
M  V30 3699 H 364.861 4.75265 0.966869 0
M  V30 3700 H 360.74 4.13957 2.02882 0
M  V30 3701 H 364.284 6.97574 0.0606842 0
M  V30 3702 H 360.181 6.35562 1.12831 0
M  V30 3703 H 360.949 8.18372 0.14486 0
M  V30 3704 N 363.613 -0.582584 1.46437 0
M  V30 3705 C 364.576 -1.67366 1.56592 0
M  V30 3706 C 365.576 -1.54575 0.443072 0
M  V30 3707 O 366.766 -1.59191 0.707381 0
M  V30 3708 C 363.898 -3.06791 1.48634 0
M  V30 3709 H 365.091 -1.5972 2.5383 0
M  V30 3710 H 362.644 -0.800432 1.34249 0
M  V30 3711 H 363.379 -3.19993 0.526763 0
M  V30 3712 H 363.164 -3.17484 2.30101 0
M  V30 3713 H 364.654 -3.86218 1.58826 0
M  V30 3714 N 365.091 -1.34144 -0.827227 0
M  V30 3715 C 366.338 -1.26258 -1.58319 0
M  V30 3716 C 366.666 0.168595 -1.93768 0
M  V30 3717 O 365.921 1.12877 -1.59866 0
M  V30 3718 C 366.22 -2.09464 -2.89585 0
M  V30 3719 C 365.886 -3.58521 -2.73448 0
M  V30 3720 C 364.548 -3.99155 -2.68754 0
M  V30 3721 C 366.9 -4.53189 -2.57428 0
M  V30 3722 C 364.228 -5.32656 -2.45957 0
M  V30 3723 C 366.58 -5.86864 -2.36163 0
M  V30 3724 C 365.244 -6.26667 -2.29879 0
M  V30 3725 H 364.514 -0.462013 -0.579332 0
M  V30 3726 H 367.161 -1.65845 -0.95748 0
M  V30 3727 H 365.466 -1.62692 -3.56425 0
M  V30 3728 H 367.163 -2.00712 -3.47154 0
M  V30 3729 H 363.753 -3.26264 -2.77939 0
M  V30 3730 H 367.937 -4.22696 -2.60081 0
M  V30 3731 H 363.193 -5.62519 -2.39546 0
M  V30 3732 H 367.367 -6.59813 -2.22754 0
M  V30 3733 H 364.994 -7.30049 -2.11975 0
M  V30 3734 N 366.569 1.04691 -1.17803 0
M  V30 3735 C 367.815 1.78045 -0.970969 0
M  V30 3736 C 368.148 1.87686 0.498751 0
M  V30 3737 O 367.423 1.38035 1.37027 0
M  V30 3738 C 367.706 3.2166 -1.61884 0
M  V30 3739 C 367.559 3.20001 -3.161 0
M  V30 3740 C 368.878 4.1962 -1.3269 0
M  V30 3741 H 365.997 0.64633 -0.354155 0
M  V30 3742 H 368.639 1.22333 -1.45378 0
M  V30 3743 H 366.789 3.69232 -1.20831 0
M  V30 3744 H 368.461 2.80467 -3.66246 0
M  V30 3745 H 366.704 2.58203 -3.48588 0
M  V30 3746 H 367.375 4.21386 -3.56564 0
M  V30 3747 H 369.851 3.80567 -1.68249 0
M  V30 3748 H 368.727 5.18339 -1.80599 0
M  V30 3749 H 368.988 4.414 -0.248622 0
M  V30 3750 N 368.047 0.979072 1.23499 0
M  V30 3751 C 369.295 0.645941 1.91499 0
M  V30 3752 C 369.616 -0.822948 1.76784 0
M  V30 3753 O 368.886 -1.58854 1.14639 0
M  V30 3754 H 367.466 0.235919 0.708767 0
M  V30 3755 H 370.128 1.2426 1.50152 0
M  V30 3756 H 369.224 0.896411 2.9895 0
M  V30 3757 N 369.525 -1.3858 0.750561 0
M  V30 3758 C 370.772 -2.00184 0.305373 0
M  V30 3759 C 371.1 -1.59575 -1.11203 0
M  V30 3760 O 370.355 -0.823236 -1.77542 0
M  V30 3761 C 370.654 -3.55455 0.372373 0
M  V30 3762 C 370.32 -4.15765 1.745 0
M  V30 3763 C 368.982 -4.31951 2.12065 0
M  V30 3764 C 371.334 -4.49067 2.64553 0
M  V30 3765 C 368.662 -4.78734 3.39162 0
M  V30 3766 C 371.014 -4.97265 3.91038 0
M  V30 3767 C 369.678 -5.11658 4.28676 0
M  V30 3768 H 368.948 -0.732526 0.111744 0
M  V30 3769 H 371.595 -1.65673 0.960451 0
M  V30 3770 H 369.9 -3.90084 -0.366272 0
M  V30 3771 H 371.597 -4.00999 0.00953918 0
M  V30 3772 H 368.187 -4.03579 1.44297 0
M  V30 3773 H 372.371 -4.36166 2.36796 0
M  V30 3774 H 367.627 -4.88062 3.68246 0
M  V30 3775 H 371.801 -5.22003 4.60962 0
M  V30 3776 H 369.428 -5.47668 5.27222 0
M  V30 3777 N 371.003 -0.499398 -1.49478 0
M  V30 3778 C 372.28 0.108629 -1.95298 0
M  V30 3779 C 372.66 1.54282 -1.44084 0
M  V30 3780 O 372.008 2.18944 -0.653908 0
M  V30 3781 C 372.218 0.0229111 -3.48992 0
M  V30 3782 C 373.566 0.197643 -4.2414 0
M  V30 3783 O 374.59 0.0981735 -3.56065 0
M  V30 3784 O 373.449 0.401669 -5.45022 0
M  V30 3785 H 370.543 0.096181 -0.821388 0
M  V30 3786 H 373.089 -0.561822 -1.6013 0
M  V30 3787 H 371.861 -0.977321 -3.78899 0
M  V30 3788 H 371.484 0.733579 -3.90774 0
M  V30 3789 N 372.481 1.55866 -0.233164 0
M  V30 3790 C 373.727 1.98897 0.395959 0
M  V30 3791 C 374.06 1.12091 1.58585 0
M  V30 3792 O 373.335 0.181182 1.93654 0
M  V30 3793 C 373.618 3.50658 0.819224 0
M  V30 3794 C 373.471 4.48233 -0.375109 0
M  V30 3795 C 374.79 4.07135 1.67121 0
M  V30 3796 H 371.909 0.723102 0.142451 0
M  V30 3797 H 374.551 1.87082 -0.331725 0
M  V30 3798 H 372.701 3.60857 1.43925 0
M  V30 3799 H 374.373 4.50031 -1.01341 0
M  V30 3800 H 372.616 4.21624 -1.02058 0
M  V30 3801 H 373.287 5.51988 -0.0358328 0
M  V30 3802 H 375.763 3.99952 1.14795 0
M  V30 3803 H 374.639 5.13615 1.93625 0
M  V30 3804 H 374.9 3.54736 2.63846 0
M  V30 3805 N 373.959 -0.0401083 1.57549 0
M  V30 3806 C 375.208 -0.732108 1.87944 0
M  V30 3807 C 375.521 -1.77107 0.830206 0
M  V30 3808 O 376.727 -2.51488 1.02302 0
M  V30 3809 C 375.183 -1.35315 3.33494 0
M  V30 3810 C 374.791 -0.351105 4.46622 0
M  V30 3811 C 376.535 -2.02566 3.73051 0
M  V30 3812 C 374.442 -0.979859 5.83226 0
M  V30 3813 H 373.372 -0.277188 0.701201 0
M  V30 3814 H 376.023 0.0138501 1.83495 0
M  V30 3815 H 374.405 -2.14844 3.32653 0
M  V30 3816 H 375.579 0.416674 4.58912 0
M  V30 3817 H 373.894 0.218708 4.15825 0
M  V30 3818 H 376.491 -2.50441 4.72423 0
M  V30 3819 H 376.834 -2.83904 3.04474 0
M  V30 3820 H 377.367 -1.29827 3.76018 0
M  V30 3821 H 374.106 -0.206135 6.55176 0
M  V30 3822 H 373.626 -1.71774 5.74677 0
M  V30 3823 H 375.305 -1.49046 6.29599 0
M  V30 3824 N 375.437 -1.54477 -0.31217 0
M  V30 3825 C 376.4 -1.83923 -1.36766 0
M  V30 3826 C 377.4 -0.711563 -1.44199 0
M  V30 3827 O 378.59 -0.979866 -1.44029 0
M  V30 3828 C 375.722 -2.0095 -2.75376 0
M  V30 3829 H 376.915 -2.78239 -1.11906 0
M  V30 3830 H 374.468 -1.46369 -0.548257 0
M  V30 3831 H 375.203 -1.08883 -3.05475 0
M  V30 3832 H 374.988 -2.83018 -2.71373 0
M  V30 3833 H 376.478 -2.2514 -3.51713 0
M  V30 3834 N 376.915 0.57481 -1.46744 0
M  V30 3835 C 377.878 1.66533 -1.57478 0
M  V30 3836 C 378.878 1.54338 -0.451263 0
M  V30 3837 O 380.068 1.58814 -0.715813 0
M  V30 3838 C 377.2 3.05999 -1.50259 0
M  V30 3839 H 378.393 1.58372 -2.54673 0
M  V30 3840 H 375.946 0.793301 -1.34672 0
M  V30 3841 H 376.681 3.19709 -0.543725 0
M  V30 3842 H 376.466 3.16259 -2.31781 0
M  V30 3843 H 377.956 3.8537 -1.60872 0
M  V30 3844 N 378.394 1.34581 0.820102 0
M  V30 3845 C 379.619 1.30333 1.61332 0
M  V30 3846 C 380.044 -0.119339 1.87721 0
M  V30 3847 O 379.402 -1.08197 1.45475 0
M  V30 3848 C 379.45 2.10258 2.92957 0
M  V30 3849 O 378.554 1.47404 3.85157 0
M  V30 3850 H 377.895 0.447488 0.490561 0
M  V30 3851 H 380.425 1.77425 1.01889 0
M  V30 3852 H 380.435 2.21718 3.42498 0
M  V30 3853 H 379.11 3.13693 2.73074 0
M  V30 3854 H 377.687 1.44703 3.43679 0
M  V30 3855 N 379.872 -1.04064 1.18357 0
M  V30 3856 C 381.097 -1.81454 1.00445 0
M  V30 3857 C 381.522 -1.82823 -0.442423 0
M  V30 3858 O 380.88 -1.24555 -1.31741 0
M  V30 3859 C 380.928 -3.24925 1.56384 0
M  V30 3860 O 380.032 -4.04856 0.785209 0
M  V30 3861 H 379.373 -0.560604 0.355835 0
M  V30 3862 H 381.903 -1.31059 1.57114 0
M  V30 3863 H 381.913 -3.75702 1.59097 0
M  V30 3864 H 380.588 -3.23244 2.61699 0
M  V30 3865 H 379.165 -3.63537 0.830399 0
M  V30 3866 N 381.35 -0.985608 -1.22978 0
M  V30 3867 C 382.26 -0.538548 -2.28335 0
M  V30 3868 C 383.276 0.409163 -1.69121 0
M  V30 3869 O 384.452 0.277797 -1.99475 0
M  V30 3870 C 381.517 0.146867 -3.46389 0
M  V30 3871 C 380.578 -0.842896 -4.20944 0
M  V30 3872 C 379.811 -0.190095 -5.33361 0
M  V30 3873 O 380.034 1.01767 -5.61248 0
M  V30 3874 O 378.968 -0.891289 -5.95264 0
M  V30 3875 H 382.794 -1.41487 -2.68729 0
M  V30 3876 H 380.379 -0.753495 -1.29007 0
M  V30 3877 H 382.261 0.531125 -4.1804 0
M  V30 3878 H 380.936 0.997871 -3.07935 0
M  V30 3879 H 379.843 -1.27795 -3.51595 0
M  V30 3880 H 381.176 -1.66287 -4.6326 0
M  V30 3881 N 382.828 1.3818 -0.7579 0
M  V30 3882 C 383.738 2.3421 -0.135247 0
M  V30 3883 C 384.754 1.59487 0.695683 0
M  V30 3884 O 385.93 1.91657 0.618832 0
M  V30 3885 C 382.995 3.3862 0.744139 0
M  V30 3886 C 382.056 4.2918 -0.101658 0
M  V30 3887 C 381.289 5.28603 0.735851 0
M  V30 3888 O 381.512 5.35166 1.97366 0
M  V30 3889 O 380.446 6.01707 0.152372 0
M  V30 3890 H 384.272 2.8916 -0.928436 0
M  V30 3891 H 381.857 1.40101 -0.518855 0
M  V30 3892 H 383.739 4.02539 1.2466 0
M  V30 3893 H 382.414 2.86019 1.51575 0
M  V30 3894 H 381.321 3.68407 -0.650167 0
M  V30 3895 H 382.654 4.85048 -0.836024 0
M  V30 3896 N 384.306 0.507319 1.49211 0
M  V30 3897 C 385.269 -0.256763 2.27757 0
M  V30 3898 C 386.269 -0.888287 1.34038 0
M  V30 3899 O 387.459 -0.751841 1.5714 0
M  V30 3900 C 384.591 -1.36905 3.12202 0
M  V30 3901 H 385.784 0.432557 2.96764 0
M  V30 3902 H 383.337 0.262488 1.5408 0
M  V30 3903 H 384.072 -2.09233 2.47775 0
M  V30 3904 H 383.857 -0.921599 3.81115 0
M  V30 3905 H 385.347 -1.9071 3.7151 0
M  V30 3906 N 385.784 -1.5574 0.241426 0
M  V30 3907 C 386.716 -2.18469 -0.693091 0
M  V30 3908 C 387.729 -1.15942 -1.14286 0
M  V30 3909 O 388.918 -1.42832 -1.07058 0
M  V30 3910 C 386.018 -2.7696 -1.95311 0
M  V30 3911 C 385.191 -4.04853 -1.65568 0
M  V30 3912 C 384.25 -4.47715 -2.76474 0
M  V30 3913 O 383.276 -5.14205 -2.44094 0
M  V30 3914 N 384.478 -4.15044 -4.05855 0
M  V30 3915 H 387.243 -2.99292 -0.156388 0
M  V30 3916 H 384.804 -1.61784 0.0611752 0
M  V30 3917 H 386.796 -3.02594 -2.68736 0
M  V30 3918 H 385.366 -2.00326 -2.39975 0
M  V30 3919 H 384.586 -3.86865 -0.756886 0
M  V30 3920 H 385.874 -4.88246 -1.43153 0
M  V30 3921 H 385.272 -3.61654 -4.34998 0
M  V30 3922 H 383.829 -4.45526 -4.75762 0
M  V30 3923 N 387.262 0.0317525 -1.57568 0
M  V30 3924 C 388.21 1.05165 -2.07468 0
M  V30 3925 C 389.204 1.3761 -0.98792 0
M  V30 3926 O 390.41 1.36546 -1.17282 0
M  V30 3927 H 386.785 0.35666 -0.66204 0
M  V30 3928 H 388.756 0.604958 -2.92203 0
M  V30 3929 C 387.505 2.34488 -2.56731 0
M  V30 3930 H 386.828 2.10383 -3.39969 0
M  V30 3931 H 388.268 3.04203 -2.95358 0
M  V30 3932 C 386.727 3.03266 -1.46736 0
M  V30 3933 O 387.257 3.92988 -0.832069 0
M  V30 3934 N 385.463 2.6455 -1.20256 0
M  V30 3935 H 385.01 1.91674 -1.72102 0
M  V30 3936 H 384.968 3.10886 -0.468737 0
M  V30 3937 N 388.74 1.54641 0.303973 0
M  V30 3938 C 390.151 1.64811 0.877163 0
M  V30 3939 C 390.502 0.554838 1.88191 0
M  V30 3940 O 389.627 -0.309033 2.14182 0
M  V30 3941 C 390.222 2.9876 1.59775 0
M  V30 3942 C 388.781 3.11061 2.11938 0
M  V30 3943 C 387.928 2.60479 0.951097 0
M  V30 3944 H 390.879 1.58493 0.0810486 0
M  V30 3945 H 390.9 2.90017 2.46314 0
M  V30 3946 H 390.412 3.7831 0.866226 0
M  V30 3947 H 388.513 2.36225 2.88146 0
M  V30 3948 H 388.626 4.17171 2.35595 0
M  V30 3949 H 386.99 2.16859 1.33583 0
M  V30 3950 H 387.773 3.42504 0.233581 0
M  V30 3951 N 390.218 -0.567019 1.47046 0
M  V30 3952 C 391.634 -0.891975 1.32348 0
M  V30 3953 C 391.834 -1.99154 0.306616 0
M  V30 3954 O 390.89 -2.50883 -0.28532 0
M  V30 3955 C 392.203 -1.29449 2.7141 0
M  V30 3956 C 393.751 -1.40646 2.79621 0
M  V30 3957 C 394.226 -1.84257 4.19301 0
M  V30 3958 N 395.717 -1.91424 4.21795 0
M  V30 3959 C 396.452 -2.26476 5.26779 0
M  V30 3960 N 395.948 -2.60211 6.42077 0
M  V30 3961 N 397.741 -2.27166 5.14152 0
M  V30 3962 H 389.892 0.159074 2.11803 0
M  V30 3963 H 392.155 0.00849752 0.947962 0
M  V30 3964 H 391.861 -0.560448 3.47206 0
M  V30 3965 H 391.735 -2.25273 3.02542 0
M  V30 3966 H 394.122 -2.13133 2.04104 0
M  V30 3967 H 394.203 -0.430339 2.52154 0
M  V30 3968 H 393.847 -1.12343 4.95319 0
M  V30 3969 H 393.777 -2.82855 4.44185 0
M  V30 3970 H 396.268 -1.6778 3.38612 0
M  V30 3971 H 396.581 -2.85956 7.17948 0
M  V30 3972 H 394.926 -2.57813 6.45413 0
M  V30 3973 H 398.117 -2.00244 4.23107 0
M  V30 3974 H 398.29 -2.54154 5.96079 0
M  V30 3975 N 391.696 -1.35014 -0.812953 0
M  V30 3976 C 393.112 -1.14914 -1.10757 0
M  V30 3977 C 393.312 0.0426818 -2.01455 0
M  V30 3978 O 392.368 0.715212 -2.42159 0
M  V30 3979 C 393.681 -2.44911 -1.74468 0
M  V30 3980 C 395.229 -2.5106 -1.86917 0
M  V30 3981 C 395.704 -3.81085 -2.54044 0
M  V30 3982 N 397.195 -3.82301 -2.61535 0
M  V30 3983 C 397.93 -4.79634 -3.14227 0
M  V30 3984 N 397.426 -5.87353 -3.67407 0
M  V30 3985 N 399.219 -4.67078 -3.12721 0
M  V30 3986 H 391.37 -2.1136 -0.20989 0
M  V30 3987 H 393.633 -0.935128 -0.155692 0
M  V30 3988 H 393.339 -3.32267 -1.15289 0
M  V30 3989 H 393.213 -2.58989 -2.74234 0
M  V30 3990 H 395.6 -1.64137 -2.45241 0
M  V30 3991 H 395.681 -2.40901 -0.860242 0
M  V30 3992 H 395.325 -4.68402 -1.96372 0
M  V30 3993 H 395.255 -3.88529 -3.55461 0
M  V30 3994 H 397.746 -3.04465 -2.23851 0
M  V30 3995 H 398.059 -6.57624 -4.05894 0
M  V30 3996 H 396.404 -5.91054 -3.65623 0
M  V30 3997 H 399.595 -3.82067 -2.70449 0
M  V30 3998 H 399.768 -5.43098 -3.53481 0
M  V30 3999 N 393.175 1.03435 -1.18907 0
M  V30 4000 C 394.4 1.80919 -1.01406 0
M  V30 4001 C 394.825 1.83055 0.432721 0
M  V30 4002 O 394.183 1.25252 1.31079 0
M  V30 4003 C 394.231 3.24091 -1.58105 0
M  V30 4004 O 393.335 4.04434 -0.806669 0
M  V30 4005 H 392.676 0.558709 -0.358803 0
M  V30 4006 H 395.206 1.30223 -1.57807 0
M  V30 4007 H 395.216 3.74853 -1.61087 0
M  V30 4008 H 393.891 3.21851 -2.6341 0
M  V30 4009 H 392.468 3.63091 -0.849666 0
M  V30 4010 N 394.653 0.992116 1.22453 0
M  V30 4011 C 395.899 0.668523 1.91464 0
M  V30 4012 C 396.232 -0.797313 1.77078 0
M  V30 4013 O 395.507 -1.5765 1.13916 0
M  V30 4014 C 395.79 1.07424 3.43703 0
M  V30 4015 C 395.643 2.59857 3.67143 0
M  V30 4016 C 396.962 0.626891 4.35612 0
M  V30 4017 H 394.081 0.244341 0.695318 0
M  V30 4018 H 396.723 1.2355 1.44345 0
M  V30 4019 H 394.873 0.591816 3.83966 0
M  V30 4020 H 396.545 3.15764 3.3629 0
M  V30 4021 H 394.788 3.01961 3.11451 0
M  V30 4022 H 395.459 2.83296 4.73759 0
M  V30 4023 H 397.935 1.04125 4.02861 0
M  V30 4024 H 396.811 0.939076 5.40807 0
M  V30 4025 H 397.072 -0.472457 4.39568 0
M  V30 4026 N 396.131 -1.37776 0.765217 0
M  V30 4027 C 397.542 -1.82521 0.392819 0
M  V30 4028 C 397.893 -1.63789 -1.08017 0
M  V30 4029 O 397.018 -1.14542 -1.83601 0
M  V30 4030 C 397.613 -3.31358 0.706214 0
M  V30 4031 C 396.172 -3.74406 0.386952 0
M  V30 4032 C 395.319 -2.60394 0.953422 0
M  V30 4033 H 398.27 -1.2634 0.960412 0
M  V30 4034 H 398.291 -3.80498 -0.0114706 0
M  V30 4035 H 397.803 -3.44959 1.77833 0
M  V30 4036 H 395.904 -3.66377 -0.678112 0
M  V30 4037 H 396.017 -4.70749 0.890636 0
M  V30 4038 H 394.381 -2.51878 0.378064 0
M  V30 4039 H 395.164 -2.76791 2.03081 0
M  V30 4040 N 397.609 -0.515225 -1.4894 0
M  V30 4041 C 398.539 0.244628 -2.32215 0
M  V30 4042 C 399.52 0.949136 -1.41157 0
M  V30 4043 O 400.705 0.937783 -1.70057 0
M  V30 4044 C 397.835 1.30096 -3.22013 0
M  V30 4045 C 396.789 0.715486 -4.21977 0
M  V30 4046 C 396.115 1.87339 -5.00808 0
M  V30 4047 C 397.415 -0.302982 -5.2142 0
M  V30 4048 H 399.109 -0.450501 -2.95991 0
M  V30 4049 H 396.655 -0.218098 -1.42339 0
M  V30 4050 H 398.608 1.84037 -3.79089 0
M  V30 4051 H 397.332 2.02547 -2.56207 0
M  V30 4052 H 395.991 0.197715 -3.66066 0
M  V30 4053 H 395.639 2.58592 -4.31438 0
M  V30 4054 H 395.339 1.48764 -5.68457 0
M  V30 4055 H 396.863 2.41686 -5.60732 0
M  V30 4056 H 398.277 0.148802 -5.73107 0
M  V30 4057 H 396.674 -0.60532 -5.97039 0
M  V30 4058 H 397.744 -1.21395 -4.69459 0
M  V30 4059 N 399.087 1.5561 -0.249682 0
M  V30 4060 C 400.05 2.20217 0.635394 0
M  V30 4061 C 401.05 1.17227 1.10066 0
M  V30 4062 O 402.24 1.42292 1.00492 0
M  V30 4063 C 399.372 2.84794 1.87363 0
M  V30 4064 H 400.565 2.99814 0.0716752 0
M  V30 4065 H 398.118 1.563 -0.000153234 0
M  V30 4066 H 398.853 2.09142 2.47851 0
M  V30 4067 H 398.638 3.60241 1.5482 0
M  V30 4068 H 400.128 3.3423 2.5036 0
M  V30 4069 N 400.565 -0.0233959 1.57583 0
M  V30 4070 C 401.814 -0.712133 1.8871 0
M  V30 4071 C 402.127 -1.76217 0.848944 0
M  V30 4072 O 403.333 -2.50389 1.04964 0
M  V30 4073 C 401.789 -1.3177 3.3491 0
M  V30 4074 C 401.397 -0.303715 4.46969 0
M  V30 4075 C 403.141 -1.98598 3.75179 0
M  V30 4076 C 401.048 -0.917945 5.84233 0
M  V30 4077 H 399.978 -0.269735 0.704101 0
M  V30 4078 H 402.629 0.0333114 1.8347 0
M  V30 4079 H 401.011 -2.11304 3.34913 0
M  V30 4080 H 402.185 0.465325 4.58445 0
M  V30 4081 H 400.5 0.2628 4.1557 0
M  V30 4082 H 403.097 -2.45416 4.75053 0
M  V30 4083 H 403.44 -2.80659 3.07468 0
M  V30 4084 H 403.973 -1.25831 3.77374 0
M  V30 4085 H 400.712 -0.136633 6.55358 0
M  V30 4086 H 400.232 -1.65669 5.76467 0
M  V30 4087 H 401.911 -1.4236 6.31144 0
M  V30 4088 N 402.043 -1.548 -0.295768 0
M  V30 4089 C 403.006 -1.85363 -1.34808 0
M  V30 4090 C 404.006 -0.726817 -1.43436 0
M  V30 4091 O 405.196 -0.995088 -1.42981 0
M  V30 4092 C 402.328 -2.03859 -2.73229 0
M  V30 4093 H 403.521 -2.7941 -1.08949 0
M  V30 4094 H 401.074 -1.46942 -0.532702 0
M  V30 4095 H 401.809 -1.12117 -3.04303 0
M  V30 4096 H 401.594 -2.8588 -2.68356 0
M  V30 4097 H 403.084 -2.28857 -3.49305 0
M  V30 4098 N 403.521 0.559213 -1.47345 0
M  V30 4099 C 404.77 1.31281 -1.53128 0
M  V30 4100 C 405.083 1.94602 -0.197344 0
M  V30 4101 O 406.289 2.71173 -0.133154 0
M  V30 4102 C 404.745 2.38051 -2.69925 0
M  V30 4103 C 404.353 1.8093 -4.0984 0
M  V30 4104 C 406.097 3.14604 -2.84999 0
M  V30 4105 C 404.004 2.85468 -5.1794 0
M  V30 4106 H 402.934 0.493614 -0.569966 0
M  V30 4107 H 405.585 0.594155 -1.73615 0
M  V30 4108 H 403.967 3.12822 -2.42814 0
M  V30 4109 H 405.141 1.12544 -4.46845 0
M  V30 4110 H 403.456 1.16967 -3.99634 0
M  V30 4111 H 406.053 3.92666 -3.62929 0
M  V30 4112 H 406.396 3.68665 -1.93369 0
M  V30 4113 H 406.929 2.46945 -3.1187 0
M  V30 4114 H 403.668 2.36264 -6.1144 0
M  V30 4115 H 403.188 3.52269 -4.85455 0
M  V30 4116 H 404.867 3.48996 -5.44803 0
M  V30 4117 N 404.999 1.35443 0.805782 0
M  V30 4118 C 406.224 1.32037 1.59941 0
M  V30 4119 C 406.649 -0.0994215 1.87837 0
M  V30 4120 O 406.007 -1.06648 1.46615 0
M  V30 4121 C 406.055 2.13354 2.90711 0
M  V30 4122 O 405.159 1.5148 3.83572 0
M  V30 4123 H 404.5 0.452666 0.485787 0
M  V30 4124 H 407.03 1.78496 1.00002 0
M  V30 4125 H 407.04 2.25338 3.40128 0
M  V30 4126 H 405.715 3.16572 2.69732 0
M  V30 4127 H 404.292 1.4834 3.42125 0
M  V30 4128 N 406.477 -1.02803 1.19454 0
M  V30 4129 C 407.407 -2.12999 0.956758 0
M  V30 4130 C 408.388 -1.69743 -0.110188 0
M  V30 4131 O 409.573 -1.94148 0.0450038 0
M  V30 4132 C 406.703 -3.43746 0.495553 0
M  V30 4133 C 405.657 -4.00688 1.50443 0
M  V30 4134 C 404.983 -5.27067 0.900275 0
M  V30 4135 C 406.283 -4.35397 2.8849 0
M  V30 4136 H 407.977 -2.33148 1.87836 0
M  V30 4137 H 405.523 -1.12045 0.904539 0
M  V30 4138 H 407.476 -4.2021 0.316493 0
M  V30 4139 H 406.2 -3.23321 -0.461646 0
M  V30 4140 H 404.859 -3.2632 1.67065 0
M  V30 4141 H 404.507 -5.02959 -0.064503 0
M  V30 4142 H 404.207 -5.66127 1.57397 0
M  V30 4143 H 405.731 -6.06196 0.73203 0
M  V30 4144 H 407.145 -5.02795 2.75446 0
M  V30 4145 H 405.542 -4.85541 3.52661 0
M  V30 4146 H 406.612 -3.44662 3.41081 0
M  V30 4147 N 407.956 -0.998596 -1.21925 0
M  V30 4148 C 408.919 -0.558679 -2.22287 0
M  V30 4149 C 409.919 0.361525 -1.56683 0
M  V30 4150 O 411.109 0.152695 -1.73529 0
M  V30 4151 C 408.241 0.18661 -3.40389 0
M  V30 4152 H 409.434 -1.4463 -2.62721 0
M  V30 4153 H 406.987 -0.786413 -1.35075 0
M  V30 4154 H 407.722 1.08996 -3.05435 0
M  V30 4155 H 407.507 -0.474188 -3.89222 0
M  V30 4156 H 408.997 0.482367 -4.14805 0
M  V30 4157 N 409.434 1.37368 -0.772513 0
M  V30 4158 C 410.683 1.98918 -0.333861 0
M  V30 4159 C 410.996 1.62017 1.09589 0
M  V30 4160 O 412.202 2.16676 1.63596 0
M  V30 4161 C 410.658 3.55735 -0.545971 0
M  V30 4162 C 410.266 4.01573 -1.98603 0
M  V30 4163 C 412.01 4.24156 -0.170979 0
M  V30 4164 C 409.917 5.51102 -2.1457 0
M  V30 4165 H 408.847 0.744214 -0.121085 0
M  V30 4166 H 411.498 1.56888 -0.95175 0
M  V30 4167 H 409.88 3.95748 0.141387 0
M  V30 4168 H 411.054 3.72803 -2.7084 0
M  V30 4169 H 409.369 3.45937 -2.31769 0
M  V30 4170 H 411.966 5.34024 -0.26878 0
M  V30 4171 H 412.309 4.06917 0.878855 0
M  V30 4172 H 412.842 3.89447 -0.810914 0
M  V30 4173 H 409.581 5.73268 -3.17875 0
M  V30 4174 H 409.101 5.81554 -1.46817 0
M  V30 4175 H 410.78 6.17083 -1.94468 0
M  V30 4176 N 410.912 0.523116 1.48665 0
M  V30 4177 C 411.875 -0.232592 2.28017 0
M  V30 4178 C 412.875 -0.874021 1.34972 0
M  V30 4179 O 414.065 -0.735132 1.57929 0
M  V30 4180 C 411.197 -1.33586 3.13636 0
M  V30 4181 H 412.39 0.464008 2.96289 0
M  V30 4182 H 409.943 0.278816 1.53793 0
M  V30 4183 H 410.678 -2.06593 2.4998 0
M  V30 4184 H 410.463 -0.881125 3.82071 0
M  V30 4185 H 411.953 -1.86759 3.73511 0
M  V30 4186 N 412.39 -1.55475 0.257931 0
M  V30 4187 C 413.353 -2.20551 -0.623706 0
M  V30 4188 C 414.353 -1.17809 -1.09443 0
M  V30 4189 O 415.543 -1.42823 -0.997362 0
M  V30 4190 C 412.675 -2.85784 -1.8585 0
M  V30 4191 H 413.868 -2.99848 -0.0557743 0
M  V30 4192 H 411.421 -1.56298 0.0084422 0
M  V30 4193 H 412.156 -2.10453 -2.46739 0
M  V30 4194 H 411.941 -3.61057 -1.52907 0
M  V30 4195 H 413.431 -3.35553 -2.48584 0
M  V30 4196 N 413.868 0.0150385 -1.57593 0
M  V30 4197 C 415.116 0.701613 -1.8953 0
M  V30 4198 C 415.437 1.75139 -0.857396 0
M  V30 4199 O 414.707 1.95607 0.107194 0
M  V30 4200 H 413.287 0.26213 -0.699498 0
M  V30 4201 H 415.949 -0.0223304 -1.94887 0
M  V30 4202 H 415.045 1.18236 -2.88837 0
M  V30 4203 N 415.346 1.54954 0.287554 0
M  V30 4204 C 416.309 1.86076 1.33823 0
M  V30 4205 C 417.309 0.734414 1.43049 0
M  V30 4206 O 418.499 1.00266 1.42452 0
M  V30 4207 C 415.631 2.05305 2.72144 0
M  V30 4208 H 416.824 2.79984 1.07465 0
M  V30 4209 H 414.377 1.47223 0.524902 0
M  V30 4210 H 415.112 1.1373 3.03704 0
M  V30 4211 H 414.897 2.873 2.66836 0
M  V30 4212 H 416.387 2.30706 3.48087 0
M  V30 4213 N 416.824 -0.551391 1.4764 0
M  V30 4214 C 418.054 -1.33163 1.57959 0
M  V30 4215 C 418.462 -1.87785 0.23094 0
M  V30 4216 O 417.805 -1.65996 -0.786825 0
M  V30 4217 C 417.867 -2.53449 2.54958 0
M  V30 4218 C 417.531 -2.20071 4.00522 0
M  V30 4219 C 418.528 -1.77017 4.88836 0
M  V30 4220 C 416.213 -2.31252 4.45901 0
M  V30 4221 C 418.207 -1.4558 6.20552 0
M  V30 4222 C 415.894 -1.99427 5.77644 0
M  V30 4223 C 416.892 -1.56659 6.64791 0
M  V30 4224 O 416.58 -1.25242 7.94084 0
M  V30 4225 H 416.312 -0.412022 0.535923 0
M  V30 4226 H 418.866 -0.674186 1.9402 0
M  V30 4227 H 417.096 -3.22104 2.13976 0
M  V30 4228 H 418.785 -3.15523 2.55343 0
M  V30 4229 H 419.551 -1.67867 4.55023 0
M  V30 4230 H 415.43 -2.63498 3.78272 0
M  V30 4231 H 418.974 -1.12125 6.8853 0
M  V30 4232 H 414.871 -2.08211 6.10998 0
M  V30 4233 H 415.639 -1.38822 8.06642 0
M  V30 4234 N 418.302 -1.35869 -0.798587 0
M  V30 4235 C 419.551 -1.28921 -1.5512 0
M  V30 4236 C 419.864 0.13208 -1.95154 0
M  V30 4237 O 421.07 0.323879 -2.69561 0
M  V30 4238 C 419.526 -2.26141 -2.79979 0
M  V30 4239 C 419.134 -3.73658 -2.47151 0
M  V30 4240 C 420.878 -2.28152 -3.57976 0
M  V30 4241 C 418.785 -4.62679 -3.6835 0
M  V30 4242 H 417.715 -0.479031 -0.582276 0
M  V30 4243 H 420.366 -1.61179 -0.877125 0
M  V30 4244 H 418.748 -1.86865 -3.49138 0
M  V30 4245 H 419.922 -4.21616 -1.85947 0
M  V30 4246 H 418.237 -3.74333 -1.82383 0
M  V30 4247 H 420.834 -2.91875 -4.4801 0
M  V30 4248 H 421.177 -1.28748 -3.95891 0
M  V30 4249 H 421.71 -2.65998 -2.95787 0
M  V30 4250 H 418.449 -5.63111 -3.35538 0
M  V30 4251 H 417.969 -4.19442 -4.28752 0
M  V30 4252 H 419.648 -4.78498 -4.35487 0
M  V30 4253 N 419.78 1.02168 -1.19998 0
M  V30 4254 C 420.71 2.12488 -0.96804 0
M  V30 4255 C 421.691 1.69799 0.101185 0
M  V30 4256 O 422.876 1.94121 -0.0552993 0
M  V30 4257 C 420.006 3.43479 -0.513776 0
M  V30 4258 C 418.96 3.99884 -1.52566 0
M  V30 4259 C 418.286 5.26582 -0.928214 0
M  V30 4260 C 419.586 4.33861 -2.90795 0
M  V30 4261 H 421.28 2.32149 -1.89069 0
M  V30 4262 H 418.826 1.11564 -0.910468 0
M  V30 4263 H 420.779 4.20036 -0.338774 0
M  V30 4264 H 419.503 3.23561 0.444493 0
M  V30 4265 H 418.162 3.25429 -1.68794 0
M  V30 4266 H 417.81 5.02986 0.0378289 0
M  V30 4267 H 417.51 5.65284 -1.60397 0
M  V30 4268 H 419.034 6.05799 -0.764167 0
M  V30 4269 H 420.448 5.01327 -2.78109 0
M  V30 4270 H 418.845 4.83664 -3.55231 0
M  V30 4271 H 419.915 3.42848 -3.42904 0
M  V30 4272 N 421.258 1.00505 1.21394 0
M  V30 4273 C 422.504 0.688793 1.90745 0
M  V30 4274 C 422.837 -0.778486 1.77914 0
M  V30 4275 O 422.112 -1.56433 1.15581 0
M  V30 4276 C 422.395 1.11063 3.42545 0
M  V30 4277 C 422.248 2.63737 3.64367 0
M  V30 4278 C 423.567 0.673059 4.34923 0
M  V30 4279 H 420.686 0.251702 0.692687 0
M  V30 4280 H 423.328 1.25074 1.43026 0
M  V30 4281 H 421.478 0.632508 3.83317 0
M  V30 4282 H 423.15 3.19313 3.32922 0
M  V30 4283 H 421.393 3.05248 3.08231 0
M  V30 4284 H 422.064 2.88305 4.70727 0
M  V30 4285 H 424.54 1.08392 4.01734 0
M  V30 4286 H 423.416 0.996383 5.39781 0
M  V30 4287 H 423.677 -0.425808 4.40045 0
M  V30 4288 N 422.737 -1.36956 0.779787 0
M  V30 4289 C 423.962 -2.04283 0.358224 0
M  V30 4290 C 424.387 -1.58422 -1.01411 0
M  V30 4291 O 423.745 -0.748179 -1.65142 0
M  V30 4292 C 423.793 -3.58152 0.419479 0
M  V30 4293 O 422.897 -4.08342 -0.577142 0
M  V30 4294 H 422.238 -0.645967 0.153698 0
M  V30 4295 H 424.768 -1.75108 1.05822 0
M  V30 4296 H 424.778 -4.07041 0.279636 0
M  V30 4297 H 423.453 -3.90886 1.42061 0
M  V30 4298 H 422.03 -3.70751 -0.399755 0
M  V30 4299 N 424.215 -0.530993 -1.48385 0
M  V30 4300 C 425.443 -0.00134122 -2.069 0
M  V30 4301 C 425.858 1.2805 -1.3874 0
M  V30 4302 O 425.215 1.76204 -0.475244 0
M  V30 4303 C 425.266 0.225256 -3.60798 0
M  V30 4304 O 424.987 -1.0058 -4.26398 0
M  V30 4305 C 426.488 0.795172 -4.3611 0
M  V30 4306 H 423.708 -0.0339704 -0.67014 0
M  V30 4307 H 426.252 -0.736926 -1.90761 0
M  V30 4308 H 424.407 0.910891 -3.76539 0
M  V30 4309 H 424.821 -0.787165 -5.1856 0
M  V30 4310 H 426.295 0.903143 -5.44562 0
M  V30 4311 H 426.772 1.80031 -4.00606 0
M  V30 4312 H 427.378 0.146069 -4.25049 0
M  V30 4313 N 425.693 1.55336 -0.266172 0
M  V30 4314 C 426.939 1.99692 0.353681 0
M  V30 4315 C 427.272 1.1543 1.56172 0
M  V30 4316 O 426.547 0.222218 1.93226 0
M  V30 4317 C 426.83 3.52316 0.74466 0
M  V30 4318 C 426.683 4.47337 -0.470101 0
M  V30 4319 C 428.002 4.10588 1.58447 0
M  V30 4320 H 425.121 0.725961 0.12708 0
M  V30 4321 H 427.763 1.86336 -0.371333 0
M  V30 4322 H 425.913 3.63829 1.36239 0
M  V30 4323 H 427.585 4.4778 -1.10864 0
M  V30 4324 H 425.828 4.19364 -1.10978 0
M  V30 4325 H 426.499 5.51788 -0.15291 0
M  V30 4326 H 428.975 4.02297 1.06286 0
M  V30 4327 H 427.851 5.17607 1.82686 0
M  V30 4328 H 428.112 3.60253 2.56262 0
M  V30 4329 N 427.171 -0.0066808 1.57599 0
M  V30 4330 C 428.101 -0.999296 2.11036 0
M  V30 4331 C 429.082 -1.36278 1.01795 0
M  V30 4332 O 430.267 -1.4477 1.29442 0
M  V30 4333 C 427.397 -2.29328 2.60818 0
M  V30 4334 C 426.351 -2.07159 3.74525 0
M  V30 4335 C 425.677 -3.42512 4.10596 0
M  V30 4336 C 426.977 -1.43959 5.02069 0
M  V30 4337 H 428.671 -0.554382 2.94223 0
M  V30 4338 H 426.217 -0.265221 1.41536 0
M  V30 4339 H 428.17 -2.99117 2.96828 0
M  V30 4340 H 426.894 -2.7592 1.74745 0
M  V30 4341 H 425.553 -1.39797 3.38899 0
M  V30 4342 H 425.201 -3.86795 3.21556 0
M  V30 4343 H 424.901 -3.28498 4.87199 0
M  V30 4344 H 426.425 -4.13628 4.4916 0
M  V30 4345 H 427.839 -2.03696 5.35893 0
M  V30 4346 H 426.236 -1.40452 5.83432 0
M  V30 4347 H 427.306 -0.407992 4.83181 0
M  V30 4348 N 428.649 -1.55105 -0.279332 0
M  V30 4349 C 429.877 -1.7943 -1.03017 0
M  V30 4350 C 430.292 -0.564456 -1.80165 0
M  V30 4351 O 429.649 0.466326 -1.76442 0
M  V30 4352 C 429.7 -3.0155 -1.99374 0
M  V30 4353 O 429.421 -4.19784 -1.25352 0
M  V30 4354 C 430.922 -3.3843 -2.86321 0
M  V30 4355 H 428.142 -0.597882 -0.304594 0
M  V30 4356 H 430.686 -2.02105 -0.312035 0
M  V30 4357 H 428.841 -2.81019 -2.66659 0
M  V30 4358 H 429.255 -4.88781 -1.90246 0
M  V30 4359 H 430.729 -4.27066 -3.49741 0
M  V30 4360 H 431.206 -2.57549 -3.5576 0
M  V30 4361 H 431.812 -3.61197 -2.24536 0
M  V30 4362 N 430.127 0.543554 -1.4793 0
M  V30 4363 C 431.057 1.65888 -1.64327 0
M  V30 4364 C 432.038 1.62818 -0.492383 0
M  V30 4365 O 433.223 1.80226 -0.723338 0
M  V30 4366 C 430.353 3.04506 -1.67013 0
M  V30 4367 C 429.307 3.2243 -2.81466 0
M  V30 4368 C 428.633 4.61972 -2.69233 0
M  V30 4369 C 429.933 3.06496 -4.22915 0
M  V30 4370 H 431.627 1.52421 -2.57698 0
M  V30 4371 H 429.173 0.731849 -1.24016 0
M  V30 4372 H 431.126 3.82391 -1.77074 0
M  V30 4373 H 429.85 3.18964 -0.70212 0
M  V30 4374 H 428.509 2.46957 -2.70938 0
M  V30 4375 H 428.157 4.73247 -1.7043 0
M  V30 4376 H 427.857 4.74911 -3.46025 0
M  V30 4377 H 429.381 5.41974 -2.81242 0
M  V30 4378 H 430.795 3.74186 -4.34348 0
M  V30 4379 H 429.192 3.30938 -5.006 0
M  V30 4380 H 430.262 2.03077 -4.40327 0
M  V30 4381 N 431.605 1.3629 0.791371 0
M  V30 4382 C 432.538 1.24816 1.9104 0
M  V30 4383 C 433.516 0.132739 1.62057 0
M  V30 4384 O 434.7 0.303527 1.8604 0
M  V30 4385 C 431.827 0.925355 3.25814 0
M  V30 4386 C 430.873 2.05495 3.7373 0
M  V30 4387 S 431.706 3.67255 3.89723 0
M  V30 4388 C 432.862 3.37084 5.27376 0
M  V30 4389 H 433.095 2.19533 2.00481 0
M  V30 4390 H 430.628 1.21684 0.950393 0
M  V30 4391 H 432.586 0.745924 4.03666 0
M  V30 4392 H 431.247 -0.00400098 3.141 0
M  V30 4393 H 430.44 1.7836 4.71385 0
M  V30 4394 H 430.042 2.1935 3.02922 0
M  V30 4395 H 432.334 2.90856 6.1189 0
M  V30 4396 H 433.277 4.33995 5.59512 0
M  V30 4397 H 433.685 2.7248 4.94383 0
M  V30 4398 N 433.083 -1.0153 1.20538 0
M  V30 4399 C 434.329 -1.75408 1.01783 0
M  V30 4400 C 434.662 -1.88943 -0.448814 0
M  V30 4401 O 433.937 -1.4162 -1.33319 0
M  V30 4402 C 434.22 -3.17255 1.70356 0
M  V30 4403 C 434.073 -3.11508 3.24473 0
M  V30 4404 C 435.392 -4.15955 1.43769 0
M  V30 4405 H 432.511 -0.636713 0.371167 0
M  V30 4406 H 435.153 -1.18436 1.4857 0
M  V30 4407 H 433.303 -3.65898 1.30578 0
M  V30 4408 H 434.975 -2.70658 3.73553 0
M  V30 4409 H 433.218 -2.4887 3.55311 0
M  V30 4410 H 433.889 -4.11784 3.67611 0
M  V30 4411 H 436.365 -3.75973 1.7828 0
M  V30 4412 H 435.241 -5.13368 1.94279 0
M  V30 4413 H 435.502 -4.40586 0.365564 0
M  V30 4414 N 434.561 -1.01147 -1.20859 0
M  V30 4415 C 435.972 -0.730205 -1.71828 0
M  V30 4416 C 436.323 0.751662 -1.8123 0
M  V30 4417 O 435.448 1.58686 -1.47132 0
M  V30 4418 C 436.043 -1.31885 -3.12077 0
M  V30 4419 C 434.602 -1.08656 -3.60376 0
M  V30 4420 C 433.749 -1.42769 -2.37723 0
M  V30 4421 H 436.7 -1.18158 -1.05945 0
M  V30 4422 H 436.721 -0.706793 -3.73878 0
M  V30 4423 H 436.233 -2.39737 -3.05201 0
M  V30 4424 H 434.334 -0.0254814 -3.72591 0
M  V30 4425 H 434.447 -1.76301 -4.45483 0
M  V30 4426 H 432.811 -0.846603 -2.40218 0
M  V30 4427 H 433.594 -2.51666 -2.33493 0
M  V30 4428 N 436.039 1.36541 -0.78704 0
M  V30 4429 C 437.285 2.00044 -0.367938 0
M  V30 4430 C 437.64 1.61345 1.04812 0
M  V30 4431 O 436.933 0.856936 1.71368 0
M  V30 4432 C 437.127 3.54343 -0.466485 0
M  V30 4433 C 436.956 4.08029 -1.89058 0
M  V30 4434 C 435.726 4.38284 -2.51466 0
M  V30 4435 C 437.924 4.27954 -2.85236 0
M  V30 4436 N 435.906 4.77778 -3.85488 0
M  V30 4437 C 437.277 4.70227 -4.04088 0
M  V30 4438 C 439.332 4.10119 -2.82324 0
M  V30 4439 C 438.035 4.96532 -5.20432 0
M  V30 4440 C 440.061 4.37569 -3.97854 0
M  V30 4441 C 439.423 4.80095 -5.15449 0
M  V30 4442 H 435.522 0.760525 -0.182004 0
M  V30 4443 H 438.106 1.65589 -1.02413 0
M  V30 4444 H 436.277 3.88072 0.159606 0
M  V30 4445 H 438.009 4.04693 -0.0238577 0
M  V30 4446 H 434.764 4.27905 -2.02965 0
M  V30 4447 H 435.188 5.01813 -4.54437 0
M  V30 4448 H 439.83 3.76399 -1.92571 0
M  V30 4449 H 437.548 5.29134 -6.10773 0
M  V30 4450 H 441.134 4.25341 -3.96958 0
M  V30 4451 H 440.014 5.00925 -6.0336 0
M  V30 4452 N 437.518 0.538854 1.48102 0
M  V30 4453 C 438.468 -0.23907 2.26743 0
M  V30 4454 C 439.452 -0.901923 1.33245 0
M  V30 4455 O 440.644 -0.803263 1.57723 0
M  V30 4456 C 437.773 -1.2799 3.18549 0
M  V30 4457 C 436.859 -0.621388 4.19523 0
M  V30 4458 N 437.25 0.298004 5.04921 0
M  V30 4459 C 435.548 -0.877533 4.37282 0
M  V30 4460 C 436.249 0.678757 5.77726 0
M  V30 4461 N 435.225 0.0377881 5.43587 0
M  V30 4462 H 439.027 0.468096 2.90148 0
M  V30 4463 H 436.541 0.357497 1.58416 0
M  V30 4464 H 438.538 -1.851 3.73555 0
M  V30 4465 H 437.198 -1.98835 2.567 0
M  V30 4466 H 438.209 0.671126 5.13533 0
M  V30 4467 H 434.886 -1.57588 3.86616 0
M  V30 4468 H 436.276 1.43316 6.56437 0
M  V30 4469 N 438.996 -1.55193 0.274407 0
M  V30 4470 C 440.221 -2.04446 -0.348824 0
M  V30 4471 C 440.646 -1.15149 -1.48735 0
M  V30 4472 O 440.004 -0.149952 -1.80679 0
M  V30 4473 C 440.052 -3.51431 -0.808009 0
M  V30 4474 O 439.156 -3.65225 -1.91531 0
M  V30 4475 H 438.497 -0.66006 -0.0722276 0
M  V30 4476 H 441.027 -2.00481 0.408498 0
M  V30 4477 H 441.037 -3.92781 -1.10395 0
M  V30 4478 H 439.712 -4.15892 0.0249865 0
M  V30 4479 H 438.289 -3.35778 -1.62196 0
M  V30 4480 N 440.474 -0.00167713 -1.576 0
M  V30 4481 C 441.404 0.988091 -2.11563 0
M  V30 4482 C 442.385 1.35736 -1.02517 0
M  V30 4483 O 443.57 1.44082 -1.30208 0
M  V30 4484 C 440.7 2.27941 -2.62031 0
M  V30 4485 C 439.654 2.0517 -3.75619 0
M  V30 4486 C 438.98 3.4033 -4.12407 0
M  V30 4487 C 440.28 1.41294 -5.02825 0
M  V30 4488 H 441.974 0.538771 -2.94513 0
M  V30 4489 H 439.52 0.257712 -1.41675 0
M  V30 4490 H 441.473 2.97539 -2.9841 0
M  V30 4491 H 440.197 2.74989 -1.76205 0
M  V30 4492 H 438.856 1.37998 -3.39635 0
M  V30 4493 H 438.504 3.85085 -3.23603 0
M  V30 4494 H 438.204 3.25909 -4.88935 0
M  V30 4495 H 439.728 4.1124 -4.51347 0
M  V30 4496 H 441.142 2.00851 -5.36965 0
M  V30 4497 H 439.539 1.37356 -5.84169 0
M  V30 4498 H 440.609 0.382362 -4.8339 0
M  V30 4499 N 441.952 1.55251 0.271103 0
M  V30 4500 C 443.229 1.66664 1.02384 0
M  V30 4501 C 443.609 0.534363 2.04225 0
M  V30 4502 O 442.957 -0.465337 2.23712 0
M  V30 4503 C 443.167 3.05961 1.67895 0
M  V30 4504 C 444.515 3.63772 2.18986 0
M  V30 4505 O 445.539 3.08606 1.77878 0
M  V30 4506 O 444.398 4.60429 2.94393 0
M  V30 4507 H 441.492 0.676957 0.475035 0
M  V30 4508 H 444.038 1.67589 0.26681 0
M  V30 4509 H 442.81 3.79815 0.941071 0
M  V30 4510 H 442.433 3.08943 2.5028 0
M  V30 4511 N 443.43 -0.535701 1.48216 0
M  V30 4512 C 444.841 -1.11769 1.49548 0
M  V30 4513 C 445.192 -1.94442 0.26207 0
M  V30 4514 O 444.317 -2.06987 -0.631287 0
M  V30 4515 C 444.912 -2.03367 2.70975 0
M  V30 4516 C 443.471 -2.56795 2.75196 0
M  V30 4517 C 442.618 -1.33631 2.42977 0
M  V30 4518 H 445.569 -0.321232 1.55415 0
M  V30 4519 H 445.59 -2.87569 2.49167 0
M  V30 4520 H 445.102 -1.43169 3.60727 0
M  V30 4521 H 443.203 -3.20731 1.89638 0
M  V30 4522 H 443.316 -2.9632 3.76472 0
M  V30 4523 H 441.68 -1.6502 1.94012 0
M  V30 4524 H 442.463 -0.75194 3.34964 0
M  V30 4525 N 444.908 -1.36708 -0.784132 0
M  V30 4526 C 446.185 -1.21776 -1.53069 0
M  V30 4527 C 446.565 0.193876 -2.10208 0
M  V30 4528 O 445.913 1.20012 -1.94446 0
M  V30 4529 C 446.123 -2.30395 -2.62143 0
M  V30 4530 C 447.471 -2.67325 -3.29882 0
M  V30 4531 O 448.495 -2.29478 -2.7243 0
M  V30 4532 O 447.354 -3.32485 -4.33724 0
M  V30 4533 H 444.448 -0.474459 -0.677361 0
M  V30 4534 H 446.994 -1.48454 -0.82216 0
M  V30 4535 H 445.766 -3.2498 -2.17953 0
M  V30 4536 H 445.389 -2.05112 -3.40609 0
M  V30 4537 N 446.386 1.0089 -1.21074 0
M  V30 4538 C 447.611 1.78727 -1.05221 0
M  V30 4539 C 448.036 1.83932 0.393795 0
M  V30 4540 O 447.394 1.28004 1.28393 0
M  V30 4541 C 447.442 3.20665 -1.64944 0
M  V30 4542 O 446.546 4.02632 -0.892273 0
M  V30 4543 H 445.887 0.550973 -0.370574 0
M  V30 4544 H 448.417 1.26847 -1.60534 0
M  V30 4545 H 448.427 3.71352 -1.69002 0
M  V30 4546 H 447.102 3.16191 -2.70177 0
M  V30 4547 H 445.679 3.61207 -0.926492 0
M  V30 4548 N 447.864 1.01787 1.20321 0
M  V30 4549 C 448.827 0.593972 2.2137 0
M  V30 4550 C 449.827 -0.336553 1.57239 0
M  V30 4551 O 451.017 -0.125069 1.7375 0
M  V30 4552 C 448.149 -0.132433 3.40643 0
M  V30 4553 H 449.342 1.48791 2.60387 0
M  V30 4554 H 446.895 0.807803 1.33807 0
M  V30 4555 H 447.63 -1.04123 3.0713 0
M  V30 4556 H 447.415 0.53605 3.88418 0
M  V30 4557 H 448.905 -0.416314 4.1552 0
M  V30 4558 N 449.342 -1.36122 0.79427 0
M  V30 4559 C 450.272 -2.32551 0.210328 0
M  V30 4560 C 451.253 -1.56884 -0.657386 0
M  V30 4561 O 452.438 -1.85014 -0.590207 0
M  V30 4562 C 449.568 -3.41128 -0.651819 0
M  V30 4563 C 448.522 -4.27842 0.116395 0
M  V30 4564 C 447.848 -5.2763 -0.86666 0
M  V30 4565 C 449.148 -5.05647 1.30837 0
M  V30 4566 H 450.842 -2.81636 1.01594 0
M  V30 4567 H 448.388 -1.35407 0.489981 0
M  V30 4568 H 450.341 -4.07581 -1.07031 0
M  V30 4569 H 449.065 -2.90622 -1.49019 0
M  V30 4570 H 447.724 -3.62952 0.515915 0
M  V30 4571 H 447.372 -4.73395 -1.70019 0
M  V30 4572 H 447.072 -5.86514 -0.35705 0
M  V30 4573 H 448.596 -5.96955 -1.28361 0
M  V30 4574 H 450.01 -5.65113 0.965393 0
M  V30 4575 H 448.407 -5.73967 1.75161 0
M  V30 4576 H 449.477 -4.37006 2.10128 0
M  V30 4577 N 450.82 -0.546701 -1.47814 0
M  V30 4578 C 451.783 0.196287 -2.28358 0
M  V30 4579 C 452.783 0.852437 -1.36346 0
M  V30 4580 O 453.973 0.709913 -1.59078 0
M  V30 4581 C 451.105 1.28579 -3.15722 0
M  V30 4582 H 452.298 -0.511086 -2.95513 0
M  V30 4583 H 449.851 -0.303248 -1.5333 0
M  V30 4584 H 450.586 2.0259 -2.53235 0
M  V30 4585 H 450.371 0.820229 -3.83425 0
M  V30 4586 H 451.861 1.80793 -3.76435 0
M  V30 4587 N 452.299 1.55045 -0.282633 0
M  V30 4588 C 453.576 1.9179 0.384166 0
M  V30 4589 C 453.956 1.20778 1.73136 0
M  V30 4590 O 453.304 0.33719 2.25998 0
M  V30 4591 C 453.514 3.45149 0.517014 0
M  V30 4592 C 454.862 4.17064 0.796427 0
M  V30 4593 O 455.886 3.51084 0.601535 0
M  V30 4594 O 454.745 5.33837 1.16962 0
M  V30 4595 H 451.839 0.799483 0.211558 0
M  V30 4596 H 454.385 1.66474 -0.32934 0
M  V30 4597 H 453.157 3.88922 -0.430772 0
M  V30 4598 H 452.78 3.76443 1.2797 0
M  V30 4599 N 453.777 0.010035 1.57597 0
M  V30 4600 C 454.74 -0.963029 2.07986 0
M  V30 4601 C 455.74 -1.26619 0.991173 0
M  V30 4602 O 456.93 -1.2097 1.25347 0
M  V30 4603 C 454.062 -2.2851 2.52974 0
M  V30 4604 H 455.255 -0.526971 2.95234 0
M  V30 4605 H 452.808 -0.237639 1.54483 0
M  V30 4606 H 453.543 -2.76784 1.69 0
M  V30 4607 H 453.328 -2.07824 3.32493 0
M  V30 4608 H 454.818 -2.98294 2.9225 0
M  V30 4609 N 455.255 -1.55392 -0.262866 0
M  V30 4610 C 456.502 -1.76476 -0.993109 0
M  V30 4611 C 456.83 -0.571479 -1.85915 0
M  V30 4612 O 456.085 0.445733 -1.90556 0
M  V30 4613 C 456.384 -3.02889 -1.89718 0
M  V30 4614 C 456.05 -4.34974 -1.18781 0
M  V30 4615 C 454.712 -4.7087 -0.991699 0
M  V30 4616 C 457.064 -5.16695 -0.683798 0
M  V30 4617 C 454.392 -5.86036 -0.279024 0
M  V30 4618 C 456.744 -6.32598 0.0153327 0
M  V30 4619 C 455.408 -6.67127 0.223062 0
M  V30 4620 H 454.678 -0.64577 -0.363404 0
M  V30 4621 H 457.325 -1.89664 -0.264525 0
M  V30 4622 H 455.63 -2.84644 -2.6923 0
M  V30 4623 H 457.327 -3.16399 -2.46359 0
M  V30 4624 H 453.917 -4.06765 -1.35058 0
M  V30 4625 H 458.101 -4.8943 -0.8229 0
M  V30 4626 H 453.357 -6.11306 -0.107456 0
M  V30 4627 H 457.531 -6.95171 0.413584 0
M  V30 4628 H 455.158 -7.56216 0.777265 0
M  V30 4629 N 456.733 0.527833 -1.48498 0
M  V30 4630 C 457.963 1.30633 -1.60058 0
M  V30 4631 C 458.371 1.87394 -0.260786 0
M  V30 4632 O 457.714 1.67227 0.760317 0
M  V30 4633 C 457.776 2.49361 -2.58958 0
M  V30 4634 C 457.44 2.13671 -4.03972 0
M  V30 4635 C 458.437 1.69217 -4.91591 0
M  V30 4636 C 456.122 2.24129 -4.49524 0
M  V30 4637 C 458.116 1.35689 -6.2279 0
M  V30 4638 C 455.803 1.90212 -5.80743 0
M  V30 4639 C 456.801 1.46063 -6.67199 0
M  V30 4640 O 456.489 1.12593 -7.95976 0
M  V30 4641 H 456.221 0.403444 -0.54241 0
M  V30 4642 H 458.775 0.643233 -1.95068 0
M  V30 4643 H 457.005 3.18659 -2.19073 0
M  V30 4644 H 458.694 3.11421 -2.6033 0
M  V30 4645 H 459.46 1.60607 -4.57636 0
M  V30 4646 H 455.339 2.57447 -3.82416 0
M  V30 4647 H 458.883 1.01157 -6.90227 0
M  V30 4648 H 454.78 1.98464 -6.14233 0
M  V30 4649 H 455.548 1.25972 -8.08748 0
M  V30 4650 N 458.211 1.37122 0.776871 0
M  V30 4651 C 459.143 1.28342 1.89897 0
M  V30 4652 C 460.156 0.200277 1.61563 0
M  V30 4653 O 461.345 0.456012 1.72577 0
M  V30 4654 C 458.445 0.960427 3.25006 0
M  V30 4655 C 457.618 2.148 3.81025 0
M  V30 4656 C 456.677 1.79608 4.94598 0
M  V30 4657 O 455.703 2.51845 5.10454 0
M  V30 4658 N 456.905 0.737171 5.758 0
M  V30 4659 H 459.67 2.25027 1.97947 0
M  V30 4660 H 457.231 1.3068 0.955739 0
M  V30 4661 H 459.223 0.705942 3.98495 0
M  V30 4662 H 457.793 0.0823066 3.12492 0
M  V30 4663 H 457.013 2.56454 2.99374 0
M  V30 4664 H 458.301 2.9411 4.15183 0
M  V30 4665 H 457.699 0.137637 5.65533 0
M  V30 4666 H 456.256 0.542534 6.49538 0
M  V30 4667 N 459.689 -1.00246 1.21608 0
M  V30 4668 C 461.105 -1.26435 0.973975 0
M  V30 4669 C 461.305 -1.98642 -0.338143 0
M  V30 4670 O 460.361 -2.29026 -1.06317 0
M  V30 4671 C 461.674 -2.08551 2.16626 0
M  V30 4672 C 463.222 -2.21769 2.20879 0
M  V30 4673 C 463.697 -3.07267 3.39633 0
M  V30 4674 N 465.188 -3.14855 3.39736 0
M  V30 4675 C 465.923 -3.81274 4.28273 0
M  V30 4676 N 465.419 -4.497 5.27012 0
M  V30 4677 N 467.212 -3.7794 4.16074 0
M  V30 4678 H 459.363 -0.518089 2.05984 0
M  V30 4679 H 461.626 -0.291368 0.902113 0
M  V30 4680 H 461.332 -1.62847 3.11727 0
M  V30 4681 H 461.206 -3.09303 2.15897 0
M  V30 4682 H 463.593 -2.66691 1.26332 0
M  V30 4683 H 463.674 -1.20478 2.25652 0
M  V30 4684 H 463.318 -2.63047 4.34475 0
M  V30 4685 H 463.248 -4.08678 3.321 0
M  V30 4686 H 465.739 -2.66147 2.6828 0
M  V30 4687 H 466.052 -4.98092 5.90867 0
M  V30 4688 H 464.397 -4.48479 5.30935 0
M  V30 4689 H 467.588 -3.23638 3.38195 0
M  V30 4690 H 467.761 -4.29424 4.85282 0
M  V30 4691 N 461.167 -1.02423 -1.1978 0
M  V30 4692 C 462.415 -0.716569 -1.8897 0
M  V30 4693 C 462.736 0.756769 -1.79716 0
M  V30 4694 O 462.006 1.5449 -1.20456 0
M  V30 4695 H 460.586 -0.262062 -0.699523 0
M  V30 4696 H 463.248 -1.29747 -1.45436 0
M  V30 4697 H 462.344 -1.00675 -2.95417 0
M  V30 4698 N 462.645 1.35699 -0.801477 0
M  V30 4699 C 463.875 2.02862 -0.3912 0
M  V30 4700 C 464.283 1.60552 1.00099 0
M  V30 4701 O 463.626 0.796215 1.65548 0
M  V30 4702 C 463.688 3.57386 -0.389299 0
M  V30 4703 C 463.352 4.22943 -1.73113 0
M  V30 4704 C 464.349 4.44984 -2.68859 0
M  V30 4705 C 462.034 4.60167 -2.01373 0
M  V30 4706 C 464.028 5.03345 -3.91053 0
M  V30 4707 C 461.715 5.18243 -3.23832 0
M  V30 4708 C 462.713 5.39773 -4.1849 0
M  V30 4709 O 462.401 5.96626 -5.38788 0
M  V30 4710 H 462.133 0.657341 -0.157732 0
M  V30 4711 H 464.687 1.74407 -1.08496 0
M  V30 4712 H 462.917 3.85011 0.361031 0
M  V30 4713 H 464.606 4.059 -0.0020365 0
M  V30 4714 H 465.372 4.1661 -2.48316 0
M  V30 4715 H 461.251 4.42726 -1.28508 0
M  V30 4716 H 464.795 5.20065 -4.64949 0
M  V30 4717 H 460.692 5.46044 -3.44248 0
M  V30 4718 H 461.46 6.15082 -5.40015 0
M  V30 4719 N 464.123 0.554532 1.47522 0
M  V30 4720 C 465.539 0.214107 1.58157 0
M  V30 4721 C 465.739 -1.28331 1.55349 0
M  V30 4722 O 464.795 -2.06329 1.45549 0
M  V30 4723 C 466.108 0.838391 2.88776 0
M  V30 4724 C 467.656 0.809374 3.02354 0
M  V30 4725 C 468.131 1.41268 4.35669 0
M  V30 4726 N 469.622 1.37574 4.42298 0
M  V30 4727 C 470.357 1.8122 5.4401 0
M  V30 4728 N 469.853 2.3271 6.52547 0
M  V30 4729 N 471.646 1.72307 5.35039 0
M  V30 4730 H 463.797 1.52744 1.4759 0
M  V30 4731 H 466.06 0.636812 0.702264 0
M  V30 4732 H 465.766 1.89065 2.96559 0
M  V30 4733 H 465.64 0.329847 3.75755 0
M  V30 4734 H 468.027 -0.234187 2.94169 0
M  V30 4735 H 468.108 1.35565 2.16924 0
M  V30 4736 H 467.752 2.45529 4.4461 0
M  V30 4737 H 467.682 0.841871 5.19827 0
M  V30 4738 H 470.173 0.999081 3.64454 0
M  V30 4739 H 470.486 2.63944 7.26329 0
M  V30 4740 H 468.831 2.36719 6.53444 0
M  V30 4741 H 472.022 1.3186 4.49144 0
M  V30 4742 H 472.195 2.06641 6.14169 0
M  V30 4743 N 465.601 -1.54893 0.290851 0
M  V30 4744 C 466.847 -2.00949 -0.314784 0
M  V30 4745 C 467.202 -1.1757 -1.52299 0
M  V30 4746 O 466.495 -0.241558 -1.90071 0
M  V30 4747 C 466.689 -3.49815 -0.732397 0
M  V30 4748 C 466.518 -4.47603 0.433799 0
M  V30 4749 C 465.288 -4.96806 0.922599 0
M  V30 4750 C 467.486 -4.98233 1.27546 0
M  V30 4751 N 465.468 -5.78426 2.05662 0
M  V30 4752 C 466.839 -5.77455 2.25712 0
M  V30 4753 C 468.894 -4.80439 1.307 0
M  V30 4754 C 467.597 -6.40778 3.26796 0
M  V30 4755 C 469.623 -5.44574 2.30637 0
M  V30 4756 C 468.985 -6.23619 3.27533 0
M  V30 4757 H 465.084 -0.777905 -0.0799257 0
M  V30 4758 H 467.668 -1.9015 0.418458 0
M  V30 4759 H 465.839 -3.60925 -1.43483 0
M  V30 4760 H 467.571 -3.82681 -1.31671 0
M  V30 4761 H 464.326 -4.70961 0.49926 0
M  V30 4762 H 464.75 -6.23923 2.62772 0
M  V30 4763 H 469.392 -4.18918 0.571622 0
M  V30 4764 H 467.11 -7.01439 4.01258 0
M  V30 4765 H 470.696 -5.32739 2.33838 0
M  V30 4766 H 469.576 -6.72367 4.03599 0
M  V30 4767 N 467.08 -0.0183926 -1.57589 0
M  V30 4768 C 468.043 0.951986 -2.08494 0
M  V30 4769 C 469.043 1.26092 -0.997874 0
M  V30 4770 O 470.233 1.20304 -1.25987 0
M  V30 4771 C 467.365 2.27165 -2.54182 0
M  V30 4772 H 468.558 0.511307 -2.95509 0
M  V30 4773 H 466.111 0.229444 -1.54607 0
M  V30 4774 H 466.846 2.75884 -1.70465 0
M  V30 4775 H 466.631 2.06057 -3.33591 0
M  V30 4776 H 468.121 2.9674 -2.93828 0
M  V30 4777 N 468.558 1.5553 0.254621 0
M  V30 4778 C 469.806 1.7665 0.981793 0
M  V30 4779 C 470.127 0.580963 1.86145 0
M  V30 4780 O 469.397 -0.403537 1.91699 0
M  V30 4781 H 467.977 0.651475 0.365498 0
M  V30 4782 H 470.639 1.92958 0.274426 0
M  V30 4783 H 469.735 2.67486 1.60802 0
M  V30 4784 N 470.036 -0.519951 1.48776 0
M  V30 4785 C 471.283 -1.27522 1.57303 0
M  V30 4786 C 471.611 -1.92869 0.251328 0
M  V30 4787 O 470.866 -1.80372 -0.759243 0
M  V30 4788 C 471.165 -2.37864 2.6675 0
M  V30 4789 C 470.831 -1.90103 4.08867 0
M  V30 4790 C 469.493 -1.76795 4.47546 0
M  V30 4791 C 471.845 -1.54133 4.97888 0
M  V30 4792 C 469.173 -1.25868 5.73039 0
M  V30 4793 C 471.525 -1.04665 6.23881 0
M  V30 4794 C 470.189 -0.899823 6.61407 0
M  V30 4795 H 469.459 -0.466636 0.575614 0
M  V30 4796 H 472.106 -0.579109 1.82534 0
M  V30 4797 H 470.411 -3.13186 2.35418 0
M  V30 4798 H 472.108 -2.95969 2.70561 0
M  V30 4799 H 468.698 -2.01414 3.78326 0
M  V30 4800 H 472.882 -1.6327 4.68675 0
M  V30 4801 H 468.138 -1.13196 6.0083 0
M  V30 4802 H 472.312 -0.759074 6.92251 0
M  V30 4803 H 469.939 -0.503011 7.58534 0
M  V30 4804 N 471.514 -1.37532 -0.769588 0
M  V30 4805 C 472.763 -1.32183 -1.5235 0
M  V30 4806 C 473.076 0.0906555 -1.9539 0
M  V30 4807 O 474.282 0.266628 -2.70188 0
M  V30 4808 C 472.738 -2.32029 -2.75119 0
M  V30 4809 C 472.346 -3.78816 -2.3917 0
M  V30 4810 C 474.09 -2.35694 -3.53056 0
M  V30 4811 C 471.997 -4.70388 -3.58453 0
M  V30 4812 H 470.927 -0.491275 -0.571984 0
M  V30 4813 H 473.578 -1.63004 -0.842739 0
M  V30 4814 H 471.96 -1.94229 -3.45096 0
M  V30 4815 H 473.134 -4.25466 -1.76962 0
M  V30 4816 H 471.449 -3.78117 -1.74402 0
M  V30 4817 H 474.046 -3.01312 -4.41718 0
M  V30 4818 H 474.389 -1.37117 -3.93071 0
M  V30 4819 H 474.922 -2.72212 -2.90078 0
M  V30 4820 H 471.661 -5.70102 -3.23518 0
M  V30 4821 H 471.181 -4.28442 -4.19758 0
M  V30 4822 H 472.86 -4.87628 -4.25239 0
M  V30 4823 N 472.992 0.995999 -1.22138 0
M  V30 4824 C 474.238 1.73767 -1.04561 0
M  V30 4825 C 474.571 1.89633 0.418698 0
M  V30 4826 O 473.846 1.43723 1.3105 0
M  V30 4827 C 474.129 3.14505 -1.75382 0
M  V30 4828 C 473.982 3.06306 -3.29388 0
M  V30 4829 C 475.301 4.13615 -1.50369 0
M  V30 4830 H 472.42 0.630728 -0.38125 0
M  V30 4831 H 475.062 1.16057 -1.50435 0
M  V30 4832 H 473.212 3.63775 -1.36383 0
M  V30 4833 H 474.884 2.64681 -3.77812 0
M  V30 4834 H 473.127 2.43186 -3.59226 0
M  V30 4835 H 473.798 4.05884 -3.74116 0
M  V30 4836 H 476.274 3.73089 -1.84239 0
M  V30 4837 H 475.15 5.10212 -2.02421 0
M  V30 4838 H 475.411 4.39949 -0.435611 0
M  V30 4839 N 474.47 1.03057 1.19235 0
M  V30 4840 C 475.433 0.617418 2.20727 0
M  V30 4841 C 476.433 -0.319856 1.57587 0
M  V30 4842 O 477.623 -0.106633 1.73873 0
M  V30 4843 C 474.755 -0.096296 3.40764 0
M  V30 4844 H 475.948 1.51544 2.58794 0
M  V30 4845 H 473.501 0.821949 1.32942 0
M  V30 4846 H 474.236 -1.00859 3.08217 0
M  V30 4847 H 474.021 0.577217 3.87828 0
M  V30 4848 H 475.511 -0.372219 4.15938 0
M  V30 4849 N 475.948 -1.35272 0.808662 0
M  V30 4850 C 476.911 -2.28082 0.226093 0
M  V30 4851 C 477.911 -1.49673 -0.587762 0
M  V30 4852 O 479.101 -1.69404 -0.405943 0
M  V30 4853 C 476.233 -3.33955 -0.684596 0
M  V30 4854 H 477.426 -2.81116 1.04469 0
M  V30 4855 H 474.979 -1.45162 0.579466 0
M  V30 4856 H 475.714 -2.86111 -1.5268 0
M  V30 4857 H 475.499 -3.91965 -0.102699 0
M  V30 4858 H 476.989 -4.03219 -1.08646 0
M  V30 4859 N 477.426 -0.562348 -1.47226 0
M  V30 4860 C 478.674 -0.0401371 -2.0206 0
M  V30 4861 C 478.995 1.3165 -1.43852 0
M  V30 4862 O 478.265 1.85976 -0.615599 0
M  V30 4863 H 476.845 -0.0118479 -0.746906 0
M  V30 4864 H 479.507 -0.73352 -1.8057 0
M  V30 4865 H 478.603 0.0441254 -3.12069 0
M  V30 4866 N 478.904 1.54736 -0.299062 0
M  V30 4867 C 480.129 2.04975 0.316254 0
M  V30 4868 C 480.554 1.17501 1.46885 0
M  V30 4869 O 479.912 0.178678 1.80417 0
M  V30 4870 C 479.96 3.52672 0.751997 0
M  V30 4871 O 479.064 3.68226 1.85697 0
M  V30 4872 H 478.405 0.661126 0.0617175 0
M  V30 4873 H 480.935 1.99805 -0.440341 0
M  V30 4874 H 480.945 3.94488 1.04133 0
M  V30 4875 H 479.62 4.158 -0.0911482 0
M  V30 4876 H 478.197 3.38316 1.56834 0
M  V30 4877 N 480.382 0.0267497 1.57577 0
M  V30 4878 C 481.631 -0.651736 1.9088 0
M  V30 4879 C 481.944 -1.73427 0.904576 0
M  V30 4880 O 483.15 -2.46923 1.12877 0
M  V30 4881 C 481.606 -1.21048 3.38933 0
M  V30 4882 C 481.214 -0.161362 4.47709 0
M  V30 4883 C 482.958 -1.86562 3.81307 0
M  V30 4884 C 480.865 -0.731611 5.86857 0
M  V30 4885 H 479.795 -0.247198 0.712326 0
M  V30 4886 H 482.446 0.0916641 1.83271 0
M  V30 4887 H 480.828 -2.00542 3.41466 0
M  V30 4888 H 482.002 0.61094 4.56732 0
M  V30 4889 H 480.317 0.394877 4.14523 0
M  V30 4890 H 482.914 -2.30178 4.8262 0
M  V30 4891 H 483.257 -2.70735 3.16241 0
M  V30 4892 H 483.79 -1.13762 3.81186 0
M  V30 4893 H 480.529 0.0719329 6.55461 0
M  V30 4894 H 480.049 -1.47245 5.81445 0
M  V30 4895 H 481.728 -1.22208 6.35354 0
M  V30 4896 N 481.861 -1.55662 -0.24637 0
M  V30 4897 C 483.101 -1.79283 -0.981685 0
M  V30 4898 C 483.465 -0.596356 -1.82504 0
M  V30 4899 O 484.666 -0.711342 -2.59217 0
M  V30 4900 C 482.937 -3.07648 -1.819 0
M  V30 4901 S 484.496 -3.52491 -2.61334 0
M  V30 4902 H 481.314 -0.629676 -0.330196 0
M  V30 4903 H 483.916 -1.93901 -0.249498 0
M  V30 4904 H 482.62 -3.92794 -1.18915 0
M  V30 4905 H 482.151 -2.95768 -2.59393 0
M  V30 4906 H 484.166 -3.13866 -3.84321 0
M  V30 4907 N 483.339 0.512053 -1.4905 0
M  V30 4908 C 484.302 1.59704 -1.64399 0
M  V30 4909 C 485.302 1.52285 -0.516317 0
M  V30 4910 O 486.492 1.55635 -0.782527 0
M  V30 4911 C 483.624 2.9935 -1.63102 0
M  V30 4912 H 484.817 1.47428 -2.61161 0
M  V30 4913 H 482.37 0.735469 -1.37915 0
M  V30 4914 H 483.105 3.17116 -0.678836 0
M  V30 4915 H 482.89 3.06144 -2.44986 0
M  V30 4916 H 484.38 3.782 -1.77072 0
M  V30 4917 N 484.817 1.37938 0.762283 0
M  V30 4918 C 485.75 1.2884 1.88349 0
M  V30 4919 C 486.728 0.167084 1.61739 0
M  V30 4920 O 487.912 0.34292 1.85355 0
M  V30 4921 C 485.039 0.994257 3.23778 0
M  V30 4922 C 484.085 2.13376 3.69287 0
M  V30 4923 S 484.918 3.75439 3.81845 0
M  V30 4924 C 486.074 3.48195 5.20107 0
M  V30 4925 H 486.307 2.23736 1.95779 0
M  V30 4926 H 483.84 1.23672 0.924368 0
M  V30 4927 H 485.798 0.83138 4.01993 0
M  V30 4928 H 484.459 0.0626251 3.14038 0
M  V30 4929 H 483.652 1.88319 4.67495 0
M  V30 4930 H 483.254 2.25726 2.98201 0
M  V30 4931 H 485.546 3.0377 6.05583 0
M  V30 4932 H 486.489 4.45765 5.50181 0
M  V30 4933 H 486.897 2.82905 4.88493 0
M  V30 4934 N 486.295 -0.989507 1.22664 0
M  V30 4935 C 487.243 -2.10148 0.997035 0
M  V30 4936 C 488.237 -1.6929 -0.0609783 0
M  V30 4937 O 489.443 -1.79766 0.0917523 0
M  V30 4938 H 485.818 -0.687256 0.305259 0
M  V30 4939 H 487.789 -2.26685 1.94053 0
M  V30 4940 C 486.538 -3.4257 0.595085 0
M  V30 4941 H 485.861 -3.74453 1.40089 0
M  V30 4942 H 487.301 -4.21344 0.473869 0
M  V30 4943 C 485.76 -3.29638 -0.695725 0
M  V30 4944 O 486.29 -3.61709 -1.74727 0
M  V30 4945 N 484.496 -2.82814 -0.668173 0
M  V30 4946 H 484.043 -2.56914 0.18787 0
M  V30 4947 H 484.001 -2.74544 -1.5321 0
M  V30 4948 N 487.773 -1.03688 -1.18687 0
M  V30 4949 C 489.001 -0.757918 -1.92518 0
M  V30 4950 C 489.416 0.684398 -1.75959 0
M  V30 4951 O 488.773 1.46617 -1.08673 0
M  V30 4952 C 488.824 -1.10985 -3.44042 0
M  V30 4953 O 488.545 -2.49554 -3.60076 0
M  V30 4954 C 490.046 -0.854844 -4.3498 0
M  V30 4955 H 487.266 -0.276699 -0.611293 0
M  V30 4956 H 489.81 -1.38352 -1.50595 0
M  V30 4957 H 487.965 -0.529279 -3.83767 0
M  V30 4958 H 488.379 -2.6291 -4.53849 0
M  V30 4959 H 489.853 -1.15098 -5.39867 0
M  V30 4960 H 490.33 0.210507 -4.38695 0
M  V30 4961 H 490.936 -1.41853 -4.00946 0
M  V30 4962 N 489.251 1.34841 -0.815825 0
M  V30 4963 C 490.497 1.98793 -0.401129 0
M  V30 4964 C 490.83 1.64548 1.03139 0
M  V30 4965 O 490.105 0.913487 1.71714 0
M  V30 4966 C 490.388 3.55143 -0.595409 0
M  V30 4967 C 490.241 3.99155 -2.07352 0
M  V30 4968 C 491.56 4.40092 -0.0268823 0
M  V30 4969 H 488.679 0.722146 -0.14722 0
M  V30 4970 H 491.321 1.59847 -1.02707 0
M  V30 4971 H 489.471 3.8845 -0.0625779 0
M  V30 4972 H 491.143 3.76216 -2.66945 0
M  V30 4973 H 489.386 3.49726 -2.56659 0
M  V30 4974 H 490.057 5.07971 -2.1603 0
M  V30 4975 H 492.533 4.13298 -0.482042 0
M  V30 4976 H 491.409 5.48562 -0.19267 0
M  V30 4977 H 491.67 4.29016 1.06759 0
M  V30 4978 N 490.729 0.570148 1.46925 0
M  V30 4979 C 491.659 -0.158274 2.32963 0
M  V30 4980 C 492.64 -0.896093 1.44583 0
M  V30 4981 O 493.825 -0.874022 1.7342 0
M  V30 4982 C 490.955 -1.18055 3.26619 0
M  V30 4983 C 489.909 -0.558379 4.24342 0
M  V30 4984 C 489.235 -1.68623 5.07415 0
M  V30 4985 C 490.535 0.496295 5.19937 0
M  V30 4986 H 492.229 0.560046 2.94115 0
M  V30 4987 H 489.775 0.270775 1.41431 0
M  V30 4988 H 491.728 -1.69841 3.85658 0
M  V30 4989 H 490.452 -1.92899 2.63548 0
M  V30 4990 H 489.111 -0.0617157 3.66548 0
M  V30 4991 H 488.759 -2.42402 4.40738 0
M  V30 4992 H 488.459 -1.27564 5.73586 0
M  V30 4993 H 489.983 -2.20709 5.69315 0
M  V30 4994 H 491.397 0.0640052 5.73264 0
M  V30 4995 H 489.794 0.82649 5.94381 0
M  V30 4996 H 490.864 1.38735 4.6463 0
M  V30 4997 N 492.207 -1.54576 0.307264 0
M  V30 4998 C 493.137 -2.26708 -0.55907 0
M  V30 4999 C 494.118 -1.26893 -1.1328 0
M  V30 5000 O 495.303 -1.55677 -1.16097 0
M  V30 5001 C 492.433 -3.01259 -1.72801 0
M  V30 5002 C 491.387 -4.08275 -1.28435 0
M  V30 5003 C 490.713 -4.70575 -2.53895 0
M  V30 5004 C 492.013 -5.2068 -0.411038 0
M  V30 5005 H 493.707 -2.9937 0.042576 0
M  V30 5006 H 491.253 -1.43983 0.0219173 0
M  V30 5007 H 493.206 -3.50444 -2.34023 0
M  V30 5008 H 491.93 -2.26187 -2.356 0
M  V30 5009 H 490.589 -3.59949 -0.695161 0
M  V30 5010 H 490.237 -3.92136 -3.15021 0
M  V30 5011 H 489.937 -5.42854 -2.24908 0
M  V30 5012 H 491.461 -5.22527 -3.15908 0
M  V30 5013 H 492.875 -5.65721 -0.929097 0
M  V30 5014 H 491.272 -5.99716 -0.214664 0
M  V30 5015 H 492.342 -4.81629 0.562287 0
M  V30 5016 N 493.685 -0.035106 -1.57561 0
M  V30 5017 C 494.91 0.655802 -1.96759 0
M  V30 5018 C 495.335 1.64523 -0.911809 0
M  V30 5019 O 494.693 1.80857 0.126673 0
M  V30 5020 C 494.741 1.33326 -3.35047 0
M  V30 5021 O 493.845 2.44866 -3.31835 0
M  V30 5022 H 493.186 0.171807 -0.641388 0
M  V30 5023 H 495.716 -0.0987369 -2.04362 0
M  V30 5024 H 495.726 1.68867 -3.71413 0
M  V30 5025 H 494.401 0.608033 -4.11431 0
M  V30 5026 H 492.978 2.11392 -3.07193 0
M  V30 5027 N 495.163 1.55791 0.238111 0
M  V30 5028 C 496.093 1.94068 1.29846 0
M  V30 5029 C 497.074 0.806726 1.49753 0
M  V30 5030 O 498.259 1.06772 1.62214 0
M  V30 5031 C 495.389 2.24302 2.65153 0
M  V30 5032 C 494.343 3.40032 2.59927 0
M  V30 5033 C 493.669 3.55829 3.99111 0
M  V30 5034 C 494.969 4.75476 2.16148 0
M  V30 5035 H 496.663 2.82887 0.980563 0
M  V30 5036 H 494.209 1.36105 0.470253 0
M  V30 5037 H 496.162 2.4967 3.39475 0
M  V30 5038 H 494.886 1.32318 2.98596 0
M  V30 5039 H 493.545 3.14687 1.88063 0
M  V30 5040 H 493.193 2.6125 4.29834 0
M  V30 5041 H 492.893 4.3366 3.96501 0
M  V30 5042 H 494.417 3.83528 4.7512 0
M  V30 5043 H 495.831 5.00158 2.80205 0
M  V30 5044 H 494.228 5.56472 2.24631 0
M  V30 5045 H 495.298 4.71946 1.11333 0
M  V30 5046 N 496.642 -0.504142 1.49319 0
M  V30 5047 C 497.572 -1.61473 1.68667 0
M  V30 5048 C 498.553 -1.61455 0.535378 0
M  V30 5049 O 499.738 -1.78245 0.770868 0
M  V30 5050 C 496.868 -2.99971 1.75028 0
M  V30 5051 C 495.822 -3.14854 2.89916 0
M  V30 5052 C 495.148 -4.54671 2.81387 0
M  V30 5053 C 496.448 -2.95176 4.30893 0
M  V30 5054 H 498.142 -1.45535 2.61648 0
M  V30 5055 H 495.688 -0.698711 1.25913 0
M  V30 5056 H 497.641 -3.77562 1.8715 0
M  V30 5057 H 496.365 -3.1699 0.786441 0
M  V30 5058 H 495.024 -2.39687 2.77391 0
M  V30 5059 H 494.672 -4.68562 1.82917 0
M  V30 5060 H 494.372 -4.6557 3.58494 0
M  V30 5061 H 495.896 -5.34327 2.95512 0
M  V30 5062 H 497.31 -3.62538 4.44116 0
M  V30 5063 H 495.707 -3.17549 5.09198 0
M  V30 5064 H 496.777 -1.91332 4.45556 0
M  V30 5065 N 498.12 -1.38341 -0.754957 0
M  V30 5066 C 499.367 -1.34473 -1.51404 0
M  V30 5067 C 499.695 0.0656458 -1.94389 0
M  V30 5068 O 498.95 1.04244 -1.65625 0
M  V30 5069 C 499.249 -2.2452 -2.78075 0
M  V30 5070 C 498.915 -3.72512 -2.54059 0
M  V30 5071 C 497.577 -4.1284 -2.47218 0
M  V30 5072 C 499.929 -4.66197 -2.33044 0
M  V30 5073 C 497.257 -5.44945 -2.17376 0
M  V30 5074 C 499.609 -5.98558 -2.04723 0
M  V30 5075 C 498.273 -6.37972 -1.96337 0
M  V30 5076 H 497.543 -0.492072 -0.554027 0
M  V30 5077 H 500.19 -1.70687 -0.868223 0
M  V30 5078 H 498.495 -1.81357 -3.473 0
M  V30 5079 H 500.192 -2.18832 -3.36026 0
M  V30 5080 H 496.782 -3.40538 -2.60253 0
M  V30 5081 H 500.966 -4.35888 -2.37309 0
M  V30 5082 H 496.222 -5.74426 -2.09391 0
M  V30 5083 H 500.396 -6.70693 -1.87465 0
M  V30 5084 H 498.023 -7.40258 -1.72978 0
M  V30 5085 N 499.598 0.982988 -1.23187 0
M  V30 5086 C 500.823 1.76455 -1.08988 0
M  V30 5087 C 501.248 1.84726 0.354691 0
M  V30 5088 O 500.606 1.30699 1.25649 0
M  V30 5089 C 500.654 3.17094 -1.71708 0
M  V30 5090 O 499.758 4.00648 -0.977477 0
M  V30 5091 H 499.099 0.542988 -0.382177 0
M  V30 5092 H 501.629 1.23413 -1.63188 0
M  V30 5093 H 501.639 3.67684 -1.76841 0
M  V30 5094 H 500.314 3.10389 -2.76823 0
M  V30 5095 H 498.891 3.59161 -1.0029 0
M  V30 5096 N 501.076 1.04316 1.18135 0
M  V30 5097 C 502.006 0.657299 2.24058 0
M  V30 5098 C 502.987 -0.340678 1.66654 0
M  V30 5099 O 504.172 -0.220223 1.92947 0
M  V30 5100 C 501.302 0.0220715 3.47293 0
M  V30 5101 C 500.256 0.943857 4.17463 0
M  V30 5102 C 499.582 0.172973 5.3442 0
M  V30 5103 C 500.882 2.26409 4.70677 0
M  V30 5104 H 502.576 1.5428 2.56589 0
M  V30 5105 H 500.122 0.743263 1.23335 0
M  V30 5106 H 502.075 -0.259607 4.206 0
M  V30 5107 H 500.799 -0.898323 3.14003 0
M  V30 5108 H 499.458 1.20996 3.46057 0
M  V30 5109 H 499.106 -0.749907 4.97379 0
M  V30 5110 H 498.806 0.787098 5.82304 0
M  V30 5111 H 500.33 -0.101628 6.10515 0
M  V30 5112 H 501.744 2.04294 5.35665 0
M  V30 5113 H 500.141 2.8314 5.29105 0
M  V30 5114 H 501.211 2.90883 3.87962 0
M  V30 5115 N 502.554 -1.34406 0.822964 0
M  V30 5116 C 503.965 -1.8069 0.469879 0
M  V30 5117 C 504.316 -1.68223 -1.00972 0
M  V30 5118 O 503.441 -1.22226 -1.78577 0
M  V30 5119 C 504.036 -3.28064 0.846118 0
M  V30 5120 C 502.595 -3.72428 0.545402 0
M  V30 5121 C 501.742 -2.56116 1.06301 0
M  V30 5122 H 504.693 -1.22153 1.01313 0
M  V30 5123 H 504.714 -3.80205 0.149922 0
M  V30 5124 H 504.226 -3.37107 1.92304 0
M  V30 5125 H 502.327 -3.68924 -0.522109 0
M  V30 5126 H 502.44 -4.66548 1.0895 0
M  V30 5127 H 500.804 -2.50048 0.484554 0
M  V30 5128 H 501.587 -2.67928 2.14638 0
M  V30 5129 N 504.032 -0.577932 -1.46621 0
M  V30 5130 C 505.448 -0.239242 -1.57797 0
M  V30 5131 C 505.648 1.25843 -1.57371 0
M  V30 5132 O 504.704 2.03988 -1.48813 0
M  V30 5133 C 506.017 -0.884227 -2.87405 0
M  V30 5134 C 507.565 -0.857373 -3.01028 0
M  V30 5135 C 508.04 -1.48181 -4.33366 0
M  V30 5136 N 509.531 -1.44593 -4.40053 0
M  V30 5137 C 510.266 -1.89852 -5.41058 0
M  V30 5138 N 509.762 -2.43062 -6.48762 0
M  V30 5139 N 511.555 -1.80797 -5.3223 0
M  V30 5140 H 503.706 -1.55073 -1.45142 0
M  V30 5141 H 505.969 -0.647903 -0.692044 0
M  V30 5142 H 505.675 -1.93759 -2.93514 0
M  V30 5143 H 505.549 -0.389585 -3.75183 0
M  V30 5144 H 507.936 0.187357 -2.94505 0
M  V30 5145 H 508.017 -1.38999 -2.14739 0
M  V30 5146 H 507.661 -2.52572 -4.40647 0
M  V30 5147 H 507.591 -0.924464 -5.18422 0
M  V30 5148 H 510.082 -1.05694 -3.62819 0
M  V30 5149 H 510.395 -2.75466 -7.22038 0
M  V30 5150 H 508.74 -2.47085 -6.49595 0
M  V30 5151 H 511.931 -1.38989 -4.46989 0
M  V30 5152 H 512.104 -2.16385 -6.10804 0
M  V30 5153 N 505.51 1.54411 -0.315457 0
M  V30 5154 C 506.759 1.99599 0.290395 0
M  V30 5155 C 507.072 1.20746 1.53882 0
M  V30 5156 O 508.278 1.56272 2.22017 0
M  V30 5157 C 506.734 3.5539 0.56797 0
M  V30 5158 C 506.342 4.43068 -0.662945 0
M  V30 5159 C 508.086 4.09067 1.13422 0
M  V30 5160 C 505.993 5.90317 -0.357722 0
M  V30 5161 H 504.923 0.745592 0.112286 0
M  V30 5162 H 507.574 1.78477 -0.426418 0
M  V30 5163 H 505.956 3.72468 1.34476 0
M  V30 5164 H 507.13 4.37765 -1.43869 0
M  V30 5165 H 505.445 4.00238 -1.14884 0
M  V30 5166 H 508.042 5.16663 1.37707 0
M  V30 5167 H 508.385 3.60552 2.08106 0
M  V30 5168 H 508.918 3.95589 0.418805 0
M  V30 5169 H 505.657 6.4301 -1.27351 0
M  V30 5170 H 505.177 5.98592 0.380472 0
M  V30 5171 H 506.856 6.4699 0.0354284 0
M  V30 5172 N 506.988 0.0434614 1.5754 0
M  V30 5173 C 508.234 -0.632971 1.92669 0
M  V30 5174 C 508.567 -1.70947 0.921446 0
M  V30 5175 O 507.842 -1.94426 -0.0537202 0
M  V30 5176 C 508.125 -1.23619 3.38216 0
M  V30 5177 C 507.978 -0.168274 4.49485 0
M  V30 5178 C 509.297 -2.15008 3.84005 0
M  V30 5179 H 506.416 -0.228629 0.700641 0
M  V30 5180 H 509.058 0.103651 1.89717 0
M  V30 5181 H 507.208 -1.864 3.40863 0
M  V30 5182 H 508.88 0.463196 4.58969 0
M  V30 5183 H 507.123 0.504581 4.30855 0
M  V30 5184 H 507.794 -0.630218 5.48391 0
M  V30 5185 H 510.27 -1.62198 3.83185 0
M  V30 5186 H 509.146 -2.54161 4.86511 0
M  V30 5187 H 509.407 -3.04707 3.20322 0
M  V30 5188 N 508.466 -1.55915 -0.229846 0
M  V30 5189 C 509.696 -1.82352 -0.971152 0
M  V30 5190 C 510.104 -0.619231 -1.7878 0
M  V30 5191 O 509.447 0.421597 -1.78797 0
M  V30 5192 C 509.509 -3.02399 -1.9441 0
M  V30 5193 C 509.173 -4.37739 -1.31277 0
M  V30 5194 C 510.17 -5.15074 -0.706757 0
M  V30 5195 C 507.855 -4.84454 -1.32702 0
M  V30 5196 C 509.849 -6.37281 -0.123413 0
M  V30 5197 C 507.536 -6.06605 -0.739831 0
M  V30 5198 C 508.534 -6.82858 -0.139071 0
M  V30 5199 O 508.222 -8.027 0.439007 0
M  V30 5200 H 507.954 -0.61035 -0.290601 0
M  V30 5201 H 510.508 -2.03839 -0.252746 0
M  V30 5202 H 508.738 -2.76709 -2.70128 0
M  V30 5203 H 510.427 -3.15779 -2.55026 0
M  V30 5204 H 511.193 -4.80093 -0.688131 0
M  V30 5205 H 507.072 -4.25081 -1.78402 0
M  V30 5206 H 510.616 -6.96741 0.346124 0
M  V30 5207 H 506.513 -6.4106 -0.755841 0
M  V30 5208 H 507.281 -8.17824 0.332521 0
M  V30 5209 N 509.944 0.496216 -1.49584 0
M  V30 5210 C 510.907 1.57952 -1.66084 0
M  V30 5211 C 511.907 1.51729 -0.53244 0
M  V30 5212 O 513.097 1.54796 -0.79899 0
M  V30 5213 C 510.229 2.97604 -1.66268 0
M  V30 5214 H 511.422 1.44649 -2.6271 0
M  V30 5215 H 508.975 0.7208 -1.38687 0
M  V30 5216 H 509.71 3.16378 -0.712432 0
M  V30 5217 H 509.495 3.03528 -2.4822 0
M  V30 5218 H 510.985 3.76301 -1.81073 0
M  V30 5219 N 511.423 1.38739 0.74761 0
M  V30 5220 C 512.356 1.3083 1.86972 0
M  V30 5221 C 513.334 0.184229 1.61553 0
M  V30 5222 O 514.518 0.36256 1.8498 0
M  V30 5223 C 511.645 1.02854 3.22705 0
M  V30 5224 C 510.691 2.17281 3.67003 0
M  V30 5225 S 511.524 3.79468 3.77842 0
M  V30 5226 C 512.68 3.53692 5.16385 0
M  V30 5227 H 512.913 2.258 1.93395 0
M  V30 5228 H 510.446 1.24646 0.911199 0
M  V30 5229 H 512.404 0.87397 4.01089 0
M  V30 5230 H 511.065 0.0959295 3.13953 0
M  V30 5231 H 510.258 1.93267 4.65472 0
M  V30 5232 H 509.86 2.28876 2.9579 0
M  V30 5233 H 512.152 3.10176 6.02327 0
M  V30 5234 H 513.095 4.51576 5.45422 0
M  V30 5235 H 513.503 2.8807 4.85464 0
M  V30 5236 N 512.901 -0.976442 1.23707 0
M  V30 5237 C 513.864 -2.0511 1.02287 0
M  V30 5238 C 514.864 -1.60791 -0.0167195 0
M  V30 5239 O 516.054 -1.72761 0.223408 0
M  V30 5240 C 513.186 -3.36458 0.548507 0
M  V30 5241 H 514.379 -2.25545 1.9766 0
M  V30 5242 H 511.932 -1.15042 1.05806 0
M  V30 5243 H 512.667 -3.21713 -0.408818 0
M  V30 5244 H 512.452 -3.69967 1.29874 0
M  V30 5245 H 513.942 -4.15489 0.419406 0
M  V30 5246 N 514.379 -1.04941 -1.1758 0
M  V30 5247 C 515.342 -0.652456 -2.19717 0
M  V30 5248 C 516.342 0.294745 -1.58076 0
M  V30 5249 O 517.532 0.0789579 -1.74021 0
M  V30 5250 C 514.664 0.0420712 -3.40874 0
M  V30 5251 H 515.857 -1.55642 -2.5635 0
M  V30 5252 H 513.41 -0.842995 -1.31618 0
M  V30 5253 H 514.145 0.95943 -3.09783 0
M  V30 5254 H 513.93 -0.638844 -3.86861 0
M  V30 5255 H 515.42 0.306 -4.16477 0
M  V30 5256 N 515.857 1.33968 -0.830081 0
M  V30 5257 C 517.134 1.92554 -0.343858 0
M  V30 5258 C 517.514 1.7573 1.16971 0
M  V30 5259 O 516.862 1.14035 1.98011 0
M  V30 5260 C 517.072 3.40147 -0.781073 0
M  V30 5261 C 518.42 4.17299 -0.78402 0
M  V30 5262 O 519.444 3.48762 -0.724112 0
M  V30 5263 O 518.303 5.39631 -0.863739 0
M  V30 5264 H 515.397 0.821469 -0.0954827 0
M  V30 5265 H 517.943 1.42897 -0.915348 0
M  V30 5266 H 516.715 3.46225 -1.82329 0
M  V30 5267 H 516.338 3.97166 -0.18567 0
M  V30 5268 N 517.335 0.585699 1.46312 0
M  V30 5269 C 518.583 0.072278 2.01971 0
M  V30 5270 C 518.904 -1.29345 1.45928 0
M  V30 5271 O 518.174 -1.84973 0.645109 0
M  V30 5272 H 516.754 0.023729 0.746623 0
M  V30 5273 H 519.416 0.762155 1.7938 0
M  V30 5274 H 518.512 0.00552767 3.121 0
M  V30 5275 N 518.813 -1.54241 0.323641 0
M  V30 5276 C 519.743 -2.27289 -0.534993 0
M  V30 5277 C 520.724 -1.28087 -1.11927 0
M  V30 5278 O 521.909 -1.56899 -1.14439 0
M  V30 5279 C 519.039 -3.03075 -1.69596 0
M  V30 5280 C 517.993 -4.09614 -1.24098 0
M  V30 5281 C 517.319 -4.73242 -2.4889 0
M  V30 5282 C 518.619 -5.21087 -0.355789 0
M  V30 5283 H 520.313 -2.99308 0.0743257 0
M  V30 5284 H 517.859 -1.43952 0.0371874 0
M  V30 5285 H 519.812 -3.52907 -2.30293 0
M  V30 5286 H 518.536 -2.28673 -2.33187 0
M  V30 5287 H 517.195 -3.60666 -0.656945 0
M  V30 5288 H 516.843 -3.95455 -3.10845 0
M  V30 5289 H 516.543 -5.45209 -2.19138 0
M  V30 5290 H 518.067 -5.25848 -3.10348 0
M  V30 5291 H 519.481 -5.66675 -0.869042 0
M  V30 5292 H 517.878 -5.9991 -0.151045 0
M  V30 5293 H 518.948 -4.81005 0.613339 0
M  V30 5294 N 520.291 -0.0518155 -1.57515 0
M  V30 5295 C 521.538 0.621823 -1.92716 0
M  V30 5296 C 521.866 1.70813 -0.930229 0
M  V30 5297 O 521.121 1.95616 0.0573708 0
M  V30 5298 C 521.42 1.25607 -3.34601 0
M  V30 5299 C 521.086 0.297901 -4.49915 0
M  V30 5300 C 519.748 0.034243 -4.81188 0
M  V30 5301 C 522.1 -0.358738 -5.19964 0
M  V30 5302 C 519.428 -0.893479 -5.79857 0
M  V30 5303 C 521.78 -1.27466 -6.19625 0
M  V30 5304 C 520.444 -1.54698 -6.49326 0
M  V30 5305 H 519.714 0.227541 -0.705199 0
M  V30 5306 H 522.361 -0.118432 -1.91133 0
M  V30 5307 H 520.666 2.07161 -3.32553 0
M  V30 5308 H 522.363 1.78424 -3.59118 0
M  V30 5309 H 518.953 0.513581 -4.25512 0
M  V30 5310 H 523.137 -0.168133 -4.96015 0
M  V30 5311 H 518.393 -1.11193 -6.01204 0
M  V30 5312 H 522.567 -1.78953 -6.73015 0
M  V30 5313 H 520.194 -2.26748 -7.25596 0
M  V30 5314 N 521.769 1.56035 0.221574 0
M  V30 5315 C 523.016 1.79047 0.94597 0
M  V30 5316 C 523.344 0.62057 1.84334 0
M  V30 5317 O 522.599 -0.395053 1.91671 0
M  V30 5318 C 522.898 3.07813 1.8162 0
M  V30 5319 C 522.564 4.3797 1.07206 0
M  V30 5320 C 521.226 4.73334 0.866508 0
M  V30 5321 C 523.578 5.18326 0.546565 0
M  V30 5322 C 520.906 5.8657 0.123549 0
M  V30 5323 C 523.258 6.32335 -0.18305 0
M  V30 5324 C 521.922 6.66301 -0.399861 0
M  V30 5325 H 521.192 0.655178 0.346155 0
M  V30 5326 H 523.839 1.90299 0.214146 0
M  V30 5327 H 522.144 2.91682 2.61589 0
M  V30 5328 H 523.841 3.2282 2.37884 0
M  V30 5329 H 520.431 4.10202 1.24226 0
M  V30 5330 H 524.615 4.9144 0.692847 0
M  V30 5331 H 519.871 6.11376 -0.0546591 0
M  V30 5332 H 524.045 6.9383 -0.59775 0
M  V30 5333 H 521.672 7.53889 -0.977489 0
M  V30 5334 N 523.247 -0.488276 1.49845 0
M  V30 5335 C 524.179 -1.60539 1.63584 0
M  V30 5336 C 525.192 -1.5434 0.517972 0
M  V30 5337 O 526.381 -1.60041 0.790516 0
M  V30 5338 C 523.481 -2.99374 1.58835 0
M  V30 5339 C 522.654 -3.30624 2.86368 0
M  V30 5340 C 521.713 -4.4893 2.74496 0
M  V30 5341 O 520.739 -4.50085 3.48443 0
M  V30 5342 N 521.941 -5.49591 1.86894 0
M  V30 5343 H 524.706 -1.49176 2.59936 0
M  V30 5344 H 522.267 -0.67639 1.47094 0
M  V30 5345 H 524.259 -3.76459 1.48529 0
M  V30 5346 H 522.829 -3.04595 0.702892 0
M  V30 5347 H 522.049 -2.42314 3.1093 0
M  V30 5348 H 523.337 -3.48305 3.70892 0
M  V30 5349 H 522.735 -5.51467 1.26097 0
M  V30 5350 H 521.292 -6.25728 1.82503 0
M  V30 5351 N 524.725 -1.39134 -0.740242 0
M  V30 5352 C 525.971 -1.36273 -1.50192 0
M  V30 5353 C 526.304 0.0430136 -1.94152 0
M  V30 5354 O 525.579 1.00691 -1.66408 0
M  V30 5355 C 525.862 -2.33041 -2.74525 0
M  V30 5356 C 525.715 -3.82535 -2.36617 0
M  V30 5357 C 527.034 -2.27723 -3.76604 0
M  V30 5358 H 524.153 -0.496323 -0.544823 0
M  V30 5359 H 526.795 -1.70085 -0.846815 0
M  V30 5360 H 524.945 -2.04337 -3.30422 0
M  V30 5361 H 526.617 -4.21967 -1.86391 0
M  V30 5362 H 524.86 -3.99565 -1.68909 0
M  V30 5363 H 525.531 -4.45723 -3.2563 0
M  V30 5364 H 528.007 -2.53091 -3.30279 0
M  V30 5365 H 526.883 -2.97519 -4.61274 0
M  V30 5366 H 527.144 -1.28049 -4.2315 0
M  V30 5367 N 526.204 0.969867 -1.24223 0
M  V30 5368 C 527.451 1.71256 -1.08063 0
M  V30 5369 C 527.779 1.90734 0.380872 0
M  V30 5370 O 527.034 1.46469 1.29789 0
M  V30 5371 C 527.333 3.10883 -1.76314 0
M  V30 5372 C 526.999 3.11252 -3.26241 0
M  V30 5373 C 525.661 3.1106 -3.67144 0
M  V30 5374 C 528.013 3.05751 -4.22097 0
M  V30 5375 C 525.341 3.03097 -5.02344 0
M  V30 5376 C 527.693 2.9933 -5.57301 0
M  V30 5377 C 526.357 2.97466 -5.97554 0
M  V30 5378 H 525.627 0.62667 -0.395431 0
M  V30 5379 H 528.274 1.13422 -1.54297 0
M  V30 5380 H 526.579 3.72168 -1.22468 0
M  V30 5381 H 528.276 3.67138 -1.61277 0
M  V30 5382 H 524.866 3.12165 -2.93685 0
M  V30 5383 H 529.05 3.05031 -3.91497 0
M  V30 5384 H 524.306 3.00013 -5.32731 0
M  V30 5385 H 528.48 2.94033 -6.31283 0
M  V30 5386 H 526.107 2.91051 -7.02277 0
M  V30 5387 N 527.682 1.05563 1.17022 0
M  V30 5388 C 528.645 0.664098 2.19368 0
M  V30 5389 C 529.645 -0.286358 1.5823 0
M  V30 5390 O 530.835 -0.069728 1.7406 0
M  V30 5391 C 527.967 -0.0239932 3.40892 0
M  V30 5392 H 529.16 1.57 2.55521 0
M  V30 5393 H 526.713 0.849964 1.31169 0
M  V30 5394 H 527.448 -0.942988 3.10287 0
M  V30 5395 H 527.233 0.659351 3.86516 0
M  V30 5396 H 528.723 -0.283909 4.16634 0
M  V30 5397 N 529.16 -1.33526 0.837174 0
M  V30 5398 C 530.11 -2.2672 0.241269 0
M  V30 5399 C 531.094 -1.49183 -0.602756 0
M  V30 5400 O 532.286 -1.71052 -0.455002 0
M  V30 5401 C 529.415 -3.38294 -0.584125 0
M  V30 5402 C 528.501 -4.23231 0.271315 0
M  V30 5403 N 528.892 -4.87473 1.34922 0
M  V30 5404 C 527.19 -4.45962 0.0580589 0
M  V30 5405 C 527.891 -5.50685 1.87405 0
M  V30 5406 N 526.867 -5.30732 1.17578 0
M  V30 5407 H 530.669 -2.73903 1.06558 0
M  V30 5408 H 528.183 -1.47411 0.68145 0
M  V30 5409 H 530.18 -4.04044 -1.02731 0
M  V30 5410 H 528.84 -2.9266 -1.40643 0
M  V30 5411 H 529.851 -4.88077 1.7321 0
M  V30 5412 H 526.528 -4.11052 -0.730938 0
M  V30 5413 H 527.918 -6.11845 2.77661 0
M  V30 5414 N 530.638 -0.59345 -1.46 0
M  V30 5415 C 531.884 -0.0832754 -2.02629 0
M  V30 5416 C 532.217 1.27749 -1.46266 0
M  V30 5417 O 531.492 1.8395 -0.631866 0
M  V30 5418 C 531.775 -0.0290756 -3.60088 0
M  V30 5419 C 531.628 -1.41951 -4.26814 0
M  V30 5420 C 532.947 0.666055 -4.35031 0
M  V30 5421 H 530.066 -0.031736 -0.736316 0
M  V30 5422 H 532.708 -0.762711 -1.74019 0
M  V30 5423 H 530.858 0.549532 -3.84594 0
M  V30 5424 H 532.53 -2.04411 -4.13538 0
M  V30 5425 H 530.773 -1.98422 -3.8576 0
M  V30 5426 H 531.444 -1.33395 -5.3564 0
M  V30 5427 H 533.92 0.174401 -4.15734 0
M  V30 5428 H 532.796 0.673041 -5.44758 0
M  V30 5429 H 533.057 1.72946 -4.06869 0
M  V30 5430 N 532.116 1.54067 -0.331816 0
M  V30 5431 C 533.066 2.21363 0.546101 0
M  V30 5432 C 534.05 1.19698 1.07523 0
M  V30 5433 O 535.242 1.45293 1.01088 0
M  V30 5434 C 532.371 2.98115 1.70242 0
M  V30 5435 C 531.457 4.07127 1.18779 0
M  V30 5436 N 531.848 5.04267 0.393465 0
M  V30 5437 C 530.146 4.21226 1.46576 0
M  V30 5438 C 530.847 5.81585 0.115572 0
M  V30 5439 N 529.823 5.39022 0.703987 0
M  V30 5440 H 533.625 2.93821 -0.0679751 0
M  V30 5441 H 531.139 1.61812 -0.138085 0
M  V30 5442 H 533.136 3.44818 2.34321 0
M  V30 5443 H 531.796 2.27181 2.31989 0
M  V30 5444 H 532.807 5.17888 0.0355757 0
M  V30 5445 H 529.484 3.61509 2.08848 0
M  V30 5446 H 530.874 6.6985 -0.524426 0
M  V30 5447 N 533.594 0.0601682 1.57485 0
M  V30 5448 C 535.005 -0.474217 1.80577 0
M  V30 5449 C 535.356 -1.70365 0.973147 0
M  V30 5450 O 534.481 -2.15544 0.192306 0
M  V30 5451 C 535.076 -0.867102 3.27516 0
M  V30 5452 C 533.635 -1.34642 3.51495 0
M  V30 5453 C 532.782 -0.32594 2.75378 0
M  V30 5454 H 535.733 0.285973 1.56102 0
M  V30 5455 H 535.754 -1.72938 3.38929 0
M  V30 5456 H 535.266 0.0278927 3.8809 0
M  V30 5457 H 533.367 -2.2603 2.96212 0
M  V30 5458 H 533.48 -1.33237 4.60201 0
M  V30 5459 H 531.844 -0.800749 2.41785 0
M  V30 5460 H 532.627 0.561125 3.38683 0
M  V30 5461 N 535.072 -1.5615 -0.213296 0
M  V30 5462 C 536.488 -1.49327 -0.56336 0
M  V30 5463 C 536.688 -0.756826 -1.86747 0
M  V30 5464 O 535.744 -0.299866 -2.50713 0
M  V30 5465 C 537.057 -2.9392 -0.634944 0
M  V30 5466 C 538.605 -3.04487 -0.725013 0
M  V30 5467 C 539.08 -4.50456 -0.82787 0
M  V30 5468 N 540.571 -4.54533 -0.891876 0
M  V30 5469 C 541.306 -5.64766 -0.991315 0
M  V30 5470 N 540.802 -6.84733 -1.05419 0
M  V30 5471 N 542.595 -5.52637 -1.02709 0
M  V30 5472 H 534.746 -2.02453 0.642366 0
M  V30 5473 H 537.009 -0.920548 0.226487 0
M  V30 5474 H 536.715 -3.50783 0.253859 0
M  V30 5475 H 536.589 -3.46274 -1.49579 0
M  V30 5476 H 538.976 -2.47685 -1.60425 0
M  V30 5477 H 539.057 -2.55289 0.161669 0
M  V30 5478 H 538.701 -5.07878 0.0469464 0
M  V30 5479 H 538.631 -4.97369 -1.73009 0
M  V30 5480 H 541.122 -3.68141 -0.85327 0
M  V30 5481 H 541.435 -7.64493 -1.13007 0
M  V30 5482 H 539.78 -6.87427 -1.02318 0
M  V30 5483 H 542.971 -4.5784 -0.974687 0
M  V30 5484 H 543.144 -6.38576 -1.10113 0
M  V30 5485 N 536.55 0.480323 -1.50102 0
M  V30 5486 C 537.778 1.25657 -1.64371 0
M  V30 5487 C 538.193 1.86011 -0.323316 0
M  V30 5488 O 537.55 1.68803 0.693682 0
M  V30 5489 C 537.601 2.37197 -2.728 0
M  V30 5490 O 537.322 1.7932 -3.9972 0
M  V30 5491 C 538.823 3.2823 -2.9796 0
M  V30 5492 H 536.043 0.380369 -0.552775 0
M  V30 5493 H 538.587 0.574379 -1.96268 0
M  V30 5494 H 536.742 3.01208 -2.43623 0
M  V30 5495 H 537.156 2.52701 -4.59611 0
M  V30 5496 H 538.63 4.02725 -3.77513 0
M  V30 5497 H 539.107 3.86462 -2.08671 0
M  V30 5498 H 539.713 2.69964 -3.28633 0
M  V30 5499 N 538.028 1.39524 0.732853 0
M  V30 5500 C 538.96 1.34318 1.85718 0
M  V30 5501 C 539.973 0.251576 1.60844 0
M  V30 5502 O 541.162 0.510685 1.71039 0
M  V30 5503 C 538.262 1.06334 3.21786 0
M  V30 5504 C 537.435 2.26813 3.73998 0
M  V30 5505 C 536.494 1.95253 4.88634 0
M  V30 5506 O 535.52 2.67957 5.02183 0
M  V30 5507 N 536.722 0.919984 5.73164 0
M  V30 5508 H 539.487 2.3121 1.90688 0
M  V30 5509 H 537.048 1.33654 0.91368 0
M  V30 5510 H 539.04 0.832363 3.96048 0
M  V30 5511 H 537.61 0.181682 3.12072 0
M  V30 5512 H 536.83 2.65849 2.91064 0
M  V30 5513 H 538.118 3.0717 4.05616 0
M  V30 5514 H 537.516 0.317487 5.64808 0
M  V30 5515 H 536.073 0.748905 6.47483 0
M  V30 5516 N 539.506 -0.963266 1.24736 0
M  V30 5517 C 540.752 -1.70933 1.09131 0
M  V30 5518 C 541.085 -1.90676 -0.368273 0
M  V30 5519 O 540.36 -1.47147 -1.27193 0
M  V30 5520 C 540.643 -3.09744 1.83658 0
M  V30 5521 C 540.496 -2.97465 3.37394 0
M  V30 5522 C 541.815 -4.09483 1.61282 0
M  V30 5523 H 538.934 -0.620398 0.397838 0
M  V30 5524 H 541.576 -1.12028 1.53459 0
M  V30 5525 H 539.726 -3.60031 1.4598 0
M  V30 5526 H 541.398 -2.54571 3.84696 0
M  V30 5527 H 539.641 -2.33576 3.65547 0
M  V30 5528 H 540.312 -3.95822 3.84745 0
M  V30 5529 H 542.788 -3.68073 1.94066 0
M  V30 5530 H 541.664 -5.04666 2.15878 0
M  V30 5531 H 541.925 -4.38639 0.552102 0
M  V30 5532 N 540.985 -1.06182 -1.16461 0
M  V30 5533 C 542.396 -0.802426 -1.68576 0
M  V30 5534 C 542.747 0.67412 -1.84255 0
M  V30 5535 O 541.872 1.52303 -1.5373 0
M  V30 5536 C 542.467 -1.45002 -3.06202 0
M  V30 5537 C 541.026 -1.23843 -3.55443 0
M  V30 5538 C 540.173 -1.52724 -2.31454 0
M  V30 5539 H 543.124 -1.22545 -1.00839 0
M  V30 5540 H 543.145 -0.864731 -3.70544 0
M  V30 5541 H 542.657 -2.52466 -2.94759 0
M  V30 5542 H 540.758 -0.183487 -3.72148 0
M  V30 5543 H 540.871 -1.95036 -4.37604 0
M  V30 5544 H 539.235 -0.947726 -2.36411 0
M  V30 5545 H 540.018 -2.61343 -2.22609 0
M  V30 5546 N 542.463 1.3308 -0.844243 0
M  V30 5547 C 543.709 1.97898 -0.443206 0
M  V30 5548 C 544.042 1.66699 0.99625 0
M  V30 5549 O 543.317 0.949704 1.69738 0
M  V30 5550 C 543.6 3.53801 -0.670606 0
M  V30 5551 C 543.453 3.94667 -2.15772 0
M  V30 5552 C 544.772 4.39936 -0.120226 0
M  V30 5553 H 541.891 0.718861 -0.162504 0
M  V30 5554 H 544.533 1.57633 -1.06075 0
M  V30 5555 H 542.683 3.88229 -0.14496 0
M  V30 5556 H 544.355 3.70469 -2.74865 0
M  V30 5557 H 542.598 3.44203 -2.6402 0
M  V30 5558 H 543.269 5.03275 -2.26757 0
M  V30 5559 H 545.745 4.12183 -0.5696 0
M  V30 5560 H 544.621 5.4803 -0.308984 0
M  V30 5561 H 544.882 4.31184 0.976347 0
M  V30 5562 N 543.941 0.601185 1.45683 0
M  V30 5563 C 544.904 -0.111398 2.28929 0
M  V30 5564 C 545.904 -0.801246 1.39416 0
M  V30 5565 O 547.094 -0.650383 1.61603 0
M  V30 5566 C 544.226 -1.16773 3.20276 0
M  V30 5567 H 545.419 0.620412 2.93413 0
M  V30 5568 H 542.972 0.359946 1.52099 0
M  V30 5569 H 543.707 -1.93051 2.60579 0
M  V30 5570 H 543.492 -0.677358 3.86205 0
M  V30 5571 H 544.982 -1.66698 3.82886 0
M  V30 5572 N 545.419 -1.53889 0.339982 0
M  V30 5573 C 546.667 -2.00458 -0.257112 0
M  V30 5574 C 546.988 -1.22953 -1.51353 0
M  V30 5575 O 546.258 -0.335734 -1.93002 0
M  V30 5576 H 544.838 -0.740544 -0.0979965 0
M  V30 5577 H 547.5 -1.89386 0.460317 0
M  V30 5578 H 546.596 -3.08035 -0.502057 0
M  V30 5579 N 546.897 -0.0685191 -1.57451 0
M  V30 5580 C 548.125 0.610462 -1.97689 0
M  V30 5581 C 548.54 1.63346 -0.946758 0
M  V30 5582 O 547.897 1.82377 0.0669868 0
M  V30 5583 C 547.948 1.28196 -3.38006 0
M  V30 5584 O 547.669 0.299906 -4.37072 0
M  V30 5585 C 549.17 2.04907 -3.931 0
M  V30 5586 H 546.39 0.165689 -0.650222 0
M  V30 5587 H 548.934 -0.139953 -2.04021 0
M  V30 5588 H 547.089 1.98348 -3.32771 0
M  V30 5589 H 547.503 0.78126 -5.18649 0
M  V30 5590 H 548.977 2.47287 -4.93511 0
M  V30 5591 H 549.454 2.9043 -3.29465 0
M  V30 5592 H 550.06 1.39629 -4.01726 0
M  V30 5593 N 548.375 1.56261 0.205012 0
M  V30 5594 C 549.305 1.96779 1.257 0
M  V30 5595 C 550.286 0.838309 1.48008 0
M  V30 5596 O 551.471 1.10189 1.59913 0
M  V30 5597 C 548.601 2.29876 2.60335 0
M  V30 5598 C 547.555 3.45469 2.52656 0
M  V30 5599 C 546.881 3.64215 3.91473 0
M  V30 5600 C 548.181 4.79954 2.06014 0
M  V30 5601 H 549.875 2.84904 0.920338 0
M  V30 5602 H 547.421 1.37072 0.441277 0
M  V30 5603 H 549.374 2.56814 3.34102 0
M  V30 5604 H 548.098 1.38622 2.95722 0
M  V30 5605 H 546.757 3.18605 1.81345 0
M  V30 5606 H 546.405 2.70309 4.24196 0
M  V30 5607 H 546.105 4.41973 3.87213 0
M  V30 5608 H 547.629 3.93519 4.66878 0
M  V30 5609 H 549.043 5.05989 2.69533 0
M  V30 5610 H 547.44 5.61111 2.12777 0
M  V30 5611 H 548.51 4.74201 1.01297 0
M  V30 5612 N 549.853 -0.472356 1.50355 0
M  V30 5613 C 550.816 -1.5529 1.68576 0
M  V30 5614 C 551.816 -1.50863 0.556511 0
M  V30 5615 O 553.006 -1.53505 0.823516 0
M  V30 5616 C 550.138 -2.94921 1.70981 0
M  V30 5617 H 551.331 -1.40451 2.64978 0
M  V30 5618 H 548.884 -0.698645 1.39816 0
M  V30 5619 H 549.619 -3.15204 0.762675 0
M  V30 5620 H 549.404 -2.99541 2.53017 0
M  V30 5621 H 550.894 -3.73372 1.87037 0
M  V30 5622 N 551.331 -1.39911 -0.725443 0
M  V30 5623 C 552.578 -1.37654 -1.48518 0
M  V30 5624 C 552.906 0.0243982 -1.94485 0
M  V30 5625 O 552.161 1.00708 -1.67799 0
M  V30 5626 C 552.46 -2.30368 -2.7325 0
M  V30 5627 C 552.126 -3.77817 -2.461 0
M  V30 5628 C 550.788 -4.17991 -2.38405 0
M  V30 5629 C 553.14 -4.71036 -2.23103 0
M  V30 5630 C 550.468 -5.49433 -2.05768 0
M  V30 5631 C 552.82 -6.02766 -1.9198 0
M  V30 5632 C 551.484 -6.41993 -1.82761 0
M  V30 5633 H 550.754 -0.503713 -0.543465 0
M  V30 5634 H 553.401 -1.7249 -0.831822 0
M  V30 5635 H 551.706 -1.88683 -3.43375 0
M  V30 5636 H 553.403 -2.2591 -3.31309 0
M  V30 5637 H 549.993 -3.45982 -2.52972 0
M  V30 5638 H 554.177 -4.40823 -2.2801 0
M  V30 5639 H 549.433 -5.78738 -1.9716 0
M  V30 5640 H 553.607 -6.74519 -1.73197 0
M  V30 5641 H 551.234 -7.43761 -1.57237 0
M  V30 5642 N 552.809 0.956637 -1.25245 0
M  V30 5643 C 554.057 1.69764 -1.09657 0
M  V30 5644 C 554.378 1.91583 0.363464 0
M  V30 5645 O 553.648 1.50149 1.25825 0
M  V30 5646 H 552.228 0.629097 -0.402798 0
M  V30 5647 H 554.89 1.15026 -1.57337 0
M  V30 5648 H 553.986 2.67769 -1.60331 0
M  V30 5649 N 554.287 1.06798 1.15896 0
M  V30 5650 C 555.217 0.704677 2.22613 0
M  V30 5651 C 556.198 -0.305252 1.67339 0
M  V30 5652 O 557.383 -0.179247 1.93371 0
M  V30 5653 C 554.513 0.0957325 3.47168 0
M  V30 5654 C 553.467 1.0322 4.15367 0
M  V30 5655 C 552.793 0.286293 5.33933 0
M  V30 5656 C 554.093 2.36341 4.65768 0
M  V30 5657 H 555.787 1.59688 2.53259 0
M  V30 5658 H 553.333 0.769257 1.21731 0
M  V30 5659 H 555.286 -0.170333 4.21056 0
M  V30 5660 H 554.01 -0.831516 3.15838 0
M  V30 5661 H 552.669 1.28309 3.43413 0
M  V30 5662 H 552.317 -0.644237 4.98857 0
M  V30 5663 H 552.017 0.910436 5.80504 0
M  V30 5664 H 553.541 0.0278938 6.10594 0
M  V30 5665 H 554.955 2.1561 5.31211 0
M  V30 5666 H 553.352 2.94299 5.2298 0
M  V30 5667 H 554.422 2.99047 3.81705 0
M  V30 5668 N 555.766 -1.3263 0.851289 0
M  V30 5669 C 556.696 -2.31449 0.308771 0
M  V30 5670 C 557.677 -1.59531 -0.590255 0
M  V30 5671 O 558.862 -1.87351 -0.511205 0
M  V30 5672 C 555.992 -3.43586 -0.506548 0
M  V30 5673 C 554.946 -4.26963 0.297753 0
M  V30 5674 C 554.272 -5.30831 -0.642094 0
M  V30 5675 C 555.572 -4.99643 1.52166 0
M  V30 5676 H 557.266 -2.77074 1.13447 0
M  V30 5677 H 554.812 -1.33207 0.546971 0
M  V30 5678 H 556.765 -4.11754 -0.896474 0
M  V30 5679 H 555.489 -2.96681 -1.36558 0
M  V30 5680 H 554.148 -3.60437 0.669391 0
M  V30 5681 H 553.796 -4.8018 -1.49788 0
M  V30 5682 H 553.496 -5.87501 -0.107968 0
M  V30 5683 H 555.02 -6.01862 -1.02927 0
M  V30 5684 H 556.434 -5.6051 1.20421 0
M  V30 5685 H 554.831 -5.66022 1.99347 0
M  V30 5686 H 555.901 -4.27701 2.28474 0
M  V30 5687 N 557.244 -0.608902 -1.45362 0
M  V30 5688 C 558.472 -0.111013 -2.06602 0
M  V30 5689 C 558.887 1.20516 -1.45332 0
M  V30 5690 O 558.244 1.73437 -0.567978 0
M  V30 5691 C 558.295 0.033688 -3.61484 0
M  V30 5692 O 558.016 -1.23041 -4.20467 0
M  V30 5693 C 559.517 0.562882 -4.39712 0
M  V30 5694 H 556.737 -0.0694453 -0.667397 0
M  V30 5695 H 559.281 -0.837008 -1.86586 0
M  V30 5696 H 557.436 0.710016 -3.80838 0
M  V30 5697 H 557.85 -1.06094 -5.13658 0
M  V30 5698 H 559.324 0.613213 -5.48583 0
M  V30 5699 H 559.801 1.58543 -4.09586 0
M  V30 5700 H 560.407 -0.0794454 -4.25226 0
M  V30 5701 N 558.722 1.53707 -0.348139 0
M  V30 5702 C 559.685 2.23812 0.494058 0
M  V30 5703 C 560.685 1.23989 1.02388 0
M  V30 5704 O 561.875 1.48395 0.912396 0
M  V30 5705 C 559.007 2.96133 1.68872 0
M  V30 5706 H 560.2 2.99663 -0.119141 0
M  V30 5707 H 557.753 1.55983 -0.0995539 0
M  V30 5708 H 558.488 2.24481 2.34049 0
M  V30 5709 H 558.273 3.69357 1.31596 0
M  V30 5710 H 559.763 3.49475 2.28597 0
M  V30 5711 N 560.2 0.0768682 1.57412 0
M  V30 5712 C 561.447 -0.591085 1.93681 0
M  V30 5713 C 561.775 -1.69311 0.957286 0
M  V30 5714 O 561.03 -1.95682 -0.0262428 0
M  V30 5715 C 561.329 -1.20268 3.36557 0
M  V30 5716 C 560.995 -0.226286 4.50332 0
M  V30 5717 C 559.657 0.0423142 4.81181 0
M  V30 5718 C 562.009 0.441415 5.19327 0
M  V30 5719 C 559.337 0.985616 5.78362 0
M  V30 5720 C 561.689 1.37307 6.17519 0
M  V30 5721 C 560.353 1.65009 6.46783 0
M  V30 5722 H 559.623 -0.216293 0.70873 0
M  V30 5723 H 562.27 0.148824 1.90921 0
M  V30 5724 H 560.575 -2.01844 3.35807 0
M  V30 5725 H 562.272 -1.72688 3.61911 0
M  V30 5726 H 558.862 -0.445821 4.26275 0
M  V30 5727 H 563.046 0.247023 4.95685 0
M  V30 5728 H 558.302 1.20743 5.99359 0
M  V30 5729 H 562.476 1.89637 6.70083 0
M  V30 5730 H 560.103 2.38263 7.21897 0
M  V30 5731 N 561.678 -1.56367 -0.196722 0
M  V30 5732 C 562.608 -1.97442 -1.24655 0
M  V30 5733 C 563.589 -0.846147 -1.47561 0
M  V30 5734 O 564.774 -1.11035 -1.59326 0
M  V30 5735 C 561.904 -2.31253 -2.59112 0
M  V30 5736 C 560.858 -3.46804 -2.50821 0
M  V30 5737 C 560.184 -3.66286 -3.89536 0
M  V30 5738 C 561.484 -4.8104 -2.03465 0
M  V30 5739 H 563.178 -2.85388 -0.905216 0
M  V30 5740 H 560.724 -1.37304 -0.434002 0
M  V30 5741 H 562.677 -2.58583 -3.32736 0
M  V30 5742 H 561.401 -1.40188 -2.94983 0
M  V30 5743 H 560.06 -3.19563 -1.79653 0
M  V30 5744 H 559.708 -2.72555 -4.22756 0
M  V30 5745 H 559.408 -4.4402 -3.84864 0
M  V30 5746 H 560.932 -3.9599 -4.64784 0
M  V30 5747 H 562.346 -5.07411 -2.66846 0
M  V30 5748 H 560.743 -5.62232 -2.09798 0
M  V30 5749 H 561.813 -4.74732 -0.98781 0
M  V30 5750 N 563.156 0.464375 -1.50603 0
M  V30 5751 C 564.119 1.54393 -1.69397 0
M  V30 5752 C 565.119 1.50566 -0.564504 0
M  V30 5753 O 566.309 1.53066 -0.831645 0
M  V30 5754 C 563.441 2.9401 -1.72543 0
M  V30 5755 H 564.634 1.39044 -2.65719 0
M  V30 5756 H 562.187 0.69122 -1.40185 0
M  V30 5757 H 562.922 3.14795 -0.77938 0
M  V30 5758 H 562.707 2.98195 -2.54602 0
M  V30 5759 H 564.197 3.72375 -1.89015 0
M  V30 5760 N 564.634 1.40294 0.718013 0
M  V30 5761 C 565.564 1.43118 1.84498 0
M  V30 5762 C 566.545 0.292403 1.67568 0
M  V30 5763 O 567.73 0.500675 1.87635 0
M  V30 5764 C 564.86 1.29065 3.22427 0
M  V30 5765 C 563.814 2.40521 3.54025 0
M  V30 5766 C 563.14 2.11546 4.91073 0
M  V30 5767 C 564.44 3.82859 3.55269 0
M  V30 5768 H 566.134 2.37432 1.82391 0
M  V30 5769 H 563.68 1.14283 0.87609 0
M  V30 5770 H 565.633 1.29658 4.00957 0
M  V30 5771 H 564.357 0.312271 3.25104 0
M  V30 5772 H 563.016 2.39173 2.77834 0
M  V30 5773 H 562.664 1.12104 4.90348 0
M  V30 5774 H 562.364 2.86216 5.1318 0
M  V30 5775 H 563.888 2.13817 5.71939 0
M  V30 5776 H 565.302 3.86044 4.23843 0
M  V30 5777 H 563.699 4.57029 3.88902 0
M  V30 5778 H 564.769 4.12617 2.54706 0
M  V30 5779 N 566.112 -0.949982 1.2575 0
M  V30 5780 C 567.042 -2.06483 1.09028 0
M  V30 5781 C 568.023 -1.701 -0.00201532 0
M  V30 5782 O 569.208 -1.93469 0.168383 0
M  V30 5783 C 566.338 -3.39899 0.71316 0
M  V30 5784 C 565.292 -3.90309 1.75621 0
M  V30 5785 C 564.618 -5.20274 1.23365 0
M  V30 5786 C 565.918 -4.16169 3.15596 0
M  V30 5787 H 567.612 -2.20731 2.02283 0
M  V30 5788 H 565.158 -1.06066 0.973964 0
M  V30 5789 H 567.111 -4.17346 0.58309 0
M  V30 5790 H 565.835 -3.25602 -0.255091 0
M  V30 5791 H 564.494 -3.15035 1.8748 0
M  V30 5792 H 564.142 -5.02351 0.255491 0
M  V30 5793 H 563.842 -5.54971 1.93082 0
M  V30 5794 H 565.366 -6.00314 1.11607 0
M  V30 5795 H 566.78 -4.84259 3.06864 0
M  V30 5796 H 565.177 -4.62131 3.82825 0
M  V30 5797 H 566.247 -3.22273 3.6231 0
M  V30 5798 N 567.59 -1.07411 -1.15328 0
M  V30 5799 C 568.52 -0.716472 -2.22236 0
M  V30 5800 C 569.501 0.296373 -1.67498 0
M  V30 5801 O 570.686 0.168989 -1.93463 0
M  V30 5802 C 567.816 -0.114142 -3.47112 0
M  V30 5803 C 566.77 -1.05421 -4.14814 0
M  V30 5804 C 566.096 -0.314604 -5.33774 0
M  V30 5805 C 567.396 -2.38808 -4.64508 0
M  V30 5806 H 569.09 -1.61029 -2.52408 0
M  V30 5807 H 566.636 -0.775702 -1.21321 0
M  V30 5808 H 568.589 0.148001 -4.2114 0
M  V30 5809 H 567.313 0.814755 -3.16274 0
M  V30 5810 H 565.972 -1.30128 -3.42728 0
M  V30 5811 H 565.62 0.617772 -4.99192 0
M  V30 5812 H 565.32 -0.941209 -5.80013 0
M  V30 5813 H 566.844 -0.0602747 -6.1057 0
M  V30 5814 H 568.258 -2.18424 -5.3006 0
M  V30 5815 H 566.655 -2.97069 -5.21412 0
M  V30 5816 H 567.725 -3.01067 -3.80114 0
M  V30 5817 N 569.068 1.32177 -0.85831 0
M  V30 5818 C 570.345 1.91781 -0.384624 0
M  V30 5819 C 570.725 1.78171 1.13217 0
M  V30 5820 O 570.073 1.18209 1.95548 0
M  V30 5821 C 570.283 3.38414 -0.853047 0
M  V30 5822 C 571.631 4.15542 -0.872359 0
M  V30 5823 O 572.655 3.47148 -0.797926 0
M  V30 5824 O 571.514 5.37678 -0.978009 0
M  V30 5825 H 568.608 0.819259 -0.112886 0
M  V30 5826 H 571.154 1.40923 -0.945453 0
M  V30 5827 H 569.926 3.4228 -1.89632 0
M  V30 5828 H 569.549 3.96683 -0.269874 0
M  V30 5829 N 570.547 0.616602 1.45037 0
M  V30 5830 C 571.477 -0.0840787 2.33349 0
M  V30 5831 C 572.458 -0.849641 1.4736 0
M  V30 5832 O 573.643 -0.818407 1.76113 0
M  V30 5833 C 570.773 -1.07604 3.3021 0
M  V30 5834 C 569.727 -0.423096 4.25904 0
M  V30 5835 C 569.053 -1.52394 5.12523 0
M  V30 5836 C 570.353 0.661457 5.18095 0
M  V30 5837 H 572.047 0.653333 2.92185 0
M  V30 5838 H 569.593 0.315634 1.40498 0
M  V30 5839 H 571.546 -1.57485 3.90866 0
M  V30 5840 H 570.27 -1.84416 2.69552 0
M  V30 5841 H 568.929 0.05493 3.66559 0
M  V30 5842 H 568.577 -2.28257 4.48227 0
M  V30 5843 H 568.277 -1.09251 5.77354 0
M  V30 5844 H 569.801 -2.02485 5.76049 0
M  V30 5845 H 571.215 0.246353 5.7277 0
M  V30 5846 H 569.612 1.01517 5.91451 0
M  V30 5847 H 570.682 1.53446 4.59981 0
M  V30 5848 N 572.025 -1.5352 0.356285 0
M  V30 5849 C 572.935 -2.29151 -0.502712 0
M  V30 5850 C 573.951 -1.34753 -1.1008 0
M  V30 5851 O 575.127 -1.67803 -1.11374 0
M  V30 5852 C 572.192 -3.05911 -1.63154 0
M  V30 5853 C 571.253 -4.15958 -1.06194 0
M  V30 5854 C 570.486 -4.8905 -2.13696 0
M  V30 5855 O 570.709 -4.61919 -3.34645 0
M  V30 5856 O 569.643 -5.75202 -1.77275 0
M  V30 5857 H 573.469 -3.03492 0.112466 0
M  V30 5858 H 571.054 -1.4891 0.120942 0
M  V30 5859 H 572.936 -3.53874 -2.28804 0
M  V30 5860 H 571.611 -2.34415 -2.23229 0
M  V30 5861 H 570.518 -3.7227 -0.369603 0
M  V30 5862 H 571.851 -4.89593 -0.505872 0
M  V30 5863 N 573.503 -0.0852151 -1.57369 0
M  V30 5864 C 574.728 0.592872 -1.98746 0
M  V30 5865 C 575.153 1.61538 -0.963689 0
M  V30 5866 O 574.511 1.81168 0.069071 0
M  V30 5867 C 574.559 1.22599 -3.39119 0
M  V30 5868 O 573.663 2.34185 -3.39457 0
M  V30 5869 H 573.004 0.151314 -0.646529 0
M  V30 5870 H 575.534 -0.163703 -2.03944 0
M  V30 5871 H 575.544 1.56965 -3.76598 0
M  V30 5872 H 574.219 0.476831 -4.13158 0
M  V30 5873 H 572.796 2.01512 -3.13763 0
M  V30 5874 N 574.981 1.5647 0.188427 0
M  V30 5875 C 575.911 1.98101 1.23606 0
M  V30 5876 C 576.892 0.853961 1.47111 0
M  V30 5877 O 578.077 1.11879 1.58735 0
M  V30 5878 C 575.207 2.32624 2.57882 0
M  V30 5879 C 574.161 3.48129 2.48978 0
M  V30 5880 C 573.487 3.68347 3.87588 0
M  V30 5881 C 574.787 4.82112 2.00911 0
M  V30 5882 H 576.481 2.85864 0.890068 0
M  V30 5883 H 574.027 1.37532 0.426714 0
M  V30 5884 H 575.98 2.60343 3.3136 0
M  V30 5885 H 574.704 1.41751 2.94235 0
M  V30 5886 H 573.363 3.20511 1.77956 0
M  V30 5887 H 573.011 2.74793 4.21305 0
M  V30 5888 H 572.711 4.46055 3.82503 0
M  V30 5889 H 574.235 3.98449 4.62678 0
M  V30 5890 H 575.649 5.08819 2.64151 0
M  V30 5891 H 574.046 5.63337 2.06814 0
M  V30 5892 H 575.116 4.75249 0.96262 0
M  V30 5893 N 576.459 -0.456382 1.50847 0
M  V30 5894 C 577.705 -1.20914 1.62811 0
M  V30 5895 C 578.038 -1.91301 0.334304 0
M  V30 5896 O 577.313 -1.82775 -0.665098 0
M  V30 5897 C 577.596 -2.24122 2.81853 0
M  V30 5898 C 577.449 -1.57944 4.21158 0
M  V30 5899 C 578.768 -3.25295 2.96431 0
M  V30 5900 H 575.887 -0.438233 0.592554 0
M  V30 5901 H 578.529 -0.50091 1.83278 0
M  V30 5902 H 576.679 -2.84524 2.64534 0
M  V30 5903 H 578.351 -1.01025 4.50102 0
M  V30 5904 H 576.594 -0.882185 4.24735 0
M  V30 5905 H 577.265 -2.33014 5.00408 0
M  V30 5906 H 579.741 -2.7493 3.12335 0
M  V30 5907 H 578.617 -3.94822 3.81322 0
M  V30 5908 H 578.878 -3.90286 2.07676 0
M  V30 5909 N 577.937 -1.40673 -0.710563 0
M  V30 5910 C 578.869 -1.37256 -1.83558 0
M  V30 5911 C 579.882 -0.277133 -1.60424 0
M  V30 5912 O 581.071 -0.537831 -1.70205 0
M  V30 5913 C 578.171 -1.1144 -3.20054 0
M  V30 5914 C 577.344 -2.32734 -3.70342 0
M  V30 5915 C 576.403 -2.03002 -4.85465 0
M  V30 5916 O 575.429 -2.75912 -4.97857 0
M  V30 5917 N 576.631 -1.01105 -5.71627 0
M  V30 5918 H 579.396 -2.34215 -1.86985 0
M  V30 5919 H 576.957 -1.35091 -0.892301 0
M  V30 5920 H 578.949 -0.895265 -3.94673 0
M  V30 5921 H 577.519 -0.231307 -3.11743 0
M  V30 5922 H 576.739 -2.70446 -2.86798 0
M  V30 5923 H 578.027 -3.13584 -4.00678 0
M  V30 5924 H 577.425 -0.407303 -5.64232 0
M  V30 5925 H 575.982 -0.85182 -6.4621 0
M  V30 5926 N 579.415 0.9433 -1.26252 0
M  V30 5927 C 580.662 1.68925 -1.11672 0
M  V30 5928 C 580.99 1.91499 0.340329 0
M  V30 5929 O 580.245 1.49189 1.26653 0
M  V30 5930 C 580.544 3.07073 -1.82868 0
M  V30 5931 C 580.21 3.04262 -3.32769 0
M  V30 5932 C 578.872 3.03203 -3.7366 0
M  V30 5933 C 581.224 2.96729 -4.28487 0
M  V30 5934 C 578.552 2.92373 -5.0866 0
M  V30 5935 C 580.904 2.87442 -5.63525 0
M  V30 5936 C 579.568 2.84724 -6.03729 0
M  V30 5937 H 578.838 0.618141 -0.408635 0
M  V30 5938 H 581.485 1.10124 -1.56668 0
M  V30 5939 H 579.79 3.69486 -1.30335 0
M  V30 5940 H 581.487 3.63635 -1.69029 0
M  V30 5941 H 578.077 3.05865 -3.00241 0
M  V30 5942 H 582.261 2.96658 -3.97879 0
M  V30 5943 H 577.517 2.88645 -5.38975 0
M  V30 5944 H 581.691 2.80576 -6.37377 0
M  V30 5945 H 579.318 2.76089 -7.08293 0
M  V30 5946 N 580.893 1.08022 1.14757 0
M  V30 5947 C 581.823 0.728248 2.21853 0
M  V30 5948 C 582.804 -0.287486 1.67653 0
M  V30 5949 O 583.989 -0.158727 1.9355 0
M  V30 5950 C 581.119 0.132549 3.47047 0
M  V30 5951 C 580.073 1.07619 4.14249 0
M  V30 5952 C 579.399 0.342907 5.33599 0
M  V30 5953 C 580.699 2.41268 4.63235 0
M  V30 5954 H 582.393 1.62365 2.51551 0
M  V30 5955 H 579.939 0.782125 1.20908 0
M  V30 5956 H 581.892 -0.125665 4.21213 0
M  V30 5957 H 580.616 -0.797971 3.16702 0
M  V30 5958 H 579.275 1.31944 3.42033 0
M  V30 5959 H 578.923 -0.59129 4.99513 0
M  V30 5960 H 578.623 0.971955 5.79506 0
M  V30 5961 H 580.147 0.0926538 6.1053 0
M  V30 5962 H 581.561 2.21232 5.28894 0
M  V30 5963 H 579.958 2.9983 5.19829 0
M  V30 5964 H 581.028 3.03079 3.78512 0
M  V30 5965 N 582.371 -1.3172 0.865308 0
M  V30 5966 C 583.596 -2.01591 0.487415 0
M  V30 5967 C 584.021 -1.6455 -0.911307 0
M  V30 5968 O 583.379 -0.851689 -1.6005 0
M  V30 5969 C 583.427 -3.54759 0.646401 0
M  V30 5970 O 582.531 -4.11185 -0.316284 0
M  V30 5971 H 581.872 -0.634884 0.194468 0
M  V30 5972 H 584.402 -1.68024 1.16744 0
M  V30 5973 H 584.412 -4.04438 0.537932 0
M  V30 5974 H 583.087 -3.8106 1.66632 0
M  V30 5975 H 581.664 -3.72543 -0.163162 0
M  V30 5976 N 583.85 -0.624285 -1.44708 0
M  V30 5977 C 584.779 0.0717025 -2.3339 0
M  V30 5978 C 585.76 0.841814 -1.47809 0
M  V30 5979 O 586.946 0.809056 -1.76544 0
M  V30 5980 C 584.076 1.05852 -3.30776 0
M  V30 5981 C 583.029 0.400503 -4.26122 0
M  V30 5982 C 582.356 1.49674 -5.13324 0
M  V30 5983 C 583.656 -0.688924 -5.17737 0
M  V30 5984 H 585.35 -0.668819 -2.91834 0
M  V30 5985 H 582.896 -0.32308 -1.40329 0
M  V30 5986 H 584.849 1.5541 -3.91696 0
M  V30 5987 H 583.572 1.82984 -2.70526 0
M  V30 5988 H 582.231 -0.0743687 -3.66525 0
M  V30 5989 H 581.88 2.25877 -4.49431 0
M  V30 5990 H 581.58 1.06188 -5.77926 0
M  V30 5991 H 583.104 1.99427 -5.77115 0
M  V30 5992 H 584.518 -0.276724 -5.72632 0
M  V30 5993 H 582.915 -1.04652 -5.90904 0
M  V30 5994 H 583.985 -1.55884 -4.5916 0
M  V30 5995 N 585.328 1.53329 -0.364422 0
M  V30 5996 C 586.576 2.00842 0.225189 0
M  V30 5997 C 586.897 1.25345 1.49378 0
M  V30 5998 O 586.167 0.366396 1.92443 0
M  V30 5999 H 584.747 0.742009 0.0862027 0
M  V30 6000 H 587.409 1.8863 -0.490389 0
M  V30 6001 H 586.505 3.08795 0.452987 0
M  V30 6002 N 586.806 0.0935595 1.57322 0
M  V30 6003 C 588.034 -0.578934 1.98635 0
M  V30 6004 C 588.449 -1.61819 0.972626 0
M  V30 6005 O 587.806 -1.82461 -0.0379638 0
M  V30 6006 C 587.857 -1.22802 3.40003 0
M  V30 6007 O 587.578 -0.230334 4.37494 0
M  V30 6008 C 589.079 -1.98627 3.96311 0
M  V30 6009 H 586.299 -0.155324 0.652775 0
M  V30 6010 H 588.843 0.172393 2.03772 0
M  V30 6011 H 586.998 -1.93029 3.35885 0
M  V30 6012 H 587.412 -0.698649 5.19826 0
M  V30 6013 H 588.886 -2.39405 4.97382 0
M  V30 6014 H 589.363 -2.85151 3.34044 0
M  V30 6015 H 589.969 -1.3322 4.03897 0
M  V30 6016 N 588.284 -1.56567 -0.180126 0
M  V30 6017 C 589.214 -1.98753 -1.22553 0
M  V30 6018 C 590.195 -0.86175 -1.46656 0
M  V30 6019 O 591.38 -1.12719 -1.58139 0
M  V30 6020 C 588.51 -2.33988 -2.56645 0
M  V30 6021 C 587.464 -3.49445 -2.47128 0
M  V30 6022 C 586.79 -3.70397 -3.8563 0
M  V30 6023 C 588.09 -4.83171 -1.98352 0
M  V30 6024 H 589.784 -2.86332 -0.874896 0
M  V30 6025 H 587.33 -1.37757 -0.419414 0
M  V30 6026 H 589.283 -2.62097 -3.29974 0
M  V30 6027 H 588.007 -1.43309 -2.93479 0
M  V30 6028 H 586.666 -3.2145 -1.76254 0
M  V30 6029 H 586.314 -2.77023 -4.19842 0
M  V30 6030 H 586.014 -4.48077 -3.80132 0
M  V30 6031 H 587.538 -4.00897 -4.60558 0
M  V30 6032 H 588.952 -5.10213 -2.61449 0
M  V30 6033 H 587.349 -5.64425 -2.03823 0
M  V30 6034 H 588.419 -4.75753 -0.937402 0
M  V30 6035 N 589.762 0.448376 -1.51087 0
M  V30 6036 C 590.692 1.55102 -1.74544 0
M  V30 6037 C 591.673 1.59357 -0.594932 0
M  V30 6038 O 592.858 1.75261 -0.836491 0
M  V30 6039 C 589.988 2.93268 -1.86041 0
M  V30 6040 C 588.942 3.03877 -3.01402 0
M  V30 6041 C 588.268 4.43914 -2.98068 0
M  V30 6042 C 589.568 2.7898 -4.41551 0
M  V30 6043 H 591.262 1.35724 -2.66869 0
M  V30 6044 H 588.808 0.651498 -1.28419 0
M  V30 6045 H 590.761 3.70356 -2.01034 0
M  V30 6046 H 589.485 3.13853 -0.903548 0
M  V30 6047 H 588.144 2.29227 -2.86096 0
M  V30 6048 H 587.792 4.6145 -2.00182 0
M  V30 6049 H 587.492 4.51944 -3.75527 0
M  V30 6050 H 589.016 5.22991 -3.1514 0
M  V30 6051 H 590.43 3.45805 -4.57265 0
M  V30 6052 H 588.827 2.98431 -5.20633 0
M  V30 6053 H 589.897 1.74663 -4.5235 0
M  V30 6054 N 591.24 1.41047 0.703093 0
M  V30 6055 C 592.203 1.42036 1.79884 0
M  V30 6056 C 593.203 0.312153 1.57741 0
M  V30 6057 O 594.393 0.571672 1.64553 0
M  V30 6058 C 591.525 1.22437 3.18154 0
M  V30 6059 H 592.718 2.39572 1.80403 0
M  V30 6060 H 590.271 1.27079 0.909977 0
M  V30 6061 H 591.006 0.257112 3.23279 0
M  V30 6062 H 590.791 2.02723 3.35627 0
M  V30 6063 H 592.281 1.25946 3.98155 0
M  V30 6064 N 592.718 -0.936591 1.26751 0
M  V30 6065 C 593.948 -1.71509 1.15188 0
M  V30 6066 C 594.356 -1.86885 -0.295037 0
M  V30 6067 O 593.699 -1.37915 -1.21347 0
M  V30 6068 C 593.761 -3.13853 1.75318 0
M  V30 6069 C 593.425 -3.21845 3.24445 0
M  V30 6070 C 594.422 -3.04771 4.21201 0
M  V30 6071 C 592.107 -3.45088 3.64992 0
M  V30 6072 C 594.101 -3.10816 5.56482 0
M  V30 6073 C 591.788 -3.50767 5.00405 0
M  V30 6074 C 592.786 -3.33648 5.9596 0
M  V30 6075 O 592.474 -3.39045 7.28906 0
M  V30 6076 H 592.206 -0.543658 0.401761 0
M  V30 6077 H 594.76 -1.18234 1.67958 0
M  V30 6078 H 592.99 -3.6857 1.17016 0
M  V30 6079 H 594.679 -3.73634 1.58596 0
M  V30 6080 H 595.445 -2.86665 3.91214 0
M  V30 6081 H 591.324 -3.57467 2.91098 0
M  V30 6082 H 594.868 -2.97372 6.31043 0
M  V30 6083 H 590.765 -3.68396 5.30052 0
M  V30 6084 H 591.533 -3.55558 7.37238 0
M  V30 6085 N 594.196 -1.08629 -1.14182 0
M  V30 6086 C 595.424 -0.838889 -1.8913 0
M  V30 6087 C 595.839 0.609153 -1.78703 0
M  V30 6088 O 595.196 1.41876 -1.14794 0
M  V30 6089 C 595.247 -1.25477 -3.39025 0
M  V30 6090 O 594.968 -2.64601 -3.49167 0
M  V30 6091 C 596.469 -1.03856 -4.30963 0
M  V30 6092 H 593.689 -0.302377 -0.599007 0
M  V30 6093 H 596.233 -1.44615 -1.44592 0
M  V30 6094 H 594.388 -0.691571 -3.81177 0
M  V30 6095 H 594.802 -2.81922 -4.42289 0
M  V30 6096 H 596.276 -1.37892 -5.345 0
M  V30 6097 H 596.753 0.0242522 -4.39193 0
M  V30 6098 H 597.359 -1.58731 -3.94569 0
M  V30 6099 N 595.674 1.31259 -0.872281 0
M  V30 6100 C 596.921 1.96622 -0.484365 0
M  V30 6101 C 597.249 1.68939 0.963841 0
M  V30 6102 O 596.504 0.97974 1.6941 0
M  V30 6103 C 596.803 3.50659 -0.690889 0
M  V30 6104 C 596.469 3.98366 -2.11224 0
M  V30 6105 C 595.131 4.11104 -2.50094 0
M  V30 6106 C 597.483 4.23425 -3.0391 0
M  V30 6107 C 594.811 4.46254 -3.80887 0
M  V30 6108 C 597.163 4.60039 -4.3422 0
M  V30 6109 C 595.827 4.70984 -4.73001 0
M  V30 6110 H 595.097 0.71949 -0.177242 0
M  V30 6111 H 597.744 1.56353 -1.10571 0
M  V30 6112 H 596.049 3.91798 0.0135782 0
M  V30 6113 H 597.746 3.99284 -0.370534 0
M  V30 6114 H 594.336 3.88949 -1.80047 0
M  V30 6115 H 598.52 4.13075 -2.75104 0
M  V30 6116 H 593.776 4.52926 -4.10692 0
M  V30 6117 H 597.95 4.78381 -5.06088 0
M  V30 6118 H 595.577 4.97977 -5.7439 0
M  V30 6119 N 597.152 0.631951 1.44375 0
M  V30 6120 C 598.398 0.13697 2.02337 0
M  V30 6121 C 598.731 -1.23826 1.49602 0
M  V30 6122 O 598.006 -1.8221 0.680415 0
M  V30 6123 C 598.289 0.124536 3.59885 0
M  V30 6124 C 598.142 1.53217 4.229 0
M  V30 6125 C 599.461 -0.550481 4.36644 0
M  V30 6126 H 596.58 0.051247 0.735216 0
M  V30 6127 H 599.222 0.808581 1.71936 0
M  V30 6128 H 597.372 -0.44737 3.85916 0
M  V30 6129 H 599.044 2.15303 4.07973 0
M  V30 6130 H 597.287 2.0858 3.80364 0
M  V30 6131 H 597.958 1.4755 5.31914 0
M  V30 6132 H 600.434 -0.0641154 4.16051 0
M  V30 6133 H 599.31 -0.528371 5.46351 0
M  V30 6134 H 599.571 -1.62097 4.11311 0
M  V30 6135 N 598.631 -1.53133 0.372548 0
M  V30 6136 C 599.594 -2.24569 -0.458389 0
M  V30 6137 C 600.594 -1.25603 -1.00402 0
M  V30 6138 O 601.784 -1.49827 -0.888672 0
M  V30 6139 C 598.916 -2.98783 -1.6414 0
M  V30 6140 H 600.109 -2.99436 0.166799 0
M  V30 6141 H 597.662 -1.55805 0.124357 0
M  V30 6142 H 598.397 -2.28176 -2.30448 0
M  V30 6143 H 598.182 -3.71404 -1.25704 0
M  V30 6144 H 599.672 -3.53068 -2.23008 0
M  V30 6145 N 600.109 -0.101901 -1.5727 0
M  V30 6146 C 601.337 0.568392 -1.98939 0
M  V30 6147 C 601.752 1.61301 -0.981194 0
M  V30 6148 O 601.109 1.82478 0.0282869 0
M  V30 6149 C 601.16 1.20997 -3.40649 0
M  V30 6150 O 600.881 0.207129 -4.3761 0
M  V30 6151 C 602.382 1.96523 -3.97358 0
M  V30 6152 H 599.602 0.15186 -0.65359 0
M  V30 6153 H 602.146 -0.183198 -2.03678 0
M  V30 6154 H 600.301 1.91245 -3.36904 0
M  V30 6155 H 600.715 0.671071 -5.20189 0
M  V30 6156 H 602.189 2.36764 -4.98645 0
M  V30 6157 H 602.666 2.83376 -3.35552 0
M  V30 6158 H 603.272 1.31076 -4.04598 0
M  V30 6159 N 601.587 1.56661 0.17182 0
M  V30 6160 C 602.812 1.86459 0.908165 0
M  V30 6161 C 603.237 0.688181 1.75059 0
M  V30 6162 O 602.595 -0.362753 1.77634 0
M  V30 6163 C 602.643 3.14669 1.76112 0
M  V30 6164 O 601.747 2.96858 2.86268 0
M  V30 6165 H 601.088 0.613318 0.254434 0
M  V30 6166 H 603.618 2.03892 0.170113 0
M  V30 6167 H 603.628 3.46061 2.16115 0
M  V30 6168 H 602.303 3.99905 1.14233 0
M  V30 6169 H 600.88 2.76819 2.49852 0
M  V30 6170 N 603.065 -0.440357 1.51323 0
M  V30 6171 C 604.314 -1.18697 1.63076 0
M  V30 6172 C 604.627 -1.92418 0.35136 0
M  V30 6173 O 605.833 -2.69258 0.348221 0
M  V30 6174 C 604.289 -2.15849 2.87988 0
M  V30 6175 C 603.897 -1.47789 4.22921 0
M  V30 6176 C 605.641 -2.90962 3.09098 0
M  V30 6177 C 603.548 -2.43407 5.38987 0
M  V30 6178 H 602.478 -0.44676 0.607389 0
M  V30 6179 H 605.129 -0.454313 1.77787 0
M  V30 6180 H 603.511 -2.92537 2.66905 0
M  V30 6181 H 604.685 -0.7668 4.54375 0
M  V30 6182 H 603 -0.848404 4.07665 0
M  V30 6183 H 605.597 -3.62584 3.92985 0
M  V30 6184 H 605.94 -3.52133 2.22053 0
M  V30 6185 H 606.473 -2.21381 3.30507 0
M  V30 6186 H 603.212 -1.86929 6.28282 0
M  V30 6187 H 602.732 -3.12579 5.11913 0
M  V30 6188 H 604.411 -3.046 5.70813 0
M  V30 6189 N 604.543 -1.41418 -0.695603 0
M  V30 6190 C 605.792 -1.40073 -1.4513 0
M  V30 6191 C 606.105 -0.0130439 -1.95596 0
M  V30 6192 O 607.311 0.123032 -2.71221 0
M  V30 6193 C 605.767 -2.46286 -2.62433 0
M  V30 6194 C 605.375 -3.90962 -2.18753 0
M  V30 6195 C 607.119 -2.54077 -3.40066 0
M  V30 6196 C 605.026 -4.88728 -3.33015 0
M  V30 6197 H 603.956 -0.520903 -0.545138 0
M  V30 6198 H 606.607 -1.67242 -0.75515 0
M  V30 6199 H 604.989 -2.12248 -3.34315 0
M  V30 6200 H 606.163 -4.34248 -1.54161 0
M  V30 6201 H 604.478 -3.86831 -1.54114 0
M  V30 6202 H 607.075 -3.24303 -4.25125 0
M  V30 6203 H 607.418 -1.5776 -3.8525 0
M  V30 6204 H 607.951 -2.87206 -2.75241 0
M  V30 6205 H 604.69 -5.86449 -2.92844 0
M  V30 6206 H 604.21 -4.50091 -3.96457 0
M  V30 6207 H 605.889 -5.09483 -3.98793 0
M  V30 6208 N 606.021 0.929856 -1.27246 0
M  V30 6209 C 607.267 1.6798 -1.13625 0
M  V30 6210 C 607.6 1.91586 0.317589 0
M  V30 6211 O 606.875 1.50467 1.23247 0
M  V30 6212 C 607.158 3.04766 -1.91806 0
M  V30 6213 C 607.011 2.88415 -3.45162 0
M  V30 6214 C 608.33 4.05063 -1.72082 0
M  V30 6215 H 605.449 0.609632 -0.414147 0
M  V30 6216 H 608.091 1.0792 -1.56376 0
M  V30 6217 H 606.241 3.56034 -1.55474 0
M  V30 6218 H 607.913 2.44282 -3.91311 0
M  V30 6219 H 606.156 2.23802 -3.71611 0
M  V30 6220 H 606.827 3.85482 -3.95105 0
M  V30 6221 H 609.303 3.62798 -2.03757 0
M  V30 6222 H 608.179 4.98765 -2.29182 0
M  V30 6223 H 608.44 4.37021 -0.668206 0
M  V30 6224 N 607.499 1.09233 1.13605 0
M  V30 6225 C 608.429 0.751738 2.21068 0
M  V30 6226 C 609.41 -0.269688 1.67948 0
M  V30 6227 O 610.595 -0.13819 1.93708 0
M  V30 6228 C 607.725 0.16935 3.46887 0
M  V30 6229 C 606.679 1.12007 4.13084 0
M  V30 6230 C 606.005 0.399483 5.33206 0
M  V30 6231 C 607.305 2.46168 4.6065 0
M  V30 6232 H 608.999 1.65024 2.49815 0
M  V30 6233 H 606.545 0.794905 1.20072 0
M  V30 6234 H 608.498 -0.0809824 4.21322 0
M  V30 6235 H 607.222 -0.764335 3.1753 0
M  V30 6236 H 605.881 1.35564 3.40614 0
M  V30 6237 H 605.529 -0.538277 5.00112 0
M  V30 6238 H 605.229 1.03337 5.78442 0
M  V30 6239 H 606.753 0.157403 6.10397 0
M  V30 6240 H 608.167 2.26829 5.26518 0
M  V30 6241 H 606.564 3.05326 5.1662 0
M  V30 6242 H 607.634 3.07076 3.75276 0
M  V30 6243 N 608.977 -1.30795 0.87923 0
M  V30 6244 C 610.393 -1.48981 0.57243 0
M  V30 6245 C 610.593 -1.80719 -0.891236 0
M  V30 6246 O 609.649 -1.89136 -1.67283 0
M  V30 6247 C 610.962 -2.61721 1.48063 0
M  V30 6248 C 612.51 -2.75603 1.48365 0
M  V30 6249 C 612.985 -3.91449 2.37763 0
M  V30 6250 N 614.476 -3.98751 2.35695 0
M  V30 6251 C 615.211 -4.87684 3.01583 0
M  V30 6252 N 614.707 -5.81454 3.76674 0
M  V30 6253 N 616.5 -4.81005 2.90844 0
M  V30 6254 H 608.651 -1.08465 1.82617 0
M  V30 6255 H 610.914 -0.536813 0.781368 0
M  V30 6256 H 610.62 -2.45073 2.52254 0
M  V30 6257 H 610.494 -3.58071 1.18596 0
M  V30 6258 H 612.881 -2.9166 0.44927 0
M  V30 6259 H 612.962 -1.79891 1.81859 0
M  V30 6260 H 612.606 -3.76149 3.41283 0
M  V30 6261 H 612.536 -4.86487 2.01589 0
M  V30 6262 H 615.027 -3.31668 1.81121 0
M  V30 6263 H 615.34 -6.46063 4.24054 0
M  V30 6264 H 613.685 -5.81403 3.80782 0
M  V30 6265 H 616.876 -4.06728 2.31711 0
M  V30 6266 H 617.049 -5.50107 3.42471 0
M  V30 6267 N 610.455 -0.639598 -1.44038 0
M  V30 6268 C 611.702 -0.14748 -2.01962 0
M  V30 6269 C 612.03 1.23372 -1.50365 0
M  V30 6270 O 611.285 1.8345 -0.681501 0
M  V30 6271 C 611.584 -0.0925348 -3.5728 0
M  V30 6272 C 611.25 -1.41365 -4.28167 0
M  V30 6273 C 609.912 -1.77545 -4.47248 0
M  V30 6274 C 612.264 -2.2853 -4.68427 0
M  V30 6275 C 609.592 -3.00583 -5.03852 0
M  V30 6276 C 611.944 -3.50846 -5.26393 0
M  V30 6277 C 610.608 -3.8724 -5.43692 0
M  V30 6278 H 609.878 -0.0539666 -0.739032 0
M  V30 6279 H 612.525 -0.827599 -1.72694 0
M  V30 6280 H 610.83 0.670987 -3.86012 0
M  V30 6281 H 612.527 0.304891 -3.99839 0
M  V30 6282 H 609.117 -1.1221 -4.13651 0
M  V30 6283 H 613.301 -2.0187 -4.5339 0
M  V30 6284 H 608.557 -3.28846 -5.15432 0
M  V30 6285 H 612.731 -4.18616 -5.56537 0
M  V30 6286 H 610.358 -4.8266 -5.87319 0
M  V30 6287 N 611.933 1.52934 -0.380664 0
M  V30 6288 C 612.865 2.23822 0.493581 0
M  V30 6289 C 613.878 1.25761 1.03383 0
M  V30 6290 O 615.067 1.5189 0.937633 0
M  V30 6291 C 612.167 2.9342 1.69582 0
M  V30 6292 C 611.34 4.18115 1.28445 0
M  V30 6293 C 610.399 4.70788 2.35042 0
M  V30 6294 O 609.425 5.34093 1.96807 0
M  V30 6295 N 610.627 4.49899 3.66839 0
M  V30 6296 H 613.392 2.99484 -0.11371 0
M  V30 6297 H 610.953 1.60577 -0.206587 0
M  V30 6298 H 612.945 3.2556 2.40401 0
M  V30 6299 H 611.515 2.21119 2.20965 0
M  V30 6300 H 610.735 3.92109 0.405503 0
M  V30 6301 H 612.023 4.99152 0.986132 0
M  V30 6302 H 611.421 3.99349 4.0067 0
M  V30 6303 H 609.978 4.86551 4.33718 0
M  V30 6304 N 613.412 0.11024 1.57214 0
M  V30 6305 C 614.359 -0.843195 2.14846 0
M  V30 6306 C 615.329 -1.26954 1.07107 0
M  V30 6307 O 616.514 -1.34861 1.34971 0
M  V30 6308 C 613.654 -2.09123 2.74521 0
M  V30 6309 C 612.767 -1.71404 3.96541 0
M  V30 6310 C 611.902 -2.91107 4.44331 0
M  V30 6311 C 610.941 -2.49586 5.58903 0
M  V30 6312 N 610.078 -3.62175 6.01477 0
M  V30 6313 H 614.918 -0.344886 2.95998 0
M  V30 6314 H 612.455 -0.15855 1.46243 0
M  V30 6315 H 614.413 -2.82234 3.07246 0
M  V30 6316 H 613.043 -2.56427 1.96074 0
M  V30 6317 H 612.095 -0.88201 3.70033 0
M  V30 6318 H 613.407 -1.36884 4.7965 0
M  V30 6319 H 612.561 -3.72454 4.78919 0
M  V30 6320 H 611.3 -3.28848 3.60153 0
M  V30 6321 H 610.305 -1.6667 5.23929 0
M  V30 6322 H 611.53 -2.12973 6.4484 0
M  V30 6323 H 609.476 -3.99605 5.20242 0
M  V30 6324 H 609.393 -3.3155 6.79419 0
M  V30 6325 H 610.661 -4.43987 6.407 0
M  V30 6326 N 614.89 -1.56749 -0.16351 0
M  V30 6327 C 616.115 -1.86938 -0.898264 0
M  V30 6328 C 616.54 -0.697456 -1.74692 0
M  V30 6329 O 615.898 0.353327 -1.77824 0
M  V30 6330 C 615.946 -3.15599 -1.74441 0
M  V30 6331 O 615.05 -2.98371 -2.8469 0
M  V30 6332 H 614.391 -0.614659 -0.251178 0
M  V30 6333 H 616.921 -2.03979 -0.159298 0
M  V30 6334 H 616.931 -3.47202 -2.14277 0
M  V30 6335 H 615.606 -4.00505 -1.1211 0
M  V30 6336 H 614.183 -2.7814 -2.4838 0
M  V30 6337 N 616.368 0.432326 -1.51554 0
M  V30 6338 C 617.593 1.20824 -1.68571 0
M  V30 6339 C 618.018 1.84126 -0.384596 0
M  V30 6340 O 617.376 1.69025 0.655751 0
M  V30 6341 C 617.424 2.26429 -2.80646 0
M  V30 6342 O 616.528 3.32032 -2.44598 0
M  V30 6343 H 615.869 0.353765 -0.561913 0
M  V30 6344 H 618.399 0.509916 -1.98144 0
M  V30 6345 H 618.409 2.71133 -3.04878 0
M  V30 6346 H 617.084 1.79733 -3.75058 0
M  V30 6347 H 615.661 2.92769 -2.30956 0
M  V30 6348 N 617.846 1.41785 0.688094 0
M  V30 6349 C 619.257 1.3701 1.26828 0
M  V30 6350 C 619.608 0.056835 1.96118 0
M  V30 6351 O 618.733 -0.84475 1.99231 0
M  V30 6352 C 619.328 2.48168 2.30648 0
M  V30 6353 C 617.887 2.46766 2.84224 0
M  V30 6354 C 617.034 2.27633 1.58361 0
M  V30 6355 H 619.985 1.51192 0.482351 0
M  V30 6356 H 620.006 2.17655 3.121 0
M  V30 6357 H 619.518 3.43735 1.80188 0
M  V30 6358 H 617.619 1.54978 3.3884 0
M  V30 6359 H 617.732 3.43342 3.34145 0
M  V30 6360 H 616.096 1.75648 1.84445 0
M  V30 6361 H 616.879 3.25238 1.09887 0
M  V30 6362 N 619.324 -0.923095 1.27737 0
M  V30 6363 C 620.735 -1.48626 1.12993 0
M  V30 6364 C 621.086 -1.94142 -0.283439 0
M  V30 6365 O 620.211 -1.81605 -1.17681 0
M  V30 6366 C 620.806 -2.70117 2.04505 0
M  V30 6367 C 619.365 -3.22642 1.93853 0
M  V30 6368 C 618.512 -1.95368 1.96791 0
M  V30 6369 H 621.463 -0.736737 1.40563 0
M  V30 6370 H 621.484 -3.4506 1.60356 0
M  V30 6371 H 620.996 -2.36959 3.07363 0
M  V30 6372 H 619.097 -3.60549 0.939968 0
M  V30 6373 H 619.21 -3.88525 2.80331 0
M  V30 6374 H 617.574 -2.12061 1.41076 0
M  V30 6375 H 618.357 -1.64517 3.01312 0
M  V30 6376 N 620.802 -1.09834 -1.13024 0
M  V30 6377 C 622.027 -0.85909 -1.88771 0
M  V30 6378 C 622.452 0.584402 -1.78791 0
M  V30 6379 O 621.81 1.41101 -1.13842 0
M  V30 6380 C 621.858 -1.30427 -3.36186 0
M  V30 6381 O 620.962 -0.465368 -4.09766 0
M  V30 6382 H 620.303 -0.310786 -0.586778 0
M  V30 6383 H 622.833 -1.46355 -1.42973 0
M  V30 6384 H 622.843 -1.2915 -3.8702 0
M  V30 6385 H 621.518 -2.3555 -3.42767 0
M  V30 6386 H 620.095 -0.542814 -3.68928 0
M  V30 6387 N 622.28 1.30327 -0.886154 0
M  V30 6388 C 623.505 2.0079 -0.519425 0
M  V30 6389 C 623.93 1.65979 0.885013 0
M  V30 6390 O 623.288 0.877043 1.58675 0
M  V30 6391 C 623.336 3.53686 -0.702758 0
M  V30 6392 O 622.44 4.11637 0.250828 0
M  V30 6393 H 621.781 0.63171 -0.204544 0
M  V30 6394 H 624.311 1.66145 -1.19402 0
M  V30 6395 H 624.321 4.03531 -0.602207 0
M  V30 6396 H 622.996 3.78361 -1.72673 0
M  V30 6397 H 621.573 3.72755 0.103873 0
M  V30 6398 N 623.758 0.647228 1.43697 0
M  V30 6399 C 625.169 0.238689 1.85168 0
M  V30 6400 C 625.52 -1.21345 1.54175 0
M  V30 6401 O 624.645 -1.92542 0.987743 0
M  V30 6402 C 625.24 0.426422 3.36106 0
M  V30 6403 C 623.799 0.0722541 3.76331 0
M  V30 6404 C 622.946 0.732153 2.6746 0
M  V30 6405 H 625.897 0.851309 1.33934 0
M  V30 6406 H 625.918 -0.32987 3.79067 0
M  V30 6407 H 625.43 1.48339 3.58632 0
M  V30 6408 H 623.531 -0.982355 3.59417 0
M  V30 6409 H 623.644 0.493541 4.76551 0
M  V30 6410 H 622.008 0.16594 2.54159 0
M  V30 6411 H 622.791 1.79204 2.92816 0
M  V30 6412 N 625.236 -1.5273 0.388769 0
M  V30 6413 C 626.484 -2.01174 -0.193208 0
M  V30 6414 C 626.805 -1.27705 -1.47365 0
M  V30 6415 O 626.075 -0.396966 -1.91836 0
M  V30 6416 H 624.655 -0.743287 -0.0743871 0
M  V30 6417 H 627.317 -1.87826 0.520336 0
M  V30 6418 H 626.413 -3.09477 -0.403803 0
M  V30 6419 N 626.714 -0.118576 -1.57153 0
M  V30 6420 C 628.125 0.40687 -1.82213 0
M  V30 6421 C 628.476 1.66636 -1.03571 0
M  V30 6422 O 627.601 2.14682 -0.272171 0
M  V30 6423 C 628.196 0.744949 -3.30509 0
M  V30 6424 C 626.755 1.21503 -3.5625 0
M  V30 6425 C 625.902 0.223511 -2.76398 0
M  V30 6426 H 628.853 -0.343712 -1.54933 0
M  V30 6427 H 628.874 1.6024 -3.45114 0
M  V30 6428 H 628.386 -0.171911 -3.87719 0
M  V30 6429 H 626.487 2.1488 -3.04396 0
M  V30 6430 H 626.6 1.16065 -4.64829 0
M  V30 6431 H 624.964 0.71046 -2.44591 0
M  V30 6432 H 625.747 -0.686439 -3.36367 0
M  V30 6433 N 628.193 1.56834 0.155195 0
M  V30 6434 C 629.156 1.96748 1.17571 0
M  V30 6435 C 630.156 0.853006 1.3631 0
M  V30 6436 O 631.346 1.11978 1.33441 0
M  V30 6437 C 628.478 2.27631 2.53765 0
M  V30 6438 H 629.671 2.88085 0.833498 0
M  V30 6439 H 627.224 1.51141 0.398242 0
M  V30 6440 H 627.959 1.39059 2.92973 0
M  V30 6441 H 627.744 3.0888 2.41527 0
M  V30 6442 H 629.234 2.59377 3.27282 0
M  V30 6443 N 629.671 -0.424282 1.51781 0
M  V30 6444 C 630.896 -1.19928 1.6921 0
M  V30 6445 C 631.321 -1.8392 0.394355 0
M  V30 6446 O 630.679 -1.69371 -0.646778 0
M  V30 6447 C 630.727 -2.24937 2.81843 0
M  V30 6448 O 629.831 -3.3073 2.46356 0
M  V30 6449 H 629.172 -0.35078 0.563781 0
M  V30 6450 H 631.702 -0.499401 1.98412 0
M  V30 6451 H 631.712 -2.69512 3.06312 0
M  V30 6452 H 630.387 -1.77742 3.76006 0
M  V30 6453 H 628.964 -2.9154 2.32505 0
M  V30 6454 N 631.149 -1.42148 -0.680565 0
M  V30 6455 C 632.56 -1.3768 -1.26099 0
M  V30 6456 C 632.911 -0.0672348 -1.96085 0
M  V30 6457 O 632.036 0.834172 -1.99676 0
M  V30 6458 C 632.631 -2.49387 -2.29328 0
M  V30 6459 C 631.19 -2.4827 -2.82911 0
M  V30 6460 C 630.337 -2.2847 -1.57152 0
M  V30 6461 H 633.288 -1.51446 -0.474326 0
M  V30 6462 H 633.309 -2.19307 -3.10941 0
M  V30 6463 H 632.821 -3.44686 -1.78363 0
M  V30 6464 H 630.922 -1.56773 -3.38013 0
M  V30 6465 H 631.035 -3.45109 -3.3232 0
M  V30 6466 H 629.399 -1.76623 -1.83511 0
M  V30 6467 H 630.182 -3.25816 -1.0816 0
M  V30 6468 N 632.627 0.916307 -1.28225 0
M  V30 6469 C 633.875 1.6619 -1.15002 0
M  V30 6470 C 634.196 1.92642 0.302329 0
M  V30 6471 O 633.466 1.54076 1.20985 0
M  V30 6472 H 632.046 0.615964 -0.422608 0
M  V30 6473 H 634.708 1.09963 -1.60917 0
M  V30 6474 H 633.804 2.62533 -1.68769 0
M  V30 6475 N 634.105 1.10431 1.1244 0
M  V30 6476 C 635.516 0.864439 1.65482 0
M  V30 6477 C 635.867 -0.60527 1.8663 0
M  V30 6478 O 634.992 -1.46492 1.59276 0
M  V30 6479 C 635.587 1.56267 3.0061 0
M  V30 6480 C 634.146 1.3695 3.50602 0
M  V30 6481 C 633.293 1.61209 2.25626 0
M  V30 6482 H 636.244 1.26203 0.962209 0
M  V30 6483 H 636.265 1.00166 3.67079 0
M  V30 6484 H 635.777 2.63231 2.85186 0
M  V30 6485 H 633.878 0.321481 3.71211 0
M  V30 6486 H 633.991 2.11143 4.30064 0
M  V30 6487 H 632.355 1.03482 2.32731 0
M  V30 6488 H 633.138 2.69425 2.12756 0
M  V30 6489 N 635.583 -1.29855 0.893053 0
M  V30 6490 C 636.513 -2.3035 0.382249 0
M  V30 6491 C 637.494 -1.61328 -0.539203 0
M  V30 6492 O 638.679 -1.88882 -0.451342 0
M  V30 6493 C 635.809 -3.45024 -0.396983 0
M  V30 6494 C 634.763 -4.258 0.433437 0
M  V30 6495 C 634.089 -5.32605 -0.472889 0
M  V30 6496 C 635.389 -4.94549 1.67984 0
M  V30 6497 H 637.083 -2.73325 1.22205 0
M  V30 6498 H 634.629 -1.314 0.589073 0
M  V30 6499 H 636.582 -4.14398 -0.765024 0
M  V30 6500 H 635.306 -3.00875 -1.2705 0
M  V30 6501 H 633.965 -3.58125 0.783723 0
M  V30 6502 H 633.613 -4.84702 -1.34435 0
M  V30 6503 H 633.313 -5.87547 0.0789958 0
M  V30 6504 H 634.837 -6.04832 -0.837269 0
M  V30 6505 H 636.251 -5.56395 1.38192 0
M  V30 6506 H 634.648 -5.59393 2.17254 0
M  V30 6507 H 635.718 -4.20215 2.41965 0
M  V30 6508 N 637.061 -0.65484 -1.43351 0
M  V30 6509 C 638.289 -0.176685 -2.06144 0
M  V30 6510 C 638.704 1.15831 -1.49093 0
M  V30 6511 O 638.061 1.71542 -0.622868 0
M  V30 6512 C 638.112 -0.0813326 -3.61408 0
M  V30 6513 O 637.833 -1.36355 -4.1634 0
M  V30 6514 C 639.334 0.422706 -4.4128 0
M  V30 6515 H 636.554 -0.0906429 -0.66485 0
M  V30 6516 H 639.098 -0.895945 -1.83829 0
M  V30 6517 H 637.253 0.588496 -3.82904 0
M  V30 6518 H 637.667 -1.22381 -5.10023 0
M  V30 6519 H 639.141 0.438375 -5.50257 0
M  V30 6520 H 639.618 1.45432 -4.14423 0
M  V30 6521 H 640.224 -0.214687 -4.24758 0
M  V30 6522 N 638.539 1.52521 -0.396863 0
M  V30 6523 C 639.486 2.26671 0.434624 0
M  V30 6524 C 640.456 1.28584 1.05144 0
M  V30 6525 O 641.641 1.57426 1.07804 0
M  V30 6526 C 638.781 3.08234 1.55196 0
M  V30 6527 C 637.894 4.21261 0.957262 0
M  V30 6528 C 637.029 4.90205 2.04627 0
M  V30 6529 C 636.068 5.95213 1.42787 0
M  V30 6530 N 635.205 6.57723 2.45651 0
M  V30 6531 H 640.045 2.973 -0.204139 0
M  V30 6532 H 637.582 1.46669 -0.112505 0
M  V30 6533 H 639.54 3.53819 2.2106 0
M  V30 6534 H 638.17 2.398 2.16092 0
M  V30 6535 H 637.222 3.79935 0.188005 0
M  V30 6536 H 638.534 4.96624 0.465416 0
M  V30 6537 H 637.688 5.39133 2.78246 0
M  V30 6538 H 636.427 4.14383 2.57174 0
M  V30 6539 H 635.432 5.45616 0.676968 0
M  V30 6540 H 636.657 6.72972 0.910255 0
M  V30 6541 H 634.603 5.84737 2.97353 0
M  V30 6542 H 634.52 7.28723 2.01243 0
M  V30 6543 H 635.788 7.11293 3.18876 0
M  V30 6544 N 640.017 0.126909 1.57088 0
M  V30 6545 C 640.949 -0.850973 2.12817 0
M  V30 6546 C 641.962 -1.22457 1.07276 0
M  V30 6547 O 643.151 -1.17215 1.34622 0
M  V30 6548 C 640.251 -2.15039 2.61938 0
M  V30 6549 C 639.424 -1.94726 3.91664 0
M  V30 6550 C 638.483 -3.0847 4.26301 0
M  V30 6551 O 637.509 -2.81038 4.94981 0
M  V30 6552 N 638.711 -4.35116 3.84259 0
M  V30 6553 H 641.476 -0.3748 2.97347 0
M  V30 6554 H 639.037 -0.0572793 1.61799 0
M  V30 6555 H 641.029 -2.90141 2.82135 0
M  V30 6556 H 639.599 -2.5398 1.82244 0
M  V30 6557 H 638.819 -1.03772 3.80296 0
M  V30 6558 H 640.107 -1.78469 4.76473 0
M  V30 6559 H 639.505 -4.60276 3.2888 0
M  V30 6560 H 638.062 -5.07064 4.09548 0
M  V30 6561 N 641.495 -1.56914 -0.146875 0
M  V30 6562 C 642.427 -1.94878 -1.20645 0
M  V30 6563 C 643.44 -0.844633 -1.39175 0
M  V30 6564 O 644.629 -1.12304 -1.38744 0
M  V30 6565 C 641.729 -2.20769 -2.57127 0
M  V30 6566 C 640.902 -3.52053 -2.59572 0
M  V30 6567 C 639.961 -3.66482 -3.77594 0
M  V30 6568 O 638.987 -4.38873 -3.62462 0
M  V30 6569 N 640.189 -3.03156 -4.95052 0
M  V30 6570 H 642.954 -2.86374 -0.883757 0
M  V30 6571 H 640.515 -1.58366 -0.336436 0
M  V30 6572 H 642.507 -2.27664 -3.34591 0
M  V30 6573 H 641.077 -1.35538 -2.81688 0
M  V30 6574 H 640.297 -3.56598 -1.68023 0
M  V30 6575 H 641.585 -4.38396 -2.58238 0
M  V30 6576 H 640.983 -2.44258 -5.10249 0
M  V30 6577 H 639.54 -3.15611 -5.70292 0
M  V30 6578 N 642.974 0.416227 -1.52004 0
M  V30 6579 C 644.199 1.19029 -1.69843 0
M  V30 6580 C 644.624 1.83708 -0.404103 0
M  V30 6581 O 643.982 1.69711 0.637787 0
M  V30 6582 C 644.03 2.23439 -2.83032 0
M  V30 6583 O 643.134 3.29419 -2.48106 0
M  V30 6584 H 642.475 0.347785 -0.565634 0
M  V30 6585 H 645.005 0.488871 -1.98674 0
M  V30 6586 H 645.015 2.67884 -3.07737 0
M  V30 6587 H 643.69 1.75745 -3.76944 0
M  V30 6588 H 642.267 2.90303 -2.34048 0
M  V30 6589 N 644.452 1.42507 0.673017 0
M  V30 6590 C 645.677 1.4668 1.46627 0
M  V30 6591 C 646.102 0.080066 1.8793 0
M  V30 6592 O 645.46 -0.921879 1.56112 0
M  V30 6593 C 645.508 2.40091 2.69051 0
M  V30 6594 O 644.612 1.8735 3.67387 0
M  V30 6595 H 643.953 0.496908 0.44043 0
M  V30 6596 H 646.483 1.87215 0.825334 0
M  V30 6597 H 646.493 2.56731 3.17101 0
M  V30 6598 H 645.168 3.4084 2.3833 0
M  V30 6599 H 643.745 1.80274 3.26429 0
M  V30 6600 N 645.93 -0.909495 1.28709 0
M  V30 6601 C 647.177 -1.65905 1.16111 0
M  V30 6602 C 647.505 -1.92334 -0.289436 0
M  V30 6603 O 646.76 -1.52495 -1.22653 0
M  V30 6604 C 647.059 -3.02117 1.90945 0
M  V30 6605 C 646.725 -2.95332 3.40719 0
M  V30 6606 C 645.387 -2.93189 3.81567 0
M  V30 6607 C 647.739 -2.85264 4.36204 0
M  V30 6608 C 645.067 -2.78784 5.16233 0
M  V30 6609 C 647.419 -2.724 5.70948 0
M  V30 6610 C 646.083 -2.68617 6.11066 0
M  V30 6611 H 645.353 -0.60709 0.42488 0
M  V30 6612 H 648 -1.05932 1.59533 0
M  V30 6613 H 646.305 -3.65901 1.40085 0
M  V30 6614 H 648.002 -3.59026 1.7861 0
M  V30 6615 H 644.592 -2.97797 3.08245 0
M  V30 6616 H 648.776 -2.86005 4.05605 0
M  V30 6617 H 644.032 -2.74254 5.46438 0
M  V30 6618 H 648.206 -2.63579 6.44592 0
M  V30 6619 H 645.833 -2.57213 7.15364 0
M  V30 6620 N 647.408 -1.11026 -1.11852 0
M  V30 6621 C 648.633 -0.879064 -1.87849 0
M  V30 6622 C 649.058 0.565406 -1.79401 0
M  V30 6623 O 648.416 1.39886 -1.15333 0
M  V30 6624 C 648.464 -1.33985 -3.34784 0
M  V30 6625 O 647.568 -0.508803 -4.09249 0
M  V30 6626 H 646.909 -0.316992 -0.583448 0
M  V30 6627 H 649.439 -1.47863 -1.41413 0
M  V30 6628 H 649.449 -1.33248 -3.85628 0
M  V30 6629 H 648.124 -2.39172 -3.40249 0
M  V30 6630 H 646.701 -0.581913 -3.68332 0
M  V30 6631 N 648.886 1.2938 -0.899927 0
M  V30 6632 C 650.163 1.9046 -0.445443 0
M  V30 6633 C 650.543 1.81683 1.07492 0
M  V30 6634 O 649.891 1.24371 1.91688 0
M  V30 6635 C 650.101 3.35529 -0.960279 0
M  V30 6636 C 651.449 4.12556 -1.00412 0
M  V30 6637 O 652.473 3.44434 -0.907965 0
M  V30 6638 O 651.332 5.34294 -1.14857 0
M  V30 6639 H 648.426 0.815253 -0.138893 0
M  V30 6640 H 650.972 1.37844 -0.989808 0
M  V30 6641 H 649.744 3.36074 -2.00425 0
M  V30 6642 H 649.367 3.95624 -0.395939 0
M  V30 6643 N 650.364 0.662433 1.43002 0
M  V30 6644 C 651.314 -0.0460442 2.27954 0
M  V30 6645 C 652.298 -0.785753 1.40409 0
M  V30 6646 O 653.49 -0.666701 1.63964 0
M  V30 6647 C 650.619 -1.00532 3.2825 0
M  V30 6648 C 649.705 -0.263604 4.2328 0
M  V30 6649 N 650.096 0.724855 5.00579 0
M  V30 6650 C 648.394 -0.503778 4.43146 0
M  V30 6651 C 649.095 1.16594 5.69895 0
M  V30 6652 N 648.071 0.498345 5.41311 0
M  V30 6653 H 651.873 0.712314 2.85137 0
M  V30 6654 H 649.387 0.490469 1.54817 0
M  V30 6655 H 651.384 -1.52775 3.87899 0
M  V30 6656 H 650.044 -1.76364 2.72628 0
M  V30 6657 H 651.055 1.10393 5.05998 0
M  V30 6658 H 647.732 -1.24255 3.98581 0
M  V30 6659 H 649.122 1.98434 6.4193 0
M  V30 6660 N 651.842 -1.52309 0.404946 0
M  V30 6661 C 652.772 -2.29805 -0.41376 0
M  V30 6662 C 653.753 -1.3384 -1.0498 0
M  V30 6663 O 654.938 -1.62745 -1.05961 0
M  V30 6664 C 652.068 -3.11639 -1.53292 0
M  V30 6665 C 651.022 -4.15616 -1.02211 0
M  V30 6666 C 650.348 -4.8577 -2.23455 0
M  V30 6667 C 651.648 -5.2224 -0.0790725 0
M  V30 6668 H 653.342 -2.98493 0.232878 0
M  V30 6669 H 650.888 -1.43552 0.113441 0
M  V30 6670 H 652.841 -3.64618 -2.11262 0
M  V30 6671 H 651.565 -2.40712 -2.20738 0
M  V30 6672 H 650.224 -3.63641 -0.46484 0
M  V30 6673 H 649.872 -4.11376 -2.89445 0
M  V30 6674 H 649.572 -5.56058 -1.89929 0
M  V30 6675 H 651.096 -5.4156 -2.82038 0
M  V30 6676 H 652.51 -5.70485 -0.567438 0
M  V30 6677 H 650.907 -5.99867 0.167167 0
M  V30 6678 H 651.977 -4.77078 0.867447 0
M  V30 6679 N 653.32 -0.135238 -1.57019 0
M  V30 6680 C 654.252 0.839675 -2.13265 0
M  V30 6681 C 655.265 1.21887 -1.07923 0
M  V30 6682 O 656.454 1.16499 -1.35241 0
M  V30 6683 C 653.554 2.13647 -2.63075 0
M  V30 6684 C 652.727 1.92646 -3.92691 0
M  V30 6685 C 651.786 3.06205 -4.27931 0
M  V30 6686 O 650.812 2.78409 -4.96465 0
M  V30 6687 N 652.014 4.33072 -3.86561 0
M  V30 6688 H 654.779 0.359026 -2.97542 0
M  V30 6689 H 652.34 0.0486979 -1.61827 0
M  V30 6690 H 654.332 2.88641 -2.8367 0
M  V30 6691 H 652.902 2.5301 -1.83588 0
M  V30 6692 H 652.122 1.01754 -3.80841 0
M  V30 6693 H 653.41 1.75939 -4.77413 0
M  V30 6694 H 652.808 4.58526 -3.31316 0
M  V30 6695 H 651.365 5.04885 -4.12231 0
M  V30 6696 N 654.798 1.5699 0.138552 0
M  V30 6697 C 655.728 2.01933 1.17241 0
M  V30 6698 C 656.709 0.90033 1.44319 0
M  V30 6699 O 657.894 1.16872 1.55095 0
M  V30 6700 C 655.024 2.40711 2.50351 0
M  V30 6701 C 653.978 3.55874 2.37776 0
M  V30 6702 C 653.304 3.80491 3.75674 0
M  V30 6703 C 654.604 4.8826 1.85472 0
M  V30 6704 H 656.298 2.88551 0.798672 0
M  V30 6705 H 653.844 1.3882 0.382743 0
M  V30 6706 H 655.797 2.70754 3.22909 0
M  V30 6707 H 654.521 1.5104 2.89576 0
M  V30 6708 H 653.18 3.2601 1.67669 0
M  V30 6709 H 652.828 2.88057 4.12349 0
M  V30 6710 H 652.528 4.57998 3.68119 0
M  V30 6711 H 654.052 4.12967 4.49767 0
M  V30 6712 H 655.466 5.16965 2.4783 0
M  V30 6713 H 653.863 5.69631 1.88787 0
M  V30 6714 H 654.933 4.78071 0.810935 0
M  V30 6715 N 656.276 -0.40816 1.52223 0
M  V30 6716 C 657.522 -1.15673 1.66576 0
M  V30 6717 C 657.855 -1.90141 0.394996 0
M  V30 6718 O 657.13 -1.84798 -0.606613 0
M  V30 6719 C 657.413 -2.15042 2.88841 0
M  V30 6720 C 657.266 -1.44465 4.25969 0
M  V30 6721 C 658.585 -3.15699 3.0663 0
M  V30 6722 H 655.704 -0.41916 0.606196 0
M  V30 6723 H 658.346 -0.442348 1.84779 0
M  V30 6724 H 656.496 -2.75964 2.73452 0
M  V30 6725 H 658.168 -0.866544 4.53088 0
M  V30 6726 H 656.411 -0.746612 4.27327 0
M  V30 6727 H 657.082 -2.16976 5.07568 0
M  V30 6728 H 659.558 -2.64854 3.20923 0
M  V30 6729 H 658.434 -3.82491 3.9369 0
M  V30 6730 H 658.695 -3.83481 2.19987 0
M  V30 6731 N 657.755 -1.42862 -0.66545 0
M  V30 6732 C 659.003 -1.43546 -1.42264 0
M  V30 6733 C 659.324 -0.0563116 -1.94919 0
M  V30 6734 O 658.594 0.906568 -1.73661 0
M  V30 6735 H 657.174 -0.528464 -0.527953 0
M  V30 6736 H 659.836 -1.78363 -0.785665 0
M  V30 6737 H 658.932 -2.14079 -2.27105 0
M  V30 6738 N 659.233 0.902656 -1.29189 0
M  V30 6739 C 660.461 1.68639 -1.19869 0
M  V30 6740 C 660.876 1.87254 0.241121 0
M  V30 6741 O 660.233 1.40745 1.16177 0
M  V30 6742 C 660.284 3.07251 -1.90471 0
M  V30 6743 O 660.005 2.89488 -3.28829 0
M  V30 6744 C 661.506 4.01653 -1.8759 0
M  V30 6745 H 658.726 0.526802 -0.415596 0
M  V30 6746 H 661.27 1.12901 -1.7051 0
M  V30 6747 H 659.425 3.59774 -1.43672 0
M  V30 6748 H 659.839 3.77296 -3.64346 0
M  V30 6749 H 661.313 4.96339 -2.4156 0
M  V30 6750 H 661.79 4.30881 -0.850756 0
M  V30 6751 H 662.396 3.55061 -2.34119 0
M  V30 6752 N 660.711 1.11618 1.11262 0
M  V30 6753 C 661.957 0.867463 1.83311 0
M  V30 6754 C 662.29 -0.605366 1.84524 0
M  V30 6755 O 661.565 -1.44704 1.29965 0
M  V30 6756 C 661.848 1.43207 3.30399 0
M  V30 6757 C 661.701 2.97265 3.3757 0
M  V30 6758 C 663.02 1.08454 4.26528 0
M  V30 6759 H 660.139 0.316578 0.665543 0
M  V30 6760 H 662.781 1.38137 1.30454 0
M  V30 6761 H 660.931 0.994982 3.75543 0
M  V30 6762 H 662.603 3.49591 3.00971 0
M  V30 6763 H 660.846 3.33237 2.77733 0
M  V30 6764 H 661.517 3.31859 4.41105 0
M  V30 6765 H 663.993 1.4619 3.89574 0
M  V30 6766 H 662.869 1.50633 5.27826 0
M  V30 6767 H 663.13 -0.00444568 4.421 0
M  V30 6768 N 662.189 -1.289 0.906776 0
M  V30 6769 C 663.139 -2.25122 0.361109 0
M  V30 6770 C 664.123 -1.52169 -0.52283 0
M  V30 6771 O 665.315 -1.73223 -0.363691 0
M  V30 6772 C 662.444 -3.40915 -0.403982 0
M  V30 6773 C 661.53 -4.21198 0.495279 0
M  V30 6774 N 661.921 -4.79636 1.60572 0
M  V30 6775 C 660.219 -4.45027 0.294372 0
M  V30 6776 C 660.92 -5.39977 2.16332 0
M  V30 6777 N 659.896 -5.23753 1.45546 0
M  V30 6778 H 663.698 -2.67869 1.20927 0
M  V30 6779 H 661.212 -1.43592 0.758632 0
M  V30 6780 H 663.209 -4.08922 -0.811695 0
M  V30 6781 H 661.869 -2.99703 -1.24932 0
M  V30 6782 H 662.88 -4.78209 1.98838 0
M  V30 6783 H 659.557 -4.14348 -0.512021 0
M  V30 6784 H 660.947 -5.96266 3.09704 0
M  V30 6785 N 663.667 -0.670007 -1.42649 0
M  V30 6786 C 664.63 0.00204659 -2.292 0
M  V30 6787 C 665.63 0.733817 -1.4308 0
M  V30 6788 O 666.82 0.57254 -1.64522 0
M  V30 6789 C 663.952 1.01359 -3.25483 0
M  V30 6790 H 665.145 -0.759696 -2.90118 0
M  V30 6791 H 662.698 -0.432105 -1.50208 0
M  V30 6792 H 663.433 1.80399 -2.69493 0
M  V30 6793 H 663.218 0.492323 -3.88997 0
M  V30 6794 H 664.708 1.4824 -3.90403 0
M  V30 6795 N 665.145 1.52092 -0.413018 0
M  V30 6796 C 666.37 2.06756 0.163338 0
M  V30 6797 C 666.795 1.28073 1.37764 0
M  V30 6798 O 666.153 0.312015 1.78595 0
M  V30 6799 C 666.201 3.57278 0.488322 0
M  V30 6800 O 665.305 3.80986 1.57871 0
M  V30 6801 H 664.646 0.663882 0.0125068 0
M  V30 6802 H 667.176 1.95988 -0.587339 0
M  V30 6803 H 667.186 4.01125 0.745836 0
M  V30 6804 H 665.861 4.13978 -0.399327 0
M  V30 6805 H 664.438 3.49017 1.31306 0
M  V30 6806 N 666.623 0.143563 1.56945 0
M  V30 6807 C 667.869 -0.50916 1.96304 0
M  V30 6808 C 668.202 -1.64741 1.0283 0
M  V30 6809 O 667.477 -1.94374 0.0700361 0
M  V30 6810 C 667.76 -1.0186 3.45393 0
M  V30 6811 C 667.613 0.117923 4.49645 0
M  V30 6812 C 668.932 -1.90151 3.96901 0
M  V30 6813 H 666.051 -0.183608 0.713763 0
M  V30 6814 H 668.693 0.224095 1.88674 0
M  V30 6815 H 666.843 -1.64345 3.52027 0
M  V30 6816 H 668.515 0.754145 4.55094 0
M  V30 6817 H 666.758 0.777568 4.26774 0
M  V30 6818 H 667.429 -0.280187 5.51288 0
M  V30 6819 H 669.905 -1.375 3.92725 0
M  V30 6820 H 668.781 -2.22707 5.0169 0
M  V30 6821 H 669.042 -2.83718 3.39052 0
M  V30 6822 N 668.101 -1.57061 -0.130224 0
M  V30 6823 C 669.512 -1.73539 -0.68856 0
M  V30 6824 C 669.863 -0.760554 -1.80859 0
M  V30 6825 O 668.988 0.0690796 -2.1629 0
M  V30 6826 C 669.583 -3.14666 -1.25581 0
M  V30 6827 C 668.142 -3.32689 -1.76055 0
M  V30 6828 C 667.289 -2.69436 -0.655712 0
M  V30 6829 H 670.24 -1.58412 0.0956002 0
M  V30 6830 H 670.261 -3.15595 -2.12556 0
M  V30 6831 H 669.773 -3.85593 -0.440412 0
M  V30 6832 H 667.874 -2.66786 -2.60108 0
M  V30 6833 H 667.987 -4.4077 -1.87772 0
M  V30 6834 H 666.351 -2.30362 -1.08654 0
M  V30 6835 H 667.134 -3.42979 0.14852 0
M  V30 6836 N 669.579 0.400081 -1.52437 0
M  V30 6837 C 670.489 1.51253 -1.79331 0
M  V30 6838 C 671.505 1.60188 -0.679396 0
M  V30 6839 O 672.681 1.76733 -0.965791 0
M  V30 6840 C 669.746 2.869 -1.94652 0
M  V30 6841 C 668.807 2.87777 -3.18564 0
M  V30 6842 C 668.04 4.16954 -3.33145 0
M  V30 6843 O 668.263 5.11329 -2.52783 0
M  V30 6844 O 667.197 4.2487 -4.26343 0
M  V30 6845 H 671.023 1.31461 -2.73773 0
M  V30 6846 H 668.608 0.586834 -1.37392 0
M  V30 6847 H 670.49 3.67336 -2.065 0
M  V30 6848 H 669.165 3.06741 -1.034 0
M  V30 6849 H 668.072 2.06162 -3.12167 0
M  V30 6850 H 669.405 2.72886 -4.09627 0
M  V30 6851 N 671.057 1.43213 0.657864 0
M  V30 6852 C 672.468 1.39669 1.23893 0
M  V30 6853 C 672.819 0.0984217 1.95953 0
M  V30 6854 O 671.944 -0.8023 2.00978 0
M  V30 6855 C 672.539 2.53004 2.25332 0
M  V30 6856 C 671.098 2.5274 2.78926 0
M  V30 6857 C 670.245 2.30941 1.53497 0
M  V30 6858 H 673.196 1.52181 0.450172 0
M  V30 6859 H 673.217 2.24226 3.07413 0
M  V30 6860 H 672.729 3.4748 1.72856 0
M  V30 6861 H 670.83 1.6213 3.35477 0
M  V30 6862 H 670.943 3.50352 3.26787 0
M  V30 6863 H 669.307 1.7952 1.80678 0
M  V30 6864 H 670.09 3.27496 1.02963 0
M  V30 6865 N 672.536 -0.895792 1.29666 0
M  V30 6866 C 673.784 -1.64339 1.17631 0
M  V30 6867 C 674.105 -1.93099 -0.271643 0
M  V30 6868 O 673.375 -1.55981 -1.18518 0
M  V30 6869 H 671.955 -0.609162 0.432354 0
M  V30 6870 H 674.617 -1.07389 1.62646 0
M  V30 6871 H 673.713 -2.59815 1.72924 0
M  V30 6872 N 674.014 -1.12206 -1.10668 0
M  V30 6873 C 674.924 -0.800686 -2.20513 0
M  V30 6874 C 675.94 0.209512 -1.72734 0
M  V30 6875 O 677.116 0.043705 -2.01353 0
M  V30 6876 C 674.181 -0.257353 -3.45744 0
M  V30 6877 C 673.242 -1.32718 -4.0827 0
M  V30 6878 C 672.475 -0.809674 -5.27522 0
M  V30 6879 O 672.698 0.35742 -5.69279 0
M  V30 6880 O 671.632 -1.57816 -5.80842 0
M  V30 6881 H 675.458 -1.71807 -2.50432 0
M  V30 6882 H 673.043 -0.898546 -1.19359 0
M  V30 6883 H 674.925 0.0408849 -4.2138 0
M  V30 6884 H 673.6 0.632627 -3.17458 0
M  V30 6885 H 672.507 -1.67855 -3.34329 0
M  V30 6886 H 673.84 -2.19083 -4.40753 0
M  V30 6887 N 675.492 1.28418 -0.913599 0
M  V30 6888 C 676.422 2.29713 -0.418847 0
M  V30 6889 C 677.403 1.62165 0.513469 0
M  V30 6890 O 678.588 1.89576 0.421235 0
M  V30 6891 C 675.718 3.45612 0.342042 0
M  V30 6892 C 674.672 4.25056 -0.501123 0
M  V30 6893 C 673.998 5.3329 0.388097 0
M  V30 6894 C 675.298 4.91814 -1.75831 0
M  V30 6895 H 676.992 2.71346 -1.26538 0
M  V30 6896 H 674.538 1.30446 -0.609903 0
M  V30 6897 H 676.491 4.15562 0.699 0
M  V30 6898 H 675.215 3.02858 1.22248 0
M  V30 6899 H 673.874 3.56833 -0.840598 0
M  V30 6900 H 673.522 4.8678 1.26707 0
M  V30 6901 H 673.222 5.87347 -0.172459 0
M  V30 6902 H 674.746 6.06088 0.74094 0
M  V30 6903 H 676.16 5.54126 -1.47026 0
M  V30 6904 H 674.557 5.55866 -2.26126 0
M  V30 6905 H 675.627 4.16313 -2.4862 0
M  V30 6906 N 676.97 0.677563 1.42291 0
M  V30 6907 C 677.917 0.000947061 2.308 0
M  V30 6908 C 678.887 -0.789889 1.46116 0
M  V30 6909 O 680.072 -0.761578 1.74942 0
M  V30 6910 C 677.212 -0.942387 3.31984 0
M  V30 6911 C 676.325 -0.14508 4.31756 0
M  V30 6912 C 675.46 -1.08442 5.20013 0
M  V30 6913 C 674.499 -0.278958 6.11464 0
M  V30 6914 N 673.636 -1.17115 6.92263 0
M  V30 6915 H 678.476 0.761521 2.88106 0
M  V30 6916 H 676.013 0.38727 1.41911 0
M  V30 6917 H 677.971 -1.50317 3.89179 0
M  V30 6918 H 676.601 -1.66956 2.76271 0
M  V30 6919 H 675.653 0.532368 3.76656 0
M  V30 6920 H 676.965 0.48015 4.96484 0
M  V30 6921 H 676.119 -1.71504 5.81955 0
M  V30 6922 H 674.858 -1.74353 4.55469 0
M  V30 6923 H 673.863 0.364856 5.48588 0
M  V30 6924 H 675.088 0.376099 6.78058 0
M  V30 6925 H 673.034 -1.81661 6.30345 0
M  V30 6926 H 672.951 -0.601063 7.53607 0
M  V30 6927 H 674.219 -1.78915 7.58689 0
M  V30 6928 N 678.448 -1.51871 0.421078 0
M  V30 6929 C 679.859 -1.86644 -0.0457991 0
M  V30 6930 C 680.21 -1.33919 -1.43388 0
M  V30 6931 O 679.335 -0.683316 -2.05328 0
M  V30 6932 C 679.93 -3.38681 -0.0898844 0
M  V30 6933 C 678.489 -3.73049 -0.501127 0
M  V30 6934 C 677.636 -2.75485 0.316723 0
M  V30 6935 H 680.587 -1.45327 0.637635 0
M  V30 6936 H 680.608 -3.69636 -0.902734 0
M  V30 6937 H 680.12 -3.77025 0.920513 0
M  V30 6938 H 678.221 -3.40288 -1.51773 0
M  V30 6939 H 678.334 -4.78512 -0.237217 0
M  V30 6940 H 676.698 -2.53725 -0.222663 0
M  V30 6941 H 677.481 -3.16671 1.32569 0
M  V30 6942 N 679.926 -0.151884 -1.56866 0
M  V30 6943 C 680.889 0.771861 -2.15812 0
M  V30 6944 C 681.889 1.17181 -1.10115 0
M  V30 6945 O 683.079 1.09194 -1.35729 0
M  V30 6946 C 680.211 2.04806 -2.7252 0
M  V30 6947 H 681.404 0.259021 -2.98779 0
M  V30 6948 H 678.957 0.097588 -1.55995 0
M  V30 6949 H 679.692 2.60445 -1.93233 0
M  V30 6950 H 679.477 1.77044 -3.49854 0
M  V30 6951 H 680.967 2.70771 -3.1792 0
M  V30 6952 N 681.404 1.57128 0.121893 0
M  V30 6953 C 682.334 2.03165 1.15092 0
M  V30 6954 C 683.315 0.915587 1.43356 0
M  V30 6955 O 684.5 1.1851 1.53847 0
M  V30 6956 C 681.63 2.43352 2.47784 0
M  V30 6957 C 680.584 3.58376 2.33989 0
M  V30 6958 C 679.91 3.84454 3.71617 0
M  V30 6959 C 681.21 4.90199 1.80283 0
M  V30 6960 H 682.904 2.89382 0.768023 0
M  V30 6961 H 680.45 1.39218 0.367998 0
M  V30 6962 H 682.403 2.74163 3.20019 0
M  V30 6963 H 681.127 1.54103 2.87958 0
M  V30 6964 H 679.786 3.2777 1.64202 0
M  V30 6965 H 679.434 2.92414 4.09271 0
M  V30 6966 H 679.134 4.61877 3.6324 0
M  V30 6967 H 680.658 4.17714 4.45362 0
M  V30 6968 H 682.072 5.19565 2.42333 0
M  V30 6969 H 680.469 5.71601 1.82735 0
M  V30 6970 H 681.539 4.78904 0.760184 0
M  V30 6971 N 682.882 -0.391992 1.52647 0
M  V30 6972 C 684.298 -0.731848 1.41831 0
M  V30 6973 C 684.498 -1.9423 0.536361 0
M  V30 6974 O 683.554 -2.52499 0.00866571 0
M  V30 6975 C 684.867 -0.969743 2.84634 0
M  V30 6976 C 686.415 -1.0714 2.94092 0
M  V30 6977 C 686.89 -1.34195 4.37899 0
M  V30 6978 N 688.381 -1.41023 4.41211 0
M  V30 6979 C 689.116 -1.63616 5.49561 0
M  V30 6980 N 688.612 -1.83699 6.68002 0
M  V30 6981 N 690.405 -1.65771 5.371 0
M  V30 6982 H 682.556 0.404547 2.08512 0
M  V30 6983 H 684.819 0.11879 0.940528 0
M  V30 6984 H 684.525 -0.152465 3.51369 0
M  V30 6985 H 684.399 -1.88523 3.26709 0
M  V30 6986 H 686.786 -1.87925 2.27526 0
M  V30 6987 H 686.867 -0.133887 2.55449 0
M  V30 6988 H 686.511 -0.539207 5.0503 0
M  V30 6989 H 686.441 -2.29226 4.74092 0
M  V30 6990 H 688.932 -1.27223 3.55841 0
M  V30 6991 H 689.245 -2.00437 7.46354 0
M  V30 6992 H 687.59 -1.8093 6.71036 0
M  V30 6993 H 690.781 -1.4963 4.43541 0
M  V30 6994 H 690.954 -1.83038 6.21612 0
M  V30 6995 N 684.36 -1.4356 -0.65026 0
M  V30 6996 C 685.771 -1.40324 -1.2315 0
M  V30 6997 C 686.122 -0.108812 -1.95898 0
M  V30 6998 O 685.247 0.79163 -2.01401 0
M  V30 6999 C 685.842 -2.54195 -2.23987 0
M  V30 7000 C 684.401 -2.54215 -2.77582 0
M  V30 7001 C 683.548 -2.31752 -1.5227 0
M  V30 7002 H 686.499 -1.52418 -0.442095 0
M  V30 7003 H 686.52 -2.25854 -3.0622 0
M  V30 7004 H 686.032 -3.48392 -1.71011 0
M  V30 7005 H 684.133 -1.63907 -3.34612 0
M  V30 7006 H 684.246 -3.52081 -3.24925 0
M  V30 7007 H 682.61 -1.80476 -1.79723 0
M  V30 7008 H 683.393 -3.28037 -1.01225 0
M  V30 7009 N 685.838 0.888903 -1.30139 0
M  V30 7010 C 687.068 1.67115 -1.21474 0
M  V30 7011 C 687.476 1.87852 0.225472 0
M  V30 7012 O 686.819 1.42324 1.16145 0
M  V30 7013 C 686.881 3.0713 -1.86846 0
M  V30 7014 C 686.545 3.09582 -3.36167 0
M  V30 7015 C 687.542 2.88929 -4.32222 0
M  V30 7016 C 685.227 3.31304 -3.77549 0
M  V30 7017 C 687.221 2.89949 -5.67634 0
M  V30 7018 C 684.908 3.31954 -5.13079 0
M  V30 7019 C 685.906 3.113 -6.07932 0
M  V30 7020 O 685.594 3.11758 -7.40987 0
M  V30 7021 H 685.326 0.528372 -0.421662 0
M  V30 7022 H 687.88 1.11919 -1.7223 0
M  V30 7023 H 686.11 3.63973 -1.30615 0
M  V30 7024 H 687.799 3.6749 -1.72354 0
M  V30 7025 H 688.565 2.71948 -4.01584 0
M  V30 7026 H 684.444 3.46417 -3.04165 0
M  V30 7027 H 687.988 2.73746 -6.41645 0
M  V30 7028 H 683.885 3.48469 -5.43359 0
M  V30 7029 H 684.653 3.27951 -7.49927 0
M  V30 7030 N 687.317 1.12792 1.10072 0
M  V30 7031 C 688.247 0.821688 2.18565 0
M  V30 7032 C 689.228 -0.21612 1.68721 0
M  V30 7033 O 690.413 -0.0764932 1.94049 0
M  V30 7034 C 687.543 0.279624 3.46172 0
M  V30 7035 C 686.497 1.25092 4.09312 0
M  V30 7036 C 685.823 0.568916 5.31665 0
M  V30 7037 C 687.123 2.60699 4.52585 0
M  V30 7038 H 688.817 1.72888 2.44438 0
M  V30 7039 H 686.363 0.832702 1.17482 0
M  V30 7040 H 688.316 0.053099 4.21367 0
M  V30 7041 H 687.04 -0.662929 3.19801 0
M  V30 7042 H 685.699 1.46332 3.36129 0
M  V30 7043 H 685.347 -0.378898 5.01571 0
M  V30 7044 H 685.047 1.21687 5.74862 0
M  V30 7045 H 686.571 0.351517 6.09587 0
M  V30 7046 H 687.985 2.43465 5.19035 0
M  V30 7047 H 686.382 3.21608 5.06644 0
M  V30 7048 H 687.452 3.1886 3.65317 0
M  V30 7049 N 688.795 -1.27931 0.920396 0
M  V30 7050 C 690.043 -1.94304 0.555906 0
M  V30 7051 C 690.364 -1.72753 -0.904519 0
M  V30 7052 O 689.634 -1.07104 -1.64029 0
M  V30 7053 H 688.214 -0.719001 0.202599 0
M  V30 7054 H 690.876 -1.55785 1.1712 0
M  V30 7055 H 689.972 -3.02806 0.755981 0
M  V30 7056 N 690.273 -0.685099 -1.4193 0
M  V30 7057 C 691.52 -0.211658 -2.01391 0
M  V30 7058 C 691.848 1.18526 -1.54214 0
M  V30 7059 O 691.103 1.81189 -0.739519 0
M  V30 7060 C 691.402 -0.206154 -3.56805 0
M  V30 7061 C 691.068 -1.54915 -4.23453 0
M  V30 7062 C 689.73 -1.91684 -4.41373 0
M  V30 7063 C 692.082 -2.43317 -4.60919 0
M  V30 7064 C 689.41 -3.16461 -4.94034 0
M  V30 7065 C 691.762 -3.67415 -5.14965 0
M  V30 7066 C 690.426 -4.04341 -5.31098 0
M  V30 7067 H 689.696 -0.0774511 -0.736941 0
M  V30 7068 H 692.343 -0.882121 -1.69973 0
M  V30 7069 H 690.648 0.547841 -3.87951 0
M  V30 7070 H 692.345 0.17753 -4.00607 0
M  V30 7071 H 688.935 -1.25314 -4.09871 0
M  V30 7072 H 693.119 -2.16192 -4.46738 0
M  V30 7073 H 688.375 -3.45078 -5.04709 0
M  V30 7074 H 692.549 -4.3611 -5.42938 0
M  V30 7075 H 690.176 -5.01101 -5.71666 0
M  V30 7076 N 691.751 1.51645 -0.429126 0
M  V30 7077 C 692.681 2.30434 0.377148 0
M  V30 7078 C 693.662 1.35493 1.02838 0
M  V30 7079 O 694.847 1.6441 1.03359 0
M  V30 7080 C 691.977 3.14038 1.48315 0
M  V30 7081 C 690.931 4.1719 0.955855 0
M  V30 7082 C 690.257 4.89263 2.15698 0
M  V30 7083 C 691.557 5.223 -0.00402136 0
M  V30 7084 H 693.251 2.98085 -0.280336 0
M  V30 7085 H 690.797 1.43354 -0.136265 0
M  V30 7086 H 692.75 3.67933 2.05435 0
M  V30 7087 H 691.474 2.44193 2.16881 0
M  V30 7088 H 690.133 3.64335 0.406929 0
M  V30 7089 H 689.781 4.15929 2.82864 0
M  V30 7090 H 689.481 5.59009 1.81059 0
M  V30 7091 H 691.005 5.45978 2.73387 0
M  V30 7092 H 692.419 5.71315 0.476607 0
M  V30 7093 H 690.816 5.99525 -0.26258 0
M  V30 7094 H 691.886 4.75638 -0.943236 0
M  V30 7095 N 693.229 0.160201 1.56784 0
M  V30 7096 C 694.506 -0.533355 1.88188 0
M  V30 7097 C 694.886 -1.82072 1.06831 0
M  V30 7098 O 694.234 -2.27946 0.158959 0
M  V30 7099 C 694.444 -0.786034 3.40033 0
M  V30 7100 C 695.792 -1.12097 4.09536 0
M  V30 7101 O 696.816 -0.874949 3.45287 0
M  V30 7102 O 695.675 -1.58457 5.23023 0
M  V30 7103 H 692.769 -0.273589 0.780434 0
M  V30 7104 H 695.315 0.197803 1.68543 0
M  V30 7105 H 694.087 0.124515 3.91102 0
M  V30 7106 H 693.71 -1.57091 3.65251 0
M  V30 7107 N 694.707 -1.5719 -0.113559 0
M  V30 7108 C 695.955 -1.84772 -0.818761 0
M  V30 7109 C 696.276 -0.746196 -1.80158 0
M  V30 7110 O 695.546 0.229305 -1.94553 0
M  V30 7111 H 694.126 -0.681737 -0.305359 0
M  V30 7112 H 696.788 -1.94645 -0.0995845 0
M  V30 7113 H 695.884 -2.80878 -1.36067 0
M  V30 7114 N 696.185 0.383891 -1.52853 0
M  V30 7115 C 697.415 1.14783 -1.7178 0
M  V30 7116 C 697.823 1.84055 -0.438211 0
M  V30 7117 O 697.166 1.73713 0.597465 0
M  V30 7118 C 697.228 2.23543 -2.81547 0
M  V30 7119 C 696.892 1.74195 -4.22499 0
M  V30 7120 C 697.889 1.21591 -5.05481 0
M  V30 7121 C 695.574 1.80262 -4.6884 0
M  V30 7122 C 697.568 0.757104 -6.32888 0
M  V30 7123 C 695.255 1.33993 -5.96229 0
M  V30 7124 C 696.253 0.818049 -6.78083 0
M  V30 7125 O 695.941 0.362123 -8.03084 0
M  V30 7126 H 695.673 0.349908 -0.578395 0
M  V30 7127 H 698.227 0.454377 -2.00311 0
M  V30 7128 H 696.457 2.96328 -2.48449 0
M  V30 7129 H 698.146 2.8519 -2.88828 0
M  V30 7130 H 698.912 1.16257 -4.7086 0
M  V30 7131 H 694.791 2.19825 -4.05213 0
M  V30 7132 H 698.335 0.34908 -6.96726 0
M  V30 7133 H 694.232 1.39015 -6.30353 0
M  V30 7134 H 695 0.483134 -8.17073 0
M  V30 7135 N 697.663 1.43903 0.642637 0
M  V30 7136 C 698.888 1.49758 1.43483 0
M  V30 7137 C 699.313 0.119911 1.87717 0
M  V30 7138 O 698.671 -0.888558 1.58033 0
M  V30 7139 C 698.719 2.45744 2.63898 0
M  V30 7140 O 697.823 1.95101 3.63331 0
M  V30 7141 H 697.164 0.506138 0.429791 0
M  V30 7142 H 699.694 1.88923 0.785438 0
M  V30 7143 H 699.704 2.63399 3.11584 0
M  V30 7144 H 698.379 3.45818 2.31046 0
M  V30 7145 H 696.956 1.87158 3.22531 0
M  V30 7146 N 699.141 -0.881989 1.30609 0
M  V30 7147 C 700.552 -1.44956 1.17664 0
M  V30 7148 C 700.903 -1.94945 -0.221531 0
M  V30 7149 O 700.028 -1.85257 -1.11844 0
M  V30 7150 C 700.623 -2.63474 2.12995 0
M  V30 7151 C 699.182 -3.16312 2.04019 0
M  V30 7152 C 698.329 -1.89008 2.02907 0
M  V30 7153 H 701.28 -0.691645 1.42835 0
M  V30 7154 H 701.301 -3.39783 1.71253 0
M  V30 7155 H 700.813 -2.2706 3.14746 0
M  V30 7156 H 698.914 -3.57376 1.0542 0
M  V30 7157 H 699.027 -3.79409 2.9255 0
M  V30 7158 H 697.391 -2.07465 1.47751 0
M  V30 7159 H 698.174 -1.54848 3.06394 0
M  V30 7160 N 700.619 -1.13374 -1.09472 0
M  V30 7161 C 701.867 -0.893422 -1.8128 0
M  V30 7162 C 702.188 0.582029 -1.86111 0
M  V30 7163 O 701.458 1.42305 -1.34633 0
M  V30 7164 H 700.038 -0.327543 -0.67136 0
M  V30 7165 H 702.7 -1.43018 -1.32408 0
M  V30 7166 H 701.796 -1.28374 -2.84476 0
M  V30 7167 N 702.098 1.27442 -0.927168 0
M  V30 7168 C 703.061 2.2512 -0.430525 0
M  V30 7169 C 704.061 1.54357 0.450619 0
M  V30 7170 O 705.251 1.72371 0.251774 0
M  V30 7171 C 702.383 3.38763 0.381144 0
M  V30 7172 H 703.576 2.70569 -1.29354 0
M  V30 7173 H 701.129 1.39355 -0.707806 0
M  V30 7174 H 701.864 2.98695 1.263 0
M  V30 7175 H 701.649 3.91298 -0.250618 0
M  V30 7176 H 703.139 4.11364 0.719012 0
M  V30 7177 N 703.576 0.692616 1.41565 0
M  V30 7178 C 704.822 0.222664 2.01574 0
M  V30 7179 C 705.155 -1.1737 1.54719 0
M  V30 7180 O 704.43 -1.79161 0.757084 0
M  V30 7181 C 704.713 0.277064 3.59033 0
M  V30 7182 C 704.566 1.71016 4.16021 0
M  V30 7183 C 705.885 -0.36479 4.38586 0
M  V30 7184 H 703.004 0.0823839 0.732381 0
M  V30 7185 H 705.646 0.880778 1.68352 0
M  V30 7186 H 703.796 -0.283288 3.87466 0
M  V30 7187 H 705.468 2.32413 3.98475 0
M  V30 7188 H 703.711 2.24525 3.71175 0
M  V30 7189 H 704.382 1.69978 5.25178 0
M  V30 7190 H 706.858 0.112404 4.15948 0
M  V30 7191 H 705.734 -0.296169 5.481 0
M  V30 7192 H 705.995 -1.44506 4.17816 0
M  V30 7193 N 705.054 -1.51416 0.437162 0
M  V30 7194 C 706.3 -2.02386 -0.129555 0
M  V30 7195 C 706.633 -1.32071 -1.42376 0
M  V30 7196 O 705.908 -0.43559 -1.8956 0
M  V30 7197 C 706.191 -3.5841 -0.348487 0
M  V30 7198 C 706.044 -4.39341 0.964352 0
M  V30 7199 C 707.363 -4.25654 -1.11834 0
M  V30 7200 H 704.482 -0.735587 -0.0456109 0
M  V30 7201 H 707.124 -1.81055 0.576124 0
M  V30 7202 H 705.274 -3.76716 -0.949592 0
M  V30 7203 H 706.946 -4.32685 1.59942 0
M  V30 7204 H 705.189 -4.04432 1.56898 0
M  V30 7205 H 705.86 -5.4667 0.765212 0
M  V30 7206 H 708.336 -4.11617 -0.609165 0
M  V30 7207 H 707.212 -5.34704 -1.24029 0
M  V30 7208 H 707.473 -3.86502 -2.14636 0
M  V30 7209 N 706.532 -0.168513 -1.56696 0
M  V30 7210 C 707.76 0.483503 -2.01171 0
M  V30 7211 C 708.175 1.56994 -1.04872 0
M  V30 7212 O 707.532 1.82434 -0.0491337 0
M  V30 7213 C 707.583 1.0644 -3.45475 0
M  V30 7214 O 707.304 0.0213375 -4.38095 0
M  V30 7215 C 708.805 1.79493 -4.05336 0
M  V30 7216 H 706.025 0.124002 -0.659443 0
M  V30 7217 H 708.569 -0.269419 -2.02717 0
M  V30 7218 H 706.724 1.76784 -3.44712 0
M  V30 7219 H 707.138 0.449837 -5.22567 0
M  V30 7220 H 708.612 2.15401 -5.08238 0
M  V30 7221 H 709.089 2.68889 -3.47269 0
M  V30 7222 H 709.695 1.13798 -4.09793 0
M  V30 7223 N 708.01 1.57248 0.105221 0
M  V30 7224 C 709.256 1.86719 0.806692 0
M  V30 7225 C 709.611 0.758061 1.76837 0
M  V30 7226 O 708.904 -0.240812 1.90081 0
M  V30 7227 C 709.098 3.20437 1.58287 0
M  V30 7228 C 708.927 4.44252 0.697864 0
M  V30 7229 C 707.697 5.04104 0.347444 0
M  V30 7230 C 709.895 5.14299 0.00933014 0
M  V30 7231 N 707.877 6.1146 -0.546786 0
M  V30 7232 C 709.248 6.15528 -0.74336 0
M  V30 7233 C 711.303 4.97857 -0.0656505 0
M  V30 7234 C 710.006 7.02091 -1.56401 0
M  V30 7235 C 712.032 5.84919 -0.873167 0
M  V30 7236 C 711.394 6.8566 -1.61401 0
M  V30 7237 H 707.493 0.73329 0.271679 0
M  V30 7238 H 710.077 1.94575 0.0697152 0
M  V30 7239 H 708.248 3.13651 2.29079 0
M  V30 7240 H 709.98 3.37668 2.23075 0
M  V30 7241 H 706.735 4.68505 0.692817 0
M  V30 7242 H 707.159 6.69779 -0.986157 0
M  V30 7243 H 711.801 4.19919 0.492768 0
M  V30 7244 H 709.519 7.79427 -2.13353 0
M  V30 7245 H 713.105 5.74259 -0.933724 0
M  V30 7246 H 711.985 7.5186 -2.2288 0
M  V30 7247 N 709.488 -0.375779 1.53054 0
M  V30 7248 C 710.451 -1.44254 1.7811 0
M  V30 7249 C 711.451 -1.47018 0.651328 0
M  V30 7250 O 712.641 -1.47957 0.919472 0
M  V30 7251 C 709.773 -2.8345 1.89391 0
M  V30 7252 H 710.966 -1.23316 2.73374 0
M  V30 7253 H 708.519 -0.608312 1.43977 0
M  V30 7254 H 709.254 -3.09716 0.961589 0
M  V30 7255 H 709.039 -2.82844 2.71555 0
M  V30 7256 H 710.529 -3.60722 2.10404 0
M  V30 7257 N 710.966 -1.44241 -0.634997 0
M  V30 7258 C 711.896 -1.53632 -1.7584 0
M  V30 7259 C 712.877 -0.389603 -1.65578 0
M  V30 7260 O 714.062 -0.609219 -1.84397 0
M  V30 7261 C 711.192 -1.47644 -3.14354 0
M  V30 7262 C 710.146 -2.60752 -3.394 0
M  V30 7263 C 709.472 -2.39817 -4.77904 0
M  V30 7264 C 710.772 -4.02921 -3.32343 0
M  V30 7265 H 712.466 -2.47662 -1.68238 0
M  V30 7266 H 710.012 -1.19197 -0.807969 0
M  V30 7267 H 711.965 -1.52815 -3.92716 0
M  V30 7268 H 710.689 -0.501284 -3.2273 0
M  V30 7269 H 709.348 -2.54965 -2.63417 0
M  V30 7270 H 708.996 -1.40502 -4.82978 0
M  V30 7271 H 708.696 -3.15649 -4.9562 0
M  V30 7272 H 710.22 -2.46799 -5.585 0
M  V30 7273 H 711.634 -4.10098 -4.00615 0
M  V30 7274 H 710.031 -4.78925 -3.61595 0
M  V30 7275 H 711.101 -4.26766 -2.30215 0
M  V30 7276 N 712.444 0.87505 -1.31075 0
M  V30 7277 C 713.692 1.62447 -1.20231 0
M  V30 7278 C 714.013 1.93506 0.240888 0
M  V30 7279 O 713.283 1.57847 1.16022 0
M  V30 7280 H 711.863 0.602207 -0.441991 0
M  V30 7281 H 714.525 1.04788 -1.64334 0
M  V30 7282 H 713.621 2.57031 -1.77036 0
M  V30 7283 N 713.922 1.13953 1.08869 0
M  V30 7284 C 715.168 0.906151 1.8143 0
M  V30 7285 C 715.501 -0.566089 1.85766 0
M  V30 7286 O 714.776 -1.41915 1.33006 0
M  V30 7287 C 715.059 1.50183 3.27287 0
M  V30 7288 C 714.912 3.04359 3.31189 0
M  V30 7289 C 716.231 1.17477 4.24131 0
M  V30 7290 H 713.35 0.330624 0.658678 0
M  V30 7291 H 715.992 1.40873 1.27495 0
M  V30 7292 H 714.142 1.07442 3.73348 0
M  V30 7293 H 715.814 3.55896 2.93488 0
M  V30 7294 H 714.057 3.39053 2.70602 0
M  V30 7295 H 714.728 3.41141 4.33966 0
M  V30 7296 H 717.204 1.5442 3.86385 0
M  V30 7297 H 716.08 1.61795 5.24513 0
M  V30 7298 H 716.341 0.0893312 4.4201 0
M  V30 7299 N 715.4 -1.26948 0.933913 0
M  V30 7300 C 716.333 -2.24977 0.382169 0
M  V30 7301 C 717.311 -1.53893 -0.524949 0
M  V30 7302 O 718.495 -1.82699 -0.464048 0
M  V30 7303 C 715.622 -3.35676 -0.451615 0
M  V30 7304 C 714.668 -4.24686 0.392947 0
M  V30 7305 S 715.501 -5.03898 1.81237 0
M  V30 7306 C 716.657 -6.18078 0.986443 0
M  V30 7307 H 716.89 -2.71429 1.21299 0
M  V30 7308 H 714.423 -1.35701 0.736523 0
M  V30 7309 H 716.381 -3.99901 -0.926797 0
M  V30 7310 H 715.042 -2.8785 -1.25703 0
M  V30 7311 H 714.235 -5.03402 -0.245533 0
M  V30 7312 H 713.837 -3.65288 0.802537 0
M  V30 7313 H 716.129 -6.77125 0.225321 0
M  V30 7314 H 717.072 -6.86216 1.74682 0
M  V30 7315 H 717.48 -5.62047 0.525711 0
M  V30 7316 N 716.879 -0.700114 -1.41195 0
M  V30 7317 C 717.809 -0.0521132 -2.33442 0
M  V30 7318 C 718.79 0.76228 -1.52063 0
M  V30 7319 O 719.975 0.714336 -1.80585 0
M  V30 7320 C 717.105 0.881693 -3.35922 0
M  V30 7321 C 716.059 0.174062 -4.27646 0
M  V30 7322 C 715.385 1.22254 -5.20536 0
M  V30 7323 C 716.685 -0.962396 -5.13357 0
M  V30 7324 H 718.379 -0.822574 -2.87879 0
M  V30 7325 H 715.925 -0.397011 -1.38419 0
M  V30 7326 H 717.878 1.34429 -3.99383 0
M  V30 7327 H 716.602 1.68387 -2.79845 0
M  V30 7328 H 715.261 -0.268551 -3.65615 0
M  V30 7329 H 714.909 2.01736 -4.60773 0
M  V30 7330 H 714.609 0.754038 -5.82742 0
M  V30 7331 H 716.133 1.68555 -5.86874 0
M  V30 7332 H 717.547 -0.579875 -5.7036 0
M  V30 7333 H 715.944 -1.35828 -5.84526 0
M  V30 7334 H 717.014 -1.80003 -4.50252 0
M  V30 7335 N 718.357 1.51182 -0.445186 0
M  V30 7336 C 719.32 2.26501 0.350722 0
M  V30 7337 C 720.32 1.3025 0.942952 0
M  V30 7338 O 721.51 1.53897 0.816175 0
M  V30 7339 C 718.642 3.06274 1.49697 0
M  V30 7340 H 719.835 2.98299 -0.309474 0
M  V30 7341 H 717.388 1.55034 -0.198551 0
M  V30 7342 H 718.123 2.38911 2.19299 0
M  V30 7343 H 717.908 3.76979 1.0784 0
M  V30 7344 H 719.398 3.63306 2.05909 0
M  V30 7345 N 719.835 0.176821 1.56605 0
M  V30 7346 C 721.06 -0.47599 2.01864 0
M  V30 7347 C 721.485 -1.55645 1.05623 0
M  V30 7348 O 720.843 -1.81263 0.0366729 0
M  V30 7349 C 720.891 -1.02619 3.4569 0
M  V30 7350 O 719.995 -2.13996 3.52533 0
M  V30 7351 H 719.336 -0.113363 0.654251 0
M  V30 7352 H 721.866 0.28233 2.02643 0
M  V30 7353 H 721.876 -1.34742 3.85109 0
M  V30 7354 H 720.551 -0.235138 4.15235 0
M  V30 7355 H 719.128 -1.82876 3.24978 0
M  V30 7356 N 721.313 -1.57302 -0.09688 0
M  V30 7357 C 722.276 -2.00976 -1.10188 0
M  V30 7358 C 723.276 -0.903009 -1.3305 0
M  V30 7359 O 724.466 -1.16853 -1.29194 0
M  V30 7360 C 721.598 -2.36893 -2.45142 0
M  V30 7361 H 722.791 -2.9098 -0.726003 0
M  V30 7362 H 720.344 -1.52515 -0.341872 0
M  V30 7363 H 721.079 -1.49837 -2.8761 0
M  V30 7364 H 720.864 -3.17632 -2.29897 0
M  V30 7365 H 722.354 -2.71345 -3.1743 0
M  V30 7366 N 722.791 0.367657 -1.53252 0
M  V30 7367 C 724.04 1.10782 -1.68554 0
M  V30 7368 C 724.353 1.90523 -0.442765 0
M  V30 7369 O 725.559 2.6729 -0.47629 0
M  V30 7370 C 724.015 2.01863 -2.97959 0
M  V30 7371 C 723.623 1.27443 -4.29491 0
M  V30 7372 C 725.367 2.75883 -3.22628 0
M  V30 7373 C 723.274 2.17414 -5.49987 0
M  V30 7374 H 722.204 0.417272 -0.628013 0
M  V30 7375 H 724.855 0.368971 -1.79752 0
M  V30 7376 H 723.237 2.7947 -2.80558 0
M  V30 7377 H 724.411 0.549138 -4.57516 0
M  V30 7378 H 722.726 0.652935 -4.11249 0
M  V30 7379 H 725.323 3.43421 -4.09837 0
M  V30 7380 H 725.666 3.41138 -2.38601 0
M  V30 7381 H 726.199 2.0536 -3.40693 0
M  V30 7382 H 722.938 1.5674 -6.36485 0
M  V30 7383 H 722.458 2.87799 -5.26243 0
M  V30 7384 H 724.137 2.77019 -5.84696 0
M  V30 7385 N 724.269 1.44576 0.627338 0
M  V30 7386 C 725.497 1.51048 1.41394 0
M  V30 7387 C 725.912 0.136568 1.88305 0
M  V30 7388 O 725.269 -0.858251 1.6106 0
M  V30 7389 C 725.32 2.47837 2.63172 0
M  V30 7390 O 725.041 3.79887 2.18215 0
M  V30 7391 C 726.542 2.63811 3.56257 0
M  V30 7392 H 723.762 0.512171 0.4335 0
M  V30 7393 H 726.306 1.89576 0.766878 0
M  V30 7394 H 724.461 2.12433 3.23961 0
M  V30 7395 H 724.875 4.32177 2.97192 0
M  V30 7396 H 726.349 3.35554 4.38301 0
M  V30 7397 H 726.826 1.69169 4.05313 0
M  V30 7398 H 727.432 3.0013 3.01333 0
M  V30 7399 N 725.747 -0.868086 1.31537 0
M  V30 7400 C 726.996 -1.61607 1.20689 0
M  V30 7401 C 727.309 -1.94204 -0.233275 0
M  V30 7402 O 728.515 -2.67515 -0.463465 0
M  V30 7403 C 726.971 -2.91348 2.11292 0
M  V30 7404 C 726.579 -2.66227 3.60315 0
M  V30 7405 C 728.323 -3.69344 2.09249 0
M  V30 7406 C 726.23 -3.91887 4.42921 0
M  V30 7407 H 725.16 -0.606373 0.448138 0
M  V30 7408 H 727.811 -0.959666 1.56405 0
M  V30 7409 H 726.193 -3.58374 1.68477 0
M  V30 7410 H 727.367 -2.07597 4.11388 0
M  V30 7411 H 725.682 -2.01582 3.64354 0
M  V30 7412 H 728.279 -4.62567 2.68209 0
M  V30 7413 H 728.622 -4.02044 1.0801 0
M  V30 7414 H 729.155 -3.09205 2.50274 0
M  V30 7415 H 725.894 -3.64336 5.44922 0
M  V30 7416 H 725.414 -4.49961 3.96605 0
M  V30 7417 H 727.093 -4.59754 4.55231 0
M  V30 7418 N 727.225 -1.14528 -1.08264 0
M  V30 7419 C 728.473 -0.912599 -1.80322 0
M  V30 7420 C 728.794 0.562256 -1.86718 0
M  V30 7421 O 728.064 1.40869 -1.36135 0
M  V30 7422 H 726.644 -0.334645 -0.667849 0
M  V30 7423 H 729.306 -1.44415 -1.30883 0
M  V30 7424 H 728.402 -1.31384 -2.83098 0
M  V30 7425 N 728.703 1.26451 -0.940633 0
M  V30 7426 C 729.943 1.95537 -0.595381 0
M  V30 7427 C 730.307 1.72175 0.849683 0
M  V30 7428 O 731.508 2.3506 1.30384 0
M  V30 7429 C 729.779 3.45151 -0.927669 0
M  V30 7430 S 731.338 4.33295 -0.69288 0
M  V30 7431 H 728.156 0.676331 -0.219311 0
M  V30 7432 H 730.758 1.53411 -1.21183 0
M  V30 7433 H 729.462 3.59654 -1.9768 0
M  V30 7434 H 728.993 3.92247 -0.300921 0
M  V30 7435 H 731.008 4.94217 0.443175 0
M  V30 7436 N 730.181 0.707592 1.40822 0
M  V30 7437 C 731.427 0.244031 2.01326 0
M  V30 7438 C 731.76 -1.15722 1.55955 0
M  V30 7439 O 731.035 -1.78347 0.776044 0
M  V30 7440 C 731.318 0.315128 3.58718 0
M  V30 7441 C 731.171 1.75419 4.14184 0
M  V30 7442 C 732.49 -0.318251 4.38948 0
M  V30 7443 H 729.609 0.0901471 0.731466 0
M  V30 7444 H 732.251 0.898584 1.67408 0
M  V30 7445 H 730.401 -0.242176 3.87744 0
M  V30 7446 H 732.073 2.36626 3.95987 0
M  V30 7447 H 730.316 2.28449 3.68773 0
M  V30 7448 H 730.987 1.75538 5.23345 0
M  V30 7449 H 733.463 0.156514 4.15806 0
M  V30 7450 H 732.339 -0.238019 5.48384 0
M  V30 7451 H 732.6 -1.40067 4.19325 0
M  V30 7452 N 731.66 -1.50943 0.453197 0
M  V30 7453 C 732.59 -2.31005 -0.34044 0
M  V30 7454 C 733.571 -1.37112 -1.00669 0
M  V30 7455 O 734.756 -1.66033 -1.0073 0
M  V30 7456 C 731.886 -3.16358 -1.433 0
M  V30 7457 C 730.84 -4.18658 -0.889363 0
M  V30 7458 C 730.166 -4.92633 -2.07887 0
M  V30 7459 C 731.466 -5.22227 0.0871142 0
M  V30 7460 H 733.16 -2.97601 0.327723 0
M  V30 7461 H 730.706 -1.43119 0.159054 0
M  V30 7462 H 732.659 -3.71155 -1.99555 0
M  V30 7463 H 731.383 -2.47613 -2.12968 0
M  V30 7464 H 730.042 -3.64936 -0.348915 0
M  V30 7465 H 729.69 -4.20376 -2.76211 0
M  V30 7466 H 729.39 -5.61819 -1.72143 0
M  V30 7467 H 730.914 -5.50258 -2.64666 0
M  V30 7468 H 732.328 -5.72001 -0.385656 0
M  V30 7469 H 730.725 -5.99032 0.357926 0
M  V30 7470 H 731.795 -4.74077 1.01879 0
M  V30 7471 N 733.138 -0.185124 -1.56509 0
M  V30 7472 C 734.384 0.456934 -1.97585 0
M  V30 7473 C 734.717 1.61957 -1.07161 0
M  V30 7474 O 733.992 1.9412 -0.121546 0
M  V30 7475 C 734.275 0.926666 -3.47973 0
M  V30 7476 C 734.128 -0.237097 -4.49175 0
M  V30 7477 C 735.447 1.79561 -4.01803 0
M  V30 7478 H 732.566 0.164619 -0.71838 0
M  V30 7479 H 735.208 -0.274039 -1.88013 0
M  V30 7480 H 733.358 1.54954 -3.56261 0
M  V30 7481 H 735.03 -0.87454 -4.52934 0
M  V30 7482 H 733.273 -0.890446 -4.24563 0
M  V30 7483 H 733.944 0.133924 -5.51838 0
M  V30 7484 H 736.42 1.27039 -3.96232 0
M  V30 7485 H 735.296 2.09327 -5.07418 0
M  V30 7486 H 735.557 2.74629 -3.46455 0
M  V30 7487 N 734.616 1.57351 0.0885366 0
M  V30 7488 C 735.863 1.86419 0.790824 0
M  V30 7489 C 736.191 0.774561 1.78412 0
M  V30 7490 O 735.446 -0.23119 1.9433 0
M  V30 7491 C 735.745 3.22098 1.5488 0
M  V30 7492 C 735.411 4.4548 0.697025 0
M  V30 7493 C 734.073 4.78975 0.462237 0
M  V30 7494 C 736.425 5.21094 0.105315 0
M  V30 7495 C 733.753 5.85507 -0.374016 0
M  V30 7496 C 736.105 6.28509 -0.718298 0
M  V30 7497 C 734.769 6.60515 -0.963116 0
M  V30 7498 H 734.039 0.682157 0.289383 0
M  V30 7499 H 736.686 1.91429 0.0520961 0
M  V30 7500 H 734.991 3.12803 2.35927 0
M  V30 7501 H 736.688 3.41819 2.09669 0
M  V30 7502 H 733.278 4.19255 0.890137 0
M  V30 7503 H 737.462 4.95544 0.273856 0
M  V30 7504 H 732.718 6.08713 -0.572606 0
M  V30 7505 H 736.892 6.86268 -1.18362 0
M  V30 7506 H 734.519 7.42893 -1.6129 0
M  V30 7507 N 736.094 -0.359525 1.53444 0
M  V30 7508 C 737.342 -1.09935 1.69584 0
M  V30 7509 C 737.663 -1.89656 0.453371 0
M  V30 7510 O 736.933 -1.8852 -0.53263 0
M  V30 7511 H 735.513 -0.408843 0.625185 0
M  V30 7512 H 738.175 -0.40467 1.90653 0
M  V30 7513 H 737.271 -1.78575 2.55964 0
M  V30 7514 N 737.572 -1.44907 -0.619662 0
M  V30 7515 C 738.52 -1.52971 -1.75222 0
M  V30 7516 C 739.514 -0.400531 -1.64597 0
M  V30 7517 O 740.72 -0.575952 -1.70537 0
M  V30 7518 H 737.095 -0.480241 -0.578682 0
M  V30 7519 H 739.066 -2.48269 -1.65545 0
M  V30 7520 C 737.815 -1.50204 -3.13583 0
M  V30 7521 H 737.138 -2.36412 -3.22412 0
M  V30 7522 H 738.578 -1.59905 -3.92691 0
M  V30 7523 C 737.037 -0.22455 -3.36151 0
M  V30 7524 O 737.567 0.700574 -3.95544 0
M  V30 7525 N 735.773 -0.124052 -2.90335 0
M  V30 7526 H 735.32 -0.87774 -2.42185 0
M  V30 7527 H 735.278 0.729914 -3.0581 0
M  V30 7528 N 739.05 0.861098 -1.31996 0
M  V30 7529 C 740.275 1.65264 -1.2531 0
M  V30 7530 C 740.7 1.87265 0.177007 0
M  V30 7531 O 740.058 1.4208 1.12619 0
M  V30 7532 C 740.106 2.99284 -2.0115 0
M  V30 7533 O 739.21 3.89508 -1.3549 0
M  V30 7534 H 738.551 0.50409 -0.432192 0
M  V30 7535 H 741.081 1.07297 -1.74208 0
M  V30 7536 H 741.091 3.49154 -2.11081 0
M  V30 7537 H 739.766 2.82591 -3.05148 0
M  V30 7538 H 738.343 3.47966 -1.34066 0
M  V30 7539 N 740.528 1.15101 1.07655 0
M  V30 7540 C 741.756 0.947731 1.83918 0
M  V30 7541 C 742.171 -0.503927 1.81951 0
M  V30 7542 O 741.528 -1.34941 1.2287 0
M  V30 7543 C 741.579 1.4503 3.31132 0
M  V30 7544 O 741.3 2.84508 3.33146 0
M  V30 7545 C 742.801 1.28806 4.24174 0
M  V30 7546 H 740.021 0.336786 0.580358 0
M  V30 7547 H 742.565 1.52799 1.35914 0
M  V30 7548 H 740.72 0.912632 3.76497 0
M  V30 7549 H 741.134 3.0723 4.251 0
M  V30 7550 H 742.608 1.6882 5.25551 0
M  V30 7551 H 743.085 0.231851 4.38588 0
M  V30 7552 H 743.691 1.81465 3.84643 0
M  V30 7553 N 742.006 -1.2595 0.947325 0
M  V30 7554 C 742.936 -2.28521 0.479604 0
M  V30 7555 C 743.917 -1.63469 -0.470293 0
M  V30 7556 O 745.102 -1.90627 -0.370824 0
M  V30 7557 C 742.232 -3.46397 -0.250289 0
M  V30 7558 C 741.186 -4.23578 0.613643 0
M  V30 7559 C 740.512 -5.34131 -0.246568 0
M  V30 7560 C 741.812 -4.86979 1.88809 0
M  V30 7561 H 743.506 -2.67895 1.33688 0
M  V30 7562 H 741.052 -1.28783 0.644274 0
M  V30 7563 H 743.005 -4.17269 -0.588576 0
M  V30 7564 H 741.729 -3.05993 -1.14175 0
M  V30 7565 H 740.388 -3.54478 0.93491 0
M  V30 7566 H 740.036 -4.89968 -1.13756 0
M  V30 7567 H 739.736 -5.86683 0.328123 0
M  V30 7568 H 741.26 -6.07839 -0.579986 0
M  V30 7569 H 742.674 -5.50034 1.61666 0
M  V30 7570 H 741.071 -5.49675 2.40784 0
M  V30 7571 H 742.141 -4.09575 2.5957 0
M  V30 7572 N 743.484 -0.715051 -1.40445 0
M  V30 7573 C 744.434 -0.038591 -2.27967 0
M  V30 7574 C 745.418 0.733099 -1.43229 0
M  V30 7575 O 746.61 0.605388 -1.66325 0
M  V30 7576 C 743.739 0.882801 -3.31755 0
M  V30 7577 C 742.825 0.106325 -4.23967 0
M  V30 7578 N 743.216 -0.910143 -4.97544 0
M  V30 7579 C 741.514 0.33896 -4.4471 0
M  V30 7580 C 742.215 -1.37665 -5.65175 0
M  V30 7581 N 741.191 -0.698905 -5.39088 0
M  V30 7582 H 744.993 -0.81765 -2.82297 0
M  V30 7583 H 742.507 -0.547591 -1.5289 0
M  V30 7584 H 744.504 1.38273 -3.93302 0
M  V30 7585 H 743.164 1.66124 -2.78985 0
M  V30 7586 H 744.175 -1.29097 -5.01552 0
M  V30 7587 H 740.852 1.09377 -4.02918 0
M  V30 7588 H 742.242 -2.22122 -6.34123 0
M  V30 7589 N 744.962 1.50701 -0.461195 0
M  V30 7590 C 745.892 2.31182 0.328184 0
M  V30 7591 C 746.873 1.37644 0.999408 0
M  V30 7592 O 748.058 1.66565 0.99848 0
M  V30 7593 C 745.188 3.17113 1.41621 0
M  V30 7594 C 744.142 4.19124 0.867148 0
M  V30 7595 C 743.468 4.93728 2.05272 0
M  V30 7596 C 744.768 5.22174 -0.114808 0
M  V30 7597 H 746.462 2.97423 -0.343501 0
M  V30 7598 H 744.008 1.43033 -0.166641 0
M  V30 7599 H 745.961 3.72208 1.97584 0
M  V30 7600 H 744.685 2.48739 2.11652 0
M  V30 7601 H 743.344 3.65116 0.329557 0
M  V30 7602 H 742.992 4.21835 2.73978 0
M  V30 7603 H 742.692 5.62724 1.69161 0
M  V30 7604 H 744.216 5.51654 2.61744 0
M  V30 7605 H 745.63 5.72198 0.355316 0
M  V30 7606 H 744.027 5.98833 -0.389689 0
M  V30 7607 H 745.097 4.7353 -1.04391 0
M  V30 7608 N 746.441 0.193421 1.56409 0
M  V30 7609 C 747.852 -0.319471 1.83946 0
M  V30 7610 C 748.203 -1.61505 1.11403 0
M  V30 7611 O 747.328 -2.13139 0.374289 0
M  V30 7612 C 747.923 -0.586411 3.33686 0
M  V30 7613 C 746.482 -1.04368 3.61641 0
M  V30 7614 C 745.629 -0.0913834 2.77149 0
M  V30 7615 H 748.58 0.417242 1.53117 0
M  V30 7616 H 748.601 -1.43591 3.52366 0
M  V30 7617 H 748.113 0.356701 3.86457 0
M  V30 7618 H 746.214 -2.00113 3.14302 0
M  V30 7619 H 746.327 -0.937549 4.69837 0
M  V30 7620 H 744.691 -0.592954 2.47702 0
M  V30 7621 H 745.474 0.846142 3.32709 0
M  V30 7622 N 747.919 -1.57396 -0.0801906 0
M  V30 7623 C 748.869 -1.9955 -1.10289 0
M  V30 7624 C 749.853 -0.876234 -1.34948 0
M  V30 7625 O 751.045 -1.14012 -1.35389 0
M  V30 7626 C 748.174 -2.43596 -2.419 0
M  V30 7627 C 747.26 -3.6224 -2.20551 0
M  V30 7628 N 747.651 -4.76693 -1.69109 0
M  V30 7629 C 745.949 -3.68627 -2.51059 0
M  V30 7630 C 746.65 -5.58577 -1.62379 0
M  V30 7631 N 745.626 -5.02178 -2.0813 0
M  V30 7632 H 749.428 -2.85483 -0.698335 0
M  V30 7633 H 746.942 -1.59837 -0.287395 0
M  V30 7634 H 748.939 -2.72031 -3.15919 0
M  V30 7635 H 747.599 -1.59047 -2.8308 0
M  V30 7636 H 748.61 -4.9915 -1.38092 0
M  V30 7637 H 745.287 -2.94772 -2.95661 0
M  V30 7638 H 746.677 -6.60447 -1.2353 0
M  V30 7639 N 749.397 0.351382 -1.53633 0
M  V30 7640 C 750.643 1.09049 -1.71697 0
M  V30 7641 C 750.998 1.86563 -0.470314 0
M  V30 7642 O 750.291 1.83922 0.536954 0
M  V30 7643 C 750.485 2.06744 -2.91533 0
M  V30 7644 C 750.314 1.38832 -4.27733 0
M  V30 7645 C 749.084 1.13646 -4.92354 0
M  V30 7646 C 751.282 0.818602 -5.07743 0
M  V30 7647 N 749.264 0.422324 -6.12446 0
M  V30 7648 C 750.635 0.234602 -6.19556 0
M  V30 7649 C 752.69 0.718679 -4.92686 0
M  V30 7650 C 751.393 -0.439592 -7.17955 0
M  V30 7651 C 753.419 0.0582402 -5.91371 0
M  V30 7652 C 752.781 -0.514823 -7.02516 0
M  V30 7653 H 748.88 0.383697 -0.681396 0
M  V30 7654 H 751.464 0.375063 -1.91053 0
M  V30 7655 H 749.635 2.75586 -2.73691 0
M  V30 7656 H 751.367 2.73436 -2.98353 0
M  V30 7657 H 748.122 1.4215 -4.51764 0
M  V30 7658 H 748.546 0.0802092 -6.76952 0
M  V30 7659 H 753.188 1.14748 -4.06931 0
M  V30 7660 H 750.906 -0.880307 -8.03291 0
M  V30 7661 H 754.492 -0.0183382 -5.81797 0
M  V30 7662 H 753.372 -1.01777 -7.77567 0
M  V30 7663 N 750.875 1.45233 0.611969 0
M  V30 7664 C 752.123 1.48727 1.36838 0
M  V30 7665 C 752.444 0.128616 1.94575 0
M  V30 7666 O 751.714 -0.84149 1.76906 0
M  V30 7667 H 750.294 0.547695 0.507976 0
M  V30 7668 H 752.956 1.81156 0.718925 0
M  V30 7669 H 752.052 2.2236 2.19003 0
M  V30 7670 N 752.353 -0.854086 1.3245 0
M  V30 7671 C 753.583 -1.63836 1.25862 0
M  V30 7672 C 753.991 -1.88383 -0.175588 0
M  V30 7673 O 753.334 -1.45353 -1.1233 0
M  V30 7674 C 753.396 -3.02068 1.94923 0
M  V30 7675 C 753.06 -3.0056 3.44257 0
M  V30 7676 C 754.057 -2.77368 4.39731 0
M  V30 7677 C 751.742 -3.21177 3.862 0
M  V30 7678 C 753.736 -2.74797 5.75122 0
M  V30 7679 C 751.423 -3.18234 5.217 0
M  V30 7680 C 752.421 -2.95072 6.15972 0
M  V30 7681 O 752.109 -2.92003 7.48992 0
M  V30 7682 H 751.841 -0.517007 0.435523 0
M  V30 7683 H 754.395 -1.07314 1.75137 0
M  V30 7684 H 752.625 -3.60382 1.40219 0
M  V30 7685 H 754.314 -3.62791 1.82037 0
M  V30 7686 H 755.08 -2.61205 4.08653 0
M  V30 7687 H 750.959 -3.38231 3.13243 0
M  V30 7688 H 754.503 -2.56638 6.48678 0
M  V30 7689 H 750.4 -3.33941 5.52407 0
M  V30 7690 H 751.168 -3.07953 7.58358 0
M  V30 7691 N 753.831 -1.1567 -1.07043 0
M  V30 7692 C 755.08 -0.928039 -1.79082 0
M  V30 7693 C 755.393 0.545968 -1.87826 0
M  V30 7694 O 756.599 0.892308 -2.56418 0
M  V30 7695 C 755.055 -1.61103 -3.21829 0
M  V30 7696 C 754.663 -3.12228 -3.21275 0
M  V30 7697 C 756.407 -1.46404 -3.98455 0
M  V30 7698 C 754.314 -3.733 -4.58695 0
M  V30 7699 H 753.244 -0.34357 -0.671175 0
M  V30 7700 H 755.895 -1.38718 -1.20123 0
M  V30 7701 H 754.277 -1.07958 -3.81 0
M  V30 7702 H 755.451 -3.72155 -2.71731 0
M  V30 7703 H 753.766 -3.26725 -2.58147 0
M  V30 7704 H 756.363 -1.8942 -5.00024 0
M  V30 7705 H 756.706 -0.41195 -4.14257 0
M  V30 7706 H 757.239 -1.96663 -3.45787 0
M  V30 7707 H 753.978 -4.78423 -4.48098 0
M  V30 7708 H 753.498 -3.18157 -5.08465 0
M  V30 7709 H 755.177 -3.7441 -5.27661 0
M  V30 7710 N 755.309 1.25446 -0.953992 0
M  V30 7711 C 756.239 2.28264 -0.491717 0
M  V30 7712 C 757.22 1.63717 0.461617 0
M  V30 7713 O 758.405 1.90821 0.36071 0
M  V30 7714 C 755.535 3.46525 0.231915 0
M  V30 7715 C 754.489 4.23247 -0.636098 0
M  V30 7716 C 753.815 5.34254 0.218238 0
M  V30 7717 C 755.115 4.85971 -1.91389 0
M  V30 7718 H 756.809 2.67183 -1.35106 0
M  V30 7719 H 754.355 1.2844 -0.651095 0
M  V30 7720 H 756.308 4.17576 0.566439 0
M  V30 7721 H 755.032 3.06594 1.12551 0
M  V30 7722 H 753.691 3.53978 -0.953696 0
M  V30 7723 H 753.339 4.90564 1.11156 0
M  V30 7724 H 753.039 5.86501 -0.359232 0
M  V30 7725 H 754.563 6.08138 0.547743 0
M  V30 7726 H 755.977 5.49168 -1.64581 0
M  V30 7727 H 754.374 5.48391 -2.43696 0
M  V30 7728 H 755.444 4.08192 -2.61738 0
M  V30 7729 N 756.787 0.722489 1.40064 0
M  V30 7730 C 757.717 0.0892452 2.33329 0
M  V30 7731 C 758.698 -0.737992 1.53257 0
M  V30 7732 O 759.883 -0.685516 1.81698 0
M  V30 7733 C 757.013 -0.828139 3.37282 0
M  V30 7734 C 755.967 -0.106005 4.27869 0
M  V30 7735 C 755.293 -1.13957 5.22415 0
M  V30 7736 C 756.593 1.04395 5.11761 0
M  V30 7737 H 758.287 0.868269 2.86534 0
M  V30 7738 H 755.833 0.418982 1.3777 0
M  V30 7739 H 757.786 -1.28058 4.01471 0
M  V30 7740 H 756.51 -1.63914 2.82489 0
M  V30 7741 H 755.169 0.326683 3.65142 0
M  V30 7742 H 754.817 -1.9438 4.63924 0
M  V30 7743 H 754.517 -0.661233 5.83868 0
M  V30 7744 H 756.041 -1.59197 5.89482 0
M  V30 7745 H 757.455 0.670541 5.69365 0
M  V30 7746 H 755.852 1.4511 5.82291 0
M  V30 7747 H 756.922 1.87144 4.47331 0
M  V30 7748 N 758.265 -1.50454 0.469181 0
M  V30 7749 C 759.195 -2.31353 -0.31592 0
M  V30 7750 C 760.176 -1.38172 -0.992094 0
M  V30 7751 O 761.361 -1.67093 -0.989633 0
M  V30 7752 C 758.491 -3.1786 -1.39937 0
M  V30 7753 C 757.445 -4.19578 -0.844909 0
M  V30 7754 C 756.771 -4.9481 -2.0265 0
M  V30 7755 C 758.071 -5.22106 0.142499 0
M  V30 7756 H 759.765 -2.97237 0.359269 0
M  V30 7757 H 757.311 -1.42942 0.174224 0
M  V30 7758 H 759.264 -3.7325 -1.95607 0
M  V30 7759 H 757.988 -2.49858 -2.1033 0
M  V30 7760 H 756.647 -3.65285 -0.310189 0
M  V30 7761 H 756.295 -4.23282 -2.71737 0
M  V30 7762 H 755.995 -5.63613 -1.66174 0
M  V30 7763 H 757.519 -5.53035 -2.58815 0
M  V30 7764 H 758.933 -5.72378 -0.324966 0
M  V30 7765 H 757.33 -5.98618 0.421441 0
M  V30 7766 H 758.4 -4.7297 1.06901 0
M  V30 7767 N 759.743 -0.201713 -1.56304 0
M  V30 7768 C 760.673 0.71155 -2.22394 0
M  V30 7769 C 761.654 1.21625 -1.18917 0
M  V30 7770 O 762.839 1.26388 -1.47444 0
M  V30 7771 C 759.969 1.92837 -2.88845 0
M  V30 7772 C 758.923 1.55831 -3.98623 0
M  V30 7773 C 758.249 2.85228 -4.52271 0
M  V30 7774 C 759.549 0.763249 -5.16693 0
M  V30 7775 H 761.243 0.160573 -2.98969 0
M  V30 7776 H 758.789 0.0757916 -1.438 0
M  V30 7777 H 760.742 2.57253 -3.33764 0
M  V30 7778 H 759.466 2.50398 -2.09686 0
M  V30 7779 H 758.125 0.9377 -3.54405 0
M  V30 7780 H 757.773 3.40893 -3.69866 0
M  V30 7781 H 757.473 2.6121 -5.26349 0
M  V30 7782 H 758.997 3.50622 -4.99897 0
M  V30 7783 H 760.411 1.31066 -5.58117 0
M  V30 7784 H 758.808 0.620935 -5.96879 0
M  V30 7785 H 759.878 -0.234322 -4.84334 0
M  V30 7786 N 761.222 1.57436 0.0718424 0
M  V30 7787 C 762.152 2.06724 1.08571 0
M  V30 7788 C 763.133 0.960731 1.40371 0
M  V30 7789 O 764.318 1.23345 1.49999 0
M  V30 7790 C 761.448 2.51112 2.39916 0
M  V30 7791 C 760.402 3.65639 2.22469 0
M  V30 7792 C 759.728 3.96082 3.59198 0
M  V30 7793 C 761.028 4.95687 1.64596 0
M  V30 7794 H 762.722 2.91679 0.675569 0
M  V30 7795 H 760.268 1.40319 0.32352 0
M  V30 7796 H 762.221 2.84206 3.11135 0
M  V30 7797 H 760.945 1.63186 2.8291 0
M  V30 7798 H 759.604 3.32828 1.53691 0
M  V30 7799 H 759.252 3.05287 3.99761 0
M  V30 7800 H 758.952 4.73199 3.48362 0
M  V30 7801 H 760.476 4.31672 4.31847 0
M  V30 7802 H 761.89 5.27011 2.25681 0
M  V30 7803 H 760.287 5.77126 1.64457 0
M  V30 7804 H 761.357 4.8108 0.60744 0
M  V30 7805 N 762.7 -0.34323 1.53817 0
M  V30 7806 C 763.928 -1.10348 1.75017 0
M  V30 7807 C 764.343 -1.82345 0.489475 0
M  V30 7808 O 763.7 -1.74362 -0.538886 0
M  V30 7809 C 763.751 -2.11672 2.93048 0
M  V30 7810 O 763.472 -1.42603 4.14241 0
M  V30 7811 C 764.973 -3.0007 3.26301 0
M  V30 7812 H 762.193 -0.329056 0.584776 0
M  V30 7813 H 764.737 -0.395339 2.00642 0
M  V30 7814 H 762.892 -2.78051 2.69753 0
M  V30 7815 H 763.306 -2.10294 4.80496 0
M  V30 7816 H 764.78 -3.67101 4.12239 0
M  V30 7817 H 765.257 -3.66105 2.42618 0
M  V30 7818 H 765.863 -2.3928 3.51604 0
M  V30 7819 N 764.178 -1.45556 -0.604258 0
M  V30 7820 C 765.403 -1.53509 -1.39462 0
M  V30 7821 C 765.828 -0.169638 -1.87333 0
M  V30 7822 O 765.186 0.846346 -1.60333 0
M  V30 7823 C 765.234 -2.52654 -2.5729 0
M  V30 7824 O 764.338 -2.04666 -3.5803 0
M  V30 7825 H 763.679 -0.517355 -0.416221 0
M  V30 7826 H 766.209 -1.90939 -0.735072 0
M  V30 7827 H 766.219 -2.71568 -3.04491 0
M  V30 7828 H 764.894 -3.51823 -2.21797 0
M  V30 7829 H 763.471 -1.95643 -3.17456 0
M  V30 7830 N 765.656 0.84705 -1.32902 0
M  V30 7831 C 766.902 1.60414 -1.24078 0
M  V30 7832 C 767.235 1.93217 0.195105 0
M  V30 7833 O 766.51 1.58001 1.13428 0
M  V30 7834 C 766.793 2.91951 -2.108 0
M  V30 7835 C 766.646 2.6588 -3.62805 0
M  V30 7836 C 767.965 3.93299 -1.97494 0
M  V30 7837 H 765.084 0.58206 -0.452079 0
M  V30 7838 H 767.726 0.977562 -1.62922 0
M  V30 7839 H 765.876 3.45425 -1.77802 0
M  V30 7840 H 767.548 2.18902 -4.06054 0
M  V30 7841 H 765.791 1.99716 -3.85092 0
M  V30 7842 H 766.462 3.59574 -4.1882 0
M  V30 7843 H 768.938 3.49105 -2.26417 0
M  V30 7844 H 767.814 4.8318 -2.60438 0
M  V30 7845 H 768.075 4.31887 -0.944782 0
M  V30 7846 N 767.134 1.16236 1.06428 0
M  V30 7847 C 768.067 0.81119 2.13295 0
M  V30 7848 C 769.045 -0.216555 1.61151 0
M  V30 7849 O 770.229 -0.100949 1.88229 0
M  V30 7850 C 767.356 0.207901 3.38061 0
M  V30 7851 C 766.402 1.20904 4.09004 0
M  V30 7852 S 767.235 2.75513 4.59187 0
M  V30 7853 C 768.391 2.1663 5.87216 0
M  V30 7854 H 768.624 1.71632 2.42755 0
M  V30 7855 H 766.157 0.985693 1.18842 0
M  V30 7856 H 768.115 -0.133715 4.10282 0
M  V30 7857 H 766.776 -0.67497 3.06762 0
M  V30 7858 H 765.969 0.735326 4.98607 0
M  V30 7859 H 765.571 1.49567 3.42791 0
M  V30 7860 H 767.863 1.53413 6.59902 0
M  V30 7861 H 768.806 3.04437 6.39315 0
M  V30 7862 H 769.214 1.60565 5.41183 0
M  V30 7863 N 768.612 -1.24939 0.960631 0
M  V30 7864 C 769.859 -1.92818 0.618663 0
M  V30 7865 C 770.187 -1.75177 -0.845173 0
M  V30 7866 O 769.442 -1.09412 -1.62258 0
M  V30 7867 C 769.741 -3.45066 0.930809 0
M  V30 7868 C 769.407 -3.82869 2.38164 0
M  V30 7869 C 768.069 -3.92899 2.7782 0
M  V30 7870 C 770.421 -4.01483 3.32356 0
M  V30 7871 C 767.749 -4.18955 4.10723 0
M  V30 7872 C 770.101 -4.29033 4.6488 0
M  V30 7873 C 768.765 -4.37282 5.04322 0
M  V30 7874 H 768.035 -0.705571 0.226385 0
M  V30 7875 H 770.682 -1.48365 1.21079 0
M  V30 7876 H 768.987 -3.9096 0.256355 0
M  V30 7877 H 770.684 -3.95783 0.644712 0
M  V30 7878 H 767.274 -3.75622 2.06413 0
M  V30 7879 H 771.458 -3.93143 3.02907 0
M  V30 7880 H 766.714 -4.23558 4.40918 0
M  V30 7881 H 770.888 -4.42381 5.3784 0
M  V30 7882 H 768.515 -4.57225 6.0733 0
M  V30 7883 N 770.09 -0.729906 -1.39679 0
M  V30 7884 C 771.02 -0.101618 -2.33279 0
M  V30 7885 C 772.001 0.729854 -1.53646 0
M  V30 7886 O 773.186 0.67587 -1.82059 0
M  V30 7887 C 770.316 0.81024 -3.37716 0
M  V30 7888 C 769.27 0.0833126 -4.27919 0
M  V30 7889 C 768.596 1.11185 -5.23012 0
M  V30 7890 C 769.896 -1.07107 -5.112 0
M  V30 7891 H 771.59 -0.883452 -2.86069 0
M  V30 7892 H 769.136 -0.426283 -1.37546 0
M  V30 7893 H 771.089 1.25927 -4.02145 0
M  V30 7894 H 769.813 1.62413 -2.83354 0
M  V30 7895 H 768.472 -0.346043 -3.64963 0
M  V30 7896 H 768.12 1.91917 -4.64948 0
M  V30 7897 H 767.82 0.63026 -5.8421 0
M  V30 7898 H 769.344 1.56068 -5.90318 0
M  V30 7899 H 770.758 -0.700726 -5.69002 0
M  V30 7900 H 769.155 -1.48196 -5.81514 0
M  V30 7901 H 770.225 -1.89513 -4.46332 0
M  V30 7902 N 771.568 1.50203 -0.477153 0
M  V30 7903 C 772.498 2.31517 0.303646 0
M  V30 7904 C 773.479 1.38696 0.984753 0
M  V30 7905 O 774.664 1.67615 0.980758 0
M  V30 7906 C 771.794 3.18598 1.38249 0
M  V30 7907 C 770.748 4.2002 0.822645 0
M  V30 7908 C 770.074 4.95878 2.00024 0
M  V30 7909 C 771.374 5.22023 -0.170185 0
M  V30 7910 H 773.068 2.97042 -0.375027 0
M  V30 7911 H 770.614 1.42848 -0.181802 0
M  V30 7912 H 772.567 3.74282 1.93625 0
M  V30 7913 H 771.291 2.5097 2.09002 0
M  V30 7914 H 769.95 3.65445 0.290813 0
M  V30 7915 H 769.598 4.24717 2.69489 0
M  V30 7916 H 769.298 5.64487 1.63183 0
M  V30 7917 H 770.822 5.54399 2.55878 0
M  V30 7918 H 772.236 5.72543 0.294606 0
M  V30 7919 H 770.633 5.98386 -0.453181 0
M  V30 7920 H 771.703 4.72396 -1.09408 0
M  V30 7921 N 773.046 0.209999 1.56195 0
M  V30 7922 C 774.271 -0.433064 2.02828 0
M  V30 7923 C 774.696 -1.5337 1.08901 0
M  V30 7924 O 774.054 -1.81144 0.0751132 0
M  V30 7925 C 774.102 -0.952635 3.47789 0
M  V30 7926 O 773.206 -2.0647 3.56993 0
M  V30 7927 H 772.547 -0.0994594 0.656509 0
M  V30 7928 H 775.077 0.32525 2.01998 0
M  V30 7929 H 775.087 -1.26542 3.8788 0
M  V30 7930 H 773.762 -0.147007 4.1564 0
M  V30 7931 H 772.339 -1.75942 3.28784 0
M  V30 7932 N 774.524 -1.57472 -0.0634922 0
M  V30 7933 C 775.454 -2.07297 -1.07473 0
M  V30 7934 C 776.435 -0.968162 -1.39859 0
M  V30 7935 O 777.62 -1.24139 -1.49343 0
M  V30 7936 C 774.75 -2.52381 -2.38581 0
M  V30 7937 C 773.704 -3.66813 -2.20526 0
M  V30 7938 C 773.03 -3.97982 -3.57092 0
M  V30 7939 C 774.33 -4.96553 -1.61965 0
M  V30 7940 H 776.024 -2.92033 -0.660092 0
M  V30 7941 H 773.57 -1.40488 -0.316074 0
M  V30 7942 H 775.523 -2.85852 -3.09624 0
M  V30 7943 H 774.247 -1.64684 -2.8204 0
M  V30 7944 H 772.906 -3.33639 -1.51924 0
M  V30 7945 H 772.554 -3.07403 -3.98136 0
M  V30 7946 H 772.254 -4.7504 -3.45848 0
M  V30 7947 H 773.778 -4.33956 -4.29552 0
M  V30 7948 H 775.192 -5.28201 -2.22883 0
M  V30 7949 H 773.589 -5.7799 -1.61394 0
M  V30 7950 H 774.659 -4.81396 -0.581918 0
M  V30 7951 N 776.003 0.335068 -1.53997 0
M  V30 7952 C 776.933 1.41727 -1.85568 0
M  V30 7953 C 777.914 1.54505 -0.7115 0
M  V30 7954 O 779.099 1.68573 -0.964191 0
M  V30 7955 C 776.229 2.7866 -2.07282 0
M  V30 7956 C 775.183 2.80682 -3.23112 0
M  V30 7957 C 774.509 4.20581 -3.30175 0
M  V30 7958 C 775.809 2.45458 -4.61029 0
M  V30 7959 H 777.503 1.15555 -2.76202 0
M  V30 7960 H 775.049 0.554445 -1.32898 0
M  V30 7961 H 777.002 3.54423 -2.27952 0
M  V30 7962 H 775.726 3.06286 -1.13387 0
M  V30 7963 H 774.385 2.07373 -3.02311 0
M  V30 7964 H 774.033 4.4533 -2.33859 0
M  V30 7965 H 773.733 4.22843 -4.08016 0
M  V30 7966 H 775.257 4.98174 -3.53066 0
M  V30 7967 H 776.671 3.10934 -4.81656 0
M  V30 7968 H 775.068 2.5899 -5.41336 0
M  V30 7969 H 776.138 1.40628 -4.6406 0
M  V30 7970 N 777.481 1.45874 0.596531 0
M  V30 7971 C 778.727 1.5069 1.35722 0
M  V30 7972 C 779.06 0.152506 1.936 0
M  V30 7973 O 778.335 -0.834411 1.75692 0
M  V30 7974 C 778.618 2.59474 2.4969 0
M  V30 7975 C 778.471 4.04396 1.96937 0
M  V30 7976 C 779.79 2.64451 3.51787 0
M  V30 7977 H 776.909 0.548611 0.492133 0
M  V30 7978 H 779.551 1.77741 0.671428 0
M  V30 7979 H 777.701 2.36539 3.08191 0
M  V30 7980 H 779.373 4.38576 1.43 0
M  V30 7981 H 777.616 4.14529 1.27859 0
M  V30 7982 H 778.287 4.76218 2.79143 0
M  V30 7983 H 780.763 2.85031 3.03145 0
M  V30 7984 H 779.639 3.42411 4.29006 0
M  V30 7985 H 779.9 1.69965 4.08123 0
M  V30 7986 N 778.959 -0.83999 1.33349 0
M  V30 7987 C 779.889 -1.965 1.26135 0
M  V30 7988 C 780.87 -1.69505 0.142152 0
M  V30 7989 O 782.055 -1.91346 0.331743 0
M  V30 7990 C 779.185 -3.32632 0.99866 0
M  V30 7991 C 778.139 -3.74021 2.08068 0
M  V30 7992 C 777.465 -5.07947 1.67014 0
M  V30 7993 C 778.765 -3.87925 3.49731 0
M  V30 7994 H 780.459 -2.02793 2.20262 0
M  V30 7995 H 778.005 -0.974297 1.06035 0
M  V30 7996 H 779.958 -4.10903 0.934696 0
M  V30 7997 H 778.682 -3.26593 0.0217759 0
M  V30 7998 H 777.341 -2.98012 2.13505 0
M  V30 7999 H 776.989 -4.98378 0.680316 0
M  V30 8000 H 776.689 -5.36611 2.39422 0
M  V30 8001 H 778.213 -5.88695 1.62082 0
M  V30 8002 H 779.627 -4.5651 3.46802 0
M  V30 8003 H 778.024 -4.28023 4.20614 0
M  V30 8004 H 779.094 -2.90407 3.88319 0
M  V30 8005 N 780.437 -1.16799 -1.0581 0
M  V30 8006 C 781.685 -0.950642 -1.78346 0
M  V30 8007 C 782.006 0.522524 -1.87869 0
M  V30 8008 O 781.276 1.3795 -1.39092 0
M  V30 8009 H 779.856 -0.348736 -0.6606 0
M  V30 8010 H 782.518 -1.47158 -1.27791 0
M  V30 8011 H 781.614 -1.37359 -2.80248 0
M  V30 8012 N 781.915 1.24427 -0.967243 0
M  V30 8013 C 782.878 2.23637 -0.501927 0
M  V30 8014 C 783.878 1.55712 0.401283 0
M  V30 8015 O 785.068 1.73085 0.196808 0
M  V30 8016 C 782.2 3.39804 0.273176 0
M  V30 8017 H 783.393 2.66317 -1.37897 0
M  V30 8018 H 780.946 1.37033 -0.751783 0
M  V30 8019 H 781.681 3.02562 1.16733 0
M  V30 8020 H 781.466 3.90303 -0.37498 0
M  V30 8021 H 782.956 4.13443 0.587776 0
M  V30 8022 N 783.393 0.737304 1.3929 0
M  V30 8023 C 784.343 0.0748537 2.27877 0
M  V30 8024 C 785.327 -0.71022 1.44377 0
M  V30 8025 O 786.519 -0.578851 1.67267 0
M  V30 8026 C 783.648 -0.82991 3.33118 0
M  V30 8027 C 782.734 -0.0388619 4.24082 0
M  V30 8028 N 783.125 0.989182 4.96033 0
M  V30 8029 C 781.423 -0.268167 4.45193 0
M  V30 8030 C 782.124 1.46639 5.62914 0
M  V30 8031 N 781.1 0.784581 5.37908 0
M  V30 8032 H 784.902 0.862457 2.80961 0
M  V30 8033 H 782.416 0.571845 1.51999 0
M  V30 8034 H 784.413 -1.31999 3.95452 0
M  V30 8035 H 783.073 -1.61665 2.81593 0
M  V30 8036 H 784.084 1.3706 4.99435 0
M  V30 8037 H 780.761 -1.02953 4.04607 0
M  V30 8038 H 782.151 2.32182 6.30508 0
M  V30 8039 N 784.871 -1.49948 0.485112 0
M  V30 8040 C 785.803 -2.26691 -0.338222 0
M  V30 8041 C 786.816 -1.32584 -0.944742 0
M  V30 8042 O 788.005 -1.57989 -0.830772 0
M  V30 8043 C 785.105 -3.04405 -1.48966 0
M  V30 8044 C 784.278 -4.25971 -0.993371 0
M  V30 8045 C 783.337 -4.85861 -2.02052 0
M  V30 8046 O 782.363 -5.46382 -1.59547 0
M  V30 8047 N 783.565 -4.74101 -3.34975 0
M  V30 8048 H 786.33 -2.97989 0.319748 0
M  V30 8049 H 783.891 -1.58772 0.316714 0
M  V30 8050 H 785.883 -3.41348 -2.17403 0
M  V30 8051 H 784.453 -2.35815 -2.05207 0
M  V30 8052 H 783.673 -3.93971 -0.134424 0
M  V30 8053 H 784.961 -5.0476 -0.639934 0
M  V30 8054 H 784.359 -4.26002 -3.72208 0
M  V30 8055 H 782.916 -5.15274 -3.9917 0
M  V30 8056 N 786.349 -0.21828 -1.56081 0
M  V30 8057 C 787.281 0.725447 -2.17416 0
M  V30 8058 C 788.294 1.15995 -1.14233 0
M  V30 8059 O 789.483 1.09166 -1.41227 0
M  V30 8060 C 786.583 1.99401 -2.7403 0
M  V30 8061 C 785.756 1.7156 -4.02351 0
M  V30 8062 C 784.815 2.8309 -4.43561 0
M  V30 8063 O 783.841 2.51701 -5.10525 0
M  V30 8064 N 785.043 4.11972 -4.08973 0
M  V30 8065 H 787.808 0.200801 -2.99027 0
M  V30 8066 H 785.369 -0.0371514 -1.61857 0
M  V30 8067 H 787.361 2.73198 -2.98571 0
M  V30 8068 H 785.931 2.42923 -1.96742 0
M  V30 8069 H 785.151 0.814233 -3.85699 0
M  V30 8070 H 786.439 1.50385 -4.86068 0
M  V30 8071 H 785.837 4.40319 -3.55156 0
M  V30 8072 H 784.394 4.82323 -4.38415 0
M  V30 8073 N 787.827 1.57504 0.0551401 0
M  V30 8074 C 788.759 2.0158 1.09078 0
M  V30 8075 C 789.772 0.92434 1.34014 0
M  V30 8076 O 790.961 1.20202 1.31961 0
M  V30 8077 C 788.061 2.35385 2.43818 0
M  V30 8078 C 787.234 3.66588 2.38605 0
M  V30 8079 C 786.293 3.87874 3.55585 0
M  V30 8080 O 785.319 4.59259 3.36258 0
M  V30 8081 N 786.521 3.31503 4.76536 0
M  V30 8082 H 789.286 2.91039 0.71529 0
M  V30 8083 H 786.847 1.60058 0.243532 0
M  V30 8084 H 788.839 2.46784 3.20749 0
M  V30 8085 H 787.409 1.51731 2.73307 0
M  V30 8086 H 786.629 3.65787 1.46947 0
M  V30 8087 H 787.917 4.52706 2.32239 0
M  V30 8088 H 787.315 2.73592 4.9514 0
M  V30 8089 H 785.872 3.48324 5.50921 0
M  V30 8090 N 789.305 -0.326896 1.54172 0
M  V30 8091 C 790.535 -1.08328 1.75922 0
M  V30 8092 C 790.943 -1.82302 0.50622 0
M  V30 8093 O 790.286 -1.7581 -0.532581 0
M  V30 8094 C 790.348 -2.1294 2.8965 0
M  V30 8095 C 790.012 -1.58394 4.28673 0
M  V30 8096 C 791.009 -1.02747 5.09646 0
M  V30 8097 C 788.694 -1.62737 4.75207 0
M  V30 8098 C 790.688 -0.52169 6.35261 0
M  V30 8099 C 788.375 -1.11772 6.00791 0
M  V30 8100 C 789.373 -0.565819 6.80652 0
M  V30 8101 O 789.061 -0.0638146 8.03875 0
M  V30 8102 H 788.793 -0.3282 0.590983 0
M  V30 8103 H 791.347 -0.37972 2.0186 0
M  V30 8104 H 789.577 -2.86903 2.59275 0
M  V30 8105 H 791.266 -2.74274 2.99213 0
M  V30 8106 H 792.032 -0.987007 4.74851 0
M  V30 8107 H 787.911 -2.04635 4.13093 0
M  V30 8108 H 791.455 -0.0902544 6.97542 0
M  V30 8109 H 787.352 -1.15524 6.35078 0
M  V30 8110 H 788.12 -0.17955 8.18303 0
M  V30 8111 N 790.784 -1.46188 -0.588786 0
M  V30 8112 C 792.2 -1.31009 -0.911524 0
M  V30 8113 C 792.4 -0.277017 -1.99587 0
M  V30 8114 O 791.456 0.322532 -2.50432 0
M  V30 8115 C 792.769 -2.69459 -1.33463 0
M  V30 8116 C 794.317 -2.77502 -1.44782 0
M  V30 8117 C 794.792 -4.1652 -1.90461 0
M  V30 8118 N 796.283 -4.18907 -1.97665 0
M  V30 8119 C 797.018 -5.23359 -2.34271 0
M  V30 8120 N 796.514 -6.38143 -2.69714 0
M  V30 8121 N 798.307 -5.10723 -2.34774 0
M  V30 8122 H 790.458 -2.12016 0.127614 0
M  V30 8123 H 792.721 -0.947984 -0.00557599 0
M  V30 8124 H 792.427 -3.46336 -0.611929 0
M  V30 8125 H 792.301 -2.99165 -2.2974 0
M  V30 8126 H 794.688 -2.00917 -2.1614 0
M  V30 8127 H 794.769 -2.51488 -0.467724 0
M  V30 8128 H 794.413 -4.93597 -1.19684 0
M  V30 8129 H 794.343 -4.39937 -2.89418 0
M  V30 8130 H 796.834 -3.36084 -1.72789 0
M  V30 8131 H 797.147 -7.13624 -2.96582 0
M  V30 8132 H 795.492 -6.41514 -2.67366 0
M  V30 8133 H 798.683 -4.20088 -2.06503 0
M  V30 8134 H 798.856 -5.9224 -2.62975 0
M  V30 8135 N 792.262 0.832906 -1.33792 0
M  V30 8136 C 793.172 1.97514 -1.26592 0
M  V30 8137 C 794.188 1.73114 -0.175391 0
M  V30 8138 O 795.364 1.97387 -0.400062 0
M  V30 8139 C 792.429 3.31625 -1.01121 0
M  V30 8140 C 791.49 3.69101 -2.19233 0
M  V30 8141 C 790.723 4.96813 -1.94968 0
M  V30 8142 O 790.946 5.63208 -0.902955 0
M  V30 8143 O 789.88 5.31932 -2.8166 0
M  V30 8144 H 793.706 2.0653 -2.22664 0
M  V30 8145 H 791.291 0.966826 -1.13898 0
M  V30 8146 H 793.173 4.11968 -0.886571 0
M  V30 8147 H 791.848 3.23599 -0.080822 0
M  V30 8148 H 790.755 2.89243 -2.37253 0
M  V30 8149 H 792.088 3.818 -3.10628 0
M  V30 8150 N 793.74 1.17359 1.05189 0
M  V30 8151 C 795.017 0.871914 1.75091 0
M  V30 8152 C 795.397 -0.627821 2.01548 0
M  V30 8153 O 794.745 -1.5791 1.65156 0
M  V30 8154 C 794.955 1.70687 3.04413 0
M  V30 8155 C 796.303 1.92684 3.78362 0
M  V30 8156 O 797.327 1.67645 3.14282 0
M  V30 8157 O 796.186 2.34765 4.93505 0
M  V30 8158 H 793.28 0.322831 0.761386 0
M  V30 8159 H 795.826 1.28054 1.11357 0
M  V30 8160 H 794.598 2.72405 2.80911 0
M  V30 8161 H 794.221 1.29602 3.75884 0
M  V30 8162 N 795.218 -1.23913 0.973828 0
M  V30 8163 C 796.148 -2.27453 0.527969 0
M  V30 8164 C 797.129 -1.6443 -0.435513 0
M  V30 8165 O 798.314 -1.9137 -0.330306 0
M  V30 8166 C 795.444 -3.4685 -0.176757 0
M  V30 8167 C 794.398 -4.22181 0.703352 0
M  V30 8168 C 793.724 -5.34534 -0.133215 0
M  V30 8169 C 795.024 -4.82865 1.99096 0
M  V30 8170 H 796.718 -2.65 1.3934 0
M  V30 8171 H 794.264 -1.27388 0.671446 0
M  V30 8172 H 796.217 -4.18424 -0.499934 0
M  V30 8173 H 794.941 -3.08346 -1.07659 0
M  V30 8174 H 793.6 -3.52416 1.00989 0
M  V30 8175 H 793.248 -4.92271 -1.03338 0
M  V30 8176 H 792.948 -5.85855 0.452494 0
M  V30 8177 H 794.472 -6.08933 -0.450924 0
M  V30 8178 H 795.886 -5.46481 1.73297 0
M  V30 8179 H 794.283 -5.44444 2.52389 0
M  V30 8180 H 795.353 -4.03977 2.68199 0
M  V30 8181 N 796.696 -0.74468 -1.38897 0
M  V30 8182 C 797.943 -0.296884 -2.00312 0
M  V30 8183 C 798.271 1.11878 -1.59102 0
M  V30 8184 O 797.526 1.7789 -0.815702 0
M  V30 8185 C 797.825 -0.357302 -3.55609 0
M  V30 8186 C 797.491 -1.72736 -4.16501 0
M  V30 8187 C 796.153 -2.10232 -4.32846 0
M  V30 8188 C 798.505 -2.62647 -4.50184 0
M  V30 8189 C 795.833 -3.3713 -4.80167 0
M  V30 8190 C 798.185 -3.88926 -4.98918 0
M  V30 8191 C 796.849 -4.26503 -5.1347 0
M  V30 8192 H 796.119 -0.108638 -0.732993 0
M  V30 8193 H 798.766 -0.953419 -1.66079 0
M  V30 8194 H 797.071 0.382805 -3.89925 0
M  V30 8195 H 798.768 0.0074596 -4.00999 0
M  V30 8196 H 795.358 -1.42585 -4.04187 0
M  V30 8197 H 799.542 -2.34945 -4.37166 0
M  V30 8198 H 794.798 -3.66174 -4.89619 0
M  V30 8199 H 798.972 -4.58745 -5.23952 0
M  V30 8200 H 796.599 -5.24896 -5.49898 0
M  V30 8201 N 798.174 1.49689 -0.493057 0
M  V30 8202 C 799.106 2.26867 0.326195 0
M  V30 8203 C 800.119 1.33083 0.937697 0
M  V30 8204 O 801.308 1.58427 0.822382 0
M  V30 8205 C 798.408 3.0519 1.4735 0
M  V30 8206 C 797.581 4.26491 0.970767 0
M  V30 8207 C 796.64 4.86926 1.99473 0
M  V30 8208 O 795.666 5.47221 1.56647 0
M  V30 8209 N 796.868 4.75871 3.32456 0
M  V30 8210 H 799.633 2.97816 -0.335547 0
M  V30 8211 H 797.194 1.58602 -0.325129 0
M  V30 8212 H 799.186 3.42496 2.15589 0
M  V30 8213 H 797.756 2.369 2.03954 0
M  V30 8214 H 796.976 3.94036 0.113529 0
M  V30 8215 H 798.264 5.05092 0.613156 0
M  V30 8216 H 797.662 4.2797 3.69944 0
M  V30 8217 H 796.219 5.17383 3.96431 0
M  V30 8218 N 799.652 0.226554 1.55963 0
M  V30 8219 C 800.901 -0.40417 1.97609 0
M  V30 8220 C 801.214 -1.60541 1.1174 0
M  V30 8221 O 802.42 -2.30598 1.43307 0
M  V30 8222 C 800.876 -0.770466 3.51556 0
M  V30 8223 C 800.484 0.408244 4.46136 0
M  V30 8224 C 802.228 -1.36651 4.01904 0
M  V30 8225 C 800.135 0.0192347 5.91397 0
M  V30 8226 H 799.065 -0.15478 0.737943 0
M  V30 8227 H 801.716 0.323558 1.80625 0
M  V30 8228 H 800.098 -1.55575 3.6416 0
M  V30 8229 H 801.272 1.18575 4.45283 0
M  V30 8230 H 799.587 0.917859 4.06158 0
M  V30 8231 H 802.184 -1.67055 5.07934 0
M  V30 8232 H 802.527 -2.28403 3.48049 0
M  V30 8233 H 803.06 -0.644556 3.92543 0
M  V30 8234 H 799.799 0.90336 6.49245 0
M  V30 8235 H 799.319 -0.722485 5.95433 0
M  V30 8236 H 800.998 -0.405711 6.45727 0
M  V30 8237 N 801.13 -1.57531 -0.0467866 0
M  V30 8238 C 802.541 -1.76945 -0.595603 0
M  V30 8239 C 802.892 -0.855354 -1.76573 0
M  V30 8240 O 802.017 -0.045668 -2.16352 0
M  V30 8241 C 802.612 -3.20881 -1.08725 0
M  V30 8242 C 801.171 -3.41553 -1.58172 0
M  V30 8243 C 800.318 -2.72533 -0.511968 0
M  V30 8244 H 803.269 -1.57682 0.179436 0
M  V30 8245 H 803.29 -3.26419 -1.95528 0
M  V30 8246 H 802.802 -3.87385 -0.235398 0
M  V30 8247 H 800.903 -2.80199 -2.456 0
M  V30 8248 H 801.016 -4.50104 -1.64143 0
M  V30 8249 H 799.38 -2.35797 -0.962899 0
M  V30 8250 H 800.163 -3.41709 0.330117 0
M  V30 8251 N 802.608 0.318715 -1.54344 0
M  V30 8252 C 803.541 1.41644 -1.7892 0
M  V30 8253 C 804.519 1.495 -0.639421 0
M  V30 8254 O 805.703 1.66835 -0.877404 0
M  V30 8255 C 802.83 2.79701 -1.9101 0
M  V30 8256 C 801.876 2.89354 -3.13331 0
M  V30 8257 S 802.709 2.53264 -4.71824 0
M  V30 8258 C 803.865 3.93384 -4.86826 0
M  V30 8259 H 804.098 1.20585 -2.71747 0
M  V30 8260 H 801.631 0.515828 -1.45529 0
M  V30 8261 H 803.589 3.59227 -1.98661 0
M  V30 8262 H 802.25 2.9804 -0.991516 0
M  V30 8263 H 801.443 3.90574 -3.1854 0
M  V30 8264 H 801.045 2.17805 -3.04035 0
M  V30 8265 H 803.337 4.88191 -4.69761 0
M  V30 8266 H 804.28 3.93156 -5.88926 0
M  V30 8267 H 804.688 3.82564 -4.15097 0
M  V30 8268 N 804.086 1.46499 0.581025 0
M  V30 8269 C 805.332 1.52121 1.34116 0
M  V30 8270 C 805.665 0.173031 1.93428 0
M  V30 8271 O 804.94 -0.815729 1.76568 0
M  V30 8272 C 805.223 2.62108 2.46924 0
M  V30 8273 C 805.076 4.06462 1.92636 0
M  V30 8274 C 806.395 2.68167 3.48962 0
M  V30 8275 H 803.514 0.5538 0.486287 0
M  V30 8276 H 806.156 1.78443 0.652538 0
M  V30 8277 H 804.306 2.39794 3.05665 0
M  V30 8278 H 805.978 4.40068 1.3834 0
M  V30 8279 H 804.221 4.15862 1.23455 0
M  V30 8280 H 804.892 4.79152 2.74076 0
M  V30 8281 H 807.368 2.8823 3.00104 0
M  V30 8282 H 806.244 3.46942 4.2535 0
M  V30 8283 H 806.505 1.74284 4.06297 0
M  V30 8284 N 805.565 -0.825799 1.34232 0
M  V30 8285 C 806.976 -1.39835 1.23706 0
M  V30 8286 C 807.327 -1.95709 -0.138649 0
M  V30 8287 O 806.452 -1.89833 -1.03886 0
M  V30 8288 C 807.047 -2.54203 2.23978 0
M  V30 8289 C 805.606 -3.07374 2.17251 0
M  V30 8290 C 804.753 -1.80232 2.10741 0
M  V30 8291 H 807.704 -0.630442 1.4564 0
M  V30 8292 H 807.725 -3.32214 1.8551 0
M  V30 8293 H 807.237 -2.13506 3.24094 0
M  V30 8294 H 805.338 -3.52583 1.20483 0
M  V30 8295 H 805.451 -3.6666 3.08379 0
M  V30 8296 H 803.815 -2.01012 1.56417 0
M  V30 8297 H 804.598 -1.41713 3.12686 0
M  V30 8298 N 807.043 -1.17915 -1.04565 0
M  V30 8299 C 807.973 -0.925033 -2.14395 0
M  V30 8300 C 808.954 0.135375 -1.6956 0
M  V30 8301 O 810.139 -0.0161774 -1.94193 0
M  V30 8302 C 807.269 -0.444469 -3.44444 0
M  V30 8303 C 806.223 -1.44478 -4.02877 0
M  V30 8304 C 805.549 -0.821933 -5.28345 0
M  V30 8305 C 806.849 -2.81995 -4.39632 0
M  V30 8306 H 808.543 -1.84354 -2.35911 0
M  V30 8307 H 806.089 -0.887806 -1.13375 0
M  V30 8308 H 808.042 -0.254078 -4.20633 0
M  V30 8309 H 806.766 0.509592 -3.226 0
M  V30 8310 H 805.425 -1.62203 -3.28764 0
M  V30 8311 H 805.073 0.139161 -5.02807 0
M  V30 8312 H 804.773 -1.48976 -5.68401 0
M  V30 8313 H 806.297 -0.641959 -6.07216 0
M  V30 8314 H 807.711 -2.67952 -5.06828 0
M  V30 8315 H 806.108 -3.45414 -4.90723 0
M  V30 8316 H 807.178 -3.35927 -3.49687 0
M  V30 8317 N 808.521 1.23394 -0.980386 0
M  V30 8318 C 809.77 1.91116 -0.644785 0
M  V30 8319 C 810.083 1.77333 0.825367 0
M  V30 8320 O 811.289 2.39858 1.27203 0
M  V30 8321 C 809.745 3.42592 -1.10266 0
M  V30 8322 C 809.353 3.65037 -2.59715 0
M  V30 8323 C 811.097 4.1609 -0.8408 0
M  V30 8324 C 809.004 5.10148 -2.9917 0
M  V30 8325 H 807.934 0.715632 -0.23746 0
M  V30 8326 H 810.585 1.39829 -1.18828 0
M  V30 8327 H 808.967 3.92989 -0.487372 0
M  V30 8328 H 810.141 3.25186 -3.26482 0
M  V30 8329 H 808.456 3.04849 -2.83647 0
M  V30 8330 H 811.053 5.23021 -1.11143 0
M  V30 8331 H 811.396 4.15702 0.223085 0
M  V30 8332 H 811.929 3.71681 -1.41767 0
M  V30 8333 H 808.668 5.15668 -4.04682 0
M  V30 8334 H 808.188 5.50949 -2.37097 0
M  V30 8335 H 809.867 5.7848 -2.89775 0
M  V30 8336 N 809.999 0.752036 1.385 0
M  V30 8337 C 811.41 0.375385 1.82887 0
M  V30 8338 C 811.761 -1.09575 1.62751 0
M  V30 8339 O 810.886 -1.84685 1.12785 0
M  V30 8340 C 811.481 0.674563 3.32017 0
M  V30 8341 C 810.04 0.351208 3.74758 0
M  V30 8342 C 809.187 0.928531 2.61292 0
M  V30 8343 H 812.138 0.948313 1.27251 0
M  V30 8344 H 812.159 -0.0477781 3.8047 0
M  V30 8345 H 811.671 1.74533 3.46641 0
M  V30 8346 H 809.772 -0.713042 3.65714 0
M  V30 8347 H 809.885 0.845675 4.71577 0
M  V30 8348 H 808.249 0.354012 2.52228 0
M  V30 8349 H 809.032 2.0043 2.78716 0
M  V30 8350 N 811.477 -1.49425 0.500989 0
M  V30 8351 C 812.44 -2.27646 -0.266416 0
M  V30 8352 C 813.44 -1.3366 -0.893961 0
M  V30 8353 O 814.63 -1.5682 -0.758495 0
M  V30 8354 C 811.762 -3.11618 -1.38227 0
M  V30 8355 H 812.955 -2.96945 0.419973 0
M  V30 8356 H 810.508 -1.5419 0.255954 0
M  V30 8357 H 811.243 -2.46885 -2.10281 0
M  V30 8358 H 811.028 -3.80721 -0.937746 0
M  V30 8359 H 812.518 -3.70698 -1.92283 0
M  V30 8360 N 812.955 -0.234822 -1.55841 0
M  V30 8361 C 813.885 0.664217 -2.23854 0
M  V30 8362 C 814.866 1.19076 -1.2147 0
M  V30 8363 O 816.051 1.23232 -1.50091 0
M  V30 8364 C 813.181 1.86666 -2.9287 0
M  V30 8365 C 812.135 1.47341 -4.01839 0
M  V30 8366 C 811.461 2.75571 -4.58219 0
M  V30 8367 C 812.761 0.653479 -5.18196 0
M  V30 8368 H 814.455 0.0971213 -2.99242 0
M  V30 8369 H 812.001 0.0452724 -1.43929 0
M  V30 8370 H 813.954 2.50116 -3.39146 0
M  V30 8371 H 812.678 2.45894 -2.1495 0
M  V30 8372 H 811.337 0.862314 -3.56314 0
M  V30 8373 H 810.985 3.32971 -3.77014 0
M  V30 8374 H 810.685 2.49987 -5.31771 0
M  V30 8375 H 812.209 3.39939 -5.07221 0
M  V30 8376 H 813.623 1.19198 -5.60771 0
M  V30 8377 H 812.02 0.494188 -5.98062 0
M  V30 8378 H 813.09 -0.337004 -4.83728 0
M  V30 8379 N 814.433 1.57553 0.0384317 0
M  V30 8380 C 815.658 1.93485 0.746872 0
M  V30 8381 C 816.083 0.834069 1.68597 0
M  V30 8382 O 815.441 -0.210902 1.80069 0
M  V30 8383 C 815.489 3.28463 1.4881 0
M  V30 8384 O 814.593 3.20051 2.60079 0
M  V30 8385 H 813.934 0.632675 0.201539 0
M  V30 8386 H 816.464 2.046 -0.00329815 0
M  V30 8387 H 816.474 3.63132 1.86009 0
M  V30 8388 H 815.149 4.08147 0.799297 0
M  V30 8389 H 813.726 2.96998 2.25492 0
M  V30 8390 N 815.911 -0.310526 1.54511 0
M  V30 8391 C 817.16 -1.0445 1.72549 0
M  V30 8392 C 817.473 -1.88748 0.513172 0
M  V30 8393 O 818.679 -2.65338 0.575165 0
M  V30 8394 C 817.135 -1.90665 3.05246 0
M  V30 8395 C 816.743 -1.11415 4.33925 0
M  V30 8396 C 818.487 -2.63719 3.32645 0
M  V30 8397 C 816.394 -1.96852 5.57677 0
M  V30 8398 H 815.324 -0.393676 0.643067 0
M  V30 8399 H 817.975 -0.302003 1.80998 0
M  V30 8400 H 816.357 -2.68864 2.90737 0
M  V30 8401 H 817.531 -0.378956 4.59239 0
M  V30 8402 H 815.846 -0.499853 4.13389 0
M  V30 8403 H 818.443 -3.27974 4.223 0
M  V30 8404 H 818.786 -3.32047 2.51098 0
M  V30 8405 H 819.319 -1.92574 3.48081 0
M  V30 8406 H 816.058 -1.33009 6.41864 0
M  V30 8407 H 815.578 -2.68069 5.36562 0
M  V30 8408 H 817.257 -2.55127 5.94575 0
M  V30 8409 N 817.389 -1.46805 -0.573248 0
M  V30 8410 C 818.635 -1.5283 -1.33307 0
M  V30 8411 C 818.968 -0.183287 -1.93333 0
M  V30 8412 O 818.243 0.806354 -1.76998 0
M  V30 8413 C 818.526 -2.63414 -2.45531 0
M  V30 8414 C 818.379 -4.07478 -1.90478 0
M  V30 8415 C 819.698 -2.70014 -3.47535 0
M  V30 8416 H 816.817 -0.556371 -0.483343 0
M  V30 8417 H 819.459 -1.78787 -0.643066 0
M  V30 8418 H 817.609 -2.41412 -3.04389 0
M  V30 8419 H 819.281 -4.40795 -1.36004 0
M  V30 8420 H 817.524 -4.16511 -1.21248 0
M  V30 8421 H 818.195 -4.80598 -2.71531 0
M  V30 8422 H 820.671 -2.89817 -2.98572 0
M  V30 8423 H 819.547 -3.49192 -4.23504 0
M  V30 8424 H 819.808 -1.76436 -4.05367 0
M  V30 8425 N 818.867 0.818669 -1.34668 0
M  V30 8426 C 819.797 1.94468 -1.29245 0
M  V30 8427 C 820.778 1.69257 -0.169101 0
M  V30 8428 O 821.963 1.90794 -0.362143 0
M  V30 8429 C 819.093 3.31001 -1.05145 0
M  V30 8430 C 818.047 3.70663 -2.13992 0
M  V30 8431 C 817.373 5.05226 -1.75074 0
M  V30 8432 C 818.673 3.82312 -3.55858 0
M  V30 8433 H 820.367 1.99263 -2.2346 0
M  V30 8434 H 817.913 0.957304 -1.07572 0
M  V30 8435 H 819.866 4.09364 -0.999949 0
M  V30 8436 H 818.59 3.26517 -0.0737312 0
M  V30 8437 H 817.249 2.94578 -2.18219 0
M  V30 8438 H 816.897 4.97233 -0.759518 0
M  V30 8439 H 816.597 5.32734 -2.47928 0
M  V30 8440 H 818.121 5.86042 -1.71427 0
M  V30 8441 H 819.535 4.50935 -3.5402 0
M  V30 8442 H 817.932 4.21278 -4.2737 0
M  V30 8443 H 819.002 2.84193 -3.9289 0
M  V30 8444 N 820.346 1.18468 1.03938 0
M  V30 8445 C 821.294 0.909286 2.14091 0
M  V30 8446 C 822.288 -0.130928 1.68893 0
M  V30 8447 O 823.494 0.0173403 1.79992 0
M  V30 8448 H 819.869 0.27658 0.699291 0
M  V30 8449 H 821.84 1.84514 2.34515 0
M  V30 8450 C 820.589 0.452922 3.44737 0
M  V30 8451 H 819.912 1.24485 3.79926 0
M  V30 8452 H 821.352 0.299238 4.22943 0
M  V30 8453 C 819.811 -0.831435 3.26479 0
M  V30 8454 O 820.341 -1.89535 3.54174 0
M  V30 8455 N 818.547 -0.784545 2.79809 0
M  V30 8456 H 818.094 0.0814746 2.57471 0
M  V30 8457 H 818.052 -1.64431 2.67973 0
M  V30 8458 N 821.824 -1.22873 0.986916 0
M  V30 8459 C 823.073 -1.90772 0.654911 0
M  V30 8460 C 823.386 -1.77768 -0.81595 0
M  V30 8461 O 824.592 -2.40529 -1.25929 0
M  V30 8462 C 823.048 -3.42003 1.12081 0
M  V30 8463 C 822.656 -3.63655 2.61647 0
M  V30 8464 C 824.4 -4.15638 0.862854 0
M  V30 8465 C 822.307 -5.08555 3.01871 0
M  V30 8466 H 821.237 -0.714362 0.241252 0
M  V30 8467 H 823.888 -1.39196 1.19568 0
M  V30 8468 H 822.27 -3.92725 0.508207 0
M  V30 8469 H 823.444 -3.2345 3.28202 0
M  V30 8470 H 821.759 -3.03341 2.8526 0
M  V30 8471 H 824.356 -5.22425 1.13915 0
M  V30 8472 H 824.699 -4.15814 -0.201036 0
M  V30 8473 H 825.232 -3.70924 1.43736 0
M  V30 8474 H 821.971 -5.13514 4.07411 0
M  V30 8475 H 821.491 -5.49684 2.40015 0
M  V30 8476 H 823.17 -5.76936 2.92839 0
M  V30 8477 N 823.302 -0.75937 -1.38099 0
M  V30 8478 C 824.542 -0.323116 -2.0183 0
M  V30 8479 C 824.906 1.07658 -1.58977 0
M  V30 8480 O 826.107 1.61227 -2.1508 0
M  V30 8481 C 824.378 -0.448234 -3.54578 0
M  V30 8482 S 825.937 -0.0954152 -4.38696 0
M  V30 8483 H 822.755 -0.125013 -0.699923 0
M  V30 8484 H 825.357 -0.991262 -1.68506 0
M  V30 8485 H 824.061 -1.46778 -3.83255 0
M  V30 8486 H 823.592 0.236895 -3.92686 0
M  V30 8487 H 825.607 1.11312 -4.83554 0
M  V30 8488 N 824.78 1.49157 -0.508906 0
M  V30 8489 C 825.71 2.32109 0.254469 0
M  V30 8490 C 826.691 1.40754 0.955111 0
M  V30 8491 O 827.876 1.69658 0.944983 0
M  V30 8492 C 825.006 3.21458 1.3146 0
M  V30 8493 C 823.96 4.2167 0.733368 0
M  V30 8494 C 823.286 5.00009 1.8946 0
M  V30 8495 C 824.586 5.21544 -0.280875 0
M  V30 8496 H 826.28 2.9618 -0.43795 0
M  V30 8497 H 823.826 1.4243 -0.212062 0
M  V30 8498 H 825.779 3.78305 1.85643 0
M  V30 8499 H 824.503 2.55346 2.03632 0
M  V30 8500 H 823.162 3.65979 0.213231 0
M  V30 8501 H 822.81 4.30338 2.60419 0
M  V30 8502 H 822.51 5.67821 1.51173 0
M  V30 8503 H 824.034 5.59702 2.44061 0
M  V30 8504 H 825.448 5.73039 0.173095 0
M  V30 8505 H 823.845 5.97291 -0.580006 0
M  V30 8506 H 824.915 4.69969 -1.19404 0
M  V30 8507 N 826.258 0.243083 1.55714 0
M  V30 8508 C 827.191 -0.698623 2.17243 0
M  V30 8509 C 828.169 -1.1756 1.12331 0
M  V30 8510 O 829.353 -1.25444 1.40699 0
M  V30 8511 C 826.48 -1.94901 2.77004 0
M  V30 8512 C 825.526 -1.61022 3.94936 0
M  V30 8513 S 826.359 -0.716173 5.30689 0
M  V30 8514 C 827.515 -1.97565 5.93901 0
M  V30 8515 H 827.748 -0.175724 2.9678 0
M  V30 8516 H 825.281 0.0275727 1.54375 0
M  V30 8517 H 827.239 -2.66687 3.12071 0
M  V30 8518 H 825.9 -2.44304 1.9742 0
M  V30 8519 H 825.093 -2.5398 4.35328 0
M  V30 8520 H 824.695 -0.972829 3.61126 0
M  V30 8521 H 826.987 -2.92333 6.11186 0
M  V30 8522 H 827.93 -1.61528 6.8943 0
M  V30 8523 H 828.338 -2.126 5.22935 0
M  V30 8524 N 827.736 -1.57571 -0.0300757 0
M  V30 8525 C 828.666 -2.0953 -1.03051 0
M  V30 8526 C 829.647 -0.99761 -1.37774 0
M  V30 8527 O 830.832 -1.27279 -1.46676 0
M  V30 8528 C 827.962 -2.57385 -2.33174 0
M  V30 8529 C 826.916 -3.71409 -2.12696 0
M  V30 8530 C 826.242 -4.05467 -3.4857 0
M  V30 8531 C 827.542 -4.99877 -1.51396 0
M  V30 8532 H 829.236 -2.93367 -0.597999 0
M  V30 8533 H 826.782 -1.41127 -0.286203 0
M  V30 8534 H 828.735 -2.92355 -3.03491 0
M  V30 8535 H 827.459 -1.70629 -2.78484 0
M  V30 8536 H 826.118 -3.36786 -1.44813 0
M  V30 8537 H 825.766 -3.15779 -3.91526 0
M  V30 8538 H 825.466 -4.82269 -3.35694 0
M  V30 8539 H 826.99 -4.4297 -4.2025 0
M  V30 8540 H 828.404 -5.3281 -2.11629 0
M  V30 8541 H 826.801 -5.81283 -1.49098 0
M  V30 8542 H 827.871 -4.82522 -0.479676 0
M  V30 8543 N 829.214 0.302327 -1.54673 0
M  V30 8544 C 830.161 1.37282 -1.85532 0
M  V30 8545 C 831.131 1.50437 -0.704129 0
M  V30 8546 O 832.316 1.65317 -0.952627 0
M  V30 8547 C 829.456 2.73309 -2.10704 0
M  V30 8548 C 828.569 2.68614 -3.38335 0
M  V30 8549 C 827.704 3.96626 -3.53357 0
M  V30 8550 C 826.743 3.86324 -4.74784 0
M  V30 8551 N 825.88 5.06109 -4.86619 0
M  V30 8552 H 830.72 1.10265 -2.76849 0
M  V30 8553 H 828.257 0.533346 -1.37091 0
M  V30 8554 H 830.215 3.52414 -2.23294 0
M  V30 8555 H 828.845 2.98589 -1.22656 0
M  V30 8556 H 827.897 1.81381 -3.34373 0
M  V30 8557 H 829.209 2.56891 -4.27561 0
M  V30 8558 H 828.363 4.84168 -3.65604 0
M  V30 8559 H 827.102 4.11182 -2.62261 0
M  V30 8560 H 826.107 2.97166 -4.62572 0
M  V30 8561 H 827.332 3.73315 -5.67286 0
M  V30 8562 H 825.278 5.2113 -3.98446 0
M  V30 8563 H 825.195 4.96804 -5.69844 0
M  V30 8564 H 826.463 5.95306 -5.03221 0
M  V30 8565 N 830.692 1.47107 0.565454 0
M  V30 8566 C 831.622 1.61846 1.68309 0
M  V30 8567 C 832.603 0.468159 1.63531 0
M  V30 8568 O 833.788 0.696504 1.8128 0
M  V30 8569 C 830.918 1.62474 3.06952 0
M  V30 8570 C 829.872 2.76649 3.26572 0
M  V30 8571 C 829.198 2.62345 4.65917 0
M  V30 8572 C 830.498 4.18319 3.12741 0
M  V30 8573 H 832.192 2.55407 1.5623 0
M  V30 8574 H 829.738 1.22916 0.750179 0
M  V30 8575 H 831.691 1.71378 3.84977 0
M  V30 8576 H 830.415 0.654692 3.19971 0
M  V30 8577 H 829.074 2.67242 2.50952 0
M  V30 8578 H 828.722 1.63386 4.75725 0
M  V30 8579 H 828.422 3.38936 4.79996 0
M  V30 8580 H 829.946 2.73165 5.46089 0
M  V30 8581 H 831.36 4.28745 3.80593 0
M  V30 8582 H 829.757 4.95632 3.38333 0
M  V30 8583 H 830.827 4.37263 2.09592 0
M  V30 8584 N 832.17 -0.811516 1.35101 0
M  V30 8585 C 833.395 -1.60499 1.31358 0
M  V30 8586 C 833.82 -1.87793 -0.107383 0
M  V30 8587 O 833.178 -1.46161 -1.07268 0
M  V30 8588 C 833.226 -2.91612 2.12119 0
M  V30 8589 O 832.33 -3.84211 1.49853 0
M  V30 8590 H 831.671 -0.487702 0.450603 0
M  V30 8591 H 834.201 -1.00758 1.7807 0
M  V30 8592 H 834.211 -3.4108 2.23894 0
M  V30 8593 H 832.886 -2.71071 3.15426 0
M  V30 8594 H 831.463 -3.42751 1.46889 0
M  V30 8595 N 833.648 -1.19017 -1.03309 0
M  V30 8596 C 834.878 -1.01387 -1.80012 0
M  V30 8597 C 835.286 0.440655 -1.83997 0
M  V30 8598 O 834.629 1.31786 -1.27977 0
M  V30 8599 C 834.691 -1.50171 -3.26633 0
M  V30 8600 C 834.355 -2.98213 -3.46292 0
M  V30 8601 C 835.352 -3.96009 -3.36857 0
M  V30 8602 C 833.037 -3.36812 -3.72643 0
M  V30 8603 C 835.031 -5.30399 -3.5349 0
M  V30 8604 C 832.718 -4.71363 -3.88922 0
M  V30 8605 C 833.716 -5.67966 -3.79347 0
M  V30 8606 O 833.404 -7.00079 -3.95151 0
M  V30 8607 H 833.136 -0.357899 -0.573484 0
M  V30 8608 H 835.69 -1.58171 -1.31039 0
M  V30 8609 H 833.92 -0.877586 -3.7661 0
M  V30 8610 H 835.609 -1.28814 -3.84918 0
M  V30 8611 H 836.375 -3.67534 -3.16455 0
M  V30 8612 H 832.254 -2.62175 -3.7919 0
M  V30 8613 H 835.798 -6.05786 -3.45933 0
M  V30 8614 H 831.695 -4.99536 -4.0882 0
M  V30 8615 H 832.463 -7.07092 -4.12266 0
M  V30 8616 N 835.127 1.22348 -0.993418 0
M  V30 8617 C 836.057 2.26584 -0.564088 0
M  V30 8618 C 837.038 1.65102 0.409298 0
M  V30 8619 O 838.223 1.91872 0.299819 0
M  V30 8620 C 835.353 3.47087 0.121554 0
M  V30 8621 C 834.307 4.21009 -0.770429 0
M  V30 8622 C 833.633 5.34678 0.0481586 0
M  V30 8623 C 834.933 4.79636 -2.06752 0
M  V30 8624 H 836.627 2.62749 -1.43538 0
M  V30 8625 H 834.173 1.26303 -0.691628 0
M  V30 8626 H 836.126 4.19166 0.433303 0
M  V30 8627 H 834.85 3.1002 1.0274 0
M  V30 8628 H 833.509 3.50764 -1.06583 0
M  V30 8629 H 833.157 4.93852 0.954933 0
M  V30 8630 H 832.857 5.85061 -0.545641 0
M  V30 8631 H 834.381 6.09573 0.353991 0
M  V30 8632 H 835.795 5.43654 -1.81969 0
M  V30 8633 H 834.192 5.4036 -2.61019 0
M  V30 8634 H 835.262 3.99659 -2.74592 0
M  V30 8635 N 836.605 0.766683 1.37694 0
M  V30 8636 C 837.833 0.339939 2.04088 0
M  V30 8637 C 838.248 -1.03617 1.57826 0
M  V30 8638 O 837.605 -1.6605 0.757214 0
M  V30 8639 C 837.656 0.368269 3.59619 0
M  V30 8640 O 837.377 1.69009 4.04188 0
M  V30 8641 C 838.878 -0.0707053 4.43244 0
M  V30 8642 H 836.098 0.143189 0.655544 0
M  V30 8643 H 838.642 1.03919 1.76128 0
M  V30 8644 H 836.797 -0.282359 3.8637 0
M  V30 8645 H 837.211 1.62523 4.98685 0
M  V30 8646 H 838.685 0.000273538 5.52 0
M  V30 8647 H 839.162 -1.1204 4.24669 0
M  V30 8648 H 839.768 0.551543 4.21709 0
M  V30 8649 N 838.083 -1.48885 0.516809 0
M  V30 8650 C 839.329 -2.03395 -0.0140225 0
M  V30 8651 C 839.684 -1.38808 -1.33229 0
M  V30 8652 O 838.977 -0.520104 -1.84406 0
M  V30 8653 C 839.171 -3.56801 -0.206798 0
M  V30 8654 C 839 -4.36259 1.09124 0
M  V30 8655 C 837.77 -4.77689 1.64745 0
M  V30 8656 C 839.968 -4.73881 1.99854 0
M  V30 8657 N 837.95 -5.41634 2.88975 0
M  V30 8658 C 839.321 -5.37707 3.08661 0
M  V30 8659 C 841.376 -4.55816 2.00341 0
M  V30 8660 C 840.079 -5.85379 4.18001 0
M  V30 8661 C 842.105 -5.04459 3.08666 0
M  V30 8662 C 841.467 -5.68299 4.16191 0
M  V30 8663 H 837.566 -0.781169 0.036042 0
M  V30 8664 H 840.15 -1.81867 0.695173 0
M  V30 8665 H 838.321 -3.78181 -0.885064 0
M  V30 8666 H 840.053 -3.9795 -0.736053 0
M  V30 8667 H 836.808 -4.58392 1.19054 0
M  V30 8668 H 837.232 -5.78181 3.52187 0
M  V30 8669 H 841.874 -4.05851 1.18511 0
M  V30 8670 H 839.592 -6.34356 5.00618 0
M  V30 8671 H 843.178 -4.92281 3.10082 0
M  V30 8672 H 842.058 -6.05257 4.98631 0
M  V30 8673 N 839.561 -0.251338 -1.55583 0
M  V30 8674 C 840.807 0.37272 -1.99346 0
M  V30 8675 C 841.14 1.57266 -1.13934 0
M  V30 8676 O 840.415 1.9343 -0.20377 0
M  V30 8677 C 840.698 0.778245 -3.5159 0
M  V30 8678 C 840.551 -0.427394 -4.47765 0
M  V30 8679 C 841.87 1.62358 -4.09057 0
M  V30 8680 H 838.989 0.134002 -0.724715 0
M  V30 8681 H 841.631 -0.353536 -1.86682 0
M  V30 8682 H 839.781 1.39704 -3.62512 0
M  V30 8683 H 841.453 -1.06586 -4.48818 0
M  V30 8684 H 839.696 -1.06972 -4.20404 0
M  V30 8685 H 840.367 -0.10025 -5.51909 0
M  V30 8686 H 842.843 1.1012 -4.01264 0
M  V30 8687 H 841.719 1.87617 -5.1584 0
M  V30 8688 H 841.98 2.59688 -3.57791 0
M  V30 8689 N 841.039 1.57585 0.0217189 0
M  V30 8690 C 842.455 1.55072 0.377484 0
M  V30 8691 C 842.655 0.978423 1.76151 0
M  V30 8692 O 841.711 0.602688 2.45202 0
M  V30 8693 C 843.024 2.99462 0.272605 0
M  V30 8694 C 844.572 3.11047 0.349148 0
M  V30 8695 C 845.047 4.57182 0.273636 0
M  V30 8696 N 846.538 4.62007 0.332206 0
M  V30 8697 C 847.273 5.72631 0.296782 0
M  V30 8698 N 846.769 6.92472 0.21322 0
M  V30 8699 N 848.562 5.61028 0.347053 0
M  V30 8700 H 840.713 1.93133 -0.883925 0
M  V30 8701 H 842.976 0.886151 -0.33681 0
M  V30 8702 H 842.682 3.45088 -0.67878 0
M  V30 8703 H 842.556 3.61901 1.06335 0
M  V30 8704 H 844.943 2.65364 1.29097 0
M  V30 8705 H 845.024 2.51425 -0.471085 0
M  V30 8706 H 844.668 5.03534 -0.664548 0
M  V30 8707 H 844.598 5.14724 1.11207 0
M  V30 8708 H 847.089 3.75788 0.399003 0
M  V30 8709 H 847.402 7.72563 0.191492 0
M  V30 8710 H 845.747 6.94769 0.179161 0
M  V30 8711 H 848.938 4.66298 0.410378 0
M  V30 8712 H 849.111 6.47229 0.315979 0
M  V30 8713 N 842.517 -0.29412 1.54831 0
M  V30 8714 C 843.764 -1.02846 1.74439 0
M  V30 8715 C 844.092 -1.87029 0.533905 0
M  V30 8716 O 843.347 -1.8962 -0.484035 0
M  V30 8717 C 843.646 -1.95782 2.99006 0
M  V30 8718 C 843.312 -1.2752 4.32492 0
M  V30 8719 C 841.974 -1.08637 4.68777 0
M  V30 8720 C 844.326 -0.787761 5.15212 0
M  V30 8721 C 841.654 -0.39704 5.85355 0
M  V30 8722 C 844.006 -0.112123 6.32501 0
M  V30 8723 C 842.67 0.0886071 6.67441 0
M  V30 8724 H 841.94 -0.376341 0.638317 0
M  V30 8725 H 844.587 -0.302684 1.89093 0
M  V30 8726 H 842.892 -2.74911 2.79162 0
M  V30 8727 H 844.589 -2.52684 3.11371 0
M  V30 8728 H 841.179 -1.43226 4.03961 0
M  V30 8729 H 845.363 -0.921341 4.87673 0
M  V30 8730 H 840.619 -0.230597 6.10965 0
M  V30 8731 H 844.793 0.27344 6.95863 0
M  V30 8732 H 842.42 0.624748 7.57628 0
M  V30 8733 N 843.995 -1.47404 -0.557645 0
M  V30 8734 C 845.22 -1.57868 -1.34508 0
M  V30 8735 C 845.645 -0.229151 -1.86699 0
M  V30 8736 O 845.003 0.794908 -1.62944 0
M  V30 8737 C 845.051 -2.60712 -2.49122 0
M  V30 8738 O 844.155 -2.15952 -3.51338 0
M  V30 8739 H 843.496 -0.530335 -0.399551 0
M  V30 8740 H 846.026 -1.93181 -0.673954 0
M  V30 8741 H 846.036 -2.81118 -2.95697 0
M  V30 8742 H 844.711 -3.58701 -2.10491 0
M  V30 8743 H 843.288 -2.05644 -3.11071 0
M  V30 8744 N 845.473 0.80434 -1.35529 0
M  V30 8745 C 846.722 1.55665 -1.28263 0
M  V30 8746 C 847.035 1.95096 0.140352 0
M  V30 8747 O 848.241 2.69422 0.335303 0
M  V30 8748 C 846.697 2.80935 -2.24952 0
M  V30 8749 C 846.305 2.48733 -3.72607 0
M  V30 8750 C 848.049 3.5894 -2.26632 0
M  V30 8751 C 845.956 3.70308 -4.61114 0
M  V30 8752 H 844.886 0.584301 -0.476559 0
M  V30 8753 H 847.537 0.88395 -1.60806 0
M  V30 8754 H 845.919 3.49927 -1.85383 0
M  V30 8755 H 847.093 1.87733 -4.20824 0
M  V30 8756 H 845.408 1.83969 -3.73557 0
M  V30 8757 H 848.005 4.49244 -2.89973 0
M  V30 8758 H 848.348 3.96433 -1.27069 0
M  V30 8759 H 848.881 2.96912 -2.64742 0
M  V30 8760 H 845.62 3.37922 -5.61684 0
M  V30 8761 H 845.14 4.30526 -4.17621 0
M  V30 8762 H 846.819 4.37511 -4.76648 0
M  V30 8763 N 846.951 1.19563 1.02676 0
M  V30 8764 C 848.197 1.01108 1.7649 0
M  V30 8765 C 848.552 -0.453152 1.86987 0
M  V30 8766 O 847.845 -1.33209 1.37717 0
M  V30 8767 C 848.039 1.61619 3.18769 0
M  V30 8768 C 847.868 3.13774 3.22142 0
M  V30 8769 C 846.638 3.82687 3.29968 0
M  V30 8770 C 848.836 4.11114 3.09014 0
M  V30 8771 N 846.818 5.2222 3.22737 0
M  V30 8772 C 848.189 5.37259 3.0944 0
M  V30 8773 C 850.244 4.02447 2.93157 0
M  V30 8774 C 848.947 6.55738 2.95636 0
M  V30 8775 C 850.973 5.20538 2.80703 0
M  V30 8776 C 850.335 6.45582 2.81785 0
M  V30 8777 H 846.434 0.424123 0.656996 0
M  V30 8778 H 849.018 1.5157 1.22207 0
M  V30 8779 H 847.189 1.13756 3.71368 0
M  V30 8780 H 848.921 1.36579 3.80957 0
M  V30 8781 H 845.676 3.3349 3.36275 0
M  V30 8782 H 846.1 5.95238 3.22523 0
M  V30 8783 H 850.742 3.0659 2.9114 0
M  V30 8784 H 848.46 7.51778 2.96403 0
M  V30 8785 H 852.046 5.15635 2.69466 0
M  V30 8786 H 850.926 7.35423 2.72254 0
M  V30 8787 N 848.429 -1.21819 0.999893 0
M  V30 8788 C 849.359 -2.26282 0.576096 0
M  V30 8789 C 850.34 -1.65317 -0.400537 0
M  V30 8790 O 851.525 -1.92028 -0.28964 0
M  V30 8791 C 848.655 -3.47147 -0.103145 0
M  V30 8792 C 847.609 -4.20594 0.792745 0
M  V30 8793 C 846.935 -5.34696 -0.0198026 0
M  V30 8794 C 848.235 -4.78533 2.09293 0
M  V30 8795 H 849.929 -2.61984 1.4493 0
M  V30 8796 H 847.475 -1.25935 0.698316 0
M  V30 8797 H 849.428 -4.1939 -0.411068 0
M  V30 8798 H 848.152 -3.1056 -1.01094 0
M  V30 8799 H 846.811 -3.50194 1.08442 0
M  V30 8800 H 846.459 -4.94352 -0.928729 0
M  V30 8801 H 846.159 -5.84764 0.576661 0
M  V30 8802 H 847.683 -6.09752 -0.321659 0
M  V30 8803 H 849.097 -5.42682 1.8485 0
M  V30 8804 H 847.494 -5.38968 2.63881 0
M  V30 8805 H 848.564 -3.98197 2.76708 0
M  V30 8806 N 849.908 -0.773975 -1.37286 0
M  V30 8807 C 850.838 -0.175782 -2.32837 0
M  V30 8808 C 851.819 0.680603 -1.5589 0
M  V30 8809 O 853.004 0.617607 -1.84117 0
M  V30 8810 C 850.134 0.702388 -3.40123 0
M  V30 8811 C 849.088 -0.0528687 -4.27967 0
M  V30 8812 C 848.414 0.944891 -5.26285 0
M  V30 8813 C 849.714 -1.23316 -5.07534 0
M  V30 8814 H 851.408 -0.974016 -2.83114 0
M  V30 8815 H 848.954 -0.469826 -1.3612 0
M  V30 8816 H 850.907 1.13069 -4.05947 0
M  V30 8817 H 849.631 1.53316 -2.88378 0
M  V30 8818 H 848.29 -0.461978 -3.63678 0
M  V30 8819 H 847.938 1.77028 -4.70819 0
M  V30 8820 H 847.638 0.444079 -5.8592 0
M  V30 8821 H 849.162 1.37209 -5.94984 0
M  V30 8822 H 850.576 -0.881395 -5.66484 0
M  V30 8823 H 848.973 -1.66621 -5.76504 0
M  V30 8824 H 850.043 -2.03617 -4.40077 0
M  V30 8825 N 851.386 1.48609 -0.524698 0
M  V30 8826 C 852.319 2.26374 0.288109 0
M  V30 8827 C 853.297 1.31997 0.949509 0
M  V30 8828 O 854.481 1.61329 0.974946 0
M  V30 8829 C 851.608 3.08065 1.4076 0
M  V30 8830 C 850.654 4.17777 0.858152 0
M  V30 8831 S 851.487 5.3482 -0.269827 0
M  V30 8832 C 852.643 6.2007 0.852266 0
M  V30 8833 H 852.876 2.94965 -0.371865 0
M  V30 8834 H 850.409 1.51248 -0.31039 0
M  V30 8835 H 852.367 3.5571 2.04892 0
M  V30 8836 H 851.028 2.38898 2.03928 0
M  V30 8837 H 850.221 4.74542 1.69783 0
M  V30 8838 H 849.823 3.72846 0.293627 0
M  V30 8839 H 852.115 6.54451 1.75213 0
M  V30 8840 H 853.058 7.07364 0.322717 0
M  V30 8841 H 853.466 5.53068 1.13029 0
M  V30 8842 N 852.864 0.259585 1.55447 0
M  V30 8843 C 854.112 -0.360893 1.98852 0
M  V30 8844 C 854.433 -1.57535 1.14924 0
M  V30 8845 O 853.703 -1.94485 0.235025 0
M  V30 8846 H 852.283 -0.136332 0.734454 0
M  V30 8847 H 854.945 0.361319 1.91522 0
M  V30 8848 H 854.041 -0.661388 3.05012 0
M  V30 8849 N 854.342 -1.57594 -0.0133615 0
M  V30 8850 C 855.272 -2.10611 -1.00823 0
M  V30 8851 C 856.253 -1.01217 -1.36708 0
M  V30 8852 O 857.438 -1.28827 -1.45318 0
M  V30 8853 C 854.568 -2.59844 -2.30431 0
M  V30 8854 C 853.522 -3.73644 -2.08745 0
M  V30 8855 C 852.848 -4.09141 -3.4425 0
M  V30 8856 C 854.148 -5.01454 -1.46086 0
M  V30 8857 H 855.842 -2.93985 -0.566849 0
M  V30 8858 H 853.388 -1.41423 -0.271219 0
M  V30 8859 H 855.341 -2.95557 -3.00373 0
M  V30 8860 H 854.065 -1.73573 -2.76658 0
M  V30 8861 H 852.724 -3.38303 -1.41232 0
M  V30 8862 H 852.372 -3.19914 -3.88155 0
M  V30 8863 H 852.072 -4.85802 -3.3056 0
M  V30 8864 H 853.596 -4.47402 -4.15528 0
M  V30 8865 H 855.01 -5.35024 -2.05966 0
M  V30 8866 H 853.407 -5.82832 -1.42924 0
M  V30 8867 H 854.477 -4.83003 -0.428471 0
M  V30 8868 N 855.82 0.285905 -1.54985 0
M  V30 8869 C 856.783 1.33625 -1.86218 0
M  V30 8870 C 857.783 1.42971 -0.735936 0
M  V30 8871 O 858.973 1.42345 -1.00417 0
M  V30 8872 C 856.105 2.71926 -2.05595 0
M  V30 8873 H 857.298 1.07167 -2.80099 0
M  V30 8874 H 854.851 0.523335 -1.47278 0
M  V30 8875 H 855.586 3.03583 -1.14053 0
M  V30 8876 H 855.371 2.6653 -2.87583 0
M  V30 8877 H 856.861 3.47841 -2.31077 0
M  V30 8878 N 857.298 1.47698 0.54982 0
M  V30 8879 C 858.544 1.54931 1.30859 0
M  V30 8880 C 858.877 0.214021 1.93017 0
M  V30 8881 O 858.152 -0.778093 1.78258 0
M  V30 8882 C 858.435 2.67286 2.41309 0
M  V30 8883 C 858.288 4.10457 1.83971 0
M  V30 8884 C 859.607 2.75509 3.43195 0
M  V30 8885 H 856.726 0.56399 0.474431 0
M  V30 8886 H 859.368 1.79787 0.614541 0
M  V30 8887 H 857.518 2.46224 3.0051 0
M  V30 8888 H 859.19 4.42903 1.28974 0
M  V30 8889 H 857.433 4.18387 1.14606 0
M  V30 8890 H 858.104 4.84857 2.63851 0
M  V30 8891 H 860.58 2.94531 2.93923 0
M  V30 8892 H 859.456 3.55886 4.17895 0
M  V30 8893 H 859.717 1.82863 4.02509 0
M  V30 8894 N 858.776 -0.797141 1.35954 0
M  V30 8895 C 860.006 -1.5835 1.32698 0
M  V30 8896 C 860.414 -1.88959 -0.0955298 0
M  V30 8897 O 859.757 -1.49987 -1.06064 0
M  V30 8898 C 859.819 -2.93529 2.0756 0
M  V30 8899 C 859.483 -2.85688 3.56695 0
M  V30 8900 C 860.48 -2.58467 4.51099 0
M  V30 8901 C 858.165 -3.04508 3.99475 0
M  V30 8902 C 860.159 -2.50157 5.8626 0
M  V30 8903 C 857.846 -2.9582 5.34728 0
M  V30 8904 C 858.844 -2.68681 6.27933 0
M  V30 8905 O 858.532 -2.59973 7.60703 0
M  V30 8906 H 858.264 -0.49807 0.457059 0
M  V30 8907 H 860.818 -0.997889 1.79531 0
M  V30 8908 H 859.048 -3.54111 1.55378 0
M  V30 8909 H 860.737 -3.54744 1.9726 0
M  V30 8910 H 861.503 -2.43638 4.19363 0
M  V30 8911 H 857.382 -3.24641 3.27306 0
M  V30 8912 H 860.926 -2.28894 6.58979 0
M  V30 8913 H 856.823 -3.10211 5.66074 0
M  V30 8914 H 857.591 -2.75511 7.70737 0
M  V30 8915 N 860.254 -1.20106 -1.0204 0
M  V30 8916 C 861.501 -1.00889 -1.75578 0
M  V30 8917 C 861.829 0.459415 -1.88996 0
M  V30 8918 O 861.084 1.35735 -1.40977 0
M  V30 8919 C 861.383 -1.63308 -3.17908 0
M  V30 8920 C 861.049 -3.13091 -3.24476 0
M  V30 8921 C 859.711 -3.53968 -3.25976 0
M  V30 8922 C 862.063 -4.09093 -3.22944 0
M  V30 8923 C 859.391 -4.89381 -3.2361 0
M  V30 8924 C 861.743 -5.44447 -3.22119 0
M  V30 8925 C 860.407 -5.84742 -3.2192 0
M  V30 8926 H 859.677 -0.36918 -0.642485 0
M  V30 8927 H 862.324 -1.49475 -1.19706 0
M  V30 8928 H 860.629 -1.06974 -3.76914 0
M  V30 8929 H 862.326 -1.45958 -3.73493 0
M  V30 8930 H 858.916 -2.80526 -3.24042 0
M  V30 8931 H 863.1 -3.78549 -3.20958 0
M  V30 8932 H 858.356 -5.1987 -3.21785 0
M  V30 8933 H 862.53 -6.18584 -3.19885 0
M  V30 8934 H 860.157 -6.89642 -3.19841 0
M  V30 8935 N 861.732 1.21287 -1.00634 0
M  V30 8936 C 862.98 1.90013 -0.688438 0
M  V30 8937 C 863.301 1.78573 0.783365 0
M  V30 8938 O 862.571 1.1815 1.56261 0
M  V30 8939 H 861.151 0.703336 -0.251648 0
M  V30 8940 H 863.813 1.47346 -1.27574 0
M  V30 8941 H 862.909 2.96879 -0.962781 0
M  V30 8942 N 863.21 0.781244 1.36873 0
M  V30 8943 C 864.44 0.361042 2.03421 0
M  V30 8944 C 864.848 -1.02471 1.59048 0
M  V30 8945 O 864.191 -1.66712 0.771552 0
M  V30 8946 C 864.253 0.336202 3.57924 0
M  V30 8947 C 863.917 1.66815 4.25467 0
M  V30 8948 C 864.914 2.62224 4.48926 0
M  V30 8949 C 862.599 1.9452 4.63106 0
M  V30 8950 C 864.593 3.83538 5.09095 0
M  V30 8951 C 862.28 3.16103 5.22994 0
M  V30 8952 C 863.278 4.10431 5.45926 0
M  V30 8953 O 862.966 5.29871 6.04559 0
M  V30 8954 H 862.698 0.147956 0.65961 0
M  V30 8955 H 865.252 1.05895 1.75998 0
M  V30 8956 H 863.482 -0.418147 3.84433 0
M  V30 8957 H 865.171 -0.0582199 4.05858 0
M  V30 8958 H 865.937 2.42104 4.20251 0
M  V30 8959 H 861.816 1.21921 4.44585 0
M  V30 8960 H 865.36 4.57178 5.2691 0
M  V30 8961 H 861.257 3.36104 5.51094 0
M  V30 8962 H 862.025 5.30825 6.23031 0
M  V30 8963 N 864.689 -1.48329 0.532571 0
M  V30 8964 C 865.937 -2.021 -0.000581206 0
M  V30 8965 C 866.258 -1.4117 -1.34522 0
M  V30 8966 O 865.528 -0.578005 -1.87179 0
M  V30 8967 H 864.108 -0.746993 -0.00320281 0
M  V30 8968 H 866.77 -1.82011 0.696991 0
M  V30 8969 H 865.866 -3.11917 -0.106991 0
M  V30 8970 N 866.167 -0.267825 -1.55308 0
M  V30 8971 C 867.416 0.351635 -1.98611 0
M  V30 8972 C 867.729 1.57522 -1.15957 0
M  V30 8973 O 868.935 2.26717 -1.49371 0
M  V30 8974 C 867.391 0.676986 -3.53475 0
M  V30 8975 C 866.999 -0.526385 -4.44897 0
M  V30 8976 C 868.743 1.25948 -4.05386 0
M  V30 8977 C 866.65 -0.176026 -5.91138 0
M  V30 8978 H 865.58 0.13516 -0.741787 0
M  V30 8979 H 868.231 -0.371333 -1.79704 0
M  V30 8980 H 866.613 1.45866 -3.68156 0
M  V30 8981 H 867.787 -1.30339 -4.41982 0
M  V30 8982 H 866.102 -1.02522 -4.03582 0
M  V30 8983 H 868.699 1.53529 -5.12184 0
M  V30 8984 H 869.042 2.19094 -3.53982 0
M  V30 8985 H 869.575 0.540253 -3.94114 0
M  V30 8986 H 866.314 -1.07518 -6.46622 0
M  V30 8987 H 865.834 0.564363 -5.97139 0
M  V30 8988 H 867.513 0.234365 -6.46575 0
M  V30 8989 N 867.645 1.57599 0.00500368 0
M  V30 8990 C 869.061 1.55463 0.361015 0
M  V30 8991 C 869.261 0.997051 1.75103 0
M  V30 8992 O 868.317 0.628661 2.44549 0
M  V30 8993 C 869.63 2.99734 0.240828 0
M  V30 8994 C 871.178 3.11399 0.316138 0
M  V30 8995 C 871.653 4.57446 0.22513 0
M  V30 8996 N 873.144 4.62334 0.283186 0
M  V30 8997 C 873.879 5.72914 0.23603 0
M  V30 8998 N 873.375 6.92659 0.139762 0
M  V30 8999 N 875.168 5.61364 0.287529 0
M  V30 9000 H 867.319 1.92185 -0.904359 0
M  V30 9001 H 869.582 0.882529 -0.34619 0
M  V30 9002 H 869.288 3.44348 -0.715343 0
M  V30 9003 H 869.162 3.63009 1.02491 0
M  V30 9004 H 871.549 2.66718 1.26275 0
M  V30 9005 H 871.63 2.50911 -0.497725 0
M  V30 9006 H 871.274 5.02801 -0.717917 0
M  V30 9007 H 871.204 5.15874 1.05742 0
M  V30 9008 H 873.695 3.7619 0.359123 0
M  V30 9009 H 874.008 7.72722 0.10954 0
M  V30 9010 H 872.353 6.9492 0.105462 0
M  V30 9011 H 875.544 4.66707 0.360897 0
M  V30 9012 H 875.717 6.47528 0.247313 0
M  V30 9013 N 869.123 -0.277682 1.55134 0
M  V30 9014 C 870.073 -1.34531 1.8408 0
M  V30 9015 C 871.057 -1.44904 0.699393 0
M  V30 9016 O 872.249 -1.48664 0.960623 0
M  V30 9017 C 869.378 -2.7064 2.11208 0
M  V30 9018 C 868.464 -2.64396 3.31596 0
M  V30 9019 N 868.855 -2.2777 4.51613 0
M  V30 9020 C 867.153 -2.95464 3.34091 0
M  V30 9021 C 867.854 -2.31401 5.33693 0
M  V30 9022 N 866.83 -2.69688 4.71984 0
M  V30 9023 H 870.632 -1.05214 2.74421 0
M  V30 9024 H 868.146 -0.486311 1.54948 0
M  V30 9025 H 870.143 -3.47649 2.301 0
M  V30 9026 H 868.803 -3.00849 1.22148 0
M  V30 9027 H 869.814 -1.99827 4.77797 0
M  V30 9028 H 866.491 -3.30415 2.5521 0
M  V30 9029 H 867.881 -2.05685 6.39643 0
M  V30 9030 N 870.601 -1.47988 -0.541979 0
M  V30 9031 C 871.826 -1.59286 -1.32826 0
M  V30 9032 C 872.251 -0.24894 -1.86445 0
M  V30 9033 O 871.609 0.777581 -1.63778 0
M  V30 9034 C 871.657 -2.6334 -2.46343 0
M  V30 9035 O 870.761 -2.19667 -3.49028 0
M  V30 9036 H 870.102 -0.534543 -0.393903 0
M  V30 9037 H 872.632 -1.93885 -0.653427 0
M  V30 9038 H 872.642 -2.84238 -2.92699 0
M  V30 9039 H 871.317 -3.60913 -2.06675 0
M  V30 9040 H 869.894 -2.08932 -3.08872 0
M  V30 9041 N 872.079 0.78992 -1.36375 0
M  V30 9042 C 873.026 1.90254 -1.3066 0
M  V30 9043 C 873.996 1.65171 -0.17539 0
M  V30 9044 O 875.181 1.87338 -0.361824 0
M  V30 9045 C 872.321 3.27057 -1.10125 0
M  V30 9046 C 871.434 3.64215 -2.32317 0
M  V30 9047 C 870.569 4.90134 -2.04798 0
M  V30 9048 C 869.608 5.19969 -3.22953 0
M  V30 9049 N 868.745 6.37071 -2.95102 0
M  V30 9050 H 873.585 1.94474 -2.25796 0
M  V30 9051 H 871.122 0.951022 -1.12223 0
M  V30 9052 H 873.08 4.05947 -0.962453 0
M  V30 9053 H 871.71 3.22261 -0.186444 0
M  V30 9054 H 870.762 2.80454 -2.57002 0
M  V30 9055 H 872.074 3.82212 -3.20492 0
M  V30 9056 H 871.228 5.76888 -1.87845 0
M  V30 9057 H 869.967 4.74205 -1.13932 0
M  V30 9058 H 868.972 4.31699 -3.40465 0
M  V30 9059 H 870.197 5.37817 -4.14644 0
M  V30 9060 H 868.143 6.22535 -2.06848 0
M  V30 9061 H 868.06 6.55398 -3.76815 0
M  V30 9062 H 869.328 7.26808 -2.81727 0
M  V30 9063 N 873.557 1.20646 1.01402 0
M  V30 9064 C 874.467 0.973385 2.13453 0
M  V30 9065 C 875.483 -0.0715865 1.73853 0
M  V30 9066 O 876.659 0.116438 2.01063 0
M  V30 9067 C 873.724 0.531285 3.42605 0
M  V30 9068 C 872.785 1.64741 3.96433 0
M  V30 9069 C 872.018 1.22631 5.1942 0
M  V30 9070 O 872.241 0.0960891 5.70319 0
M  V30 9071 O 871.175 2.03474 5.66465 0
M  V30 9072 H 875.001 1.91164 2.35987 0
M  V30 9073 H 872.586 0.990553 1.11841 0
M  V30 9074 H 874.468 0.294095 4.20373 0
M  V30 9075 H 873.143 -0.378358 3.21481 0
M  V30 9076 H 872.05 1.93891 3.19933 0
M  V30 9077 H 873.383 2.53415 4.2195 0
M  V30 9078 N 875.035 -1.20752 1.01276 0
M  V30 9079 C 875.983 -2.25432 0.572989 0
M  V30 9080 C 876.977 -1.64935 -0.386354 0
M  V30 9081 O 878.183 -1.7816 -0.256696 0
M  V30 9082 H 874.558 -0.733229 0.166972 0
M  V30 9083 H 876.529 -2.59856 1.46687 0
M  V30 9084 C 875.278 -3.47615 -0.0768249 0
M  V30 9085 H 874.601 -3.94442 0.652354 0
M  V30 9086 H 876.041 -4.22572 -0.3477 0
M  V30 9087 C 874.5 -3.1003 -1.31845 0
M  V30 9088 O 875.03 -3.21216 -2.41211 0
M  V30 9089 N 873.236 -2.64616 -1.20111 0
M  V30 9090 H 872.783 -2.55714 -0.311184 0
M  V30 9091 H 872.741 -2.39838 -2.03286 0
M  V30 9092 N 876.513 -0.788492 -1.36457 0
M  V30 9093 C 877.445 -0.144208 -2.28746 0
M  V30 9094 C 878.458 0.646009 -1.49434 0
M  V30 9095 O 879.647 0.481344 -1.71888 0
M  V30 9096 C 876.747 0.818869 -3.28858 0
M  V30 9097 C 875.92 0.0789055 -4.37329 0
M  V30 9098 C 874.979 0.957791 -5.1741 0
M  V30 9099 O 874.005 0.415378 -5.67682 0
M  V30 9100 N 875.207 2.28216 -5.33758 0
M  V30 9101 H 877.972 -0.936949 -2.84678 0
M  V30 9102 H 875.533 -0.642317 -1.48613 0
M  V30 9103 H 877.525 1.41065 -3.79319 0
M  V30 9104 H 876.095 1.51249 -2.73573 0
M  V30 9105 H 875.315 -0.693939 -3.88044 0
M  V30 9106 H 876.603 -0.431753 -5.06965 0
M  V30 9107 H 876.001 2.747 -4.94527 0
M  V30 9108 H 874.558 2.8236 -5.87466 0
M  V30 9109 N 877.991 1.48044 -0.54043 0
M  V30 9110 C 879.407 1.58354 -0.199006 0
M  V30 9111 C 879.607 1.54118 1.29807 0
M  V30 9112 O 878.663 1.43573 2.07709 0
M  V30 9113 C 879.976 2.89563 -0.810797 0
M  V30 9114 C 881.524 3.03113 -0.780486 0
M  V30 9115 C 881.999 4.36997 -1.37104 0
M  V30 9116 N 883.49 4.43591 -1.33347 0
M  V30 9117 C 884.225 5.45714 -1.76021 0
M  V30 9118 N 883.721 6.54738 -2.26473 0
M  V30 9119 N 885.514 5.36659 -1.67194 0
M  V30 9120 H 877.665 1.49041 -1.51329 0
M  V30 9121 H 879.928 0.708309 -0.630081 0
M  V30 9122 H 879.634 2.9835 -1.86227 0
M  V30 9123 H 879.508 3.76053 -0.293977 0
M  V30 9124 H 881.895 2.93932 0.262246 0
M  V30 9125 H 881.976 2.18207 -1.33489 0
M  V30 9126 H 881.62 4.46932 -2.41276 0
M  V30 9127 H 881.55 5.20607 -0.792229 0
M  V30 9128 H 884.041 3.65391 -0.964259 0
M  V30 9129 H 884.354 7.28814 -2.57002 0
M  V30 9130 H 882.699 6.55673 -2.30473 0
M  V30 9131 H 885.89 4.50382 -1.27569 0
M  V30 9132 H 886.063 6.16113 -2.00771 0
M  V30 9133 N 879.47 0.276058 1.55163 0
M  V30 9134 C 880.38 -0.621066 2.2623 0
M  V30 9135 C 881.396 -1.16931 1.28853 0
M  V30 9136 O 882.572 -1.1994 1.61791 0
M  V30 9137 C 879.637 -1.78824 2.97023 0
M  V30 9138 C 878.698 -1.27657 4.09881 0
M  V30 9139 C 877.931 -2.38812 4.77289 0
M  V30 9140 O 878.154 -3.58188 4.43912 0
M  V30 9141 O 877.088 -2.06915 5.65217 0
M  V30 9142 H 880.914 -0.0453346 3.03666 0
M  V30 9143 H 878.499 0.0434275 1.49337 0
M  V30 9144 H 880.381 -2.46877 3.41511 0
M  V30 9145 H 879.056 -2.35104 2.22503 0
M  V30 9146 H 877.963 -0.56248 3.69847 0
M  V30 9147 H 879.296 -0.759509 4.86305 0
M  V30 9148 N 880.948 -1.576 0.00335426 0
M  V30 9149 C 881.878 -2.11668 -0.985839 0
M  V30 9150 C 882.859 -1.02661 -1.35627 0
M  V30 9151 O 884.044 -1.30361 -1.43943 0
M  V30 9152 C 881.174 -2.62273 -2.27662 0
M  V30 9153 C 880.128 -3.75837 -2.0477 0
M  V30 9154 C 879.454 -4.12769 -3.39891 0
M  V30 9155 C 880.754 -5.02975 -1.40759 0
M  V30 9156 H 882.448 -2.9457 -0.535637 0
M  V30 9157 H 879.994 -1.41702 -0.256204 0
M  V30 9158 H 881.947 -2.98727 -2.97221 0
M  V30 9159 H 880.671 -1.76498 -2.74802 0
M  V30 9160 H 879.33 -3.39782 -1.37636 0
M  V30 9161 H 878.978 -3.24013 -3.8474 0
M  V30 9162 H 878.678 -4.89281 -3.25389 0
M  V30 9163 H 880.202 -4.51784 -4.1076 0
M  V30 9164 H 881.616 -5.37179 -2.00279 0
M  V30 9165 H 880.013 -5.84315 -1.36734 0
M  V30 9166 H 881.083 -4.83431 -0.377218 0
M  V30 9167 N 882.426 0.269451 -1.5528 0
M  V30 9168 C 883.837 0.840233 -1.66724 0
M  V30 9169 C 884.188 1.86909 -0.596621 0
M  V30 9170 O 883.313 2.14817 0.261246 0
M  V30 9171 C 883.908 1.5308 -3.02245 0
M  V30 9172 C 882.467 2.04957 -3.15705 0
M  V30 9173 C 881.614 0.892838 -2.62533 0
M  V30 9174 H 884.565 0.0457236 -1.58634 0
M  V30 9175 H 884.586 2.39792 -2.95432 0
M  V30 9176 H 884.098 0.781741 -3.80145 0
M  V30 9177 H 882.199 2.82813 -2.42585 0
M  V30 9178 H 882.312 2.26244 -4.22316 0
M  V30 9179 H 880.676 1.28719 -2.19781 0
M  V30 9180 H 881.459 0.157229 -3.4294 0
M  V30 9181 N 883.904 1.48273 0.534124 0
M  V30 9182 C 885.152 1.55771 1.28762 0
M  V30 9183 C 885.473 0.231575 1.9362 0
M  V30 9184 O 884.743 -0.746533 1.81118 0
M  V30 9185 H 883.323 0.573851 0.47823 0
M  V30 9186 H 885.985 1.84712 0.621888 0
M  V30 9187 H 885.081 2.33657 2.06908 0
M  V30 9188 N 885.382 -0.782676 1.36792 0
M  V30 9189 C 886.312 -1.90973 1.34356 0
M  V30 9190 C 887.293 -1.6875 0.213917 0
M  V30 9191 O 888.478 -1.89766 0.412601 0
M  V30 9192 C 885.608 -3.28097 1.13884 0
M  V30 9193 C 884.562 -3.6486 2.23744 0
M  V30 9194 C 883.888 -5.00406 1.88408 0
M  V30 9195 C 885.188 -3.72742 3.6587 0
M  V30 9196 H 886.882 -1.93268 2.28665 0
M  V30 9197 H 884.428 -0.928447 1.10072 0
M  V30 9198 H 886.381 -4.06569 1.10813 0
M  V30 9199 H 885.105 -3.26206 0.160275 0
M  V30 9200 H 883.764 -2.88689 2.25952 0
M  V30 9201 H 883.412 -4.95044 0.891083 0
M  V30 9202 H 883.112 -5.25973 2.61966 0
M  V30 9203 H 884.636 -5.81291 1.86905 0
M  V30 9204 H 886.05 -4.4139 3.65852 0
M  V30 9205 H 884.447 -4.09798 4.38389 0
M  V30 9206 H 885.517 -2.73676 4.00287 0
M  V30 9207 N 886.86 -1.21182 -1.00761 0
M  V30 9208 C 887.808 -0.965728 -2.11604 0
M  V30 9209 C 888.802 0.0861028 -1.69181 0
M  V30 9210 O 890.008 -0.0650558 -1.79882 0
M  V30 9211 H 886.383 -0.295023 -0.691712 0
M  V30 9212 H 888.354 -1.90667 -2.2954 0
M  V30 9213 C 887.103 -0.544164 -3.43415 0
M  V30 9214 H 886.426 -1.34515 -3.76491 0
M  V30 9215 H 887.866 -0.411268 -4.22001 0
M  V30 9216 C 886.325 0.744583 -3.28569 0
M  V30 9217 O 886.855 1.80078 -3.59075 0
M  V30 9218 N 885.061 0.710083 -2.81791 0
M  V30 9219 H 884.608 -0.14971 -2.57165 0
M  V30 9220 H 884.566 1.57268 -2.72239 0
M  V30 9221 N 888.338 1.20213 -1.01915 0
M  V30 9222 C 889.563 1.94163 -0.729076 0
M  V30 9223 C 889.988 1.74416 0.704323 0
M  V30 9224 O 889.346 1.0401 1.48498 0
M  V30 9225 C 889.394 3.44258 -1.07324 0
M  V30 9226 O 888.498 4.11979 -0.186367 0
M  V30 9227 H 887.839 0.606506 -0.270272 0
M  V30 9228 H 890.369 1.52571 -1.3632 0
M  V30 9229 H 890.379 3.94888 -1.02603 0
M  V30 9230 H 889.054 3.57954 -2.11759 0
M  V30 9231 H 887.631 3.7176 -0.291334 0
M  V30 9232 N 889.816 0.795718 1.36037 0
M  V30 9233 C 891.044 0.383153 2.03321 0
M  V30 9234 C 891.459 -1.00246 1.59988 0
M  V30 9235 O 890.816 -1.64406 0.792265 0
M  V30 9236 C 890.867 0.444467 3.58757 0
M  V30 9237 O 890.588 1.77544 4.00512 0
M  V30 9238 C 892.089 0.0233291 4.43294 0
M  V30 9239 H 889.309 0.157061 0.652359 0
M  V30 9240 H 891.853 1.07632 1.73884 0
M  V30 9241 H 890.008 -0.200341 3.86882 0
M  V30 9242 H 890.422 1.73065 4.95125 0
M  V30 9243 H 891.896 0.117361 5.51875 0
M  V30 9244 H 892.373 -1.03007 4.2695 0
M  V30 9245 H 892.979 0.64087 4.20444 0
M  V30 9246 N 891.294 -1.47756 0.548274 0
M  V30 9247 C 892.244 -2.26891 -0.224628 0
M  V30 9248 C 893.228 -1.33816 -0.893421 0
M  V30 9249 O 894.42 -1.58232 -0.793204 0
M  V30 9250 C 891.549 -3.19358 -1.25959 0
M  V30 9251 C 890.635 -4.1991 -0.594662 0
M  V30 9252 N 891.026 -5.04721 0.330148 0
M  V30 9253 C 889.324 -4.37832 -0.849672 0
M  V30 9254 C 890.025 -5.77282 0.71553 0
M  V30 9255 N 889.001 -5.43552 0.0723997 0
M  V30 9256 H 892.803 -2.89844 0.486561 0
M  V30 9257 H 890.317 -1.58185 0.367577 0
M  V30 9258 H 892.314 -3.74726 -1.82718 0
M  V30 9259 H 890.974 -2.57961 -1.97196 0
M  V30 9260 H 891.985 -5.13095 0.703811 0
M  V30 9261 H 888.662 -3.87612 -1.55123 0
M  V30 9262 H 890.052 -6.55512 1.47493 0
M  V30 9263 N 892.772 -0.284283 -1.55015 0
M  V30 9264 C 894.002 0.332465 -2.03907 0
M  V30 9265 C 894.41 1.49331 -1.16177 0
M  V30 9266 O 893.753 1.82851 -0.176395 0
M  V30 9267 C 893.815 0.867193 -3.48884 0
M  V30 9268 C 893.479 -0.166198 -4.56698 0
M  V30 9269 C 894.476 -0.988898 -5.10408 0
M  V30 9270 C 892.161 -0.303081 -5.01385 0
M  V30 9271 C 894.155 -1.93458 -6.07333 0
M  V30 9272 C 891.842 -1.25223 -5.98133 0
M  V30 9273 C 892.84 -2.06647 -6.50988 0
M  V30 9274 O 892.528 -2.99955 -7.45843 0
M  V30 9275 H 892.26 0.0786597 -0.671408 0
M  V30 9276 H 894.814 -0.416871 -2.01125 0
M  V30 9277 H 893.044 1.66676 -3.48935 0
M  V30 9278 H 894.733 1.39802 -3.81065 0
M  V30 9279 H 895.499 -0.89393 -4.76691 0
M  V30 9280 H 891.378 0.320711 -4.59883 0
M  V30 9281 H 894.922 -2.57053 -6.48513 0
M  V30 9282 H 890.819 -1.34798 -6.31268 0
M  V30 9283 H 891.587 -2.94742 -7.6359 0
M  V30 9284 N 894.251 1.57596 -0.0117121 0
M  V30 9285 C 895.497 1.91355 0.671661 0
M  V30 9286 C 895.83 0.886818 1.72769 0
M  V30 9287 O 895.105 -0.0928813 1.94278 0
M  V30 9288 C 895.388 3.35657 1.30409 0
M  V30 9289 C 895.241 4.49055 0.2588 0
M  V30 9290 C 896.56 3.79595 2.22701 0
M  V30 9291 H 893.679 0.695893 0.242698 0
M  V30 9292 H 896.321 1.89887 -0.0654071 0
M  V30 9293 H 894.471 3.37038 1.9323 0
M  V30 9294 H 896.143 4.59809 -0.370631 0
M  V30 9295 H 894.386 4.31785 -0.417672 0
M  V30 9296 H 895.057 5.4701 0.740578 0
M  V30 9297 H 897.533 3.7984 1.69885 0
M  V30 9298 H 896.409 4.81292 2.63912 0
M  V30 9299 H 896.67 3.14118 3.11098 0
M  V30 9300 N 895.729 -0.261212 1.5542 0
M  V30 9301 C 896.975 -0.992699 1.76843 0
M  V30 9302 C 897.308 -1.8551 0.574428 0
M  V30 9303 O 896.583 -1.89739 -0.427713 0
M  V30 9304 C 896.866 -1.86532 3.08022 0
M  V30 9305 C 896.719 -1.03206 4.378 0
M  V30 9306 C 898.038 -2.85036 3.35324 0
M  V30 9307 H 895.157 -0.359473 0.643388 0
M  V30 9308 H 897.799 -0.264214 1.88154 0
M  V30 9309 H 895.949 -2.48644 2.9851 0
M  V30 9310 H 897.621 -0.430743 4.59285 0
M  V30 9311 H 895.864 -0.335911 4.32497 0
M  V30 9312 H 896.535 -1.6761 5.25938 0
M  V30 9313 H 899.011 -2.3306 3.44706 0
M  V30 9314 H 897.887 -3.43226 4.28354 0
M  V30 9315 H 898.148 -3.60768 2.55537 0
M  V30 9316 N 897.207 -1.48554 -0.526253 0
M  V30 9317 C 898.454 -1.56761 -1.28188 0
M  V30 9318 C 898.782 -0.24315 -1.92974 0
M  V30 9319 O 898.037 0.766883 -1.80048 0
M  V30 9320 C 898.336 -2.65739 -2.38993 0
M  V30 9321 C 898.002 -4.08057 -1.91834 0
M  V30 9322 C 896.664 -4.46792 -1.78691 0
M  V30 9323 C 899.016 -4.9723 -1.56242 0
M  V30 9324 C 896.344 -5.72501 -1.28296 0
M  V30 9325 C 898.696 -6.23432 -1.07309 0
M  V30 9326 C 897.36 -6.6102 -0.927853 0
M  V30 9327 H 896.63 -0.573631 -0.469072 0
M  V30 9328 H 899.277 -1.82287 -0.586842 0
M  V30 9329 H 897.582 -2.34088 -3.14181 0
M  V30 9330 H 899.279 -2.69304 -2.97113 0
M  V30 9331 H 895.869 -3.77469 -2.03016 0
M  V30 9332 H 900.053 -4.67979 -1.65255 0
M  V30 9333 H 895.309 -6.00345 -1.15742 0
M  V30 9334 H 899.483 -6.91923 -0.788412 0
M  V30 9335 H 897.11 -7.58314 -0.535162 0
M  V30 9336 N 898.685 0.775411 -1.37205 0
M  V30 9337 C 900.096 1.35147 -1.28811 0
M  V30 9338 C 900.447 1.96089 0.0659168 0
M  V30 9339 O 899.572 1.93558 0.967684 0
M  V30 9340 C 900.167 2.45715 -2.33258 0
M  V30 9341 C 898.726 2.99099 -2.2851 0
M  V30 9342 C 897.873 1.72286 -2.17285 0
M  V30 9343 H 900.824 0.575954 -1.4788 0
M  V30 9344 H 900.845 3.251 -1.97712 0
M  V30 9345 H 900.357 2.01331 -3.31795 0
M  V30 9346 H 898.458 3.47868 -1.33485 0
M  V30 9347 H 898.571 3.54962 -3.21774 0
M  V30 9348 H 896.935 1.95068 -1.6377 0
M  V30 9349 H 897.718 1.3001 -3.1773 0
M  V30 9350 N 900.163 1.21714 1.00117 0
M  V30 9351 C 901.579 0.97532 1.26332 0
M  V30 9352 C 901.779 -0.336029 1.98678 0
M  V30 9353 O 900.835 -1.06073 2.29139 0
M  V30 9354 C 902.148 2.16848 2.0832 0
M  V30 9355 C 903.696 2.21115 2.21533 0
M  V30 9356 C 904.171 3.3996 3.06906 0
M  V30 9357 N 905.662 3.40071 3.14494 0
M  V30 9358 C 906.397 4.28678 3.80818 0
M  V30 9359 N 905.893 5.2749 4.49139 0
M  V30 9360 N 907.686 4.16476 3.77497 0
M  V30 9361 H 899.837 2.06039 0.515897 0
M  V30 9362 H 902.1 0.902423 0.290408 0
M  V30 9363 H 901.806 3.119 1.62515 0
M  V30 9364 H 901.68 2.16226 3.09073 0
M  V30 9365 H 904.067 1.26616 2.66557 0
M  V30 9366 H 904.148 2.2578 1.20238 0
M  V30 9367 H 903.792 4.34755 2.62585 0
M  V30 9368 H 903.722 3.32534 4.08324 0
M  V30 9369 H 906.213 2.68563 2.65861 0
M  V30 9370 H 906.526 5.91397 4.97463 0
M  V30 9371 H 904.871 5.31412 4.47914 0
M  V30 9372 H 908.062 3.38539 3.23278 0
M  V30 9373 H 908.235 4.85739 4.28908 0
M  V30 9374 N 901.641 -1.19671 1.02551 0
M  V30 9375 C 902.889 -1.88894 0.71858 0
M  V30 9376 C 903.21 -1.79797 -0.754856 0
M  V30 9377 O 902.48 -1.20621 -1.54362 0
M  V30 9378 H 901.06 -0.699244 0.262806 0
M  V30 9379 H 903.722 -1.45298 1.29902 0
M  V30 9380 H 902.818 -2.95309 1.00989 0
M  V30 9381 N 903.119 -0.802921 -1.35613 0
M  V30 9382 C 904.344 -0.392846 -2.03645 0
M  V30 9383 C 904.769 0.987075 -1.6012 0
M  V30 9384 O 904.127 1.63849 -0.776101 0
M  V30 9385 C 904.175 -0.480208 -3.57388 0
M  V30 9386 O 903.279 0.507751 -4.09262 0
M  V30 9387 H 902.62 -0.16464 -0.643265 0
M  V30 9388 H 905.15 -1.08779 -1.73287 0
M  V30 9389 H 905.16 -0.348683 -4.06507 0
M  V30 9390 H 903.835 -1.48675 -3.88418 0
M  V30 9391 H 902.412 0.336769 -3.71376 0
M  V30 9392 N 904.597 1.47463 -0.556102 0
M  V30 9393 C 905.527 2.32801 0.180497 0
M  V30 9394 C 906.508 1.43721 0.909848 0
M  V30 9395 O 907.693 1.72578 0.89053 0
M  V30 9396 C 904.823 3.25478 1.21167 0
M  V30 9397 C 903.777 4.2379 0.598846 0
M  V30 9398 C 903.103 5.05783 1.73457 0
M  V30 9399 C 904.403 5.20387 -0.446659 0
M  V30 9400 H 906.097 2.94636 -0.531956 0
M  V30 9401 H 903.643 1.41683 -0.257267 0
M  V30 9402 H 905.596 3.8402 1.73513 0
M  V30 9403 H 904.32 2.61695 1.95405 0
M  V30 9404 H 902.979 3.66472 0.0966897 0
M  V30 9405 H 902.627 4.38405 2.46596 0
M  V30 9406 H 902.327 5.72343 1.33031 0
M  V30 9407 H 903.851 5.67183 2.26131 0
M  V30 9408 H 905.265 5.73299 -0.00930019 0
M  V30 9409 H 903.662 5.95143 -0.769735 0
M  V30 9410 H 904.732 4.65932 -1.34295 0
M  V30 9411 N 906.075 0.2925 1.54862 0
M  V30 9412 C 906.985 -0.597036 2.26876 0
M  V30 9413 C 908.001 -1.15558 1.30086 0
M  V30 9414 O 909.177 -1.18217 1.63054 0
M  V30 9415 C 906.242 -1.75664 2.98903 0
M  V30 9416 C 905.303 -1.23303 4.11212 0
M  V30 9417 C 904.536 -2.33736 4.79795 0
M  V30 9418 O 904.759 -3.53459 4.47686 0
M  V30 9419 O 903.693 -2.00908 5.67379 0
M  V30 9420 H 907.519 -0.0131242 3.03697 0
M  V30 9421 H 905.104 0.0592642 1.49282 0
M  V30 9422 H 906.986 -2.43241 3.4411 0
M  V30 9423 H 905.661 -2.32731 2.24984 0
M  V30 9424 H 904.568 -0.523222 3.70423 0
M  V30 9425 H 905.901 -0.707887 4.87083 0
M  V30 9426 N 907.553 -1.57587 0.0200696 0
M  V30 9427 C 908.463 -2.13119 -0.980676 0
M  V30 9428 C 909.479 -1.08124 -1.36328 0
M  V30 9429 O 910.655 -1.40134 -1.44653 0
M  V30 9430 C 907.72 -2.63991 -2.24743 0
M  V30 9431 C 906.781 -3.83667 -1.9261 0
M  V30 9432 C 906.014 -4.32103 -3.13246 0
M  V30 9433 O 906.237 -3.79758 -4.25606 0
M  V30 9434 O 905.171 -5.24047 -2.96072 0
M  V30 9435 H 908.997 -2.98887 -0.538528 0
M  V30 9436 H 906.582 -1.48055 -0.19999 0
M  V30 9437 H 908.464 -2.9682 -2.99125 0
M  V30 9438 H 907.139 -1.81311 -2.68157 0
M  V30 9439 H 906.046 -3.55778 -1.15641 0
M  V30 9440 H 907.379 -4.67482 -1.54019 0
M  V30 9441 N 909.032 0.252966 -1.55557 0
M  V30 9442 C 910.26 0.999565 -1.81153 0
M  V30 9443 C 910.675 1.79181 -0.594955 0
M  V30 9444 O 910.032 1.77208 0.436311 0
M  V30 9445 C 910.083 1.94227 -3.04891 0
M  V30 9446 O 909.804 1.18209 -4.21851 0
M  V30 9447 C 911.305 2.80536 -3.43241 0
M  V30 9448 H 908.525 0.294402 -0.602966 0
M  V30 9449 H 911.069 0.277686 -2.02606 0
M  V30 9450 H 909.224 2.6185 -2.85505 0
M  V30 9451 H 909.638 1.81922 -4.9194 0
M  V30 9452 H 911.112 3.42442 -4.32941 0
M  V30 9453 H 911.589 3.51337 -2.6355 0
M  V30 9454 H 912.195 2.18373 -3.64956 0
M  V30 9455 N 910.51 1.48831 0.518367 0
M  V30 9456 C 911.756 1.57672 1.27543 0
M  V30 9457 C 912.089 0.254915 1.9252 0
M  V30 9458 O 911.364 -0.740107 1.79868 0
M  V30 9459 C 911.647 2.72345 2.35585 0
M  V30 9460 C 911.5 4.14267 1.75224 0
M  V30 9461 C 912.819 2.82726 3.37274 0
M  V30 9462 H 909.938 0.573926 0.462361 0
M  V30 9463 H 912.58 1.8105 0.576267 0
M  V30 9464 H 910.73 2.52543 2.95219 0
M  V30 9465 H 912.402 4.45539 1.19551 0
M  V30 9466 H 910.645 4.20724 1.05706 0
M  V30 9467 H 911.316 4.90345 2.53507 0
M  V30 9468 H 913.792 3.00699 2.8761 0
M  V30 9469 H 912.668 3.6467 4.10252 0
M  V30 9470 H 912.929 1.9136 3.9854 0
M  V30 9471 N 911.988 -0.768124 1.37614 0
M  V30 9472 C 912.92 -1.89076 1.29548 0
M  V30 9473 C 913.933 -1.61433 0.21056 0
M  V30 9474 O 915.122 -1.72283 0.466992 0
M  V30 9475 C 912.222 -3.24388 0.981102 0
M  V30 9476 C 911.395 -3.79649 2.17222 0
M  V30 9477 C 910.454 -4.93444 1.82754 0
M  V30 9478 O 909.48 -5.0884 2.5509 0
M  V30 9479 N 910.682 -5.75319 0.773819 0
M  V30 9480 H 913.447 -1.9651 2.26283 0
M  V30 9481 H 911.008 -0.947399 1.31286 0
M  V30 9482 H 913 -3.98038 0.731301 0
M  V30 9483 H 911.57 -3.12433 0.102203 0
M  V30 9484 H 910.79 -2.97735 2.58355 0
M  V30 9485 H 912.078 -4.13302 2.96748 0
M  V30 9486 H 911.476 -5.65433 0.173644 0
M  V30 9487 H 910.033 -6.4918 0.583882 0
M  V30 9488 N 913.466 -1.22244 -0.994698 0
M  V30 9489 C 914.429 -0.992308 -2.06606 0
M  V30 9490 C 915.429 0.0405872 -1.60749 0
M  V30 9491 O 916.619 -0.197737 -1.73074 0
M  V30 9492 C 913.751 -0.498499 -3.37236 0
M  V30 9493 H 914.944 -1.9429 -2.28455 0
M  V30 9494 H 912.497 -1.04087 -1.166 0
M  V30 9495 H 913.232 0.456531 -3.21071 0
M  V30 9496 H 913.017 -1.24367 -3.71854 0
M  V30 9497 H 914.507 -0.35768 -4.16065 0
M  V30 9498 N 914.944 1.19125 -1.03184 0
M  V30 9499 C 915.877 2.21229 -0.559739 0
M  V30 9500 C 916.855 1.57578 0.400998 0
M  V30 9501 O 918.039 1.85809 0.317399 0
M  V30 9502 C 915.166 3.38203 0.183442 0
M  V30 9503 C 914.212 4.2022 -0.729182 0
M  V30 9504 S 915.045 4.87903 -2.20706 0
M  V30 9505 C 916.201 6.08284 -1.47448 0
M  V30 9506 H 916.434 2.60932 -1.42484 0
M  V30 9507 H 913.967 1.29419 -0.842028 0
M  V30 9508 H 915.925 4.06001 0.606084 0
M  V30 9509 H 914.586 2.96929 1.02432 0
M  V30 9510 H 913.779 5.03761 -0.155272 0
M  V30 9511 H 913.381 3.57755 -1.09028 0
M  V30 9512 H 915.673 6.73193 -0.762687 0
M  V30 9513 H 916.616 6.70165 -2.28659 0
M  V30 9514 H 917.024 5.56092 -0.97068 0
M  V30 9515 N 916.422 0.810101 1.35185 0
M  V30 9516 C 917.354 0.180581 2.28488 0
M  V30 9517 C 918.367 -0.622154 1.50443 0
M  V30 9518 O 919.556 -0.453938 1.72632 0
M  V30 9519 C 916.656 -0.766447 3.30119 0
M  V30 9520 C 915.829 -0.00932028 4.37399 0
M  V30 9521 C 914.888 -0.875354 5.18868 0
M  V30 9522 O 913.914 -0.325012 5.68271 0
M  V30 9523 N 915.116 -2.19695 5.37321 0
M  V30 9524 H 917.881 0.98212 2.83151 0
M  V30 9525 H 915.442 0.665879 1.47573 0
M  V30 9526 H 917.434 -1.35012 3.81515 0
M  V30 9527 H 916.004 -1.46878 2.75945 0
M  V30 9528 H 915.224 0.755585 3.86891 0
M  V30 9529 H 916.512 0.512352 5.06214 0
M  V30 9530 H 915.91 -2.66797 4.98834 0
M  V30 9531 H 914.467 -2.72978 5.91884 0
M  V30 9532 N 917.9 -1.47166 0.563914 0
M  V30 9533 C 919.311 -1.86231 0.132307 0
M  V30 9534 C 919.662 -1.46976 -1.29971 0
M  V30 9535 O 918.787 -0.875911 -1.97881 0
M  V30 9536 C 919.382 -3.37996 0.233335 0
M  V30 9537 C 917.941 -3.76127 -0.143278 0
M  V30 9538 C 917.088 -2.71212 0.577857 0
M  V30 9539 H 920.039 -1.38588 0.773249 0
M  V30 9540 H 920.06 -3.76558 -0.546309 0
M  V30 9541 H 919.572 -3.66535 1.27568 0
M  V30 9542 H 917.673 -3.53205 -1.18648 0
M  V30 9543 H 917.786 -4.78595 0.219952 0
M  V30 9544 H 916.15 -2.54692 0.020186 0
M  V30 9545 H 916.933 -3.02593 1.62149 0
M  V30 9546 N 919.378 -0.300708 -1.54705 0
M  V30 9547 C 920.789 0.191995 -1.8571 0
M  V30 9548 C 921.14 1.53447 -1.22264 0
M  V30 9549 O 920.265 2.10054 -0.520226 0
M  V30 9550 C 920.86 0.355148 -3.36933 0
M  V30 9551 C 919.419 0.792071 -3.67972 0
M  V30 9552 C 918.566 -0.099756 -2.77121 0
M  V30 9553 H 921.517 -0.521729 -1.49879 0
M  V30 9554 H 921.538 1.18977 -3.61421 0
M  V30 9555 H 921.05 -0.622075 -3.83082 0
M  V30 9556 H 919.151 1.77986 -3.27341 0
M  V30 9557 H 919.264 0.611661 -4.75179 0
M  V30 9558 H 917.628 0.420909 -2.51198 0
M  V30 9559 H 918.411 -1.07333 -3.2609 0
M  V30 9560 N 920.856 1.57574 -0.0284266 0
M  V30 9561 C 922.081 1.96479 0.664137 0
M  V30 9562 C 922.506 0.904826 1.64908 0
M  V30 9563 O 921.864 -0.134339 1.80802 0
M  V30 9564 C 921.912 3.34479 1.34745 0
M  V30 9565 O 921.016 3.30794 2.46271 0
M  V30 9566 H 920.357 0.640654 0.174524 0
M  V30 9567 H 922.887 2.04402 -0.0900729 0
M  V30 9568 H 922.897 3.70694 1.7044 0
M  V30 9569 H 921.572 4.1117 0.625468 0
M  V30 9570 H 920.149 3.06294 2.12693 0
M  V30 9571 N 922.334 -0.244713 1.55689 0
M  V30 9572 C 923.266 -1.32595 1.86952 0
M  V30 9573 C 924.279 -1.44185 0.755948 0
M  V30 9574 O 925.468 -1.45496 1.03408 0
M  V30 9575 C 922.568 -2.70429 2.04258 0
M  V30 9576 C 921.741 -2.8108 3.35131 0
M  V30 9577 C 920.8 -3.99773 3.42152 0
M  V30 9578 O 919.826 -3.89197 4.15348 0
M  V30 9579 N 921.028 -5.13041 2.71604 0
M  V30 9580 H 923.793 -1.06111 2.80287 0
M  V30 9581 H 921.354 -0.434811 1.55952 0
M  V30 9582 H 923.346 -3.48173 2.06295 0
M  V30 9583 H 921.916 -2.89612 1.17658 0
M  V30 9584 H 921.136 -1.89994 3.45392 0
M  V30 9585 H 922.424 -2.85147 4.21389 0
M  V30 9586 H 921.822 -5.24525 2.11872 0
M  V30 9587 H 920.379 -5.88912 2.79331 0
M  V30 9588 N 923.813 -1.49104 -0.510467 0
M  V30 9589 C 924.776 -1.64569 -1.59529 0
M  V30 9590 C 925.776 -0.517937 -1.5223 0
M  V30 9591 O 926.966 -0.784183 -1.55551 0
M  V30 9592 C 924.098 -1.6342 -2.99177 0
M  V30 9593 H 925.291 -2.61318 -1.4715 0
M  V30 9594 H 922.844 -1.37993 -0.734001 0
M  V30 9595 H 923.579 -0.68221 -3.17043 0
M  V30 9596 H 923.364 -2.45312 -3.05883 0
M  V30 9597 H 924.854 -1.77474 -3.78011 0
M  V30 9598 N 925.291 0.760815 -1.38019 0
M  V30 9599 C 926.702 1.33773 -1.30237 0
M  V30 9600 C 927.053 1.96148 0.0451153 0
M  V30 9601 O 926.178 1.94574 0.9471 0
M  V30 9602 C 926.773 2.43227 -2.35851 0
M  V30 9603 C 925.332 2.96659 -2.31669 0
M  V30 9604 C 924.479 1.69972 -2.191 0
M  V30 9605 H 927.43 0.560237 -1.48482 0
M  V30 9606 H 927.451 3.22985 -2.01149 0
M  V30 9607 H 926.963 1.978 -3.33911 0
M  V30 9608 H 925.064 3.46433 -1.37167 0
M  V30 9609 H 925.177 3.51529 -3.25521 0
M  V30 9610 H 923.541 1.9332 -1.65829 0
M  V30 9611 H 924.324 1.26633 -3.19091 0
M  V30 9612 N 926.769 1.22769 0.988202 0
M  V30 9613 C 927.732 1.00325 2.06076 0
M  V30 9614 C 928.732 -0.0320618 1.60768 0
M  V30 9615 O 929.922 0.206912 1.72967 0
M  V30 9616 C 927.054 0.516376 3.36966 0
M  V30 9617 H 928.247 1.95499 2.27421 0
M  V30 9618 H 925.8 1.04704 1.16047 0
M  V30 9619 H 926.535 -0.439498 3.21308 0
M  V30 9620 H 926.32 1.26337 3.71189 0
M  V30 9621 H 927.81 0.37974 4.1587 0
M  V30 9622 N 928.247 -1.18576 1.03814 0
M  V30 9623 C 929.179 -2.21607 0.585055 0
M  V30 9624 C 930.192 -1.59125 -0.343963 0
M  V30 9625 O 931.381 -1.77959 -0.138882 0
M  V30 9626 C 928.481 -3.38495 -0.165602 0
M  V30 9627 C 927.654 -4.30557 0.770662 0
M  V30 9628 C 926.713 -5.26161 0.0637534 0
M  V30 9629 O 925.739 -5.64961 0.693359 0
M  V30 9630 N 926.941 -5.67882 -1.20377 0
M  V30 9631 H 929.706 -2.61104 1.47121 0
M  V30 9632 H 927.267 -1.33336 0.918316 0
M  V30 9633 H 929.259 -3.99474 -0.648292 0
M  V30 9634 H 927.829 -2.97711 -0.953268 0
M  V30 9635 H 927.049 -3.67221 1.43326 0
M  V30 9636 H 928.337 -4.88969 1.40667 0
M  V30 9637 H 927.735 -5.38409 -1.73586 0
M  V30 9638 H 926.292 -6.31069 -1.63079 0
M  V30 9639 N 929.725 -0.817259 -1.34754 0
M  V30 9640 C 931.002 -0.325468 -1.92873 0
M  V30 9641 C 931.382 1.18643 -1.74606 0
M  V30 9642 O 930.73 1.9909 -1.1214 0
M  V30 9643 C 930.94 -0.74858 -3.40877 0
M  V30 9644 C 932.288 -0.744165 -4.18028 0
M  V30 9645 O 933.312 -0.690799 -3.49437 0
M  V30 9646 O 932.171 -0.812207 -5.40431 0
M  V30 9647 H 929.265 -0.0876397 -0.822343 0
M  V30 9648 H 931.811 -0.901671 -1.43764 0
M  V30 9649 H 930.583 -1.79017 -3.47949 0
M  V30 9650 H 930.206 -0.147764 -3.97325 0
M  V30 9651 N 931.203 1.46865 -0.571711 0
M  V30 9652 C 932.614 1.86158 -0.142181 0
M  V30 9653 C 932.965 1.47663 1.2919 0
M  V30 9654 O 932.09 0.886393 1.97413 0
M  V30 9655 C 932.685 3.37867 -0.251256 0
M  V30 9656 C 931.244 3.76198 0.123329 0
M  V30 9657 C 930.391 2.70902 -0.592232 0
M  V30 9658 H 933.342 1.38176 -0.780587 0
M  V30 9659 H 933.363 3.76842 0.526331 0
M  V30 9660 H 932.875 3.65853 -1.2951 0
M  V30 9661 H 930.976 3.53829 1.16773 0
M  V30 9662 H 931.089 4.78471 -0.24533 0
M  V30 9663 H 929.453 2.54678 -0.0336927 0
M  V30 9664 H 930.236 3.01729 -1.63751 0
M  V30 9665 N 932.681 0.308908 1.54543 0
M  V30 9666 C 933.929 -0.297447 1.99899 0
M  V30 9667 C 934.25 -1.53799 1.19878 0
M  V30 9668 O 933.52 -1.93639 0.29678 0
M  V30 9669 H 932.1 -0.112897 0.738419 0
M  V30 9670 H 934.762 0.422067 1.90275 0
M  V30 9671 H 933.858 -0.564016 3.06961 0
M  V30 9672 N 934.159 -1.57557 0.0367827 0
M  V30 9673 C 935.109 -2.07182 -0.95183 0
M  V30 9674 C 936.093 -0.973921 -1.28076 0
M  V30 9675 O 937.285 -1.23741 -1.26559 0
M  V30 9676 C 934.414 -2.60869 -2.23164 0
M  V30 9677 C 933.5 -3.77602 -1.93074 0
M  V30 9678 N 933.891 -4.87923 -1.33283 0
M  V30 9679 C 932.189 -3.86234 -2.23023 0
M  V30 9680 C 932.89 -5.69083 -1.20498 0
M  V30 9681 N 931.866 -5.16233 -1.70306 0
M  V30 9682 H 935.668 -2.89876 -0.484647 0
M  V30 9683 H 933.182 -1.61528 -0.16804 0
M  V30 9684 H 935.179 -2.94716 -2.9487 0
M  V30 9685 H 933.839 -1.79607 -2.70502 0
M  V30 9686 H 934.85 -5.08018 -1.00686 0
M  V30 9687 H 931.527 -3.15891 -2.72981 0
M  V30 9688 H 932.917 -6.6779 -0.741999 0
M  V30 9689 N 935.637 0.236453 -1.55816 0
M  V30 9690 C 936.57 1.3196 -1.86177 0
M  V30 9691 C 937.548 1.459 -0.717769 0
M  V30 9692 O 938.732 1.61949 -0.964606 0
M  V30 9693 C 935.859 2.69183 -2.05568 0
M  V30 9694 C 934.905 2.72338 -3.28229 0
M  V30 9695 S 935.738 2.27898 -4.84585 0
M  V30 9696 C 936.894 3.67025 -5.06994 0
M  V30 9697 H 937.127 1.06011 -2.77757 0
M  V30 9698 H 934.66 0.437961 -1.48058 0
M  V30 9699 H 936.618 3.48191 -2.17423 0
M  V30 9700 H 935.279 2.92365 -1.14811 0
M  V30 9701 H 934.472 3.7314 -3.38795 0
M  V30 9702 H 934.074 2.01382 -3.15153 0
M  V30 9703 H 936.366 4.62604 -4.94979 0
M  V30 9704 H 937.309 3.61385 -6.08939 0
M  V30 9705 H 937.717 3.60022 -4.34792 0
M  V30 9706 N 937.115 1.49373 0.502552 0
M  V30 9707 C 938.025 1.68659 1.63068 0
M  V30 9708 C 939.041 0.569182 1.64427 0
M  V30 9709 O 940.217 0.843695 1.82876 0
M  V30 9710 C 937.282 1.74745 2.99441 0
M  V30 9711 C 936.343 2.98311 3.08721 0
M  V30 9712 C 935.576 3.04097 4.38589 0
M  V30 9713 O 935.799 2.17519 5.27297 0
M  V30 9714 O 934.733 3.96544 4.52809 0
M  V30 9715 H 938.559 2.64226 1.49727 0
M  V30 9716 H 936.144 1.33096 0.67867 0
M  V30 9717 H 938.026 1.8111 3.80496 0
M  V30 9718 H 936.701 0.823565 3.13048 0
M  V30 9719 H 935.608 2.97465 2.2686 0
M  V30 9720 H 936.941 3.90174 3.00041 0
M  V30 9721 O 938.632 -0.647824 1.47937 0
M  V30 9722 H 939.323 -1.30144 1.43465 0
M  V30 END ATOM
M  V30 BEGIN BOND
M  V30 END BOND
M  V30 END CTAB
M  END
$$$$
