drugbank_target|P26393 Glucose-1-phosphate thymidylyltransferase (DB01861; DB02452)
 OpenBabel12092120023D

  0  0  0     0  0            999 V3000
M  V30 BEGIN CTAB
M  V30 COUNTS 4579 4626 0 0 0
M  V30 BEGIN ATOM
M  V30 1 H -0.908 1.98254 -0.117106 0
M  V30 2 N 0 1.576 0 0
M  V30 3 C 0.933 2.03868 1.02534 0
M  V30 4 C 1.911 0.928543 1.3348 0
M  V30 5 O 3.095 1.19667 1.45644 0
M  V30 6 C 0.222 2.43627 2.35294 0
M  V30 7 C -0.732 3.65373 2.2001 0
M  V30 8 S 0.101 5.13292 1.52614 0
M  V30 9 C 1.257 5.56322 2.86805 0
M  V30 10 H 1.49 2.90518 0.631377 0
M  V30 11 H -0.977 1.52953 0.210867 0
M  V30 12 H 0.981 2.67203 3.11629 0
M  V30 13 H -0.358 1.57376 2.7183 0
M  V30 14 H -1.165 3.90944 3.18086 0
M  V30 15 H -1.563 3.418 1.51819 0
M  V30 16 H 0.729 5.58782 3.83104 0
M  V30 17 H 1.672 6.56266 2.65933 0
M  V30 18 H 2.08 4.83886 2.90714 0
M  V30 19 N 1.4781 -0.272755 1.55222 0
M  V30 20 C 2.4251 -1.33716 1.88119 0
M  V30 21 C 3.3951 -1.49066 0.73271 0
M  V30 22 O 4.5801 -1.63469 0.984002 0
M  V30 23 C 1.7201 -2.69238 2.15882 0
M  V30 24 C 0.8331 -2.62108 3.43399 0
M  V30 25 C -0.0319 -3.89811 3.60861 0
M  V30 26 C -0.9929 -3.77193 4.8207 0
M  V30 27 N -1.8559 -4.9673 4.96189 0
M  V30 28 H 2.9841 -1.04962 2.78903 0
M  V30 29 H 0.5211 -0.507088 1.38083 0
M  V30 30 H 2.4791 -3.48089 2.29978 0
M  V30 31 H 1.1091 -2.96194 1.28331 0
M  V30 32 H 0.1611 -1.74967 3.37773 0
M  V30 33 H 1.4731 -2.48685 4.32386 0
M  V30 34 H 0.6271 -4.77103 3.74777 0
M  V30 35 H -0.6339 -4.06102 2.7006 0
M  V30 36 H -1.6289 -2.88284 4.68159 0
M  V30 37 H -0.4039 -3.62421 5.74307 0
M  V30 38 H -2.4579 -5.13431 4.08319 0
M  V30 39 H -2.5409 -4.85839 5.79221 0
M  V30 40 H -1.2729 -5.85594 5.1449 0
M  V30 41 N 2.9562 -1.48159 -0.537278 0
M  V30 42 C 4.1842 -1.59454 -1.31841 0
M  V30 43 C 4.5992 -0.252065 -1.8711 0
M  V30 44 O 3.9562 0.757621 -1.66031 0
M  V30 45 C 4.0072 -2.63546 -2.47439 0
M  V30 46 O 3.7282 -3.92583 -1.94449 0
M  V30 47 C 5.2292 -2.85212 -3.39366 0
M  V30 48 H 2.4492 -0.53785 -0.401196 0
M  V30 49 H 4.9932 -1.93932 -0.648891 0
M  V30 50 H 3.1482 -2.31946 -3.1029 0
M  V30 51 H 3.5622 -4.49629 -2.70063 0
M  V30 52 H 5.0362 -3.61863 -4.16844 0
M  V30 53 H 5.5132 -1.93765 -3.94147 0
M  V30 54 H 6.1192 -3.18086 -2.82314 0
M  V30 55 N 4.4343 0.785586 -1.36625 0
M  V30 56 C 5.8503 1.08419 -1.17122 0
M  V30 57 C 6.0503 2.015 0.00208491 0
M  V30 58 O 5.1063 2.43551 0.666278 0
M  V30 59 C 6.4193 1.69498 -2.48377 0
M  V30 60 C 7.9673 1.81821 -2.54775 0
M  V30 61 C 8.4423 2.46315 -3.86126 0
M  V30 62 N 9.9333 2.53779 -3.87492 0
M  V30 63 C 10.6683 3.045 -4.85868 0
M  V30 64 N 10.1643 3.55499 -5.94637 0
M  V30 65 N 11.9573 3.03247 -4.73284 0
M  V30 66 H 4.1083 0.167264 -2.1174 0
M  V30 67 H 6.3713 0.13682 -0.938075 0
M  V30 68 H 6.0773 1.08571 -3.34522 0
M  V30 69 H 5.9513 2.6896 -2.64462 0
M  V30 70 H 8.3383 2.41884 -1.69045 0
M  V30 71 H 8.4193 0.811532 -2.42586 0
M  V30 72 H 8.0633 1.86895 -4.72263 0
M  V30 73 H 7.9933 3.47561 -3.95612 0
M  V30 74 H 10.4843 2.17672 -3.08913 0
M  V30 75 H 10.7973 3.92562 -6.65669 0
M  V30 76 H 9.1423 3.5364 -5.98301 0
M  V30 77 H 12.3333 2.62696 -3.87438 0
M  V30 78 H 12.5063 3.42467 -5.50109 0
M  V30 79 N 5.9124 1.20967 1.01018 0
M  V30 80 C 6.8594 0.964281 2.09691 0
M  V30 81 C 7.8294 -0.107853 1.65749 0
M  V30 82 O 9.0144 0.0381987 1.90762 0
M  V30 83 C 6.1544 0.52943 3.41015 0
M  V30 84 C 5.2674 1.67043 3.98398 0
M  V30 85 C 4.4024 1.18525 5.17808 0
M  V30 86 C 3.4414 2.29892 5.67288 0
M  V30 87 N 2.5784 1.82546 6.77954 0
M  V30 88 H 7.4184 1.89463 2.30017 0
M  V30 89 H 4.9554 0.944289 1.1279 0
M  V30 90 H 6.9134 0.258588 4.16398 0
M  V30 91 H 5.5434 -0.363919 3.20742 0
M  V30 92 H 4.5954 2.05603 3.20049 0
M  V30 93 H 5.9074 2.50877 4.31117 0
M  V30 94 H 5.0614 0.870762 6.00419 0
M  V30 95 H 3.8004 0.316887 4.86669 0
M  V30 96 H 2.8054 2.6215 4.83278 0
M  V30 97 H 4.0304 3.17216 6.00459 0
M  V30 98 H 1.9764 0.980454 6.48632 0
M  V30 99 H 1.8934 2.59956 7.09901 0
M  V30 100 H 3.1614 1.54115 7.64113 0
M  V30 101 N 7.3905 -1.2043 1.01659 0
M  V30 102 C 8.6385 -1.89423 0.704522 0
M  V30 103 C 8.9595 -1.79231 -0.768197 0
M  V30 104 O 8.2295 -1.1947 -1.55254 0
M  V30 105 H 6.8095 -0.701178 0.257602 0
M  V30 106 H 9.4715 -1.4626 1.28818 0
M  V30 107 H 8.5675 -2.96052 0.987916 0
M  V30 108 N 8.8686 -0.792821 -1.36206 0
M  V30 109 C 10.1176 -0.363353 -1.984 0
M  V30 110 C 10.4306 1.07172 -1.63626 0
M  V30 111 O 11.6366 1.60362 -2.19081 0
M  V30 112 C 10.0926 -0.59872 -3.54885 0
M  V30 113 C 9.7006 -2.04543 -3.9858 0
M  V30 114 C 11.4446 -0.233926 -4.23855 0
M  V30 115 C 9.3516 -2.22727 -5.47856 0
M  V30 116 H 8.2816 -0.13212 -0.742334 0
M  V30 117 H 10.9326 -0.974935 -1.55458 0
M  V30 118 H 9.3146 0.0826222 -3.95914 0
M  V30 119 H 10.4886 -2.76345 -3.68741 0
M  V30 120 H 8.8036 -2.36879 -3.42458 0
M  V30 121 H 11.4006 -0.348027 -5.33566 0
M  V30 122 H 11.7436 0.818351 -4.08177 0
M  V30 123 H 12.2766 -0.868639 -3.882 0
M  V30 124 H 9.0156 -3.2635 -5.68486 0
M  V30 125 H 8.5356 -1.55434 -5.7931 0
M  V30 126 H 10.2146 -2.03607 -6.14128 0
M  V30 127 N 10.3467 1.47872 -0.545128 0
M  V30 128 C 11.5957 2.01695 -0.0145033 0
M  V30 129 C 11.9087 1.42609 1.33873 0
M  V30 130 O 13.1147 1.88021 1.95858 0
M  V30 131 C 11.5707 3.59892 0.0245068 0
M  V30 132 C 11.1787 4.27966 -1.32475 0
M  V30 133 C 12.9227 4.21507 0.50316 0
M  V30 134 C 10.8297 5.78136 -1.2455 0
M  V30 135 H 9.7597 0.753998 -0.00165172 0
M  V30 136 H 12.4107 1.69985 -0.691175 0
M  V30 137 H 10.7927 3.88509 0.766575 0
M  V30 138 H 11.9667 4.11003 -2.08357 0
M  V30 139 H 10.2817 3.78286 -1.74036 0
M  V30 140 H 12.8787 5.31538 0.580656 0
M  V30 141 H 13.2217 3.87855 1.51243 0
M  V30 142 H 13.7547 3.97376 -0.183681 0
M  V30 143 H 10.4937 6.16388 -2.23039 0
M  V30 144 H 10.0137 5.97469 -0.528282 0
M  V30 145 H 11.6927 6.40099 -0.942488 0
M  V30 146 N 11.8248 0.280983 1.55075 0
M  V30 147 C 12.7548 -0.597469 2.25727 0
M  V30 148 C 13.7358 -1.15417 1.24952 0
M  V30 149 O 14.9208 -1.18722 1.53684 0
M  V30 150 C 12.0508 -1.7789 2.98283 0
M  V30 151 C 11.0048 -1.35347 4.06036 0
M  V30 152 C 10.3308 -2.61846 4.66198 0
M  V30 153 C 11.6308 -0.499354 5.19907 0
M  V30 154 H 13.3248 -0.00824265 2.99399 0
M  V30 155 H 10.8708 -0.0025244 1.44 0
M  V30 156 H 12.8238 -2.39937 3.46422 0
M  V30 157 H 11.5478 -2.39405 2.22155 0
M  V30 158 H 10.2068 -0.756156 3.58717 0
M  V30 159 H 9.8548 -3.21632 3.86732 0
M  V30 160 H 9.5548 -2.3409 5.38958 0
M  V30 161 H 11.0788 -3.24732 5.1709 0
M  V30 162 H 12.4928 -1.02498 5.64063 0
M  V30 163 H 10.8898 -0.316424 5.99265 0
M  V30 164 H 11.9598 0.480459 4.82514 0
M  V30 165 N 13.3029 -1.57598 0.00835791 0
M  V30 166 C 14.2659 -2.07884 -0.965242 0
M  V30 167 C 15.2659 -0.989825 -1.26725 0
M  V30 168 O 16.4559 -1.25218 -1.21104 0
M  V30 169 C 13.5879 -2.52731 -2.28779 0
M  V30 170 H 14.7809 -2.95178 -0.530112 0
M  V30 171 H 12.3339 -1.54458 -0.239283 0
M  V30 172 H 13.0689 -1.68705 -2.76964 0
M  V30 173 H 12.8539 -3.32272 -2.08177 0
M  V30 174 H 14.3439 -2.91933 -2.98605 0
M  V30 175 N 14.781 0.264519 -1.55364 0
M  V30 176 C 16.029 0.993021 -1.76021 0
M  V30 177 C 16.35 1.86511 -0.569099 0
M  V30 178 O 15.62 1.91438 0.415735 0
M  V30 179 H 14.2 0.369639 -0.649135 0
M  V30 180 H 16.862 0.286707 -1.9278 0
M  V30 181 H 15.958 1.62502 -2.66457 0
M  V30 182 N 16.2591 1.48442 0.529413 0
M  V30 183 C 17.5071 1.56179 1.28267 0
M  V30 184 C 17.8281 0.237721 1.93546 0
M  V30 185 O 17.0981 -0.740779 1.81354 0
M  V30 186 H 15.6781 0.575367 0.476405 0
M  V30 187 H 18.3401 1.84909 0.61602 0
M  V30 188 H 17.4361 2.34312 2.06165 0
M  V30 189 N 17.7372 -0.778329 1.37039 0
M  V30 190 C 18.9622 -1.57248 1.35233 0
M  V30 191 C 19.3872 -1.87999 -0.0615568 0
M  V30 192 O 18.7452 -1.48734 -1.03672 0
M  V30 193 C 18.7932 -2.86353 2.19167 0
M  V30 194 O 17.8972 -3.80442 1.59178 0
M  V30 195 H 17.2382 -0.476569 0.462362 0
M  V30 196 H 19.7682 -0.963853 1.80474 0
M  V30 197 H 19.7782 -3.35519 2.32145 0
M  V30 198 H 18.4532 -2.63299 3.21942 0
M  V30 199 H 17.0302 -3.39067 1.55203 0
M  V30 200 N 19.2153 -1.21501 -1.00376 0
M  V30 201 C 20.4633 -1.03095 -1.73827 0
M  V30 202 C 20.7843 0.436341 -1.90055 0
M  V30 203 O 20.0543 1.31466 -1.45236 0
M  V30 204 H 18.6343 -0.378487 -0.644016 0
M  V30 205 H 21.2963 -1.52831 -1.20949 0
M  V30 206 H 20.3923 -1.49991 -2.73695 0
M  V30 207 N 20.6934 1.19889 -1.02296 0
M  V30 208 C 21.9214 1.9339 -0.735399 0
M  V30 209 C 22.3364 1.75148 0.704887 0
M  V30 210 O 21.6934 1.06954 1.47875 0
M  V30 211 C 21.7444 3.45313 -1.06962 0
M  V30 212 O 21.4654 3.62964 -2.45334 0
M  V30 213 C 22.9664 4.35948 -0.804021 0
M  V30 214 H 20.1864 0.61448 -0.269546 0
M  V30 215 H 22.7304 1.522 -1.36585 0
M  V30 216 H 20.8854 3.84359 -0.484455 0
M  V30 217 H 21.2994 4.56886 -2.57595 0
M  V30 218 H 22.7734 5.41174 -1.0879 0
M  V30 219 H 23.2504 4.3842 0.261691 0
M  V30 220 H 23.8564 4.02574 -1.37164 0
M  V30 221 N 22.1715 0.800033 1.35784 0
M  V30 222 C 23.5875 0.482977 1.52117 0
M  V30 223 C 23.7875 -0.996948 1.75109 0
M  V30 224 O 22.8435 -1.78216 1.78872 0
M  V30 225 C 24.1565 1.32264 2.70049 0
M  V30 226 C 25.7045 1.31742 2.83924 0
M  V30 227 C 26.1795 2.14106 4.04874 0
M  V30 228 N 27.6705 2.11607 4.12039 0
M  V30 229 C 28.4055 2.72099 5.04727 0
M  V30 230 N 27.9015 3.41492 6.02789 0
M  V30 231 N 29.6945 2.61776 4.97423 0
M  V30 232 H 21.8455 1.75856 1.19115 0
M  V30 233 H 24.1085 0.748122 0.582252 0
M  V30 234 H 23.8145 2.37261 2.59616 0
M  V30 235 H 23.6885 0.971303 3.6448 0
M  V30 236 H 26.0755 0.275333 2.93813 0
M  V30 237 H 26.1565 1.70859 1.9037 0
M  V30 238 H 25.8005 3.18351 3.95746 0
M  V30 239 H 25.7305 1.72353 4.97596 0
M  V30 240 H 28.2215 1.61112 3.41835 0
M  V30 241 H 28.5345 3.84953 6.70098 0
M  V30 242 H 26.8795 3.45596 6.02983 0
M  V30 243 H 30.0705 2.07157 4.19766 0
M  V30 244 H 30.2435 3.0921 5.69468 0
M  V30 245 N 23.6496 -1.47581 0.552962 0
M  V30 246 C 24.5796 -2.32762 -0.185451 0
M  V30 247 C 25.5606 -1.43527 -0.912905 0
M  V30 248 O 26.7456 -1.72388 -0.894201 0
M  V30 249 C 23.8756 -3.25219 -1.21859 0
M  V30 250 C 22.8296 -4.23661 -0.607864 0
M  V30 251 C 22.1556 -5.05413 -1.74533 0
M  V30 252 C 23.4556 -5.20481 0.435582 0
M  V30 253 H 25.1496 -2.94749 0.525684 0
M  V30 254 H 22.6956 -1.41738 0.254251 0
M  V30 255 H 24.6486 -3.8365 -1.7433 0
M  V30 256 H 23.3726 -2.61279 -1.95961 0
M  V30 257 H 22.0316 -3.66451 -0.104489 0
M  V30 258 H 21.6796 -4.3788 -2.47529 0
M  V30 259 H 21.3796 -5.72059 -1.34249 0
M  V30 260 H 22.9036 -5.66701 -2.27338 0
M  V30 261 H 24.3176 -5.733 -0.00290157 0
M  V30 262 H 22.7146 -5.95305 0.757067 0
M  V30 263 H 23.7846 -4.66217 1.33303 0
M  V30 264 N 25.1277 -0.289203 -1.54924 0
M  V30 265 C 26.3577 0.325989 -2.04012 0
M  V30 266 C 26.7657 1.48961 -1.1665 0
M  V30 267 O 26.1087 1.82794 -0.1822 0
M  V30 268 C 26.1707 0.856112 -3.49158 0
M  V30 269 C 25.8347 -0.180697 -4.56643 0
M  V30 270 C 26.8317 -1.0051 -5.10092 0
M  V30 271 C 24.5167 -0.318998 -5.01286 0
M  V30 272 C 26.5107 -1.95385 -6.06715 0
M  V30 273 C 24.1977 -1.27121 -5.97732 0
M  V30 274 C 25.1957 -2.08713 -6.50329 0
M  V30 275 O 24.8837 -3.02322 -7.44887 0
M  V30 276 H 24.6157 0.0765276 -0.671654 0
M  V30 277 H 27.1697 -0.423254 -2.00992 0
M  V30 278 H 25.3997 1.65567 -3.49463 0
M  V30 279 H 27.0887 1.38591 -3.81507 0
M  V30 280 H 27.8547 -0.90906 -4.76404 0
M  V30 281 H 23.7337 0.306108 -4.59983 0
M  V30 282 H 27.2777 -2.59111 -6.47694 0
M  V30 283 H 23.1747 -1.36801 -6.30837 0
M  V30 284 H 23.9427 -2.97165 -7.6265 0
M  V30 285 N 26.6058 1.57591 -0.0167156 0
M  V30 286 C 28.0168 1.79201 0.523834 0
M  V30 287 C 28.3678 0.925796 1.72984 0
M  V30 288 O 27.4928 0.132792 2.15992 0
M  V30 289 C 28.0878 3.25 0.957091 0
M  V30 290 C 26.6468 3.47648 1.44283 0
M  V30 291 C 25.7938 2.74374 0.401757 0
M  V30 292 H 28.7448 1.56831 -0.242816 0
M  V30 293 H 28.7658 3.34031 1.82219 0
M  V30 294 H 28.2778 3.88019 0.0791415 0
M  V30 295 H 26.3788 2.89866 2.34113 0
M  V30 296 H 26.4918 4.56352 1.45877 0
M  V30 297 H 24.8558 2.39485 0.867121 0
M  V30 298 H 25.6388 3.40102 -0.467513 0
M  V30 299 N 28.0839 -0.256276 1.55502 0
M  V30 300 C 29.3299 -0.987079 1.77157 0
M  V30 301 C 29.6629 -1.85327 0.580315 0
M  V30 302 O 28.9379 -1.89874 -0.421686 0
M  V30 303 C 29.2209 -1.85553 3.08613 0
M  V30 304 C 29.0739 -1.01816 4.38125 0
M  V30 305 C 30.3929 -2.8397 3.36228 0
M  V30 306 H 27.5119 -0.357428 0.644526 0
M  V30 307 H 30.1539 -0.258239 1.88237 0
M  V30 308 H 28.3039 -2.47695 2.99298 0
M  V30 309 H 29.9759 -0.416159 4.59419 0
M  V30 310 H 28.2189 -0.322178 4.32602 0
M  V30 311 H 28.8899 -1.65939 5.26468 0
M  V30 312 H 31.3659 -2.31964 3.45445 0
M  V30 313 H 30.2419 -3.41864 4.29442 0
M  V30 314 H 30.5029 -3.59955 2.56681 0
M  V30 315 N 29.562 -1.4872 -0.521534 0
M  V30 316 C 30.79 -1.60843 -1.30142 0
M  V30 317 C 31.205 -0.271897 -1.86832 0
M  V30 318 O 30.562 0.739969 -1.66825 0
M  V30 319 C 30.613 -2.66155 -2.4463 0
M  V30 320 O 30.334 -3.94623 -1.90275 0
M  V30 321 C 31.835 -2.88795 -3.36322 0
M  V30 322 H 29.055 -0.542075 -0.395468 0
M  V30 323 H 31.599 -1.94609 -0.628285 0
M  V30 324 H 29.754 -2.35224 -3.07812 0
M  V30 325 H 30.168 -4.52468 -2.65279 0
M  V30 326 H 31.642 -3.66264 -4.12983 0
M  V30 327 H 32.119 -1.97934 -3.9207 0
M  V30 328 H 32.725 -3.21063 -2.78924 0
M  V30 329 N 31.0401 0.771051 -1.3745 0
M  V30 330 C 31.9731 1.89166 -1.27638 0
M  V30 331 C 32.9511 1.61842 -0.156782 0
M  V30 332 O 34.1351 1.85569 -0.331111 0
M  V30 333 C 31.2621 3.24405 -0.973621 0
M  V30 334 C 30.3081 3.70638 -2.1102 0
M  V30 335 S 31.1411 3.84228 -3.73 0
M  V30 336 C 32.2971 5.22313 -3.44876 0
M  V30 337 H 32.5301 1.972 -2.22485 0
M  V30 338 H 30.0631 0.932224 -1.23081 0
M  V30 339 H 32.0211 4.02514 -0.805766 0
M  V30 340 H 30.6821 3.14071 -0.0426279 0
M  V30 341 H 29.8751 4.68685 -1.85338 0
M  V30 342 H 29.4771 2.99632 -2.23822 0
M  V30 343 H 31.7691 6.07505 -2.99908 0
M  V30 344 H 32.7121 5.53008 -4.42253 0
M  V30 345 H 33.1201 4.90284 -2.79789 0
M  V30 346 N 32.5182 1.22032 0.997298 0
M  V30 347 C 33.4812 0.987909 2.06816 0
M  V30 348 C 34.4812 -0.0440084 1.6074 0
M  V30 349 O 35.6712 0.194053 1.73116 0
M  V30 350 C 32.8032 0.49132 3.37341 0
M  V30 351 H 33.9962 1.93803 2.28868 0
M  V30 352 H 31.5492 1.03838 1.16822 0
M  V30 353 H 32.2842 -0.463364 3.20973 0
M  V30 354 H 32.0692 1.23575 3.72118 0
M  V30 355 H 33.5592 0.348824 4.16141 0
M  V30 356 N 33.9963 -1.19345 1.0293 0
M  V30 357 C 35.2423 -1.89318 0.727083 0
M  V30 358 C 35.5753 -1.79446 -0.742483 0
M  V30 359 O 34.8503 -1.1871 -1.54072 0
M  V30 360 C 35.1333 -3.40238 1.17942 0
M  V30 361 C 34.9863 -3.58979 2.71024 0
M  V30 362 C 36.3053 -4.33479 0.760548 0
M  V30 363 H 33.4243 -0.687475 0.265606 0
M  V30 364 H 36.0663 -1.40477 1.2793 0
M  V30 365 H 34.2163 -3.81964 0.709608 0
M  V30 366 H 35.8883 -3.26421 3.25955 0
M  V30 367 H 34.1313 -3.02018 3.11396 0
M  V30 368 H 34.8023 -4.64823 2.9773 0
M  V30 369 H 37.2783 -3.99469 1.16464 0
M  V30 370 H 36.1543 -5.37664 1.10493 0
M  V30 371 H 36.4153 -4.40813 -0.337063 0
M  V30 372 N 35.4744 -0.807222 -1.35358 0
M  V30 373 C 36.6994 -0.399309 -2.0352 0
M  V30 374 C 37.1244 0.981986 -1.60433 0
M  V30 375 O 36.4824 1.63601 -0.781299 0
M  V30 376 C 36.5304 -0.491552 -3.57234 0
M  V30 377 O 35.6344 0.494754 -4.09421 0
M  V30 378 H 34.9754 -0.166682 -0.642739 0
M  V30 379 H 37.5054 -1.09328 -1.72941 0
M  V30 380 H 37.5154 -0.361588 -4.06395 0
M  V30 381 H 36.1904 -1.49907 -3.87944 0
M  V30 382 H 34.7674 0.324977 -3.71481 0
M  V30 383 N 36.9525 1.47285 -0.560781 0
M  V30 384 C 37.8995 2.30058 0.18491 0
M  V30 385 C 38.8695 1.39281 0.904986 0
M  V30 386 O 40.0545 1.68241 0.899979 0
M  V30 387 C 37.1945 3.23317 1.20666 0
M  V30 388 C 36.3075 4.29186 0.492285 0
M  V30 389 C 35.4425 5.09592 1.49964 0
M  V30 390 C 34.4815 6.07232 0.770439 0
M  V30 391 N 33.6185 6.80584 1.72479 0
M  V30 392 H 38.4585 2.93302 -0.527048 0
M  V30 393 H 35.9955 1.44568 -0.271738 0
M  V30 394 H 37.9535 3.75811 1.81168 0
M  V30 395 H 36.5835 2.61929 1.88661 0
M  V30 396 H 35.6355 3.7972 -0.227333 0
M  V30 397 H 36.9475 4.98738 -0.0787929 0
M  V30 398 H 36.1015 5.66254 2.17809 0
M  V30 399 H 34.8405 4.3995 2.10464 0
M  V30 400 H 33.8455 5.49745 0.0780846 0
M  V30 401 H 35.0705 6.78884 0.171134 0
M  V30 402 H 33.0165 6.1367 2.3183 0
M  V30 403 H 32.9335 7.46319 1.20596 0
M  V30 404 H 34.2015 7.41818 2.39428 0
M  V30 405 N 38.4306 0.297415 1.54768 0
M  V30 406 C 39.3626 -0.613881 2.20826 0
M  V30 407 C 40.3756 -1.10032 1.19987 0
M  V30 408 O 41.5646 -1.01839 1.46598 0
M  V30 409 C 38.6646 -1.852 2.83821 0
M  V30 410 C 37.8376 -1.50865 4.10559 0
M  V30 411 C 36.8966 -2.60154 4.57391 0
M  V30 412 O 35.9226 -2.25398 5.2267 0
M  V30 413 N 37.1246 -3.90629 4.29406 0
M  V30 414 H 39.8896 -0.048389 2.99661 0
M  V30 415 H 37.4506 0.11946 1.61459 0
M  V30 416 H 39.4426 -2.57652 3.12086 0
M  V30 417 H 38.0126 -2.32597 2.08847 0
M  V30 418 H 37.2326 -0.616925 3.89343 0
M  V30 419 H 38.5206 -1.25458 4.9309 0
M  V30 420 H 37.9186 -4.21677 3.77101 0
M  V30 421 H 36.4756 -4.59391 4.62388 0
M  V30 422 N 39.9087 -1.5758 0.0250728 0
M  V30 423 C 40.8387 -2.13007 -0.956575 0
M  V30 424 C 41.8197 -1.0452 -1.342 0
M  V30 425 O 43.0047 -1.32332 -1.42133 0
M  V30 426 C 40.1347 -2.65386 -2.24026 0
M  V30 427 C 39.0887 -3.78623 -1.99571 0
M  V30 428 C 38.4147 -4.17414 -3.3417 0
M  V30 429 C 39.7147 -5.04867 -1.33814 0
M  V30 430 H 41.4087 -2.9528 -0.494991 0
M  V30 431 H 38.9547 -1.42042 -0.236651 0
M  V30 432 H 40.9077 -3.02794 -2.93076 0
M  V30 433 H 39.6317 -1.80268 -2.72343 0
M  V30 434 H 38.2907 -3.41646 -1.32941 0
M  V30 435 H 37.9387 -3.29284 -3.80238 0
M  V30 436 H 37.6387 -4.93719 -3.18615 0
M  V30 437 H 39.1627 -4.57402 -4.04495 0
M  V30 438 H 40.5767 -5.39888 -1.92857 0
M  V30 439 H 38.9737 -5.86144 -1.28669 0
M  V30 440 H 40.0437 -4.83904 -0.310561 0
M  V30 441 N 41.3868 0.248026 -1.55636 0
M  V30 442 C 42.3168 1.31079 -1.93237 0
M  V30 443 C 43.2978 1.50264 -0.797174 0
M  V30 444 O 44.4828 1.62891 -1.05737 0
M  V30 445 C 41.6128 2.66575 -2.22609 0
M  V30 446 C 40.5668 2.62087 -3.3837 0
M  V30 447 C 39.8928 4.01369 -3.53281 0
M  V30 448 C 41.1928 2.19171 -4.7409 0
M  V30 449 H 42.8868 0.998556 -2.82257 0
M  V30 450 H 40.4328 0.47891 -1.35803 0
M  V30 451 H 42.3858 3.41057 -2.47503 0
M  V30 452 H 41.1098 2.99432 -1.30414 0
M  V30 453 H 39.7688 1.90063 -3.13483 0
M  V30 454 H 39.4168 4.31489 -2.58508 0
M  V30 455 H 39.1168 3.99254 -4.31127 0
M  V30 456 H 40.6408 4.77552 -3.80495 0
M  V30 457 H 42.0548 2.83384 -4.98363 0
M  V30 458 H 40.4518 2.2817 -5.5503 0
M  V30 459 H 41.5218 1.14336 -4.71227 0
M  V30 460 N 42.8649 1.48995 0.513639 0
M  V30 461 C 44.2759 1.5119 1.09537 0
M  V30 462 C 44.6269 0.290906 1.94031 0
M  V30 463 O 43.7519 -0.60049 2.07902 0
M  V30 464 C 44.3469 2.73964 1.99322 0
M  V30 465 C 42.9059 2.78978 2.52682 0
M  V30 466 C 42.0529 2.44934 1.30009 0
M  V30 467 H 45.0039 1.55875 0.298125 0
M  V30 468 H 45.0249 2.53409 2.83838 0
M  V30 469 H 44.5369 3.62813 1.37799 0
M  V30 470 H 42.6379 1.94378 3.1788 0
M  V30 471 H 42.7509 3.8083 2.90698 0
M  V30 472 H 41.1149 1.9644 1.62122 0
M  V30 473 H 41.8979 3.36043 0.702131 0
M  V30 474 N 44.343 -0.763751 1.37857 0
M  V30 475 C 45.592 -1.51789 1.32827 0
M  V30 476 C 45.905 -1.95426 -0.0823719 0
M  V30 477 O 47.111 -2.70298 -0.255172 0
M  V30 478 C 45.567 -2.74133 2.33193 0
M  V30 479 C 45.175 -2.37562 3.79827 0
M  V30 480 C 46.919 -3.52054 2.37188 0
M  V30 481 C 44.826 -3.56456 4.71904 0
M  V30 482 H 43.756 -0.569896 0.493695 0
M  V30 483 H 46.407 -0.835822 1.63359 0
M  V30 484 H 44.789 -3.4427 1.9569 0
M  V30 485 H 45.963 -1.75157 4.26212 0
M  V30 486 H 44.278 -1.72798 3.78853 0
M  V30 487 H 46.875 -4.40437 3.03182 0
M  V30 488 H 47.218 -3.92486 1.38782 0
M  V30 489 H 47.751 -2.88921 2.7344 0
M  V30 490 H 44.49 -3.21099 5.71468 0
M  V30 491 H 44.01 -4.17938 4.30218 0
M  V30 492 H 45.689 -4.23168 4.89426 0
M  V30 493 N 45.8211 -1.22559 -0.990812 0
M  V30 494 C 47.0511 -1.07623 -1.76355 0
M  V30 495 C 47.4591 0.37601 -1.85426 0
M  V30 496 O 46.8021 1.27228 -1.32509 0
M  V30 497 C 46.8641 -1.61507 -3.21179 0
M  V30 498 C 46.5281 -3.10146 -3.35646 0
M  V30 499 C 47.5251 -4.07553 -3.22796 0
M  V30 500 C 45.2101 -3.49644 -3.60631 0
M  V30 501 C 47.2041 -5.42442 -3.34716 0
M  V30 502 C 44.8911 -4.84682 -3.72192 0
M  V30 503 C 45.8891 -5.8089 -3.59243 0
M  V30 504 O 45.5771 -7.13476 -3.70415 0
M  V30 505 H 45.3091 -0.377745 -0.560611 0
M  V30 506 H 47.8631 -1.62658 -1.25425 0
M  V30 507 H 46.0931 -1.00881 -3.73309 0
M  V30 508 H 47.7821 -1.42202 -3.80175 0
M  V30 509 H 48.5481 -3.78381 -3.03403 0
M  V30 510 H 44.4271 -2.75282 -3.69785 0
M  V30 511 H 47.9711 -6.17518 -3.24526 0
M  V30 512 H 43.8681 -5.13534 -3.91092 0
M  V30 513 H 44.6361 -7.21083 -3.87275 0
M  V30 514 N 47.2992 1.18797 -1.03562 0
M  V30 515 C 48.5762 1.84469 -0.650434 0
M  V30 516 C 48.9562 1.92319 0.870433 0
M  V30 517 O 48.3042 1.44528 1.76986 0
M  V30 518 C 48.5142 3.2306 -1.32036 0
M  V30 519 C 49.8622 3.9915 -1.44792 0
M  V30 520 O 50.8862 3.32481 -1.27806 0
M  V30 521 O 49.7452 5.18587 -1.72423 0
M  V30 522 H 46.8392 0.795251 -0.226946 0
M  V30 523 H 49.3852 1.26231 -1.13419 0
M  V30 524 H 48.1572 3.1222 -2.3587 0
M  V30 525 H 47.7802 3.88949 -0.8249 0
M  V30 526 N 48.7773 0.814389 1.34928 0
M  V30 527 C 49.7243 0.22822 2.29669 0
M  V30 528 C 50.6943 -0.642164 1.53184 0
M  V30 529 O 51.8793 -0.585605 1.81591 0
M  V30 530 C 49.0193 -0.61089 3.3965 0
M  V30 531 C 48.1323 0.280792 4.31086 0
M  V30 532 C 47.2673 -0.567067 5.28165 0
M  V30 533 C 46.3063 0.324531 6.11239 0
M  V30 534 N 45.4433 -0.483756 7.00431 0
M  V30 535 H 50.2833 1.04153 2.79206 0
M  V30 536 H 47.8203 0.525133 1.37407 0
M  V30 537 H 49.7783 -1.11263 4.0209 0
M  V30 538 H 48.4083 -1.38939 2.91369 0
M  V30 539 H 47.4603 0.900688 3.69583 0
M  V30 540 H 48.7723 0.966723 4.89342 0
M  V30 541 H 47.9263 -1.13363 5.96015 0
M  V30 542 H 46.6653 -1.28654 4.70425 0
M  V30 543 H 45.6703 0.903298 5.42329 0
M  V30 544 H 46.8953 1.04198 6.71059 0
M  V30 545 H 44.8413 -1.18706 6.45171 0
M  V30 546 H 44.7583 0.143965 7.55863 0
M  V30 547 H 46.0263 -1.03334 7.7262 0
M  V30 548 N 50.2554 -1.46986 0.568584 0
M  V30 549 C 51.6664 -1.86188 0.138219 0
M  V30 550 C 52.0174 -1.47388 -1.29504 0
M  V30 551 O 51.1424 -0.88219 -1.97602 0
M  V30 552 C 51.7374 -3.3792 0.244065 0
M  V30 553 C 50.2964 -3.76171 -0.131335 0
M  V30 554 C 49.4434 -2.71027 0.586465 0
M  V30 555 H 52.3944 -1.38342 0.777645 0
M  V30 556 H 52.4154 -3.76729 -0.534351 0
M  V30 557 H 51.9274 -3.66128 1.28731 0
M  V30 558 H 50.0284 -3.5358 -1.17526 0
M  V30 559 H 50.1414 -4.78523 0.235146 0
M  V30 560 H 48.5054 -2.54684 0.0282722 0
M  V30 561 H 49.2884 -3.02077 1.63109 0
M  V30 562 N 51.7335 -0.305618 -1.54608 0
M  V30 563 C 52.6665 0.610536 -2.19881 0
M  V30 564 C 53.6445 1.1294 -1.16976 0
M  V30 565 O 54.8285 1.19673 -1.45638 0
M  V30 566 C 51.9555 1.83583 -2.84631 0
M  V30 567 C 51.0015 1.4498 -4.01102 0
M  V30 568 S 51.8345 0.501793 -5.33144 0
M  V30 569 C 52.9905 1.73478 -6.01379 0
M  V30 570 H 53.2235 0.0560177 -2.97247 0
M  V30 571 H 50.7565 -0.0897434 -1.54139 0
M  V30 572 H 52.7145 2.53898 -3.22562 0
M  V30 573 H 51.3755 2.36152 -2.07102 0
M  V30 574 H 50.5685 2.36236 -4.45206 0
M  V30 575 H 50.1705 0.826553 -3.64752 0
M  V30 576 H 52.4625 2.67473 -6.22467 0
M  V30 577 H 53.4055 1.33622 -6.95378 0
M  V30 578 H 53.8135 1.9136 -5.31076 0
M  V30 579 N 53.2116 1.57565 -0.0334293 0
M  V30 580 C 54.4606 1.91155 0.643639 0
M  V30 581 C 54.7736 0.91192 1.73042 0
M  V30 582 O 55.9796 1.13923 2.46442 0
M  V30 583 C 54.4356 3.39443 1.1961 0
M  V30 584 C 54.0436 4.47774 0.142381 0
M  V30 585 C 55.7876 3.82094 1.84944 0
M  V30 586 C 53.6946 5.87162 0.706727 0
M  V30 587 H 52.6246 0.713368 0.244176 0
M  V30 588 H 55.2756 1.8323 -0.0994323 0
M  V30 589 H 53.6576 3.42313 1.99092 0
M  V30 590 H 54.8316 4.56469 -0.630296 0
M  V30 591 H 53.1466 4.14352 -0.412446 0
M  V30 592 H 55.7436 4.83591 2.2813 0
M  V30 593 H 56.0866 3.17386 2.69392 0
M  V30 594 H 56.6196 3.81665 1.12145 0
M  V30 595 H 53.3586 6.55424 -0.0997178 0
M  V30 596 H 52.8786 5.82064 1.44779 0
M  V30 597 H 54.5576 6.35866 1.19514 0
M  V30 598 N 54.6897 -0.239769 1.55765 0
M  V30 599 C 55.9197 -0.982743 1.8173 0
M  V30 600 C 56.3277 -1.7917 0.607835 0
M  V30 601 O 55.6707 -1.78525 -0.432973 0
M  V30 602 C 55.7327 -1.96332 3.01155 0
M  V30 603 C 55.3967 -1.34062 4.36894 0
M  V30 604 C 56.3937 -0.739539 5.14613 0
M  V30 605 C 54.0787 -1.35784 4.83599 0
M  V30 606 C 56.0727 -0.163989 6.37189 0
M  V30 607 C 53.7597 -0.778441 6.06122 0
M  V30 608 C 54.7577 -0.182548 6.82756 0
M  V30 609 O 54.4457 0.387887 8.02964 0
M  V30 610 H 54.1777 -0.294481 0.608487 0
M  V30 611 H 56.7317 -0.26572 2.03674 0
M  V30 612 H 54.9617 -2.71884 2.74984 0
M  V30 613 H 56.6507 -2.57032 3.14149 0
M  V30 614 H 57.4167 -0.718687 4.79646 0
M  V30 615 H 53.2957 -1.81105 4.23936 0
M  V30 616 H 56.8397 0.301753 6.96947 0
M  V30 617 H 52.7367 -0.796645 6.40565 0
M  V30 618 H 53.5047 0.28044 8.18019 0
M  V30 619 N 56.1678 -1.49265 -0.50573 0
M  V30 620 C 57.3978 -1.61979 -1.28243 0
M  V30 621 C 57.8058 -0.288576 -1.86986 0
M  V30 622 O 57.1488 0.735408 -1.68337 0
M  V30 623 C 57.2108 -2.62632 -2.45489 0
M  V30 624 C 56.8748 -4.071 -2.07651 0
M  V30 625 C 57.8718 -4.94049 -1.61901 0
M  V30 626 C 55.5568 -4.52801 -2.17431 0
M  V30 627 C 57.5508 -6.24736 -1.26428 0
M  V30 628 C 55.2378 -5.83503 -1.8157 0
M  V30 629 C 56.2358 -6.69294 -1.36142 0
M  V30 630 O 55.9238 -7.9756 -1.00764 0
M  V30 631 H 55.6558 -0.54834 -0.395347 0
M  V30 632 H 58.2098 -1.96002 -0.614204 0
M  V30 633 H 56.4398 -2.2378 -3.15372 0
M  V30 634 H 58.1288 -2.64925 -3.07522 0
M  V30 635 H 58.8948 -4.5997 -1.53795 0
M  V30 636 H 54.7738 -3.86196 -2.51742 0
M  V30 637 H 58.3178 -6.91652 -0.908992 0
M  V30 638 H 54.2148 -6.17112 -1.89324 0
M  V30 639 H 54.9828 -8.10529 -1.13952 0
M  V30 640 N 57.6459 0.756429 -1.3826 0
M  V30 641 C 59.0569 1.33359 -1.30661 0
M  V30 642 C 59.4079 1.96161 0.0388875 0
M  V30 643 O 58.5329 1.94874 0.940918 0
M  V30 644 C 59.1279 2.42477 -2.36622 0
M  V30 645 C 57.6869 2.95922 -2.3261 0
M  V30 646 C 56.8339 1.69275 -2.19639 0
M  V30 647 H 59.7849 0.55552 -1.4866 0
M  V30 648 H 59.8059 3.22345 -2.02174 0
M  V30 649 H 59.3179 1.96739 -3.34538 0
M  V30 650 H 57.4189 3.45996 -1.38267 0
M  V30 651 H 57.5319 3.50494 -3.26636 0
M  V30 652 H 55.8959 1.92793 -1.66442 0
M  V30 653 H 56.6789 1.25619 -3.19491 0
M  V30 654 N 59.124 1.23083 0.984299 0
M  V30 655 C 60.054 1.03292 2.09411 0
M  V30 656 C 61.035 -0.048923 1.7003 0
M  V30 657 O 62.22 0.114967 1.93859 0
M  V30 658 C 59.35 0.619155 3.41736 0
M  V30 659 C 58.304 1.64791 3.95004 0
M  V30 660 C 57.63 1.0897 5.23478 0
M  V30 661 C 58.93 3.03999 4.24714 0
M  V30 662 H 60.624 1.96119 2.26225 0
M  V30 663 H 58.17 0.944344 1.08711 0
M  V30 664 H 60.123 0.467777 4.18796 0
M  V30 665 H 58.847 -0.344786 3.24775 0
M  V30 666 H 57.506 1.78721 3.20085 0
M  V30 667 H 57.154 0.11686 5.02864 0
M  V30 668 H 56.854 1.77704 5.60085 0
M  V30 669 H 58.378 0.950093 6.03163 0
M  V30 670 H 59.792 2.93393 4.92538 0
M  V30 671 H 58.189 3.69936 4.72512 0
M  V30 672 H 59.259 3.53285 3.32142 0
M  V30 673 N 60.6021 -1.18246 1.0419 0
M  V30 674 C 61.8271 -1.92736 0.765996 0
M  V30 675 C 62.2521 -1.75728 -0.67091 0
M  V30 676 O 61.6101 -1.06825 -1.46486 0
M  V30 677 C 61.6581 -3.42148 1.13875 0
M  V30 678 O 60.7621 -4.11548 0.264954 0
M  V30 679 H 60.1031 -0.601238 0.281797 0
M  V30 680 H 62.6331 -1.49942 1.39207 0
M  V30 681 H 62.6431 -3.92858 1.1012 0
M  V30 682 H 61.3181 -3.53848 2.18551 0
M  V30 683 H 59.8951 -3.71137 0.362226 0
M  V30 684 N 62.0802 -0.821533 -1.34494 0
M  V30 685 C 63.3082 -0.421884 -2.02553 0
M  V30 686 C 63.7232 0.971745 -1.61872 0
M  V30 687 O 63.0802 1.62864 -0.823496 0
M  V30 688 C 63.1312 -0.51285 -3.57844 0
M  V30 689 O 62.8522 -1.85155 -3.97051 0
M  V30 690 C 64.3532 -0.107921 -4.43169 0
M  V30 691 H 61.5732 -0.169482 -0.649243 0
M  V30 692 H 64.1172 -1.1093 -1.71798 0
M  V30 693 H 62.2722 0.126474 -3.87193 0
M  V30 694 H 62.6862 -1.82482 -4.91732 0
M  V30 695 H 64.1602 -0.222657 -5.51551 0
M  V30 696 H 64.6372 0.948401 -4.28838 0
M  V30 697 H 65.2432 -0.720989 -4.19144 0
M  V30 698 N 63.5583 1.46682 -0.576371 0
M  V30 699 C 64.4883 2.33028 0.148397 0
M  V30 700 C 65.4693 1.44961 0.889956 0
M  V30 701 O 66.6543 1.73789 0.866662 0
M  V30 702 C 63.7843 3.27117 1.1667 0
M  V30 703 C 62.7383 4.24575 0.540386 0
M  V30 704 C 62.0643 5.08126 1.6647 0
M  V30 705 C 63.3643 5.19722 -0.518331 0
M  V30 706 H 65.0583 2.93875 -0.572509 0
M  V30 707 H 62.6043 1.41315 -0.276768 0
M  V30 708 H 64.5573 3.86374 1.68204 0
M  V30 709 H 63.2813 2.64364 1.9178 0
M  V30 710 H 61.9403 3.66571 0.0461769 0
M  V30 711 H 61.5883 4.41762 2.40531 0
M  V30 712 H 61.2883 5.74122 1.25131 0
M  V30 713 H 62.8123 5.70246 2.18293 0
M  V30 714 H 64.2263 5.73232 -0.0883058 0
M  V30 715 H 62.6233 5.94026 -0.851679 0
M  V30 716 H 63.6933 4.64037 -1.40703 0
M  V30 717 N 65.0364 0.313813 1.54444 0
M  V30 718 C 65.9694 -0.598866 2.20202 0
M  V30 719 C 66.9474 -1.12318 1.17573 0
M  V30 720 O 68.1314 -1.18899 1.46271 0
M  V30 721 C 65.2584 -1.82071 2.85601 0
M  V30 722 C 64.3044 -1.42851 4.01865 0
M  V30 723 S 65.1374 -0.473512 5.33402 0
M  V30 724 C 66.2934 -1.70286 6.0229 0
M  V30 725 H 66.5264 -0.0402532 2.97273 0
M  V30 726 H 64.0594 0.0979165 1.54089 0
M  V30 727 H 66.0174 -2.52184 3.23904 0
M  V30 728 H 64.6784 -2.3505 2.08351 0
M  V30 729 H 63.8714 -2.33871 4.46453 0
M  V30 730 H 63.4734 -0.807198 3.65185 0
M  V30 731 H 65.7654 -2.64168 6.23876 0
M  V30 732 H 66.7084 -1.29932 6.96077 0
M  V30 733 H 67.1164 -1.88541 5.32083 0
M  V30 734 N 66.5145 -1.57545 0.0417849 0
M  V30 735 C 67.4445 -2.14009 -0.933929 0
M  V30 736 C 68.4255 -1.05938 -1.33083 0
M  V30 737 O 69.6105 -1.33833 -1.40721 0
M  V30 738 C 66.7405 -2.67747 -2.21199 0
M  V30 739 C 65.6945 -3.80718 -1.95544 0
M  V30 740 C 65.0205 -4.20935 -3.29724 0
M  V30 741 C 66.3205 -5.06258 -1.28452 0
M  V30 742 H 68.0145 -2.95788 -0.463645 0
M  V30 743 H 65.5605 -1.42285 -0.221573 0
M  V30 744 H 67.5135 -3.05886 -2.89848 0
M  V30 745 H 66.2375 -1.83147 -2.70416 0
M  V30 746 H 64.8965 -3.43037 -1.2931 0
M  V30 747 H 64.5445 -3.33298 -3.76724 0
M  V30 748 H 64.2445 -4.9707 -3.13361 0
M  V30 749 H 65.7685 -4.61666 -3.9962 0
M  V30 750 H 67.1825 -5.41903 -1.8712 0
M  V30 751 H 65.5795 -5.87475 -1.22445 0
M  V30 752 H 66.6495 -4.84207 -0.259219 0
M  V30 753 N 67.9926 0.231505 -1.5589 0
M  V30 754 C 68.9556 1.27028 -1.90779 0
M  V30 755 C 69.9556 1.40308 -0.785507 0
M  V30 756 O 71.1456 1.38744 -1.05336 0
M  V30 757 C 68.2776 2.64566 -2.14983 0
M  V30 758 H 69.4706 0.973017 -2.83677 0
M  V30 759 H 67.0236 0.471486 -1.49019 0
M  V30 760 H 67.7586 2.99406 -1.24604 0
M  V30 761 H 67.5436 2.56305 -2.96732 0
M  V30 762 H 69.0336 3.39543 -2.43105 0
M  V30 763 N 69.4707 1.49531 0.497807 0
M  V30 764 C 70.7187 1.58865 1.24926 0
M  V30 765 C 71.0397 0.278721 1.92998 0
M  V30 766 O 70.3097 -0.702144 1.82885 0
M  V30 767 H 68.8897 0.585343 0.464094 0
M  V30 768 H 71.5517 1.86174 0.57666 0
M  V30 769 H 70.6477 2.38633 2.01149 0
M  V30 770 N 70.9488 -0.749086 1.3866 0
M  V30 771 C 72.1978 -1.50371 1.3443 0
M  V30 772 C 72.5108 -1.95503 -0.0616397 0
M  V30 773 O 73.7168 -2.70554 -0.226489 0
M  V30 774 C 72.1728 -2.71644 2.36088 0
M  V30 775 C 71.7808 -2.3352 3.82325 0
M  V30 776 C 73.5248 -3.49518 2.40909 0
M  V30 777 C 71.4318 -3.51431 4.75658 0
M  V30 778 H 70.3618 -0.564628 0.499712 0
M  V30 779 H 73.0128 -0.818449 1.64237 0
M  V30 780 H 71.3948 -3.42175 1.9933 0
M  V30 781 H 72.5688 -1.70627 4.28046 0
M  V30 782 H 70.8838 -1.6877 3.80665 0
M  V30 783 H 73.4808 -4.37197 3.07836 0
M  V30 784 H 73.8238 -3.90992 1.42937 0
M  V30 785 H 74.3568 -2.86005 2.76489 0
M  V30 786 H 71.0958 -3.15019 5.74842 0
M  V30 787 H 70.6158 -4.13352 4.34627 0
M  V30 788 H 72.2948 -4.17953 4.93887 0
M  V30 789 N 72.4269 -1.23603 -0.977757 0
M  V30 790 C 73.8429 -0.999251 -1.24447 0
M  V30 791 C 74.0429 0.298053 -1.99283 0
M  V30 792 O 73.0989 1.01681 -2.31122 0
M  V30 793 C 74.4119 -2.20784 -2.04144 0
M  V30 794 C 75.9599 -2.25303 -2.17273 0
M  V30 795 C 76.4349 -3.45755 -3.00362 0
M  V30 796 N 77.9259 -3.4601 -3.07947 0
M  V30 797 C 78.6609 -4.35868 -3.72568 0
M  V30 798 N 78.1569 -5.35966 -4.38991 0
M  V30 799 N 79.9499 -4.23605 -3.6948 0
M  V30 800 H 72.1009 -2.06986 -0.476483 0
M  V30 801 H 74.3639 -0.907801 -0.273134 0
M  V30 802 H 74.0699 -3.14945 -1.56533 0
M  V30 803 H 73.9439 -2.22085 -3.04891 0
M  V30 804 H 76.3309 -1.3168 -2.64092 0
M  V30 805 H 76.4119 -2.28033 -1.15907 0
M  V30 806 H 76.0559 -4.39687 -2.5424 0
M  V30 807 H 75.9859 -3.40266 -4.01904 0
M  V30 808 H 78.4769 -2.73588 -2.60688 0
M  V30 809 H 78.7899 -6.00783 -4.86086 0
M  V30 810 H 77.1349 -5.39863 -4.37691 0
M  V30 811 H 80.3259 -3.44647 -3.16759 0
M  V30 812 H 80.4989 -4.93836 -4.1956 0
M  V30 813 N 73.905 1.17692 -1.04816 0
M  V30 814 C 75.182 1.83768 -0.669963 0
M  V30 815 C 75.562 1.93232 0.849986 0
M  V30 816 O 74.91 1.46397 1.75443 0
M  V30 817 C 75.12 3.21641 -1.35455 0
M  V30 818 C 76.468 3.97592 -1.49017 0
M  V30 819 O 77.492 3.31107 -1.31326 0
M  V30 820 O 76.351 5.16729 -1.77914 0
M  V30 821 H 73.445 0.792799 -0.235368 0
M  V30 822 H 75.991 1.25021 -1.14751 0
M  V30 823 H 74.763 3.097 -2.39168 0
M  V30 824 H 74.386 3.88052 -0.866107 0
M  V30 825 N 75.3831 0.828654 1.34056 0
M  V30 826 C 76.6321 0.415828 1.97367 0
M  V30 827 C 76.9451 -1.02796 1.6641 0
M  V30 828 O 78.1511 -1.54497 2.23255 0
M  V30 829 C 76.6071 0.692601 3.53173 0
M  V30 830 C 76.2151 2.15038 3.93017 0
M  V30 831 C 77.9591 0.346222 4.23086 0
M  V30 832 C 75.8661 2.37174 5.41758 0
M  V30 833 H 74.7961 0.151755 0.738571 0
M  V30 834 H 77.4471 1.01581 1.52819 0
M  V30 835 H 75.8291 0.0223764 3.95994 0
M  V30 836 H 77.0031 2.86024 3.61285 0
M  V30 837 H 75.3181 2.45875 3.36057 0
M  V30 838 H 77.9151 0.48937 5.32456 0
M  V30 839 H 78.2581 -0.709842 4.10204 0
M  V30 840 H 78.7911 0.971258 3.85761 0
M  V30 841 H 75.5301 3.41308 5.59633 0
M  V30 842 H 75.0501 1.70738 5.74986 0
M  V30 843 H 76.7291 2.19818 6.08514 0
M  V30 844 N 76.8612 -1.46375 0.584142 0
M  V30 845 C 77.7912 -2.33103 -0.136037 0
M  V30 846 C 78.7722 -1.45431 -0.882255 0
M  V30 847 O 79.9572 -1.74246 -0.857434 0
M  V30 848 C 77.0872 -3.27731 -1.14933 0
M  V30 849 C 76.0412 -4.24855 -0.517862 0
M  V30 850 C 75.3672 -5.09001 -1.63773 0
M  V30 851 C 76.6672 -5.19439 0.545886 0
M  V30 852 H 78.3612 -2.93568 0.588086 0
M  V30 853 H 75.9072 -1.41166 0.284259 0
M  V30 854 H 77.8602 -3.87261 -1.66153 0
M  V30 855 H 76.5842 -2.65377 -1.90375 0
M  V30 856 H 75.2432 -3.6659 -0.0267361 0
M  V30 857 H 74.8912 -4.43031 -2.38185 0
M  V30 858 H 74.5912 -5.74777 -1.22085 0
M  V30 859 H 76.1152 -5.71396 -2.15266 0
M  V30 860 H 77.5292 -5.73177 0.118704 0
M  V30 861 H 75.9262 -5.93566 0.88317 0
M  V30 862 H 76.9962 -4.63285 1.43162 0
M  V30 863 N 78.3393 -0.321999 -1.54275 0
M  V30 864 C 79.5883 0.281931 -1.9972 0
M  V30 865 C 79.9013 1.53369 -1.21397 0
M  V30 866 O 81.1073 2.21352 -1.57211 0
M  V30 867 C 79.5633 0.5529 -3.55628 0
M  V30 868 C 79.1713 -0.681721 -4.42783 0
M  V30 869 C 80.9153 1.11687 -4.09544 0
M  V30 870 C 78.8223 -0.382742 -5.9016 0
M  V30 871 H 77.7523 0.109124 -0.746062 0
M  V30 872 H 80.4033 -0.43398 -1.78294 0
M  V30 873 H 78.7853 1.32896 -3.73035 0
M  V30 874 H 79.9593 -1.45723 -4.37151 0
M  V30 875 H 78.2743 -1.1658 -3.99748 0
M  V30 876 H 80.8713 1.35515 -5.17242 0
M  V30 877 H 81.2143 2.06575 -3.61431 0
M  V30 878 H 81.7473 0.402032 -3.95763 0
M  V30 879 H 78.4863 -1.30076 -6.42464 0
M  V30 880 H 78.0063 0.355094 -5.98748 0
M  V30 881 H 79.6853 0.00800157 -6.47 0
M  V30 882 N 79.8174 1.5752 -0.0501392 0
M  V30 883 C 81.0664 1.91827 0.623328 0
M  V30 884 C 81.3794 0.930222 1.72065 0
M  V30 885 O 82.5854 1.1653 2.4522 0
M  V30 886 C 81.0414 3.40692 1.16003 0
M  V30 887 C 80.6494 4.479 0.0948811 0
M  V30 888 C 82.3934 3.84034 1.80881 0
M  V30 889 C 80.3004 5.87879 0.644411 0
M  V30 890 H 79.2304 0.715918 0.236596 0
M  V30 891 H 81.8814 1.83115 -0.118861 0
M  V30 892 H 80.2634 3.44405 1.9545 0
M  V30 893 H 81.4374 4.55775 -0.678675 0
M  V30 894 H 79.7524 4.13892 -0.45637 0
M  V30 895 H 82.3494 4.85984 2.22988 0
M  V30 896 H 82.6924 3.20225 2.6601 0
M  V30 897 H 83.2254 3.82833 1.0809 0
M  V30 898 H 79.9644 6.55282 -0.169229 0
M  V30 899 H 79.4844 5.83567 1.38598 0
M  V30 900 H 81.1634 6.37098 1.12763 0
M  V30 901 N 81.2955 -0.223234 1.56011 0
M  V30 902 C 82.5205 -0.968978 1.83373 0
M  V30 903 C 82.9455 -1.77227 0.630254 0
M  V30 904 O 82.3035 -1.76345 -0.420959 0
M  V30 905 C 82.3515 -1.86363 3.08709 0
M  V30 906 O 81.4555 -2.95873 2.87285 0
M  V30 907 H 80.7965 -0.274461 0.604622 0
M  V30 908 H 83.3265 -0.237056 2.03222 0
M  V30 909 H 83.3365 -2.27376 3.38768 0
M  V30 910 H 82.0115 -1.27319 3.95933 0
M  V30 911 H 80.5885 -2.58818 2.68454 0
M  V30 912 N 82.7736 -1.49793 -0.48987 0
M  V30 913 C 84.0016 -1.63568 -1.26701 0
M  V30 914 C 84.4166 -0.311465 -1.86213 0
M  V30 915 O 83.7736 0.704416 -1.68357 0
M  V30 916 C 83.8246 -2.71284 -2.38929 0
M  V30 917 O 83.5456 -3.9857 -1.81861 0
M  V30 918 C 85.0466 -2.95864 -3.3012 0
M  V30 919 H 82.2666 -0.550342 -0.383881 0
M  V30 920 H 84.8106 -1.95898 -0.586864 0
M  V30 921 H 82.9656 -2.417 -3.02753 0
M  V30 922 H 83.3796 -4.57993 -2.55622 0
M  V30 923 H 84.8536 -3.74941 -4.05121 0
M  V30 924 H 85.3306 -2.06206 -3.87783 0
M  V30 925 H 85.9366 -3.26907 -2.72051 0
M  V30 926 N 84.2517 0.741722 -1.39055 0
M  V30 927 C 85.6627 1.31966 -1.32068 0
M  V30 928 C 86.0137 1.96192 0.0180797 0
M  V30 929 O 85.1387 1.95861 0.920196 0
M  V30 930 C 85.7337 2.39954 -2.39181 0
M  V30 931 C 84.2927 2.93438 -2.35735 0
M  V30 932 C 83.4397 1.66936 -2.21422 0
M  V30 933 H 86.3907 0.539721 -1.4924 0
M  V30 934 H 86.4117 3.20182 -2.05581 0
M  V30 935 H 85.9237 1.9318 -3.36605 0
M  V30 936 H 84.0247 3.4451 -1.41929 0
M  V30 937 H 84.1377 3.4701 -3.30335 0
M  V30 938 H 82.5017 1.91016 -1.68478 0
M  V30 939 H 83.2847 1.22224 -3.20806 0
M  V30 940 N 85.7298 1.2412 0.971189 0
M  V30 941 C 86.6618 0.988349 2.06795 0
M  V30 942 C 87.6748 -0.0409541 1.62748 0
M  V30 943 O 88.8638 0.195673 1.77424 0
M  V30 944 C 85.9638 0.469023 3.35639 0
M  V30 945 C 85.1368 1.56065 4.08611 0
M  V30 946 C 84.1958 1.04458 5.15728 0
M  V30 947 O 83.2218 1.73553 5.42096 0
M  V30 948 N 84.4238 -0.122817 5.8037 0
M  V30 949 H 87.1888 1.93265 2.29061 0
M  V30 950 H 84.7498 1.15102 1.13856 0
M  V30 951 H 86.7418 0.108613 4.04554 0
M  V30 952 H 85.3118 -0.380919 3.1027 0
M  V30 953 H 84.5318 2.09341 3.34021 0
M  V30 954 H 85.8198 2.29449 4.54126 0
M  V30 955 H 85.2178 -0.700563 5.61345 0
M  V30 956 H 83.7748 -0.424404 6.50417 0
M  V30 957 N 87.2079 -1.17134 1.05439 0
M  V30 958 C 88.4849 -1.83411 0.679699 0
M  V30 959 C 88.8649 -1.9368 -0.839726 0
M  V30 960 O 88.2129 -1.47325 -1.74664 0
M  V30 961 C 88.4229 -3.20918 1.37159 0
M  V30 962 C 89.7709 -3.96796 1.51123 0
M  V30 963 O 90.7949 -3.30406 1.3308 0
M  V30 964 O 89.6539 -5.15778 1.80651 0
M  V30 965 H 86.7479 -0.79154 0.239569 0
M  V30 966 H 89.2939 -1.24411 1.15413 0
M  V30 967 H 88.0659 -3.08428 2.40807 0
M  V30 968 H 87.6889 -3.87587 0.886674 0
M  V30 969 N 88.686 -0.835752 -1.33615 0
M  V30 970 C 89.914 -0.443344 -2.02094 0
M  V30 971 C 90.329 0.954522 -1.62894 0
M  V30 972 O 89.686 1.61982 -0.840723 0
M  V30 973 C 89.737 -0.550775 -3.5728 0
M  V30 974 O 89.458 -1.89356 -3.95065 0
M  V30 975 C 90.959 -0.154919 -4.43029 0
M  V30 976 H 88.179 -0.176359 -0.647409 0
M  V30 977 H 90.723 -1.12746 -1.70612 0
M  V30 978 H 88.878 0.0853997 -3.87306 0
M  V30 979 H 89.292 -1.87687 -4.89769 0
M  V30 980 H 90.766 -0.281144 -5.51284 0
M  V30 981 H 91.243 0.902863 -4.2982 0
M  V30 982 H 91.849 -0.765404 -4.18356 0
M  V30 983 N 90.1641 1.46063 -0.591896 0
M  V30 984 C 91.5751 1.85944 -0.167822 0
M  V30 985 C 91.9261 1.49429 1.27143 0
M  V30 986 O 91.0511 0.913515 1.96173 0
M  V30 987 C 91.6461 3.37489 -0.297794 0
M  V30 988 C 90.2051 3.76332 0.0714732 0
M  V30 989 C 89.3521 2.7006 -0.629509 0
M  V30 990 H 92.3031 1.37087 -0.799555 0
M  V30 991 H 92.3241 3.77532 0.474349 0
M  V30 992 H 91.8361 3.64034 -1.3454 0
M  V30 993 H 89.9371 3.55405 1.11886 0
M  V30 994 H 90.0501 4.78088 -0.311245 0
M  V30 995 H 88.4141 2.54607 -0.0687867 0
M  V30 996 H 89.1971 2.99444 -1.67894 0
M  V30 997 N 91.6422 0.330177 1.54103 0
M  V30 998 C 93.0582 -0.0222371 1.59585 0
M  V30 999 C 93.2582 -1.49902 1.34654 0
M  V30 1000 O 92.3142 -2.25592 1.13421 0
M  V30 1001 C 93.6272 0.401932 2.98002 0
M  V30 1002 C 95.1752 0.353145 3.11001 0
M  V30 1003 C 95.6502 0.752576 4.51775 0
M  V30 1004 N 97.1412 0.706239 4.57784 0
M  V30 1005 C 97.8762 0.987417 5.64834 0
M  V30 1006 N 97.3722 1.33607 6.79795 0
M  V30 1007 N 99.1652 0.91254 5.54643 0
M  V30 1008 H 91.3162 1.29228 1.68564 0
M  V30 1009 H 93.5792 0.525906 0.78875 0
M  V30 1010 H 93.2852 1.4311 3.21267 0
M  V30 1011 H 93.1592 -0.229699 3.765 0
M  V30 1012 H 95.5462 -0.666822 2.87467 0
M  V30 1013 H 95.6272 1.0198 2.34593 0
M  V30 1014 H 95.2712 1.77049 4.76042 0
M  V30 1015 H 95.2012 0.0635409 5.26562 0
M  V30 1016 H 97.6922 0.44889 3.75224 0
M  V30 1017 H 98.0052 1.53582 7.57385 0
M  V30 1018 H 96.3502 1.37439 6.81275 0
M  V30 1019 H 99.5412 0.639601 4.6371 0
M  V30 1020 H 99.7142 1.13503 6.37982 0
M  V30 1021 N 93.1203 -1.57491 0.0584922 0
M  V30 1022 C 94.3673 -1.92978 -0.613648 0
M  V30 1023 C 94.6953 -0.937461 -1.70417 0
M  V30 1024 O 93.9503 0.049078 -1.95638 0
M  V30 1025 C 94.2493 -3.3513 -1.24188 0
M  V30 1026 C 93.9153 -4.50037 -0.278826 0
M  V30 1027 C 92.5773 -4.81198 -0.0138447 0
M  V30 1028 C 94.9293 -5.19807 0.380777 0
M  V30 1029 C 92.2573 -5.79473 0.918052 0
M  V30 1030 C 94.6093 -6.19079 1.30091 0
M  V30 1031 C 93.2733 -6.48665 1.57449 0
M  V30 1032 H 92.5433 -0.706157 -0.22455 0
M  V30 1033 H 95.1903 -1.91082 0.126533 0
M  V30 1034 H 93.4953 -3.33429 -2.05749 0
M  V30 1035 H 95.1923 -3.59871 -1.769 0
M  V30 1036 H 91.7823 -4.25726 -0.495539 0
M  V30 1037 H 95.9663 -4.95939 0.189158 0
M  V30 1038 H 91.2223 -6.00727 1.1374 0
M  V30 1039 H 95.3963 -6.7225 1.81804 0
M  V30 1040 H 93.0233 -7.24628 2.29822 0
M  V30 1041 N 94.5984 0.214957 -1.56127 0
M  V30 1042 C 95.5304 1.29004 -1.89448 0
M  V30 1043 C 96.5434 1.42716 -0.783326 0
M  V30 1044 O 97.7324 1.43496 -1.06166 0
M  V30 1045 C 94.8324 2.66482 -2.09381 0
M  V30 1046 C 94.0054 2.74633 -3.40434 0
M  V30 1047 C 93.0644 3.9317 -3.49719 0
M  V30 1048 O 92.0904 3.812 -4.227 0
M  V30 1049 N 93.2924 5.07765 -2.81346 0
M  V30 1050 H 96.0574 1.00743 -2.82261 0
M  V30 1051 H 93.6184 0.40497 -1.56753 0
M  V30 1052 H 95.6104 3.44173 -2.12901 0
M  V30 1053 H 94.1804 2.87314 -1.23163 0
M  V30 1054 H 93.4004 1.83368 -3.48955 0
M  V30 1055 H 94.6884 2.77054 -4.26754 0
M  V30 1056 H 94.0864 5.20386 -2.21843 0
M  V30 1057 H 92.6434 5.83474 -2.90519 0
M  V30 1058 N 96.0765 1.50051 0.48192 0
M  V30 1059 C 97.0085 1.64263 1.59844 0
M  V30 1060 C 98.0215 0.52451 1.54119 0
M  V30 1061 O 99.2105 0.797293 1.59704 0
M  V30 1062 C 96.3105 1.60102 2.98698 0
M  V30 1063 C 95.4835 2.87767 3.29407 0
M  V30 1064 C 94.5425 2.76397 4.47762 0
M  V30 1065 O 93.5685 3.50348 4.48603 0
M  V30 1066 N 94.7705 1.89222 5.48794 0
M  V30 1067 H 97.5355 2.60566 1.48073 0
M  V30 1068 H 95.0965 1.47379 0.670149 0
M  V30 1069 H 97.0885 1.50123 3.75826 0
M  V30 1070 H 95.6585 0.715798 3.04294 0
M  V30 1071 H 94.8785 3.11954 2.40994 0
M  V30 1072 H 96.1665 3.72365 3.4673 0
M  V30 1073 H 95.5645 1.28434 5.50928 0
M  V30 1074 H 94.1215 1.85154 6.24949 0
M  V30 1075 N 97.5546 -0.734337 1.39446 0
M  V30 1076 C 98.4846 -1.86155 1.40955 0
M  V30 1077 C 99.4656 -1.67898 0.272827 0
M  V30 1078 O 100.651 -1.88207 0.478743 0
M  V30 1079 C 97.7806 -3.23912 1.25294 0
M  V30 1080 C 96.7346 -3.56808 2.36373 0
M  V30 1081 C 96.0606 -4.93508 2.058 0
M  V30 1082 C 97.3606 -3.59713 3.78687 0
M  V30 1083 H 99.0546 -1.8515 2.35287 0
M  V30 1084 H 96.6006 -0.889367 1.13253 0
M  V30 1085 H 98.5536 -4.02443 1.2497 0
M  V30 1086 H 97.2776 -3.25446 0.274308 0
M  V30 1087 H 95.9366 -2.80606 2.35914 0
M  V30 1088 H 95.5846 -4.91623 1.06374 0
M  V30 1089 H 95.2846 -5.16486 2.80208 0
M  V30 1090 H 96.8086 -5.74396 2.07128 0
M  V30 1091 H 98.2226 -4.2832 3.81071 0
M  V30 1092 H 96.6196 -3.94209 4.52459 0
M  V30 1093 H 97.6896 -2.59504 4.09617 0
M  V30 1094 N 99.0327 -1.24633 -0.964593 0
M  V30 1095 C 99.9627 -1.06611 -2.07741 0
M  V30 1096 C 100.944 0.0218666 -1.70086 0
M  V30 1097 O 102.129 -0.145793 -1.93652 0
M  V30 1098 C 99.2587 -0.673444 -3.40708 0
M  V30 1099 C 98.2127 -1.71054 -3.92332 0
M  V30 1100 C 97.5387 -1.17285 -5.21678 0
M  V30 1101 C 98.8387 -3.10718 -4.19824 0
M  V30 1102 H 100.533 -1.99693 -2.23076 0
M  V30 1103 H 98.0787 -0.96152 -1.07195 0
M  V30 1104 H 100.032 -0.534345 -4.17998 0
M  V30 1105 H 98.7557 0.293073 -3.25282 0
M  V30 1106 H 97.4147 -1.83791 -3.17201 0
M  V30 1107 H 97.0627 -0.196847 -5.02615 0
M  V30 1108 H 96.7627 -1.86592 -5.57187 0
M  V30 1109 H 98.2867 -1.04593 -6.01575 0
M  V30 1110 H 99.7007 -3.01192 -4.87808 0
M  V30 1111 H 98.0977 -3.77406 -4.66567 0
M  V30 1112 H 99.1677 -3.58524 -3.26479 0
M  V30 1113 N 100.511 1.16574 -1.06058 0
M  V30 1114 C 101.759 1.86677 -0.77434 0
M  V30 1115 C 102.08 1.81959 0.701147 0
M  V30 1116 O 101.35 1.2515 1.50713 0
M  V30 1117 H 99.9298 0.691134 -0.283449 0
M  V30 1118 H 102.592 1.41378 -1.34158 0
M  V30 1119 H 101.688 2.92181 -1.09711 0
M  V30 1120 N 101.989 0.842826 1.3317 0
M  V30 1121 C 103.266 0.362216 1.92217 0
M  V30 1122 C 103.646 -1.15289 1.76838 0
M  V30 1123 O 102.994 -1.96914 1.15919 0
M  V30 1124 C 103.204 0.813495 3.39387 0
M  V30 1125 C 104.552 0.823804 4.16532 0
M  V30 1126 O 105.576 0.757358 3.48055 0
M  V30 1127 O 104.435 0.915193 5.38782 0
M  V30 1128 H 101.529 0.103317 0.820521 0
M  V30 1129 H 104.075 0.928942 1.42017 0
M  V30 1130 H 102.847 1.85624 3.4447 0
M  V30 1131 H 102.47 0.223561 3.96971 0
M  V30 1132 N 103.467 -1.45747 0.599634 0
M  V30 1133 C 104.715 -2.01893 0.0915472 0
M  V30 1134 C 105.036 -1.47155 -1.27946 0
M  V30 1135 O 104.306 -0.66273 -1.84349 0
M  V30 1136 H 102.886 -0.746363 0.0308524 0
M  V30 1137 H 105.548 -1.78645 0.779237 0
M  V30 1138 H 104.644 -3.1208 0.0353086 0
M  V30 1139 N 104.945 -0.338344 -1.53925 0
M  V30 1140 C 106.17 0.263987 -2.05713 0
M  V30 1141 C 106.595 1.43847 -1.21201 0
M  V30 1142 O 105.953 1.79904 -0.224535 0
M  V30 1143 C 106.001 0.662 -3.54471 0
M  V30 1144 O 105.105 1.76265 -3.72833 0
M  V30 1145 H 104.446 0.0448722 -0.662482 0
M  V30 1146 H 106.976 -0.491048 -1.9862 0
M  V30 1147 H 106.986 0.940594 -3.9701 0
M  V30 1148 H 105.661 -0.196937 -4.15433 0
M  V30 1149 H 104.238 1.48173 -3.42198 0
M  V30 1150 N 106.423 1.57458 -0.0668435 0
M  V30 1151 C 107.355 2.09413 0.931601 0
M  V30 1152 C 108.368 1.02522 1.26464 0
M  V30 1153 O 109.557 1.30049 1.22269 0
M  V30 1154 C 106.657 2.53537 2.24882 0
M  V30 1155 C 105.83 3.83944 2.09537 0
M  V30 1156 C 104.889 4.14214 3.2452 0
M  V30 1157 O 103.915 4.83891 2.9973 0
M  V30 1158 N 105.117 3.67367 4.49469 0
M  V30 1159 H 107.882 2.95699 0.488048 0
M  V30 1160 H 105.443 1.61462 0.119009 0
M  V30 1161 H 107.435 2.70853 3.00701 0
M  V30 1162 H 106.005 1.72415 2.60753 0
M  V30 1163 H 105.225 3.76057 1.18215 0
M  V30 1164 H 106.513 4.69312 1.96529 0
M  V30 1165 H 105.911 3.11068 4.72497 0
M  V30 1166 H 104.468 3.89891 5.2233 0
M  V30 1167 N 107.901 -0.206675 1.56239 0
M  V30 1168 C 109.147 -0.925733 1.81113 0
M  V30 1169 C 109.502 -1.81368 0.642135 0
M  V30 1170 O 108.795 -1.88126 -0.363211 0
M  V30 1171 C 108.989 -1.78675 3.09532 0
M  V30 1172 C 108.818 -0.98365 4.3881 0
M  V30 1173 C 107.588 -0.672661 5.00803 0
M  V30 1174 C 109.786 -0.341847 5.13163 0
M  V30 1175 N 107.768 0.150283 6.13716 0
M  V30 1176 C 109.139 0.343815 6.19046 0
M  V30 1177 C 111.194 -0.256392 4.97239 0
M  V30 1178 C 109.897 1.10678 7.10734 0
M  V30 1179 C 111.923 0.493142 5.8934 0
M  V30 1180 C 111.285 1.16729 6.94661 0
M  V30 1181 H 107.384 -0.318524 0.714189 0
M  V30 1182 H 109.968 -0.195378 1.93717 0
M  V30 1183 H 108.139 -2.4888 2.98183 0
M  V30 1184 H 109.871 -2.44441 3.22538 0
M  V30 1185 H 106.626 -0.994294 4.63045 0
M  V30 1186 H 107.05 0.551026 6.74754 0
M  V30 1187 H 111.692 -0.763249 4.15854 0
M  V30 1188 H 109.41 1.6251 7.91591 0
M  V30 1189 H 112.996 0.560465 5.79094 0
M  V30 1190 H 111.876 1.738 7.64698 0
M  V30 1191 N 109.379 -1.50304 -0.473955 0
M  V30 1192 C 110.627 -1.60832 -1.22382 0
M  V30 1193 C 110.948 -0.30939 -1.9253 0
M  V30 1194 O 110.218 0.67296 -1.83978 0
M  V30 1195 H 108.798 -0.592652 -0.454723 0
M  V30 1196 H 111.46 -1.87068 -0.546968 0
M  V30 1197 H 110.556 -2.41803 -1.97327 0
M  V30 1198 N 110.857 0.726932 -1.39834 0
M  V30 1199 C 111.787 1.85405 -1.41941 0
M  V30 1200 C 112.768 1.67751 -0.281728 0
M  V30 1201 O 113.953 1.8795 -0.488717 0
M  V30 1202 C 111.083 3.23243 -1.2701 0
M  V30 1203 C 110.037 3.55549 -2.38262 0
M  V30 1204 C 109.363 4.9241 -2.08415 0
M  V30 1205 C 110.663 3.577 -3.80589 0
M  V30 1206 H 112.357 1.83899 -2.36266 0
M  V30 1207 H 109.903 0.883349 -1.13723 0
M  V30 1208 H 111.856 4.01775 -1.27103 0
M  V30 1209 H 110.58 3.25296 -0.291564 0
M  V30 1210 H 109.239 2.79351 -2.37399 0
M  V30 1211 H 108.887 4.91052 -1.0898 0
M  V30 1212 H 108.587 5.14992 -2.82943 0
M  V30 1213 H 110.111 5.73289 -2.10171 0
M  V30 1214 H 111.525 4.26293 -3.83337 0
M  V30 1215 H 109.922 3.91804 -4.54543 0
M  V30 1216 H 110.992 2.57328 -4.10987 0
M  V30 1217 N 112.336 1.25143 0.95797 0
M  V30 1218 C 113.284 1.05019 2.07542 0
M  V30 1219 C 114.278 -0.0178751 1.69391 0
M  V30 1220 O 115.484 0.137472 1.79474 0
M  V30 1221 H 111.859 0.32265 0.679265 0
M  V30 1222 H 113.83 1.99759 2.21673 0
M  V30 1223 C 112.579 0.682074 3.40944 0
M  V30 1224 H 111.902 1.49573 3.70767 0
M  V30 1225 H 113.342 0.580945 4.20001 0
M  V30 1226 C 111.801 -0.611608 3.31302 0
M  V30 1227 O 112.331 -1.65465 3.66038 0
M  V30 1228 N 110.537 -0.595982 2.84423 0
M  V30 1229 H 110.084 0.253192 2.56353 0
M  V30 1230 H 110.042 -1.46173 2.78354 0
M  V30 1231 N 113.814 -1.1601 1.06675 0
M  V30 1232 C 114.744 -2.22688 0.702307 0
M  V30 1233 C 115.725 -1.67306 -0.307032 0
M  V30 1234 O 116.91 -1.93352 -0.181305 0
M  V30 1235 C 114.04 -3.47178 0.092038 0
M  V30 1236 C 112.994 -4.15477 1.02777 0
M  V30 1237 C 112.32 -5.33963 0.28061 0
M  V30 1238 C 113.62 -4.66019 2.35846 0
M  V30 1239 H 115.314 -2.53429 1.59419 0
M  V30 1240 H 112.86 -1.21813 0.767961 0
M  V30 1241 H 114.813 -4.21037 -0.174814 0
M  V30 1242 H 113.537 -3.15749 -0.834877 0
M  V30 1243 H 112.196 -3.43549 1.27944 0
M  V30 1244 H 111.844 -4.98788 -0.649545 0
M  V30 1245 H 111.544 -5.806 0.904258 0
M  V30 1246 H 113.068 -6.10596 0.021396 0
M  V30 1247 H 114.482 -5.3144 2.15045 0
M  V30 1248 H 112.879 -5.23293 2.93743 0
M  V30 1249 H 113.949 -3.82023 2.98641 0
M  V30 1250 N 115.292 -0.849877 -1.32721 0
M  V30 1251 C 116.224 -0.248332 -2.27851 0
M  V30 1252 C 117.237 0.577218 -1.52224 0
M  V30 1253 O 118.426 0.402489 -1.73903 0
M  V30 1254 C 115.526 0.668107 -3.32249 0
M  V30 1255 C 114.699 -0.120534 -4.37234 0
M  V30 1256 C 113.758 0.720932 -5.21238 0
M  V30 1257 O 112.784 0.156166 -5.68986 0
M  V30 1258 N 113.986 2.03647 -5.43607 0
M  V30 1259 H 116.751 -1.06575 -2.80111 0
M  V30 1260 H 114.312 -0.709395 -1.45531 0
M  V30 1261 H 116.304 1.23627 -3.85355 0
M  V30 1262 H 114.874 1.38621 -2.80184 0
M  V30 1263 H 114.094 -0.870108 -3.84477 0
M  V30 1264 H 115.382 -0.662406 -5.0447 0
M  V30 1265 H 114.78 2.51871 -5.06535 0
M  V30 1266 H 113.337 2.55287 -5.99727 0
M  V30 1267 N 116.77 1.45427 -0.607355 0
M  V30 1268 C 118 2.06314 -0.108656 0
M  V30 1269 C 118.408 1.45269 1.21217 0
M  V30 1270 O 117.751 0.561115 1.74921 0
M  V30 1271 C 117.813 3.59345 0.105618 0
M  V30 1272 C 117.477 4.42723 -1.13337 0
M  V30 1273 C 118.474 4.77715 -2.05145 0
M  V30 1274 C 116.159 4.83478 -1.36213 0
M  V30 1275 C 118.153 5.52317 -3.18158 0
M  V30 1276 C 115.84 5.57835 -2.49527 0
M  V30 1277 C 116.838 5.92171 -3.40327 0
M  V30 1278 O 116.526 6.65019 -4.51669 0
M  V30 1279 H 116.258 0.672782 -0.0658842 0
M  V30 1280 H 118.812 1.87664 -0.834945 0
M  V30 1281 H 117.042 3.76394 0.886796 0
M  V30 1282 H 118.731 4.02076 0.555886 0
M  V30 1283 H 119.497 4.46787 -1.88697 0
M  V30 1284 H 115.376 4.56188 -0.664362 0
M  V30 1285 H 118.92 5.79036 -3.89054 0
M  V30 1286 H 114.817 5.88177 -2.65928 0
M  V30 1287 H 115.585 6.83469 -4.50348 0
M  V30 1288 N 118.248 0.346503 1.53744 0
M  V30 1289 C 119.195 -0.508914 2.25119 0
M  V30 1290 C 120.165 -1.09315 1.25058 0
M  V30 1291 O 121.35 -1.12921 1.53797 0
M  V30 1292 C 118.49 -1.65246 3.02965 0
M  V30 1293 C 117.603 -1.09525 4.17886 0
M  V30 1294 C 116.738 -2.20634 4.83212 0
M  V30 1295 C 115.777 -1.62279 5.90196 0
M  V30 1296 N 114.914 -2.67143 6.49291 0
M  V30 1297 H 119.754 0.106283 2.9781 0
M  V30 1298 H 117.291 0.0642227 1.4696 0
M  V30 1299 H 119.249 -2.32574 3.4636 0
M  V30 1300 H 117.879 -2.2386 2.32565 0
M  V30 1301 H 116.931 -0.312818 3.79112 0
M  V30 1302 H 118.243 -0.628444 4.94825 0
M  V30 1303 H 117.397 -2.95821 5.29693 0
M  V30 1304 H 116.136 -2.70659 4.05703 0
M  V30 1305 H 115.141 -0.855989 5.43096 0
M  V30 1306 H 116.366 -1.13102 6.69615 0
M  V30 1307 H 114.312 -3.16417 5.74645 0
M  V30 1308 H 114.229 -2.25093 7.21713 0
M  V30 1309 H 115.497 -3.4209 7.00425 0
M  V30 1310 N 119.726 -1.57421 0.075193 0
M  V30 1311 C 120.972 -1.93905 -0.594025 0
M  V30 1312 C 121.305 -0.955701 -1.69056 0
M  V30 1313 O 120.58 0.0145373 -1.94495 0
M  V30 1314 C 120.863 -3.40638 -1.1678 0
M  V30 1315 C 120.716 -4.49733 -0.0776792 0
M  V30 1316 C 122.035 -3.88259 -2.07228 0
M  V30 1317 H 119.154 -0.705105 -0.214466 0
M  V30 1318 H 121.796 -1.8947 0.141854 0
M  V30 1319 H 119.946 -3.44549 -1.79494 0
M  V30 1320 H 121.618 -4.57942 0.555573 0
M  V30 1321 H 119.861 -4.29751 0.591286 0
M  V30 1322 H 120.532 -5.49549 -0.519603 0
M  V30 1323 H 123.008 -3.86376 -1.54445 0
M  V30 1324 H 121.884 -4.91533 -2.44308 0
M  V30 1325 H 122.145 -3.26396 -2.98191 0
M  V30 1326 N 121.204 0.198386 -1.56346 0
M  V30 1327 C 122.136 1.26987 -1.90806 0
M  V30 1328 C 123.149 1.41877 -0.798419 0
M  V30 1329 O 124.338 1.42362 -1.07682 0
M  V30 1330 C 121.438 2.64246 -2.12196 0
M  V30 1331 C 120.611 2.71007 -3.43328 0
M  V30 1332 C 119.67 3.89439 -3.5387 0
M  V30 1333 O 118.696 3.76695 -4.26719 0
M  V30 1334 N 119.898 5.04752 -2.86715 0
M  V30 1335 H 122.663 0.977433 -2.83313 0
M  V30 1336 H 120.224 0.388322 -1.57174 0
M  V30 1337 H 122.216 3.41896 -2.1654 0
M  V30 1338 H 120.786 2.85992 -1.26204 0
M  V30 1339 H 120.006 1.79657 -3.50881 0
M  V30 1340 H 121.294 2.72512 -4.29668 0
M  V30 1341 H 120.692 5.18004 -2.2735 0
M  V30 1342 H 119.249 5.8036 -2.96691 0
M  V30 1343 N 122.682 1.50554 0.465978 0
M  V30 1344 C 124.093 1.54599 1.04671 0
M  V30 1345 C 124.444 0.352488 1.93008 0
M  V30 1346 O 123.569 -0.534044 2.09707 0
M  V30 1347 C 124.164 2.80166 1.90505 0
M  V30 1348 C 122.723 2.86876 2.43678 0
M  V30 1349 C 121.87 2.48947 1.22151 0
M  V30 1350 H 124.821 1.56744 0.248384 0
M  V30 1351 H 124.842 2.62311 2.75633 0
M  V30 1352 H 124.354 3.67013 1.26186 0
M  V30 1353 H 122.455 2.04393 3.11536 0
M  V30 1354 H 122.568 3.89885 2.78436 0
M  V30 1355 H 120.932 2.01498 1.5579 0
M  V30 1356 H 121.715 3.38107 0.594866 0
M  V30 1357 N 124.16 -0.719506 1.40217 0
M  V30 1358 C 125.385 -1.51371 1.4178 0
M  V30 1359 C 125.81 -1.88091 0.0182355 0
M  V30 1360 O 125.168 -1.52997 -0.972707 0
M  V30 1361 C 125.216 -2.768 2.31115 0
M  V30 1362 O 124.32 -3.73349 1.7517 0
M  V30 1363 H 123.661 -0.456529 0.482159 0
M  V30 1364 H 126.191 -0.88644 1.844 0
M  V30 1365 H 126.201 -3.25371 2.46167 0
M  V30 1366 H 124.876 -2.49407 3.3282 0
M  V30 1367 H 123.453 -3.32179 1.69444 0
M  V30 1368 N 125.638 -1.25649 -0.95132 0
M  V30 1369 C 127.049 -1.09654 -1.51106 0
M  V30 1370 C 127.4 0.326615 -1.93462 0
M  V30 1371 O 126.525 1.21697 -1.78938 0
M  V30 1372 C 127.12 -1.98437 -2.74605 0
M  V30 1373 C 125.679 -1.86618 -3.2688 0
M  V30 1374 C 124.826 -1.9239 -1.99703 0
M  V30 1375 H 127.777 -1.38887 -0.767865 0
M  V30 1376 H 127.798 -1.5263 -3.48546 0
M  V30 1377 H 127.31 -3.02009 -2.43746 0
M  V30 1378 H 125.411 -0.859421 -3.62553 0
M  V30 1379 H 125.524 -2.71607 -3.94673 0
M  V30 1380 H 123.888 -1.36317 -2.15151 0
M  V30 1381 H 124.671 -2.97573 -1.71188 0
M  V30 1382 N 127.117 1.15442 -1.07289 0
M  V30 1383 C 128.394 1.82306 -0.708792 0
M  V30 1384 C 128.774 1.94991 0.808807 0
M  V30 1385 O 128.122 1.50085 1.72298 0
M  V30 1386 C 128.332 3.18695 -1.42247 0
M  V30 1387 C 129.68 3.94341 -1.57417 0
M  V30 1388 O 130.704 3.28247 -1.38319 0
M  V30 1389 O 129.563 5.12839 -1.88834 0
M  V30 1390 H 126.657 0.787628 -0.252132 0
M  V30 1391 H 129.203 1.22559 -1.17377 0
M  V30 1392 H 127.975 3.04557 -2.45684 0
M  V30 1393 H 127.598 3.86128 -0.948223 0
M  V30 1394 N 128.595 0.856903 1.32268 0
M  V30 1395 C 129.843 0.460474 1.96784 0
M  V30 1396 C 130.164 -0.987701 1.68135 0
M  V30 1397 O 129.434 -1.69058 0.989765 0
M  V30 1398 H 128.014 0.167289 0.728027 0
M  V30 1399 H 130.676 1.09383 1.61312 0
M  V30 1400 H 129.772 0.60739 3.06133 0
M  V30 1401 N 130.073 -1.45103 0.615059 0
M  V30 1402 C 131.003 -2.33339 -0.0865619 0
M  V30 1403 C 131.984 -1.4727 -0.851209 0
M  V30 1404 O 133.169 -1.76026 -0.820281 0
M  V30 1405 C 130.299 -3.30095 -1.07956 0
M  V30 1406 C 129.253 -4.25858 -0.427628 0
M  V30 1407 C 128.579 -5.12361 -1.5294 0
M  V30 1408 C 129.879 -5.18165 0.655944 0
M  V30 1409 H 131.573 -2.92254 0.650224 0
M  V30 1410 H 129.119 -1.40532 0.314138 0
M  V30 1411 H 131.072 -3.90698 -1.57901 0
M  V30 1412 H 129.796 -2.69355 -1.84703 0
M  V30 1413 H 128.455 -3.66564 0.0510292 0
M  V30 1414 H 128.103 -4.47984 -2.28734 0
M  V30 1415 H 127.803 -5.77238 -1.09865 0
M  V30 1416 H 129.327 -5.75833 -2.03098 0
M  V30 1417 H 130.741 -5.72796 0.240257 0
M  V30 1418 H 129.138 -5.91559 1.00888 0
M  V30 1419 H 130.208 -4.60144 1.52957 0
M  V30 1420 N 131.551 -0.354651 -1.53558 0
M  V30 1421 C 132.514 0.484566 -2.24019 0
M  V30 1422 C 133.514 1.01861 -1.24422 0
M  V30 1423 O 134.704 0.906097 -1.4878 0
M  V30 1424 C 131.836 1.67615 -2.96847 0
M  V30 1425 H 133.029 -0.131843 -2.9961 0
M  V30 1426 H 130.582 -0.106165 -1.55939 0
M  V30 1427 H 131.317 2.33095 -2.25471 0
M  V30 1428 H 131.102 1.30029 -3.69912 0
M  V30 1429 H 132.592 2.27114 -3.50441 0
M  V30 1430 N 133.029 1.57378 -0.0835403 0
M  V30 1431 C 133.961 2.10389 0.909338 0
M  V30 1432 C 134.974 1.03858 1.25369 0
M  V30 1433 O 136.163 1.31338 1.20882 0
M  V30 1434 C 133.263 2.55908 2.2218 0
M  V30 1435 C 132.436 3.86145 2.05453 0
M  V30 1436 C 131.495 4.17633 3.20108 0
M  V30 1437 O 130.521 4.87043 2.94581 0
M  V30 1438 N 131.723 3.72113 4.45547 0
M  V30 1439 H 134.488 2.962 0.456657 0
M  V30 1440 H 132.049 1.61579 0.101877 0
M  V30 1441 H 134.041 2.74027 2.97811 0
M  V30 1442 H 132.611 1.75171 2.58909 0
M  V30 1443 H 131.831 3.7729 1.1422 0
M  V30 1444 H 133.119 4.7137 1.91541 0
M  V30 1445 H 132.517 3.16062 4.69171 0
M  V30 1446 H 131.074 3.95409 5.18165 0
M  V30 1447 N 134.507 -0.190092 1.56449 0
M  V30 1448 C 135.47 -1.21925 1.9408 0
M  V30 1449 C 136.47 -1.38176 0.822431 0
M  V30 1450 O 137.66 -1.35903 1.08977 0
M  V30 1451 C 134.792 -2.58773 2.21922 0
M  V30 1452 H 135.985 -0.897464 2.86157 0
M  V30 1453 H 133.538 -0.43181 1.50217 0
M  V30 1454 H 134.273 -2.95998 1.32499 0
M  V30 1455 H 134.058 -2.48348 3.03424 0
M  V30 1456 H 135.548 -3.32978 2.52022 0
M  V30 1457 N 135.985 -1.50799 -0.457987 0
M  V30 1458 C 137.232 -1.62442 -1.20908 0
M  V30 1459 C 137.56 -0.330865 -1.91665 0
M  V30 1460 O 136.815 0.68401 -1.83357 0
M  V30 1461 C 137.114 -2.76358 -2.2663 0
M  V30 1462 C 136.78 -4.16378 -1.73033 0
M  V30 1463 C 135.442 -4.54473 -1.58138 0
M  V30 1464 C 137.794 -5.03836 -1.33413 0
M  V30 1465 C 135.122 -5.77754 -1.02065 0
M  V30 1466 C 137.474 -6.27676 -0.78778 0
M  V30 1467 C 136.138 -6.64562 -0.625561 0
M  V30 1468 H 135.408 -0.594417 -0.442435 0
M  V30 1469 H 138.055 -1.84772 -0.503136 0
M  V30 1470 H 136.36 -2.48167 -3.03184 0
M  V30 1471 H 138.057 -2.82568 -2.84528 0
M  V30 1472 H 134.647 -3.86331 -1.85598 0
M  V30 1473 H 138.831 -4.75026 -1.4375 0
M  V30 1474 H 134.087 -6.04997 -0.882547 0
M  V30 1475 H 138.261 -6.94797 -0.472177 0
M  V30 1476 H 135.888 -7.59965 -0.188926 0
M  V30 1477 N 137.463 0.71206 -1.40597 0
M  V30 1478 C 138.712 1.46754 -1.38369 0
M  V30 1479 C 139.025 1.95598 0.0097839 0
M  V30 1480 O 140.231 2.71059 0.154677 0
M  V30 1481 C 138.687 2.65289 -2.43207 0
M  V30 1482 C 138.295 2.23301 -3.88382 0
M  V30 1483 C 140.039 3.43008 -2.50091 0
M  V30 1484 C 137.946 3.38696 -4.84808 0
M  V30 1485 H 136.876 0.55118 -0.514506 0
M  V30 1486 H 139.527 0.774616 -1.66349 0
M  V30 1487 H 137.909 3.36769 -2.08332 0
M  V30 1488 H 139.083 1.59218 -4.32419 0
M  V30 1489 H 137.398 1.58618 -3.85006 0
M  V30 1490 H 139.995 4.28881 -3.1932 0
M  V30 1491 H 140.338 3.87065 -1.53253 0
M  V30 1492 H 140.871 2.78574 -2.83974 0
M  V30 1493 H 137.61 2.99668 -5.82992 0
M  V30 1494 H 137.13 4.01683 -4.45433 0
M  V30 1495 H 138.809 4.04712 -5.04794 0
M  V30 1496 N 138.941 1.26152 0.944643 0
M  V30 1497 C 140.19 1.10883 1.68487 0
M  V30 1498 C 140.503 -0.348153 1.92477 0
M  V30 1499 O 141.709 -0.621459 2.64292 0
M  V30 1500 C 140.165 1.93624 3.03377 0
M  V30 1501 C 139.773 3.43875 2.87148 0
M  V30 1502 C 141.517 1.86954 3.81115 0
M  V30 1503 C 139.424 4.18875 4.1749 0
M  V30 1504 H 138.354 0.41135 0.631907 0
M  V30 1505 H 141.005 1.50433 1.05082 0
M  V30 1506 H 139.387 1.46904 3.67743 0
M  V30 1507 H 140.561 3.98338 2.31653 0
M  V30 1508 H 138.876 3.51744 2.22856 0
M  V30 1509 H 141.473 2.40275 4.77673 0
M  V30 1510 H 141.816 0.839518 4.07747 0
M  V30 1511 H 142.349 2.31477 3.23517 0
M  V30 1512 H 139.088 5.22332 3.96043 0
M  V30 1513 H 138.608 3.69193 4.72712 0
M  V30 1514 H 140.287 4.27134 4.85968 0
M  V30 1515 N 140.419 -1.14872 1.07899 0
M  V30 1516 C 141.667 -1.85422 0.803941 0
M  V30 1517 C 141.988 -1.83051 -0.67211 0
M  V30 1518 O 141.258 -1.27532 -1.48703 0
M  V30 1519 H 139.838 -0.686537 0.294408 0
M  V30 1520 H 142.5 -1.39226 1.3639 0
M  V30 1521 H 141.596 -2.90399 1.14346 0
M  V30 1522 N 141.898 -0.863906 -1.31812 0
M  V30 1523 C 142.808 -0.318461 -2.32428 0
M  V30 1524 C 143.824 0.568496 -1.64451 0
M  V30 1525 O 145 0.46666 -1.95919 0
M  V30 1526 C 142.065 0.476355 -3.43412 0
M  V30 1527 C 141.126 -0.43784 -4.27061 0
M  V30 1528 C 140.359 0.319138 -5.32745 0
M  V30 1529 O 140.582 1.54799 -5.48993 0
M  V30 1530 O 139.516 -0.319861 -6.01049 0
M  V30 1531 H 143.342 -1.15229 -2.80991 0
M  V30 1532 H 140.927 -0.627103 -1.35602 0
M  V30 1533 H 142.809 0.927156 -4.11074 0
M  V30 1534 H 141.484 1.28683 -2.97022 0
M  V30 1535 H 140.391 -0.937013 -3.62175 0
M  V30 1536 H 141.724 -1.21375 -4.77 0
M  V30 1537 N 143.376 1.44774 -0.622745 0
M  V30 1538 C 144.286 2.34433 0.0886031 0
M  V30 1539 C 145.302 1.52131 0.844529 0
M  V30 1540 O 146.478 1.84886 0.798691 0
M  V30 1541 C 143.543 3.29986 1.0635 0
M  V30 1542 C 142.604 4.28195 0.307873 0
M  V30 1543 C 141.837 5.19183 1.23633 0
M  V30 1544 O 142.06 5.13918 2.47476 0
M  V30 1545 O 140.994 5.97515 0.725189 0
M  V30 1546 H 144.82 2.96693 -0.648599 0
M  V30 1547 H 142.405 1.44408 -0.382957 0
M  V30 1548 H 144.287 3.88825 1.6246 0
M  V30 1549 H 142.962 2.70269 1.78146 0
M  V30 1550 H 141.869 3.72927 -0.296064 0
M  V30 1551 H 143.202 4.90808 -0.3699 0
M  V30 1552 N 144.854 0.36279 1.53368 0
M  V30 1553 C 146.101 -0.227776 2.01215 0
M  V30 1554 C 146.429 -1.49003 1.25014 0
M  V30 1555 O 145.684 -1.92876 0.331236 0
M  V30 1556 C 145.983 -0.568417 3.52851 0
M  V30 1557 C 145.649 0.59918 4.46901 0
M  V30 1558 C 144.311 0.919559 4.72332 0
M  V30 1559 C 146.663 1.38156 5.02556 0
M  V30 1560 C 143.991 2.02434 5.5067 0
M  V30 1561 C 146.343 2.47674 5.821 0
M  V30 1562 C 145.007 2.8025 6.05819 0
M  V30 1563 H 144.277 -0.083349 0.736297 0
M  V30 1564 H 146.924 0.494677 1.85001 0
M  V30 1565 H 145.229 -1.37185 3.66998 0
M  V30 1566 H 146.926 -1.03756 3.87344 0
M  V30 1567 H 143.516 0.339437 4.27254 0
M  V30 1568 H 147.7 1.14729 4.82857 0
M  V30 1569 H 142.956 2.28075 5.67267 0
M  V30 1570 H 147.13 3.08716 6.24234 0
M  V30 1571 H 144.757 3.65979 6.66306 0
M  V30 1572 N 146.332 -1.57332 0.0918853 0
M  V30 1573 C 147.581 -1.93412 -0.572249 0
M  V30 1574 C 147.894 -0.975515 -1.69538 0
M  V30 1575 O 149.1 -1.22991 -2.42045 0
M  V30 1576 C 147.556 -3.43648 -1.0693 0
M  V30 1577 C 147.164 -4.47994 0.0239049 0
M  V30 1578 C 148.908 -3.88695 -1.70635 0
M  V30 1579 C 146.815 -5.89381 -0.488319 0
M  V30 1580 H 145.745 -0.721939 -0.217532 0
M  V30 1581 H 148.396 -1.82735 0.167369 0
M  V30 1582 H 146.778 -3.49466 -1.8625 0
M  V30 1583 H 147.952 -4.53815 0.799277 0
M  V30 1584 H 146.267 -4.12536 0.565946 0
M  V30 1585 H 148.864 -4.91725 -2.10025 0
M  V30 1586 H 149.207 -3.27166 -2.57426 0
M  V30 1587 H 149.74 -3.85564 -0.979023 0
M  V30 1588 H 146.479 -6.54602 0.342906 0
M  V30 1589 H 145.999 -5.87037 -1.23077 0
M  V30 1590 H 147.678 -6.39863 -0.958317 0
M  V30 1591 N 147.81 0.181792 -1.56548 0
M  V30 1592 C 149.058 0.89832 -1.81038 0
M  V30 1593 C 149.379 1.83232 -0.667164 0
M  V30 1594 O 148.649 1.93372 0.313673 0
M  V30 1595 H 147.229 0.33471 -0.667816 0
M  V30 1596 H 149.891 0.184116 -1.94028 0
M  V30 1597 H 148.987 1.4815 -2.74696 0
M  V30 1598 N 149.288 1.51039 0.449983 0
M  V30 1599 C 150.238 1.67824 1.54335 0
M  V30 1600 C 151.222 0.5324 1.51836 0
M  V30 1601 O 152.414 0.787762 1.58503 0
M  V30 1602 C 149.543 1.7951 2.92628 0
M  V30 1603 C 148.629 2.99838 2.9993 0
M  V30 1604 N 149.02 4.23207 2.77001 0
M  V30 1605 C 147.318 2.98832 3.31082 0
M  V30 1606 C 148.019 5.04361 2.89818 0
M  V30 1607 N 146.995 4.38746 3.2094 0
M  V30 1608 H 150.797 2.60884 1.35339 0
M  V30 1609 H 148.311 1.48513 0.657085 0
M  V30 1610 H 150.308 1.89642 3.7127 0
M  V30 1611 H 148.968 0.876227 3.12654 0
M  V30 1612 H 149.979 4.5236 2.52172 0
M  V30 1613 H 146.656 2.16527 3.56963 0
M  V30 1614 H 148.046 6.12528 2.76151 0
M  V30 1615 N 150.766 -0.704594 1.40972 0
M  V30 1616 C 152.043 -1.45847 1.30338 0
M  V30 1617 C 152.423 -2.10973 -0.0732344 0
M  V30 1618 O 151.771 -2.00997 -1.08685 0
M  V30 1619 C 151.981 -2.48525 2.45023 0
M  V30 1620 C 153.329 -3.1404 2.8577 0
M  V30 1621 O 154.353 -2.58848 2.44696 0
M  V30 1622 O 153.212 -4.13981 3.56766 0
M  V30 1623 H 150.306 -0.649092 0.512454 0
M  V30 1624 H 152.852 -0.735836 1.52917 0
M  V30 1625 H 151.624 -1.98994 3.36923 0
M  V30 1626 H 151.247 -3.2831 2.24272 0
M  V30 1627 N 152.244 -1.26651 -0.937939 0
M  V30 1628 C 153.521 -1.0313 -1.66204 0
M  V30 1629 C 153.901 0.437256 -2.06522 0
M  V30 1630 O 153.249 1.41831 -1.79154 0
M  V30 1631 C 153.459 -1.98314 -2.87181 0
M  V30 1632 C 154.807 -2.27107 -3.58758 0
M  V30 1633 O 155.831 -1.96205 -2.97291 0
M  V30 1634 O 154.69 -2.79736 -4.69479 0
M  V30 1635 H 151.784 -0.392384 -0.727986 0
M  V30 1636 H 154.33 -1.37874 -0.989382 0
M  V30 1637 H 153.102 -2.97399 -2.54302 0
M  V30 1638 H 152.725 -1.64068 -3.6217 0
M  V30 1639 N 153.722 1.14298 -1.08507 0
M  V30 1640 C 154.962 1.87016 -0.824894 0
M  V30 1641 C 155.326 1.81099 0.637735 0
M  V30 1642 O 156.527 2.48963 1.01345 0
M  V30 1643 C 154.798 3.31584 -1.33368 0
M  V30 1644 S 156.357 4.21903 -1.20596 0
M  V30 1645 H 153.175 0.645259 -0.2986 0
M  V30 1646 H 155.777 1.37822 -1.38656 0
M  V30 1647 H 154.481 3.33439 -2.39262 0
M  V30 1648 H 154.012 3.85836 -0.767734 0
M  V30 1649 H 156.027 4.95971 -0.150891 0
M  V30 1650 N 155.201 0.870884 1.31352 0
M  V30 1651 C 156.164 0.332243 2.26779 0
M  V30 1652 C 157.164 -0.517302 1.52252 0
M  V30 1653 O 158.354 -0.326477 1.71113 0
M  V30 1654 C 155.486 -0.528066 3.36785 0
M  V30 1655 H 156.679 1.17469 2.75937 0
M  V30 1656 H 154.232 0.64655 1.423 0
M  V30 1657 H 154.967 -1.39167 2.92922 0
M  V30 1658 H 154.752 0.0802582 3.92018 0
M  V30 1659 H 156.242 -0.897179 4.07849 0
M  V30 1660 N 156.679 -1.44442 0.630414 0
M  V30 1661 C 157.609 -2.33418 -0.0618083 0
M  V30 1662 C 158.59 -1.48165 -0.835541 0
M  V30 1663 O 159.775 -1.76886 -0.801564 0
M  V30 1664 C 156.905 -3.31222 -1.04449 0
M  V30 1665 C 155.859 -4.26288 -0.382436 0
M  V30 1666 C 155.185 -5.13954 -1.47497 0
M  V30 1667 C 156.485 -5.1744 0.710865 0
M  V30 1668 H 158.179 -2.91548 0.681184 0
M  V30 1669 H 155.725 -1.40191 0.329026 0
M  V30 1670 H 157.678 -3.92351 -1.53748 0
M  V30 1671 H 156.402 -2.71299 -1.81836 0
M  V30 1672 H 155.061 -3.6649 0.0899054 0
M  V30 1673 H 154.709 -4.50385 -2.2397 0
M  V30 1674 H 154.409 -5.7837 -1.03737 0
M  V30 1675 H 155.933 -5.77955 -1.96979 0
M  V30 1676 H 157.347 -5.72509 0.300996 0
M  V30 1677 H 155.744 -5.90455 1.07156 0
M  V30 1678 H 156.814 -4.58496 1.57829 0
M  V30 1679 N 158.157 -0.370918 -1.53173 0
M  V30 1680 C 159.403 0.217423 -2.01631 0
M  V30 1681 C 159.736 1.47983 -1.25756 0
M  V30 1682 O 159.011 1.91274 -0.352764 0
M  V30 1683 C 159.294 0.503982 -3.56556 0
M  V30 1684 C 159.147 -0.77243 -4.43118 0
M  V30 1685 C 160.466 1.30234 -4.20389 0
M  V30 1686 H 157.585 0.0775486 -0.732909 0
M  V30 1687 H 160.227 -0.496863 -1.83388 0
M  V30 1688 H 158.377 1.11248 -3.72231 0
M  V30 1689 H 160.049 -1.4098 -4.39229 0
M  V30 1690 H 158.292 -1.39167 -4.10871 0
M  V30 1691 H 158.963 -0.526815 -5.4948 0
M  V30 1692 H 161.439 0.787546 -4.08579 0
M  V30 1693 H 160.315 1.47158 -5.28806 0
M  V30 1694 H 160.576 2.31237 -3.76805 0
M  V30 1695 N 159.635 1.57281 -0.100228 0
M  V30 1696 C 160.565 2.17328 0.853857 0
M  V30 1697 C 161.546 1.10804 1.2906 0
M  V30 1698 O 162.731 1.38963 1.35657 0
M  V30 1699 C 159.861 2.75772 2.11109 0
M  V30 1700 C 158.815 3.87713 1.81279 0
M  V30 1701 C 158.141 4.32882 3.13874 0
M  V30 1702 C 159.441 5.10677 1.09574 0
M  V30 1703 H 161.135 2.97305 0.353545 0
M  V30 1704 H 158.681 1.43009 0.168612 0
M  V30 1705 H 160.634 3.16433 2.78296 0
M  V30 1706 H 159.358 1.93057 2.63432 0
M  V30 1707 H 158.017 3.476 1.16489 0
M  V30 1708 H 157.665 3.47051 3.64095 0
M  V30 1709 H 157.365 5.08358 2.94696 0
M  V30 1710 H 158.889 4.7618 3.82211 0
M  V30 1711 H 160.303 5.48474 1.66879 0
M  V30 1712 H 158.7 5.91615 1.00557 0
M  V30 1713 H 159.77 4.84835 0.0793299 0
M  V30 1714 N 161.113 -0.173488 1.56642 0
M  V30 1715 C 162.361 -0.888706 1.81512 0
M  V30 1716 C 162.682 -1.82875 0.676872 0
M  V30 1717 O 161.952 -1.93536 -0.303414 0
M  V30 1718 H 160.532 -0.331164 0.669582 0
M  V30 1719 H 163.194 -0.173823 1.94123 0
M  V30 1720 H 162.29 -1.46691 2.75478 0
M  V30 1721 N 162.591 -1.51276 -0.441967 0
M  V30 1722 C 163.868 -1.54252 -1.20273 0
M  V30 1723 C 164.248 -0.30408 -2.08898 0
M  V30 1724 O 163.596 0.711084 -2.17154 0
M  V30 1725 C 163.806 -2.85406 -2.00859 0
M  V30 1726 C 165.154 -3.37181 -2.58059 0
M  V30 1727 O 166.178 -2.86925 -2.11074 0
M  V30 1728 O 165.037 -4.24858 -3.43741 0
M  V30 1729 H 162.131 -0.619969 -0.547328 0
M  V30 1730 H 164.677 -1.63586 -0.451413 0
M  V30 1731 H 163.449 -3.67003 -1.35736 0
M  V30 1732 H 163.072 -2.79213 -2.83065 0
M  V30 1733 N 164.069 0.697108 -1.41344 0
M  V30 1734 C 165.017 1.83237 -1.43272 0
M  V30 1735 C 166.011 1.66522 -0.310947 0
M  V30 1736 O 167.217 1.73402 -0.482899 0
M  V30 1737 H 163.592 0.603802 -0.448249 0
M  V30 1738 H 165.563 1.78727 -2.38954 0
M  V30 1739 C 164.312 3.21245 -1.33029 0
M  V30 1740 H 163.635 3.34723 -2.18633 0
M  V30 1741 H 165.075 4.00763 -1.38439 0
M  V30 1742 C 163.534 3.36873 -0.0424635 0
M  V30 1743 O 164.064 3.91177 0.913421 0
M  V30 1744 N 162.27 2.90581 0.0331145 0
M  V30 1745 H 161.817 2.46577 -0.745506 0
M  V30 1746 H 161.775 3.01416 0.894199 0
M  V30 1747 N 165.547 1.27147 0.931209 0
M  V30 1748 C 166.796 1.12664 1.67302 0
M  V30 1749 C 167.109 -0.327718 1.92835 0
M  V30 1750 O 168.315 -0.593392 2.64936 0
M  V30 1751 C 166.771 1.9683 3.01307 0
M  V30 1752 C 166.379 3.46901 2.83485 0
M  V30 1753 C 168.123 1.90985 3.79111 0
M  V30 1754 C 166.03 4.23279 4.13024 0
M  V30 1755 H 164.96 0.41803 0.627509 0
M  V30 1756 H 167.611 1.51539 1.03481 0
M  V30 1757 H 165.993 1.50797 3.66164 0
M  V30 1758 H 167.167 4.00773 2.27415 0
M  V30 1759 H 165.482 3.54088 2.19113 0
M  V30 1760 H 168.079 2.45328 4.75098 0
M  V30 1761 H 168.422 0.882718 4.06834 0
M  V30 1762 H 168.955 2.34895 3.21044 0
M  V30 1763 H 165.694 5.26503 3.90481 0
M  V30 1764 H 165.214 3.74186 4.6877 0
M  V30 1765 H 166.893 4.32265 4.81411 0
M  V30 1766 N 167.025 -1.13721 1.09112 0
M  V30 1767 C 168.272 -1.84924 0.825192 0
M  V30 1768 C 168.6 -1.83347 -0.649151 0
M  V30 1769 O 167.855 -1.26449 -1.49362 0
M  V30 1770 C 168.154 -3.32861 1.30146 0
M  V30 1771 C 167.82 -3.54621 2.78486 0
M  V30 1772 C 166.482 -3.60268 3.18999 0
M  V30 1773 C 168.834 -3.62855 3.74146 0
M  V30 1774 C 166.162 -3.71679 4.53951 0
M  V30 1775 C 168.514 -3.75793 5.08883 0
M  V30 1776 C 167.178 -3.79692 5.4899 0
M  V30 1777 H 166.448 -0.676684 0.301959 0
M  V30 1778 H 169.095 -1.3428 1.36533 0
M  V30 1779 H 167.4 -3.85835 0.681064 0
M  V30 1780 H 169.097 -3.86395 1.07236 0
M  V30 1781 H 165.687 -3.50879 2.46134 0
M  V30 1782 H 169.871 -3.57775 3.43963 0
M  V30 1783 H 165.127 -3.72963 4.84467 0
M  V30 1784 H 169.301 -3.81107 5.82864 0
M  V30 1785 H 166.928 -3.88287 6.53558 0
M  V30 1786 N 168.503 -0.877838 -1.30888 0
M  V30 1787 C 169.733 -0.506678 -2.00291 0
M  V30 1788 C 170.141 0.907449 -1.66018 0
M  V30 1789 O 169.484 1.60719 -0.88967 0
M  V30 1790 C 169.546 -0.59323 -3.54572 0
M  V30 1791 C 169.21 -1.97038 -4.12341 0
M  V30 1792 C 170.207 -2.93889 -4.28865 0
M  V30 1793 C 167.892 -2.27383 -4.47886 0
M  V30 1794 C 169.886 -4.19224 -4.80136 0
M  V30 1795 C 167.573 -3.52965 -4.98857 0
M  V30 1796 C 168.571 -4.48701 -5.14934 0
M  V30 1797 O 168.259 -5.72056 -5.64808 0
M  V30 1798 H 167.991 -0.1951 -0.647234 0
M  V30 1799 H 170.545 -1.18301 -1.6791 0
M  V30 1800 H 168.775 0.140057 -3.86446 0
M  V30 1801 H 170.464 -0.234372 -4.05223 0
M  V30 1802 H 171.23 -2.71756 -4.01714 0
M  V30 1803 H 167.109 -1.53639 -4.34645 0
M  V30 1804 H 170.653 -4.93956 -4.92599 0
M  V30 1805 H 166.55 -3.74939 -5.25443 0
M  V30 1806 H 167.318 -5.74337 -5.83163 0
M  V30 1807 N 169.982 1.44106 -0.638065 0
M  V30 1808 C 171.23 2.01579 -0.145043 0
M  V30 1809 C 171.551 1.50496 1.24 0
M  V30 1810 O 170.821 0.711374 1.82527 0
M  V30 1811 H 169.401 0.745282 -0.05063 0
M  V30 1812 H 172.063 1.76516 -0.826327 0
M  V30 1813 H 171.159 3.11877 -0.118039 0
M  V30 1814 N 171.46 0.379036 1.52974 0
M  V30 1815 C 172.41 -0.477772 2.22938 0
M  V30 1816 C 173.394 -1.03792 1.22948 0
M  V30 1817 O 174.586 -0.965725 1.48333 0
M  V30 1818 C 171.715 -1.60994 3.03209 0
M  V30 1819 C 170.801 -1.06203 4.10587 0
M  V30 1820 N 171.192 -0.238214 5.05239 0
M  V30 1821 C 169.49 -1.33554 4.25534 0
M  V30 1822 C 170.191 0.0633235 5.81666 0
M  V30 1823 N 169.167 -0.537901 5.40932 0
M  V30 1824 H 172.969 0.158295 2.93473 0
M  V30 1825 H 170.483 0.187778 1.61311 0
M  V30 1826 H 172.48 -2.23607 3.5186 0
M  V30 1827 H 171.14 -2.24893 2.34207 0
M  V30 1828 H 172.151 0.123695 5.17752 0
M  V30 1829 H 168.828 -1.97632 3.6776 0
M  V30 1830 H 170.218 0.730161 6.67921 0
M  V30 1831 N 172.938 -1.57226 0.108567 0
M  V30 1832 C 174.215 -1.86333 -0.594939 0
M  V30 1833 C 174.595 -1.00788 -1.85486 0
M  V30 1834 O 173.943 -0.0839293 -2.28346 0
M  V30 1835 C 174.153 -3.37265 -0.897405 0
M  V30 1836 C 175.501 -4.05629 -1.25501 0
M  V30 1837 O 176.525 -3.42224 -0.987998 0
M  V30 1838 O 175.384 -5.17531 -1.75567 0
M  V30 1839 H 172.478 -0.771018 -0.2991 0
M  V30 1840 H 175.024 -1.69102 0.142283 0
M  V30 1841 H 173.796 -3.913 -0.00413806 0
M  V30 1842 H 173.419 -3.59889 -1.69014 0
M  V30 1843 N 174.416 0.165178 -1.56732 0
M  V30 1844 C 175.346 1.20651 -1.99914 0
M  V30 1845 C 176.327 1.45827 -0.875705 0
M  V30 1846 O 177.512 1.57057 -1.14223 0
M  V30 1847 C 174.642 2.54401 -2.36427 0
M  V30 1848 C 173.596 2.43782 -3.51787 0
M  V30 1849 C 172.922 3.82078 -3.7406 0
M  V30 1850 C 174.222 1.93732 -4.85041 0
M  V30 1851 H 175.916 0.847534 -2.87154 0
M  V30 1852 H 173.462 0.40625 -1.38151 0
M  V30 1853 H 175.415 3.27458 -2.65234 0
M  V30 1854 H 174.139 2.92098 -1.46103 0
M  V30 1855 H 172.798 1.73178 -3.23117 0
M  V30 1856 H 172.446 4.17179 -2.81017 0
M  V30 1857 H 172.146 3.7584 -4.51684 0
M  V30 1858 H 173.67 4.56712 -4.05274 0
M  V30 1859 H 175.084 2.56569 -5.12684 0
M  V30 1860 H 173.481 1.98428 -5.66345 0
M  V30 1861 H 174.551 0.891962 -4.76626 0
M  V30 1862 N 175.894 1.51508 0.433938 0
M  V30 1863 C 177.305 1.56784 1.01369 0
M  V30 1864 C 177.656 0.393349 1.92217 0
M  V30 1865 O 176.781 -0.489441 2.10792 0
M  V30 1866 C 177.376 2.84144 1.8452 0
M  V30 1867 C 175.935 2.9198 2.37539 0
M  V30 1868 C 175.082 2.51482 1.16843 0
M  V30 1869 H 178.033 1.57236 0.215081 0
M  V30 1870 H 178.054 2.68098 2.70007 0
M  V30 1871 H 177.566 3.69607 1.18373 0
M  V30 1872 H 175.667 2.10955 3.0713 0
M  V30 1873 H 175.78 3.95704 2.70103 0
M  V30 1874 H 174.144 2.04758 1.51481 0
M  V30 1875 H 174.927 3.39293 0.523015 0
M  V30 1876 N 177.372 -0.689602 1.41712 0
M  V30 1877 C 178.319 -1.80345 1.44029 0
M  V30 1878 C 179.289 -1.63478 0.293948 0
M  V30 1879 O 180.474 -1.84244 0.495869 0
M  V30 1880 C 177.614 -3.18272 1.33405 0
M  V30 1881 C 176.727 -3.46529 2.57956 0
M  V30 1882 C 175.862 -4.74103 2.39582 0
M  V30 1883 C 174.901 -4.95347 3.5958 0
M  V30 1884 N 174.038 -6.14151 3.40239 0
M  V30 1885 H 178.878 -1.77698 2.39222 0
M  V30 1886 H 176.415 -0.867688 1.18784 0
M  V30 1887 H 178.373 -3.97956 1.25246 0
M  V30 1888 H 177.003 -3.2008 0.418164 0
M  V30 1889 H 176.055 -2.61207 2.76542 0
M  V30 1890 H 177.367 -3.58126 3.47199 0
M  V30 1891 H 176.521 -5.61853 2.28924 0
M  V30 1892 H 175.26 -4.64763 1.47805 0
M  V30 1893 H 174.265 -4.06044 3.70686 0
M  V30 1894 H 175.49 -5.06542 4.52318 0
M  V30 1895 H 173.436 -6.06013 2.51167 0
M  V30 1896 H 173.353 -6.26543 4.23061 0
M  V30 1897 H 174.621 -7.04619 3.33365 0
M  V30 1898 N 178.85 -1.27639 -0.924453 0
M  V30 1899 C 179.78 -1.13166 -2.04244 0
M  V30 1900 C 180.761 -0.032256 -1.70069 0
M  V30 1901 O 181.946 -0.207328 -1.9309 0
M  V30 1902 C 179.076 -0.781496 -3.38393 0
M  V30 1903 C 178.03 -1.83449 -3.86692 0
M  V30 1904 C 177.356 -1.33822 -5.17683 0
M  V30 1905 C 178.656 -3.23917 -4.09726 0
M  V30 1906 H 180.35 -2.06689 -2.1661 0
M  V30 1907 H 177.896 -0.995136 -1.04082 0
M  V30 1908 H 179.849 -0.667057 -4.16087 0
M  V30 1909 H 178.573 0.189439 -3.2605 0
M  V30 1910 H 177.232 -1.93789 -3.11193 0
M  V30 1911 H 176.88 -0.35665 -5.01734 0
M  V30 1912 H 176.58 -2.04224 -5.50968 0
M  V30 1913 H 178.104 -1.23679 -5.97943 0
M  V30 1914 H 179.518 -3.16559 -4.77978 0
M  V30 1915 H 177.915 -3.92059 -4.54324 0
M  V30 1916 H 178.985 -3.68729 -3.14908 0
M  V30 1917 N 180.328 1.1314 -1.09713 0
M  V30 1918 C 181.261 2.17735 -0.683137 0
M  V30 1919 C 182.239 1.59582 0.311841 0
M  V30 1920 O 183.423 1.87298 0.212514 0
M  V30 1921 C 180.55 3.38699 -0.00684324 0
M  V30 1922 C 179.596 4.1546 -0.964102 0
M  V30 1923 S 180.429 4.74733 -2.47767 0
M  V30 1924 C 181.585 5.9904 -1.81387 0
M  V30 1925 H 181.818 2.52515 -1.56918 0
M  V30 1926 H 179.351 1.24484 -0.913404 0
M  V30 1927 H 181.309 4.08765 0.377044 0
M  V30 1928 H 179.97 3.02214 0.85589 0
M  V30 1929 H 179.163 5.02093 -0.43803 0
M  V30 1930 H 178.765 3.51066 -1.28953 0
M  V30 1931 H 181.057 6.67846 -1.13967 0
M  V30 1932 H 182 6.56261 -2.65947 0
M  V30 1933 H 182.408 5.4976 -1.28155 0
M  V30 1934 N 181.806 0.884767 1.30421 0
M  V30 1935 C 182.716 0.355398 2.31892 0
M  V30 1936 C 183.732 -0.542261 1.65335 0
M  V30 1937 O 184.908 -0.435432 1.96637 0
M  V30 1938 C 181.973 -0.421661 3.44126 0
M  V30 1939 C 181.034 0.505727 4.26311 0
M  V30 1940 C 180.267 -0.234343 5.33185 0
M  V30 1941 O 180.49 -1.46045 5.51386 0
M  V30 1942 O 179.424 0.415443 6.00465 0
M  V30 1943 H 183.25 1.19685 2.79122 0
M  V30 1944 H 180.835 0.648596 1.34587 0
M  V30 1945 H 182.717 -0.861641 4.12497 0
M  V30 1946 H 181.392 -1.23942 2.99032 0
M  V30 1947 H 180.299 0.994513 3.60639 0
M  V30 1948 H 181.632 1.28948 4.75009 0
M  V30 1949 N 183.284 -1.43765 0.645699 0
M  V30 1950 C 184.247 -2.29163 -0.0409488 0
M  V30 1951 C 185.247 -1.41813 -0.757996 0
M  V30 1952 O 186.437 -1.63527 -0.600382 0
M  V30 1953 C 183.569 -3.23716 -1.06869 0
M  V30 1954 H 184.762 -2.91366 0.710345 0
M  V30 1955 H 182.315 -1.5092 0.406547 0
M  V30 1956 H 183.05 -2.66393 -1.84947 0
M  V30 1957 H 182.835 -3.88105 -0.558277 0
M  V30 1958 H 184.325 -3.87831 -1.54845 0
M  V30 1959 N 184.763 -0.387143 -1.52771 0
M  V30 1960 C 185.726 0.436939 -2.24997 0
M  V30 1961 C 186.726 0.991991 -1.26555 0
M  V30 1962 O 187.916 0.874335 -1.50669 0
M  V30 1963 C 185.048 1.61281 -3.00335 0
M  V30 1964 H 186.241 -0.195365 -2.99263 0
M  V30 1965 H 183.794 -0.139218 -1.55679 0
M  V30 1966 H 184.529 2.2826 -2.30364 0
M  V30 1967 H 184.314 1.22154 -3.72587 0
M  V30 1968 H 185.804 2.19629 -3.5518 0
M  V30 1969 N 186.241 1.57166 -0.116904 0
M  V30 1970 C 187.487 1.95412 0.542405 0
M  V30 1971 C 187.82 1.00019 1.66463 0
M  V30 1972 O 187.095 0.0370346 1.94465 0
M  V30 1973 C 187.378 3.43615 1.07708 0
M  V30 1974 C 187.231 4.49781 -0.0415868 0
M  V30 1975 C 188.55 3.93616 1.96861 0
M  V30 1976 H 185.669 0.710543 0.195696 0
M  V30 1977 H 188.311 1.89027 -0.192038 0
M  V30 1978 H 186.461 3.49187 1.70296 0
M  V30 1979 H 188.133 4.56308 -0.676793 0
M  V30 1980 H 186.376 4.28033 -0.705019 0
M  V30 1981 H 187.047 5.50733 0.373717 0
M  V30 1982 H 189.523 3.90335 1.44146 0
M  V30 1983 H 188.399 4.97838 2.3119 0
M  V30 1984 H 188.66 3.34188 2.89432 0
M  V30 1985 N 187.719 -0.156864 1.56817 0
M  V30 1986 C 188.667 -1.21319 1.98455 0
M  V30 1987 C 189.661 -1.45025 0.875444 0
M  V30 1988 O 190.867 -1.45435 1.0606 0
M  V30 1989 H 187.242 -0.408142 0.631605 0
M  V30 1990 H 189.213 -0.835244 2.86472 0
M  V30 1991 C 187.962 -2.54148 2.37285 0
M  V30 1992 H 187.285 -2.36733 3.22176 0
M  V30 1993 H 188.725 -3.26712 2.70251 0
M  V30 1994 C 187.184 -3.13967 1.22173 0
M  V30 1995 O 187.714 -3.98357 0.517149 0
M  V30 1996 N 185.92 -2.7327 0.988536 0
M  V30 1997 H 185.467 -2.04744 1.56326 0
M  V30 1998 H 185.425 -3.13628 0.220209 0
M  V30 1999 N 189.197 -1.51736 -0.425897 0
M  V30 2000 C 190.144 -1.73875 -1.51776 0
M  V30 2001 C 191.114 -0.580702 -1.55618 0
M  V30 2002 O 192.299 -0.81641 -1.72451 0
M  V30 2003 C 189.439 -1.88012 -2.89388 0
M  V30 2004 C 188.552 -3.15606 -2.94986 0
M  V30 2005 C 187.687 -3.20271 -4.23793 0
M  V30 2006 C 186.726 -4.42134 -4.23302 0
M  V30 2007 N 185.863 -4.44284 -5.43651 0
M  V30 2008 H 190.703 -2.67071 -1.32201 0
M  V30 2009 H 188.24 -1.32351 -0.642008 0
M  V30 2010 H 190.198 -1.9419 -3.69251 0
M  V30 2011 H 188.828 -0.98213 -3.07496 0
M  V30 2012 H 187.88 -3.18681 -2.07717 0
M  V30 2013 H 189.192 -4.05486 -2.90486 0
M  V30 2014 H 188.346 -3.25428 -5.12036 0
M  V30 2015 H 187.085 -2.28299 -4.30965 0
M  V30 2016 H 186.09 -4.3714 -3.3345 0
M  V30 2017 H 187.315 -5.35382 -4.17783 0
M  V30 2018 H 185.261 -3.55188 -5.51523 0
M  V30 2019 H 185.178 -5.27988 -5.41078 0
M  V30 2020 H 186.446 -4.53649 -6.33895 0
M  V30 2021 N 190.675 0.682077 -1.42076 0
M  V30 2022 C 191.585 1.82535 -1.47371 0
M  V30 2023 C 192.601 1.7017 -0.363079 0
M  V30 2024 O 193.777 1.91848 -0.612875 0
M  V30 2025 C 190.842 3.18624 -1.36674 0
M  V30 2026 C 189.903 3.42999 -2.58167 0
M  V30 2027 C 189.136 4.72595 -2.4797 0
M  V30 2028 O 189.359 5.50006 -1.5116 0
M  V30 2029 O 188.293 4.98054 -3.37974 0
M  V30 2030 H 192.119 1.81023 -2.43853 0
M  V30 2031 H 189.704 0.836887 -1.2376 0
M  V30 2032 H 191.586 3.99847 -1.33043 0
M  V30 2033 H 190.261 3.20789 -0.433138 0
M  V30 2034 H 189.168 2.61653 -2.67373 0
M  V30 2035 H 190.501 3.45659 -3.50401 0
M  V30 2036 N 192.153 1.28127 0.917671 0
M  V30 2037 C 193.378 1.18007 1.70555 0
M  V30 2038 C 193.803 -0.258257 1.86319 0
M  V30 2039 O 193.161 -1.1869 1.37049 0
M  V30 2040 C 193.209 1.87948 3.07746 0
M  V30 2041 O 192.313 1.18427 3.9503 0
M  V30 2042 H 191.654 0.409867 0.522403 0
M  V30 2043 H 194.184 1.69379 1.1477 0
M  V30 2044 H 194.194 1.95701 3.58001 0
M  V30 2045 H 192.869 2.92573 2.95591 0
M  V30 2046 H 191.446 1.18811 3.53466 0
M  V30 2047 N 193.631 -1.12557 1.10312 0
M  V30 2048 C 194.879 -1.83675 0.843091 0
M  V30 2049 C 195.2 -1.84435 -0.633131 0
M  V30 2050 O 194.47 -1.30657 -1.45964 0
M  V30 2051 H 193.05 -0.680138 0.308904 0
M  V30 2052 H 195.712 -1.36301 1.39313 0
M  V30 2053 H 194.808 -2.87908 1.2048 0
M  V30 2054 N 195.109 -0.891671 -1.2995 0
M  V30 2055 C 196.072 -0.36828 -2.26222 0
M  V30 2056 C 197.072 0.493014 -1.53056 0
M  V30 2057 O 198.262 0.299213 -1.71611 0
M  V30 2058 C 195.394 0.47442 -3.37583 0
M  V30 2059 H 196.587 -1.21844 -2.74033 0
M  V30 2060 H 194.14 -0.669107 -1.41254 0
M  V30 2061 H 194.875 1.34489 -2.95099 0
M  V30 2062 H 194.66 -0.142615 -3.91841 0
M  V30 2063 H 196.15 0.83218 -4.09224 0
M  V30 2064 N 196.587 1.43421 -0.653314 0
M  V30 2065 C 197.815 2.06163 -0.174491 0
M  V30 2066 C 198.23 1.48969 1.1599 0
M  V30 2067 O 197.587 0.621042 1.71608 0
M  V30 2068 C 197.638 3.61417 -0.0774865 0
M  V30 2069 O 197.359 4.16485 -1.35912 0
M  V30 2070 C 198.86 4.41235 0.427402 0
M  V30 2071 H 196.08 0.664946 -0.0899353 0
M  V30 2072 H 198.624 1.83924 -0.893988 0
M  V30 2073 H 196.779 3.82841 0.59257 0
M  V30 2074 H 197.193 5.10153 -1.21839 0
M  V30 2075 H 198.667 5.5021 0.44423 0
M  V30 2076 H 199.144 4.14268 1.45873 0
M  V30 2077 H 199.75 4.2478 -0.210167 0
M  V30 2078 N 198.065 0.39524 1.52563 0
M  V30 2079 C 199.311 -0.185318 2.01952 0
M  V30 2080 C 199.644 -1.45964 1.28095 0
M  V30 2081 O 198.919 -1.90689 0.38315 0
M  V30 2082 C 199.202 -0.447193 3.57312 0
M  V30 2083 C 199.055 0.842828 4.41833 0
M  V30 2084 C 200.374 -1.23529 4.22408 0
M  V30 2085 H 197.493 -0.0658788 0.73405 0
M  V30 2086 H 200.135 0.525975 1.82575 0
M  V30 2087 H 198.285 -1.05312 3.73954 0
M  V30 2088 H 199.957 1.4795 4.36931 0
M  V30 2089 H 198.2 1.45686 4.08605 0
M  V30 2090 H 198.871 0.614165 5.48573 0
M  V30 2091 H 201.347 -0.722445 4.0978 0
M  V30 2092 H 200.223 -1.38727 5.3108 0
M  V30 2093 H 200.484 -2.25213 3.80436 0
M  V30 2094 N 199.544 -1.57102 0.125237 0
M  V30 2095 C 200.791 -1.95407 -0.531248 0
M  V30 2096 C 201.119 -1.0089 -1.66287 0
M  V30 2097 O 200.374 -0.0339431 -1.95671 0
M  V30 2098 C 200.673 -3.40096 -1.09862 0
M  V30 2099 C 200.339 -4.50815 -0.0876989 0
M  V30 2100 C 199.001 -4.80824 0.19026 0
M  V30 2101 C 201.353 -5.17724 0.600902 0
M  V30 2102 C 198.681 -5.75058 1.163 0
M  V30 2103 C 201.033 -6.13005 1.56231 0
M  V30 2104 C 199.697 -6.41403 1.8482 0
M  V30 2105 H 198.967 -0.715046 -0.194397 0
M  V30 2106 H 201.614 -1.90373 0.207463 0
M  V30 2107 H 199.919 -3.41855 -1.91422 0
M  V30 2108 H 201.616 -3.6705 -1.61478 0
M  V30 2109 H 198.206 -4.27444 -0.314528 0
M  V30 2110 H 202.39 -4.94691 0.399333 0
M  V30 2111 H 197.646 -5.95362 1.39117 0
M  V30 2112 H 201.82 -6.63934 2.10153 0
M  V30 2113 H 199.447 -7.14229 2.60349 0
M  V30 2114 N 201.022 0.148545 -1.56898 0
M  V30 2115 C 201.985 1.16736 -1.97244 0
M  V30 2116 C 202.985 1.35947 -0.858777 0
M  V30 2117 O 204.175 1.32966 -1.12542 0
M  V30 2118 C 201.307 2.52798 -2.28705 0
M  V30 2119 H 202.5 0.821279 -2.88435 0
M  V30 2120 H 200.053 0.391831 -1.51309 0
M  V30 2121 H 200.788 2.92381 -1.403 0
M  V30 2122 H 200.573 2.40216 -3.09901 0
M  V30 2123 H 202.063 3.26179 -2.60762 0
M  V30 2124 N 202.5 1.5196 0.417844 0
M  V30 2125 C 203.73 1.69181 1.18581 0
M  V30 2126 C 204.138 0.397104 1.84986 0
M  V30 2127 O 203.481 -0.636011 1.72339 0
M  V30 2128 C 203.543 2.76497 2.29759 0
M  V30 2129 C 203.207 4.18514 1.83563 0
M  V30 2130 C 204.204 5.02648 1.32821 0
M  V30 2131 C 201.889 4.64708 1.90661 0
M  V30 2132 C 203.883 6.31044 0.897894 0
M  V30 2133 C 201.57 5.93096 1.47241 0
M  V30 2134 C 202.568 6.76093 0.968891 0
M  V30 2135 O 202.256 8.02078 0.540924 0
M  V30 2136 H 201.988 0.570457 0.362705 0
M  V30 2137 H 204.542 1.99249 0.498885 0
M  V30 2138 H 202.772 2.41786 3.01789 0
M  V30 2139 H 204.461 2.82403 2.91553 0
M  V30 2140 H 205.227 4.68154 1.26716 0
M  V30 2141 H 201.106 4.00216 2.28797 0
M  V30 2142 H 204.65 6.95776 0.504192 0
M  V30 2143 H 200.547 6.271 1.53022 0
M  V30 2144 H 201.315 8.15794 0.66502 0
M  V30 2145 N 203.978 -0.674533 1.42435 0
M  V30 2146 C 204.928 -1.7807 1.4239 0
M  V30 2147 C 205.912 -1.58169 0.295202 0
M  V30 2148 O 207.104 -1.68643 0.537449 0
M  V30 2149 C 204.233 -3.16532 1.32901 0
M  V30 2150 C 203.319 -3.42055 2.50717 0
M  V30 2151 N 203.71 -3.38162 3.76139 0
M  V30 2152 C 202.008 -3.72692 2.44983 0
M  V30 2153 C 202.709 -3.63177 4.54398 0
M  V30 2154 N 201.685 -3.83954 3.84812 0
M  V30 2155 H 205.487 -1.73454 2.37257 0
M  V30 2156 H 203.001 -0.875381 1.36788 0
M  V30 2157 H 204.998 -3.958 1.30951 0
M  V30 2158 H 203.658 -3.22345 0.390363 0
M  V30 2159 H 204.669 -3.18057 4.0873 0
M  V30 2160 H 201.346 -3.85749 1.59699 0
M  V30 2161 H 202.736 -3.66125 5.63384 0
M  V30 2162 N 205.456 -1.28612 -0.910864 0
M  V30 2163 C 206.702 -1.16106 -1.66274 0
M  V30 2164 C 207.035 0.289113 -1.92036 0
M  V30 2165 O 206.31 1.21 -1.52281 0
M  V30 2166 C 206.593 -1.96309 -3.01885 0
M  V30 2167 C 206.446 -3.49405 -2.8326 0
M  V30 2168 C 207.765 -1.78076 -4.02463 0
M  V30 2169 H 204.884 -0.423152 -0.603417 0
M  V30 2170 H 207.526 -1.57961 -1.05586 0
M  V30 2171 H 205.676 -1.60742 -3.53687 0
M  V30 2172 H 207.348 -3.94894 -2.38446 0
M  V30 2173 H 205.591 -3.74893 -2.18261 0
M  V30 2174 H 206.262 -4.00784 -3.79574 0
M  V30 2175 H 208.738 -2.0912 -3.59733 0
M  V30 2176 H 207.614 -2.36561 -4.95308 0
M  V30 2177 H 207.875 -0.733008 -4.35981 0
M  V30 2178 N 206.934 1.1197 -1.10907 0
M  V30 2179 C 207.882 2.19927 -0.757303 0
M  V30 2180 C 208.876 1.67564 0.248747 0
M  V30 2181 O 210.082 1.79672 0.108605 0
M  V30 2182 H 206.457 0.716925 -0.226987 0
M  V30 2183 H 208.428 2.46847 -1.67658 0
M  V30 2184 C 207.177 3.47061 -0.210671 0
M  V30 2185 H 206.5 3.87703 -0.976049 0
M  V30 2186 H 207.94 4.24 -0.0026584 0
M  V30 2187 C 206.399 3.19864 1.05777 0
M  V30 2188 O 206.929 3.40049 2.13845 0
M  V30 2189 N 205.135 2.73636 0.978349 0
M  V30 2190 H 204.682 2.5741 0.0988246 0
M  V30 2191 H 204.64 2.55815 1.82773 0
M  V30 2192 N 208.412 0.89855 1.29475 0
M  V30 2193 C 209.689 0.443416 1.90508 0
M  V30 2194 C 210.069 -1.07685 1.81569 0
M  V30 2195 O 209.417 -1.9182 1.24166 0
M  V30 2196 C 209.627 0.956708 3.35631 0
M  V30 2197 C 210.975 0.999728 4.12663 0
M  V30 2198 O 211.999 0.904299 3.4453 0
M  V30 2199 O 210.858 1.14289 5.34416 0
M  V30 2200 H 207.952 0.138025 0.815401 0
M  V30 2201 H 210.498 0.98834 1.37949 0
M  V30 2202 H 209.27 2.00067 3.36287 0
M  V30 2203 H 208.893 0.391728 3.95666 0
M  V30 2204 N 209.89 -1.43072 0.660911 0
M  V30 2205 C 211.301 -1.84932 0.256348 0
M  V30 2206 C 211.652 -1.55325 -1.19868 0
M  V30 2207 O 210.777 -1.00607 -1.91591 0
M  V30 2208 C 211.372 -3.35684 0.458475 0
M  V30 2209 C 209.931 -3.76245 0.108161 0
M  V30 2210 C 209.078 -2.66749 0.757641 0
M  V30 2211 H 212.029 -1.33116 0.864051 0
M  V30 2212 H 212.05 -3.79365 -0.293683 0
M  V30 2213 H 211.562 -3.572 1.51755 0
M  V30 2214 H 209.663 -3.60338 -0.948014 0
M  V30 2215 H 209.776 -4.76058 0.538992 0
M  V30 2216 H 208.14 -2.53989 0.190185 0
M  V30 2217 H 208.923 -2.91092 1.81989 0
M  V30 2218 N 211.368 -0.403325 -1.52352 0
M  V30 2219 C 212.278 0.432009 -2.30588 0
M  V30 2220 C 213.294 1.05884 -1.38075 0
M  V30 2221 O 214.47 1.06161 -1.71148 0
M  V30 2222 C 211.535 1.53669 -3.10784 0
M  V30 2223 C 210.596 0.933525 -4.19027 0
M  V30 2224 C 209.829 1.98557 -4.9539 0
M  V30 2225 O 210.052 3.20283 -4.71991 0
M  V30 2226 O 208.986 1.59504 -5.80381 0
M  V30 2227 H 212.812 -0.205739 -3.03002 0
M  V30 2228 H 210.397 -0.166675 -1.48467 0
M  V30 2229 H 212.279 2.17814 -3.60742 0
M  V30 2230 H 210.954 2.15915 -2.41169 0
M  V30 2231 H 209.861 0.254954 -3.7323 0
M  V30 2232 H 211.194 0.35508 -4.90918 0
M  V30 2233 N 212.846 1.57033 -0.133567 0
M  V30 2234 C 214.262 1.58035 0.222944 0
M  V30 2235 C 214.462 1.14713 1.6566 0
M  V30 2236 O 213.518 0.841218 2.38075 0
M  V30 2237 C 214.831 3.00691 -0.0236116 0
M  V30 2238 C 216.379 3.12973 0.0411512 0
M  V30 2239 C 216.854 4.57654 -0.177899 0
M  V30 2240 N 218.345 4.63033 -0.124365 0
M  V30 2241 C 219.08 5.72771 -0.268553 0
M  V30 2242 N 218.576 6.91206 -0.46972 0
M  V30 2243 N 220.369 5.61718 -0.2071 0
M  V30 2244 H 212.52 1.8349 -1.06981 0
M  V30 2245 H 214.783 0.848677 -0.422436 0
M  V30 2246 H 214.489 3.36726 -1.0153 0
M  V30 2247 H 214.363 3.70614 0.701808 0
M  V30 2248 H 216.75 2.76787 1.02338 0
M  V30 2249 H 216.831 2.45564 -0.716383 0
M  V30 2250 H 216.475 4.94542 -1.15717 0
M  V30 2251 H 216.405 5.23173 0.599797 0
M  V30 2252 H 218.896 3.7789 0.027011 0
M  V30 2253 H 219.209 7.70693 -0.570212 0
M  V30 2254 H 217.554 6.93156 -0.505876 0
M  V30 2255 H 220.745 4.68072 -0.0507986 0
M  V30 2256 H 220.918 6.47195 -0.322909 0
M  V30 2257 N 214.325 -0.140222 1.56975 0
M  V30 2258 C 215.555 -0.865181 1.87612 0
M  V30 2259 C 215.963 -1.74942 0.72055 0
M  V30 2260 O 215.306 -1.80917 -0.318561 0
M  V30 2261 C 215.368 -1.76782 3.13031 0
M  V30 2262 C 215.032 -1.06005 4.44536 0
M  V30 2263 C 216.029 -0.410768 5.18275 0
M  V30 2264 C 213.714 -1.04754 4.91255 0
M  V30 2265 C 215.708 0.241572 6.36942 0
M  V30 2266 C 213.395 -0.391394 6.09845 0
M  V30 2267 C 214.393 0.252029 6.82535 0
M  V30 2268 O 214.081 0.897757 7.98871 0
M  V30 2269 H 213.813 -0.255188 0.625983 0
M  V30 2270 H 216.367 -0.135653 2.04952 0
M  V30 2271 H 214.597 -2.53846 2.91718 0
M  V30 2272 H 216.286 -2.36533 3.29859 0
M  V30 2273 H 217.052 -0.412195 4.83245 0
M  V30 2274 H 212.931 -1.53777 4.34596 0
M  V30 2275 H 216.475 0.744375 6.93617 0
M  V30 2276 H 212.372 -0.387656 6.44335 0
M  V30 2277 H 213.14 0.800102 8.1458 0
M  V30 2278 N 215.803 -1.52179 -0.40978 0
M  V30 2279 C 217.051 -1.65878 -1.15451 0
M  V30 2280 C 217.372 -0.390771 -1.91044 0
M  V30 2281 O 216.642 0.594323 -1.86667 0
M  V30 2282 H 215.222 -0.611405 -0.429177 0
M  V30 2283 H 217.884 -1.89219 -0.467134 0
M  V30 2284 H 216.98 -2.49954 -1.86894 0
M  V30 2285 N 217.281 0.66697 -1.42791 0
M  V30 2286 C 218.527 1.4291 -1.43891 0
M  V30 2287 C 218.86 1.94114 -0.0578972 0
M  V30 2288 O 218.135 1.71414 0.91911 0
M  V30 2289 C 218.418 2.62049 -2.46987 0
M  V30 2290 C 218.271 2.16426 -3.94309 0
M  V30 2291 C 219.59 3.64266 -2.46978 0
M  V30 2292 H 216.709 0.518306 -0.523954 0
M  V30 2293 H 219.351 0.757321 -1.74255 0
M  V30 2294 H 217.501 3.19361 -2.21225 0
M  V30 2295 H 219.173 1.64221 -4.31079 0
M  V30 2296 H 217.416 1.47925 -4.078 0
M  V30 2297 H 218.087 3.02038 -4.62036 0
M  V30 2298 H 220.563 3.16686 -2.69906 0
M  V30 2299 H 219.439 4.45196 -3.21079 0
M  V30 2300 H 219.7 4.15927 -1.49857 0
M  V30 2301 N 218.759 1.29093 0.90403 0
M  V30 2302 C 220.005 1.16986 1.65656 0
M  V30 2303 C 220.338 -0.278925 1.92186 0
M  V30 2304 O 219.613 -1.2019 1.5292 0
M  V30 2305 C 219.896 1.97908 3.0084 0
M  V30 2306 C 219.749 3.50903 2.81403 0
M  V30 2307 C 221.068 1.80208 4.01513 0
M  V30 2308 H 218.187 0.426346 0.601164 0
M  V30 2309 H 220.829 1.58518 1.04747 0
M  V30 2310 H 218.979 1.62616 3.52829 0
M  V30 2311 H 220.651 3.96153 2.36348 0
M  V30 2312 H 218.894 3.76045 2.1627 0
M  V30 2313 H 219.565 4.02791 3.77443 0
M  V30 2314 H 222.041 2.11025 3.58619 0
M  V30 2315 H 220.917 2.39184 4.94047 0
M  V30 2316 H 221.178 0.756119 4.35586 0
M  V30 2317 N 220.237 -1.11381 1.11499 0
M  V30 2318 C 221.147 -2.21019 0.786628 0
M  V30 2319 C 222.163 -1.72597 -0.220507 0
M  V30 2320 O 223.339 -2.01321 -0.0565251 0
M  V30 2321 C 220.404 -3.459 0.235333 0
M  V30 2322 C 219.465 -4.09107 1.30115 0
M  V30 2323 C 218.698 -5.28027 0.776068 0
M  V30 2324 O 218.921 -5.6904 -0.393661 0
M  V30 2325 O 217.855 -5.81835 1.54114 0
M  V30 2326 H 221.681 -2.51521 1.70209 0
M  V30 2327 H 219.266 -1.19928 0.890928 0
M  V30 2328 H 221.148 -4.21346 -0.067715 0
M  V30 2329 H 219.823 -3.17049 -0.652828 0
M  V30 2330 H 218.73 -3.35391 1.65722 0
M  V30 2331 H 220.063 -4.42139 2.16273 0
M  V30 2332 N 221.715 -0.905404 -1.28997 0
M  V30 2333 C 222.962 -0.534248 -1.95325 0
M  V30 2334 C 223.29 0.920535 -1.71337 0
M  V30 2335 O 222.545 1.66861 -1.02254 0
M  V30 2336 C 222.844 -0.779906 -3.48787 0
M  V30 2337 C 222.51 -2.21293 -3.92861 0
M  V30 2338 C 221.172 -2.60475 -4.04606 0
M  V30 2339 C 223.524 -3.14587 -4.15553 0
M  V30 2340 C 220.852 -3.9212 -4.36416 0
M  V30 2341 C 223.204 -4.45787 -4.48839 0
M  V30 2342 C 221.868 -4.84834 -4.58794 0
M  V30 2343 H 221.138 -0.195495 -0.714747 0
M  V30 2344 H 223.785 -1.14514 -1.53488 0
M  V30 2345 H 222.09 -0.0861365 -3.91705 0
M  V30 2346 H 223.787 -0.472029 -3.98212 0
M  V30 2347 H 220.377 -1.89887 -3.84241 0
M  V30 2348 H 224.561 -2.85528 -4.0594 0
M  V30 2349 H 219.817 -4.22086 -4.42327 0
M  V30 2350 H 223.991 -5.18098 -4.65346 0
M  V30 2351 H 221.618 -5.86877 -4.83197 0
M  V30 2352 N 223.193 1.4272 -0.668489 0
M  V30 2353 C 224.47 1.95248 -0.117373 0
M  V30 2354 C 224.85 1.60919 1.36632 0
M  V30 2355 O 224.198 0.902095 2.09939 0
M  V30 2356 C 224.408 3.46927 -0.379806 0
M  V30 2357 C 225.756 4.23588 -0.292923 0
M  V30 2358 O 226.78 3.5482 -0.313204 0
M  V30 2359 O 225.639 5.46017 -0.229697 0
M  V30 2360 H 222.733 0.827 0.00079152 0
M  V30 2361 H 225.279 1.52581 -0.742783 0
M  V30 2362 H 224.051 3.65096 -1.40786 0
M  V30 2363 H 223.674 3.96627 0.277923 0
M  V30 2364 N 224.671 0.411399 1.52136 0
M  V30 2365 C 225.603 -0.448386 2.24771 0
M  V30 2366 C 226.616 -1.00828 1.27818 0
M  V30 2367 O 227.805 -0.906841 1.53749 0
M  V30 2368 C 224.905 -1.63636 2.96777 0
M  V30 2369 C 224.078 -1.19995 4.20618 0
M  V30 2370 C 223.137 -2.25509 4.75428 0
M  V30 2371 O 222.163 -1.86007 5.3795 0
M  V30 2372 N 223.365 -3.577 4.57199 0
M  V30 2373 H 226.13 0.174025 2.99194 0
M  V30 2374 H 223.691 0.238897 1.60128 0
M  V30 2375 H 225.683 -2.33793 3.30338 0
M  V30 2376 H 224.253 -2.16465 2.25526 0
M  V30 2377 H 223.473 -0.326421 3.92846 0
M  V30 2378 H 224.761 -0.885365 5.01038 0
M  V30 2379 H 224.159 -3.92543 4.07341 0
M  V30 2380 H 222.716 -4.23827 4.95191 0
M  V30 2381 N 226.149 -1.5696 0.141893 0
M  V30 2382 C 227.096 -2.16501 -0.799737 0
M  V30 2383 C 228.066 -1.09643 -1.24771 0
M  V30 2384 O 229.251 -1.3766 -1.32115 0
M  V30 2385 C 226.391 -2.78679 -2.03549 0
M  V30 2386 C 225.504 -3.99914 -1.6338 0
M  V30 2387 C 224.639 -4.50106 -2.82096 0
M  V30 2388 C 223.678 -5.63819 -2.38275 0
M  V30 2389 N 222.815 -6.08651 -3.49983 0
M  V30 2390 H 227.655 -2.96632 -0.285179 0
M  V30 2391 H 225.192 -1.46533 -0.129053 0
M  V30 2392 H 227.15 -3.1287 -2.75986 0
M  V30 2393 H 225.78 -2.012 -2.52425 0
M  V30 2394 H 224.832 -3.71735 -0.807279 0
M  V30 2395 H 226.144 -4.82311 -1.27192 0
M  V30 2396 H 225.298 -4.86325 -3.62729 0
M  V30 2397 H 224.037 -3.66706 -3.21525 0
M  V30 2398 H 223.042 -5.2718 -1.56081 0
M  V30 2399 H 224.267 -6.49 -1.99938 0
M  V30 2400 H 222.213 -5.28188 -3.89042 0
M  V30 2401 H 222.13 -6.85961 -3.17794 0
M  V30 2402 H 223.398 -6.49515 -4.30988 0
M  V30 2403 N 227.627 0.131896 -1.57047 0
M  V30 2404 C 228.875 0.840269 -1.83804 0
M  V30 2405 C 229.196 1.81017 -0.72512 0
M  V30 2406 O 228.466 1.94272 0.251995 0
M  V30 2407 H 227.046 0.313294 -0.678127 0
M  V30 2408 H 229.708 0.122294 -1.94516 0
M  V30 2409 H 228.804 1.39335 -2.79271 0
M  V30 2410 N 229.106 1.52395 0.401703 0
M  V30 2411 C 230.334 1.70676 1.16949 0
M  V30 2412 C 230.749 0.419503 1.8408 0
M  V30 2413 O 230.106 -0.605061 1.72178 0
M  V30 2414 C 230.157 2.84753 2.22706 0
M  V30 2415 O 229.878 4.08495 1.58314 0
M  V30 2416 C 231.379 3.14608 3.12309 0
M  V30 2417 H 228.599 0.571787 0.351142 0
M  V30 2418 H 231.143 1.98987 0.471652 0
M  V30 2419 H 229.298 2.58941 2.88147 0
M  V30 2420 H 229.712 4.72117 2.28485 0
M  V30 2421 H 231.186 3.97923 3.82572 0
M  V30 2422 H 231.663 2.28464 3.75101 0
M  V30 2423 H 232.269 3.42212 2.52529 0
M  V30 2424 N 230.584 -0.659388 1.43143 0
M  V30 2425 C 231.547 -1.75432 1.47501 0
M  V30 2426 C 232.547 -1.56707 0.360512 0
M  V30 2427 O 233.737 -1.62717 0.622002 0
M  V30 2428 C 230.869 -3.14239 1.32162 0
M  V30 2429 H 232.062 -1.7295 2.45006 0
M  V30 2430 H 229.615 -0.870469 1.29817 0
M  V30 2431 H 230.35 -3.22336 0.356401 0
M  V30 2432 H 230.135 -3.29235 2.12948 0
M  V30 2433 H 231.625 -3.94094 1.3813 0
M  V30 2434 N 232.062 -1.29571 -0.897171 0
M  V30 2435 C 233.308 -1.17863 -1.65034 0
M  V30 2436 C 233.641 0.268729 -1.92332 0
M  V30 2437 O 232.916 1.19378 -1.53555 0
M  V30 2438 C 233.199 -1.995 -2.99786 0
M  V30 2439 C 233.052 -3.5239 -2.79538 0
M  V30 2440 C 234.371 -1.82335 -4.00552 0
M  V30 2441 H 231.49 -0.429528 -0.598895 0
M  V30 2442 H 234.132 -1.59072 -1.03905 0
M  V30 2443 H 232.282 -1.64485 -3.51962 0
M  V30 2444 H 233.954 -3.97401 -2.34244 0
M  V30 2445 H 232.197 -3.77187 -2.14273 0
M  V30 2446 H 232.868 -4.04787 -3.75302 0
M  V30 2447 H 235.344 -2.12924 -3.57495 0
M  V30 2448 H 234.22 -2.41801 -4.92771 0
M  V30 2449 H 234.481 -0.779209 -4.35179 0
M  V30 2450 N 233.54 1.10788 -1.12088 0
M  V30 2451 C 234.765 1.87002 -0.896949 0
M  V30 2452 C 235.19 1.79933 0.548261 0
M  V30 2453 O 234.548 1.16662 1.38779 0
M  V30 2454 C 234.596 3.3349 -1.37174 0
M  V30 2455 O 233.7 4.08745 -0.547831 0
M  V30 2456 H 233.041 0.580397 -0.322545 0
M  V30 2457 H 235.571 1.39996 -1.49206 0
M  V30 2458 H 235.581 3.84339 -1.36922 0
M  V30 2459 H 234.256 3.37951 -2.42408 0
M  V30 2460 H 232.833 3.6776 -0.617034 0
M  V30 2461 N 235.018 0.912232 1.28515 0
M  V30 2462 C 235.948 0.416403 2.29757 0
M  V30 2463 C 236.929 -0.515194 1.6211 0
M  V30 2464 O 238.114 -0.423253 1.89532 0
M  V30 2465 C 235.244 -0.34572 3.45575 0
M  V30 2466 C 234.198 0.496599 4.25109 0
M  V30 2467 C 233.524 -0.393771 5.33248 0
M  V30 2468 C 234.824 1.75307 4.92001 0
M  V30 2469 H 236.518 1.26249 2.7148 0
M  V30 2470 H 234.064 0.608515 1.30511 0
M  V30 2471 H 236.017 -0.703422 4.15488 0
M  V30 2472 H 234.741 -1.2257 3.02728 0
M  V30 2473 H 233.4 0.8368 3.56922 0
M  V30 2474 H 233.048 -1.27225 4.86644 0
M  V30 2475 H 232.748 0.166209 5.87365 0
M  V30 2476 H 234.272 -0.747389 6.06009 0
M  V30 2477 H 235.686 1.46437 5.54283 0
M  V30 2478 H 234.083 2.25534 5.56106 0
M  V30 2479 H 235.153 2.48176 4.16577 0
M  V30 2480 N 236.496 -1.42363 0.676048 0
M  V30 2481 C 237.406 -2.346 -0.00153389 0
M  V30 2482 C 238.422 -1.5516 -0.787485 0
M  V30 2483 O 239.598 -1.87723 -0.729521 0
M  V30 2484 C 236.663 -3.33705 -0.940298 0
M  V30 2485 C 235.724 -4.29042 -0.148739 0
M  V30 2486 C 234.957 -5.23413 -1.04279 0
M  V30 2487 O 235.18 -5.22749 -2.28232 0
M  V30 2488 O 234.114 -5.99795 -0.502925 0
M  V30 2489 H 237.94 -2.94082 0.758268 0
M  V30 2490 H 235.525 -1.42888 0.436289 0
M  V30 2491 H 237.407 -3.94586 -1.47917 0
M  V30 2492 H 236.082 -2.76695 -1.67993 0
M  V30 2493 H 234.989 -3.71571 0.43427 0
M  V30 2494 H 236.322 -4.89097 0.551805 0
M  V30 2495 N 237.974 -0.419461 -1.51915 0
M  V30 2496 C 238.884 0.407528 -2.31033 0
M  V30 2497 C 239.9 1.04413 -1.3919 0
M  V30 2498 O 241.076 1.0434 -1.72265 0
M  V30 2499 C 238.141 1.50365 -3.12396 0
M  V30 2500 C 237.202 0.889029 -4.19994 0
M  V30 2501 C 236.435 1.93291 -4.97468 0
M  V30 2502 O 236.658 3.15259 -4.75361 0
M  V30 2503 O 235.592 1.53339 -5.8204 0
M  V30 2504 H 239.418 -0.237865 -3.02767 0
M  V30 2505 H 237.003 -0.182413 -1.48282 0
M  V30 2506 H 238.885 2.13975 -3.63032 0
M  V30 2507 H 237.56 2.13345 -2.43445 0
M  V30 2508 H 236.467 0.215353 -3.7348 0
M  V30 2509 H 237.8 0.302991 -4.91267 0
M  V30 2510 N 239.452 1.56882 -0.150215 0
M  V30 2511 C 240.399 2.16922 0.788244 0
M  V30 2512 C 241.369 1.10303 1.24187 0
M  V30 2513 O 242.554 1.38359 1.31383 0
M  V30 2514 C 239.694 2.79754 2.02068 0
M  V30 2515 C 238.807 4.00775 1.61257 0
M  V30 2516 C 237.942 4.51595 2.79705 0
M  V30 2517 C 236.981 5.65074 2.35282 0
M  V30 2518 N 236.118 6.10499 3.4675 0
M  V30 2519 H 240.958 2.96779 0.269444 0
M  V30 2520 H 238.495 1.46599 0.12128 0
M  V30 2521 H 240.453 3.14329 2.74323 0
M  V30 2522 H 239.083 2.02536 2.51354 0
M  V30 2523 H 238.135 3.72158 0.787553 0
M  V30 2524 H 239.447 4.82978 1.24633 0
M  V30 2525 H 238.601 4.88242 3.60145 0
M  V30 2526 H 237.34 3.68406 3.19576 0
M  V30 2527 H 236.345 5.28 1.53283 0
M  V30 2528 H 237.57 6.50052 1.96493 0
M  V30 2529 H 235.516 5.30243 3.86236 0
M  V30 2530 H 235.433 6.87637 3.14152 0
M  V30 2531 H 236.701 6.51791 4.27537 0
M  V30 2532 N 240.93 -0.123565 1.57115 0
M  V30 2533 C 242.341 -0.681198 1.73829 0
M  V30 2534 C 242.692 -1.80535 0.768214 0
M  V30 2535 O 241.817 -2.16317 -0.0599103 0
M  V30 2536 C 242.412 -1.24246 3.15196 0
M  V30 2537 C 240.971 -1.74643 3.33432 0
M  V30 2538 C 240.118 -0.644284 2.69711 0
M  V30 2539 H 243.069 0.102315 1.5837 0
M  V30 2540 H 243.09 -2.11216 3.16493 0
M  V30 2541 H 242.602 -0.424062 3.85776 0
M  V30 2542 H 240.703 -2.58974 2.67886 0
M  V30 2543 H 240.816 -1.85902 4.41562 0
M  V30 2544 H 239.18 -1.07676 2.3082 0
M  V30 2545 H 239.963 0.163058 3.42913 0
M  V30 2546 N 242.408 -1.52605 -0.393616 0
M  V30 2547 C 243.338 -1.80022 -1.48709 0
M  V30 2548 C 244.319 -0.651995 -1.57108 0
M  V30 2549 O 245.504 -0.89913 -1.72132 0
M  V30 2550 C 242.634 -1.96492 -2.86371 0
M  V30 2551 C 241.588 -3.12161 -2.92813 0
M  V30 2552 C 240.914 -3.13877 -4.3288 0
M  V30 2553 C 242.214 -4.51322 -2.6288 0
M  V30 2554 H 243.908 -2.71589 -1.26015 0
M  V30 2555 H 241.454 -1.30684 -0.604778 0
M  V30 2556 H 243.407 -2.14255 -3.62867 0
M  V30 2557 H 242.131 -1.01611 -3.10391 0
M  V30 2558 H 240.79 -2.94173 -2.18764 0
M  V30 2559 H 240.438 -2.16687 -4.53933 0
M  V30 2560 H 240.138 -3.91576 -4.38112 0
M  V30 2561 H 241.662 -3.33789 -5.1129 0
M  V30 2562 H 243.076 -4.69435 -3.29096 0
M  V30 2563 H 241.473 -5.31053 -2.79468 0
M  V30 2564 H 242.543 -4.58353 -1.58242 0
M  V30 2565 N 243.887 0.651787 -1.4349 0
M  V30 2566 C 244.819 1.77725 -1.44729 0
M  V30 2567 C 245.832 1.59141 -0.343231 0
M  V30 2568 O 247.021 1.67835 -0.607751 0
M  V30 2569 C 244.121 3.15172 -1.24579 0
M  V30 2570 C 243.294 3.60402 -2.47849 0
M  V30 2571 C 242.353 4.76656 -2.22902 0
M  V30 2572 O 241.379 4.86022 -2.96263 0
M  V30 2573 N 242.581 5.66958 -1.24656 0
M  V30 2574 H 245.346 1.77141 -2.41746 0
M  V30 2575 H 242.907 0.835678 -1.38665 0
M  V30 2576 H 244.899 3.90634 -1.0577 0
M  V30 2577 H 243.469 3.1052 -0.360015 0
M  V30 2578 H 242.689 2.75369 -2.82073 0
M  V30 2579 H 243.977 3.87368 -3.29884 0
M  V30 2580 H 243.375 5.62065 -0.640265 0
M  V30 2581 H 241.932 6.42135 -1.1183 0
M  V30 2582 N 245.365 1.30045 0.890287 0
M  V30 2583 C 246.776 1.16738 1.45702 0
M  V30 2584 C 247.127 -0.233939 1.948 0
M  V30 2585 O 246.252 -1.13021 1.84541 0
M  V30 2586 C 246.847 2.11313 2.64825 0
M  V30 2587 C 245.406 2.02001 3.17604 0
M  V30 2588 C 244.553 2.01699 1.90296 0
M  V30 2589 H 247.504 1.42392 0.700726 0
M  V30 2590 H 247.525 1.69086 3.40867 0
M  V30 2591 H 247.037 3.13294 2.2906 0
M  V30 2592 H 245.138 1.03142 3.5804 0
M  V30 2593 H 245.251 2.90128 3.81264 0
M  V30 2594 H 243.615 1.46427 2.08402 0
M  V30 2595 H 244.398 3.05402 1.56795 0
M  V30 2596 N 246.843 -1.10192 1.12674 0
M  V30 2597 C 247.79 -2.16606 0.796906 0
M  V30 2598 C 248.76 -1.64394 -0.237476 0
M  V30 2599 O 249.945 -1.90474 -0.111484 0
M  V30 2600 C 247.085 -3.44116 0.26043 0
M  V30 2601 C 246.198 -4.10268 1.35293 0
M  V30 2602 C 245.333 -5.25507 0.775621 0
M  V30 2603 C 244.372 -5.83567 1.84706 0
M  V30 2604 N 243.509 -6.90179 1.28829 0
M  V30 2605 H 248.349 -2.44163 1.70846 0
M  V30 2606 H 245.886 -1.19846 0.85295 0
M  V30 2607 H 247.844 -4.17143 -0.0686814 0
M  V30 2608 H 246.474 -3.16901 -0.614274 0
M  V30 2609 H 245.526 -3.35184 1.79877 0
M  V30 2610 H 246.838 -4.4946 2.16303 0
M  V30 2611 H 245.992 -6.05398 0.397327 0
M  V30 2612 H 244.731 -4.87656 -0.0656581 0
M  V30 2613 H 243.736 -5.02344 2.23452 0
M  V30 2614 H 244.961 -6.23482 2.69161 0
M  V30 2615 H 242.907 -6.54322 0.468881 0
M  V30 2616 H 242.824 -7.28097 2.03497 0
M  V30 2617 H 244.092 -7.73844 0.937311 0
M  V30 2618 N 248.321 -0.919034 -1.28029 0
M  V30 2619 C 249.546 -0.570357 -1.99403 0
M  V30 2620 C 249.971 0.842486 -1.68178 0
M  V30 2621 O 249.329 1.56391 -0.917141 0
M  V30 2622 C 249.377 -0.792541 -3.51783 0
M  V30 2623 O 248.481 0.145988 -4.12142 0
M  V30 2624 H 247.822 -0.220555 -0.6263 0
M  V30 2625 H 250.352 -1.23592 -1.63053 0
M  V30 2626 H 250.362 -0.704708 -4.01868 0
M  V30 2627 H 249.037 -1.82247 -3.73844 0
M  V30 2628 H 247.614 0.00897528 -3.72899 0
M  V30 2629 N 249.799 1.42003 -0.683588 0
M  V30 2630 C 250.747 2.326 0.000815408 0
M  V30 2631 C 251.741 1.50308 0.781278 0
M  V30 2632 O 252.947 1.66322 0.688251 0
M  V30 2633 H 249.322 0.751758 0.0190616 0
M  V30 2634 H 251.293 2.88011 -0.780528 0
M  V30 2635 C 250.042 3.34978 0.93195 0
M  V30 2636 H 249.365 3.98345 0.340817 0
M  V30 2637 H 250.805 4.00936 1.37936 0
M  V30 2638 C 249.264 2.67925 2.04249 0
M  V30 2639 O 249.794 2.51788 3.12995 0
M  V30 2640 N 248 2.2681 1.81675 0
M  V30 2641 H 247.547 2.40135 0.932363 0
M  V30 2642 H 247.505 1.8228 2.56167 0
M  V30 2643 N 251.277 0.427512 1.51691 0
M  V30 2644 C 252.507 -0.140986 2.06118 0
M  V30 2645 C 252.915 -1.37854 1.29588 0
M  V30 2646 O 252.258 -1.80411 0.346036 0
M  V30 2647 C 252.32 -0.538276 3.55447 0
M  V30 2648 C 251.984 0.591095 4.53161 0
M  V30 2649 C 252.981 1.46027 4.98971 0
M  V30 2650 C 250.666 0.769028 4.96378 0
M  V30 2651 C 252.66 2.49216 5.8666 0
M  V30 2652 C 250.347 1.80421 5.83859 0
M  V30 2653 C 251.345 2.66417 6.28897 0
M  V30 2654 O 251.033 3.68159 7.14643 0
M  V30 2655 H 250.765 -0.0157455 0.675817 0
M  V30 2656 H 253.319 0.602495 1.96365 0
M  V30 2657 H 251.549 -1.33432 3.6295 0
M  V30 2658 H 253.238 -1.0368 3.92435 0
M  V30 2659 H 254.004 1.33429 4.66285 0
M  V30 2660 H 249.883 0.109273 4.6087 0
M  V30 2661 H 253.427 3.16372 6.21735 0
M  V30 2662 H 249.324 1.93042 6.15959 0
M  V30 2663 H 250.092 3.64622 7.32798 0
M  V30 2664 N 252.755 -1.56801 0.158532 0
M  V30 2665 C 253.718 -2.16138 -0.762705 0
M  V30 2666 C 254.718 -1.1061 -1.16713 0
M  V30 2667 O 255.908 -1.36191 -1.08617 0
M  V30 2668 C 253.04 -2.73386 -2.03649 0
M  V30 2669 H 254.233 -2.98886 -0.246354 0
M  V30 2670 H 251.786 -1.56035 -0.0909744 0
M  V30 2671 H 252.521 -1.94335 -2.59623 0
M  V30 2672 H 252.306 -3.50601 -1.75559 0
M  V30 2673 H 253.796 -3.19065 -2.6942 0
M  V30 2674 N 254.233 0.115231 -1.57178 0
M  V30 2675 C 255.479 0.82357 -1.85325 0
M  V30 2676 C 255.812 1.79349 -0.744814 0
M  V30 2677 O 255.087 1.92899 0.249024 0
M  V30 2678 C 255.37 1.57014 -3.24066 0
M  V30 2679 C 255.223 0.619565 -4.45513 0
M  V30 2680 C 256.542 2.52545 -3.60429 0
M  V30 2681 H 253.661 0.297948 -0.674089 0
M  V30 2682 H 256.303 0.0877138 -1.89797 0
M  V30 2683 H 254.453 2.19742 -3.20383 0
M  V30 2684 H 256.125 0.000837639 -4.613 0
M  V30 2685 H 254.368 -0.0686174 -4.33746 0
M  V30 2686 H 255.039 1.17866 -5.3927 0
M  V30 2687 H 257.515 1.9992 -3.64926 0
M  V30 2688 H 256.391 3.01811 -4.58477 0
M  V30 2689 H 256.652 3.35383 -2.88047 0
M  V30 2690 N 255.711 1.52812 0.385517 0
M  V30 2691 C 256.939 1.71907 1.15133 0
M  V30 2692 C 257.354 0.439004 1.83625 0
M  V30 2693 O 256.711 -0.586765 1.7281 0
M  V30 2694 C 256.762 2.87099 2.19673 0
M  V30 2695 O 256.483 4.10151 1.53973 0
M  V30 2696 C 257.984 3.17902 3.08955 0
M  V30 2697 H 255.204 0.575479 0.345057 0
M  V30 2698 H 257.748 1.99476 0.45052 0
M  V30 2699 H 255.903 2.61982 2.85384 0
M  V30 2700 H 256.317 4.74514 2.23465 0
M  V30 2701 H 257.791 4.01959 3.7833 0
M  V30 2702 H 258.268 2.3243 3.72657 0
M  V30 2703 H 258.874 3.44871 2.48885 0
M  V30 2704 N 257.189 -0.644168 1.43834 0
M  V30 2705 C 258.437 -1.40117 1.45642 0
M  V30 2706 C 258.758 -1.94814 0.0852413 0
M  V30 2707 O 258.028 -1.74988 -0.880688 0
M  V30 2708 H 256.608 -0.52005 0.536243 0
M  V30 2709 H 259.27 -0.7591 1.7951 0
M  V30 2710 H 258.366 -2.23902 2.17427 0
M  V30 2711 N 258.668 -1.30515 -0.883378 0
M  V30 2712 C 259.598 -1.19607 -2.00541 0
M  V30 2713 C 260.579 -0.086346 -1.69881 0
M  V30 2714 O 261.764 -0.268654 -1.92333 0
M  V30 2715 C 258.894 -0.888758 -3.35736 0
M  V30 2716 C 257.848 -1.95659 -3.8066 0
M  V30 2717 C 257.174 -1.50224 -5.13164 0
M  V30 2718 C 258.474 -3.36788 -3.99213 0
M  V30 2719 H 260.168 -2.13476 -2.09925 0
M  V30 2720 H 257.714 -1.02775 -1.00863 0
M  V30 2721 H 259.667 -0.799094 -4.13754 0
M  V30 2722 H 258.391 0.0856125 -3.26488 0
M  V30 2723 H 257.05 -2.03591 -3.04871 0
M  V30 2724 H 256.698 -0.516092 -5.00345 0
M  V30 2725 H 256.398 -2.2165 -5.44192 0
M  V30 2726 H 257.922 -1.42639 -5.93706 0
M  V30 2727 H 259.336 -3.31605 -4.67665 0
M  V30 2728 H 257.733 -4.06314 -4.41621 0
M  V30 2729 H 258.803 -3.78561 -3.03017 0
M  V30 2730 N 260.146 1.09593 -1.13257 0
M  V30 2731 C 261.376 1.85231 -0.915049 0
M  V30 2732 C 261.784 1.81345 0.539498 0
M  V30 2733 O 261.127 1.20664 1.38513 0
M  V30 2734 C 261.189 3.34275 -1.3229 0
M  V30 2735 C 260.853 3.6191 -2.79052 0
M  V30 2736 C 261.85 3.57777 -3.77216 0
M  V30 2737 C 259.535 3.90309 -3.16171 0
M  V30 2738 C 261.529 3.81652 -5.1051 0
M  V30 2739 C 259.216 4.13839 -4.49644 0
M  V30 2740 C 260.214 4.09502 -5.46623 0
M  V30 2741 O 259.902 4.32426 -6.77689 0
M  V30 2742 H 259.634 0.591997 -0.326367 0
M  V30 2743 H 262.188 1.394 -1.50854 0
M  V30 2744 H 260.418 3.80805 -0.672667 0
M  V30 2745 H 262.107 3.9132 -1.07812 0
M  V30 2746 H 262.873 3.35865 -3.49885 0
M  V30 2747 H 258.752 3.92811 -2.41289 0
M  V30 2748 H 262.296 3.78182 -5.86195 0
M  V30 2749 H 258.193 4.35232 -4.767 0
M  V30 2750 H 258.961 4.49896 -6.83766 0
M  V30 2751 N 261.624 0.925811 1.2754 0
M  V30 2752 C 262.871 0.565255 1.94451 0
M  V30 2753 C 263.199 -0.89316 1.7278 0
M  V30 2754 O 262.454 -1.65213 1.04895 0
M  V30 2755 C 262.753 0.835296 3.47502 0
M  V30 2756 C 262.419 2.27515 3.89291 0
M  V30 2757 C 261.081 2.66879 4.00411 0
M  V30 2758 C 263.433 3.21158 4.10496 0
M  V30 2759 C 260.761 3.99014 4.30122 0
M  V30 2760 C 263.113 4.52871 4.4169 0
M  V30 2761 C 261.777 4.92072 4.51023 0
M  V30 2762 H 261.047 0.206841 0.711546 0
M  V30 2763 H 263.694 1.16942 1.51647 0
M  V30 2764 H 261.999 0.148442 3.91519 0
M  V30 2765 H 263.696 0.535322 3.97411 0
M  V30 2766 H 260.286 1.95976 3.81171 0
M  V30 2767 H 264.47 2.9195 4.01346 0
M  V30 2768 H 259.726 4.2907 4.35556 0
M  V30 2769 H 263.9 5.25436 4.57045 0
M  V30 2770 H 261.527 5.9449 4.738 0
M  V30 2771 N 263.102 -1.41638 0.69111 0
M  V30 2772 C 264.332 -2.0533 0.228758 0
M  V30 2773 C 264.74 -1.52089 -1.12541 0
M  V30 2774 O 264.083 -0.662145 -1.71351 0
M  V30 2775 C 264.145 -3.59349 0.10407 0
M  V30 2776 C 263.809 -4.35362 1.38956 0
M  V30 2777 C 264.806 -4.64942 2.32648 0
M  V30 2778 C 262.491 -4.74714 1.64169 0
M  V30 2779 C 264.485 -5.32828 3.49818 0
M  V30 2780 C 262.172 -5.42338 2.81625 0
M  V30 2781 C 263.17 -5.71322 3.74273 0
M  V30 2782 O 262.858 -6.37554 4.89673 0
M  V30 2783 H 262.59 -0.667796 0.104997 0
M  V30 2784 H 265.144 -1.82477 0.942938 0
M  V30 2785 H 263.374 -3.80924 -0.665839 0
M  V30 2786 H 265.063 -4.04633 -0.320519 0
M  V30 2787 H 265.829 -4.35025 2.14425 0
M  V30 2788 H 261.708 -4.51538 0.929202 0
M  V30 2789 H 265.252 -5.55368 4.22152 0
M  V30 2790 H 261.149 -5.71673 2.99768 0
M  V30 2791 H 261.917 -6.56049 4.8943 0
M  V30 2792 N 264.58 -0.43555 -1.51462 0
M  V30 2793 C 265.857 0.191364 -1.94662 0
M  V30 2794 C 266.237 1.60254 -1.37411 0
M  V30 2795 O 265.585 2.2152 -0.560458 0
M  V30 2796 C 265.795 0.17091 -3.48581 0
M  V30 2797 C 267.143 0.377357 -4.2292 0
M  V30 2798 O 268.167 0.249104 -3.55328 0
M  V30 2799 O 267.026 0.63247 -5.42828 0
M  V30 2800 H 264.12 0.130932 -0.816569 0
M  V30 2801 H 266.666 -0.4934 -1.62369 0
M  V30 2802 H 265.438 -0.815738 -3.82703 0
M  V30 2803 H 265.061 0.898659 -3.87311 0
M  V30 2804 N 266.058 1.56714 -0.166846 0
M  V30 2805 C 267.006 2.19056 0.782123 0
M  V30 2806 C 268 1.15328 1.24079 0
M  V30 2807 O 269.206 1.33537 1.20697 0
M  V30 2808 H 265.581 0.70167 0.270486 0
M  V30 2809 H 267.552 2.97494 0.232322 0
M  V30 2810 C 266.301 2.84206 2.00306 0
M  V30 2811 H 265.624 3.63748 1.65914 0
M  V30 2812 H 267.064 3.31302 2.64604 0
M  V30 2813 C 265.523 1.83744 2.82382 0
M  V30 2814 O 266.053 1.32014 3.79388 0
M  V30 2815 N 264.259 1.52601 2.47308 0
M  V30 2816 H 263.806 1.9486 1.68485 0
M  V30 2817 H 263.764 0.856351 3.02513 0
M  V30 2818 N 267.536 -0.106894 1.57237 0
M  V30 2819 C 268.761 -0.830287 1.90055 0
M  V30 2820 C 269.186 -1.72064 0.75998 0
M  V30 2821 O 268.544 -1.78982 -0.288991 0
M  V30 2822 C 268.592 -1.6295 3.21683 0
M  V30 2823 O 267.696 -2.73748 3.08441 0
M  V30 2824 H 267.037 -0.228855 0.623315 0
M  V30 2825 H 269.567 -0.085658 2.04421 0
M  V30 2826 H 269.577 -2.01621 3.54701 0
M  V30 2827 H 268.252 -0.975989 4.04286 0
M  V30 2828 H 266.829 -2.38192 2.86913 0
M  V30 2829 N 269.014 -1.53014 -0.377408 0
M  V30 2830 C 270.26 -1.68872 -1.12294 0
M  V30 2831 C 270.593 -0.433224 -1.89306 0
M  V30 2832 O 269.868 0.569258 -1.85983 0
M  V30 2833 C 270.151 -2.93115 -2.09179 0
M  V30 2834 C 270.004 -4.28794 -1.35853 0
M  V30 2835 C 271.323 -3.12928 -3.09458 0
M  V30 2836 H 268.442 -0.614518 -0.406862 0
M  V30 2837 H 271.084 -1.85633 -0.40503 0
M  V30 2838 H 269.234 -2.78956 -2.70399 0
M  V30 2839 H 270.906 -4.54742 -0.775082 0
M  V30 2840 H 269.149 -4.28744 -0.660364 0
M  V30 2841 H 269.82 -5.11837 -2.06706 0
M  V30 2842 H 272.296 -3.26194 -2.58334 0
M  V30 2843 H 271.172 -4.01316 -3.74482 0
M  V30 2844 H 271.433 -2.27669 -3.78971 0
M  V30 2845 N 270.492 0.636531 -1.44174 0
M  V30 2846 C 271.738 1.39826 -1.4689 0
M  V30 2847 C 272.071 1.93947 -0.0990585 0
M  V30 2848 O 271.346 1.73325 0.882544 0
M  V30 2849 C 271.629 2.56751 -2.5249 0
M  V30 2850 C 271.482 2.08014 -3.98811 0
M  V30 2851 C 272.801 3.58946 -2.54649 0
M  V30 2852 H 269.92 0.507075 -0.53483 0
M  V30 2853 H 272.562 0.720188 -1.75822 0
M  V30 2854 H 270.712 3.14597 -2.2795 0
M  V30 2855 H 272.384 1.5504 -4.34466 0
M  V30 2856 H 270.627 1.39242 -4.10846 0
M  V30 2857 H 271.298 2.92169 -4.68339 0
M  V30 2858 H 273.774 3.1089 -2.76563 0
M  V30 2859 H 272.65 4.38286 -3.3045 0
M  V30 2860 H 272.911 4.12655 -1.58646 0
M  V30 2861 N 271.97 1.30982 0.876444 0
M  V30 2862 C 272.88 1.2003 2.01569 0
M  V30 2863 C 273.896 0.11838 1.73597 0
M  V30 2864 O 275.072 0.33495 1.98595 0
M  V30 2865 C 272.137 0.901637 3.34771 0
M  V30 2866 C 271.198 2.06979 3.76109 0
M  V30 2867 C 270.431 1.78529 5.02954 0
M  V30 2868 O 270.654 0.717296 5.65872 0
M  V30 2869 O 269.588 2.64019 5.40905 0
M  V30 2870 H 273.414 2.15753 2.13739 0
M  V30 2871 H 270.999 1.10658 1.00375 0
M  V30 2872 H 272.881 0.750645 4.1466 0
M  V30 2873 H 271.556 -0.0256141 3.2369 0
M  V30 2874 H 270.463 2.27616 2.96887 0
M  V30 2875 H 271.796 2.97907 3.91807 0
M  V30 2876 N 273.449 -1.08991 1.13837 0
M  V30 2877 C 274.382 -2.15049 0.763477 0
M  V30 2878 C 275.36 -1.60629 -0.252398 0
M  V30 2879 O 276.544 -1.87958 -0.142853 0
M  V30 2880 C 273.671 -3.38441 0.132545 0
M  V30 2881 C 272.717 -4.11596 1.11763 0
M  V30 2882 S 273.55 -4.6521 2.65216 0
M  V30 2883 C 274.706 -5.91896 2.03495 0
M  V30 2884 H 274.939 -2.46518 1.66182 0
M  V30 2885 H 272.472 -1.21008 0.958976 0
M  V30 2886 H 274.43 -4.09883 -0.225074 0
M  V30 2887 H 273.091 -3.05182 -0.743135 0
M  V30 2888 H 272.284 -5.00121 0.624076 0
M  V30 2889 H 271.886 -3.46038 1.41894 0
M  V30 2890 H 274.178 -6.63156 1.38675 0
M  V30 2891 H 275.121 -6.45938 2.9012 0
M  V30 2892 H 275.529 -5.44625 1.48471 0
M  V30 2893 N 274.927 -0.932562 -1.27047 0
M  V30 2894 C 275.89 -0.440064 -2.24936 0
M  V30 2895 C 276.89 0.444071 -1.54547 0
M  V30 2896 O 278.08 0.244465 -1.72476 0
M  V30 2897 C 275.212 0.36678 -3.38921 0
M  V30 2898 H 276.405 -1.305 -2.70018 0
M  V30 2899 H 273.958 -0.713707 -1.39054 0
M  V30 2900 H 274.693 1.25033 -2.99228 0
M  V30 2901 H 274.478 -0.267204 -3.91188 0
M  V30 2902 H 275.968 0.701567 -4.11665 0
M  V30 2903 N 276.405 1.4127 -0.698611 0
M  V30 2904 C 277.352 2.30773 -0.0352094 0
M  V30 2905 C 278.322 1.47273 0.768111 0
M  V30 2906 O 279.507 1.76053 0.735524 0
M  V30 2907 C 276.647 3.33346 0.893 0
M  V30 2908 C 275.76 4.31924 0.0809695 0
M  V30 2909 C 274.895 5.21566 1.0071 0
M  V30 2910 C 273.934 6.11811 0.188155 0
M  V30 2911 N 273.071 6.93926 1.06825 0
M  V30 2912 H 277.911 2.86943 -0.804207 0
M  V30 2913 H 275.448 1.4132 -0.408294 0
M  V30 2914 H 277.406 3.91368 1.44523 0
M  V30 2915 H 276.036 2.78719 1.62836 0
M  V30 2916 H 275.088 3.75825 -0.588224 0
M  V30 2917 H 276.4 4.95716 -0.553801 0
M  V30 2918 H 275.554 5.84437 1.62845 0
M  V30 2919 H 274.293 4.58008 1.67572 0
M  V30 2920 H 273.298 5.47986 -0.446254 0
M  V30 2921 H 274.523 6.77425 -0.476716 0
M  V30 2922 H 272.469 6.32973 1.72283 0
M  V30 2923 H 272.386 7.54416 0.489123 0
M  V30 2924 H 273.654 7.61262 1.67632 0
M  V30 2925 N 277.883 0.443576 1.51229 0
M  V30 2926 C 278.831 -0.37904 2.29491 0
M  V30 2927 C 279.825 -1.0153 1.35603 0
M  V30 2928 O 281.031 -0.94955 1.52917 0
M  V30 2929 H 277.406 -0.141053 0.738653 0
M  V30 2930 H 279.377 0.301799 2.9687 0
M  V30 2931 C 278.126 -1.46426 3.15364 0
M  V30 2932 H 277.449 -0.984037 3.87501 0
M  V30 2933 H 278.889 -2.01297 3.7317 0
M  V30 2934 C 277.348 -2.45099 2.31146 0
M  V30 2935 O 277.878 -3.49773 1.9754 0
M  V30 2936 N 276.084 -2.16139 1.94249 0
M  V30 2937 H 275.631 -1.31044 2.21777 0
M  V30 2938 H 275.589 -2.82398 1.38198 0
M  V30 2939 N 279.361 -1.56624 0.175154 0
M  V30 2940 C 280.291 -2.21155 -0.749195 0
M  V30 2941 C 281.272 -1.16836 -1.23626 0
M  V30 2942 O 282.457 -1.45277 -1.28873 0
M  V30 2943 C 279.587 -2.8553 -1.97711 0
M  V30 2944 C 278.541 -3.95921 -1.62575 0
M  V30 2945 C 277.867 -4.47365 -2.92864 0
M  V30 2946 C 279.167 -5.15323 -0.850838 0
M  V30 2947 H 280.861 -2.98653 -0.211295 0
M  V30 2948 H 278.407 -1.43651 -0.100188 0
M  V30 2949 H 280.36 -3.2935 -2.62881 0
M  V30 2950 H 279.084 -2.05406 -2.53921 0
M  V30 2951 H 277.743 -3.52762 -0.997719 0
M  V30 2952 H 277.391 -3.64027 -3.47122 0
M  V30 2953 H 277.091 -5.21839 -2.70106 0
M  V30 2954 H 278.615 -4.93873 -3.59056 0
M  V30 2955 H 280.029 -5.55812 -1.40521 0
M  V30 2956 H 278.426 -5.95739 -0.722154 0
M  V30 2957 H 279.496 -4.84661 0.152082 0
M  V30 2958 N 280.839 0.0985539 -1.57292 0
M  V30 2959 C 281.786 1.11981 -2.01814 0
M  V30 2960 C 282.756 1.39999 -0.89384 0
M  V30 2961 O 283.941 1.5152 -1.15958 0
M  V30 2962 C 281.081 2.43577 -2.44467 0
M  V30 2963 C 280.194 2.2232 -3.70402 0
M  V30 2964 C 279.329 3.4729 -4.01949 0
M  V30 2965 C 278.368 3.2128 -5.21005 0
M  V30 2966 N 277.505 4.38507 -5.48321 0
M  V30 2967 H 282.345 0.733149 -2.88841 0
M  V30 2968 H 279.882 0.350482 -1.42864 0
M  V30 2969 H 281.84 3.20373 -2.6724 0
M  V30 2970 H 280.47 2.80097 -1.60455 0
M  V30 2971 H 279.522 1.36343 -3.55126 0
M  V30 2972 H 280.834 1.99089 -4.57345 0
M  V30 2973 H 279.988 4.32495 -4.25479 0
M  V30 2974 H 278.727 3.73572 -3.13521 0
M  V30 2975 H 277.732 2.34468 -4.97298 0
M  V30 2976 H 278.957 2.96348 -6.11028 0
M  V30 2977 H 276.903 4.64871 -4.62851 0
M  V30 2978 H 276.82 4.18455 -6.29628 0
M  V30 2979 H 278.088 5.24787 -5.76385 0
M  V30 2980 N 282.317 1.53212 0.369288 0
M  V30 2981 C 283.728 1.60943 0.946276 0
M  V30 2982 C 284.079 0.47452 1.90375 0
M  V30 2983 O 283.204 -0.399597 2.12679 0
M  V30 2984 C 283.799 2.91715 1.72302 0
M  V30 2985 C 282.358 3.01792 2.24941 0
M  V30 2986 C 281.505 2.56211 1.06072 0
M  V30 2987 H 284.456 1.58007 0.148198 0
M  V30 2988 H 284.477 2.79309 2.58393 0
M  V30 2989 H 283.989 3.74295 1.0259 0
M  V30 2990 H 282.09 2.23791 2.97906 0
M  V30 2991 H 282.203 4.06803 2.53077 0
M  V30 2992 H 280.567 2.10998 1.4266 0
M  V30 2993 H 281.35 3.41206 0.378639 0
M  V30 2994 N 283.795 -0.628877 1.44509 0
M  V30 2995 C 285.02 -1.42048 1.5112 0
M  V30 2996 C 285.445 -1.87594 0.137818 0
M  V30 2997 O 284.803 -1.58873 -0.873437 0
M  V30 2998 C 284.851 -2.61541 2.48251 0
M  V30 2999 O 283.955 -3.61453 1.98559 0
M  V30 3000 H 283.296 -0.424942 0.510216 0
M  V30 3001 H 285.826 -0.767374 1.89664 0
M  V30 3002 H 285.836 -3.09057 2.66361 0
M  V30 3003 H 284.511 -2.27736 3.48007 0
M  V30 3004 H 283.088 -3.20731 1.90227 0
M  V30 3005 N 285.273 -1.31445 -0.869486 0
M  V30 3006 C 286.236 -1.19094 -1.9583 0
M  V30 3007 C 287.236 -0.117906 -1.60367 0
M  V30 3008 O 288.426 -0.367208 -1.70286 0
M  V30 3009 C 285.558 -0.828165 -3.30688 0
M  V30 3010 H 286.751 -2.15842 -2.08212 0
M  V30 3011 H 284.304 -1.15063 -1.05784 0
M  V30 3012 H 285.039 0.138142 -3.24006 0
M  V30 3013 H 284.824 -1.6038 -3.578 0
M  V30 3014 H 286.314 -0.765658 -4.10521 0
M  V30 3015 N 286.751 1.08385 -1.14413 0
M  V30 3016 C 288.167 1.32844 -0.884563 0
M  V30 3017 C 288.367 1.95841 0.474181 0
M  V30 3018 O 287.423 2.21158 1.21842 0
M  V30 3019 C 288.736 2.22978 -2.01745 0
M  V30 3020 C 290.284 2.36458 -2.05077 0
M  V30 3021 C 290.759 3.29934 -3.1766 0
M  V30 3022 N 292.25 3.37511 -3.17239 0
M  V30 3023 C 292.985 4.09871 -4.0099 0
M  V30 3024 N 292.481 4.84936 -4.94781 0
M  V30 3025 N 294.274 4.05704 -3.89051 0
M  V30 3026 H 286.425 0.658756 -2.01926 0
M  V30 3027 H 288.688 0.352821 -0.879899 0
M  V30 3028 H 288.394 1.83934 -2.99769 0
M  V30 3029 H 288.268 3.23441 -1.94077 0
M  V30 3030 H 290.655 2.7476 -1.0766 0
M  V30 3031 H 290.736 1.35736 -2.16816 0
M  V30 3032 H 290.38 2.92352 -4.15322 0
M  V30 3033 H 290.31 4.30584 -3.03158 0
M  V30 3034 H 292.801 2.83996 -2.49308 0
M  V30 3035 H 293.114 5.37612 -5.55151 0
M  V30 3036 H 291.459 4.83988 -4.98779 0
M  V30 3037 H 294.65 3.46167 -3.15097 0
M  V30 3038 H 294.823 4.61834 -4.54547 0
M  V30 3039 N 288.23 0.939286 1.26551 0
M  V30 3040 C 289.478 0.58469 1.93457 0
M  V30 3041 C 289.799 -0.878774 1.74076 0
M  V30 3042 O 289.069 -1.62421 1.09528 0
M  V30 3043 H 287.649 0.21325 0.715914 0
M  V30 3044 H 290.311 1.1942 1.54029 0
M  V30 3045 H 289.407 0.800849 3.0165 0
M  V30 3046 N 289.708 -1.40897 0.706093 0
M  V30 3047 C 290.618 -2.3455 0.0482286 0
M  V30 3048 C 291.634 -1.56796 -0.754396 0
M  V30 3049 O 292.81 -1.89228 -0.689538 0
M  V30 3050 C 289.875 -3.35625 -0.869303 0
M  V30 3051 C 288.936 -4.29261 -0.0576994 0
M  V30 3052 C 288.169 -5.25508 -0.931531 0
M  V30 3053 O 288.392 -5.27472 -2.17092 0
M  V30 3054 O 287.326 -6.00727 -0.375587 0
M  V30 3055 H 291.152 -2.92407 0.820476 0
M  V30 3056 H 288.737 -1.4193 0.4665 0
M  V30 3057 H 290.619 -3.97635 -1.39514 0
M  V30 3058 H 289.294 -2.80196 -1.62086 0
M  V30 3059 H 288.201 -3.70566 0.512988 0
M  V30 3060 H 289.534 -4.87817 0.655426 0
M  V30 3061 N 291.186 -0.45159 -1.50991 0
M  V30 3062 C 292.116 0.342898 -2.30969 0
M  V30 3063 C 293.097 1.00815 -1.37005 0
M  V30 3064 O 294.282 1.00907 -1.65926 0
M  V30 3065 C 291.412 1.43637 -3.16205 0
M  V30 3066 C 290.366 0.893818 -4.18563 0
M  V30 3067 C 289.692 2.08411 -4.92411 0
M  V30 3068 C 290.992 -0.0815568 -5.22236 0
M  V30 3069 H 292.686 -0.324556 -2.97636 0
M  V30 3070 H 290.232 -0.157531 -1.43136 0
M  V30 3071 H 292.185 1.9995 -3.70942 0
M  V30 3072 H 290.909 2.13232 -2.47386 0
M  V30 3073 H 289.568 0.352798 -3.64898 0
M  V30 3074 H 289.216 2.76658 -4.20082 0
M  V30 3075 H 288.916 1.72741 -5.61636 0
M  V30 3076 H 290.44 2.65251 -5.49976 0
M  V30 3077 H 291.854 0.391742 -5.7196 0
M  V30 3078 H 290.251 -0.351551 -5.99069 0
M  V30 3079 H 291.321 -1.01374 -4.74185 0
M  V30 3080 N 292.664 1.56529 -0.183458 0
M  V30 3081 C 293.574 2.22144 0.754272 0
M  V30 3082 C 294.59 1.21684 1.24374 0
M  V30 3083 O 295.766 1.54385 1.29333 0
M  V30 3084 C 292.831 2.85884 1.96141 0
M  V30 3085 C 291.892 4.01579 1.51765 0
M  V30 3086 C 291.125 4.6227 2.66725 0
M  V30 3087 O 291.348 4.21865 3.83909 0
M  V30 3088 O 290.282 5.51936 2.40104 0
M  V30 3089 H 294.108 3.02861 0.225527 0
M  V30 3090 H 291.693 1.49331 0.0453032 0
M  V30 3091 H 293.575 3.26253 2.66715 0
M  V30 3092 H 292.25 2.08154 2.47899 0
M  V30 3093 H 291.157 3.65856 0.781049 0
M  V30 3094 H 292.49 4.80938 1.04686 0
M  V30 3095 N 294.142 -0.090211 1.57342 0
M  V30 3096 C 295.391 -0.791531 1.8552 0
M  V30 3097 C 295.704 -1.79659 0.773441 0
M  V30 3098 O 296.91 -2.54616 0.942497 0
M  V30 3099 C 295.366 -1.45856 3.2902 0
M  V30 3100 C 294.974 -0.493017 4.45279 0
M  V30 3101 C 296.718 -2.14332 3.66418 0
M  V30 3102 C 294.625 -1.16491 5.79814 0
M  V30 3103 H 293.555 -0.299356 0.692027 0
M  V30 3104 H 296.206 -0.0445343 1.83446 0
M  V30 3105 H 294.588 -2.25318 3.2565 0
M  V30 3106 H 295.762 0.270464 4.60006 0
M  V30 3107 H 294.077 0.0863061 4.16311 0
M  V30 3108 H 296.674 -2.65344 4.64216 0
M  V30 3109 H 297.017 -2.93447 2.95287 0
M  V30 3110 H 297.55 -1.41724 3.71698 0
M  V30 3111 H 294.289 -0.41447 6.54188 0
M  V30 3112 H 293.809 -1.8997 5.68921 0
M  V30 3113 H 295.488 -1.69001 6.24538 0
M  V30 3114 N 295.62 -1.53406 -0.361157 0
M  V30 3115 C 296.848 -1.73717 -1.12383 0
M  V30 3116 C 297.263 -0.468161 -1.82904 0
M  V30 3117 O 296.62 0.559198 -1.73722 0
M  V30 3118 C 296.671 -2.90558 -2.15078 0
M  V30 3119 O 296.392 -4.12549 -1.47428 0
M  V30 3120 C 297.893 -3.22777 -3.03858 0
M  V30 3121 H 295.113 -0.580896 -0.335858 0
M  V30 3122 H 297.657 -2.00167 -0.418728 0
M  V30 3123 H 295.812 -2.66489 -2.8118 0
M  V30 3124 H 296.226 -4.78009 -2.15887 0
M  V30 3125 H 297.7 -4.07927 -3.71887 0
M  V30 3126 H 298.177 -2.38329 -3.68912 0
M  V30 3127 H 298.783 -3.48787 -2.43367 0
M  V30 3128 N 297.098 0.621204 -1.44841 0
M  V30 3129 C 298.375 1.38 -1.38619 0
M  V30 3130 C 298.755 2.11041 -0.0498935 0
M  V30 3131 O 298.103 2.06992 0.967816 0
M  V30 3132 C 298.313 2.33817 -2.59096 0
M  V30 3133 C 299.661 2.96844 -3.03593 0
M  V30 3134 O 300.685 2.44141 -2.59371 0
M  V30 3135 O 299.544 3.92476 -3.80296 0
M  V30 3136 H 296.638 0.61811 -0.549426 0
M  V30 3137 H 299.184 0.645429 -1.56947 0
M  V30 3138 H 297.956 1.79012 -3.47952 0
M  V30 3139 H 297.579 3.14676 -2.43032 0
M  V30 3140 N 298.576 1.31904 0.862503 0
M  V30 3141 C 299.825 1.21373 1.61094 0
M  V30 3142 C 300.138 -0.22504 1.94301 0
M  V30 3143 O 301.344 -0.452121 2.67709 0
M  V30 3144 C 299.8 2.12525 2.9045 0
M  V30 3145 C 299.408 3.61441 2.64697 0
M  V30 3146 C 301.152 2.10813 3.68454 0
M  V30 3147 C 299.059 4.44578 3.90006 0
M  V30 3148 H 297.989 0.450705 0.604468 0
M  V30 3149 H 300.64 1.56811 0.953027 0
M  V30 3150 H 299.022 1.69994 3.57656 0
M  V30 3151 H 300.196 4.12264 2.05851 0
M  V30 3152 H 298.511 3.65205 2.00036 0
M  V30 3153 H 301.108 2.70167 4.61426 0
M  V30 3154 H 301.451 1.09713 4.01583 0
M  V30 3155 H 301.984 2.51583 3.08141 0
M  V30 3156 H 298.723 5.46461 3.62023 0
M  V30 3157 H 298.243 3.98508 4.48276 0
M  V30 3158 H 299.922 4.57176 4.5782 0
M  V30 3159 N 300.054 -1.07777 1.14986 0
M  V30 3160 C 301.002 -2.16964 0.838406 0
M  V30 3161 C 301.996 -1.68372 -0.186386 0
M  V30 3162 O 303.202 -1.79951 -0.0418465 0
M  V30 3163 H 299.577 -0.708006 0.253439 0
M  V30 3164 H 301.548 -2.40454 1.76704 0
M  V30 3165 C 300.297 -3.4604 0.339335 0
M  V30 3166 H 299.62 -3.83813 1.11927 0
M  V30 3167 H 301.06 -4.23698 0.160021 0
M  V30 3168 C 299.519 -3.23569 -0.938325 0
M  V30 3169 O 300.049 -3.47752 -2.01077 0
M  V30 3170 N 298.255 -2.77079 -0.876117 0
M  V30 3171 H 297.802 -2.576 -0.00322037 0
M  V30 3172 H 297.76 -2.62422 -1.73153 0
M  V30 3173 N 301.532 -0.945985 -1.26051 0
M  V30 3174 C 302.948 -0.649045 -1.45807 0
M  V30 3175 C 303.148 0.796158 -1.85104 0
M  V30 3176 O 302.204 1.57233 -1.97571 0
M  V30 3177 C 303.517 -1.61458 -2.53677 0
M  V30 3178 C 305.065 -1.62481 -2.67524 0
M  V30 3179 C 305.54 -2.57776 -3.7857 0
M  V30 3180 N 307.031 -2.5609 -3.85969 0
M  V30 3181 C 307.766 -3.26508 -4.7136 0
M  V30 3182 N 307.262 -4.0637 -5.61102 0
M  V30 3183 N 309.055 -3.15437 -4.65248 0
M  V30 3184 H 301.206 -1.88005 -0.988328 0
M  V30 3185 H 303.469 -0.808198 -0.4955 0
M  V30 3186 H 303.175 -2.64644 -2.31638 0
M  V30 3187 H 303.049 -1.37036 -3.51427 0
M  V30 3188 H 305.436 -0.600167 -2.88933 0
M  V30 3189 H 305.517 -1.90958 -1.70202 0
M  V30 3190 H 305.161 -3.60361 -3.57913 0
M  V30 3191 H 305.091 -2.26587 -4.75359 0
M  V30 3192 H 307.582 -1.98105 -3.21812 0
M  V30 3193 H 307.895 -4.57042 -6.23164 0
M  V30 3194 H 306.24 -4.10469 -5.60839 0
M  V30 3195 H 309.431 -2.52525 -3.94143 0
M  V30 3196 H 309.604 -3.70584 -5.31575 0
M  V30 3197 N 303.011 1.40521 -0.713556 0
M  V30 3198 C 304.26 2.00155 -0.249192 0
M  V30 3199 C 304.573 1.57224 1.16362 0
M  V30 3200 O 305.779 2.09542 1.72639 0
M  V30 3201 C 304.235 3.5773 -0.3946 0
M  V30 3202 C 303.843 4.09635 -1.81392 0
M  V30 3203 C 305.587 4.24499 0.00907364 0
M  V30 3204 C 303.494 5.59707 -1.91003 0
M  V30 3205 H 302.424 0.74868 -0.0894114 0
M  V30 3206 H 305.075 1.60784 -0.884352 0
M  V30 3207 H 303.457 3.94792 0.30911 0
M  V30 3208 H 304.631 3.83955 -2.54785 0
M  V30 3209 H 302.946 3.55456 -2.16888 0
M  V30 3210 H 305.543 5.34683 -0.0420404 0
M  V30 3211 H 305.886 4.02824 1.05065 0
M  V30 3212 H 306.419 3.92536 -0.645007 0
M  V30 3213 H 303.158 5.86234 -2.93275 0
M  V30 3214 H 302.678 5.87258 -1.22019 0
M  V30 3215 H 304.357 6.24776 -1.6812 0
M  V30 3216 N 304.489 0.459591 1.5075 0
M  V30 3217 C 305.719 -0.0972338 2.06371 0
M  V30 3218 C 306.127 -1.35074 1.32483 0
M  V30 3219 O 305.47 -1.79637 0.384226 0
M  V30 3220 C 305.532 -0.462759 3.56509 0
M  V30 3221 C 305.196 0.687084 4.51805 0
M  V30 3222 C 306.193 1.56578 4.95761 0
M  V30 3223 C 303.878 0.874144 4.94635 0
M  V30 3224 C 305.872 2.61604 5.81242 0
M  V30 3225 C 303.559 1.92765 5.79901 0
M  V30 3226 C 304.557 2.79697 6.23104 0
M  V30 3227 O 304.245 3.83235 7.06673 0
M  V30 3228 H 303.977 -0.00140687 0.675999 0
M  V30 3229 H 306.531 0.644011 1.95043 0
M  V30 3230 H 304.761 -1.25703 3.65699 0
M  V30 3231 H 306.45 -0.953323 3.94546 0
M  V30 3232 H 307.216 1.4329 4.6335 0
M  V30 3233 H 303.095 0.207006 4.60535 0
M  V30 3234 H 306.639 3.29489 6.14884 0
M  V30 3235 H 302.536 2.06064 6.11725 0
M  V30 3236 H 303.304 3.80084 7.24899 0
M  V30 3237 N 305.967 -1.56429 0.191757 0
M  V30 3238 C 306.9 -2.14829 -0.76967 0
M  V30 3239 C 307.878 -1.08405 -1.2119 0
M  V30 3240 O 309.062 -1.36498 -1.30002 0
M  V30 3241 C 306.189 -2.70446 -2.03903 0
M  V30 3242 C 305.235 -3.89428 -1.7392 0
M  V30 3243 S 306.068 -5.28048 -0.890265 0
M  V30 3244 C 307.224 -5.87085 -2.16984 0
M  V30 3245 H 307.457 -2.96042 -0.273204 0
M  V30 3246 H 304.99 -1.54383 -0.0231975 0
M  V30 3247 H 306.948 -3.03134 -2.76803 0
M  V30 3248 H 305.609 -1.89281 -2.50662 0
M  V30 3249 H 304.802 -4.26742 -2.68155 0
M  V30 3250 H 304.404 -3.57732 -1.09103 0
M  V30 3251 H 306.696 -6.01244 -3.12269 0
M  V30 3252 H 307.639 -6.83747 -1.84108 0
M  V30 3253 H 308.047 -5.15663 -2.29678 0
M  V30 3254 N 307.445 0.0818655 -1.57387 0
M  V30 3255 C 308.355 1.11642 -2.06333 0
M  V30 3256 C 309.371 1.43033 -0.99083 0
M  V30 3257 O 310.547 1.53411 -1.30488 0
M  V30 3258 C 307.612 2.41342 -2.48907 0
M  V30 3259 C 306.673 2.17014 -3.7041 0
M  V30 3260 C 305.906 3.4053 -4.10944 0
M  V30 3261 O 306.129 4.4927 -3.51444 0
M  V30 3262 O 305.063 3.29336 -5.03807 0
M  V30 3263 H 308.889 0.730657 -2.9478 0
M  V30 3264 H 306.474 0.295301 -1.46452 0
M  V30 3265 H 308.356 3.17691 -2.76858 0
M  V30 3266 H 307.031 2.79319 -1.63593 0
M  V30 3267 H 305.938 1.38403 -3.47556 0
M  V30 3268 H 307.271 1.83923 -4.56545 0
M  V30 3269 N 308.923 1.53595 0.353017 0
M  V30 3270 C 309.855 1.77219 1.45348 0
M  V30 3271 C 310.868 0.65324 1.49119 0
M  V30 3272 O 312.057 0.929775 1.52373 0
M  V30 3273 C 309.157 1.84841 2.84055 0
M  V30 3274 C 308.33 3.14649 3.03833 0
M  V30 3275 C 307.389 3.13351 4.22727 0
M  V30 3276 O 306.415 3.87107 4.17297 0
M  V30 3277 N 307.617 2.35052 5.30783 0
M  V30 3278 H 310.382 2.72178 1.25457 0
M  V30 3279 H 307.943 1.52528 0.542833 0
M  V30 3280 H 309.935 1.81435 3.61751 0
M  V30 3281 H 308.505 0.971114 2.97133 0
M  V30 3282 H 307.725 3.31256 2.13689 0
M  V30 3283 H 309.013 4.00411 3.13925 0
M  V30 3284 H 308.411 1.74663 5.38061 0
M  V30 3285 H 306.968 2.37453 6.07009 0
M  V30 3286 N 310.401 -0.613514 1.45168 0
M  V30 3287 C 311.649 -1.36997 1.48581 0
M  V30 3288 C 311.97 -1.94589 0.126545 0
M  V30 3289 O 311.24 -1.76816 -0.843372 0
M  V30 3290 H 309.82 -0.508558 0.547154 0
M  V30 3291 H 312.482 -0.720853 1.81079 0
M  V30 3292 H 311.578 -2.1924 2.22127 0
M  V30 3293 N 311.879 -1.3236 -0.855495 0
M  V30 3294 C 313.295 -1.11332 -1.14356 0
M  V30 3295 C 313.495 0.106751 -2.01217 0
M  V30 3296 O 312.551 0.791891 -2.39761 0
M  V30 3297 C 313.864 -2.39237 -1.82171 0
M  V30 3298 C 315.412 -2.44986 -1.9481 0
M  V30 3299 C 315.887 -3.7281 -2.66039 0
M  V30 3300 N 317.378 -3.73787 -2.73565 0
M  V30 3301 C 318.113 -4.69394 -3.29327 0
M  V30 3302 N 317.609 -5.75367 -3.85907 0
M  V30 3303 N 319.402 -4.56893 -3.27423 0
M  V30 3304 H 311.553 -2.10586 -0.277027 0
M  V30 3305 H 313.816 -0.929701 -0.185364 0
M  V30 3306 H 313.522 -3.28431 -1.25802 0
M  V30 3307 H 313.396 -2.50134 -2.82335 0
M  V30 3308 H 315.783 -1.56252 -2.50338 0
M  V30 3309 H 315.864 -2.38043 -0.936448 0
M  V30 3310 H 315.508 -4.61918 -2.11174 0
M  V30 3311 H 315.438 -3.77024 -3.67642 0
M  V30 3312 H 317.929 -2.97189 -2.33424 0
M  V30 3313 H 318.242 -6.44378 -4.26611 0
M  V30 3314 H 316.587 -5.79123 -3.84242 0
M  V30 3315 H 319.778 -3.73269 -2.82467 0
M  V30 3316 H 319.951 -5.31577 -3.7058 0
M  V30 3317 N 313.357 1.07166 -1.15556 0
M  V30 3318 C 314.287 2.16403 -0.877046 0
M  V30 3319 C 315.268 1.69217 0.173111 0
M  V30 3320 O 316.453 1.94181 0.027084 0
M  V30 3321 C 313.583 3.45349 -0.367632 0
M  V30 3322 C 312.537 4.05995 -1.35468 0
M  V30 3323 C 311.863 5.30045 -0.704038 0
M  V30 3324 C 313.163 4.45804 -2.72132 0
M  V30 3325 H 314.857 2.39959 -1.79053 0
M  V30 3326 H 312.403 1.15325 -0.862331 0
M  V30 3327 H 314.356 4.21095 -0.160317 0
M  V30 3328 H 313.08 3.21385 0.581326 0
M  V30 3329 H 311.739 3.32296 -1.54839 0
M  V30 3330 H 311.387 5.02373 0.251128 0
M  V30 3331 H 311.087 5.71579 -1.36277 0
M  V30 3332 H 312.611 6.08495 -0.50654 0
M  V30 3333 H 314.025 5.12671 -2.56595 0
M  V30 3334 H 312.422 4.98296 -3.34397 0
M  V30 3335 H 313.492 3.57083 -3.28054 0
M  V30 3336 N 314.835 0.952656 1.25548 0
M  V30 3337 C 316.06 0.623025 1.97821 0
M  V30 3338 C 316.485 -0.7976 1.70352 0
M  V30 3339 O 315.843 -1.53905 0.958283 0
M  V30 3340 C 315.891 0.885532 3.49558 0
M  V30 3341 O 314.995 -0.0366641 4.12384 0
M  V30 3342 H 314.336 0.237082 0.620232 0
M  V30 3343 H 316.866 1.27871 1.59719 0
M  V30 3344 H 316.876 0.811009 3.99858 0
M  V30 3345 H 315.551 1.92094 3.6888 0
M  V30 3346 H 314.128 0.0898954 3.72792 0
M  V30 3347 N 316.313 -1.40141 0.720998 0
M  V30 3348 C 317.559 -2.01084 0.263231 0
M  V30 3349 C 317.892 -1.57052 -1.14229 0
M  V30 3350 O 317.167 -0.793027 -1.77599 0
M  V30 3351 C 317.45 -3.58401 0.349344 0
M  V30 3352 C 317.303 -4.12491 1.79363 0
M  V30 3353 C 318.622 -4.39231 -0.276351 0
M  V30 3354 H 315.741 -0.730572 0.0971228 0
M  V30 3355 H 318.383 -1.66543 0.914518 0
M  V30 3356 H 316.533 -3.87958 -0.205165 0
M  V30 3357 H 318.205 -3.93711 2.40394 0
M  V30 3358 H 316.448 -3.66576 2.31958 0
M  V30 3359 H 317.119 -5.21646 1.80524 0
M  V30 3360 H 319.595 -4.15637 0.196184 0
M  V30 3361 H 318.471 -5.48586 -0.185681 0
M  V30 3362 H 318.732 -4.20643 -1.36059 0
M  V30 3363 N 317.792 -0.46758 -1.50504 0
M  V30 3364 C 318.755 0.317059 -2.26996 0
M  V30 3365 C 319.755 0.923513 -1.31635 0
M  V30 3366 O 320.945 0.793239 -1.55091 0
M  V30 3367 C 318.077 1.45134 -3.08462 0
M  V30 3368 H 319.27 -0.353723 -2.97807 0
M  V30 3369 H 316.823 -0.221545 -1.54722 0
M  V30 3370 H 317.558 2.15728 -2.4214 0
M  V30 3371 H 317.343 1.02232 -3.78538 0
M  V30 3372 H 318.833 2.00493 -3.66323 0
M  V30 3373 N 319.27 1.56325 -0.20005 0
M  V30 3374 C 320.203 2.15234 0.758267 0
M  V30 3375 C 321.181 1.09046 1.20614 0
M  V30 3376 O 322.365 1.37186 1.29276 0
M  V30 3377 C 319.492 2.71524 2.02466 0
M  V30 3378 C 318.538 3.90345 1.71852 0
M  V30 3379 S 319.371 5.28513 0.862249 0
M  V30 3380 C 320.527 5.88227 2.13868 0
M  V30 3381 H 320.76 2.96183 0.2575 0
M  V30 3382 H 318.293 1.54393 0.0150099 0
M  V30 3383 H 320.251 3.04598 2.75191 0
M  V30 3384 H 318.912 1.90607 2.49655 0
M  V30 3385 H 318.105 4.28158 2.65888 0
M  V30 3386 H 317.707 3.58306 1.07205 0
M  V30 3387 H 319.999 6.02891 3.09076 0
M  V30 3388 H 320.942 6.84714 1.80479 0
M  V30 3389 H 321.35 5.16874 2.2694 0
M  V30 3390 N 320.748 -0.0735177 1.57428 0
M  V30 3391 C 321.681 -1.11932 1.98863 0
M  V30 3392 C 322.659 -1.37666 0.865266 0
M  V30 3393 O 323.843 -1.51068 1.12742 0
M  V30 3394 C 320.97 -2.46403 2.32386 0
M  V30 3395 C 320.016 -2.36815 3.54713 0
M  V30 3396 S 320.849 -1.76392 5.05614 0
M  V30 3397 C 322.005 -3.12444 5.42337 0
M  V30 3398 H 322.238 -0.766212 2.87257 0
M  V30 3399 H 319.771 -0.281987 1.51803 0
M  V30 3400 H 321.729 -3.23755 2.52375 0
M  V30 3401 H 320.39 -2.78876 1.44524 0
M  V30 3402 H 319.583 -3.35977 3.7568 0
M  V30 3403 H 319.185 -1.67598 3.34345 0
M  V30 3404 H 321.477 -4.08753 5.40303 0
M  V30 3405 H 322.42 -2.96258 6.43146 0
M  V30 3406 H 322.828 -3.1297 4.69798 0
M  V30 3407 N 322.226 -1.5378 -0.344866 0
M  V30 3408 C 323.474 -1.70625 -1.08311 0
M  V30 3409 C 323.795 -0.471447 -1.89215 0
M  V30 3410 O 323.065 0.514616 -1.8902 0
M  V30 3411 H 321.645 -0.629058 -0.402859 0
M  V30 3412 H 324.307 -1.9103 -0.386459 0
M  V30 3413 H 323.403 -2.57656 -1.76124 0
M  V30 3414 N 323.704 0.605807 -1.45491 0
M  V30 3415 C 325.12 0.926751 -1.29936 0
M  V30 3416 C 325.32 1.99896 -0.253706 0
M  V30 3417 O 324.376 2.50038 0.351737 0
M  V30 3418 C 325.689 1.36599 -2.67883 0
M  V30 3419 C 327.237 1.4801 -2.75793 0
M  V30 3420 C 327.712 1.95309 -4.14268 0
M  V30 3421 N 329.203 2.0254 -4.16571 0
M  V30 3422 C 329.938 2.40363 -5.20589 0
M  V30 3423 N 329.434 2.77143 -6.34952 0
M  V30 3424 N 331.227 2.40718 -5.07948 0
M  V30 3425 H 323.378 -0.102862 -2.12151 0
M  V30 3426 H 325.641 0.016639 -0.947854 0
M  V30 3427 H 325.347 0.652306 -3.45598 0
M  V30 3428 H 325.221 2.33215 -2.96463 0
M  V30 3429 H 327.608 2.1847 -1.98381 0
M  V30 3430 H 327.689 0.497041 -2.50925 0
M  V30 3431 H 327.333 1.25436 -4.92167 0
M  V30 3432 H 327.263 2.94532 -4.3653 0
M  V30 3433 H 329.754 1.76699 -3.34045 0
M  V30 3434 H 330.067 3.0489 -7.10114 0
M  V30 3435 H 328.412 2.74834 -6.3835 0
M  V30 3436 H 331.603 2.11392 -4.1765 0
M  V30 3437 H 331.776 2.69869 -5.89131 0
M  V30 3438 N 325.182 1.32811 0.848464 0
M  V30 3439 C 326.43 1.23479 1.59991 0
M  V30 3440 C 326.751 -0.201853 1.93952 0
M  V30 3441 O 326.021 -1.12818 1.60153 0
M  V30 3442 H 324.601 0.454034 0.593179 0
M  V30 3443 H 327.263 1.66412 1.01455 0
M  V30 3444 H 326.359 1.82178 2.53412 0
M  V30 3445 N 326.66 -1.06551 1.16123 0
M  V30 3446 C 327.89 -1.8274 0.963838 0
M  V30 3447 C 328.298 -1.82712 -0.491228 0
M  V30 3448 O 327.641 -1.24294 -1.35265 0
M  V30 3449 C 327.703 -3.3065 1.41106 0
M  V30 3450 C 327.367 -3.54384 2.88549 0
M  V30 3451 C 328.364 -3.4765 3.86569 0
M  V30 3452 C 326.049 -3.81789 3.26408 0
M  V30 3453 C 328.043 -3.67982 5.2045 0
M  V30 3454 C 325.73 -4.01772 4.60459 0
M  V30 3455 C 326.728 -3.94866 5.57288 0
M  V30 3456 O 326.416 -4.14306 6.88916 0
M  V30 3457 H 326.148 -0.583136 0.341948 0
M  V30 3458 H 328.702 -1.35351 1.54497 0
M  V30 3459 H 326.932 -3.78887 0.773394 0
M  V30 3460 H 328.621 -3.88324 1.1815 0
M  V30 3461 H 329.387 -3.2647 3.58667 0
M  V30 3462 H 325.266 -3.86276 2.51619 0
M  V30 3463 H 328.81 -3.62507 5.96015 0
M  V30 3464 H 324.707 -4.2244 4.88072 0
M  V30 3465 H 325.475 -4.31609 6.95454 0
M  V30 3466 N 328.138 -0.959301 -1.25041 0
M  V30 3467 C 329.101 -0.487677 -2.23952 0
M  V30 3468 C 330.101 0.41119 -1.55454 0
M  V30 3469 O 331.291 0.207825 -1.72956 0
M  V30 3470 C 328.423 0.294807 -3.39623 0
M  V30 3471 H 329.616 -1.36198 -2.67189 0
M  V30 3472 H 327.169 -0.743042 -1.37508 0
M  V30 3473 H 327.904 1.18658 -3.01813 0
M  V30 3474 H 327.689 -0.35012 -3.90534 0
M  V30 3475 H 329.179 0.614089 -4.1306 0
M  V30 3476 N 329.616 1.39756 -0.72842 0
M  V30 3477 C 330.862 2.01425 -0.282761 0
M  V30 3478 C 331.217 1.56754 1.11561 0
M  V30 3479 O 330.51 0.783482 1.74849 0
M  V30 3480 C 330.704 3.56002 -0.315776 0
M  V30 3481 C 330.533 4.1568 -1.71582 0
M  V30 3482 C 329.303 4.48555 -2.32651 0
M  V30 3483 C 331.501 4.39667 -2.66829 0
M  V30 3484 N 329.483 4.93698 -3.64877 0
M  V30 3485 C 330.854 4.86942 -3.8378 0
M  V30 3486 C 332.909 4.21724 -2.64675 0
M  V30 3487 C 331.612 5.18158 -4.98904 0
M  V30 3488 C 333.638 4.54049 -3.78937 0
M  V30 3489 C 333 5.01525 -4.94623 0
M  V30 3490 H 329.099 0.76756 -0.149583 0
M  V30 3491 H 331.683 1.69784 -0.952976 0
M  V30 3492 H 329.854 3.87046 0.324057 0
M  V30 3493 H 331.586 4.0443 0.147808 0
M  V30 3494 H 328.341 4.36128 -1.84633 0
M  V30 3495 H 328.765 5.20635 -4.32744 0
M  V30 3496 H 333.407 3.84228 -1.76433 0
M  V30 3497 H 331.125 5.54562 -5.87781 0
M  V30 3498 H 334.711 4.41795 -3.78561 0
M  V30 3499 H 333.591 5.26065 -5.81572 0
M  V30 3500 N 331.094 0.475555 1.50254 0
M  V30 3501 C 332.024 -0.30611 2.31485 0
M  V30 3502 C 333.005 -0.986228 1.38591 0
M  V30 3503 O 334.19 -0.982541 1.67511 0
M  V30 3504 C 331.32 -1.38588 3.1845 0
M  V30 3505 C 330.274 -0.827115 4.19932 0
M  V30 3506 C 329.6 -2.00551 4.95665 0
M  V30 3507 C 330.9 0.16463 5.2204 0
M  V30 3508 H 332.594 0.371866 2.97082 0
M  V30 3509 H 330.14 0.180282 1.42867 0
M  V30 3510 H 332.093 -1.94023 3.74076 0
M  V30 3511 H 330.817 -2.09269 2.50747 0
M  V30 3512 H 329.476 -0.294702 3.65414 0
M  V30 3513 H 329.124 -2.6994 4.2443 0
M  V30 3514 H 328.824 -1.63784 5.64313 0
M  V30 3515 H 330.348 -2.56468 5.54127 0
M  V30 3516 H 331.762 -0.300699 5.72511 0
M  V30 3517 H 330.159 0.446813 5.98434 0
M  V30 3518 H 331.229 1.08905 4.72512 0
M  V30 3519 N 332.573 -1.56217 0.208337 0
M  V30 3520 C 333.85 -1.89739 -0.475234 0
M  V30 3521 C 334.23 -1.1238 -1.78701 0
M  V30 3522 O 333.578 -0.228979 -2.2735 0
M  V30 3523 C 333.788 -3.42289 -0.681101 0
M  V30 3524 C 335.136 -4.12789 -0.994507 0
M  V30 3525 O 336.16 -3.47814 -0.768357 0
M  V30 3526 O 335.019 -5.27649 -1.42299 0
M  V30 3527 H 332.113 -0.788478 -0.249461 0
M  V30 3528 H 334.659 -1.67855 0.249538 0
M  V30 3529 H 333.431 -3.90534 0.244722 0
M  V30 3530 H 333.054 -3.69909 -1.45785 0
M  V30 3531 N 334.051 0.0651679 -1.57465 0
M  V30 3532 C 335.279 0.775808 -1.91804 0
M  V30 3533 C 335.694 1.70782 -0.804916 0
M  V30 3534 O 335.051 1.81153 0.221311 0
M  V30 3535 C 335.102 1.56381 -3.25925 0
M  V30 3536 O 334.823 0.669248 -4.32958 0
M  V30 3537 C 336.324 2.37485 -3.7432 0
M  V30 3538 H 333.544 0.2202 -0.63384 0
M  V30 3539 H 336.088 0.0334587 -2.04473 0
M  V30 3540 H 334.243 2.25837 -3.14764 0
M  V30 3541 H 334.657 1.21801 -5.10162 0
M  V30 3542 H 336.131 2.88223 -4.70778 0
M  V30 3543 H 336.608 3.17307 -3.03666 0
M  V30 3544 H 337.214 1.73173 -3.88447 0
M  V30 3545 N 335.529 1.53961 0.336706 0
M  V30 3546 C 336.777 1.71197 1.07405 0
M  V30 3547 C 337.098 0.481475 1.88962 0
M  V30 3548 O 336.368 -0.504585 1.8929 0
M  V30 3549 H 334.948 0.631185 0.399517 0
M  V30 3550 H 337.61 1.91232 0.376323 0
M  V30 3551 H 336.706 2.58587 1.74755 0
M  V30 3552 N 337.007 -0.598083 1.45811 0
M  V30 3553 C 338.235 -1.38322 1.53866 0
M  V30 3554 C 338.65 -1.87992 0.174479 0
M  V30 3555 O 338.007 -1.62756 -0.825627 0
M  V30 3556 C 338.058 -2.58125 2.53089 0
M  V30 3557 O 337.779 -2.10516 3.84206 0
M  V30 3558 C 339.28 -3.50869 2.70935 0
M  V30 3559 H 336.5 -0.423093 0.520801 0
M  V30 3560 H 339.044 -0.728527 1.91083 0
M  V30 3561 H 337.199 -3.19615 2.18917 0
M  V30 3562 H 337.613 -2.88425 4.38077 0
M  V30 3563 H 339.087 -4.31451 3.44317 0
M  V30 3564 H 339.564 -4.01822 1.77301 0
M  V30 3565 H 340.17 -2.95225 3.06141 0
M  V30 3566 N 338.485 -1.33259 -0.841409 0
M  V30 3567 C 339.435 -1.19872 -1.93945 0
M  V30 3568 C 340.419 -0.102269 -1.60575 0
M  V30 3569 O 341.611 -0.330114 -1.73894 0
M  V30 3570 C 338.74 -0.937517 -3.30251 0
M  V30 3571 C 337.826 -2.07629 -3.69799 0
M  V30 3572 N 338.217 -3.32604 -3.81062 0
M  V30 3573 C 336.515 -1.98242 -3.9952 0
M  V30 3574 C 337.216 -4.07275 -4.15333 0
M  V30 3575 N 336.192 -3.35691 -4.27566 0
M  V30 3576 H 339.994 -2.14604 -2.00805 0
M  V30 3577 H 337.508 -1.2523 -1.03398 0
M  V30 3578 H 339.505 -0.822545 -4.08705 0
M  V30 3579 H 338.165 0.00128798 -3.247 0
M  V30 3580 H 339.176 -3.67382 -3.65035 0
M  V30 3581 H 335.853 -1.12005 -4.02195 0
M  V30 3582 H 337.243 -5.1511 -4.31406 0
M  V30 3583 N 339.963 1.05934 -1.16686 0
M  V30 3584 C 340.895 2.13468 -0.834503 0
M  V30 3585 C 341.908 1.62013 0.15984 0
M  V30 3586 O 343.097 1.7838 -0.0654228 0
M  V30 3587 C 340.197 3.3817 -0.222361 0
M  V30 3588 C 339.37 4.18928 -1.25771 0
M  V30 3589 C 338.429 5.21985 -0.664703 0
M  V30 3590 O 337.455 5.53334 -1.33453 0
M  V30 3591 N 338.657 5.77919 0.546834 0
M  V30 3592 H 341.422 2.42578 -1.75999 0
M  V30 3593 H 338.983 1.21967 -1.06469 0
M  V30 3594 H 340.975 4.04266 0.187472 0
M  V30 3595 H 339.545 3.06655 0.606758 0
M  V30 3596 H 338.765 3.48433 -1.84358 0
M  V30 3597 H 340.053 4.69687 -1.95631 0
M  V30 3598 H 339.451 5.54721 1.10912 0
M  V30 3599 H 338.008 6.45573 0.898829 0
M  V30 3600 N 341.441 0.965919 1.2453 0
M  V30 3601 C 342.666 0.643971 1.97149 0
M  V30 3602 C 343.091 -0.779487 1.71189 0
M  V30 3603 O 342.449 -1.5288 0.974553 0
M  V30 3604 C 342.497 0.922557 3.48599 0
M  V30 3605 O 341.601 0.00707672 4.12399 0
M  V30 3606 H 340.942 0.243647 0.617683 0
M  V30 3607 H 343.472 1.29558 1.58353 0
M  V30 3608 H 343.482 0.853373 3.98976 0
M  V30 3609 H 342.157 1.95996 3.66822 0
M  V30 3610 H 340.734 0.12943 3.72675 0
M  V30 3611 N 342.919 -1.39368 0.735821 0
M  V30 3612 C 343.849 -2.33234 0.111506 0
M  V30 3613 C 344.83 -1.53954 -0.723334 0
M  V30 3614 O 346.015 -1.82344 -0.668147 0
M  V30 3615 C 343.145 -3.38057 -0.795917 0
M  V30 3616 C 342.099 -4.2795 -0.065172 0
M  V30 3617 C 341.425 -5.23479 -1.08967 0
M  V30 3618 C 342.725 -5.10741 1.09273 0
M  V30 3619 H 344.419 -2.85692 0.895571 0
M  V30 3620 H 341.965 -1.37364 0.432109 0
M  V30 3621 H 343.918 -4.02675 -1.24221 0
M  V30 3622 H 342.642 -2.8404 -1.61211 0
M  V30 3623 H 341.301 -3.64813 0.361511 0
M  V30 3624 H 340.949 -4.65758 -1.89944 0
M  V30 3625 H 340.649 -5.84472 -0.605489 0
M  V30 3626 H 342.173 -5.90974 -1.53565 0
M  V30 3627 H 343.587 -5.68699 0.724841 0
M  V30 3628 H 341.984 -5.8088 1.50659 0
M  V30 3629 H 343.054 -4.45525 1.91404 0
M  V30 3630 N 344.397 -0.483516 -1.5 0
M  V30 3631 C 345.646 0.0689102 -2.01582 0
M  V30 3632 C 345.959 1.39655 -1.36952 0
M  V30 3633 O 347.165 2.03465 -1.79762 0
M  V30 3634 C 345.621 0.173302 -3.59483 0
M  V30 3635 C 345.229 -1.14665 -4.33077 0
M  V30 3636 C 346.973 0.677024 -4.19066 0
M  V30 3637 C 344.88 -1.00537 -5.82792 0
M  V30 3638 H 343.81 0.0295277 -0.753422 0
M  V30 3639 H 346.461 -0.620295 -1.72698 0
M  V30 3640 H 344.843 0.926569 -3.85007 0
M  V30 3641 H 346.017 -1.91184 -4.19268 0
M  V30 3642 H 344.332 -1.58244 -3.85159 0
M  V30 3643 H 346.929 0.799952 -5.28682 0
M  V30 3644 H 347.272 1.67151 -3.81269 0
M  V30 3645 H 347.805 -0.0192083 -3.97795 0
M  V30 3646 H 344.544 -1.9736 -6.25083 0
M  V30 3647 H 344.064 -0.280776 -5.99142 0
M  V30 3648 H 345.743 -0.677 -6.43448 0
M  V30 3649 N 345.875 1.56104 -0.216619 0
M  V30 3650 C 346.785 2.23694 0.706982 0
M  V30 3651 C 347.801 1.24295 1.21765 0
M  V30 3652 O 348.977 1.57094 1.2603 0
M  V30 3653 C 346.042 2.8998 1.90033 0
M  V30 3654 C 345.103 4.04708 1.43213 0
M  V30 3655 C 344.336 4.67824 2.56859 0
M  V30 3656 O 344.559 4.29913 3.74874 0
M  V30 3657 O 343.493 5.56905 2.28343 0
M  V30 3658 H 347.319 3.03272 0.161235 0
M  V30 3659 H 344.904 1.49394 0.0136177 0
M  V30 3660 H 346.786 3.31837 2.59735 0
M  V30 3661 H 345.461 2.13365 2.43428 0
M  V30 3662 H 344.368 3.6743 0.70327 0
M  V30 3663 H 345.701 4.83051 0.944615 0
M  V30 3664 N 347.353 -0.0568162 1.57498 0
M  V30 3665 C 348.316 -1.05038 2.03715 0
M  V30 3666 C 349.316 -1.30709 0.936577 0
M  V30 3667 O 350.506 -1.26178 1.20103 0
M  V30 3668 C 347.638 -2.39034 2.43055 0
M  V30 3669 H 348.831 -0.651715 2.92733 0
M  V30 3670 H 346.384 -0.302947 1.53336 0
M  V30 3671 H 347.119 -2.83703 1.57108 0
M  V30 3672 H 346.904 -2.21739 3.2338 0
M  V30 3673 H 348.394 -3.10421 2.79336 0
M  V30 3674 N 348.832 -1.54138 -0.328536 0
M  V30 3675 C 350.057 -1.76378 -1.09112 0
M  V30 3676 C 350.482 -0.508596 -1.81094 0
M  V30 3677 O 349.84 0.539598 -1.73084 0
M  V30 3678 C 349.888 -2.95358 -2.06872 0
M  V30 3679 O 348.992 -2.66556 -3.14677 0
M  V30 3680 H 348.333 -0.584614 -0.314838 0
M  V30 3681 H 350.863 -2.01146 -0.374348 0
M  V30 3682 H 350.873 -3.22566 -2.4983 0
M  V30 3683 H 349.548 -3.86385 -1.5388 0
M  V30 3684 H 348.125 -2.50282 -2.7643 0
M  V30 3685 N 350.31 0.590341 -1.46126 0
M  V30 3686 C 351.258 1.72105 -1.5647 0
M  V30 3687 C 352.252 1.63756 -0.433612 0
M  V30 3688 O 353.458 1.69342 -0.610194 0
M  V30 3689 H 349.833 0.568889 -0.491802 0
M  V30 3690 H 351.804 1.6051 -2.51553 0
M  V30 3691 C 350.553 3.10493 -1.56491 0
M  V30 3692 H 349.876 3.17583 -2.4286 0
M  V30 3693 H 351.316 3.8939 -1.67785 0
M  V30 3694 C 349.775 3.3563 -0.292231 0
M  V30 3695 O 350.305 3.96875 0.620739 0
M  V30 3696 N 348.511 2.90026 -0.182523 0
M  V30 3697 H 348.058 2.40367 -0.926356 0
M  V30 3698 H 348.016 3.07218 0.668152 0
M  V30 3699 N 351.788 1.33704 0.83433 0
M  V30 3700 C 353.035 1.25417 1.58987 0
M  V30 3701 C 353.363 -0.178869 1.93676 0
M  V30 3702 O 352.618 -1.13723 1.59265 0
M  V30 3703 C 352.917 2.07926 2.90692 0
M  V30 3704 C 352.583 3.57066 2.75345 0
M  V30 3705 C 351.245 3.97724 2.70867 0
M  V30 3706 C 353.597 4.51817 2.59828 0
M  V30 3707 C 350.925 5.31344 2.48778 0
M  V30 3708 C 353.277 5.85604 2.39272 0
M  V30 3709 C 351.941 6.25439 2.33199 0
M  V30 3710 H 351.211 0.458934 0.581774 0
M  V30 3711 H 353.858 1.65335 0.966261 0
M  V30 3712 H 352.163 1.608 3.57282 0
M  V30 3713 H 353.86 1.98868 3.48213 0
M  V30 3714 H 350.45 3.24785 2.79665 0
M  V30 3715 H 354.634 4.21311 2.62319 0
M  V30 3716 H 349.89 5.61241 2.42526 0
M  V30 3717 H 354.064 6.58623 2.2625 0
M  V30 3718 H 351.691 7.28914 2.15843 0
M  V30 3719 N 353.266 -1.05314 1.17247 0
M  V30 3720 C 354.515 -1.77685 0.954521 0
M  V30 3721 C 354.828 -1.88616 -0.518025 0
M  V30 3722 O 356.034 -2.57714 -0.854144 0
M  V30 3723 C 354.49 -3.19402 1.65863 0
M  V30 3724 C 354.098 -3.16605 3.16963 0
M  V30 3725 C 355.842 -3.96237 1.52303 0
M  V30 3726 C 353.749 -4.53103 3.80068 0
M  V30 3727 H 352.679 -0.666 0.353496 0
M  V30 3728 H 355.33 -1.1805 1.40486 0
M  V30 3729 H 353.712 -3.79355 1.13602 0
M  V30 3730 H 354.886 -2.66176 3.76148 0
M  V30 3731 H 353.201 -2.53268 3.30521 0
M  V30 3732 H 355.798 -4.97157 1.96822 0
M  V30 3733 H 356.141 -4.136 0.473401 0
M  V30 3734 H 356.674 -3.42829 2.01775 0
M  V30 3735 H 353.413 -4.40946 4.85023 0
M  V30 3736 H 352.933 -5.03686 3.2567 0
M  V30 3737 H 354.612 -5.22045 3.82202 0
M  V30 3738 N 354.744 -0.972509 -1.24016 0
M  V30 3739 C 355.707 -0.511403 -2.23422 0
M  V30 3740 C 356.707 0.394679 -1.55881 0
M  V30 3741 O 357.897 0.189469 -1.73167 0
M  V30 3742 C 355.029 0.258769 -3.39916 0
M  V30 3743 H 356.222 -1.39024 -2.6573 0
M  V30 3744 H 353.775 -0.757585 -1.36713 0
M  V30 3745 H 354.51 1.1545 -3.03054 0
M  V30 3746 H 354.295 -0.391522 -3.9014 0
M  V30 3747 H 355.785 0.570244 -4.13688 0
M  V30 3748 N 356.222 1.38976 -0.743202 0
M  V30 3749 C 357.45 2.04636 -0.30525 0
M  V30 3750 C 357.865 1.56044 1.06281 0
M  V30 3751 O 357.222 0.728921 1.67311 0
M  V30 3752 C 357.273 3.60193 -0.307177 0
M  V30 3753 O 356.994 4.06998 -1.62124 0
M  V30 3754 C 358.495 4.4306 0.145928 0
M  V30 3755 H 355.715 0.65788 -0.132041 0
M  V30 3756 H 358.259 1.77866 -1.00915 0
M  V30 3757 H 356.414 3.85835 0.347898 0
M  V30 3758 H 356.828 5.01371 -1.54036 0
M  V30 3759 H 358.302 5.51921 0.0934183 0
M  V30 3760 H 358.779 4.22706 1.19231 0
M  V30 3761 H 359.385 4.22584 -0.479886 0
M  V30 3762 N 357.7 0.491464 1.49741 0
M  V30 3763 C 358.949 -0.0582189 2.01616 0
M  V30 3764 C 359.262 -1.38927 1.3769 0
M  V30 3765 O 360.468 -2.02509 1.80838 0
M  V30 3766 C 358.924 -0.154235 3.59569 0
M  V30 3767 C 358.532 1.1696 4.32463 0
M  V30 3768 C 360.276 -0.65479 4.1942 0
M  V30 3769 C 358.183 1.03627 5.8225 0
M  V30 3770 H 357.113 -0.0255317 0.753568 0
M  V30 3771 H 359.764 0.629445 1.72367 0
M  V30 3772 H 358.146 -0.906138 3.85493 0
M  V30 3773 H 359.32 1.93405 4.18248 0
M  V30 3774 H 357.635 1.60285 3.84315 0
M  V30 3775 H 360.232 -0.771903 5.29099 0
M  V30 3776 H 360.575 -1.65127 3.8215 0
M  V30 3777 H 361.108 0.040304 3.9778 0
M  V30 3778 H 357.847 2.00672 6.24028 0
M  V30 3779 H 357.367 0.312546 5.98985 0
M  V30 3780 H 359.046 0.711114 6.4308 0
M  V30 3781 N 359.178 -1.55987 0.224894 0
M  V30 3782 C 360.088 -2.24066 -0.69511 0
M  V30 3783 C 361.104 -1.24939 -1.21104 0
M  V30 3784 O 362.28 -1.5776 -1.25195 0
M  V30 3785 C 359.345 -2.90983 -1.88493 0
M  V30 3786 C 358.406 -4.05462 -1.41064 0
M  V30 3787 C 357.639 -4.69179 -2.54375 0
M  V30 3788 O 357.862 -4.31895 -3.72589 0
M  V30 3789 O 356.796 -5.58108 -2.25386 0
M  V30 3790 H 360.622 -3.03353 -0.145149 0
M  V30 3791 H 358.207 -1.49399 -0.00569476 0
M  V30 3792 H 360.089 -3.33209 -2.57972 0
M  V30 3793 H 358.764 -2.14653 -2.42293 0
M  V30 3794 H 357.671 -3.67798 -0.683774 0
M  V30 3795 H 359.004 -4.83545 -0.918985 0
M  V30 3796 N 360.656 0.0484629 -1.57525 0
M  V30 3797 C 361.566 1.07241 -2.08654 0
M  V30 3798 C 362.582 1.409 -1.02095 0
M  V30 3799 O 363.758 1.50609 -1.33712 0
M  V30 3800 C 360.823 2.36008 -2.5397 0
M  V30 3801 C 359.884 2.09108 -3.7493 0
M  V30 3802 C 359.117 3.31736 -4.18075 0
M  V30 3803 O 359.34 4.41714 -3.60895 0
M  V30 3804 O 358.274 3.18576 -5.10679 0
M  V30 3805 H 362.1 0.667965 -2.96263 0
M  V30 3806 H 359.685 0.26417 -1.47046 0
M  V30 3807 H 361.567 3.11747 -2.83535 0
M  V30 3808 H 360.242 2.75786 -1.69481 0
M  V30 3809 H 359.149 1.31 -3.50414 0
M  V30 3810 H 360.482 1.74198 -4.60343 0
M  V30 3811 N 362.134 1.5431 0.320358 0
M  V30 3812 C 363.55 1.45091 0.664889 0
M  V30 3813 C 363.75 0.626382 1.91517 0
M  V30 3814 O 362.806 0.126443 2.52183 0
M  V30 3815 C 364.119 2.88848 0.83591 0
M  V30 3816 C 365.667 2.9877 0.933046 0
M  V30 3817 C 366.142 4.43683 1.13621 0
M  V30 3818 N 367.633 4.47309 1.20287 0
M  V30 3819 C 368.368 5.56595 1.37801 0
M  V30 3820 N 367.864 6.75844 1.52338 0
M  V30 3821 N 369.657 5.44248 1.40535 0
M  V30 3822 H 361.808 2.06398 -0.501374 0
M  V30 3823 H 364.071 0.933963 -0.162534 0
M  V30 3824 H 363.777 3.51698 -0.0116092 0
M  V30 3825 H 363.651 3.35148 1.73078 0
M  V30 3826 H 366.038 2.36045 1.77107 0
M  V30 3827 H 366.119 2.55796 0.0145782 0
M  V30 3828 H 365.763 5.06995 0.303032 0
M  V30 3829 H 365.693 4.84269 2.0686 0
M  V30 3830 H 368.184 3.61388 1.10485 0
M  V30 3831 H 368.497 7.54892 1.65403 0
M  V30 3832 H 366.842 6.78746 1.4943 0
M  V30 3833 H 370.033 4.50038 1.28777 0
M  V30 3834 H 370.206 6.29473 1.53842 0
M  V30 3835 N 363.613 -0.582584 1.46437 0
M  V30 3836 C 364.545 -1.70618 1.53043 0
M  V30 3837 C 365.558 -1.57322 0.418769 0
M  V30 3838 O 366.747 -1.64744 0.687136 0
M  V30 3839 C 363.847 -3.08869 1.39474 0
M  V30 3840 C 363.02 -3.48166 2.64762 0
M  V30 3841 C 362.079 -4.65478 2.4539 0
M  V30 3842 O 361.105 -4.71333 3.19114 0
M  V30 3843 N 362.307 -5.60365 1.51564 0
M  V30 3844 H 365.072 -1.65405 2.49923 0
M  V30 3845 H 362.633 -0.768567 1.42494 0
M  V30 3846 H 364.625 -3.85143 1.24287 0
M  V30 3847 H 363.195 -3.08449 0.507758 0
M  V30 3848 H 362.415 -2.61598 2.9489 0
M  V30 3849 H 363.703 -3.71188 3.4799 0
M  V30 3850 H 363.101 -5.5837 0.907705 0
M  V30 3851 H 361.658 -6.36068 1.4234 0
M  V30 3852 N 365.091 -1.34144 -0.827227 0
M  V30 3853 C 366.339 -1.26009 -1.58007 0
M  V30 3854 C 366.66 0.170971 -1.94249 0
M  V30 3855 O 365.93 1.10256 -1.61927 0
M  V30 3856 H 364.51 -0.463414 -0.585881 0
M  V30 3857 H 367.172 -1.68005 -0.987951 0
M  V30 3858 H 366.268 -1.86187 -2.50481 0
M  V30 3859 N 366.569 1.04691 -1.17803 0
M  V30 3860 C 367.499 2.14494 -0.92275 0
M  V30 3861 C 368.48 1.69546 0.137179 0
M  V30 3862 O 369.665 1.94195 -0.0141108 0
M  V30 3863 C 366.795 3.44491 -0.440803 0
M  V30 3864 C 365.749 4.03031 -1.4405 0
M  V30 3865 C 365.075 5.28432 -0.81631 0
M  V30 3866 C 366.375 4.39932 -2.81527 0
M  V30 3867 H 368.069 2.36107 -1.84103 0
M  V30 3868 H 365.615 1.1347 -0.886599 0
M  V30 3869 H 367.568 4.2066 -0.249602 0
M  V30 3870 H 366.292 3.22546 0.513025 0
M  V30 3871 H 364.951 3.28937 -1.61853 0
M  V30 3872 H 364.599 5.02792 0.144511 0
M  V30 3873 H 364.299 5.68559 -1.48371 0
M  V30 3874 H 365.823 6.07284 -0.635496 0
M  V30 3875 H 367.237 5.07113 -2.67412 0
M  V30 3876 H 365.634 4.9109 -3.44892 0
M  V30 3877 H 366.704 3.50045 -3.35554 0
M  V30 3878 N 368.047 0.979072 1.23499 0
M  V30 3879 C 368.994 0.517904 2.24914 0
M  V30 3880 C 369.964 -0.442525 1.60097 0
M  V30 3881 O 371.149 -0.350365 1.87556 0
M  V30 3882 C 368.289 -0.174813 3.44657 0
M  V30 3883 C 367.402 0.825721 4.24035 0
M  V30 3884 C 366.537 0.107946 5.3109 0
M  V30 3885 C 365.576 1.09778 6.02175 0
M  V30 3886 N 364.713 0.40925 7.00906 0
M  V30 3887 H 369.553 1.38751 2.63727 0
M  V30 3888 H 367.09 0.695303 1.2963 0
M  V30 3889 H 369.048 -0.593233 4.12961 0
M  V30 3890 H 367.678 -1.0083 3.06648 0
M  V30 3891 H 366.73 1.36253 3.55161 0
M  V30 3892 H 368.042 1.58005 4.73113 0
M  V30 3893 H 367.196 -0.367904 6.05583 0
M  V30 3894 H 365.935 -0.678994 4.8295 0
M  V30 3895 H 364.94 1.5844 5.26476 0
M  V30 3896 H 366.165 1.88536 6.52404 0
M  V30 3897 H 364.111 -0.358506 6.5502 0
M  V30 3898 H 364.028 1.10226 7.47921 0
M  V30 3899 H 365.296 -0.0442557 7.79487 0
M  V30 3900 N 369.525 -1.3858 0.750561 0
M  V30 3901 C 370.771 -2.00481 0.305825 0
M  V30 3902 C 371.104 -1.5944 -1.10872 0
M  V30 3903 O 370.379 -0.83052 -1.75877 0
M  V30 3904 C 370.662 -3.5758 0.425287 0
M  V30 3905 C 370.515 -4.08594 1.88072 0
M  V30 3906 C 371.834 -4.39719 -0.183122 0
M  V30 3907 H 368.953 -0.728348 0.112598 0
M  V30 3908 H 371.595 -1.64566 0.949638 0
M  V30 3909 H 369.745 -3.88306 -0.122828 0
M  V30 3910 H 371.417 -3.88523 2.48691 0
M  V30 3911 H 369.66 -3.61574 2.39681 0
M  V30 3912 H 370.331 -5.177 1.91548 0
M  V30 3913 H 372.807 -4.15128 0.284303 0
M  V30 3914 H 371.683 -5.48856 -0.0692757 0
M  V30 3915 H 371.944 -4.23434 -1.27106 0
M  V30 3916 N 371.003 -0.499398 -1.49478 0
M  V30 3917 C 372.228 0.044722 -2.07352 0
M  V30 3918 C 372.653 1.30207 -1.35749 0
M  V30 3919 O 372.011 1.76516 -0.413732 0
M  V30 3920 C 372.059 0.283013 -3.59488 0
M  V30 3921 O 371.163 1.35804 -3.89398 0
M  V30 3922 H 370.504 -0.0255147 -0.66351 0
M  V30 3923 H 373.034 -0.698561 -1.92305 0
M  V30 3924 H 373.044 0.515007 -4.04737 0
M  V30 3925 H 371.719 -0.635636 -4.11014 0
M  V30 3926 H 370.296 1.11113 -3.55961 0
M  V30 3927 N 372.481 1.55866 -0.233164 0
M  V30 3928 C 373.721 2.00506 0.397078 0
M  V30 3929 C 374.085 1.1176 1.56121 0
M  V30 3930 O 375.286 1.45796 2.25825 0
M  V30 3931 C 373.557 3.4811 0.809601 0
M  V30 3932 S 375.116 4.14765 1.43231 0
M  V30 3933 H 371.934 0.699828 0.125547 0
M  V30 3934 H 374.536 1.92429 -0.345177 0
M  V30 3935 H 373.24 4.10373 -0.0471601 0
M  V30 3936 H 372.771 3.60085 1.58438 0
M  V30 3937 H 374.786 4.14914 2.7214 0
M  V30 3938 N 373.959 -0.0401083 1.57549 0
M  V30 3939 C 375.37 -0.588097 1.77196 0
M  V30 3940 C 375.721 -1.76209 0.862832 0
M  V30 3941 O 374.846 -2.16331 0.0548389 0
M  V30 3942 C 375.441 -1.07363 3.21339 0
M  V30 3943 C 374 -1.56723 3.42221 0
M  V30 3944 C 373.147 -0.50041 2.72747 0
M  V30 3945 H 376.098 0.186119 1.57605 0
M  V30 3946 H 376.119 -1.94143 3.27244 0
M  V30 3947 H 375.631 -0.218975 3.87482 0
M  V30 3948 H 373.732 -2.4441 2.81237 0
M  V30 3949 H 373.845 -1.62234 4.50796 0
M  V30 3950 H 372.209 -0.952894 2.36203 0
M  V30 3951 H 372.992 0.344599 3.41566 0
M  V30 3952 N 375.437 -1.54477 -0.31217 0
M  V30 3953 C 376.347 -1.87695 -1.4074 0
M  V30 3954 C 377.363 -0.769975 -1.56036 0
M  V30 3955 O 378.539 -1.06537 -1.70915 0
M  V30 3956 C 375.604 -2.10755 -2.75287 0
M  V30 3957 C 374.665 -3.34514 -2.69071 0
M  V30 3958 C 373.898 -3.56465 -3.97201 0
M  V30 3959 O 374.121 -2.81637 -4.96021 0
M  V30 3960 O 373.055 -4.49964 -3.9977 0
M  V30 3961 H 376.881 -2.80849 -1.15574 0
M  V30 3962 H 374.466 -1.40526 -0.507228 0
M  V30 3963 H 376.348 -2.27188 -3.54913 0
M  V30 3964 H 375.023 -1.20788 -3.0032 0
M  V30 3965 H 373.93 -3.23456 -1.87955 0
M  V30 3966 H 375.263 -4.24575 -2.48992 0
M  V30 3967 N 376.915 0.57481 -1.46744 0
M  V30 3968 C 377.825 1.711 -1.60505 0
M  V30 3969 C 378.841 1.67008 -0.488307 0
M  V30 3970 O 380.017 1.86774 -0.753495 0
M  V30 3971 C 377.082 3.07608 -1.59932 0
M  V30 3972 C 376.143 3.22904 -2.82898 0
M  V30 3973 C 375.376 4.529 -2.82343 0
M  V30 3974 O 375.599 5.37278 -1.91542 0
M  V30 3975 O 374.533 4.71611 -3.73987 0
M  V30 3976 H 378.359 1.62436 -2.56609 0
M  V30 3977 H 375.944 0.742779 -1.29627 0
M  V30 3978 H 377.826 3.88877 -1.62336 0
M  V30 3979 H 376.501 3.16692 -0.669898 0
M  V30 3980 H 375.408 2.41099 -2.86046 0
M  V30 3981 H 376.741 3.18715 -3.75076 0
M  V30 3982 N 378.394 1.34581 0.820102 0
M  V30 3983 C 379.643 1.26437 1.57151 0
M  V30 3984 C 379.956 -0.163111 1.94919 0
M  V30 3985 O 381.162 -0.366722 2.69012 0
M  V30 3986 C 379.618 2.21658 2.83541 0
M  V30 3987 C 379.226 3.69679 2.53065 0
M  V30 3988 C 380.97 2.22428 3.61561 0
M  V30 3989 C 378.877 4.56761 3.75664 0
M  V30 3990 H 377.807 0.469707 0.589823 0
M  V30 3991 H 380.458 1.59763 0.902656 0
M  V30 3992 H 378.84 1.81287 3.52067 0
M  V30 3993 H 380.014 4.18605 1.92631 0
M  V30 3994 H 378.329 3.71384 1.88316 0
M  V30 3995 H 380.926 2.8471 4.52597 0
M  V30 3996 H 381.269 1.22434 3.97889 0
M  V30 3997 H 381.802 2.61259 2.99981 0
M  V30 3998 H 378.541 5.57702 3.44454 0
M  V30 3999 H 378.061 4.12568 4.35371 0
M  V30 4000 H 379.74 4.71509 4.43044 0
M  V30 4001 N 379.872 -1.04064 1.18357 0
M  V30 4002 C 380.835 -2.10243 0.912707 0
M  V30 4003 C 381.835 -1.60477 -0.101928 0
M  V30 4004 O 383.025 -1.73703 0.131517 0
M  V30 4005 C 380.157 -3.38893 0.369387 0
M  V30 4006 H 381.35 -2.35706 1.85426 0
M  V30 4007 H 378.903 -1.20489 0.995594 0
M  V30 4008 H 379.638 -3.19094 -0.578776 0
M  V30 4009 H 379.423 -3.76331 1.1008 0
M  V30 4010 H 380.913 -4.17128 0.198575 0
M  V30 4011 N 381.35 -0.985608 -1.22978 0
M  V30 4012 C 382.597 -0.657386 -1.91532 0
M  V30 4013 C 382.925 0.809707 -1.76845 0
M  V30 4014 O 382.18 1.60021 -1.12658 0
M  V30 4015 C 382.479 -1.00014 -3.43121 0
M  V30 4016 C 382.145 -2.4583 -3.77993 0
M  V30 4017 C 380.807 -2.85679 -3.87222 0
M  V30 4018 C 383.159 -3.40378 -3.94705 0
M  V30 4019 C 380.487 -4.19081 -4.10595 0
M  V30 4020 C 382.839 -4.73429 -4.1958 0
M  V30 4021 C 381.503 -5.1303 -4.27032 0
M  V30 4022 H 380.773 -0.240555 -0.700867 0
M  V30 4023 H 383.42 -1.24044 -1.45895 0
M  V30 4024 H 381.725 -0.335072 -3.90365 0
M  V30 4025 H 383.422 -0.724322 -3.94404 0
M  V30 4026 H 380.012 -2.13939 -3.71387 0
M  V30 4027 H 384.196 -3.10766 -3.8696 0
M  V30 4028 H 379.452 -4.49362 -4.14589 0
M  V30 4029 H 383.626 -5.46644 -4.31455 0
M  V30 4030 H 381.253 -6.16418 -4.44896 0
M  V30 4031 N 382.828 1.3818 -0.7579 0
M  V30 4032 C 384.244 1.5353 -0.435972 0
M  V30 4033 C 384.444 1.71961 1.05032 0
M  V30 4034 O 383.5 1.73307 1.83633 0
M  V30 4035 C 384.813 2.73989 -1.23898 0
M  V30 4036 C 386.361 2.87841 -1.22949 0
M  V30 4037 C 386.836 4.11266 -2.01554 0
M  V30 4038 N 388.327 4.18352 -1.98837 0
M  V30 4039 C 389.062 5.12856 -2.5645 0
M  V30 4040 N 388.558 6.13005 -3.22794 0
M  V30 4041 N 390.351 5.05238 -2.46356 0
M  V30 4042 H 382.502 1.24467 -1.7211 0
M  V30 4043 H 384.765 0.604982 -0.729864 0
M  V30 4044 H 384.471 2.66789 -2.29165 0
M  V30 4045 H 384.345 3.67294 -0.858764 0
M  V30 4046 H 386.732 2.9452 -0.184854 0
M  V30 4047 H 386.813 1.95534 -1.64924 0
M  V30 4048 H 386.457 4.05349 -3.06031 0
M  V30 4049 H 386.387 5.02661 -1.5697 0
M  V30 4050 H 388.878 3.46628 -1.50524 0
M  V30 4051 H 389.191 6.81619 -3.64165 0
M  V30 4052 H 387.536 6.13325 -3.2689 0
M  V30 4053 H 390.727 4.25938 -1.9415 0
M  V30 4054 H 390.9 5.78707 -2.91552 0
M  V30 4055 N 384.306 0.507319 1.49211 0
M  V30 4056 C 385.253 -0.267728 2.29242 0
M  V30 4057 C 386.223 -0.954609 1.35928 0
M  V30 4058 O 387.408 -0.960046 1.64887 0
M  V30 4059 C 384.548 -1.32243 3.18756 0
M  V30 4060 C 383.661 -0.64669 4.27132 0
M  V30 4061 C 382.796 -1.68238 5.03855 0
M  V30 4062 C 381.835 -0.98885 6.0406 0
M  V30 4063 N 380.972 -1.96903 6.73924 0
M  V30 4064 H 385.812 0.420968 2.95012 0
M  V30 4065 H 383.349 0.219443 1.45454 0
M  V30 4066 H 385.307 -1.94599 3.69036 0
M  V30 4067 H 383.937 -1.97981 2.54958 0
M  V30 4068 H 382.989 0.0902926 3.80293 0
M  V30 4069 H 384.301 -0.101058 4.98698 0
M  V30 4070 H 383.455 -2.38081 5.58034 0
M  V30 4071 H 382.194 -2.26187 4.32077 0
M  V30 4072 H 381.199 -0.276222 5.49106 0
M  V30 4073 H 382.424 -0.415767 6.77826 0
M  V30 4074 H 380.37 -2.53803 6.04913 0
M  V30 4075 H 380.287 -1.47423 7.41487 0
M  V30 4076 H 381.555 -2.66015 7.32705 0
M  V30 4077 N 385.784 -1.5574 0.241426 0
M  V30 4078 C 386.732 -2.22538 -0.676718 0
M  V30 4079 C 387.726 -1.21117 -1.18436 0
M  V30 4080 O 388.932 -1.39144 -1.14188 0
M  V30 4081 H 385.307 -0.713776 -0.236701 0
M  V30 4082 H 387.278 -2.98264 -0.0901187 0
M  V30 4083 C 386.027 -2.93439 -1.86518 0
M  V30 4084 H 385.35 -3.7125 -1.4837 0
M  V30 4085 H 386.79 -3.43549 -2.48495 0
M  V30 4086 C 385.249 -1.97008 -2.73294 0
M  V30 4087 O 385.779 -1.49965 -3.72657 0
M  V30 4088 N 383.985 -1.64227 -2.39745 0
M  V30 4089 H 383.532 -2.02677 -1.58996 0
M  V30 4090 H 383.49 -0.999708 -2.98083 0
M  V30 4091 N 387.262 0.0317525 -1.57568 0
M  V30 4092 C 388.509 0.723104 -1.89149 0
M  V30 4093 C 388.837 1.75504 -0.838377 0
M  V30 4094 O 388.092 1.95037 0.160982 0
M  V30 4095 C 388.391 1.43167 -3.27472 0
M  V30 4096 C 388.057 0.535972 -4.47703 0
M  V30 4097 C 386.719 0.289262 -4.8033 0
M  V30 4098 C 389.071 -0.0826125 -5.21135 0
M  V30 4099 C 386.399 -0.584853 -5.83778 0
M  V30 4100 C 388.751 -0.944414 -6.25511 0
M  V30 4101 C 387.415 -1.20061 -6.56614 0
M  V30 4102 H 386.685 0.264602 -0.692146 0
M  V30 4103 H 389.332 -0.0169496 -1.91492 0
M  V30 4104 H 387.637 2.24497 -3.21105 0
M  V30 4105 H 389.334 1.97209 -3.49155 0
M  V30 4106 H 385.924 0.738414 -4.22191 0
M  V30 4107 H 390.108 0.0950302 -4.96209 0
M  V30 4108 H 385.364 -0.79168 -6.06253 0
M  V30 4109 H 389.538 -1.43026 -6.81554 0
M  V30 4110 H 387.165 -1.87967 -7.36595 0
M  V30 4111 N 388.74 1.54641 0.303973 0
M  V30 4112 C 389.989 1.7299 1.03717 0
M  V30 4113 C 390.302 0.521168 1.88529 0
M  V30 4114 O 391.508 0.586408 2.65092 0
M  V30 4115 C 389.964 3.06051 1.89369 0
M  V30 4116 C 389.572 4.34393 1.09574 0
M  V30 4117 C 391.316 3.3376 2.62306 0
M  V30 4118 C 389.223 5.58506 1.94486 0
M  V30 4119 H 388.153 0.64473 0.390947 0
M  V30 4120 H 390.804 1.81124 0.294328 0
M  V30 4121 H 389.186 2.91874 2.67629 0
M  V30 4122 H 390.36 4.59396 0.359485 0
M  V30 4123 H 388.675 4.13597 0.482324 0
M  V30 4124 H 391.272 4.23687 3.26181 0
M  V30 4125 H 391.615 2.52503 3.3098 0
M  V30 4126 H 392.148 3.48894 1.91097 0
M  V30 4127 H 388.887 6.42422 1.30287 0
M  V30 4128 H 388.407 5.37694 2.65792 0
M  V30 4129 H 390.086 5.95651 2.52605 0
M  V30 4130 N 390.218 -0.567019 1.47046 0
M  V30 4131 C 391.166 -1.69593 1.59188 0
M  V30 4132 C 392.16 -1.63046 0.459609 0
M  V30 4133 O 393.366 -1.6835 0.637058 0
M  V30 4134 H 389.741 -0.560993 0.500791 0
M  V30 4135 H 391.712 -1.56488 2.54075 0
M  V30 4136 C 390.461 -3.07964 1.61411 0
M  V30 4137 H 389.784 -3.13679 2.47881 0
M  V30 4138 H 391.224 -3.86671 1.73958 0
M  V30 4139 C 389.683 -3.35123 0.34559 0
M  V30 4140 O 390.213 -3.97812 -0.557521 0
M  V30 4141 N 388.419 -2.89699 0.22864 0
M  V30 4142 H 387.966 -2.38863 0.964479 0
M  V30 4143 H 387.924 -3.08242 -0.619192 0
M  V30 4144 N 391.696 -1.35014 -0.812953 0
M  V30 4145 C 392.659 -1.27292 -1.90602 0
M  V30 4146 C 393.659 -0.185817 -1.59723 0
M  V30 4147 O 394.849 -0.439102 -1.68575 0
M  V30 4148 C 391.981 -0.967676 -3.26877 0
M  V30 4149 H 393.174 -2.24479 -1.9887 0
M  V30 4150 H 390.727 -1.19446 -1.00808 0
M  V30 4151 H 391.462 0.0005954 -3.243 0
M  V30 4152 H 391.247 -1.75412 -3.50675 0
M  V30 4153 H 392.737 -0.939085 -4.06904 0
M  V30 4154 N 393.175 1.03435 -1.18907 0
M  V30 4155 C 394.107 2.1165 -0.879595 0
M  V30 4156 C 395.12 1.62316 0.125439 0
M  V30 4157 O 396.309 1.78201 -0.103245 0
M  V30 4158 C 393.409 3.37622 -0.294042 0
M  V30 4159 C 392.582 4.16166 -1.34629 0
M  V30 4160 C 391.641 5.20457 -0.775274 0
M  V30 4161 O 390.667 5.50379 -1.4516 0
M  V30 4162 N 391.869 5.78949 0.424126 0
M  V30 4163 H 394.634 2.38791 -1.81105 0
M  V30 4164 H 392.195 1.19681 -1.09032 0
M  V30 4165 H 394.187 4.04572 0.101679 0
M  V30 4166 H 392.757 3.07873 0.541575 0
M  V30 4167 H 391.977 3.44444 -1.91707 0
M  V30 4168 H 393.265 4.65432 -2.05549 0
M  V30 4169 H 392.663 5.56948 0.991209 0
M  V30 4170 H 391.22 6.47334 0.761691 0
M  V30 4171 N 394.653 0.992116 1.22453 0
M  V30 4172 C 395.585 0.500024 2.23679 0
M  V30 4173 C 396.598 -0.404463 1.57696 0
M  V30 4174 O 397.787 -0.206722 1.77299 0
M  V30 4175 C 394.887 -0.294711 3.37616 0
M  V30 4176 C 394.06 0.605723 4.33186 0
M  V30 4177 C 393.119 -0.13717 5.26021 0
M  V30 4178 O 392.145 0.477164 5.67196 0
M  V30 4179 N 393.347 -1.4197 5.62872 0
M  V30 4180 H 396.112 1.37045 2.66531 0
M  V30 4181 H 393.673 0.866741 1.36745 0
M  V30 4182 H 395.665 -0.800329 3.96707 0
M  V30 4183 H 394.235 -1.06623 2.93854 0
M  V30 4184 H 393.455 1.29202 3.72425 0
M  V30 4185 H 394.743 1.21896 4.93983 0
M  V30 4186 H 394.141 -1.94015 5.31389 0
M  V30 4187 H 392.698 -1.87052 6.24383 0
M  V30 4188 N 396.131 -1.37776 0.765217 0
M  V30 4189 C 397.377 -2.00145 0.327072 0
M  V30 4190 C 397.71 -1.60607 -1.09175 0
M  V30 4191 O 396.985 -0.849127 -1.74986 0
M  V30 4192 C 397.268 -3.57109 0.46319 0
M  V30 4193 C 397.121 -4.06576 1.92395 0
M  V30 4194 C 398.44 -4.39888 -0.136473 0
M  V30 4195 H 395.559 -0.727113 0.120316 0
M  V30 4196 H 398.201 -1.63549 0.967039 0
M  V30 4197 H 396.351 -3.88414 -0.0816358 0
M  V30 4198 H 398.023 -3.85864 2.52798 0
M  V30 4199 H 396.266 -3.59011 2.43503 0
M  V30 4200 H 396.937 -5.15639 1.97028 0
M  V30 4201 H 399.413 -4.14803 0.328317 0
M  V30 4202 H 398.289 -5.48899 -0.0110582 0
M  V30 4203 H 398.55 -4.24758 -1.22608 0
M  V30 4204 N 397.609 -0.515225 -1.4894 0
M  V30 4205 C 398.858 0.0261361 -2.01683 0
M  V30 4206 C 399.171 1.36719 -1.39883 0
M  V30 4207 O 400.377 1.99606 -1.84037 0
M  V30 4208 C 398.833 0.0970111 -3.59769 0
M  V30 4209 C 398.441 -1.23825 -4.30548 0
M  V30 4210 C 400.185 0.587981 -4.20408 0
M  V30 4211 C 398.092 -1.12877 -5.80528 0
M  V30 4212 H 397.022 0.0135398 -0.753878 0
M  V30 4213 H 399.673 -0.656787 -1.71343 0
M  V30 4214 H 398.055 0.844694 -3.86886 0
M  V30 4215 H 399.229 -2.00034 -4.15118 0
M  V30 4216 H 397.544 -1.66379 -3.81716 0
M  V30 4217 H 400.141 0.68763 -5.3026 0
M  V30 4218 H 400.484 1.59026 -3.84729 0
M  V30 4219 H 401.017 -0.103582 -3.97665 0
M  V30 4220 H 397.756 -2.10575 -6.20756 0
M  V30 4221 H 397.276 -0.407799 -5.98412 0
M  V30 4222 H 398.955 -0.813332 -6.41868 0
M  V30 4223 N 399.087 1.5561 -0.249682 0
M  V30 4224 C 399.997 2.25143 0.659375 0
M  V30 4225 C 401.013 1.2685 1.19101 0
M  V30 4226 O 402.189 1.59732 1.22669 0
M  V30 4227 C 399.254 2.93945 1.8384 0
M  V30 4228 C 398.315 4.07655 1.34596 0
M  V30 4229 C 397.548 4.73167 2.46878 0
M  V30 4230 O 397.771 4.37768 3.65671 0
M  V30 4231 O 396.705 5.61623 2.16478 0
M  V30 4232 H 400.531 3.03545 0.0968698 0
M  V30 4233 H 398.116 1.49389 -0.018074 0
M  V30 4234 H 399.998 3.37271 2.52638 0
M  V30 4235 H 398.673 2.18481 2.38847 0
M  V30 4236 H 397.58 3.68839 0.625174 0
M  V30 4237 H 398.913 4.84946 0.841941 0
M  V30 4238 N 400.565 -0.0233959 1.57583 0
M  V30 4239 C 401.495 -1.02162 2.09965 0
M  V30 4240 C 402.476 -1.3735 1.00344 0
M  V30 4241 O 403.661 -1.46135 1.27899 0
M  V30 4242 C 400.791 -2.32081 2.58371 0
M  V30 4243 C 399.745 -2.1112 3.72307 0
M  V30 4244 C 399.071 -3.46848 4.06941 0
M  V30 4245 C 400.371 -1.49276 5.00514 0
M  V30 4246 H 402.065 -0.585557 2.93618 0
M  V30 4247 H 399.611 -0.280218 1.41247 0
M  V30 4248 H 401.564 -3.02249 2.93639 0
M  V30 4249 H 400.288 -2.77758 1.71808 0
M  V30 4250 H 398.947 -1.43384 3.37397 0
M  V30 4251 H 398.595 -3.90184 3.17436 0
M  V30 4252 H 398.295 -3.33646 4.83688 0
M  V30 4253 H 399.819 -4.18369 4.44747 0
M  V30 4254 H 401.233 -2.09368 5.33702 0
M  V30 4255 H 399.63 -1.46632 5.8191 0
M  V30 4256 H 400.7 -0.459217 4.82721 0
M  V30 4257 N 402.043 -1.548 -0.295768 0
M  V30 4258 C 403.006 -1.85363 -1.34808 0
M  V30 4259 C 404.006 -0.726817 -1.43436 0
M  V30 4260 O 405.196 -0.995088 -1.42981 0
M  V30 4261 C 402.328 -2.03859 -2.73229 0
M  V30 4262 H 403.521 -2.7941 -1.08949 0
M  V30 4263 H 401.074 -1.46942 -0.532702 0
M  V30 4264 H 401.809 -1.12117 -3.04303 0
M  V30 4265 H 401.594 -2.8588 -2.68356 0
M  V30 4266 H 403.084 -2.28857 -3.49305 0
M  V30 4267 N 403.521 0.559213 -1.47345 0
M  V30 4268 C 404.769 1.31388 -1.53563 0
M  V30 4269 C 405.09 1.93985 -0.198678 0
M  V30 4270 O 404.36 1.79825 0.777167 0
M  V30 4271 H 402.94 0.487901 -0.565652 0
M  V30 4272 H 405.602 0.65315 -1.8363 0
M  V30 4273 H 404.698 2.10844 -2.30111 0
M  V30 4274 N 404.999 1.35443 0.805782 0
M  V30 4275 C 406.41 1.25768 1.37983 0
M  V30 4276 C 406.761 -0.10958 1.95894 0
M  V30 4277 O 405.886 -1.01056 1.91355 0
M  V30 4278 C 406.481 2.27727 2.5085 0
M  V30 4279 C 405.04 2.2179 3.04115 0
M  V30 4280 C 404.187 2.13393 1.77084 0
M  V30 4281 H 407.138 1.4656 0.608752 0
M  V30 4282 H 407.159 1.90422 3.29424 0
M  V30 4283 H 406.671 3.27227 2.08671 0
M  V30 4284 H 404.772 1.25703 3.50756 0
M  V30 4285 H 404.885 3.13788 3.62042 0
M  V30 4286 H 403.249 1.59384 1.98668 0
M  V30 4287 H 404.032 3.14755 1.37056 0
M  V30 4288 N 406.477 -1.02803 1.19454 0
M  V30 4289 C 407.407 -2.12999 0.956758 0
M  V30 4290 C 408.388 -1.69743 -0.110188 0
M  V30 4291 O 409.573 -1.94148 0.0450038 0
M  V30 4292 C 406.703 -3.43746 0.495553 0
M  V30 4293 C 405.657 -4.00688 1.50443 0
M  V30 4294 C 404.983 -5.27067 0.900275 0
M  V30 4295 C 406.283 -4.35397 2.8849 0
M  V30 4296 H 407.977 -2.33148 1.87836 0
M  V30 4297 H 405.523 -1.12045 0.904539 0
M  V30 4298 H 407.476 -4.2021 0.316493 0
M  V30 4299 H 406.2 -3.23321 -0.461646 0
M  V30 4300 H 404.859 -3.2632 1.67065 0
M  V30 4301 H 404.507 -5.02959 -0.064503 0
M  V30 4302 H 404.207 -5.66127 1.57397 0
M  V30 4303 H 405.731 -6.06196 0.73203 0
M  V30 4304 H 407.145 -5.02795 2.75446 0
M  V30 4305 H 405.542 -4.85541 3.52661 0
M  V30 4306 H 406.612 -3.44662 3.41081 0
M  V30 4307 N 407.956 -0.998596 -1.21925 0
M  V30 4308 C 409.181 -0.696015 -1.95372 0
M  V30 4309 C 409.606 0.733826 -1.73195 0
M  V30 4310 O 408.964 1.50242 -1.01474 0
M  V30 4311 C 409.012 -1.01466 -3.4603 0
M  V30 4312 O 408.116 -0.116415 -4.12236 0
M  V30 4313 H 407.457 -0.259938 -0.611006 0
M  V30 4314 H 409.987 -1.33711 -1.54863 0
M  V30 4315 H 409.997 -0.958855 -3.96573 0
M  V30 4316 H 408.672 -2.05653 -3.61497 0
M  V30 4317 H 407.249 -0.228193 -3.72201 0
M  V30 4318 N 409.434 1.37368 -0.772513 0
M  V30 4319 C 410.381 2.30262 -0.157488 0
M  V30 4320 C 411.351 1.51137 0.688965 0
M  V30 4321 O 412.536 1.79704 0.641168 0
M  V30 4322 C 409.676 3.37611 0.715045 0
M  V30 4323 C 408.789 4.31746 -0.148098 0
M  V30 4324 C 407.924 5.26171 0.729213 0
M  V30 4325 C 406.963 6.11948 -0.136418 0
M  V30 4326 N 406.1 6.98613 0.698914 0
M  V30 4327 H 410.94 2.82277 -0.955179 0
M  V30 4328 H 408.477 1.38957 -0.482631 0
M  V30 4329 H 410.435 3.98479 1.23575 0
M  V30 4330 H 409.065 2.86959 1.47833 0
M  V30 4331 H 408.117 3.72178 -0.786613 0
M  V30 4332 H 409.429 4.92084 -0.81579 0
M  V30 4333 H 408.583 5.92247 1.31637 0
M  V30 4334 H 407.322 4.66246 1.43059 0
M  V30 4335 H 406.327 5.4485 -0.736102 0
M  V30 4336 H 407.552 6.73945 -0.835134 0
M  V30 4337 H 405.498 6.41215 1.38489 0
M  V30 4338 H 405.415 7.55948 0.0885358 0
M  V30 4339 H 406.683 7.69077 1.27044 0
M  V30 4340 N 410.912 0.523116 1.48665 0
M  V30 4341 C 411.86 -0.256859 2.31177 0
M  V30 4342 C 412.854 -0.94199 1.40794 0
M  V30 4343 O 414.06 -0.867157 1.57735 0
M  V30 4344 H 410.435 -0.1017 0.745091 0
M  V30 4345 H 412.406 0.458739 2.94853 0
M  V30 4346 C 411.155 -1.29503 3.22683 0
M  V30 4347 H 410.478 -0.777248 3.92172 0
M  V30 4348 H 411.918 -1.81233 3.83315 0
M  V30 4349 C 410.377 -2.32501 2.43813 0
M  V30 4350 O 410.907 -3.3881 2.15803 0
M  V30 4351 N 409.113 -2.05538 2.05432 0
M  V30 4352 H 408.66 -1.19104 2.28412 0
M  V30 4353 H 408.618 -2.74676 1.52973 0
M  V30 4354 N 412.39 -1.55475 0.257931 0
M  V30 4355 C 413.667 -1.91155 -0.414629 0
M  V30 4356 C 414.047 -1.18008 -1.75035 0
M  V30 4357 O 413.395 -0.301193 -2.26506 0
M  V30 4358 C 413.605 -3.44283 -0.571859 0
M  V30 4359 C 414.953 -4.15744 -0.862678 0
M  V30 4360 O 415.977 -3.50083 -0.657314 0
M  V30 4361 O 414.836 -5.31909 -1.2544 0
M  V30 4362 H 411.93 -0.796016 -0.22425 0
M  V30 4363 H 414.476 -1.66976 0.302814 0
M  V30 4364 H 413.248 -3.89558 0.368844 0
M  V30 4365 H 412.871 -3.7436 -1.33943 0
M  V30 4366 N 413.868 0.0150385 -1.57593 0
M  V30 4367 C 415.098 0.713359 -1.93894 0
M  V30 4368 C 415.506 1.68663 -0.857289 0
M  V30 4369 O 414.849 1.82876 0.173788 0
M  V30 4370 C 414.911 1.51348 -3.26089 0
M  V30 4371 C 414.575 0.703451 -4.51554 0
M  V30 4372 C 415.572 -0.00237924 -5.199 0
M  V30 4373 C 413.257 0.653854 -4.98026 0
M  V30 4374 C 415.251 -0.746955 -6.33008 0
M  V30 4375 C 412.938 -0.0944578 -6.11027 0
M  V30 4376 C 413.936 -0.793609 -6.78374 0
M  V30 4377 O 413.624 -1.52974 -7.89211 0
M  V30 4378 H 413.356 0.204637 -0.644282 0
M  V30 4379 H 415.91 -0.0276411 -2.05381 0
M  V30 4380 H 414.14 2.29862 -3.10967 0
M  V30 4381 H 415.829 2.09572 -3.47612 0
M  V30 4382 H 416.595 0.0268803 -4.84993 0
M  V30 4383 H 412.474 1.18756 -4.45441 0
M  V30 4384 H 416.018 -1.2932 -6.85509 0
M  V30 4385 H 411.915 -0.125591 -6.45378 0
M  V30 4386 H 412.683 -1.44488 -8.05646 0
M  V30 4387 N 415.346 1.54954 0.287554 0
M  V30 4388 C 416.594 1.74528 1.01904 0
M  V30 4389 C 416.915 0.541349 1.87335 0
M  V30 4390 O 416.185 -0.444108 1.908 0
M  V30 4391 H 414.765 0.643576 0.379235 0
M  V30 4392 H 417.427 1.92333 0.315294 0
M  V30 4393 H 416.523 2.64015 1.6644 0
M  V30 4394 N 416.824 -0.551391 1.4764 0
M  V30 4395 C 417.771 -1.65796 1.60563 0
M  V30 4396 C 418.741 -1.59932 0.448428 0
M  V30 4397 O 419.926 -1.78679 0.669222 0
M  V30 4398 C 417.066 -3.04108 1.63133 0
M  V30 4399 C 416.179 -3.20365 2.89811 0
M  V30 4400 C 415.314 -4.49109 2.8368 0
M  V30 4401 C 414.353 -4.58819 4.05156 0
M  V30 4402 N 413.49 -5.78926 3.97227 0
M  V30 4403 H 418.33 -1.54088 2.5507 0
M  V30 4404 H 415.867 -0.75052 1.26513 0
M  V30 4405 H 417.825 -3.84207 1.62606 0
M  V30 4406 H 416.455 -3.14637 0.721341 0
M  V30 4407 H 415.507 -2.33659 3.00179 0
M  V30 4408 H 416.819 -3.23402 3.79753 0
M  V30 4409 H 415.973 -5.37475 2.81434 0
M  V30 4410 H 414.712 -4.4856 1.91431 0
M  V30 4411 H 413.717 -3.68864 4.077 0
M  V30 4412 H 414.942 -4.61124 4.98539 0
M  V30 4413 H 412.888 -5.79314 3.07785 0
M  V30 4414 H 412.805 -5.83367 4.80853 0
M  V30 4415 H 414.073 -6.69637 3.99007 0
M  V30 4416 N 418.302 -1.35869 -0.798587 0
M  V30 4417 C 419.532 -1.32529 -1.58491 0
M  V30 4418 C 419.94 0.0975405 -1.88948 0
M  V30 4419 O 419.283 1.06224 -1.49874 0
M  V30 4420 C 419.345 -2.07247 -2.9375 0
M  V30 4421 C 419.009 -3.56391 -2.86068 0
M  V30 4422 C 420.006 -4.50824 -2.58947 0
M  V30 4423 C 417.691 -3.9915 -3.04933 0
M  V30 4424 C 419.685 -5.85993 -2.5078 0
M  V30 4425 C 417.372 -5.34413 -2.96389 0
M  V30 4426 C 418.37 -6.27646 -2.69349 0
M  V30 4427 O 418.058 -7.60426 -2.60782 0
M  V30 4428 H 417.79 -0.456529 -0.498556 0
M  V30 4429 H 420.344 -1.79425 -0.999799 0
M  V30 4430 H 418.574 -1.55001 -3.54276 0
M  V30 4431 H 420.263 -1.96883 -3.54954 0
M  V30 4432 H 421.029 -4.19104 -2.44084 0
M  V30 4433 H 416.908 -3.26961 -3.24989 0
M  V30 4434 H 420.452 -6.58735 -2.29595 0
M  V30 4435 H 416.349 -5.65743 -3.10813 0
M  V30 4436 H 417.117 -7.70444 -2.76331 0
M  V30 4437 N 419.78 1.02168 -1.19998 0
M  V30 4438 C 420.71 2.12488 -0.96804 0
M  V30 4439 C 421.691 1.69799 0.101185 0
M  V30 4440 O 422.876 1.94121 -0.0552993 0
M  V30 4441 C 420.006 3.43479 -0.513776 0
M  V30 4442 C 418.96 3.99884 -1.52566 0
M  V30 4443 C 418.286 5.26582 -0.928214 0
M  V30 4444 C 419.586 4.33861 -2.90795 0
M  V30 4445 H 421.28 2.32149 -1.89069 0
M  V30 4446 H 418.826 1.11564 -0.910468 0
M  V30 4447 H 420.779 4.20036 -0.338774 0
M  V30 4448 H 419.503 3.23561 0.444493 0
M  V30 4449 H 418.162 3.25429 -1.68794 0
M  V30 4450 H 417.81 5.02986 0.0378289 0
M  V30 4451 H 417.51 5.65284 -1.60397 0
M  V30 4452 H 419.034 6.05799 -0.764167 0
M  V30 4453 H 420.448 5.01327 -2.78109 0
M  V30 4454 H 418.845 4.83664 -3.55231 0
M  V30 4455 H 419.915 3.42848 -3.42904 0
M  V30 4456 N 421.258 1.00505 1.21394 0
M  V30 4457 C 422.188 0.585684 2.26035 0
M  V30 4458 C 423.169 -0.393525 1.65485 0
M  V30 4459 O 424.354 -0.281497 1.92149 0
M  V30 4460 C 421.484 -0.0884283 3.47187 0
M  V30 4461 C 420.438 0.810567 4.20254 0
M  V30 4462 C 419.764 0.00286382 5.347 0
M  V30 4463 C 421.064 2.1132 4.77641 0
M  V30 4464 H 422.758 1.46039 2.61368 0
M  V30 4465 H 420.304 0.703648 1.25638 0
M  V30 4466 H 422.257 -0.393286 4.19561 0
M  V30 4467 H 420.981 -0.997766 3.10986 0
M  V30 4468 H 419.64 1.09925 3.49731 0
M  V30 4469 H 419.288 -0.907765 4.94741 0
M  V30 4470 H 418.988 0.601444 5.84514 0
M  V30 4471 H 420.512 -0.295808 6.09883 0
M  V30 4472 H 421.926 1.87148 5.41893 0
M  V30 4473 H 420.323 2.66164 5.37845 0
M  V30 4474 H 421.393 2.78393 3.9702 0
M  V30 4475 N 422.737 -1.36956 0.779787 0
M  V30 4476 C 423.684 -2.30175 0.169697 0
M  V30 4477 C 424.654 -1.51501 -0.68094 0
M  V30 4478 O 425.839 -1.80042 -0.631629 0
M  V30 4479 C 422.979 -3.37985 -0.697131 0
M  V30 4480 C 422.092 -4.31661 0.170992 0
M  V30 4481 C 421.227 -5.2655 -0.701298 0
M  V30 4482 C 420.266 -6.11867 0.168869 0
M  V30 4483 N 419.403 -6.98973 -0.661855 0
M  V30 4484 H 424.243 -2.81767 0.970135 0
M  V30 4485 H 421.78 -1.38699 0.489994 0
M  V30 4486 H 423.738 -3.99128 -1.2146 0
M  V30 4487 H 422.368 -2.87739 -1.46309 0
M  V30 4488 H 421.42 -3.71756 0.80634 0
M  V30 4489 H 422.732 -4.91644 0.841875 0
M  V30 4490 H 421.886 -5.92937 -1.28494 0
M  V30 4491 H 420.625 -4.66998 -1.40584 0
M  V30 4492 H 419.63 -5.44452 0.764986 0
M  V30 4493 H 420.855 -6.73493 0.870863 0
M  V30 4494 H 418.801 -6.41941 -1.35086 0
M  V30 4495 H 418.718 -7.55984 -0.0484447 0
M  V30 4496 H 419.986 -7.6974 -1.22963 0
M  V30 4497 N 424.215 -0.530993 -1.48385 0
M  V30 4498 C 425.148 0.278511 -2.26494 0
M  V30 4499 C 426.126 0.943905 -1.32398 0
M  V30 4500 O 427.31 0.968098 -1.61741 0
M  V30 4501 C 424.437 1.39453 -3.08659 0
M  V30 4502 C 423.483 0.840434 -4.18137 0
M  V30 4503 S 424.316 -0.292496 -5.34701 0
M  V30 4504 C 425.472 0.825973 -6.20426 0
M  V30 4505 H 425.705 -0.384365 -2.94805 0
M  V30 4506 H 423.238 -0.316799 -1.51115 0
M  V30 4507 H 425.196 2.03382 -3.56575 0
M  V30 4508 H 423.857 2.02913 -2.3976 0
M  V30 4509 H 423.05 1.67769 -4.75257 0
M  V30 4510 H 422.652 0.277819 -3.72967 0
M  V30 4511 H 424.944 1.72438 -6.55188 0
M  V30 4512 H 425.887 0.292728 -7.07495 0
M  V30 4513 H 426.295 1.10683 -5.53543 0
M  V30 4514 N 425.693 1.55336 -0.266172 0
M  V30 4515 C 426.939 1.99692 0.353681 0
M  V30 4516 C 427.272 1.1543 1.56172 0
M  V30 4517 O 426.547 0.222218 1.93226 0
M  V30 4518 C 426.83 3.52316 0.74466 0
M  V30 4519 C 426.683 4.47337 -0.470101 0
M  V30 4520 C 428.002 4.10588 1.58447 0
M  V30 4521 H 425.121 0.725961 0.12708 0
M  V30 4522 H 427.763 1.86336 -0.371333 0
M  V30 4523 H 425.913 3.63829 1.36239 0
M  V30 4524 H 427.585 4.4778 -1.10864 0
M  V30 4525 H 425.828 4.19364 -1.10978 0
M  V30 4526 H 426.499 5.51788 -0.15291 0
M  V30 4527 H 428.975 4.02297 1.06286 0
M  V30 4528 H 427.851 5.17607 1.82686 0
M  V30 4529 H 428.112 3.60253 2.56262 0
M  V30 4530 N 427.171 -0.0066808 1.57599 0
M  V30 4531 C 428.118 -1.00024 2.08 0
M  V30 4532 C 429.088 -1.34549 0.973943 0
M  V30 4533 O 430.273 -1.44502 1.24595 0
M  V30 4534 C 427.413 -2.2891 2.58252 0
M  V30 4535 C 426.526 -2.00346 3.82734 0
M  V30 4536 C 425.661 -3.23265 4.21513 0
M  V30 4537 C 424.7 -2.90357 5.3885 0
M  V30 4538 N 423.837 -4.05793 5.72954 0
M  V30 4539 H 428.677 -0.563499 2.92624 0
M  V30 4540 H 426.214 -0.266592 1.44664 0
M  V30 4541 H 428.172 -3.04247 2.85464 0
M  V30 4542 H 426.802 -2.70265 1.76512 0
M  V30 4543 H 425.854 -1.15406 3.62471 0
M  V30 4544 H 427.166 -1.72086 4.68175 0
M  V30 4545 H 426.32 -4.06953 4.49971 0
M  V30 4546 H 425.059 -3.54657 3.34768 0
M  V30 4547 H 424.064 -2.05075 5.10122 0
M  V30 4548 H 425.289 -2.60219 6.27266 0
M  V30 4549 H 423.235 -4.37094 4.89167 0
M  V30 4550 H 423.152 -3.81034 6.52954 0
M  V30 4551 H 424.42 -4.90289 6.06001 0
M  V30 4552 N 428.649 -1.55105 -0.279332 0
M  V30 4553 C 429.897 -1.75066 -1.00977 0
M  V30 4554 C 430.218 -0.551276 -1.87045 0
M  V30 4555 O 429.488 0.433984 -1.91032 0
M  V30 4556 H 428.068 -0.645578 -0.375816 0
M  V30 4557 H 430.73 -1.92497 -0.305089 0
M  V30 4558 H 429.826 -2.64894 -1.65038 0
M  V30 4559 N 430.127 0.543554 -1.4793 0
M  V30 4560 C 431.057 1.65888 -1.64327 0
M  V30 4561 C 432.038 1.62818 -0.492383 0
M  V30 4562 O 433.223 1.80226 -0.723338 0
M  V30 4563 C 430.353 3.04506 -1.67013 0
M  V30 4564 C 429.307 3.2243 -2.81466 0
M  V30 4565 C 428.633 4.61972 -2.69233 0
M  V30 4566 C 429.933 3.06496 -4.22915 0
M  V30 4567 H 431.627 1.52421 -2.57698 0
M  V30 4568 H 429.173 0.731849 -1.24016 0
M  V30 4569 H 431.126 3.82391 -1.77074 0
M  V30 4570 H 429.85 3.18964 -0.70212 0
M  V30 4571 H 428.509 2.46957 -2.70938 0
M  V30 4572 H 428.157 4.73247 -1.7043 0
M  V30 4573 H 427.857 4.74911 -3.46025 0
M  V30 4574 H 429.381 5.41974 -2.81242 0
M  V30 4575 H 430.795 3.74186 -4.34348 0
M  V30 4576 H 429.192 3.30938 -5.006 0
M  V30 4577 H 430.262 2.03077 -4.40327 0
M  V30 4578 O 431.644 1.46095 0.688375 0
M  V30 4579 H 432.335 1.39822 1.34051 0
M  V30 END ATOM
M  V30 BEGIN BOND
M  V30 END BOND
M  V30 END CTAB
M  END
$$$$
