drugbank_target|Q07869 Peroxisome proliferator-activated receptor alpha (DB00132; DB00159; DB00197; DB00313; DB00328; DB00412; DB00573; DB00636; DB01039; DB01050; DB01118; DB01241; DB01393; DB01708; DB01890; DB02266; DB02709; DB02746; DB03017; DB03193; DB03756; DB03796; DB04224; DB04519; DB04557; DB04971; DB05187; DB05416; DB06510; DB06521; DB06533; DB06536; DB07215; DB07724; DB08231; DB08915; DB09006; DB09064; DB09213; DB09422; DB11133; DB11605; DB12007; DB12961; DB13873; DB13961)
 OpenBabel12092119233D

  0  0  0     0  0            999 V3000
M  V30 BEGIN CTAB
M  V30 COUNTS 7297 7365 0 0 0
M  V30 BEGIN ATOM
M  V30 1 H -0.908 1.98254 -0.117106 0
M  V30 2 N 0 1.576 0 0
M  V30 3 C 0.933 2.03868 1.02534 0
M  V30 4 C 1.911 0.928543 1.3348 0
M  V30 5 O 3.095 1.19667 1.45644 0
M  V30 6 C 0.222 2.43627 2.35294 0
M  V30 7 C -0.732 3.65373 2.2001 0
M  V30 8 S 0.101 5.13292 1.52614 0
M  V30 9 C 1.257 5.56322 2.86805 0
M  V30 10 H 1.49 2.90518 0.631377 0
M  V30 11 H -0.977 1.52953 0.210867 0
M  V30 12 H 0.981 2.67203 3.11629 0
M  V30 13 H -0.358 1.57376 2.7183 0
M  V30 14 H -1.165 3.90944 3.18086 0
M  V30 15 H -1.563 3.418 1.51819 0
M  V30 16 H 0.729 5.58782 3.83104 0
M  V30 17 H 1.672 6.56266 2.65933 0
M  V30 18 H 2.08 4.83886 2.90714 0
M  V30 19 N 1.4781 -0.272755 1.55222 0
M  V30 20 C 2.7241 -1.00581 1.761 0
M  V30 21 C 3.0571 -1.85932 0.560625 0
M  V30 22 O 2.3321 -1.89416 -0.441801 0
M  V30 23 C 2.6151 -1.88816 3.06628 0
M  V30 24 C 2.4681 -1.06457 4.37021 0
M  V30 25 C 3.7871 -2.8752 3.33197 0
M  V30 26 H 0.9061 -0.364244 0.640699 0
M  V30 27 H 3.5481 -0.278189 1.87952 0
M  V30 28 H 1.6981 -2.50856 2.96654 0
M  V30 29 H 3.3701 -0.464863 4.58952 0
M  V30 30 H 1.6131 -0.368043 4.32236 0
M  V30 31 H 2.2841 -1.71514 5.24678 0
M  V30 32 H 4.7601 -2.35615 3.42965 0
M  V30 33 H 3.6361 -3.46399 4.25792 0
M  V30 34 H 3.8971 -3.62657 2.52849 0
M  V30 35 N 2.9562 -1.48159 -0.537278 0
M  V30 36 C 4.2332 -1.46291 -1.29839 0
M  V30 37 C 4.6132 -0.170613 -2.10409 0
M  V30 38 O 3.9612 0.847746 -2.12192 0
M  V30 39 C 4.1712 -2.72055 -2.18603 0
M  V30 40 C 5.5192 -3.20087 -2.7898 0
M  V30 41 O 6.5432 -2.72921 -2.28894 0
M  V30 42 O 5.4022 -4.02138 -3.70064 0
M  V30 43 H 2.4962 -0.583906 -0.585647 0
M  V30 44 H 5.0422 -1.60384 -0.554534 0
M  V30 45 H 3.8142 -3.57628 -1.58801 0
M  V30 46 H 3.4372 -2.60646 -3.00249 0
M  V30 47 N 4.4343 0.785586 -1.36625 0
M  V30 48 C 5.6623 1.57448 -1.3423 0
M  V30 49 C 6.0773 1.88649 0.0755653 0
M  V30 50 O 5.4343 1.50414 1.03354 0
M  V30 51 C 5.4853 2.89316 -2.16745 0
M  V30 52 O 5.2063 2.59459 -3.53005 0
M  V30 53 C 6.7073 3.83606 -2.22174 0
M  V30 54 H 3.9273 0.488226 -0.4603 0
M  V30 55 H 6.4713 0.974733 -1.79775 0
M  V30 56 H 4.6263 3.4575 -1.74745 0
M  V30 57 H 5.0403 3.43804 -3.96105 0
M  V30 58 H 6.5143 4.73181 -2.8426 0
M  V30 59 H 6.9913 4.21734 -1.22627 0
M  V30 60 H 7.5973 3.33104 -2.64427 0
M  V30 61 N 5.9124 1.20967 1.01018 0
M  V30 62 C 6.8224 0.980157 2.13143 0
M  V30 63 C 7.8384 -0.0660665 1.73875 0
M  V30 64 O 9.0144 0.122821 2.01025 0
M  V30 65 C 6.0794 0.54216 3.42435 0
M  V30 66 C 5.1404 1.65999 3.95908 0
M  V30 67 C 4.3734 1.2428 5.19028 0
M  V30 68 O 4.5964 0.114196 5.70286 0
M  V30 69 O 3.5304 2.05271 5.65816 0
M  V30 70 H 7.3564 1.91913 2.35379 0
M  V30 71 H 4.9414 0.994099 1.11526 0
M  V30 72 H 6.8234 0.30744 4.20277 0
M  V30 73 H 5.4984 -0.36815 3.216 0
M  V30 74 H 4.4054 1.94906 3.19316 0
M  V30 75 H 5.7384 2.54753 4.21143 0
M  V30 76 N 7.3905 -1.2043 1.01659 0
M  V30 77 C 8.6155 -1.94318 0.724942 0
M  V30 78 C 9.0405 -1.74266 -0.708034 0
M  V30 79 O 8.3985 -1.03694 -1.48719 0
M  V30 80 C 8.4465 -3.44486 1.06591 0
M  V30 81 O 7.5505 -4.12017 0.177599 0
M  V30 82 H 6.8915 -0.60708 0.26898 0
M  V30 83 H 9.4215 -1.52861 1.35995 0
M  V30 84 H 9.4315 -3.95106 1.01762 0
M  V30 85 H 8.1065 -3.58404 2.10997 0
M  V30 86 H 6.6835 -3.71821 0.283421 0
M  V30 87 N 8.8686 -0.792821 -1.36206 0
M  V30 88 C 10.2796 -0.429513 -1.81692 0
M  V30 89 C 10.6306 1.04695 -1.65932 0
M  V30 90 O 9.7556 1.81256 -1.18218 0
M  V30 91 C 10.3506 -0.772831 -3.29868 0
M  V30 92 C 8.9096 -0.462307 -3.7355 0
M  V30 93 C 8.0566 -1.00569 -2.5842 0
M  V30 94 H 11.0076 -0.985672 -1.24379 0
M  V30 95 H 11.0286 -0.0651928 -3.80444 0
M  V30 96 H 10.5406 -1.84747 -3.41307 0
M  V30 97 H 8.6416 0.604158 -3.67669 0
M  V30 98 H 8.7546 -0.985299 -4.68859 0
M  V30 99 H 7.1186 -0.428734 -2.51066 0
M  V30 100 H 7.9016 -2.08616 -2.72643 0
M  V30 101 N 10.3467 1.47872 -0.545128 0
M  V30 102 C 11.2767 2.32661 0.197793 0
M  V30 103 C 12.2577 1.43041 0.920504 0
M  V30 104 O 13.4427 1.71912 0.90333 0
M  V30 105 C 10.5727 3.24569 1.23582 0
M  V30 106 C 9.5267 4.23333 0.630323 0
M  V30 107 C 8.8527 5.0448 1.77211 0
M  V30 108 C 10.1527 5.20704 -0.407974 0
M  V30 109 H 11.8467 2.95024 -0.510045 0
M  V30 110 H 9.3927 1.4187 -0.246731 0
M  V30 111 H 11.3457 3.8272 1.76362 0
M  V30 112 H 10.0697 2.60236 1.97344 0
M  V30 113 H 8.7287 3.6639 0.123922 0
M  V30 114 H 8.3767 4.36561 2.49847 0
M  V30 115 H 8.0767 5.71339 1.37281 0
M  V30 116 H 9.6007 5.65487 2.3034 0
M  V30 117 H 11.0147 5.7329 0.033305 0
M  V30 118 H 9.4117 5.95699 -0.725486 0
M  V30 119 H 10.4817 4.66917 -1.30828 0
M  V30 120 N 11.8248 0.280983 1.55075 0
M  V30 121 C 13.0648 -0.335234 2.01632 0
M  V30 122 C 13.4288 -1.5261 1.16508 0
M  V30 123 O 14.6298 -2.21235 1.52672 0
M  V30 124 C 12.9008 -0.702172 3.50434 0
M  V30 125 S 14.4598 -1.30409 4.18974 0
M  V30 126 H 11.2778 -0.103967 0.703358 0
M  V30 127 H 13.8798 0.404187 1.91276 0
M  V30 128 H 12.5838 0.17333 4.10034 0
M  V30 129 H 12.1148 -1.4729 3.64786 0
M  V30 130 H 14.1298 -2.59253 4.23087 0
M  V30 131 N 13.3029 -1.57598 0.00835791 0
M  V30 132 C 14.7139 -1.7892 -0.53333 0
M  V30 133 C 15.0649 -0.916609 -1.73473 0
M  V30 134 O 14.1899 -0.121336 -2.1606 0
M  V30 135 C 14.7849 -3.24488 -0.974313 0
M  V30 136 C 13.3439 -3.46878 -1.46125 0
M  V30 137 C 12.4909 -2.74157 -0.416302 0
M  V30 138 H 15.4419 -1.56958 0.234495 0
M  V30 139 H 15.4629 -3.3306 -1.83988 0
M  V30 140 H 14.9749 -3.87972 -0.099718 0
M  V30 141 H 13.0759 -2.8862 -2.35646 0
M  V30 142 H 13.1889 -4.55572 -1.48295 0
M  V30 143 H 11.5529 -2.39022 -0.87981 0
M  V30 144 H 12.3359 -3.40345 0.44947 0
M  V30 145 N 14.781 0.264519 -1.55364 0
M  V30 146 C 15.711 1.33121 -1.91836 0
M  V30 147 C 16.692 1.51101 -0.781192 0
M  V30 148 O 17.877 1.64003 -1.04003 0
M  V30 149 C 15.007 2.68921 -2.19769 0
M  V30 150 C 13.961 2.65661 -3.35571 0
M  V30 151 C 13.287 4.05093 -3.49004 0
M  V30 152 C 14.587 2.24187 -4.71739 0
M  V30 153 H 16.281 1.02844 -2.81182 0
M  V30 154 H 13.827 0.493286 -1.35287 0
M  V30 155 H 15.78 3.43663 -2.43872 0
M  V30 156 H 14.504 3.00799 -1.27231 0
M  V30 157 H 13.163 1.93377 -3.1145 0
M  V30 158 H 12.811 4.34206 -2.53917 0
M  V30 159 H 12.511 4.03804 -4.26868 0
M  V30 160 H 14.035 4.81561 -3.75408 0
M  V30 161 H 15.449 2.88654 -4.9533 0
M  V30 162 H 13.846 2.34044 -5.52579 0
M  V30 163 H 14.916 1.19327 -4.69988 0
M  V30 164 N 16.2591 1.48442 0.529413 0
M  V30 165 C 17.4841 1.60406 1.31471 0
M  V30 166 C 17.9091 0.264738 1.86228 0
M  V30 167 O 17.2671 -0.763668 1.64432 0
M  V30 168 C 17.3151 2.65419 2.44101 0
M  V30 169 O 16.4191 2.22618 3.47153 0
M  V30 170 H 15.7601 0.537863 0.389357 0
M  V30 171 H 18.2901 1.94432 0.636965 0
M  V30 172 H 18.3001 2.86709 2.90279 0
M  V30 173 H 16.9751 3.62652 2.03608 0
M  V30 174 H 15.5521 2.11543 3.0709 0
M  V30 175 N 17.7372 -0.778329 1.37039 0
M  V30 176 C 19.1482 -1.35421 1.28523 0
M  V30 177 C 19.4992 -1.96075 -0.0700901 0
M  V30 178 O 18.6242 -1.93352 -0.971801 0
M  V30 179 C 19.2192 -2.46211 2.32735 0
M  V30 180 C 17.7782 -2.99585 2.27873 0
M  V30 181 C 16.9252 -1.72748 2.16918 0
M  V30 182 H 19.8762 -0.5791 1.47757 0
M  V30 183 H 19.8972 -3.2552 1.9702 0
M  V30 184 H 19.4092 -2.02036 3.31365 0
M  V30 185 H 17.5102 -3.48152 1.32745 0
M  V30 186 H 17.6232 -3.55646 3.21018 0
M  V30 187 H 15.9872 -1.95416 1.63354 0
M  V30 188 H 16.7702 -1.30686 3.17452 0
M  V30 189 N 19.2153 -1.21501 -1.00376 0
M  V30 190 C 20.1453 -0.999478 -2.11028 0
M  V30 191 C 21.1263 0.0759671 -1.6993 0
M  V30 192 O 22.3113 -0.0841106 -1.94018 0
M  V30 193 C 19.4413 -0.564709 -3.42678 0
M  V30 194 C 18.3953 -1.58486 -3.97576 0
M  V30 195 C 17.7213 -1.00628 -5.25146 0
M  V30 196 C 19.0213 -2.97204 -4.29496 0
M  V30 197 H 20.7153 -1.92495 -2.29317 0
M  V30 198 H 18.2613 -0.92693 -1.102 0
M  V30 199 H 20.2143 -0.401091 -4.19487 0
M  V30 200 H 18.9383 0.396411 -3.24185 0
M  V30 201 H 17.5973 -1.73606 -3.22888 0
M  V30 202 H 17.2453 -0.0368439 -5.02987 0
M  V30 203 H 16.9453 -1.68771 -5.62841 0
M  V30 204 H 18.4693 -0.854015 -6.04598 0
M  V30 205 H 19.8833 -2.8552 -4.97143 0
M  V30 206 H 18.2803 -3.62372 -4.78338 0
M  V30 207 H 19.3503 -3.47956 -3.3772 0
M  V30 208 N 20.6934 1.19889 -1.02296 0
M  V30 209 C 21.6034 2.26571 -0.608508 0
M  V30 210 C 22.6194 1.70299 0.356964 0
M  V30 211 O 23.7954 2.00235 0.216326 0
M  V30 212 C 20.8604 3.46677 0.0402814 0
M  V30 213 C 19.9214 4.18153 -0.97194 0
M  V30 214 C 19.1544 5.32525 -0.354016 0
M  V30 215 O 19.3774 5.64112 0.844604 0
M  V30 216 O 18.3114 5.92242 -1.07391 0
M  V30 217 H 22.1374 2.64251 -1.49684 0
M  V30 218 H 19.7224 1.26629 -0.792809 0
M  V30 219 H 21.6044 4.19475 0.402324 0
M  V30 220 H 20.2794 3.10858 0.902707 0
M  V30 221 H 19.1864 3.47499 -1.38546 0
M  V30 222 H 20.5194 4.57927 -1.80454 0
M  V30 223 N 22.1715 0.800033 1.35784 0
M  V30 224 C 23.1345 0.211565 2.28221 0
M  V30 225 C 24.1345 -0.59728 1.49296 0
M  V30 226 O 25.3245 -0.416721 1.69142 0
M  V30 227 C 22.4565 -0.705846 3.33513 0
M  V30 228 H 23.6495 1.02677 2.81776 0
M  V30 229 H 21.2025 0.570211 1.45528 0
M  V30 230 H 21.9375 -1.54498 2.85133 0
M  V30 231 H 21.7225 -0.127655 3.91892 0
M  V30 232 H 23.2125 -1.11211 4.02519 0
M  V30 233 N 23.6496 -1.47581 0.552962 0
M  V30 234 C 24.8976 -2.02082 0.0272703 0
M  V30 235 C 25.2186 -1.4301 -1.32563 0
M  V30 236 O 24.4886 -0.603745 -1.86365 0
M  V30 237 H 23.0686 -0.746966 0.00709182 0
M  V30 238 H 25.7306 -1.81033 0.722008 0
M  V30 239 H 24.8266 -3.12034 -0.0639951 0
M  V30 240 N 25.1277 -0.289203 -1.54924 0
M  V30 241 C 26.4047 0.376032 -1.91951 0
M  V30 242 C 26.7847 1.72622 -1.21511 0
M  V30 243 O 26.1327 2.25853 -0.346767 0
M  V30 244 C 26.3427 0.502378 -3.45365 0
M  V30 245 C 27.6907 0.778741 -4.17398 0
M  V30 246 O 28.7147 0.586647 -3.51336 0
M  V30 247 O 27.5737 1.14698 -5.34328 0
M  V30 248 H 24.6677 0.208167 -0.800372 0
M  V30 249 H 27.2137 -0.336394 -1.66332 0
M  V30 250 H 25.9857 -0.447255 -3.88736 0
M  V30 251 H 25.6087 1.26373 -3.76982 0
M  V30 252 N 26.6058 1.57591 -0.0167156 0
M  V30 253 C 27.5358 2.12496 0.967858 0
M  V30 254 C 28.5168 1.03807 1.34752 0
M  V30 255 O 29.7018 1.31577 1.42833 0
M  V30 256 C 26.8318 2.64194 2.25431 0
M  V30 257 C 25.7858 3.77559 2.01576 0
M  V30 258 C 25.1118 4.15636 3.36379 0
M  V30 259 C 26.4118 5.04151 1.36489 0
M  V30 260 H 28.1058 2.95013 0.510643 0
M  V30 261 H 25.6518 1.41915 0.244181 0
M  V30 262 H 27.6048 3.01236 2.94678 0
M  V30 263 H 26.3288 1.78821 2.73296 0
M  V30 264 H 24.9878 3.40937 1.34751 0
M  V30 265 H 24.6358 3.27263 3.81979 0
M  V30 266 H 24.3358 4.92022 3.21229 0
M  V30 267 H 25.8598 4.5525 4.06915 0
M  V30 268 H 27.2738 5.38857 1.95718 0
M  V30 269 H 25.6708 5.85453 1.31776 0
M  V30 270 H 26.7408 4.83733 0.336219 0
M  V30 271 N 28.0839 -0.256276 1.55502 0
M  V30 272 C 28.9939 -1.33882 1.92647 0
M  V30 273 C 30.0099 -1.53159 0.825727 0
M  V30 274 O 31.1859 -1.66963 1.12629 0
M  V30 275 C 28.2509 -2.6751 2.20543 0
M  V30 276 C 27.3119 -2.56836 3.43997 0
M  V30 277 C 26.5449 -3.84092 3.70553 0
M  V30 278 O 26.7679 -4.85545 2.99336 0
M  V30 279 O 25.7019 -3.83288 4.64084 0
M  V30 280 H 29.5279 -1.05374 2.84833 0
M  V30 281 H 27.1129 -0.456237 1.42263 0
M  V30 282 H 28.9949 -3.46492 2.39835 0
M  V30 283 H 27.6699 -2.9577 1.31536 0
M  V30 284 H 26.5769 -1.76172 3.30021 0
M  V30 285 H 27.9099 -2.33523 4.33275 0
M  V30 286 N 29.562 -1.4872 -0.521534 0
M  V30 287 C 30.787 -1.61101 -1.30618 0
M  V30 288 C 31.212 -0.274611 -1.86085 0
M  V30 289 O 30.57 0.754937 -1.64834 0
M  V30 290 C 30.618 -2.66709 -2.4269 0
M  V30 291 O 29.722 -2.24456 -3.45967 0
M  V30 292 H 29.063 -0.539921 -0.386499 0
M  V30 293 H 31.593 -1.94767 -0.626645 0
M  V30 294 H 31.603 -2.88245 -2.88754 0
M  V30 295 H 30.278 -3.63727 -2.01682 0
M  V30 296 H 28.855 -2.13168 -3.05964 0
M  V30 297 N 31.0401 0.771051 -1.3745 0
M  V30 298 C 32.4511 1.34737 -1.29239 0
M  V30 299 C 32.8021 1.96109 0.0596908 0
M  V30 300 O 31.9271 1.93865 0.961534 0
M  V30 301 C 32.5221 2.44973 -2.34037 0
M  V30 302 C 31.0811 2.98372 -2.29458 0
M  V30 303 C 30.2281 1.71595 -2.17831 0
M  V30 304 H 33.1791 0.571256 -1.48062 0
M  V30 305 H 33.2001 3.24471 -1.98744 0
M  V30 306 H 32.7121 2.00276 -3.32432 0
M  V30 307 H 30.8131 3.47443 -1.34589 0
M  V30 308 H 30.9261 3.53939 -3.229 0
M  V30 309 H 29.2901 1.94547 -1.64388 0
M  V30 310 H 30.0731 1.29001 -3.18141 0
M  V30 311 N 32.5182 1.22032 0.997298 0
M  V30 312 C 33.4482 1.01065 2.10495 0
M  V30 313 C 34.4292 -0.0669542 1.69968 0
M  V30 314 O 35.6142 0.0943987 1.9397 0
M  V30 315 C 32.7442 0.582874 3.42374 0
M  V30 316 C 31.6982 1.60592 3.96729 0
M  V30 317 C 31.0242 1.03412 5.24605 0
M  V30 318 C 32.3242 2.99478 4.27914 0
M  V30 319 H 34.0182 1.93708 2.28292 0
M  V30 320 H 31.5642 0.932761 1.09707 0
M  V30 321 H 33.5172 0.423332 4.19268 0
M  V30 322 H 32.2412 -0.379213 3.24391 0
M  V30 323 H 30.9002 1.75316 3.21963 0
M  V30 324 H 30.5482 0.063518 5.0296 0
M  V30 325 H 30.2482 1.71754 5.61938 0
M  V30 326 H 31.7722 0.886066 6.04137 0
M  V30 327 H 33.1862 2.88153 4.95622 0
M  V30 328 H 31.5832 3.64903 4.76409 0
M  V30 329 H 32.6532 3.49742 3.3587 0
M  V30 330 N 33.9963 -1.19345 1.0293 0
M  V30 331 C 35.2213 -1.93538 0.745511 0
M  V30 332 C 35.6463 -1.75007 -0.689511 0
M  V30 333 O 35.0043 -1.05265 -1.47611 0
M  V30 334 C 35.0523 -3.43336 1.10239 0
M  V30 335 O 34.1563 -4.11806 0.221289 0
M  V30 336 H 33.4973 -0.604193 0.275404 0
M  V30 337 H 36.0273 -1.5141 1.37609 0
M  V30 338 H 36.0373 -3.94004 1.05947 0
M  V30 339 H 34.7123 -3.56146 2.14786 0
M  V30 340 H 33.2893 -3.715 0.322842 0
M  V30 341 N 35.4744 -0.807222 -1.35358 0
M  V30 342 C 36.3844 -0.219594 -2.3357 0
M  V30 343 C 37.4004 0.637734 -1.61892 0
M  V30 344 O 38.5764 0.549336 -1.93763 0
M  V30 345 C 35.6414 0.62158 -3.41083 0
M  V30 346 C 34.7024 -0.256315 -4.28534 0
M  V30 347 C 33.9354 0.544807 -5.30912 0
M  V30 348 O 34.1584 1.77944 -5.41934 0
M  V30 349 O 33.0924 -0.0646478 -6.01865 0
M  V30 350 H 36.9184 -1.03208 -2.85625 0
M  V30 351 H 34.5034 -0.569025 -1.38139 0
M  V30 352 H 36.3854 1.10067 -4.06772 0
M  V30 353 H 35.0604 1.41165 -2.91297 0
M  V30 354 H 33.9674 -0.782559 -3.65823 0
M  V30 355 H 35.3004 -1.01034 -4.81719 0
M  V30 356 N 36.9525 1.47285 -0.560781 0
M  V30 357 C 37.8625 2.33846 0.187954 0
M  V30 358 C 38.8785 1.48412 0.908293 0
M  V30 359 O 40.0545 1.81332 0.876388 0
M  V30 360 C 37.1195 3.25178 1.2025 0
M  V30 361 C 36.1805 4.26504 0.489208 0
M  V30 362 C 35.4135 5.13472 1.45542 0
M  V30 363 O 35.6365 5.02959 2.6905 0
M  V30 364 O 34.5705 5.93902 0.977963 0
M  V30 365 H 38.3965 2.99177 -0.522177 0
M  V30 366 H 35.9815 1.45903 -0.321364 0
M  V30 367 H 37.8635 3.81584 1.78805 0
M  V30 368 H 36.5385 2.6247 1.89449 0
M  V30 369 H 35.4455 3.73847 -0.137627 0
M  V30 370 H 36.7785 4.91935 -0.161399 0
M  V30 371 N 38.4306 0.297415 1.54768 0
M  V30 372 C 39.6776 -0.312913 2.00068 0
M  V30 373 C 40.0056 -1.54171 1.18582 0
M  V30 374 O 39.2606 -1.94108 0.249133 0
M  V30 375 C 39.5596 -0.717561 3.50123 0
M  V30 376 C 39.2256 0.409095 4.4904 0
M  V30 377 C 37.8876 0.718399 4.75807 0
M  V30 378 C 40.2396 1.16717 5.07963 0
M  V30 379 C 37.5676 1.78896 5.5876 0
M  V30 380 C 39.9196 2.22762 5.92081 0
M  V30 381 C 38.5836 2.54303 6.1716 0
M  V30 382 H 37.8536 -0.114503 0.7321 0
M  V30 383 H 40.5006 0.415767 1.86932 0
M  V30 384 H 38.8056 -1.52627 3.60849 0
M  V30 385 H 40.5026 -1.20091 3.82595 0
M  V30 386 H 37.0926 0.157918 4.28309 0
M  V30 387 H 41.2766 0.941466 4.87289 0
M  V30 388 H 36.5326 2.0381 5.7643 0
M  V30 389 H 40.7066 2.81962 6.36765 0
M  V30 390 H 38.3336 3.3739 6.81229 0
M  V30 391 N 39.9087 -1.5758 0.0250728 0
M  V30 392 C 40.8387 -2.13007 -0.956575 0
M  V30 393 C 41.8197 -1.0452 -1.342 0
M  V30 394 O 43.0047 -1.32332 -1.42133 0
M  V30 395 C 40.1347 -2.65386 -2.24026 0
M  V30 396 C 39.0887 -3.78623 -1.99571 0
M  V30 397 C 38.4147 -4.17414 -3.3417 0
M  V30 398 C 39.7147 -5.04867 -1.33814 0
M  V30 399 H 41.4087 -2.9528 -0.494991 0
M  V30 400 H 38.9547 -1.42042 -0.236651 0
M  V30 401 H 40.9077 -3.02794 -2.93076 0
M  V30 402 H 39.6317 -1.80268 -2.72343 0
M  V30 403 H 38.2907 -3.41646 -1.32941 0
M  V30 404 H 37.9387 -3.29284 -3.80238 0
M  V30 405 H 37.6387 -4.93719 -3.18615 0
M  V30 406 H 39.1627 -4.57402 -4.04495 0
M  V30 407 H 40.5767 -5.39888 -1.92857 0
M  V30 408 H 38.9737 -5.86144 -1.28669 0
M  V30 409 H 40.0437 -4.83904 -0.310561 0
M  V30 410 N 41.3868 0.248026 -1.55636 0
M  V30 411 C 42.3188 1.32993 -1.8667 0
M  V30 412 C 43.3318 1.44345 -0.752877 0
M  V30 413 O 44.5208 1.45715 -1.03098 0
M  V30 414 C 41.6208 2.70863 -2.03682 0
M  V30 415 C 40.7938 2.81792 -3.34532 0
M  V30 416 C 39.8528 4.005 -3.41301 0
M  V30 417 O 38.8788 3.9008 -4.14519 0
M  V30 418 N 40.0808 5.13618 -2.70512 0
M  V30 419 H 42.8458 1.06707 -2.8006 0
M  V30 420 H 40.4068 0.438129 -1.55859 0
M  V30 421 H 42.3988 3.48612 -2.05553 0
M  V30 422 H 40.9688 2.89862 -1.17041 0
M  V30 423 H 40.1888 1.90729 -3.44987 0
M  V30 424 H 41.4768 2.86043 -4.20781 0
M  V30 425 H 40.8748 5.24975 -2.10755 0
M  V30 426 H 39.4318 5.89505 -2.78077 0
M  V30 427 N 42.8649 1.48995 0.513639 0
M  V30 428 C 43.7749 1.67443 1.64317 0
M  V30 429 C 44.7909 0.556947 1.64846 0
M  V30 430 O 45.9669 0.830082 1.83498 0
M  V30 431 C 43.0319 1.72515 3.00732 0
M  V30 432 C 42.0929 2.96009 3.1093 0
M  V30 433 C 41.3259 3.00829 4.40837 0
M  V30 434 O 41.5489 2.13594 5.28898 0
M  V30 435 O 40.4829 3.93168 4.55744 0
M  V30 436 H 44.3089 2.63106 1.51687 0
M  V30 437 H 41.8939 1.32588 0.688543 0
M  V30 438 H 43.7759 1.78277 3.81831 0
M  V30 439 H 42.4509 0.800278 3.13651 0
M  V30 440 H 41.3579 2.9577 2.29065 0
M  V30 441 H 42.6909 3.87934 3.02933 0
M  V30 442 N 44.343 -0.763751 1.37857 0
M  V30 443 C 45.276 -1.88486 1.28639 0
M  V30 444 C 46.254 -1.61757 0.165363 0
M  V30 445 O 47.438 -1.85391 0.340948 0
M  V30 446 C 44.565 -3.23884 0.990811 0
M  V30 447 C 43.611 -3.69514 2.12983 0
M  V30 448 S 44.444 -3.82244 3.75033 0
M  V30 449 C 45.6 -5.20477 3.47641 0
M  V30 450 H 45.833 -1.96017 2.23527 0
M  V30 451 H 43.366 -0.925684 1.23574 0
M  V30 452 H 45.324 -4.02081 0.827101 0
M  V30 453 H 43.985 -3.14044 0.0592832 0
M  V30 454 H 43.178 -4.67696 1.87821 0
M  V30 455 H 42.78 -2.98441 2.25408 0
M  V30 456 H 45.072 -6.05905 3.03125 0
M  V30 457 H 46.015 -5.50655 4.4518 0
M  V30 458 H 46.423 -4.88793 2.82385 0
M  V30 459 N 45.8211 -1.22559 -0.990812 0
M  V30 460 C 47.0691 -1.04933 -1.72724 0
M  V30 461 C 47.3901 0.416158 -1.90508 0
M  V30 462 O 46.6601 1.29918 -1.46622 0
M  V30 463 H 45.2401 -0.385296 -0.639965 0
M  V30 464 H 47.9021 -1.54105 -1.19322 0
M  V30 465 H 46.9981 -1.52886 -2.72089 0
M  V30 466 N 47.2992 1.18797 -1.03562 0
M  V30 467 C 48.2472 2.24297 -0.615905 0
M  V30 468 C 49.2412 1.65643 0.354808 0
M  V30 469 O 50.4472 1.78618 0.22265 0
M  V30 470 H 46.8222 0.729909 -0.180934 0
M  V30 471 H 48.7932 2.5701 -1.5162 0
M  V30 472 C 47.5422 3.47698 0.0104735 0
M  V30 473 H 46.8652 3.93125 -0.727509 0
M  V30 474 H 48.3052 4.23159 0.266995 0
M  V30 475 C 46.7642 3.12489 1.25905 0
M  V30 476 O 47.2942 3.25761 2.35038 0
M  V30 477 N 45.5002 2.6686 1.15039 0
M  V30 478 H 45.0472 2.56261 0.262328 0
M  V30 479 H 45.0052 2.43674 1.98672 0
M  V30 480 N 48.7773 0.814389 1.34928 0
M  V30 481 C 50.0263 0.394871 1.97797 0
M  V30 482 C 50.3393 -1.04555 1.65311 0
M  V30 483 O 51.5453 -1.56856 2.21604 0
M  V30 484 C 50.0013 0.655103 3.53888 0
M  V30 485 C 49.6093 2.10858 3.95276 0
M  V30 486 C 51.3533 0.301329 4.23429 0
M  V30 487 C 49.2603 2.31415 5.44244 0
M  V30 488 H 48.1903 0.143913 0.740139 0
M  V30 489 H 50.8413 0.999544 1.53888 0
M  V30 490 H 49.2233 -0.0196253 3.95995 0
M  V30 491 H 50.3973 2.82176 3.64298 0
M  V30 492 H 48.7123 2.42297 3.38646 0
M  V30 493 H 51.3093 0.432869 5.32945 0
M  V30 494 H 51.6523 -0.75331 4.09428 0
M  V30 495 H 52.1853 0.930288 3.86769 0
M  V30 496 H 48.9243 3.35353 5.63222 0
M  V30 497 H 48.4443 1.6463 5.76764 0
M  V30 498 H 50.1233 2.13352 6.10811 0
M  V30 499 N 50.2554 -1.46986 0.568584 0
M  V30 500 C 51.1874 -2.28233 -0.210337 0
M  V30 501 C 52.2004 -1.37682 -0.868767 0
M  V30 502 O 53.3894 -1.62406 -0.740705 0
M  V30 503 C 50.4894 -3.12293 -1.3163 0
M  V30 504 C 49.6624 -4.30878 -0.7525 0
M  V30 505 C 48.7214 -4.96445 -1.74439 0
M  V30 506 O 47.7474 -5.54482 -1.286 0
M  V30 507 N 48.9494 -4.92171 -3.07812 0
M  V30 508 H 51.7144 -2.95723 0.486648 0
M  V30 509 H 49.2754 -1.56742 0.405409 0
M  V30 510 H 51.2674 -3.53022 -1.97883 0
M  V30 511 H 49.8374 -2.46971 -1.91636 0
M  V30 512 H 49.0574 -3.94104 0.0871128 0
M  V30 513 H 50.3454 -5.07558 -0.35536 0
M  V30 514 H 49.7434 -4.46239 -3.47688 0
M  V30 515 H 48.3004 -5.36884 -3.69592 0
M  V30 516 N 51.7335 -0.305618 -1.54608 0
M  V30 517 C 52.6435 0.57778 -2.27374 0
M  V30 518 C 53.6595 1.14451 -1.31061 0
M  V30 519 O 54.8355 1.16831 -1.6405 0
M  V30 520 C 51.9005 1.73123 -3.00382 0
M  V30 521 C 50.9615 1.19812 -4.12242 0
M  V30 522 C 50.1945 2.2966 -4.81759 0
M  V30 523 O 50.4175 3.49651 -4.50666 0
M  V30 524 O 49.3515 1.96091 -5.69062 0
M  V30 525 H 53.1775 -0.012624 -3.03697 0
M  V30 526 H 50.7625 -0.0719184 -1.49227 0
M  V30 527 H 52.6445 2.40315 -3.4616 0
M  V30 528 H 51.3195 2.30815 -2.26949 0
M  V30 529 H 50.2265 0.491798 -3.70853 0
M  V30 530 H 51.5595 0.666566 -4.87666 0
M  V30 531 N 53.2116 1.57565 -0.0334293 0
M  V30 532 C 54.4606 1.91155 0.643639 0
M  V30 533 C 54.7736 0.91192 1.73042 0
M  V30 534 O 55.9796 1.13923 2.46442 0
M  V30 535 C 54.4356 3.39443 1.1961 0
M  V30 536 C 54.0436 4.47774 0.142381 0
M  V30 537 C 55.7876 3.82094 1.84944 0
M  V30 538 C 53.6946 5.87162 0.706727 0
M  V30 539 H 52.6246 0.713368 0.244176 0
M  V30 540 H 55.2756 1.8323 -0.0994323 0
M  V30 541 H 53.6576 3.42313 1.99092 0
M  V30 542 H 54.8316 4.56469 -0.630296 0
M  V30 543 H 53.1466 4.14352 -0.412446 0
M  V30 544 H 55.7436 4.83591 2.2813 0
M  V30 545 H 56.0866 3.17386 2.69392 0
M  V30 546 H 56.6196 3.81665 1.12145 0
M  V30 547 H 53.3586 6.55424 -0.0997178 0
M  V30 548 H 52.8786 5.82064 1.44779 0
M  V30 549 H 54.5576 6.35866 1.19514 0
M  V30 550 N 54.6897 -0.239769 1.55765 0
M  V30 551 C 55.9147 -0.988373 1.82335 0
M  V30 552 C 56.3397 -1.77886 0.611421 0
M  V30 553 O 55.6977 -1.75889 -0.439639 0
M  V30 554 C 55.7457 -1.89627 3.06715 0
M  V30 555 O 54.8497 -2.98904 2.84131 0
M  V30 556 H 54.1907 -0.280858 0.601677 0
M  V30 557 H 56.7207 -0.258597 2.02959 0
M  V30 558 H 56.7307 -2.30957 3.36338 0
M  V30 559 H 55.4057 -1.31511 3.9456 0
M  V30 560 H 53.9827 -2.61651 2.65694 0
M  V30 561 N 56.1678 -1.49265 -0.50573 0
M  V30 562 C 57.0998 -1.617 -1.62437 0
M  V30 563 C 58.1128 -0.499924 -1.54934 0
M  V30 564 O 59.3018 -0.771785 -1.60953 0
M  V30 565 C 56.4018 -1.5533 -3.01207 0
M  V30 566 C 55.5748 -2.8249 -3.33943 0
M  V30 567 C 54.6338 -2.69238 -4.52103 0
M  V30 568 O 53.6598 -3.43167 -4.5412 0
M  V30 569 N 54.8618 -1.80468 -5.51735 0
M  V30 570 H 57.6268 -2.58177 -1.52199 0
M  V30 571 H 55.1878 -1.46294 -0.693511 0
M  V30 572 H 57.1798 -1.44125 -3.78167 0
M  V30 573 H 55.7498 -0.667297 -3.05395 0
M  V30 574 H 54.9698 -3.08081 -2.45926 0
M  V30 575 H 56.2578 -3.66802 -3.5261 0
M  V30 576 H 55.6558 -1.19653 -5.52901 0
M  V30 577 H 54.2128 -1.75188 -6.27816 0
M  V30 578 N 57.6459 0.756429 -1.3826 0
M  V30 579 C 58.8709 1.55077 -1.37717 0
M  V30 580 C 59.2959 1.88073 0.03164 0
M  V30 581 O 58.6539 1.50364 1.01293 0
M  V30 582 C 58.7019 2.8283 -2.23695 0
M  V30 583 O 57.8059 3.77862 -1.6521 0
M  V30 584 H 57.1469 0.469152 -0.469885 0
M  V30 585 H 59.6769 0.935019 -1.81985 0
M  V30 586 H 59.6869 3.31783 -2.37453 0
M  V30 587 H 58.3619 2.58144 -3.2609 0
M  V30 588 H 56.9389 3.36555 -1.60578 0
M  V30 589 N 59.124 1.23083 0.984299 0
M  V30 590 C 60.373 1.05466 1.71929 0
M  V30 591 C 60.686 -0.409211 1.91272 0
M  V30 592 O 61.892 -0.705226 2.62181 0
M  V30 593 C 60.348 1.83874 3.09384 0
M  V30 594 C 59.956 3.34566 2.97943 0
M  V30 595 C 61.7 1.74734 3.8687 0
M  V30 596 C 59.607 4.05381 4.30605 0
M  V30 597 H 58.537 0.391039 0.644674 0
M  V30 598 H 61.188 1.47013 1.09815 0
M  V30 599 H 59.57 1.35131 3.72231 0
M  V30 600 H 60.744 3.90767 2.44209 0
M  V30 601 H 59.059 3.44476 2.33934 0
M  V30 602 H 61.656 2.24957 4.85076 0
M  V30 603 H 61.999 0.709372 4.10212 0
M  V30 604 H 62.532 2.21067 3.30717 0
M  V30 605 H 59.271 5.09467 4.1246 0
M  V30 606 H 58.791 3.53967 4.84218 0
M  V30 607 H 60.47 4.11458 4.99311 0
M  V30 608 N 60.6021 -1.18246 1.0419 0
M  V30 609 C 61.8501 -1.87886 0.744543 0
M  V30 610 C 62.1711 -1.8082 -0.730006 0
M  V30 611 O 61.4411 -1.22736 -1.52685 0
M  V30 612 H 60.0211 -0.695556 0.272417 0
M  V30 613 H 62.6831 -1.43494 1.31892 0
M  V30 614 H 61.7791 -2.9389 1.05049 0
M  V30 615 N 62.0802 -0.821533 -1.34494 0
M  V30 616 C 62.9902 -0.244355 -2.33324 0
M  V30 617 C 64.0062 0.620527 -1.62559 0
M  V30 618 O 65.1822 0.528754 -1.94335 0
M  V30 619 C 62.2472 0.585368 -3.41723 0
M  V30 620 C 61.3082 -0.301752 -4.28238 0
M  V30 621 C 60.5412 0.488466 -5.3146 0
M  V30 622 O 60.7642 1.72186 -5.4379 0
M  V30 623 O 59.6982 -0.12848 -6.01763 0
M  V30 624 H 63.5242 -1.06231 -2.84515 0
M  V30 625 H 61.1092 -0.583645 -1.37528 0
M  V30 626 H 62.9912 1.05747 -4.07916 0
M  V30 627 H 61.6662 1.38068 -2.92778 0
M  V30 628 H 60.5732 -0.821315 -3.64973 0
M  V30 629 H 61.9062 -1.06138 -4.8062 0
M  V30 630 N 63.5583 1.46682 -0.576371 0
M  V30 631 C 64.8353 1.95599 0.00703437 0
M  V30 632 C 65.2153 1.51904 1.46589 0
M  V30 633 O 64.5633 0.766755 2.15251 0
M  V30 634 C 64.7733 3.4864 -0.158404 0
M  V30 635 C 66.1213 4.24594 -0.0229439 0
M  V30 636 O 67.1453 3.56094 -0.0869173 0
M  V30 637 O 66.0043 5.46373 0.118015 0
M  V30 638 H 63.0983 0.825275 0.053384 0
M  V30 639 H 65.6443 1.56996 -0.644244 0
M  V30 640 H 64.4163 3.7331 -1.17282 0
M  V30 641 H 64.0393 3.94057 0.5296 0
M  V30 642 N 65.0364 0.313813 1.54444 0
M  V30 643 C 66.2614 -0.296681 2.05267 0
M  V30 644 C 66.6864 -1.45757 1.18897 0
M  V30 645 O 66.0444 -1.80239 0.195886 0
M  V30 646 C 66.0924 -0.71831 3.53373 0
M  V30 647 O 65.1964 -1.82175 3.69981 0
M  V30 648 H 64.5374 -0.0554061 0.661684 0
M  V30 649 H 67.0674 0.459387 1.99376 0
M  V30 650 H 67.0774 -1.00364 3.95463 0
M  V30 651 H 65.7524 0.130821 4.15694 0
M  V30 652 H 64.3294 -1.53598 3.39797 0
M  V30 653 N 66.5145 -1.57545 0.0417849 0
M  V30 654 C 67.7395 -1.97035 -0.647455 0
M  V30 655 C 68.1645 -0.918775 -1.64135 0
M  V30 656 O 67.5225 0.119006 -1.80909 0
M  V30 657 C 67.5705 -3.35609 -1.31905 0
M  V30 658 O 66.6745 -3.3287 -2.43457 0
M  V30 659 H 66.0155 -0.64211 -0.169086 0
M  V30 660 H 68.5455 -2.04318 0.107399 0
M  V30 661 H 68.5555 -3.72126 -1.67291 0
M  V30 662 H 67.2305 -4.11685 -0.590586 0
M  V30 663 H 65.8075 -3.08087 -2.10088 0
M  V30 664 N 67.9926 0.231505 -1.5589 0
M  V30 665 C 69.2406 0.955461 -1.78088 0
M  V30 666 C 69.5616 1.85262 -0.608533 0
M  V30 667 O 68.8316 1.92277 0.375035 0
M  V30 668 H 67.4116 0.355787 -0.656829 0
M  V30 669 H 70.0736 0.245751 -1.93344 0
M  V30 670 H 69.1696 1.56814 -2.69844 0
M  V30 671 N 69.4707 1.49531 0.497807 0
M  V30 672 C 70.6957 1.63159 1.28039 0
M  V30 673 C 71.1207 0.30418 1.85624 0
M  V30 674 O 70.4787 -0.728618 1.66015 0
M  V30 675 C 70.5267 2.70537 2.38416 0
M  V30 676 O 69.6307 2.29931 3.42353 0
M  V30 677 H 68.9717 0.546001 0.377861 0
M  V30 678 H 71.5017 1.9574 0.59558 0
M  V30 679 H 71.5117 2.92802 2.84132 0
M  V30 680 H 70.1867 3.6689 1.95869 0
M  V30 681 H 68.7637 2.18009 3.02533 0
M  V30 682 N 70.9488 -0.749086 1.3866 0
M  V30 683 C 72.1958 -1.50833 1.35114 0
M  V30 684 C 72.5238 -1.94415 -0.0574049 0
M  V30 685 O 71.7788 -1.66065 -1.03541 0
M  V30 686 C 72.0778 -2.7712 2.25697 0
M  V30 687 C 71.7438 -2.52477 3.73585 0
M  V30 688 C 70.4058 -2.45466 4.13884 0
M  V30 689 C 72.7578 -2.31066 4.67181 0
M  V30 690 C 70.0858 -2.15064 5.45861 0
M  V30 691 C 72.4378 -2.02183 5.9942 0
M  V30 692 C 71.1018 -1.93631 6.38798 0
M  V30 693 H 70.3718 -0.551936 0.494416 0
M  V30 694 H 73.0188 -0.860979 1.71054 0
M  V30 695 H 71.3238 -3.46528 1.82827 0
M  V30 696 H 73.0208 -3.35096 2.20254 0
M  V30 697 H 69.6108 -2.58807 3.41638 0
M  V30 698 H 73.7948 -2.35459 4.3689 0
M  V30 699 H 69.0508 -2.06954 5.75308 0
M  V30 700 H 73.2248 -1.8462 6.71482 0
M  V30 701 H 70.8518 -1.69839 7.40985 0
M  V30 702 N 72.4269 -1.23603 -0.977757 0
M  V30 703 C 73.6749 -1.06759 -1.71601 0
M  V30 704 C 73.9959 0.395929 -1.90938 0
M  V30 705 O 73.2659 1.28356 -1.47992 0
M  V30 706 H 71.8459 -0.392062 -0.635843 0
M  V30 707 H 74.5079 -1.55362 -1.1768 0
M  V30 708 H 73.6039 -1.55763 -2.70452 0
M  V30 709 N 73.905 1.17692 -1.04816 0
M  V30 710 C 75.152 1.87859 -0.75599 0
M  V30 711 C 75.48 1.80812 0.716752 0
M  V30 712 O 74.735 1.20819 1.53952 0
M  V30 713 C 75.034 3.37462 -1.17703 0
M  V30 714 C 74.7 3.64713 -2.65133 0
M  V30 715 C 73.362 3.71859 -3.05408 0
M  V30 716 C 75.714 3.76492 -3.60421 0
M  V30 717 C 73.042 3.88271 -4.39843 0
M  V30 718 C 75.394 3.94421 -4.94585 0
M  V30 719 C 74.058 3.99806 -5.3452 0
M  V30 720 H 73.328 0.687425 -0.276636 0
M  V30 721 H 75.975 1.39255 -1.31455 0
M  V30 722 H 74.28 3.88097 -0.537395 0
M  V30 723 H 75.977 3.90109 -0.928218 0
M  V30 724 H 72.567 3.59772 -2.32942 0
M  V30 725 H 76.751 3.70295 -3.30447 0
M  V30 726 H 72.007 3.90687 -4.70291 0
M  V30 727 H 76.181 4.02477 -5.68318 0
M  V30 728 H 73.808 4.12276 -6.38696 0
M  V30 729 N 75.3831 0.828654 1.34056 0
M  V30 730 C 76.6111 0.43262 2.02326 0
M  V30 731 C 77.0261 -0.963147 1.62385 0
M  V30 732 O 76.3831 -1.62425 0.832121 0
M  V30 733 C 76.4341 0.53182 3.57567 0
M  V30 734 O 76.1551 1.87258 3.96063 0
M  V30 735 C 77.6561 0.131422 4.43105 0
M  V30 736 H 74.8761 0.172923 0.648335 0
M  V30 737 H 77.4201 1.1184 1.71208 0
M  V30 738 H 75.5751 -0.105938 3.87255 0
M  V30 739 H 75.9891 1.85087 4.90758 0
M  V30 740 H 77.4631 0.251904 5.51425 0
M  V30 741 H 77.9401 -0.925645 4.29335 0
M  V30 742 H 78.5461 0.743207 4.18756 0
M  V30 743 N 76.8612 -1.46375 0.584142 0
M  V30 744 C 77.7712 -2.34115 -0.150728 0
M  V30 745 C 78.7872 -1.49838 -0.884567 0
M  V30 746 O 79.9632 -1.82704 -0.847429 0
M  V30 747 C 77.0282 -3.2705 -1.15062 0
M  V30 748 C 76.0892 -4.27228 -0.421293 0
M  V30 749 C 75.3222 -5.15722 -1.37355 0
M  V30 750 O 75.5452 -5.07176 -2.61014 0
M  V30 751 O 74.4792 -5.95383 -0.883355 0
M  V30 752 H 78.3052 -2.98309 0.569708 0
M  V30 753 H 75.8902 -1.45373 0.344535 0
M  V30 754 H 77.7722 -3.84381 -1.72712 0
M  V30 755 H 76.4472 -2.65451 -1.8525 0
M  V30 756 H 75.3542 -3.7358 0.197085 0
M  V30 757 H 76.6872 -4.91616 0.239641 0
M  V30 758 N 78.3393 -0.321999 -1.54275 0
M  V30 759 C 79.5693 0.282642 -2.04658 0
M  V30 760 C 79.9773 1.46453 -1.19784 0
M  V30 761 O 79.3203 1.82367 -0.220932 0
M  V30 762 C 79.3823 0.781857 -3.50895 0
M  V30 763 C 79.0463 -0.277517 -4.56157 0
M  V30 764 C 80.0433 -1.11307 -5.07845 0
M  V30 765 C 77.7283 -0.425256 -5.00497 0
M  V30 766 C 79.7223 -2.08211 -6.02434 0
M  V30 767 C 77.4093 -1.39771 -5.94901 0
M  V30 768 C 78.4073 -2.2246 -6.45756 0
M  V30 769 O 78.0953 -3.18054 -7.38307 0
M  V30 770 H 77.8273 0.0622636 -0.673126 0
M  V30 771 H 80.3813 -0.465792 -2.00049 0
M  V30 772 H 78.6113 1.58118 -3.52896 0
M  V30 773 H 80.3003 1.30467 -3.84361 0
M  V30 774 H 81.0663 -1.00991 -4.74369 0
M  V30 775 H 76.9453 0.20847 -4.60528 0
M  V30 776 H 80.4893 -2.72791 -6.42052 0
M  V30 777 H 76.3863 -1.50152 -6.27794 0
M  V30 778 H 77.1543 -3.13275 -7.56175 0
M  V30 779 N 79.8174 1.5752 -0.0501392 0
M  V30 780 C 80.7494 2.08413 0.95376 0
M  V30 781 C 81.7624 1.01175 1.27544 0
M  V30 782 O 82.9514 1.28744 1.23641 0
M  V30 783 C 80.0514 2.51138 2.27559 0
M  V30 784 C 79.2244 3.817 2.13598 0
M  V30 785 C 78.2834 4.10749 3.28895 0
M  V30 786 O 77.3094 4.80685 3.04845 0
M  V30 787 N 78.5114 3.62579 4.5334 0
M  V30 788 H 81.2764 2.95165 0.519383 0
M  V30 789 H 78.8374 1.61327 0.136127 0
M  V30 790 H 80.8294 2.67648 3.03557 0
M  V30 791 H 79.3994 1.6964 2.62567 0
M  V30 792 H 78.6194 3.74782 1.22197 0
M  V30 793 H 79.9074 4.67201 2.01496 0
M  V30 794 H 79.3054 3.06039 4.75769 0
M  V30 795 H 77.8624 3.84329 5.26436 0
M  V30 796 N 81.2955 -0.223234 1.56011 0
M  V30 797 C 82.5255 -0.963413 1.82762 0
M  V30 798 C 82.9335 -1.78516 0.626804 0
M  V30 799 O 82.2765 -1.78974 -0.414014 0
M  V30 800 C 82.3385 -1.93126 3.0322 0
M  V30 801 C 82.0025 -1.2942 4.38291 0
M  V30 802 C 82.9995 -0.684916 5.15369 0
M  V30 803 C 80.6845 -1.30647 4.85012 0
M  V30 804 C 82.6785 -0.0963971 6.37327 0
M  V30 805 C 80.3655 -0.71411 6.06913 0
M  V30 806 C 81.3635 -0.110123 6.82911 0
M  V30 807 O 81.0515 0.47303 8.02507 0
M  V30 808 H 80.7835 -0.288011 0.611576 0
M  V30 809 H 83.3375 -0.244103 2.03944 0
M  V30 810 H 81.5675 -2.68952 2.77852 0
M  V30 811 H 83.2565 -2.53685 3.16857 0
M  V30 812 H 84.0225 -0.667774 4.80381 0
M  V30 813 H 79.9015 -1.76598 4.25833 0
M  V30 814 H 83.4455 0.375657 6.96588 0
M  V30 815 H 79.3425 -0.728659 6.41374 0
M  V30 816 H 80.1105 0.367186 8.17676 0
M  V30 817 N 82.7736 -1.49793 -0.48987 0
M  V30 818 C 83.7036 -1.70201 -1.59856 0
M  V30 819 C 84.6846 -0.55076 -1.60937 0
M  V30 820 O 85.8696 -0.787841 -1.77501 0
M  V30 821 C 82.9996 -1.77882 -2.98287 0
M  V30 822 C 81.9536 -2.92907 -3.12073 0
M  V30 823 C 81.2796 -2.85712 -4.51965 0
M  V30 824 C 82.5796 -4.3369 -2.91051 0
M  V30 825 H 84.2736 -2.63025 -1.43032 0
M  V30 826 H 81.8196 -1.26574 -0.686664 0
M  V30 827 H 83.7726 -1.90744 -3.75759 0
M  V30 828 H 82.4966 -0.816653 -3.16225 0
M  V30 829 H 81.1556 -2.79665 -2.37029 0
M  V30 830 H 80.8036 -1.8738 -4.66795 0
M  V30 831 H 80.5036 -3.62921 -4.62128 0
M  V30 832 H 82.0276 -3.00598 -5.31482 0
M  V30 833 H 83.4416 -4.47555 -3.58284 0
M  V30 834 H 81.8386 -5.12205 -3.12675 0
M  V30 835 H 82.9086 -4.47362 -1.87071 0
M  V30 836 N 84.2517 0.741722 -1.39055 0
M  V30 837 C 85.4997 1.49818 -1.35643 0
M  V30 838 C 85.8207 1.94938 0.0491642 0
M  V30 839 O 85.0907 1.68505 0.999141 0
M  V30 840 H 83.6707 0.555755 -0.499144 0
M  V30 841 H 86.3327 0.880957 -1.73854 0
M  V30 842 H 85.4287 2.38348 -2.01486 0
M  V30 843 N 85.7298 1.2412 0.971189 0
M  V30 844 C 86.9548 1.10667 1.75407 0
M  V30 845 C 87.3798 -0.337048 1.85056 0
M  V30 846 O 86.7378 -1.24396 1.31892 0
M  V30 847 C 86.7858 1.74726 3.15441 0
M  V30 848 O 85.8898 1.01566 3.99697 0
M  V30 849 H 85.2308 0.387341 0.539317 0
M  V30 850 H 87.7608 1.64358 1.2185 0
M  V30 851 H 87.7708 1.80341 3.6598 0
M  V30 852 H 86.4458 2.79773 3.07734 0
M  V30 853 H 85.0228 1.03713 3.58187 0
M  V30 854 N 87.2079 -1.17134 1.05439 0
M  V30 855 C 88.4479 -1.89137 0.77502 0
M  V30 856 C 88.8119 -1.79345 -0.685526 0
M  V30 857 O 90.0129 -2.46188 -1.0791 0
M  V30 858 C 88.2839 -3.35003 1.2453 0
M  V30 859 S 89.8429 -4.24952 1.09367 0
M  V30 860 H 86.6609 -0.652949 0.281387 0
M  V30 861 H 89.2629 -1.4145 1.34953 0
M  V30 862 H 87.9669 -3.39666 2.30338 0
M  V30 863 H 87.4979 -3.87736 0.665166 0
M  V30 864 H 89.5129 -4.96196 0.0193397 0
M  V30 865 N 88.686 -0.835752 -1.33615 0
M  V30 866 C 90.097 -0.487099 -1.80234 0
M  V30 867 C 90.448 0.993627 -1.69179 0
M  V30 868 O 89.573 1.77403 -1.23924 0
M  V30 869 C 90.168 -0.877385 -3.27242 0
M  V30 870 C 88.727 -0.580915 -3.7189 0
M  V30 871 C 87.874 -1.0874 -2.5509 0
M  V30 872 H 90.825 -1.02474 -1.2118 0
M  V30 873 H 90.846 -0.186195 -3.80044 0
M  V30 874 H 90.358 -1.95512 -3.35256 0
M  V30 875 H 88.459 0.486881 -3.69405 0
M  V30 876 H 88.572 -1.13396 -4.65487 0
M  V30 877 H 86.936 -0.508392 -2.49575 0
M  V30 878 H 87.719 -2.17184 -2.65868 0
M  V30 879 N 90.1641 1.46063 -0.591896 0
M  V30 880 C 91.4121 2.01938 -0.0808391 0
M  V30 881 C 91.7331 1.46475 1.28725 0
M  V30 882 O 91.0031 0.652944 1.84698 0
M  V30 883 H 89.5831 0.746516 -0.0268938 0
M  V30 884 H 92.2451 1.79055 -0.769752 0
M  V30 885 H 91.3411 3.12094 -0.0187578 0
M  V30 886 N 91.6422 0.330177 1.54103 0
M  V30 887 C 92.8672 -0.274893 2.0557 0
M  V30 888 C 93.2922 -1.44487 1.20437 0
M  V30 889 O 92.6502 -1.80021 0.214991 0
M  V30 890 C 92.6982 -0.68079 3.54115 0
M  V30 891 O 91.8022 -1.7824 3.71893 0
M  V30 892 H 91.1432 -0.0483849 0.662235 0
M  V30 893 H 93.6732 0.480508 1.98878 0
M  V30 894 H 93.6832 -0.961635 3.96505 0
M  V30 895 H 92.3582 0.174903 4.15532 0
M  V30 896 H 90.9352 -1.49985 3.41407 0
M  V30 897 N 93.1203 -1.57491 0.0584922 0
M  V30 898 C 94.3973 -1.84346 -0.653918 0
M  V30 899 C 94.7773 -0.948355 -1.88599 0
M  V30 900 O 94.1253 -0.0112403 -2.28497 0
M  V30 901 C 94.3353 -3.34239 -1.00425 0
M  V30 902 C 95.6833 -4.01431 -1.38342 0
M  V30 903 O 96.7073 -3.38907 -1.09637 0
M  V30 904 O 95.5663 -5.11683 -1.91943 0
M  V30 905 H 92.6603 -0.761112 -0.323478 0
M  V30 906 H 95.2063 -1.6947 0.0884125 0
M  V30 907 H 93.9783 -3.91089 -0.128625 0
M  V30 908 H 93.6013 -3.54329 -1.80378 0
M  V30 909 N 94.5984 0.214957 -1.56127 0
M  V30 910 C 95.8464 0.936518 -1.79091 0
M  V30 911 C 96.1674 1.84606 -0.628148 0
M  V30 912 O 95.4374 1.92664 0.35462 0
M  V30 913 H 94.0174 0.3488 -0.660566 0
M  V30 914 H 96.6794 0.22523 -1.93594 0
M  V30 915 H 95.7754 1.53943 -2.71492 0
M  V30 916 N 96.0765 1.50051 0.48192 0
M  V30 917 C 97.3015 1.64508 1.26301 0
M  V30 918 C 97.7265 0.323851 1.85291 0
M  V30 919 O 97.0845 -0.710969 1.66778 0
M  V30 920 C 97.1325 2.7305 2.35533 0
M  V30 921 O 96.2365 2.3355 3.39895 0
M  V30 922 H 95.5775 0.549978 0.372048 0
M  V30 923 H 98.1075 1.9636 0.574786 0
M  V30 924 H 98.1175 2.95799 2.8101 0
M  V30 925 H 96.7925 3.68946 1.91967 0
M  V30 926 H 95.3695 2.21205 3.00204 0
M  V30 927 N 97.5546 -0.734337 1.39446 0
M  V30 928 C 98.8006 -1.49613 1.36908 0
M  V30 929 C 99.1336 -1.94169 -0.0347829 0
M  V30 930 O 98.4086 -1.66833 -0.999847 0
M  V30 931 C 98.6916 -2.73534 2.34203 0
M  V30 932 C 98.5446 -2.34993 3.83534 0
M  V30 933 C 99.8636 -3.75635 2.29317 0
M  V30 934 H 96.9826 -0.542714 0.498629 0
M  V30 935 H 99.6246 -0.839597 1.70443 0
M  V30 936 H 97.7746 -3.29553 2.05736 0
M  V30 937 H 99.4466 -1.84601 4.22753 0
M  V30 938 H 97.6896 -1.67213 4.00278 0
M  V30 939 H 98.3606 -3.23738 4.47099 0
M  V30 940 H 100.837 -3.29203 2.54489 0
M  V30 941 H 99.7126 -4.60008 2.99472 0
M  V30 942 H 99.9736 -4.22603 1.29842 0
M  V30 943 N 99.0327 -1.24633 -0.964593 0
M  V30 944 C 100.282 -1.08188 -1.7023 0
M  V30 945 C 100.595 0.37873 -1.91898 0
M  V30 946 O 101.801 0.663427 -2.6327 0
M  V30 947 C 100.257 -1.88773 -3.06419 0
M  V30 948 C 99.8647 -3.39263 -2.92582 0
M  V30 949 C 101.609 -1.80867 -3.84041 0
M  V30 950 C 99.5157 -4.1218 -4.24101 0
M  V30 951 H 98.4457 -0.401245 -0.638372 0
M  V30 952 H 101.097 -1.48742 -1.07462 0
M  V30 953 H 99.4787 -1.41035 -3.70034 0
M  V30 954 H 100.653 -3.94603 -2.37961 0
M  V30 955 H 98.9677 -3.48154 -2.28424 0
M  V30 956 H 101.565 -2.32646 -4.81435 0
M  V30 957 H 101.908 -0.774543 -4.09031 0
M  V30 958 H 102.441 -2.26301 -3.27159 0
M  V30 959 H 99.1797 -5.15965 -4.04303 0
M  V30 960 H 98.6997 -3.61626 -4.78526 0
M  V30 961 H 100.379 -4.19349 -4.92702 0
M  V30 962 N 100.511 1.16574 -1.06058 0
M  V30 963 C 101.739 1.90952 -0.796552 0
M  V30 964 C 102.154 1.77302 0.648808 0
M  V30 965 O 101.511 1.11605 1.44397 0
M  V30 966 C 101.562 3.41736 -1.17894 0
M  V30 967 O 101.283 3.54975 -2.56758 0
M  V30 968 C 102.784 4.33169 -0.942308 0
M  V30 969 H 100.004 0.605594 -0.288959 0
M  V30 970 H 102.548 1.47777 -1.41358 0
M  V30 971 H 100.703 3.82623 -0.606491 0
M  V30 972 H 101.117 4.4846 -2.72 0
M  V30 973 H 102.591 5.37439 -1.25952 0
M  V30 974 H 103.068 4.3903 0.122078 0
M  V30 975 H 103.674 3.98007 -1.49902 0
M  V30 976 N 101.989 0.842826 1.3317 0
M  V30 977 C 103.266 0.362216 1.92217 0
M  V30 978 C 103.646 -1.15289 1.76838 0
M  V30 979 O 102.994 -1.96914 1.15919 0
M  V30 980 C 103.204 0.813495 3.39387 0
M  V30 981 C 104.552 0.823804 4.16532 0
M  V30 982 O 105.576 0.757358 3.48055 0
M  V30 983 O 104.435 0.915193 5.38782 0
M  V30 984 H 101.529 0.103317 0.820521 0
M  V30 985 H 104.075 0.928942 1.42017 0
M  V30 986 H 102.847 1.85624 3.4447 0
M  V30 987 H 102.47 0.223561 3.96971 0
M  V30 988 N 103.467 -1.45747 0.599634 0
M  V30 989 C 104.695 -2.06668 0.0978551 0
M  V30 990 C 105.11 -1.44562 -1.21439 0
M  V30 991 O 104.467 -0.556923 -1.73795 0
M  V30 992 C 104.518 -3.61456 -0.0567044 0
M  V30 993 O 104.239 -4.21242 1.20361 0
M  V30 994 C 105.74 -4.39345 -0.590869 0
M  V30 995 H 102.96 -0.667825 0.0651943 0
M  V30 996 H 105.504 -1.87115 0.82511 0
M  V30 997 H 103.659 -3.80378 -0.734251 0
M  V30 998 H 104.073 -5.14323 1.02821 0
M  V30 999 H 105.547 -5.48182 -0.648131 0
M  V30 1000 H 106.024 -4.08568 -1.61147 0
M  V30 1001 H 106.63 -4.25268 0.0523679 0
M  V30 1002 N 104.945 -0.338344 -1.53925 0
M  V30 1003 C 105.875 0.51328 -2.27789 0
M  V30 1004 C 106.856 1.107 -1.29149 0
M  V30 1005 O 108.041 1.12937 -1.57984 0
M  V30 1006 C 105.171 1.66697 -3.04679 0
M  V30 1007 C 104.125 1.20183 -4.1078 0
M  V30 1008 C 103.451 2.44363 -4.75595 0
M  V30 1009 C 104.751 0.30605 -5.21403 0
M  V30 1010 H 106.445 -0.102883 -2.99223 0
M  V30 1011 H 103.991 -0.0509219 -1.4391 0
M  V30 1012 H 105.944 2.26915 -3.55088 0
M  V30 1013 H 104.668 2.30995 -2.30887 0
M  V30 1014 H 103.327 0.622499 -3.61276 0
M  V30 1015 H 102.975 3.07057 -3.98403 0
M  V30 1016 H 102.675 2.13925 -5.47275 0
M  V30 1017 H 104.199 3.05317 -5.28786 0
M  V30 1018 H 105.613 0.814929 -5.67478 0
M  V30 1019 H 104.01 0.0937929 -6.00027 0
M  V30 1020 H 105.08 -0.65921 -4.80398 0
M  V30 1021 N 106.423 1.57458 -0.0668435 0
M  V30 1022 C 107.648 1.9804 0.616027 0
M  V30 1023 C 108.073 0.944771 1.62652 0
M  V30 1024 O 107.431 -0.0902094 1.81075 0
M  V30 1025 C 107.479 3.37665 1.26549 0
M  V30 1026 O 106.583 3.36701 2.38131 0
M  V30 1027 H 105.924 0.644719 0.158849 0
M  V30 1028 H 108.454 2.04121 -0.139891 0
M  V30 1029 H 108.464 3.7474 1.6135 0
M  V30 1030 H 107.139 4.12573 0.525016 0
M  V30 1031 H 105.716 3.1139 2.0516 0
M  V30 1032 N 107.901 -0.206675 1.56239 0
M  V30 1033 C 109.312 -0.772383 1.69974 0
M  V30 1034 C 109.663 -1.84353 0.671436 0
M  V30 1035 O 108.788 -2.15695 -0.174491 0
M  V30 1036 C 109.383 -1.40779 3.08167 0
M  V30 1037 C 107.942 -1.92072 3.23706 0
M  V30 1038 C 107.089 -0.786347 2.65917 0
M  V30 1039 H 110.04 0.0182223 1.5869 0
M  V30 1040 H 110.061 -2.27696 3.04852 0
M  V30 1041 H 109.573 -0.627958 3.82986 0
M  V30 1042 H 107.674 -2.7281 2.53782 0
M  V30 1043 H 107.787 -2.09046 4.31087 0
M  V30 1044 H 106.151 -1.1976 2.24788 0
M  V30 1045 H 106.934 -0.0189416 3.43295 0
M  V30 1046 N 109.379 -1.50304 -0.473955 0
M  V30 1047 C 110.342 -1.6841 -1.55469 0
M  V30 1048 C 111.342 -0.554905 -1.50922 0
M  V30 1049 O 112.532 -0.821882 -1.53593 0
M  V30 1050 C 109.664 -1.70667 -2.95102 0
M  V30 1051 H 110.857 -2.64828 -1.40733 0
M  V30 1052 H 108.41 -1.39742 -0.700132 0
M  V30 1053 H 109.145 -0.75932 -3.15285 0
M  V30 1054 H 108.93 -2.52698 -2.9981 0
M  V30 1055 H 110.42 -1.8664 -3.73571 0
M  V30 1056 N 110.857 0.726932 -1.39834 0
M  V30 1057 C 112.082 1.52121 -1.40976 0
M  V30 1058 C 112.507 1.88098 -0.00826029 0
M  V30 1059 O 111.865 1.52479 0.980807 0
M  V30 1060 C 111.913 2.78021 -2.29644 0
M  V30 1061 O 111.017 3.74272 -1.73188 0
M  V30 1062 H 110.358 0.45908 -0.479731 0
M  V30 1063 H 112.888 0.896207 -1.83927 0
M  V30 1064 H 112.898 3.26671 -2.44438 0
M  V30 1065 H 111.573 2.51169 -3.31492 0
M  V30 1066 H 110.15 3.33073 -1.6768 0
M  V30 1067 N 112.336 1.25143 0.95797 0
M  V30 1068 C 113.561 1.12521 1.74223 0
M  V30 1069 C 113.986 -0.317402 1.85403 0
M  V30 1070 O 113.344 -1.2299 1.33204 0
M  V30 1071 C 113.392 1.78062 3.1357 0
M  V30 1072 O 112.496 1.058 3.98598 0
M  V30 1073 H 111.837 0.39304 0.535178 0
M  V30 1074 H 114.367 1.65641 1.201 0
M  V30 1075 H 114.377 1.84213 3.64046 0
M  V30 1076 H 113.052 2.83021 3.04749 0
M  V30 1077 H 111.629 1.07506 3.57067 0
M  V30 1078 N 113.814 -1.1601 1.06675 0
M  V30 1079 C 115.225 -1.68235 0.809565 0
M  V30 1080 C 115.576 -1.8454 -0.666303 0
M  V30 1081 O 114.701 -1.54374 -1.5165 0
M  V30 1082 C 115.296 -3.05585 1.46299 0
M  V30 1083 C 113.855 -3.54915 1.25349 0
M  V30 1084 C 113.002 -2.30804 1.53703 0
M  V30 1085 H 115.953 -1.00318 1.22971 0
M  V30 1086 H 115.974 -3.70174 0.880431 0
M  V30 1087 H 115.486 -2.93686 2.53713 0
M  V30 1088 H 113.587 -3.72067 0.199261 0
M  V30 1089 H 113.7 -4.36774 1.9689 0
M  V30 1090 H 112.064 -2.36007 0.957739 0
M  V30 1091 H 112.847 -2.21499 2.62284 0
M  V30 1092 N 115.292 -0.849877 -1.32721 0
M  V30 1093 C 116.517 -0.463856 -2.02146 0
M  V30 1094 C 116.942 0.930449 -1.63476 0
M  V30 1095 O 116.3 1.61033 -0.832952 0
M  V30 1096 C 116.348 -0.604955 -3.55489 0
M  V30 1097 O 115.452 0.36425 -4.10788 0
M  V30 1098 H 114.793 -0.187046 -0.637111 0
M  V30 1099 H 117.323 -1.14775 -1.69375 0
M  V30 1100 H 117.333 -0.490696 -4.05038 0
M  V30 1101 H 116.008 -1.62174 -3.82978 0
M  V30 1102 H 114.585 0.206628 -3.72327 0
M  V30 1103 N 116.77 1.45427 -0.607355 0
M  V30 1104 C 117.995 2.07124 -0.107006 0
M  V30 1105 C 118.42 1.44906 1.19933 0
M  V30 1106 O 117.778 0.541687 1.73019 0
M  V30 1107 C 117.826 3.60595 0.0194119 0
M  V30 1108 O 116.93 3.98285 1.0697 0
M  V30 1109 H 116.271 0.659868 -0.0739597 0
M  V30 1110 H 118.801 1.86683 -0.837297 0
M  V30 1111 H 118.811 4.07419 0.2177 0
M  V30 1112 H 117.486 4.05266 -0.934453 0
M  V30 1113 H 116.063 3.63133 0.847889 0
M  V30 1114 N 118.248 0.346503 1.53744 0
M  V30 1115 C 119.494 -0.249473 2.0126 0
M  V30 1116 C 119.827 -1.49965 1.23386 0
M  V30 1117 O 119.102 -1.91811 0.32229 0
M  V30 1118 C 119.385 -0.560643 3.55709 0
M  V30 1119 C 119.238 0.701836 4.44291 0
M  V30 1120 C 120.557 -1.36905 4.18264 0
M  V30 1121 H 117.676 -0.0891987 0.731582 0
M  V30 1122 H 120.318 0.467624 1.84156 0
M  V30 1123 H 118.468 -1.17156 3.70414 0
M  V30 1124 H 120.14 1.33974 4.41417 0
M  V30 1125 H 118.383 1.32612 4.13033 0
M  V30 1126 H 119.054 0.43933 5.50249 0
M  V30 1127 H 121.53 -0.852448 4.07275 0
M  V30 1128 H 120.406 -1.55553 5.26398 0
M  V30 1129 H 120.667 -2.37203 3.73078 0
M  V30 1130 N 119.726 -1.57421 0.075193 0
M  V30 1131 C 120.954 -1.97946 -0.602076 0
M  V30 1132 C 121.369 -0.953674 -1.62943 0
M  V30 1133 O 120.726 0.0592551 -1.82404 0
M  V30 1134 C 120.777 -3.38546 -1.26762 0
M  V30 1135 O 120.498 -4.37195 -0.281376 0
M  V30 1136 C 121.999 -3.93966 -2.03239 0
M  V30 1137 H 119.219 -0.650918 -0.162931 0
M  V30 1138 H 121.763 -2.03959 0.148601 0
M  V30 1139 H 119.918 -3.33609 -1.96936 0
M  V30 1140 H 120.332 -5.18975 -0.759267 0
M  V30 1141 H 121.806 -4.94555 -2.45193 0
M  V30 1142 H 122.283 -3.30693 -2.8903 0
M  V30 1143 H 122.889 -4.02315 -1.37924 0
M  V30 1144 N 121.204 0.198386 -1.56346 0
M  V30 1145 C 122.434 0.934215 -1.84271 0
M  V30 1146 C 122.842 1.77496 -0.655125 0
M  V30 1147 O 122.185 1.7961 0.385488 0
M  V30 1148 C 122.247 1.88278 -3.06254 0
M  V30 1149 C 121.911 1.22431 -4.40295 0
M  V30 1150 C 122.908 0.602839 -5.16393 0
M  V30 1151 C 120.593 1.22915 -4.87029 0
M  V30 1152 C 122.587 -0.0050083 -6.374 0
M  V30 1153 C 120.274 0.617465 -6.07973 0
M  V30 1154 C 121.272 0.00146341 -6.83 0
M  V30 1155 O 120.96 -0.600642 -8.01653 0
M  V30 1156 H 120.692 0.278245 -0.616081 0
M  V30 1157 H 123.246 0.211626 -2.04307 0
M  V30 1158 H 121.476 2.64498 -2.82095 0
M  V30 1159 H 123.165 2.48612 -3.20853 0
M  V30 1160 H 123.931 0.591265 -4.81382 0
M  V30 1161 H 119.81 1.69801 -4.28589 0
M  V30 1162 H 123.354 -0.48643 -6.95902 0
M  V30 1163 H 119.251 0.62653 -6.42452 0
M  V30 1164 H 120.019 -0.497225 -8.16988 0
M  V30 1165 N 122.682 1.50554 0.465978 0
M  V30 1166 C 124.093 1.54599 1.04671 0
M  V30 1167 C 124.444 0.352488 1.93008 0
M  V30 1168 O 123.569 -0.534044 2.09707 0
M  V30 1169 C 124.164 2.80166 1.90505 0
M  V30 1170 C 122.723 2.86876 2.43678 0
M  V30 1171 C 121.87 2.48947 1.22151 0
M  V30 1172 H 124.821 1.56744 0.248384 0
M  V30 1173 H 124.842 2.62311 2.75633 0
M  V30 1174 H 124.354 3.67013 1.26186 0
M  V30 1175 H 122.455 2.04393 3.11536 0
M  V30 1176 H 122.568 3.89885 2.78436 0
M  V30 1177 H 120.932 2.01498 1.5579 0
M  V30 1178 H 121.715 3.38107 0.594866 0
M  V30 1179 N 124.16 -0.719506 1.40217 0
M  V30 1180 C 125.406 -1.48152 1.38488 0
M  V30 1181 C 125.739 -1.94195 -0.0141867 0
M  V30 1182 O 125.014 -1.67884 -0.982096 0
M  V30 1183 C 125.297 -2.71035 2.37091 0
M  V30 1184 C 125.15 -2.30912 3.86005 0
M  V30 1185 C 126.469 -3.73182 2.33288 0
M  V30 1186 H 123.588 -0.537395 0.504357 0
M  V30 1187 H 126.23 -0.821472 1.71324 0
M  V30 1188 H 124.38 -3.27352 2.0922 0
M  V30 1189 H 126.052 -1.80107 4.24687 0
M  V30 1190 H 124.295 -1.62958 4.02029 0
M  V30 1191 H 124.966 -3.18978 4.50508 0
M  V30 1192 H 127.442 -3.26485 2.57966 0
M  V30 1193 H 126.318 -4.56806 3.04334 0
M  V30 1194 H 126.579 -4.21202 1.34317 0
M  V30 1195 N 125.638 -1.25649 -0.95132 0
M  V30 1196 C 126.884 -1.10757 -1.69884 0
M  V30 1197 C 127.217 0.350061 -1.91019 0
M  V30 1198 O 126.492 1.25783 -1.48354 0
M  V30 1199 C 126.775 -1.86606 -3.07978 0
M  V30 1200 C 126.628 -3.40217 -2.94232 0
M  V30 1201 C 127.947 -1.65182 -4.07925 0
M  V30 1202 H 125.066 -0.40374 -0.616574 0
M  V30 1203 H 127.708 -1.54521 -1.10558 0
M  V30 1204 H 125.858 -1.49409 -3.58621 0
M  V30 1205 H 127.53 -3.87108 -2.50889 0
M  V30 1206 H 125.773 -3.67759 -2.30078 0
M  V30 1207 H 126.444 -3.88505 -3.92133 0
M  V30 1208 H 128.92 -1.9757 -3.66204 0
M  V30 1209 H 127.796 -2.20683 -5.02583 0
M  V30 1210 H 128.057 -0.593933 -4.38092 0
M  V30 1211 N 127.117 1.15442 -1.07289 0
M  V30 1212 C 128.528 1.67803 -0.818475 0
M  V30 1213 C 128.879 1.8489 0.656507 0
M  V30 1214 O 128.004 1.55176 1.50829 0
M  V30 1215 C 128.599 3.04805 -1.47917 0
M  V30 1216 C 127.158 3.54245 -1.27229 0
M  V30 1217 C 126.305 2.29986 -1.54925 0
M  V30 1218 H 129.256 0.996646 -1.23502 0
M  V30 1219 H 129.277 3.69702 -0.90005 0
M  V30 1220 H 128.789 2.92336 -2.55267 0
M  V30 1221 H 126.89 3.71956 -0.21899 0
M  V30 1222 H 127.003 4.35723 -1.99203 0
M  V30 1223 H 125.367 2.35496 -0.970242 0
M  V30 1224 H 126.15 2.20105 -2.63455 0
M  V30 1225 N 128.595 0.856903 1.32268 0
M  V30 1226 C 129.843 0.460474 1.96784 0
M  V30 1227 C 130.164 -0.987701 1.68135 0
M  V30 1228 O 129.434 -1.69058 0.989765 0
M  V30 1229 H 128.014 0.167289 0.728027 0
M  V30 1230 H 130.676 1.09383 1.61312 0
M  V30 1231 H 129.772 0.60739 3.06133 0
M  V30 1232 N 130.073 -1.45103 0.615059 0
M  V30 1233 C 131.298 -2.07064 0.117988 0
M  V30 1234 C 131.723 -1.4554 -1.19163 0
M  V30 1235 O 131.081 -0.550855 -1.72729 0
M  V30 1236 C 131.129 -3.606 -0.000288387 0
M  V30 1237 O 130.233 -3.98847 -1.04856 0
M  V30 1238 H 129.574 -0.659467 0.0774581 0
M  V30 1239 H 132.104 -1.86236 0.847186 0
M  V30 1240 H 132.114 -4.07529 -0.196091 0
M  V30 1241 H 130.789 -4.04765 0.955932 0
M  V30 1242 H 129.366 -3.63577 -0.828619 0
M  V30 1243 N 131.551 -0.354651 -1.53558 0
M  V30 1244 C 132.797 0.238797 -2.01389 0
M  V30 1245 C 133.13 1.49309 -1.2418 0
M  V30 1246 O 132.405 1.91638 -0.332457 0
M  V30 1247 C 132.688 0.541771 -3.56001 0
M  V30 1248 C 132.541 -0.725388 -4.43912 0
M  V30 1249 C 133.86 1.34685 -4.18984 0
M  V30 1250 H 130.979 0.0853177 -0.732045 0
M  V30 1251 H 133.621 -0.477384 -1.83905 0
M  V30 1252 H 131.771 1.15189 -3.71031 0
M  V30 1253 H 133.443 -1.36313 -4.407 0
M  V30 1254 H 131.686 -1.34801 -4.12324 0
M  V30 1255 H 132.357 -0.468505 -5.50008 0
M  V30 1256 H 134.833 0.830837 -4.07721 0
M  V30 1257 H 133.709 1.52759 -5.27215 0
M  V30 1258 H 133.97 2.35221 -3.74331 0
M  V30 1259 N 133.029 1.57378 -0.0835403 0
M  V30 1260 C 134.306 1.85363 0.624507 0
M  V30 1261 C 134.686 0.978239 1.87066 0
M  V30 1262 O 134.034 0.0475908 2.2845 0
M  V30 1263 C 134.244 3.35795 0.950947 0
M  V30 1264 C 135.592 4.03581 1.31939 0
M  V30 1265 O 136.616 3.40609 1.04232 0
M  V30 1266 O 135.475 5.14672 1.83779 0
M  V30 1267 H 132.569 0.766162 0.311329 0
M  V30 1268 H 135.115 1.69307 -0.115362 0
M  V30 1269 H 133.887 3.91244 0.0663899 0
M  V30 1270 H 133.51 3.57154 1.74719 0
M  V30 1271 N 134.507 -0.190092 1.56449 0
M  V30 1272 C 135.417 -1.25591 1.98152 0
M  V30 1273 C 136.433 -1.49519 0.889944 0
M  V30 1274 O 137.609 -1.62036 1.19609 0
M  V30 1275 C 134.674 -2.57916 2.3169 0
M  V30 1276 C 133.735 -2.42015 3.5458 0
M  V30 1277 C 132.968 -3.6803 3.8651 0
M  V30 1278 O 133.191 -4.72413 3.1966 0
M  V30 1279 O 132.125 -3.6326 4.79923 0
M  V30 1280 H 135.951 -0.931988 2.89046 0
M  V30 1281 H 133.536 -0.395488 1.4407 0
M  V30 1282 H 135.418 -3.36008 2.54316 0
M  V30 1283 H 134.093 -2.89925 1.43963 0
M  V30 1284 H 133 -1.62017 3.37196 0
M  V30 1285 H 134.333 -2.14937 4.4279 0
M  V30 1286 N 135.985 -1.50799 -0.457987 0
M  V30 1287 C 137.21 -1.66496 -1.23668 0
M  V30 1288 C 137.635 -0.353288 -1.84752 0
M  V30 1289 O 136.993 0.684346 -1.67888 0
M  V30 1290 C 137.041 -2.76763 -2.3116 0
M  V30 1291 O 136.145 -2.38928 -3.36136 0
M  V30 1292 H 135.486 -0.555828 -0.363252 0
M  V30 1293 H 138.016 -1.9725 -0.543474 0
M  V30 1294 H 138.026 -3.00232 -2.76269 0
M  V30 1295 H 136.701 -3.71954 -1.86073 0
M  V30 1296 H 135.278 -2.25953 -2.96647 0
M  V30 1297 N 137.463 0.71206 -1.40597 0
M  V30 1298 C 138.874 1.29135 -1.34837 0
M  V30 1299 C 139.225 1.96186 -0.0235395 0
M  V30 1300 O 138.35 1.97768 0.878444 0
M  V30 1301 C 138.945 2.34827 -2.44217 0
M  V30 1302 C 137.504 2.88371 -2.41907 0
M  V30 1303 C 136.651 1.62202 -2.24913 0
M  V30 1304 H 139.602 0.507944 -1.50352 0
M  V30 1305 H 139.623 3.15749 -2.12327 0
M  V30 1306 H 139.135 1.85996 -3.40627 0
M  V30 1307 H 137.236 3.41422 -1.49204 0
M  V30 1308 H 137.349 3.39925 -3.37621 0
M  V30 1309 H 135.713 1.874 -1.72492 0
M  V30 1310 H 136.496 1.15391 -3.23326 0
M  V30 1311 N 138.941 1.26152 0.944643 0
M  V30 1312 C 140.166 1.14363 1.7302 0
M  V30 1313 C 140.591 -0.29772 1.85729 0
M  V30 1314 O 139.949 -1.2157 1.34501 0
M  V30 1315 C 139.997 1.81378 3.11664 0
M  V30 1316 O 139.101 1.10022 3.97453 0
M  V30 1317 H 138.442 0.398694 0.53098 0
M  V30 1318 H 140.972 1.66906 1.18337 0
M  V30 1319 H 140.982 1.88064 3.62072 0
M  V30 1320 H 139.657 2.86237 3.0173 0
M  V30 1321 H 138.234 1.11287 3.55907 0
M  V30 1322 N 140.419 -1.14872 1.07899 0
M  V30 1323 C 141.667 -1.85422 0.803941 0
M  V30 1324 C 141.988 -1.83051 -0.67211 0
M  V30 1325 O 141.258 -1.27532 -1.48703 0
M  V30 1326 H 139.838 -0.686537 0.294408 0
M  V30 1327 H 142.5 -1.39226 1.3639 0
M  V30 1328 H 141.596 -2.90399 1.14346 0
M  V30 1329 N 141.898 -0.863906 -1.31812 0
M  V30 1330 C 142.861 -0.320212 -2.26952 0
M  V30 1331 C 143.861 0.525369 -1.51975 0
M  V30 1332 O 145.051 0.335547 -1.70938 0
M  V30 1333 C 142.183 0.545919 -3.365 0
M  V30 1334 H 143.376 -1.16004 -2.76556 0
M  V30 1335 H 140.929 -0.638995 -1.42641 0
M  V30 1336 H 141.664 1.40718 -2.92179 0
M  V30 1337 H 141.449 -0.0594674 -3.92055 0
M  V30 1338 H 142.939 0.918796 -4.07367 0
M  V30 1339 N 143.376 1.44774 -0.622745 0
M  V30 1340 C 144.306 2.33382 0.0741861 0
M  V30 1341 C 145.287 1.47719 0.843387 0
M  V30 1342 O 146.472 1.76458 0.810934 0
M  V30 1343 C 143.602 3.30663 1.06204 0
M  V30 1344 C 142.556 4.26079 0.405037 0
M  V30 1345 C 141.882 5.13165 1.5022 0
M  V30 1346 C 143.182 5.1781 -0.683414 0
M  V30 1347 H 144.876 2.91905 -0.665713 0
M  V30 1348 H 142.422 1.40363 -0.321587 0
M  V30 1349 H 144.375 3.9153 1.55827 0
M  V30 1350 H 143.099 2.70331 1.83272 0
M  V30 1351 H 141.758 3.66532 -0.0704683 0
M  V30 1352 H 141.406 4.49191 2.26355 0
M  V30 1353 H 141.106 5.77812 1.06803 0
M  V30 1354 H 142.63 5.76902 2.00041 0
M  V30 1355 H 144.044 5.72661 -0.270631 0
M  V30 1356 H 142.441 5.91015 -1.04023 0
M  V30 1357 H 143.511 4.59326 -1.55395 0
M  V30 1358 N 144.854 0.36279 1.53368 0
M  V30 1359 C 145.802 -0.500155 2.27159 0
M  V30 1360 C 146.796 -1.08575 1.3003 0
M  V30 1361 O 148.002 -1.02927 1.47668 0
M  V30 1362 H 144.377 -0.180009 0.730138 0
M  V30 1363 H 146.348 0.14401 2.98052 0
M  V30 1364 C 145.097 -1.62937 3.07159 0
M  V30 1365 H 144.42 -1.18806 3.8174 0
M  V30 1366 H 145.86 -2.20795 3.61975 0
M  V30 1367 C 144.319 -2.57007 2.17829 0
M  V30 1368 O 144.849 -3.59752 1.78721 0
M  V30 1369 N 143.055 -2.26131 1.82518 0
M  V30 1370 H 142.602 -1.42616 2.14519 0
M  V30 1371 H 142.56 -2.89327 1.23034 0
M  V30 1372 N 146.332 -1.57332 0.0918853 0
M  V30 1373 C 147.581 -1.93412 -0.572249 0
M  V30 1374 C 147.894 -0.975515 -1.69538 0
M  V30 1375 O 149.1 -1.22991 -2.42045 0
M  V30 1376 C 147.556 -3.43648 -1.0693 0
M  V30 1377 C 147.164 -4.47994 0.0239049 0
M  V30 1378 C 148.908 -3.88695 -1.70635 0
M  V30 1379 C 146.815 -5.89381 -0.488319 0
M  V30 1380 H 145.745 -0.721939 -0.217532 0
M  V30 1381 H 148.396 -1.82735 0.167369 0
M  V30 1382 H 146.778 -3.49466 -1.8625 0
M  V30 1383 H 147.952 -4.53815 0.799277 0
M  V30 1384 H 146.267 -4.12536 0.565946 0
M  V30 1385 H 148.864 -4.91725 -2.10025 0
M  V30 1386 H 149.207 -3.27166 -2.57426 0
M  V30 1387 H 149.74 -3.85564 -0.979023 0
M  V30 1388 H 146.479 -6.54602 0.342906 0
M  V30 1389 H 145.999 -5.87037 -1.23077 0
M  V30 1390 H 147.678 -6.39863 -0.958317 0
M  V30 1391 N 147.81 0.181792 -1.56548 0
M  V30 1392 C 148.72 1.24538 -1.98815 0
M  V30 1393 C 149.736 1.49045 -0.897861 0
M  V30 1394 O 150.912 1.61399 -1.20467 0
M  V30 1395 C 147.977 2.56683 -2.33055 0
M  V30 1396 C 147.038 2.40131 -3.55859 0
M  V30 1397 C 146.271 3.65975 -3.88456 0
M  V30 1398 O 146.494 4.70711 -3.22161 0
M  V30 1399 O 145.428 3.6071 -4.81842 0
M  V30 1400 H 149.254 0.916647 -2.89536 0
M  V30 1401 H 146.839 0.387842 -1.44278 0
M  V30 1402 H 148.721 3.34655 -2.56094 0
M  V30 1403 H 147.396 2.89157 -1.45498 0
M  V30 1404 H 146.303 1.60226 -3.38051 0
M  V30 1405 H 147.636 2.12585 -4.43924 0
M  V30 1406 N 149.288 1.51039 0.449983 0
M  V30 1407 C 150.528 1.64732 1.21007 0
M  V30 1408 C 150.892 0.349865 1.88785 0
M  V30 1409 O 152.093 0.362431 2.66345 0
M  V30 1410 C 150.364 2.80902 2.20973 0
M  V30 1411 S 151.923 3.14851 3.05638 0
M  V30 1412 H 148.741 0.5805 0.410538 0
M  V30 1413 H 151.343 1.88901 0.503634 0
M  V30 1414 H 150.047 3.73627 1.69796 0
M  V30 1415 H 149.578 2.58882 2.96215 0
M  V30 1416 H 151.593 2.60306 4.22439 0
M  V30 1417 N 150.766 -0.704594 1.40972 0
M  V30 1418 C 152.182 -1.01406 1.23244 0
M  V30 1419 C 152.382 -2.01169 0.115399 0
M  V30 1420 O 151.438 -2.47021 -0.523147 0
M  V30 1421 C 152.751 -1.54728 2.57836 0
M  V30 1422 C 154.299 -1.66658 2.64942 0
M  V30 1423 C 154.774 -2.23383 3.9983 0
M  V30 1424 N 156.265 -2.30756 4.01629 0
M  V30 1425 C 157 -2.75655 5.02794 0
M  V30 1426 N 156.496 -3.20225 6.14352 0
M  V30 1427 N 158.289 -2.75138 4.90159 0
M  V30 1428 H 150.44 -0.0435285 2.12355 0
M  V30 1429 H 152.703 -0.0818951 0.944456 0
M  V30 1430 H 152.409 -0.888832 3.40283 0
M  V30 1431 H 152.283 -2.53084 2.79693 0
M  V30 1432 H 154.67 -2.31617 1.8286 0
M  V30 1433 H 154.751 -0.668717 2.46904 0
M  V30 1434 H 154.395 -1.59043 4.82357 0
M  V30 1435 H 154.325 -3.23904 4.15203 0
M  V30 1436 H 156.816 -1.99291 3.21079 0
M  V30 1437 H 157.129 -3.53084 6.87424 0
M  V30 1438 H 155.474 -3.18156 6.17901 0
M  V30 1439 H 158.665 -2.39661 4.02095 0
M  V30 1440 H 158.838 -3.09812 5.6914 0
M  V30 1441 N 152.244 -1.26651 -0.937939 0
M  V30 1442 C 153.493 -1.11775 -1.67897 0
M  V30 1443 C 153.806 0.33794 -1.92659 0
M  V30 1444 O 155.012 0.607434 -2.64618 0
M  V30 1445 C 153.468 -1.9523 -3.02346 0
M  V30 1446 C 153.076 -3.45393 -2.8532 0
M  V30 1447 C 154.82 -1.88972 -3.80118 0
M  V30 1448 C 152.727 -4.21083 -4.15263 0
M  V30 1449 H 151.657 -0.414696 -0.629717 0
M  V30 1450 H 154.308 -1.50988 -1.04283 0
M  V30 1451 H 152.69 -1.48853 -3.66959 0
M  V30 1452 H 153.864 -3.99561 -2.29537 0
M  V30 1453 H 152.179 -3.52921 -2.20988 0
M  V30 1454 H 154.776 -2.42805 -4.76392 0
M  V30 1455 H 155.119 -0.86113 -4.07296 0
M  V30 1456 H 155.652 -2.33189 -3.22285 0
M  V30 1457 H 152.391 -5.24425 -3.93267 0
M  V30 1458 H 151.911 -3.71695 -4.70747 0
M  V30 1459 H 153.59 -4.29706 -4.83696 0
M  V30 1460 N 153.722 1.14298 -1.08507 0
M  V30 1461 C 154.962 1.87016 -0.824894 0
M  V30 1462 C 155.326 1.81099 0.637735 0
M  V30 1463 O 156.527 2.48963 1.01345 0
M  V30 1464 C 154.798 3.31584 -1.33368 0
M  V30 1465 S 156.357 4.21903 -1.20596 0
M  V30 1466 H 153.175 0.645259 -0.2986 0
M  V30 1467 H 155.777 1.37822 -1.38656 0
M  V30 1468 H 154.481 3.33439 -2.39262 0
M  V30 1469 H 154.012 3.85836 -0.767734 0
M  V30 1470 H 156.027 4.95971 -0.150891 0
M  V30 1471 N 155.201 0.870884 1.31352 0
M  V30 1472 C 156.449 0.48132 1.96285 0
M  V30 1473 C 156.77 -0.969813 1.69173 0
M  V30 1474 O 156.04 -1.67998 1.00764 0
M  V30 1475 H 154.62 0.175002 0.726212 0
M  V30 1476 H 157.282 1.11087 1.60143 0
M  V30 1477 H 156.378 0.639825 3.05471 0
M  V30 1478 N 156.679 -1.44442 0.630414 0
M  V30 1479 C 157.956 -1.9549 0.0655657 0
M  V30 1480 C 158.336 -1.5724 -1.40851 0
M  V30 1481 O 157.684 -0.846116 -2.12257 0
M  V30 1482 C 157.894 -3.47812 0.287691 0
M  V30 1483 C 159.242 -4.24216 0.180513 0
M  V30 1484 O 160.266 -3.55526 0.219019 0
M  V30 1485 O 159.125 -5.46434 0.0848493 0
M  V30 1486 H 156.219 -0.826688 -0.0227177 0
M  V30 1487 H 158.765 -1.54496 0.702068 0
M  V30 1488 H 157.537 -3.687 1.31056 0
M  V30 1489 H 157.16 -3.95751 -0.382984 0
M  V30 1490 N 158.157 -0.370918 -1.53173 0
M  V30 1491 C 159.104 0.473035 -2.259 0
M  V30 1492 C 160.074 1.07311 -1.26781 0
M  V30 1493 O 161.259 1.1046 -1.55574 0
M  V30 1494 C 158.399 1.60405 -3.05556 0
M  V30 1495 C 157.512 1.02863 -4.19575 0
M  V30 1496 C 156.647 2.12918 -4.86661 0
M  V30 1497 C 155.686 1.52869 -5.92704 0
M  V30 1498 N 154.823 2.56779 -6.53459 0
M  V30 1499 H 159.663 -0.153649 -2.97604 0
M  V30 1500 H 157.2 -0.0875946 -1.46839 0
M  V30 1501 H 159.158 2.27034 -3.50016 0
M  V30 1502 H 157.788 2.20131 -2.36097 0
M  V30 1503 H 156.84 0.252465 -3.79561 0
M  V30 1504 H 158.152 0.549642 -4.95762 0
M  V30 1505 H 157.306 2.87356 -5.34333 0
M  V30 1506 H 156.045 2.6417 -4.09958 0
M  V30 1507 H 155.05 0.769479 -5.44389 0
M  V30 1508 H 156.275 1.02435 -6.7133 0
M  V30 1509 H 154.221 3.07235 -5.79606 0
M  V30 1510 H 154.138 2.13583 -7.25202 0
M  V30 1511 H 155.406 3.30903 -7.05779 0
M  V30 1512 N 159.635 1.57281 -0.100228 0
M  V30 1513 C 160.598 2.13158 0.842398 0
M  V30 1514 C 161.598 1.06202 1.20738 0
M  V30 1515 O 162.788 1.32066 1.13597 0
M  V30 1516 C 159.92 2.65639 2.13655 0
M  V30 1517 H 161.113 2.97766 0.357114 0
M  V30 1518 H 158.666 1.5559 0.148823 0
M  V30 1519 H 159.401 1.84566 2.66657 0
M  V30 1520 H 159.186 3.43844 1.88451 0
M  V30 1521 H 160.676 3.08846 2.81077 0
M  V30 1522 N 161.113 -0.173488 1.56642 0
M  V30 1523 C 162.338 -0.910149 1.86363 0
M  V30 1524 C 162.763 -1.75132 0.686318 0
M  V30 1525 O 162.121 -1.77595 -0.364643 0
M  V30 1526 C 162.169 -1.76447 3.14482 0
M  V30 1527 O 161.273 -2.86584 2.96553 0
M  V30 1528 H 160.614 -0.255086 0.613047 0
M  V30 1529 H 163.144 -0.172283 2.03873 0
M  V30 1530 H 163.154 -2.16483 3.45831 0
M  V30 1531 H 161.829 -1.14658 3.99783 0
M  V30 1532 H 160.406 -2.50146 2.76553 0
M  V30 1533 N 162.591 -1.51276 -0.441967 0
M  V30 1534 C 163.839 -1.63392 -1.18943 0
M  V30 1535 C 164.16 -0.350159 -1.9183 0
M  V30 1536 O 163.43 0.633784 -1.85364 0
M  V30 1537 H 162.01 -0.602164 -0.442049 0
M  V30 1538 H 164.672 -1.88186 -0.507165 0
M  V30 1539 H 163.768 -2.45934 -1.92154 0
M  V30 1540 N 164.069 0.697108 -1.41344 0
M  V30 1541 C 165.299 1.48377 -1.43763 0
M  V30 1542 C 165.707 1.89156 -0.0408726 0
M  V30 1543 O 165.05 1.57239 0.949812 0
M  V30 1544 C 165.112 2.7781 -2.2817 0
M  V30 1545 C 164.776 2.59244 -3.76353 0
M  V30 1546 C 165.773 2.25292 -4.68551 0
M  V30 1547 C 163.458 2.74933 -4.20378 0
M  V30 1548 C 165.452 2.07264 -6.02761 0
M  V30 1549 C 163.139 2.56521 -5.54653 0
M  V30 1550 C 164.137 2.22737 -6.4566 0
M  V30 1551 O 163.825 2.04485 -7.77458 0
M  V30 1552 H 163.557 0.463842 -0.491759 0
M  V30 1553 H 166.111 0.865934 -1.86255 0
M  V30 1554 H 164.341 3.41995 -1.8049 0
M  V30 1555 H 166.03 3.39608 -2.22309 0
M  V30 1556 H 166.796 2.12787 -4.35829 0
M  V30 1557 H 162.675 3.00213 -3.49848 0
M  V30 1558 H 166.219 1.80817 -6.73759 0
M  V30 1559 H 162.116 2.68616 -5.86955 0
M  V30 1560 H 162.884 2.1926 -7.88586 0
M  V30 1561 N 165.547 1.27147 0.931209 0
M  V30 1562 C 166.497 1.06227 2.01742 0
M  V30 1563 C 167.481 -0.00859065 1.60898 0
M  V30 1564 O 168.673 0.209537 1.75755 0
M  V30 1565 C 165.802 0.707787 3.35924 0
M  V30 1566 C 164.888 1.81661 3.83223 0
M  V30 1567 N 165.279 3.05564 4.03069 0
M  V30 1568 C 163.577 1.70249 4.12227 0
M  V30 1569 C 164.278 3.77697 4.42403 0
M  V30 1570 N 163.254 3.0544 4.49675 0
M  V30 1571 H 167.056 2.00261 2.15111 0
M  V30 1572 H 164.57 1.1781 1.11779 0
M  V30 1573 H 166.567 0.539043 4.134 0
M  V30 1574 H 165.227 -0.224964 3.2392 0
M  V30 1575 H 166.238 3.41363 3.89476 0
M  V30 1576 H 162.915 0.840329 4.08956 0
M  V30 1577 H 164.305 4.84168 4.65866 0
M  V30 1578 N 167.025 -1.13721 1.09112 0
M  V30 1579 C 168.255 -1.88499 0.845671 0
M  V30 1580 C 168.663 -1.79218 -0.606432 0
M  V30 1581 O 168.006 -1.1544 -1.42896 0
M  V30 1582 C 168.068 -3.38954 1.19793 0
M  V30 1583 C 167.732 -3.72018 2.65428 0
M  V30 1584 C 168.729 -3.7153 3.63677 0
M  V30 1585 C 166.414 -4.01775 3.01467 0
M  V30 1586 C 168.408 -4.00336 4.95994 0
M  V30 1587 C 166.095 -4.30243 4.33975 0
M  V30 1588 C 167.093 -4.29508 5.31048 0
M  V30 1589 O 166.781 -4.5728 6.61173 0
M  V30 1590 H 166.513 -0.603702 0.304171 0
M  V30 1591 H 169.067 -1.44903 1.45576 0
M  V30 1592 H 167.297 -3.83039 0.530871 0
M  V30 1593 H 168.986 -3.95052 0.932146 0
M  V30 1594 H 169.752 -3.4862 3.37179 0
M  V30 1595 H 165.631 -4.01496 2.26544 0
M  V30 1596 H 169.175 -3.99678 5.71755 0
M  V30 1597 H 165.072 -4.52625 4.60219 0
M  V30 1598 H 165.84 -4.74964 6.66597 0
M  V30 1599 N 168.503 -0.877838 -1.30888 0
M  V30 1600 C 169.751 -0.491723 -1.96027 0
M  V30 1601 C 170.072 0.960827 -1.69685 0
M  V30 1602 O 169.342 1.67462 -1.01654 0
M  V30 1603 H 167.922 -0.17885 -0.725273 0
M  V30 1604 H 170.584 -1.11935 -1.59551 0
M  V30 1605 H 169.68 -0.656016 -3.05128 0
M  V30 1606 N 169.982 1.44106 -0.638065 0
M  V30 1607 C 171.228 2.02277 -0.145546 0
M  V30 1608 C 171.561 1.50125 1.23191 0
M  V30 1609 O 170.836 0.688133 1.8192 0
M  V30 1610 C 171.119 3.59829 -0.139791 0
M  V30 1611 C 170.972 4.22247 -1.55008 0
M  V30 1612 C 172.291 4.36873 0.531966 0
M  V30 1613 H 169.41 0.734992 -0.0543632 0
M  V30 1614 H 172.052 1.71592 -0.815863 0
M  V30 1615 H 170.202 3.86102 0.431007 0
M  V30 1616 H 171.874 4.07057 -2.1703 0
M  V30 1617 H 170.117 3.79476 -2.10191 0
M  V30 1618 H 170.788 5.31284 -1.49804 0
M  V30 1619 H 173.264 4.16074 0.0464781 0
M  V30 1620 H 172.14 5.4657 0.505206 0
M  V30 1621 H 172.401 4.11995 1.60352 0
M  V30 1622 N 171.46 0.379036 1.52974 0
M  V30 1623 C 172.41 -0.477772 2.22938 0
M  V30 1624 C 173.394 -1.03792 1.22948 0
M  V30 1625 O 174.586 -0.965725 1.48333 0
M  V30 1626 C 171.715 -1.60994 3.03209 0
M  V30 1627 C 170.801 -1.06203 4.10587 0
M  V30 1628 N 171.192 -0.238214 5.05239 0
M  V30 1629 C 169.49 -1.33554 4.25534 0
M  V30 1630 C 170.191 0.0633235 5.81666 0
M  V30 1631 N 169.167 -0.537901 5.40932 0
M  V30 1632 H 172.969 0.158295 2.93473 0
M  V30 1633 H 170.483 0.187778 1.61311 0
M  V30 1634 H 172.48 -2.23607 3.5186 0
M  V30 1635 H 171.14 -2.24893 2.34207 0
M  V30 1636 H 172.151 0.123695 5.17752 0
M  V30 1637 H 168.828 -1.97632 3.6776 0
M  V30 1638 H 170.218 0.730161 6.67921 0
M  V30 1639 N 172.938 -1.57226 0.108567 0
M  V30 1640 C 173.901 -2.13602 -0.831082 0
M  V30 1641 C 174.901 -1.06841 -1.20173 0
M  V30 1642 O 176.091 -1.32666 -1.12895 0
M  V30 1643 C 173.223 -2.66769 -2.12243 0
M  V30 1644 H 174.416 -2.97951 -0.341317 0
M  V30 1645 H 171.969 -1.55667 -0.14057 0
M  V30 1646 H 172.704 -1.85977 -2.65675 0
M  V30 1647 H 172.489 -3.44839 -1.86625 0
M  V30 1648 H 173.979 -3.10332 -2.79435 0
M  V30 1649 N 174.416 0.165178 -1.56732 0
M  V30 1650 C 175.656 0.887231 -1.8414 0
M  V30 1651 C 176.02 1.79159 -0.690353 0
M  V30 1652 O 177.221 2.55172 -0.845032 0
M  V30 1653 C 175.492 1.65674 -3.16681 0
M  V30 1654 S 177.051 2.42671 -3.6559 0
M  V30 1655 H 173.869 0.297042 -0.645978 0
M  V30 1656 H 176.471 0.148439 -1.94936 0
M  V30 1657 H 175.175 0.983507 -3.98441 0
M  V30 1658 H 174.706 2.43679 -3.08843 0
M  V30 1659 H 176.721 3.67499 -3.33406 0
M  V30 1660 N 175.894 1.51508 0.433938 0
M  V30 1661 C 176.804 1.75917 1.5521 0
M  V30 1662 C 177.82 0.643545 1.61662 0
M  V30 1663 O 178.996 0.926183 1.7884 0
M  V30 1664 C 176.061 1.88213 2.91164 0
M  V30 1665 C 175.122 3.12074 2.94802 0
M  V30 1666 C 174.355 3.23774 4.24271 0
M  V30 1667 O 174.578 2.4133 5.16833 0
M  V30 1668 O 173.512 4.16774 4.34262 0
M  V30 1669 H 177.338 2.70777 1.37527 0
M  V30 1670 H 174.923 1.36051 0.617293 0
M  V30 1671 H 176.805 1.98267 3.71845 0
M  V30 1672 H 175.48 0.965413 3.08968 0
M  V30 1673 H 174.387 3.07497 2.13065 0
M  V30 1674 H 175.72 4.03446 2.81943 0
M  V30 1675 N 177.372 -0.689602 1.41712 0
M  V30 1676 C 178.62 -1.4468 1.4111 0
M  V30 1677 C 178.941 -1.94986 0.0232196 0
M  V30 1678 O 178.211 -1.72097 -0.935913 0
M  V30 1679 H 176.791 -0.536847 0.519427 0
M  V30 1680 H 179.453 -0.815825 1.77004 0
M  V30 1681 H 178.549 -2.30706 2.10193 0
M  V30 1682 N 178.85 -1.27639 -0.924453 0
M  V30 1683 C 180.09 -1.15407 -1.68703 0
M  V30 1684 C 180.454 0.294581 -1.89727 0
M  V30 1685 O 181.655 0.539385 -2.63333 0
M  V30 1686 C 179.926 -1.9195 -3.0148 0
M  V30 1687 S 181.485 -1.95969 -3.92609 0
M  V30 1688 H 178.303 -0.411937 -0.579507 0
M  V30 1689 H 180.905 -1.61592 -1.10038 0
M  V30 1690 H 179.609 -2.96387 -2.83871 0
M  V30 1691 H 179.14 -1.46272 -3.65196 0
M  V30 1692 H 181.155 -1.05846 -4.84779 0
M  V30 1693 N 180.328 1.1314 -1.09713 0
M  V30 1694 C 181.275 2.18642 -0.739196 0
M  V30 1695 C 182.245 1.63706 0.280978 0
M  V30 1696 O 183.43 1.90111 0.161946 0
M  V30 1697 C 180.57 3.44685 -0.169102 0
M  V30 1698 C 179.683 4.13711 -1.24367 0
M  V30 1699 C 178.818 5.27379 -0.636019 0
M  V30 1700 C 177.857 5.88259 -1.69169 0
M  V30 1701 N 176.994 6.93352 -1.10485 0
M  V30 1702 H 181.834 2.48607 -1.64312 0
M  V30 1703 H 179.371 1.22066 -0.820875 0
M  V30 1704 H 181.329 4.16815 0.179256 0
M  V30 1705 H 179.959 3.15161 0.698079 0
M  V30 1706 H 179.011 3.39835 -1.70927 0
M  V30 1707 H 180.323 4.55037 -2.04311 0
M  V30 1708 H 179.477 6.06238 -0.236677 0
M  V30 1709 H 178.216 4.8731 0.194928 0
M  V30 1710 H 177.221 5.08092 -2.10055 0
M  V30 1711 H 178.446 6.30399 -2.52536 0
M  V30 1712 H 176.392 6.55335 -0.295234 0
M  V30 1713 H 176.309 7.33236 -1.84121 0
M  V30 1714 H 177.577 7.76057 -0.73181 0
M  V30 1715 N 181.806 0.884767 1.30421 0
M  V30 1716 C 183.054 0.502112 1.95763 0
M  V30 1717 C 183.375 -0.951815 1.70192 0
M  V30 1718 O 182.645 -1.6692 1.0254 0
M  V30 1719 H 181.225 0.182694 0.724315 0
M  V30 1720 H 183.887 1.1278 1.58955 0
M  V30 1721 H 182.983 0.672188 3.04775 0
M  V30 1722 N 183.284 -1.43765 0.645699 0
M  V30 1723 C 184.531 -2.01898 0.15604 0
M  V30 1724 C 184.859 -1.50887 -1.22733 0
M  V30 1725 O 184.114 -0.689271 -1.8316 0
M  V30 1726 C 184.413 -3.57238 0.107679 0
M  V30 1727 C 184.079 -4.27564 1.43178 0
M  V30 1728 C 182.741 -4.46492 1.7944 0
M  V30 1729 C 185.093 -4.67454 2.30513 0
M  V30 1730 C 182.421 -5.02573 3.02716 0
M  V30 1731 C 184.773 -5.24901 3.53074 0
M  V30 1732 C 183.437 -5.42046 3.89541 0
M  V30 1733 H 182.707 -0.738797 0.057099 0
M  V30 1734 H 185.354 -1.72341 0.834912 0
M  V30 1735 H 183.659 -3.86293 -0.654618 0
M  V30 1736 H 185.356 -3.99965 -0.287938 0
M  V30 1737 H 181.946 -4.13171 1.13963 0
M  V30 1738 H 186.13 -4.5253 2.0379 0
M  V30 1739 H 181.386 -5.14033 3.31028 0
M  V30 1740 H 185.56 -5.54758 4.20971 0
M  V30 1741 H 183.187 -5.85268 4.85145 0
M  V30 1742 N 184.763 -0.387143 -1.52771 0
M  V30 1743 C 186.01 0.195735 -2.01552 0
M  V30 1744 C 186.338 1.46995 -1.27369 0
M  V30 1745 O 185.593 1.92325 -0.361879 0
M  V30 1746 C 185.892 0.512209 -3.53711 0
M  V30 1747 C 185.558 -0.670202 -4.45891 0
M  V30 1748 C 184.22 -0.994586 -4.70809 0
M  V30 1749 C 186.572 -1.46134 -5.00294 0
M  V30 1750 C 183.9 -2.11169 -5.4738 0
M  V30 1751 C 186.252 -2.56903 -5.78086 0
M  V30 1752 C 184.916 -2.89852 -6.01284 0
M  V30 1753 H 184.186 0.0716246 -0.73753 0
M  V30 1754 H 186.833 -0.524046 -1.8419 0
M  V30 1755 H 185.138 1.31329 -3.69134 0
M  V30 1756 H 186.835 0.975804 -3.88946 0
M  V30 1757 H 183.425 -0.407366 -4.2666 0
M  V30 1758 H 187.609 -1.22397 -4.80971 0
M  V30 1759 H 182.865 -2.3707 -5.63567 0
M  V30 1760 H 187.039 -3.18608 -6.19243 0
M  V30 1761 H 184.666 -3.76533 -6.60399 0
M  V30 1762 N 186.241 1.57166 -0.116904 0
M  V30 1763 C 187.657 1.5779 0.239693 0
M  V30 1764 C 187.857 1.1295 1.66867 0
M  V30 1765 O 186.913 0.81592 2.38954 0
M  V30 1766 C 188.226 3.00699 0.00828202 0
M  V30 1767 C 189.774 3.12912 0.0743438 0
M  V30 1768 C 190.249 4.57817 -0.129348 0
M  V30 1769 N 191.74 4.63139 -0.075247 0
M  V30 1770 C 192.475 5.73023 -0.207788 0
M  V30 1771 N 191.971 6.91665 -0.396382 0
M  V30 1772 N 193.764 5.61906 -0.14751 0
M  V30 1773 H 185.915 1.84615 -1.05029 0
M  V30 1774 H 188.178 0.85311 -0.41341 0
M  V30 1775 H 187.884 3.37784 -0.979531 0
M  V30 1776 H 187.758 3.69848 0.741077 0
M  V30 1777 H 190.145 2.75686 1.05268 0
M  V30 1778 H 190.226 2.4631 -0.690297 0
M  V30 1779 H 189.87 4.95742 -1.10465 0
M  V30 1780 H 189.8 5.22507 0.655253 0
M  V30 1781 H 192.291 3.7784 0.0670898 0
M  V30 1782 H 192.604 7.71255 -0.488437 0
M  V30 1783 H 190.949 6.93654 -0.432329 0
M  V30 1784 H 194.14 4.681 -0.00115036 0
M  V30 1785 H 194.313 6.47501 -0.254247 0
M  V30 1786 N 187.719 -0.156864 1.56817 0
M  V30 1787 C 189.135 -0.50916 1.5126 0
M  V30 1788 C 189.335 -1.83897 0.823658 0
M  V30 1789 O 188.391 -2.49469 0.390055 0
M  V30 1790 C 189.704 -0.52857 2.96018 0
M  V30 1791 C 191.252 -0.614771 3.06903 0
M  V30 1792 C 191.727 -0.664938 4.53147 0
M  V30 1793 N 193.218 -0.727433 4.57452 0
M  V30 1794 C 193.953 -0.787067 5.67973 0
M  V30 1795 N 193.449 -0.806649 6.88088 0
M  V30 1796 N 195.242 -0.827195 5.5598 0
M  V30 1797 H 187.393 0.714935 2.00006 0
M  V30 1798 H 189.656 0.259526 0.911784 0
M  V30 1799 H 189.362 0.380154 3.49639 0
M  V30 1800 H 189.236 -1.36998 3.51442 0
M  V30 1801 H 191.623 -1.51392 2.53307 0
M  V30 1802 H 191.704 0.253597 2.5454 0
M  V30 1803 H 191.348 0.230011 5.07379 0
M  V30 1804 H 191.278 -1.54966 5.03282 0
M  V30 1805 H 193.769 -0.719998 3.70978 0
M  V30 1806 H 194.082 -0.853727 7.6807 0
M  V30 1807 H 192.427 -0.774687 6.90669 0
M  V30 1808 H 195.618 -0.808998 4.61056 0
M  V30 1809 H 195.791 -0.870206 6.4213 0
M  V30 1810 N 189.197 -1.51736 -0.425897 0
M  V30 1811 C 190.425 -1.68794 -1.1965 0
M  V30 1812 C 190.84 -0.390164 -1.84725 0
M  V30 1813 O 190.197 0.632376 -1.71194 0
M  V30 1814 C 190.248 -2.81174 -2.27208 0
M  V30 1815 O 189.969 -4.05925 -1.64793 0
M  V30 1816 C 191.47 -3.09599 -3.17275 0
M  V30 1817 H 188.69 -0.566128 -0.360194 0
M  V30 1818 H 191.234 -1.98211 -0.503249 0
M  V30 1819 H 189.389 -2.54324 -2.9223 0
M  V30 1820 H 189.803 -4.68423 -2.35967 0
M  V30 1821 H 191.277 -3.91786 -3.88854 0
M  V30 1822 H 191.754 -2.22468 -3.78688 0
M  V30 1823 H 192.36 -3.38151 -2.57941 0
M  V30 1824 N 190.675 0.682077 -1.42076 0
M  V30 1825 C 191.924 1.43786 -1.41451 0
M  V30 1826 C 192.237 1.95574 -0.0317074 0
M  V30 1827 O 193.443 2.71326 0.0971462 0
M  V30 1828 C 191.899 2.60071 -2.48779 0
M  V30 1829 C 191.507 2.15013 -3.93031 0
M  V30 1830 C 193.251 3.37626 -2.57311 0
M  V30 1831 C 191.158 3.28336 -4.91883 0
M  V30 1832 H 190.088 0.540143 -0.526082 0
M  V30 1833 H 192.739 0.739157 -1.67955 0
M  V30 1834 H 191.121 3.32275 -2.15429 0
M  V30 1835 H 192.295 1.5001 -4.35699 0
M  V30 1836 H 190.61 1.50416 -3.88284 0
M  V30 1837 H 193.207 4.22012 -3.28345 0
M  V30 1838 H 193.55 3.83727 -1.61429 0
M  V30 1839 H 194.083 2.72488 -2.89819 0
M  V30 1840 H 190.822 2.87234 -5.89217 0
M  V30 1841 H 190.342 3.92145 -4.53853 0
M  V30 1842 H 192.021 3.93913 -5.13265 0
M  V30 1843 N 192.153 1.28127 0.917671 0
M  V30 1844 C 193.569 1.05749 1.19538 0
M  V30 1845 C 193.769 -0.202633 2.00479 0
M  V30 1846 O 192.825 -0.905382 2.3571 0
M  V30 1847 C 194.138 2.30273 1.93378 0
M  V30 1848 C 195.686 2.35412 2.06277 0
M  V30 1849 C 196.161 3.59692 2.83524 0
M  V30 1850 N 197.652 3.60309 2.91087 0
M  V30 1851 C 198.387 4.53147 3.51348 0
M  V30 1852 N 197.883 5.563 4.12919 0
M  V30 1853 N 199.676 4.40751 3.48849 0
M  V30 1854 H 191.827 2.09024 0.377184 0
M  V30 1855 H 194.09 0.919798 0.22951 0
M  V30 1856 H 193.796 3.22055 1.41328 0
M  V30 1857 H 193.67 2.36378 2.93947 0
M  V30 1858 H 196.057 1.4413 2.57508 0
M  V30 1859 H 196.138 2.33304 1.04895 0
M  V30 1860 H 195.782 4.51316 2.32973 0
M  V30 1861 H 195.712 3.59054 3.85211 0
M  V30 1862 H 198.203 2.85714 2.47338 0
M  V30 1863 H 198.516 6.2329 4.56869 0
M  V30 1864 H 196.861 5.60131 4.11435 0
M  V30 1865 H 200.052 3.59367 2.99955 0
M  V30 1866 H 200.225 5.13291 3.9552 0
M  V30 1867 N 193.631 -1.12557 1.10312 0
M  V30 1868 C 194.561 -2.20341 0.772798 0
M  V30 1869 C 195.542 -1.68198 -0.25365 0
M  V30 1870 O 196.727 -1.93831 -0.119699 0
M  V30 1871 C 193.857 -3.46709 0.202443 0
M  V30 1872 C 192.811 -4.11996 1.15943 0
M  V30 1873 C 192.137 -5.328 0.450345 0
M  V30 1874 C 193.437 -4.5828 2.50552 0
M  V30 1875 H 195.131 -2.48229 1.674 0
M  V30 1876 H 192.677 -1.19308 0.806326 0
M  V30 1877 H 194.63 -4.2138 -0.0407752 0
M  V30 1878 H 193.354 -3.18245 -0.734001 0
M  V30 1879 H 192.013 -3.39305 1.38808 0
M  V30 1880 H 191.661 -5.00602 -0.490531 0
M  V30 1881 H 191.361 -5.7743 1.08851 0
M  V30 1882 H 192.885 -6.10219 0.215642 0
M  V30 1883 H 194.299 -5.2433 2.31843 0
M  V30 1884 H 192.696 -5.13683 3.10242 0
M  V30 1885 H 193.766 -3.72329 3.10643 0
M  V30 1886 N 195.109 -0.891671 -1.2995 0
M  V30 1887 C 196.056 -0.361736 -2.27948 0
M  V30 1888 C 197.026 0.551761 -1.56668 0
M  V30 1889 O 198.211 0.478736 -1.84696 0
M  V30 1890 C 195.351 0.411825 -3.42634 0
M  V30 1891 C 194.464 -0.531651 -4.28716 0
M  V30 1892 C 193.599 0.258167 -5.30572 0
M  V30 1893 C 192.638 -0.680349 -6.08307 0
M  V30 1894 N 191.775 0.0745613 -7.0206 0
M  V30 1895 H 196.615 -1.20254 -2.72659 0
M  V30 1896 H 194.152 -0.604352 -1.34112 0
M  V30 1897 H 196.11 0.876304 -4.07893 0
M  V30 1898 H 194.74 1.21715 -2.98974 0
M  V30 1899 H 193.792 -1.11463 -3.63703 0
M  V30 1900 H 195.104 -1.25038 -4.82874 0
M  V30 1901 H 194.258 0.784204 -6.0161 0
M  V30 1902 H 192.997 1.01008 -4.77126 0
M  V30 1903 H 192.002 -1.21796 -5.3614 0
M  V30 1904 H 193.227 -1.43145 -6.63842 0
M  V30 1905 H 191.173 0.808883 -6.50994 0
M  V30 1906 H 191.09 -0.584409 -7.53738 0
M  V30 1907 H 192.358 0.581123 -7.77331 0
M  V30 1908 N 196.587 1.43421 -0.653314 0
M  V30 1909 C 197.517 2.33487 0.0246656 0
M  V30 1910 C 198.498 1.49475 0.811863 0
M  V30 1911 O 199.683 1.78139 0.773322 0
M  V30 1912 C 196.813 3.32841 0.99166 0
M  V30 1913 C 195.767 4.26842 0.314568 0
M  V30 1914 C 195.093 5.16236 1.39302 0
M  V30 1915 C 196.393 5.16243 -0.793095 0
M  V30 1916 H 198.087 2.90427 -0.727481 0
M  V30 1917 H 195.633 1.39649 -0.351287 0
M  V30 1918 H 197.586 3.94747 1.47487 0
M  V30 1919 H 196.31 2.74158 1.77497 0
M  V30 1920 H 194.969 3.663 -0.148199 0
M  V30 1921 H 194.617 4.53891 2.16776 0
M  V30 1922 H 194.317 5.79948 0.945223 0
M  V30 1923 H 195.841 5.81015 1.87759 0
M  V30 1924 H 197.255 5.71958 -0.392039 0
M  V30 1925 H 195.652 5.88676 -1.16536 0
M  V30 1926 H 196.722 4.55927 -1.65103 0
M  V30 1927 N 198.065 0.39524 1.52563 0
M  V30 1928 C 199.311 -0.185318 2.01952 0
M  V30 1929 C 199.644 -1.45964 1.28095 0
M  V30 1930 O 198.919 -1.90689 0.38315 0
M  V30 1931 C 199.202 -0.447193 3.57312 0
M  V30 1932 C 199.055 0.842828 4.41833 0
M  V30 1933 C 200.374 -1.23529 4.22408 0
M  V30 1934 H 197.493 -0.0658788 0.73405 0
M  V30 1935 H 200.135 0.525975 1.82575 0
M  V30 1936 H 198.285 -1.05312 3.73954 0
M  V30 1937 H 199.957 1.4795 4.36931 0
M  V30 1938 H 198.2 1.45686 4.08605 0
M  V30 1939 H 198.871 0.614165 5.48573 0
M  V30 1940 H 201.347 -0.722445 4.0978 0
M  V30 1941 H 200.223 -1.38727 5.3108 0
M  V30 1942 H 200.484 -2.25213 3.80436 0
M  V30 1943 N 199.544 -1.57102 0.125237 0
M  V30 1944 C 200.774 -1.99472 -0.538015 0
M  V30 1945 C 201.182 -1.00395 -1.60366 0
M  V30 1946 O 200.525 0.0103875 -1.83697 0
M  V30 1947 C 200.587 -3.38262 -1.21734 0
M  V30 1948 C 200.251 -4.56021 -0.298897 0
M  V30 1949 C 201.248 -5.17817 0.464943 0
M  V30 1950 C 198.933 -5.01869 -0.208149 0
M  V30 1951 C 200.927 -6.23852 1.3072 0
M  V30 1952 C 198.614 -6.07763 0.637736 0
M  V30 1953 C 199.612 -6.68622 1.39403 0
M  V30 1954 O 199.3 -7.7247 2.22586 0
M  V30 1955 H 199.032 -0.659934 -0.146501 0
M  V30 1956 H 201.586 -2.04321 0.210267 0
M  V30 1957 H 199.816 -3.30185 -2.01282 0
M  V30 1958 H 201.505 -3.6488 -1.77813 0
M  V30 1959 H 202.271 -4.83308 0.404741 0
M  V30 1960 H 198.15 -4.54241 -0.786522 0
M  V30 1961 H 201.694 -6.71284 1.898 0
M  V30 1962 H 197.591 -6.41701 0.699309 0
M  V30 1963 H 198.359 -7.89595 2.15596 0
M  V30 1964 N 201.022 0.148545 -1.56898 0
M  V30 1965 C 202.299 0.890019 -1.74178 0
M  V30 1966 C 202.679 1.99407 -0.692839 0
M  V30 1967 O 202.027 2.26671 0.288505 0
M  V30 1968 C 202.237 1.43389 -3.18183 0
M  V30 1969 C 203.585 1.89791 -3.79822 0
M  V30 1970 O 204.609 1.53134 -3.21603 0
M  V30 1971 O 203.468 2.57387 -4.82093 0
M  V30 1972 H 200.562 0.420496 -0.712118 0
M  V30 1973 H 203.108 0.134591 -1.69165 0
M  V30 1974 H 201.88 0.640383 -3.86024 0
M  V30 1975 H 201.503 2.25287 -3.27615 0
M  V30 1976 N 202.5 1.5196 0.417844 0
M  V30 1977 C 203.447 1.74678 1.50852 0
M  V30 1978 C 204.417 0.588947 1.55308 0
M  V30 1979 O 205.602 0.825544 1.72016 0
M  V30 1980 C 202.742 1.89544 2.88387 0
M  V30 1981 C 201.855 3.17166 2.93309 0
M  V30 1982 C 200.99 3.22513 4.22088 0
M  V30 1983 C 200.029 4.44372 4.20951 0
M  V30 1984 N 199.166 4.47161 5.41287 0
M  V30 1985 H 204.006 2.67768 1.30783 0
M  V30 1986 H 201.543 1.32689 0.63498 0
M  V30 1987 H 203.501 1.96146 3.68216 0
M  V30 1988 H 202.131 0.998424 3.06971 0
M  V30 1989 H 201.183 3.19778 2.06024 0
M  V30 1990 H 202.495 4.07021 2.88332 0
M  V30 1991 H 201.649 3.28139 5.10303 0
M  V30 1992 H 200.388 2.30581 4.29748 0
M  V30 1993 H 199.393 4.38902 3.31127 0
M  V30 1994 H 200.618 5.3759 4.14938 0
M  V30 1995 H 198.564 3.58108 5.49632 0
M  V30 1996 H 198.481 5.3085 5.3827 0
M  V30 1997 H 199.749 4.57005 6.3148 0
M  V30 1998 N 203.978 -0.674533 1.42435 0
M  V30 1999 C 205.218 -1.4466 1.44405 0
M  V30 2000 C 205.582 -1.91911 0.0585784 0
M  V30 2001 O 206.783 -2.68759 -0.0469991 0
M  V30 2002 C 205.054 -2.61136 2.44013 0
M  V30 2003 S 206.613 -3.49981 2.64687 0
M  V30 2004 H 203.431 -0.494074 0.511284 0
M  V30 2005 H 206.033 -0.785162 1.7904 0
M  V30 2006 H 204.737 -2.24662 3.43446 0
M  V30 2007 H 204.268 -3.32153 2.10803 0
M  V30 2008 H 206.283 -4.57124 1.93007 0
M  V30 2009 N 205.456 -1.28612 -0.910864 0
M  V30 2010 C 206.733 -1.06632 -1.63979 0
M  V30 2011 C 207.113 0.393351 -2.07403 0
M  V30 2012 O 206.461 1.37999 -1.82122 0
M  V30 2013 C 206.671 -2.0436 -2.8291 0
M  V30 2014 C 208.019 -2.34666 -3.5386 0
M  V30 2015 O 209.043 -2.02467 -2.93062 0
M  V30 2016 O 207.902 -2.89631 -4.63439 0
M  V30 2017 H 204.996 -0.407737 -0.7195 0
M  V30 2018 H 207.542 -1.39942 -0.959914 0
M  V30 2019 H 206.314 -3.02727 -2.47936 0
M  V30 2020 H 205.937 -1.71714 -3.58609 0
M  V30 2021 N 206.934 1.1197 -1.10907 0
M  V30 2022 C 208.35 1.35591 -0.841852 0
M  V30 2023 C 208.55 1.94233 0.536246 0
M  V30 2024 O 207.606 2.1717 1.28816 0
M  V30 2025 C 208.919 2.29284 -1.94549 0
M  V30 2026 C 210.467 2.42862 -1.97451 0
M  V30 2027 C 210.942 3.39873 -3.07002 0
M  V30 2028 N 212.433 3.47433 -3.06341 0
M  V30 2029 C 213.168 4.22421 -3.87748 0
M  V30 2030 N 212.664 5.00432 -4.79103 0
M  V30 2031 N 214.457 4.17876 -3.75946 0
M  V30 2032 H 206.608 0.722664 -1.99728 0
M  V30 2033 H 208.871 0.380635 -0.868229 0
M  V30 2034 H 208.577 1.93378 -2.93765 0
M  V30 2035 H 208.451 3.29452 -1.83688 0
M  V30 2036 H 210.838 2.78046 -0.988645 0
M  V30 2037 H 210.919 1.42566 -2.12388 0
M  V30 2038 H 210.563 3.05417 -4.05811 0
M  V30 2039 H 210.493 4.40011 -2.89306 0
M  V30 2040 H 212.984 2.91784 -2.40147 0
M  V30 2041 H 213.297 5.55002 -5.37766 0
M  V30 2042 H 211.642 4.99612 -4.83128 0
M  V30 2043 H 214.833 3.56016 -3.03924 0
M  V30 2044 H 215.006 4.76061 -4.39624 0
M  V30 2045 N 208.412 0.89855 1.29475 0
M  V30 2046 C 209.637 0.538561 2.00285 0
M  V30 2047 C 210.062 -0.869135 1.66816 0
M  V30 2048 O 209.42 -1.57831 0.892145 0
M  V30 2049 C 209.468 0.736475 3.52999 0
M  V30 2050 O 208.572 -0.211537 4.11857 0
M  V30 2051 H 207.913 0.210563 0.62973 0
M  V30 2052 H 210.443 1.20982 1.64998 0
M  V30 2053 H 210.453 0.640685 4.02938 0
M  V30 2054 H 209.128 1.76276 3.76696 0
M  V30 2055 H 207.705 -0.0682991 3.72837 0
M  V30 2056 N 209.89 -1.43072 0.660911 0
M  V30 2057 C 211.13 -2.03596 0.181146 0
M  V30 2058 C 211.494 -1.51057 -1.18515 0
M  V30 2059 O 212.695 -2.03275 -1.75877 0
M  V30 2060 C 210.966 -3.56845 0.19911 0
M  V30 2061 S 212.525 -4.38289 -0.211684 0
M  V30 2062 H 209.343 -0.706954 0.0757479 0
M  V30 2063 H 211.945 -1.75027 0.870965 0
M  V30 2064 H 210.649 -3.92583 1.1961 0
M  V30 2065 H 210.18 -3.90067 -0.510996 0
M  V30 2066 H 212.195 -4.74583 -1.44863 0
M  V30 2067 N 211.368 -0.403325 -1.52352 0
M  V30 2068 C 212.315 0.425011 -2.26853 0
M  V30 2069 C 213.285 1.04598 -1.29029 0
M  V30 2070 O 214.47 1.07135 -1.57882 0
M  V30 2071 C 211.61 1.53888 -3.08889 0
M  V30 2072 C 210.723 0.939396 -4.21663 0
M  V30 2073 C 209.858 2.02547 -4.91068 0
M  V30 2074 C 208.897 1.40263 -5.95813 0
M  V30 2075 N 208.034 2.4286 -6.58759 0
M  V30 2076 H 212.874 -0.21674 -2.97211 0
M  V30 2077 H 210.411 -0.118722 -1.4662 0
M  V30 2078 H 212.369 2.19558 -3.54753 0
M  V30 2079 H 210.999 2.15074 -2.40714 0
M  V30 2080 H 210.051 0.171898 -3.80011 0
M  V30 2081 H 211.363 0.44436 -4.96817 0
M  V30 2082 H 210.517 2.75958 -5.40308 0
M  V30 2083 H 209.256 2.55415 -4.15469 0
M  V30 2084 H 208.261 0.653833 -5.45898 0
M  V30 2085 H 209.486 0.881719 -6.73352 0
M  V30 2086 H 207.432 2.94871 -5.85992 0
M  V30 2087 H 207.349 1.98152 -7.2957 0
M  V30 2088 H 208.617 3.15858 -7.12639 0
M  V30 2089 N 212.846 1.57033 -0.133567 0
M  V30 2090 C 214.095 1.94861 0.520768 0
M  V30 2091 C 214.408 1.02012 1.66892 0
M  V30 2092 O 215.614 1.29365 2.38699 0
M  V30 2093 C 214.07 3.46362 0.977809 0
M  V30 2094 C 213.678 4.47773 -0.142674 0
M  V30 2095 C 215.422 3.93083 1.60269 0
M  V30 2096 C 213.329 5.90468 0.331883 0
M  V30 2097 H 212.259 0.727453 0.198315 0
M  V30 2098 H 214.91 1.82227 -0.215759 0
M  V30 2099 H 213.292 3.54282 1.7692 0
M  V30 2100 H 214.466 4.51536 -0.919317 0
M  V30 2101 H 212.781 4.10891 -0.675124 0
M  V30 2102 H 215.378 4.97121 1.96914 0
M  V30 2103 H 215.721 3.33876 2.48662 0
M  V30 2104 H 216.254 3.88025 0.876453 0
M  V30 2105 H 212.993 6.53463 -0.516341 0
M  V30 2106 H 212.513 5.90094 1.07469 0
M  V30 2107 H 214.192 6.42179 0.788332 0
M  V30 2108 N 214.325 -0.140222 1.56975 0
M  V30 2109 C 215.257 -1.19818 1.95388 0
M  V30 2110 C 216.27 -1.38816 0.850525 0
M  V30 2111 O 217.459 -1.38267 1.12891 0
M  V30 2112 C 214.559 -2.56189 2.21857 0
M  V30 2113 C 213.732 -2.58077 3.5315 0
M  V30 2114 C 212.791 -3.76037 3.6808 0
M  V30 2115 O 211.817 -3.60598 4.40406 0
M  V30 2116 N 213.019 -4.93763 3.05251 0
M  V30 2117 H 215.784 -0.871609 2.86746 0
M  V30 2118 H 213.345 -0.32972 1.58507 0
M  V30 2119 H 215.337 -3.33623 2.2908 0
M  V30 2120 H 213.907 -2.81111 1.36731 0
M  V30 2121 H 213.127 -1.6651 3.57307 0
M  V30 2122 H 214.415 -2.56377 4.39486 0
M  V30 2123 H 213.813 -5.09209 2.46419 0
M  V30 2124 H 212.37 -5.68949 3.18026 0
M  V30 2125 N 215.803 -1.52179 -0.40978 0
M  V30 2126 C 216.75 -1.75475 -1.49924 0
M  V30 2127 C 217.72 -0.597175 -1.54994 0
M  V30 2128 O 218.905 -0.834655 -1.71575 0
M  V30 2129 C 216.045 -1.9107 -2.87378 0
M  V30 2130 C 215.158 -3.18717 -2.91622 0
M  V30 2131 C 214.293 -3.24747 -4.20372 0
M  V30 2132 C 213.332 -4.46598 -4.18588 0
M  V30 2133 N 212.469 -4.50025 -5.38908 0
M  V30 2134 H 217.309 -2.68458 -1.29361 0
M  V30 2135 H 214.846 -1.33024 -0.627934 0
M  V30 2136 H 216.804 -1.98096 -3.6717 0
M  V30 2137 H 215.434 -1.01469 -3.06437 0
M  V30 2138 H 214.486 -3.20866 -2.04326 0
M  V30 2139 H 215.798 -4.08544 -2.86169 0
M  V30 2140 H 214.952 -3.30841 -5.08556 0
M  V30 2141 H 213.691 -2.32857 -4.28519 0
M  V30 2142 H 212.696 -4.40652 -3.28794 0
M  V30 2143 H 213.921 -5.39783 -4.12081 0
M  V30 2144 H 211.867 -3.61017 -5.47725 0
M  V30 2145 H 211.784 -5.33697 -5.35447 0
M  V30 2146 H 213.052 -4.60347 -6.29048 0
M  V30 2147 N 217.281 0.66697 -1.42791 0
M  V30 2148 C 218.228 1.7803 -1.4688 0
M  V30 2149 C 219.198 1.6299 -0.319919 0
M  V30 2150 O 220.383 1.83432 -0.525118 0
M  V30 2151 C 217.523 3.1611 -1.38451 0
M  V30 2152 C 216.636 3.42381 -2.63437 0
M  V30 2153 C 215.771 4.70232 -2.47094 0
M  V30 2154 C 214.81 4.89564 -3.67415 0
M  V30 2155 N 213.947 6.08661 -3.49966 0
M  V30 2156 H 218.787 1.7387 -2.42019 0
M  V30 2157 H 216.324 0.84868 -1.20149 0
M  V30 2158 H 218.282 3.95914 -1.31561 0
M  V30 2159 H 216.912 3.19374 -0.469033 0
M  V30 2160 H 215.964 2.56774 -2.80662 0
M  V30 2161 H 217.276 3.52557 -3.52853 0
M  V30 2162 H 216.43 5.5814 -2.37834 0
M  V30 2163 H 215.169 4.62353 -1.5518 0
M  V30 2164 H 214.174 4.00096 -3.77099 0
M  V30 2165 H 215.399 4.99282 -4.6032 0
M  V30 2166 H 213.345 6.0194 -2.60776 0
M  V30 2167 H 213.262 6.19733 -4.32975 0
M  V30 2168 H 214.53 6.99226 -3.44532 0
M  V30 2169 N 218.759 1.29093 0.90403 0
M  V30 2170 C 219.707 1.13727 2.02901 0
M  V30 2171 C 220.701 0.0539853 1.69314 0
M  V30 2172 O 221.907 0.213469 1.7873 0
M  V30 2173 H 218.282 0.35117 0.664969 0
M  V30 2174 H 220.253 2.08982 2.13001 0
M  V30 2175 C 219.002 0.826066 3.37745 0
M  V30 2176 H 218.325 1.65164 3.64089 0
M  V30 2177 H 219.765 0.758559 4.17159 0
M  V30 2178 C 218.224 -0.470541 3.33598 0
M  V30 2179 O 218.754 -1.49792 3.72727 0
M  V30 2180 N 216.96 -0.474812 2.86695 0
M  V30 2181 H 216.507 0.361692 2.55048 0
M  V30 2182 H 216.465 -1.34236 2.84303 0
M  V30 2183 N 220.237 -1.11381 1.11499 0
M  V30 2184 C 221.653 -1.35143 0.849031 0
M  V30 2185 C 221.853 -1.94515 -0.525938 0
M  V30 2186 O 220.909 -2.1785 -1.27662 0
M  V30 2187 C 222.222 -2.28249 1.95762 0
M  V30 2188 C 223.77 -2.41812 1.98736 0
M  V30 2189 C 224.245 -3.3824 3.088 0
M  V30 2190 N 225.736 -3.45803 3.08179 0
M  V30 2191 C 226.471 -4.20358 3.89982 0
M  V30 2192 N 225.967 -4.97884 4.8175 0
M  V30 2193 N 227.76 -4.15877 3.78157 0
M  V30 2194 H 219.911 -0.712062 2.00109 0
M  V30 2195 H 222.174 -0.376025 0.870235 0
M  V30 2196 H 221.88 -1.91817 2.94787 0
M  V30 2197 H 221.754 -3.28473 1.85433 0
M  V30 2198 H 224.141 -2.77518 1.00338 0
M  V30 2199 H 224.222 -1.41437 2.13141 0
M  V30 2200 H 223.866 -3.03261 4.07425 0
M  V30 2201 H 223.796 -4.38471 2.91635 0
M  V30 2202 H 226.287 -2.90506 2.41691 0
M  V30 2203 H 226.6 -5.52142 5.40702 0
M  V30 2204 H 224.945 -4.97043 4.85771 0
M  V30 2205 H 228.136 -3.544 3.05808 0
M  V30 2206 H 228.309 -4.73723 4.42143 0
M  V30 2207 N 221.715 -0.905404 -1.28997 0
M  V30 2208 C 222.663 -0.377431 -2.29517 0
M  V30 2209 C 223.657 0.526461 -1.61012 0
M  V30 2210 O 224.863 0.40863 -1.753 0
M  V30 2211 H 221.238 -0.103437 -0.744852 0
M  V30 2212 H 223.209 -1.23848 -2.71485 0
M  V30 2213 C 221.958 0.374833 -3.45674 0
M  V30 2214 H 221.281 -0.311474 -3.98585 0
M  V30 2215 H 222.721 0.70903 -4.1803 0
M  V30 2216 C 221.18 1.57963 -2.97572 0
M  V30 2217 O 221.71 2.67886 -2.99333 0
M  V30 2218 N 219.916 1.42375 -2.53333 0
M  V30 2219 H 219.463 0.529466 -2.521 0
M  V30 2220 H 219.421 2.23117 -2.21509 0
M  V30 2221 N 223.193 1.4272 -0.668489 0
M  V30 2222 C 224.14 2.30796 0.0137489 0
M  V30 2223 C 225.11 1.4561 0.799177 0
M  V30 2224 O 226.295 1.74453 0.772702 0
M  V30 2225 C 223.435 3.31377 0.963507 0
M  V30 2226 C 222.548 4.31655 0.172569 0
M  V30 2227 C 221.683 5.19312 1.1175 0
M  V30 2228 C 220.722 6.11274 0.317886 0
M  V30 2229 N 219.859 6.91504 1.2152 0
M  V30 2230 H 224.699 2.88585 -0.743161 0
M  V30 2231 H 222.236 1.42154 -0.378226 0
M  V30 2232 H 224.194 3.88214 1.52792 0
M  V30 2233 H 222.824 2.75202 1.68712 0
M  V30 2234 H 221.876 3.76988 -0.508374 0
M  V30 2235 H 223.188 4.96779 -0.448527 0
M  V30 2236 H 222.342 5.80851 1.75206 0
M  V30 2237 H 221.081 4.5435 1.77249 0
M  V30 2238 H 220.086 5.48809 -0.329918 0
M  V30 2239 H 221.311 6.78283 -0.332917 0
M  V30 2240 H 219.257 6.29176 1.85671 0
M  V30 2241 H 219.174 7.53209 0.649036 0
M  V30 2242 H 220.442 7.57535 1.83742 0
M  V30 2243 N 224.671 0.411399 1.52136 0
M  V30 2244 C 225.911 -0.163143 2.03748 0
M  V30 2245 C 226.275 -1.42187 1.29022 0
M  V30 2246 O 227.476 -2.075 1.70872 0
M  V30 2247 C 225.747 -0.402651 3.55125 0
M  V30 2248 S 227.306 -0.944315 4.28519 0
M  V30 2249 H 224.124 -0.0439833 0.709638 0
M  V30 2250 H 226.726 0.56484 1.87163 0
M  V30 2251 H 225.43 0.520212 4.0709 0
M  V30 2252 H 224.961 -1.15844 3.75957 0
M  V30 2253 H 226.976 -2.22463 4.43536 0
M  V30 2254 N 226.149 -1.5696 0.141893 0
M  V30 2255 C 227.081 -2.13619 -0.830627 0
M  V30 2256 C 228.094 -1.08439 -1.21428 0
M  V30 2257 O 229.283 -1.35734 -1.15925 0
M  V30 2258 C 226.383 -2.63978 -2.12529 0
M  V30 2259 C 225.556 -3.93504 -1.9098 0
M  V30 2260 C 224.615 -4.29225 -3.04388 0
M  V30 2261 O 223.641 -4.97641 -2.76302 0
M  V30 2262 N 224.843 -3.88393 -4.31429 0
M  V30 2263 H 227.608 -2.97691 -0.34641 0
M  V30 2264 H 225.169 -1.61846 -0.0418375 0
M  V30 2265 H 227.161 -2.84891 -2.87436 0
M  V30 2266 H 225.731 -1.84659 -2.52229 0
M  V30 2267 H 224.951 -3.81269 -1.00139 0
M  V30 2268 H 226.239 -4.78154 -1.73914 0
M  V30 2269 H 225.637 -3.33257 -4.57117 0
M  V30 2270 H 224.194 -4.14368 -5.03133 0
M  V30 2271 N 227.627 0.131896 -1.57047 0
M  V30 2272 C 228.857 0.855219 -1.88068 0
M  V30 2273 C 229.265 1.74557 -0.729817 0
M  V30 2274 O 228.608 1.81083 0.308962 0
M  V30 2275 C 228.67 1.75119 -3.13964 0
M  V30 2276 C 228.334 1.03646 -4.45091 0
M  V30 2277 C 229.331 0.383276 -5.18485 0
M  V30 2278 C 227.016 1.02148 -4.91804 0
M  V30 2279 C 229.01 -0.275347 -6.36805 0
M  V30 2280 C 226.697 0.359047 -6.10044 0
M  V30 2281 C 227.695 -0.288222 -6.82392 0
M  V30 2282 O 227.383 -0.94011 -7.98384 0
M  V30 2283 H 227.115 0.251864 -0.627328 0
M  V30 2284 H 229.669 0.124782 -2.05021 0
M  V30 2285 H 227.899 2.52295 -2.9306 0
M  V30 2286 H 229.588 2.3478 -3.31109 0
M  V30 2287 H 230.354 0.386562 -4.83457 0
M  V30 2288 H 226.233 1.5147 -4.35405 0
M  V30 2289 H 229.777 -0.781148 -6.93213 0
M  V30 2290 H 225.674 0.35348 -6.44531 0
M  V30 2291 H 226.442 -0.84329 -8.14144 0
M  V30 2292 N 229.106 1.52395 0.401703 0
M  V30 2293 C 230.346 1.68498 1.15705 0
M  V30 2294 C 230.71 0.409748 1.87577 0
M  V30 2295 O 231.911 0.446983 2.65058 0
M  V30 2296 C 230.182 2.87789 2.11924 0
M  V30 2297 S 231.741 3.24415 2.95466 0
M  V30 2298 H 228.559 0.593267 0.391862 0
M  V30 2299 H 231.161 1.90408 0.443282 0
M  V30 2300 H 229.865 3.7884 1.57824 0
M  V30 2301 H 229.396 2.68175 2.87829 0
M  V30 2302 H 231.411 2.73614 4.13944 0
M  V30 2303 N 230.584 -0.659388 1.43143 0
M  V30 2304 C 232 -0.974337 1.26407 0
M  V30 2305 C 232.2 -2.007 0.179341 0
M  V30 2306 O 231.256 -2.4856 -0.444295 0
M  V30 2307 C 232.569 -1.46447 2.62628 0
M  V30 2308 C 234.117 -1.58144 2.7011 0
M  V30 2309 C 234.592 -2.1055 4.06734 0
M  V30 2310 N 236.083 -2.17861 4.08767 0
M  V30 2311 C 236.818 -2.59519 5.1131 0
M  V30 2312 N 236.314 -3.00518 6.24228 0
M  V30 2313 N 238.107 -2.59404 4.98664 0
M  V30 2314 H 230.258 0.0240528 2.12386 0
M  V30 2315 H 232.521 -0.0518065 0.946583 0
M  V30 2316 H 232.227 -0.780123 3.42939 0
M  V30 2317 H 232.101 -2.44058 2.87603 0
M  V30 2318 H 234.488 -2.25682 1.90136 0
M  V30 2319 H 234.569 -0.589828 2.48907 0
M  V30 2320 H 234.213 -1.43616 4.87172 0
M  V30 2321 H 234.143 -3.10531 4.25298 0
M  V30 2322 H 236.634 -1.88975 3.27257 0
M  V30 2323 H 236.947 -3.31036 6.98309 0
M  V30 2324 H 235.292 -2.98337 6.2771 0
M  V30 2325 H 238.483 -2.26747 4.09516 0
M  V30 2326 H 238.656 -2.91548 5.78709 0
M  V30 2327 N 232.062 -1.29571 -0.897171 0
M  V30 2328 C 233.309 -1.17689 -1.6479 0
M  V30 2329 C 233.637 0.27107 -1.92602 0
M  V30 2330 O 232.892 1.21193 -1.53658 0
M  V30 2331 C 233.191 -1.9382 -3.00281 0
M  V30 2332 C 232.857 -3.43522 -2.92068 0
M  V30 2333 C 231.519 -3.84348 -2.89535 0
M  V30 2334 C 233.871 -4.38906 -2.81089 0
M  V30 2335 C 231.199 -5.18869 -2.73846 0
M  V30 2336 C 233.551 -5.73521 -2.66939 0
M  V30 2337 C 232.215 -6.13601 -2.62774 0
M  V30 2338 H 231.485 -0.430654 -0.603008 0
M  V30 2339 H 234.132 -1.60536 -1.04404 0
M  V30 2340 H 232.437 -1.4357 -3.64547 0
M  V30 2341 H 234.134 -1.82028 -3.57305 0
M  V30 2342 H 230.724 -3.11072 -2.94842 0
M  V30 2343 H 234.908 -4.08315 -2.82121 0
M  V30 2344 H 230.164 -5.4903 -2.69027 0
M  V30 2345 H 234.338 -6.47078 -2.57416 0
M  V30 2346 H 231.965 -7.17786 -2.50375 0
M  V30 2347 N 233.54 1.10788 -1.12088 0
M  V30 2348 C 234.49 2.15158 -0.754401 0
M  V30 2349 C 235.474 1.59026 0.244846 0
M  V30 2350 O 236.666 1.76927 0.0509097 0
M  V30 2351 C 233.795 3.42677 -0.206657 0
M  V30 2352 C 232.881 4.05751 -1.23398 0
M  V30 2353 N 233.272 4.43582 -2.43041 0
M  V30 2354 C 231.57 4.32764 -1.07848 0
M  V30 2355 C 232.271 4.93085 -3.08613 0
M  V30 2356 N 231.247 4.89664 -2.36072 0
M  V30 2357 H 235.049 2.42195 -1.6649 0
M  V30 2358 H 232.563 1.27872 -1.00112 0
M  V30 2359 H 234.56 4.16834 0.0740646 0
M  V30 2360 H 233.22 3.17101 0.698342 0
M  V30 2361 H 234.231 4.35395 -2.80449 0
M  V30 2362 H 230.908 4.16863 -0.230483 0
M  V30 2363 H 232.298 5.31933 -4.10483 0
M  V30 2364 N 235.018 0.912232 1.28515 0
M  V30 2365 C 235.965 0.397954 2.27343 0
M  V30 2366 C 236.935 -0.526766 1.57526 0
M  V30 2367 O 238.12 -0.449292 1.85435 0
M  V30 2368 C 235.26 -0.357263 3.43246 0
M  V30 2369 C 234.373 0.599788 4.27816 0
M  V30 2370 C 233.508 -0.173725 5.30916 0
M  V30 2371 C 232.547 0.777039 6.07148 0
M  V30 2372 N 231.684 0.0371398 7.0209 0
M  V30 2373 H 236.524 1.24577 2.70711 0
M  V30 2374 H 234.061 0.625612 1.33133 0
M  V30 2375 H 236.019 -0.8113 4.09236 0
M  V30 2376 H 234.649 -1.16943 3.00872 0
M  V30 2377 H 233.701 1.17235 3.61884 0
M  V30 2378 H 235.013 1.32704 4.80823 0
M  V30 2379 H 234.167 -0.688394 6.02782 0
M  V30 2380 H 232.906 -0.934041 4.78672 0
M  V30 2381 H 231.911 1.3031 5.34134 0
M  V30 2382 H 233.136 1.53689 6.61481 0
M  V30 2383 H 231.082 -0.705213 6.52198 0
M  V30 2384 H 230.999 0.704249 7.52713 0
M  V30 2385 H 232.267 -0.457383 7.78157 0
M  V30 2386 N 236.496 -1.42363 0.676048 0
M  V30 2387 C 237.736 -2.03392 0.20273 0
M  V30 2388 C 238.1 -1.52306 -1.16906 0
M  V30 2389 O 239.301 -2.05129 -1.73711 0
M  V30 2390 C 237.572 -3.56614 0.236947 0
M  V30 2391 S 239.131 -4.38489 -0.165186 0
M  V30 2392 H 235.949 -0.70611 0.0832418 0
M  V30 2393 H 238.551 -1.74093 0.88948 0
M  V30 2394 H 237.255 -3.91293 1.23767 0
M  V30 2395 H 236.786 -3.90587 -0.469596 0
M  V30 2396 H 238.801 -4.76093 -1.39822 0
M  V30 2397 N 237.974 -0.419461 -1.51915 0
M  V30 2398 C 238.904 0.391813 -2.30189 0
M  V30 2399 C 239.885 1.03699 -1.34836 0
M  V30 2400 O 241.07 1.04403 -1.63748 0
M  V30 2401 C 238.2 1.50312 -3.13087 0
M  V30 2402 C 237.154 0.9824 -4.16573 0
M  V30 2403 C 236.48 2.18809 -4.8788 0
M  V30 2404 C 237.78 0.0292356 -5.22292 0
M  V30 2405 H 239.474 -0.26135 -2.98257 0
M  V30 2406 H 237.02 -0.127134 -1.43438 0
M  V30 2407 H 238.973 2.07773 -3.66617 0
M  V30 2408 H 237.697 2.18431 -2.42807 0
M  V30 2409 H 236.356 0.430119 -3.64068 0
M  V30 2410 H 236.004 2.85507 -4.14119 0
M  V30 2411 H 235.704 1.84615 -5.57845 0
M  V30 2412 H 237.228 2.76858 -5.44226 0
M  V30 2413 H 238.642 0.512976 -5.71 0
M  V30 2414 H 237.039 -0.2244 -5.9968 0
M  V30 2415 H 238.109 -0.912931 -4.76228 0
M  V30 2416 N 239.452 1.56882 -0.150215 0
M  V30 2417 C 240.677 2.01027 0.510184 0
M  V30 2418 C 241.102 1.02966 1.57415 0
M  V30 2419 O 240.46 0.00590158 1.81299 0
M  V30 2420 C 240.508 3.43899 1.08472 0
M  V30 2421 O 239.612 3.4885 2.19948 0
M  V30 2422 H 238.953 0.652233 0.124451 0
M  V30 2423 H 241.483 2.03093 -0.247894 0
M  V30 2424 H 241.493 3.82766 1.41259 0
M  V30 2425 H 240.168 4.14776 0.305582 0
M  V30 2426 H 238.745 3.21827 1.88366 0
M  V30 2427 N 240.93 -0.123565 1.57115 0
M  V30 2428 C 242.176 -0.833386 1.84885 0
M  V30 2429 C 242.509 -1.79742 0.735292 0
M  V30 2430 O 241.784 -1.92764 -0.25925 0
M  V30 2431 C 242.067 -1.5873 3.23228 0
M  V30 2432 C 241.92 -0.643183 4.45178 0
M  V30 2433 C 243.239 -2.54453 3.59085 0
M  V30 2434 H 240.358 -0.301518 0.6725 0
M  V30 2435 H 243 -0.097778 1.89748 0
M  V30 2436 H 241.15 -2.21438 3.19214 0
M  V30 2437 H 242.822 -0.0253015 4.61293 0
M  V30 2438 H 241.065 0.0456139 4.33776 0
M  V30 2439 H 241.736 -1.20724 5.38637 0
M  V30 2440 H 244.212 -2.01853 3.63861 0
M  V30 2441 H 243.088 -3.04238 4.5687 0
M  V30 2442 H 243.349 -3.36906 2.86264 0
M  V30 2443 N 242.408 -1.52605 -0.393616 0
M  V30 2444 C 243.656 -1.67093 -1.13685 0
M  V30 2445 C 243.977 -0.411011 -1.90619 0
M  V30 2446 O 243.247 0.574491 -1.87287 0
M  V30 2447 H 241.827 -0.615923 -0.422668 0
M  V30 2448 H 244.489 -1.89704 -0.447039 0
M  V30 2449 H 243.585 -2.51922 -1.84232 0
M  V30 2450 N 243.887 0.651787 -1.4349 0
M  V30 2451 C 244.82 1.77668 -1.43211 0
M  V30 2452 C 245.798 1.59931 -0.29338 0
M  V30 2453 O 246.982 1.82095 -0.487191 0
M  V30 2454 C 244.109 3.14986 -1.24505 0
M  V30 2455 C 243.155 3.51421 -2.41673 0
M  V30 2456 S 243.988 3.51234 -4.04222 0
M  V30 2457 C 245.144 4.91206 -3.87902 0
M  V30 2458 H 245.377 1.77635 -2.38397 0
M  V30 2459 H 242.91 0.824558 -1.30539 0
M  V30 2460 H 244.868 3.94237 -1.144 0
M  V30 2461 H 243.529 3.1258 -0.308651 0
M  V30 2462 H 242.722 4.51291 -2.24393 0
M  V30 2463 H 242.324 2.79585 -2.48411 0
M  V30 2464 H 244.616 5.79902 -3.50315 0
M  V30 2465 H 245.559 5.13537 -4.8753 0
M  V30 2466 H 245.967 4.64808 -3.20334 0
M  V30 2467 N 245.365 1.30045 0.890287 0
M  V30 2468 C 246.59 1.21598 1.68014 0
M  V30 2469 C 247.015 -0.218678 1.86825 0
M  V30 2470 O 246.373 -1.15756 1.39536 0
M  V30 2471 C 246.421 1.94434 3.03691 0
M  V30 2472 O 245.525 1.2678 3.92429 0
M  V30 2473 H 244.866 0.420856 0.513592 0
M  V30 2474 H 247.396 1.71775 1.11151 0
M  V30 2475 H 247.406 2.03251 3.5377 0
M  V30 2476 H 246.081 2.98777 2.89318 0
M  V30 2477 H 244.658 1.26282 3.50866 0
M  V30 2478 N 246.843 -1.10192 1.12674 0
M  V30 2479 C 247.793 -2.14754 0.765801 0
M  V30 2480 C 248.777 -1.59154 -0.236409 0
M  V30 2481 O 249.969 -1.76951 -0.0415261 0
M  V30 2482 C 247.098 -3.42563 0.224827 0
M  V30 2483 C 246.184 -4.05091 1.25548 0
M  V30 2484 N 246.575 -4.42287 2.4539 0
M  V30 2485 C 244.873 -4.32186 1.10142 0
M  V30 2486 C 245.574 -4.91441 3.11224 0
M  V30 2487 N 244.55 -4.88405 2.38666 0
M  V30 2488 H 248.352 -2.41309 1.67772 0
M  V30 2489 H 245.866 -1.27339 1.00789 0
M  V30 2490 H 247.863 -4.16868 -0.0519578 0
M  V30 2491 H 246.523 -3.17467 -0.681515 0
M  V30 2492 H 247.534 -4.33902 2.82754 0
M  V30 2493 H 244.211 -4.16735 0.252587 0
M  V30 2494 H 245.601 -5.29749 4.13298 0
M  V30 2495 N 248.321 -0.919034 -1.28029 0
M  V30 2496 C 249.269 -0.401753 -2.29104 0
M  V30 2497 C 250.263 0.509354 -1.61561 0
M  V30 2498 O 251.469 0.390014 -1.75724 0
M  V30 2499 H 247.844 -0.111331 -0.743713 0
M  V30 2500 H 249.815 -1.2672 -2.70156 0
M  V30 2501 C 248.564 0.338148 -3.46052 0
M  V30 2502 H 247.887 -0.353732 -3.98232 0
M  V30 2503 H 249.327 0.664653 -4.18758 0
M  V30 2504 C 247.786 1.54798 -2.99231 0
M  V30 2505 O 248.316 2.64696 -3.02157 0
M  V30 2506 N 246.522 1.3968 -2.54829 0
M  V30 2507 H 246.069 0.502698 -2.52647 0
M  V30 2508 H 246.027 2.20755 -2.23863 0
M  V30 2509 N 249.799 1.42003 -0.683588 0
M  V30 2510 C 250.762 2.29191 -0.0198243 0
M  V30 2511 C 251.762 1.43773 0.72013 0
M  V30 2512 O 252.952 1.65061 0.556815 0
M  V30 2513 C 250.084 3.26435 0.982487 0
M  V30 2514 H 251.277 2.8938 -0.787345 0
M  V30 2515 H 248.83 1.49789 -0.446418 0
M  V30 2516 H 249.565 2.71203 1.77819 0
M  V30 2517 H 249.35 3.89449 0.455182 0
M  V30 2518 H 250.84 3.918 1.44508 0
M  V30 2519 N 251.277 0.427512 1.51691 0
M  V30 2520 C 252.526 -0.143679 2.01188 0
M  V30 2521 C 252.839 -1.44642 1.31674 0
M  V30 2522 O 254.045 -2.09997 1.72086 0
M  V30 2523 C 252.501 -0.306602 3.58592 0
M  V30 2524 C 252.109 0.985125 4.37035 0
M  V30 2525 C 253.853 -0.832091 4.16265 0
M  V30 2526 C 251.76 0.788382 5.86122 0
M  V30 2527 H 250.69 -0.0574701 0.751807 0
M  V30 2528 H 253.341 0.555772 1.74881 0
M  V30 2529 H 251.723 -1.06882 3.81303 0
M  V30 2530 H 252.897 1.75492 4.26074 0
M  V30 2531 H 251.212 1.4384 3.90767 0
M  V30 2532 H 253.809 -0.995617 5.25349 0
M  V30 2533 H 254.152 -1.81186 3.74803 0
M  V30 2534 H 254.685 -0.128444 3.97593 0
M  V30 2535 H 251.424 1.74025 6.31978 0
M  V30 2536 H 250.944 0.0582143 5.99772 0
M  V30 2537 H 252.623 0.437722 6.45518 0
M  V30 2538 N 252.755 -1.56801 0.158532 0
M  V30 2539 C 254.171 -1.5837 -0.197774 0
M  V30 2540 C 254.371 -1.17334 -1.63814 0
M  V30 2541 O 253.427 -0.878988 -2.36707 0
M  V30 2542 C 254.74 -3.00615 0.0714459 0
M  V30 2543 C 256.288 -3.12999 0.00864533 0
M  V30 2544 C 256.763 -4.57313 0.250685 0
M  V30 2545 N 258.254 -4.62777 0.198014 0
M  V30 2546 C 258.989 -5.72271 0.359642 0
M  V30 2547 N 258.485 -6.90371 0.579625 0
M  V30 2548 N 260.278 -5.61318 0.296438 0
M  V30 2549 H 252.429 -1.81765 1.09887 0
M  V30 2550 H 254.692 -0.841849 0.435884 0
M  V30 2551 H 254.398 -3.35068 1.06874 0
M  V30 2552 H 254.272 -3.71683 -0.642757 0
M  V30 2553 H 256.659 -2.7838 -0.979217 0
M  V30 2554 H 256.74 -2.44393 0.755359 0
M  V30 2555 H 256.384 -4.92639 1.2357 0
M  V30 2556 H 256.314 -5.24061 -0.516489 0
M  V30 2557 H 258.805 -3.77885 0.0331115 0
M  V30 2558 H 259.118 -7.69689 0.69275 0
M  V30 2559 H 257.463 -6.92264 0.616087 0
M  V30 2560 H 260.654 -4.67932 0.125258 0
M  V30 2561 H 260.827 -6.46599 0.425831 0
M  V30 2562 N 254.233 0.115231 -1.57178 0
M  V30 2563 C 255.48 0.822351 -1.8505 0
M  V30 2564 C 255.808 1.79701 -0.744168 0
M  V30 2565 O 255.063 1.93909 0.26414 0
M  V30 2566 C 255.362 1.60324 -3.19423 0
M  V30 2567 C 255.028 0.772536 -4.44233 0
M  V30 2568 C 253.69 0.543468 -4.78121 0
M  V30 2569 C 256.042 0.193746 -5.2084 0
M  V30 2570 C 253.37 -0.274583 -5.86057 0
M  V30 2571 C 255.722 -0.611517 -6.29637 0
M  V30 2572 C 254.386 -0.850867 -6.62055 0
M  V30 2573 H 253.656 0.30092 -0.677147 0
M  V30 2574 H 256.303 0.0845802 -1.91313 0
M  V30 2575 H 254.608 2.41203 -3.08753 0
M  V30 2576 H 256.305 2.1544 -3.38211 0
M  V30 2577 H 252.895 0.96117 -4.17683 0
M  V30 2578 H 257.079 0.357926 -4.95008 0
M  V30 2579 H 252.335 -0.469206 -6.09597 0
M  V30 2580 H 256.509 -1.06697 -6.88178 0
M  V30 2581 H 254.136 -1.48657 -7.45523 0
M  V30 2582 N 255.711 1.52812 0.385517 0
M  V30 2583 C 256.959 1.67694 1.12797 0
M  V30 2584 C 257.28 0.421115 1.90399 0
M  V30 2585 O 256.55 -0.564551 1.87589 0
M  V30 2586 H 255.13 0.618155 0.419396 0
M  V30 2587 H 257.792 1.89938 0.436972 0
M  V30 2588 H 256.888 2.52896 1.82894 0
M  V30 2589 N 257.189 -0.644168 1.43834 0
M  V30 2590 C 258.605 -0.960875 1.27434 0
M  V30 2591 C 258.805 -2.00499 0.200618 0
M  V30 2592 O 257.861 -2.49018 -0.417906 0
M  V30 2593 C 259.174 -1.43653 2.64167 0
M  V30 2594 C 260.722 -1.55271 2.71772 0
M  V30 2595 C 261.197 -2.06224 4.08944 0
M  V30 2596 N 262.688 -2.13513 4.11055 0
M  V30 2597 C 263.423 -2.54081 5.14033 0
M  V30 2598 N 262.919 -2.9388 6.27381 0
M  V30 2599 N 264.712 -2.54101 5.01387 0
M  V30 2600 H 256.863 0.0465779 2.12349 0
M  V30 2601 H 259.126 -0.0417638 0.94708 0
M  V30 2602 H 258.832 -0.743706 3.43747 0
M  V30 2603 H 258.706 -2.40993 2.90176 0
M  V30 2604 H 261.093 -2.23653 1.92519 0
M  V30 2605 H 261.174 -0.563395 2.49519 0
M  V30 2606 H 260.818 -1.38441 4.88668 0
M  V30 2607 H 260.748 -3.06003 4.28567 0
M  V30 2608 H 263.239 -1.85493 3.29242 0
M  V30 2609 H 263.552 -3.2361 7.01781 0
M  V30 2610 H 261.897 -2.91663 6.30839 0
M  V30 2611 H 265.088 -2.22391 4.11898 0
M  V30 2612 H 265.261 -2.85394 5.81768 0
M  V30 2613 N 258.668 -1.30515 -0.883378 0
M  V30 2614 C 259.601 -1.11359 -1.99184 0
M  V30 2615 C 260.579 -0.0207858 -1.62587 0
M  V30 2616 O 261.763 -0.174646 -1.87689 0
M  V30 2617 C 258.89 -0.69871 -3.31415 0
M  V30 2618 C 257.936 -1.79261 -3.86998 0
M  V30 2619 S 258.769 -3.39536 -4.14096 0
M  V30 2620 C 259.925 -2.99954 -5.49344 0
M  V30 2621 H 260.158 -2.052 -2.15128 0
M  V30 2622 H 257.691 -1.14847 -1.03196 0
M  V30 2623 H 259.649 -0.466075 -4.07846 0
M  V30 2624 H 258.31 0.220368 -3.13326 0
M  V30 2625 H 257.503 -1.45464 -4.82552 0
M  V30 2626 H 257.105 -1.97961 -3.17313 0
M  V30 2627 H 259.397 -2.48013 -6.30473 0
M  V30 2628 H 260.34 -3.9442 -5.8808 0
M  V30 2629 H 260.748 -2.37775 -5.1198 0
M  V30 2630 N 260.146 1.09593 -1.13257 0
M  V30 2631 C 261.557 1.63229 -0.906274 0
M  V30 2632 C 261.908 1.8811 0.557578 0
M  V30 2633 O 261.033 1.62953 1.42391 0
M  V30 2634 C 261.628 2.96535 -1.63867 0
M  V30 2635 C 260.187 3.47003 -1.45828 0
M  V30 2636 C 259.334 2.2145 -1.66898 0
M  V30 2637 H 262.285 0.92978 -1.28611 0
M  V30 2638 H 262.306 3.64411 -1.09476 0
M  V30 2639 H 261.818 2.78394 -2.70404 0
M  V30 2640 H 259.919 3.70272 -0.415848 0
M  V30 2641 H 260.032 4.24551 -2.2202 0
M  V30 2642 H 258.396 2.30022 -1.09371 0
M  V30 2643 H 259.179 2.0583 -2.74752 0
M  V30 2644 N 261.624 0.925811 1.2754 0
M  V30 2645 C 263.04 0.625767 1.46821 0
M  V30 2646 C 263.24 -0.825506 1.83814 0
M  V30 2647 O 262.296 -1.60356 1.95044 0
M  V30 2648 C 263.609 1.57402 2.56213 0
M  V30 2649 C 265.157 1.58204 2.70075 0
M  V30 2650 C 265.632 2.51721 3.82623 0
M  V30 2651 N 267.123 2.49917 3.89994 0
M  V30 2652 C 267.858 3.18968 4.76494 0
M  V30 2653 N 267.354 3.97391 5.67496 0
M  V30 2654 N 269.147 3.07996 4.70208 0
M  V30 2655 H 261.298 1.86409 1.01811 0
M  V30 2656 H 263.561 0.800213 0.508295 0
M  V30 2657 H 263.267 2.60925 2.35819 0
M  V30 2658 H 263.141 1.31428 3.53563 0
M  V30 2659 H 265.528 0.554124 2.89851 0
M  V30 2660 H 265.609 1.88226 1.73218 0
M  V30 2661 H 265.253 3.54622 3.63601 0
M  V30 2662 H 265.183 2.18996 4.78903 0
M  V30 2663 H 267.674 1.9296 3.24923 0
M  V30 2664 H 267.987 4.4707 6.30356 0
M  V30 2665 H 266.332 4.01495 5.67298 0
M  V30 2666 H 269.523 2.46223 3.9811 0
M  V30 2667 H 269.696 3.6208 5.37403 0
M  V30 2668 N 263.102 -1.41638 0.69111 0
M  V30 2669 C 264.327 -2.06148 0.227583 0
M  V30 2670 C 264.752 -1.51652 -1.11281 0
M  V30 2671 O 264.11 -0.64164 -1.69566 0
M  V30 2672 C 264.158 -3.60095 0.190858 0
M  V30 2673 O 263.262 -4.03845 -0.835664 0
M  V30 2674 H 262.603 -0.654434 0.112306 0
M  V30 2675 H 265.133 -1.81484 0.944714 0
M  V30 2676 H 265.143 -4.07995 0.020207 0
M  V30 2677 H 263.818 -3.99129 1.16915 0
M  V30 2678 H 262.395 -3.67458 -0.63473 0
M  V30 2679 N 264.58 -0.43555 -1.51462 0
M  V30 2680 C 265.49 0.383001 -2.31453 0
M  V30 2681 C 266.506 1.02931 -1.4029 0
M  V30 2682 O 267.682 1.02507 -1.73362 0
M  V30 2683 C 264.747 1.47043 -3.13973 0
M  V30 2684 C 263.808 0.844433 -4.20913 0
M  V30 2685 C 263.041 1.88004 -4.9949 0
M  V30 2686 O 263.264 3.10199 -4.78678 0
M  V30 2687 O 262.198 1.47157 -5.83634 0
M  V30 2688 H 266.024 -0.269964 -3.02498 0
M  V30 2689 H 263.609 -0.19813 -1.4808 0
M  V30 2690 H 265.491 2.10113 -3.65281 0
M  V30 2691 H 264.166 2.10751 -2.45695 0
M  V30 2692 H 263.073 0.175729 -3.73687 0
M  V30 2693 H 264.406 0.250869 -4.9156 0
M  V30 2694 N 266.058 1.56714 -0.166846 0
M  V30 2695 C 267.005 2.17746 0.765193 0
M  V30 2696 C 267.975 1.11614 1.23011 0
M  V30 2697 O 269.16 1.39745 1.29908 0
M  V30 2698 C 266.3 2.81882 1.9909 0
M  V30 2699 C 265.413 4.02462 1.56997 0
M  V30 2700 C 264.548 4.54537 2.749 0
M  V30 2701 C 263.587 5.67538 2.29275 0
M  V30 2702 N 262.724 6.14142 3.40255 0
M  V30 2703 H 267.564 2.97048 0.237952 0
M  V30 2704 H 265.101 1.4672 0.105725 0
M  V30 2705 H 267.059 3.17221 2.70974 0
M  V30 2706 H 265.689 2.05191 2.49192 0
M  V30 2707 H 264.741 3.72973 0.748037 0
M  V30 2708 H 266.053 4.84273 1.19503 0
M  V30 2709 H 265.207 4.92035 3.54946 0
M  V30 2710 H 263.946 3.71774 3.1565 0
M  V30 2711 H 262.951 5.29597 1.47674 0
M  V30 2712 H 264.176 6.52099 1.89588 0
M  V30 2713 H 262.122 5.3431 3.8059 0
M  V30 2714 H 262.039 6.9093 3.06841 0
M  V30 2715 H 263.307 6.56289 4.206 0
M  V30 2716 N 267.536 -0.106894 1.57237 0
M  V30 2717 C 268.499 -1.11466 2.0027 0
M  V30 2718 C 269.499 -1.33623 0.894519 0
M  V30 2719 O 270.689 -1.29935 1.16028 0
M  V30 2720 C 267.821 -2.46646 2.35327 0
M  V30 2721 H 269.014 -0.744516 2.90512 0
M  V30 2722 H 266.567 -0.351576 1.52295 0
M  V30 2723 H 267.302 -2.88558 1.48003 0
M  V30 2724 H 267.087 -2.31915 3.16161 0
M  V30 2725 H 268.577 -3.19151 2.69318 0
M  V30 2726 N 269.014 -1.53014 -0.377408 0
M  V30 2727 C 269.961 -1.78616 -1.46168 0
M  V30 2728 C 270.931 -0.629917 -1.53692 0
M  V30 2729 O 272.116 -0.870861 -1.69766 0
M  V30 2730 C 269.256 -1.97123 -2.8326 0
M  V30 2731 C 268.369 -3.24831 -2.84796 0
M  V30 2732 C 267.504 -3.33591 -4.13389 0
M  V30 2733 C 266.543 -4.55377 -4.09021 0
M  V30 2734 N 265.68 -4.61355 -5.29241 0
M  V30 2735 H 270.52 -2.71142 -1.23637 0
M  V30 2736 H 268.057 -1.34326 -0.599577 0
M  V30 2737 H 270.015 -2.05839 -3.62886 0
M  V30 2738 H 268.645 -1.07946 -3.04216 0
M  V30 2739 H 267.697 -3.25128 -1.97474 0
M  V30 2740 H 269.009 -4.14523 -2.77439 0
M  V30 2741 H 268.163 -3.41554 -5.01424 0
M  V30 2742 H 266.902 -2.41894 -4.23484 0
M  V30 2743 H 265.907 -4.47527 -3.19373 0
M  V30 2744 H 267.132 -5.48402 -4.00539 0
M  V30 2745 H 265.078 -3.72554 -5.39944 0
M  V30 2746 H 264.995 -5.44935 -5.24006 0
M  V30 2747 H 266.263 -4.73586 -6.19141 0
M  V30 2748 N 270.492 0.636531 -1.44174 0
M  V30 2749 C 271.422 1.76003 -1.53444 0
M  V30 2750 C 272.403 1.65619 -0.387841 0
M  V30 2751 O 273.588 1.84461 -0.607257 0
M  V30 2752 C 270.718 3.14511 -1.4731 0
M  V30 2753 C 269.672 3.39677 -2.60391 0
M  V30 2754 C 268.998 4.78159 -2.39308 0
M  V30 2755 C 270.298 3.32772 -4.02567 0
M  V30 2756 H 271.992 1.68501 -2.47483 0
M  V30 2757 H 269.538 0.809237 -1.19111 0
M  V30 2758 H 271.491 3.92878 -1.52397 0
M  V30 2759 H 270.215 3.22783 -0.49785 0
M  V30 2760 H 268.874 2.63688 -2.54684 0
M  V30 2761 H 268.522 4.83128 -1.39988 0
M  V30 2762 H 268.222 4.95956 -3.15122 0
M  V30 2763 H 269.746 5.58762 -2.46205 0
M  V30 2764 H 271.16 4.01051 -4.09672 0
M  V30 2765 H 269.557 3.62104 -4.7854 0
M  V30 2766 H 270.627 2.30669 -4.2652 0
M  V30 2767 N 271.97 1.30982 0.876444 0
M  V30 2768 C 272.917 1.18085 1.98304 0
M  V30 2769 C 273.887 0.0682263 1.6596 0
M  V30 2770 O 275.072 0.239937 1.89285 0
M  V30 2771 C 272.212 0.887475 3.33493 0
M  V30 2772 C 271.325 2.08281 3.78475 0
M  V30 2773 C 270.46 1.72678 5.0235 0
M  V30 2774 C 269.499 2.88657 5.39762 0
M  V30 2775 N 268.636 2.53292 6.54819 0
M  V30 2776 H 273.476 2.1275 2.08666 0
M  V30 2777 H 271.013 1.05839 1.02159 0
M  V30 2778 H 272.971 0.697961 4.1132 0
M  V30 2779 H 271.601 -0.022315 3.22792 0
M  V30 2780 H 270.653 2.3833 2.96484 0
M  V30 2781 H 271.965 2.95108 4.02135 0
M  V30 2782 H 271.119 1.50151 5.87826 0
M  V30 2783 H 269.858 0.830327 4.8058 0
M  V30 2784 H 268.863 3.1184 4.52809 0
M  V30 2785 H 270.088 3.79002 5.63502 0
M  V30 2786 H 268.034 1.66163 6.34607 0
M  V30 2787 H 267.951 3.3365 6.7839 0
M  V30 2788 H 269.219 2.34143 7.43503 0
M  V30 2789 N 273.449 -1.08991 1.13837 0
M  V30 2790 C 274.412 -2.13925 0.822715 0
M  V30 2791 C 275.412 -1.599 -0.1699 0
M  V30 2792 O 276.602 -1.74104 0.0577251 0
M  V30 2793 C 273.734 -3.40155 0.225318 0
M  V30 2794 H 274.927 -2.43358 1.75262 0
M  V30 2795 H 272.48 -1.24603 0.943594 0
M  V30 2796 H 273.215 -3.16352 -0.713594 0
M  V30 2797 H 273 -3.80661 0.940193 0
M  V30 2798 H 274.49 -4.17594 0.0214784 0
M  V30 2799 N 274.927 -0.932562 -1.27047 0
M  V30 2800 C 275.837 -0.441219 -2.30414 0
M  V30 2801 C 276.853 0.480525 -1.67233 0
M  V30 2802 O 278.029 0.362151 -1.98117 0
M  V30 2803 C 275.094 0.293651 -3.45454 0
M  V30 2804 C 274.155 -0.663601 -4.2414 0
M  V30 2805 C 273.388 0.0362932 -5.33688 0
M  V30 2806 O 273.611 1.2548 -5.56427 0
M  V30 2807 O 272.545 -0.638015 -5.98509 0
M  V30 2808 H 276.371 -1.29962 -2.74488 0
M  V30 2809 H 273.956 -0.6981 -1.32087 0
M  V30 2810 H 275.838 0.707951 -4.15411 0
M  V30 2811 H 274.513 1.12758 -3.03426 0
M  V30 2812 H 273.42 -1.12768 -3.56699 0
M  V30 2813 H 274.753 -1.46489 -4.69896 0
M  V30 2814 N 276.405 1.4127 -0.698611 0
M  V30 2815 C 277.654 2.00408 -0.227949 0
M  V30 2816 C 277.967 1.55981 1.18023 0
M  V30 2817 O 279.173 2.07699 1.74852 0
M  V30 2818 C 277.629 3.58129 -0.356636 0
M  V30 2819 C 277.237 4.11536 -1.77037 0
M  V30 2820 C 278.981 4.24466 0.0540969 0
M  V30 2821 C 276.888 5.61701 -1.85055 0
M  V30 2822 H 275.818 0.749586 -0.0814657 0
M  V30 2823 H 278.469 1.61713 -0.867249 0
M  V30 2824 H 276.851 3.94442 0.350965 0
M  V30 2825 H 278.025 3.86636 -2.50698 0
M  V30 2826 H 276.34 3.57736 -2.13105 0
M  V30 2827 H 278.937 5.34698 0.0146723 0
M  V30 2828 H 279.28 4.01687 1.09332 0
M  V30 2829 H 279.813 3.93198 -0.603337 0
M  V30 2830 H 276.552 5.89312 -2.8704 0
M  V30 2831 H 276.072 5.88519 -1.15783 0
M  V30 2832 H 277.751 6.26524 -1.61484 0
M  V30 2833 N 277.883 0.443576 1.51229 0
M  V30 2834 C 278.813 -0.355142 2.30783 0
M  V30 2835 C 279.794 -1.0154 1.36468 0
M  V30 2836 O 280.979 -1.01785 1.65389 0
M  V30 2837 C 278.109 -1.45312 3.15439 0
M  V30 2838 C 277.063 -0.916002 4.18083 0
M  V30 2839 C 276.389 -2.1102 4.91299 0
M  V30 2840 C 277.689 0.0538602 5.22272 0
M  V30 2841 H 279.383 0.308767 2.97804 0
M  V30 2842 H 276.929 0.149937 1.43217 0
M  V30 2843 H 278.882 -2.01914 3.69876 0
M  V30 2844 H 277.606 -2.14541 2.46252 0
M  V30 2845 H 276.265 -0.372145 3.64706 0
M  V30 2846 H 275.913 -2.78882 4.18609 0
M  V30 2847 H 275.613 -1.75717 5.60712 0
M  V30 2848 H 277.137 -2.68164 5.48562 0
M  V30 2849 H 278.551 -0.422069 5.71744 0
M  V30 2850 H 276.948 0.319776 5.99247 0
M  V30 2851 H 278.018 0.98858 4.74716 0
M  V30 2852 N 279.361 -1.56624 0.175154 0
M  V30 2853 C 280.589 -2.01374 -0.474971 0
M  V30 2854 C 281.004 -1.05537 -1.56548 0
M  V30 2855 O 280.361 -0.0568668 -1.82411 0
M  V30 2856 C 280.412 -3.45923 -1.04975 0
M  V30 2857 O 280.133 -4.381 -0.00276605 0
M  V30 2858 C 281.634 -4.06093 -1.77773 0
M  V30 2859 H 278.854 -0.659962 -0.121206 0
M  V30 2860 H 281.398 -2.02601 0.27801 0
M  V30 2861 H 279.553 -3.45458 -1.75321 0
M  V30 2862 H 279.967 -5.22753 -0.427681 0
M  V30 2863 H 281.441 -5.09147 -2.13245 0
M  V30 2864 H 281.918 -3.48405 -2.67414 0
M  V30 2865 H 282.524 -4.10272 -1.12059 0
M  V30 2866 N 280.839 0.0985539 -1.57292 0
M  V30 2867 C 282.079 0.808332 -1.87737 0
M  V30 2868 C 282.443 1.7607 -0.76572 0
M  V30 2869 O 283.644 2.51358 -0.952499 0
M  V30 2870 C 281.915 1.52093 -3.23423 0
M  V30 2871 S 283.474 2.26947 -3.75554 0
M  V30 2872 H 280.292 0.269377 -0.657995 0
M  V30 2873 H 282.894 0.0656269 -1.9539 0
M  V30 2874 H 281.598 0.81363 -4.02254 0
M  V30 2875 H 281.129 2.30361 -3.189 0
M  V30 2876 H 283.144 3.53027 -3.48692 0
M  V30 2877 N 282.317 1.53212 0.369288 0
M  V30 2878 C 283.227 1.82342 1.47609 0
M  V30 2879 C 284.243 0.711532 1.58787 0
M  V30 2880 O 285.419 1.0012 1.74751 0
M  V30 2881 C 282.484 2.00393 2.8292 0
M  V30 2882 C 281.545 3.24297 2.81301 0
M  V30 2883 C 280.778 3.41478 4.10157 0
M  V30 2884 O 281.001 2.63033 5.06132 0
M  V30 2885 O 279.935 4.34817 4.16194 0
M  V30 2886 H 283.761 2.76366 1.25918 0
M  V30 2887 H 281.346 1.38547 0.559034 0
M  V30 2888 H 283.228 2.13859 3.63101 0
M  V30 2889 H 281.903 1.09559 3.04596 0
M  V30 2890 H 280.81 3.16257 1.99831 0
M  V30 2891 H 282.143 4.15041 2.64578 0
M  V30 2892 N 283.795 -0.628877 1.44509 0
M  V30 2893 C 284.745 -1.7345 1.47983 0
M  V30 2894 C 285.729 -1.5715 0.345373 0
M  V30 2895 O 286.921 -1.66848 0.590829 0
M  V30 2896 C 284.05 -3.12143 1.42904 0
M  V30 2897 C 283.136 -3.33906 2.61472 0
M  V30 2898 N 283.527 -3.26024 3.86706 0
M  V30 2899 C 281.825 -3.64709 2.56716 0
M  V30 2900 C 282.526 -3.48536 4.65722 0
M  V30 2901 N 281.502 -3.71517 3.96832 0
M  V30 2902 H 285.304 -1.65818 2.42655 0
M  V30 2903 H 282.818 -0.831419 1.39503 0
M  V30 2904 H 284.815 -3.91433 1.43476 0
M  V30 2905 H 283.475 -3.2094 0.492717 0
M  V30 2906 H 284.486 -3.04893 4.18641 0
M  V30 2907 H 281.163 -3.80473 1.71891 0
M  V30 2908 H 282.553 -3.48016 5.74747 0
M  V30 2909 N 285.273 -1.31445 -0.869486 0
M  V30 2910 C 286.55 -1.11795 -1.60503 0
M  V30 2911 C 286.93 0.327168 -2.08549 0
M  V30 2912 O 286.278 1.32135 -1.8642 0
M  V30 2913 C 286.488 -2.13258 -2.76265 0
M  V30 2914 C 287.836 -2.45805 -3.46215 0
M  V30 2915 O 288.86 -2.11688 -2.86473 0
M  V30 2916 O 287.719 -3.04228 -4.5399 0
M  V30 2917 H 284.813 -0.430421 -0.706163 0
M  V30 2918 H 287.359 -1.42925 -0.914907 0
M  V30 2919 H 286.131 -3.10461 -2.3818 0
M  V30 2920 H 285.754 -1.83035 -3.52964 0
M  V30 2921 N 286.751 1.08385 -1.14413 0
M  V30 2922 C 288 1.80153 -0.907076 0
M  V30 2923 C 288.313 1.87176 0.567851 0
M  V30 2924 O 289.519 2.55359 0.922172 0
M  V30 2925 C 287.975 3.23687 -1.57336 0
M  V30 2926 C 287.583 3.24897 -3.08457 0
M  V30 2927 C 289.327 4.00136 -1.41744 0
M  V30 2928 C 287.234 4.6302 -3.67921 0
M  V30 2929 H 286.164 0.675139 -0.335714 0
M  V30 2930 H 288.815 1.21733 -1.37307 0
M  V30 2931 H 287.197 3.82234 -1.03505 0
M  V30 2932 H 288.371 2.76055 -3.68958 0
M  V30 2933 H 286.686 2.61943 -3.2369 0
M  V30 2934 H 289.283 5.02201 -1.83572 0
M  V30 2935 H 289.626 4.14709 -0.363576 0
M  V30 2936 H 290.159 3.48058 -1.92614 0
M  V30 2937 H 286.898 4.5365 -4.73161 0
M  V30 2938 H 286.418 5.12143 -3.12201 0
M  V30 2939 H 288.097 5.31994 -3.68227 0
M  V30 2940 N 288.23 0.939286 1.26551 0
M  V30 2941 C 289.14 0.453432 2.30176 0
M  V30 2942 C 290.156 -0.471649 1.67486 0
M  V30 2943 O 291.332 -0.35164 1.98306 0
M  V30 2944 C 288.397 -0.275326 3.45605 0
M  V30 2945 C 287.458 0.686084 4.23782 0
M  V30 2946 C 286.691 -0.00798994 5.33699 0
M  V30 2947 O 286.914 -1.22528 5.57085 0
M  V30 2948 O 285.848 0.669746 5.98162 0
M  V30 2949 H 289.674 1.31416 2.73795 0
M  V30 2950 H 287.259 0.705095 1.31715 0
M  V30 2951 H 289.141 -0.685911 4.1578 0
M  V30 2952 H 287.816 -1.11147 3.0402 0
M  V30 2953 H 286.723 1.14658 3.56096 0
M  V30 2954 H 288.056 1.48979 4.69112 0
M  V30 2955 N 289.708 -1.40897 0.706093 0
M  V30 2956 C 290.985 -1.94868 0.169099 0
M  V30 2957 C 291.365 -1.64485 -1.32318 0
M  V30 2958 O 290.713 -0.95744 -2.07474 0
M  V30 2959 C 290.923 -3.45798 0.471654 0
M  V30 2960 C 292.271 -4.22663 0.405127 0
M  V30 2961 O 293.295 -3.53865 0.407168 0
M  V30 2962 O 292.154 -5.45216 0.374383 0
M  V30 2963 H 289.248 -0.82673 0.0211352 0
M  V30 2964 H 291.794 -1.50558 0.782976 0
M  V30 2965 H 290.566 -3.61235 1.50416 0
M  V30 2966 H 290.189 -3.97225 -0.172666 0
M  V30 2967 N 291.186 -0.45159 -1.50991 0
M  V30 2968 C 292.411 0.110667 -2.07105 0
M  V30 2969 C 292.836 1.3446 -1.31538 0
M  V30 2970 O 292.194 1.77743 -0.357365 0
M  V30 2971 C 292.242 0.397238 -3.58405 0
M  V30 2972 O 291.346 1.48124 -3.84881 0
M  V30 2973 H 290.687 -0.00439271 -0.663985 0
M  V30 2974 H 293.217 -0.637026 -1.9443 0
M  V30 2975 H 293.227 0.64351 -4.02893 0
M  V30 2976 H 291.902 -0.504553 -4.12828 0
M  V30 2977 H 290.479 1.22381 -3.52246 0
M  V30 2978 N 292.664 1.56529 -0.183458 0
M  V30 2979 C 293.574 2.22144 0.754272 0
M  V30 2980 C 294.59 1.21684 1.24374 0
M  V30 2981 O 295.766 1.54385 1.29333 0
M  V30 2982 C 292.831 2.85884 1.96141 0
M  V30 2983 C 291.892 4.01579 1.51765 0
M  V30 2984 C 291.125 4.6227 2.66725 0
M  V30 2985 O 291.348 4.21865 3.83909 0
M  V30 2986 O 290.282 5.51936 2.40104 0
M  V30 2987 H 294.108 3.02861 0.225527 0
M  V30 2988 H 291.693 1.49331 0.0453032 0
M  V30 2989 H 293.575 3.26253 2.66715 0
M  V30 2990 H 292.25 2.08154 2.47899 0
M  V30 2991 H 291.157 3.65856 0.781049 0
M  V30 2992 H 292.49 4.80938 1.04686 0
M  V30 2993 N 294.142 -0.090211 1.57342 0
M  V30 2994 C 295.37 -0.806224 1.90546 0
M  V30 2995 C 295.785 -1.72041 0.777644 0
M  V30 2996 O 295.142 -1.80778 -0.250103 0
M  V30 2997 C 295.193 -1.61546 3.23396 0
M  V30 2998 O 294.914 -0.738043 4.31839 0
M  V30 2999 C 296.415 -2.4341 3.70495 0
M  V30 3000 H 293.635 -0.230256 0.630257 0
M  V30 3001 H 296.179 -0.0659843 2.04394 0
M  V30 3002 H 294.334 -2.30816 3.11131 0
M  V30 3003 H 294.748 -1.29901 5.08159 0
M  V30 3004 H 296.222 -2.95676 4.66133 0
M  V30 3005 H 296.699 -3.22098 2.98579 0
M  V30 3006 H 297.305 -1.79331 3.85643 0
M  V30 3007 N 295.62 -1.53406 -0.361157 0
M  V30 3008 C 296.583 -1.79479 -1.42548 0
M  V30 3009 C 297.583 -0.665327 -1.4639 0
M  V30 3010 O 298.773 -0.933549 -1.47073 0
M  V30 3011 C 295.905 -1.92087 -2.8163 0
M  V30 3012 H 297.098 -2.74538 -1.20701 0
M  V30 3013 H 294.651 -1.4455 -0.594546 0
M  V30 3014 H 295.386 -0.991099 -3.08784 0
M  V30 3015 H 295.171 -2.74241 -2.80239 0
M  V30 3016 H 296.661 -2.13836 -3.58697 0
M  V30 3017 N 297.098 0.621204 -1.44841 0
M  V30 3018 C 298.375 1.38 -1.38619 0
M  V30 3019 C 298.755 2.11041 -0.0498935 0
M  V30 3020 O 298.103 2.06992 0.967816 0
M  V30 3021 C 298.313 2.33817 -2.59096 0
M  V30 3022 C 299.661 2.96844 -3.03593 0
M  V30 3023 O 300.685 2.44141 -2.59371 0
M  V30 3024 O 299.544 3.92476 -3.80296 0
M  V30 3025 H 296.638 0.61811 -0.549426 0
M  V30 3026 H 299.184 0.645429 -1.56947 0
M  V30 3027 H 297.956 1.79012 -3.47952 0
M  V30 3028 H 297.579 3.14676 -2.43032 0
M  V30 3029 N 298.576 1.31904 0.862503 0
M  V30 3030 C 299.506 1.22782 1.98612 0
M  V30 3031 C 300.487 0.113362 1.69722 0
M  V30 3032 O 301.672 0.299218 1.91881 0
M  V30 3033 C 298.802 0.942058 3.34279 0
M  V30 3034 C 297.756 2.0169 3.77499 0
M  V30 3035 C 297.082 1.58369 5.10709 0
M  V30 3036 C 298.382 3.43096 3.93805 0
M  V30 3037 H 300.076 2.16788 2.06502 0
M  V30 3038 H 297.622 1.04366 0.992154 0
M  V30 3039 H 299.575 0.864818 4.1243 0
M  V30 3040 H 298.299 -0.0336603 3.26583 0
M  V30 3041 H 296.958 2.08416 3.01593 0
M  V30 3042 H 296.606 0.595628 4.99461 0
M  V30 3043 H 296.306 2.30279 5.40597 0
M  V30 3044 H 297.83 1.52067 5.91361 0
M  V30 3045 H 299.244 3.39003 4.62331 0
M  V30 3046 H 297.641 4.13288 4.35101 0
M  V30 3047 H 298.711 3.83334 2.96957 0
M  V30 3048 N 300.054 -1.07777 1.14986 0
M  V30 3049 C 301.001 -2.14867 0.842672 0
M  V30 3050 C 301.971 -1.6486 -0.202552 0
M  V30 3051 O 303.156 -1.90668 -0.0710568 0
M  V30 3052 C 300.296 -3.43486 0.333363 0
M  V30 3053 C 299.409 -4.07306 1.43965 0
M  V30 3054 C 298.544 -5.23744 0.886914 0
M  V30 3055 C 297.583 -5.79517 1.97043 0
M  V30 3056 N 296.72 -6.87291 1.4344 0
M  V30 3057 H 301.56 -2.40485 1.75986 0
M  V30 3058 H 299.097 -1.1801 0.878179 0
M  V30 3059 H 301.055 -4.17195 0.0198163 0
M  V30 3060 H 299.685 -3.18133 -0.546916 0
M  V30 3061 H 298.737 -3.31293 1.86946 0
M  V30 3062 H 300.049 -4.44771 2.25788 0
M  V30 3063 H 299.203 -6.04419 0.525651 0
M  V30 3064 H 297.942 -4.87685 0.0377957 0
M  V30 3065 H 296.947 -4.97491 2.34057 0
M  V30 3066 H 298.172 -6.17632 2.82325 0
M  V30 3067 H 296.118 -6.5318 0.607567 0
M  V30 3068 H 296.035 -7.23617 2.18895 0
M  V30 3069 H 297.303 -7.71682 1.10124 0
M  V30 3070 N 301.532 -0.945985 -1.26051 0
M  V30 3071 C 302.757 -0.612525 -1.98149 0
M  V30 3072 C 303.182 0.806623 -1.69927 0
M  V30 3073 O 302.54 1.54411 -0.950108 0
M  V30 3074 C 302.588 -0.866981 -3.50023 0
M  V30 3075 O 301.692 0.0585333 -4.12358 0
M  V30 3076 H 301.033 -0.23379 -0.621481 0
M  V30 3077 H 303.563 -1.27023 -1.60395 0
M  V30 3078 H 303.573 -0.789792 -4.00283 0
M  V30 3079 H 302.248 -1.90135 -3.69894 0
M  V30 3080 H 300.825 -0.0701241 -3.72834 0
M  V30 3081 N 303.011 1.40521 -0.713556 0
M  V30 3082 C 303.941 2.33381 -0.0743864 0
M  V30 3083 C 304.922 1.52784 0.747735 0
M  V30 3084 O 306.107 1.81258 0.697071 0
M  V30 3085 C 303.237 3.36748 0.849598 0
M  V30 3086 C 302.191 4.27793 0.133247 0
M  V30 3087 C 301.517 5.21679 1.17281 0
M  V30 3088 C 302.817 5.12415 -1.01134 0
M  V30 3089 H 304.511 2.87081 -0.850007 0
M  V30 3090 H 302.057 1.38034 -0.410201 0
M  V30 3091 H 304.01 4.00648 1.30612 0
M  V30 3092 H 302.734 2.81439 1.65709 0
M  V30 3093 H 301.393 3.65342 -0.303426 0
M  V30 3094 H 301.041 4.62677 1.9733 0
M  V30 3095 H 300.741 5.83435 0.698397 0
M  V30 3096 H 302.265 5.88456 1.62947 0
M  V30 3097 H 303.679 5.69781 -0.634274 0
M  V30 3098 H 302.076 5.83203 -1.41399 0
M  V30 3099 H 303.146 4.48514 -1.84292 0
M  V30 3100 N 304.489 0.459591 1.5075 0
M  V30 3101 C 305.452 -0.329093 2.26825 0
M  V30 3102 C 306.452 -0.930481 1.31144 0
M  V30 3103 O 307.642 -0.801453 1.54669 0
M  V30 3104 C 304.774 -1.46768 3.07688 0
M  V30 3105 H 305.967 0.337924 2.9799 0
M  V30 3106 H 303.52 0.213336 1.54837 0
M  V30 3107 H 304.255 -2.17009 2.40993 0
M  V30 3108 H 304.04 -1.04238 3.77991 0
M  V30 3109 H 305.53 -2.02433 3.65254 0
M  V30 3110 N 305.967 -1.56429 0.191757 0
M  V30 3111 C 306.914 -2.18936 -0.730454 0
M  V30 3112 C 307.884 -1.13557 -1.21219 0
M  V30 3113 O 309.069 -1.41794 -1.27668 0
M  V30 3114 C 306.209 -2.85013 -1.9458 0
M  V30 3115 C 305.322 -4.04909 -1.50574 0
M  V30 3116 C 304.457 -4.58853 -2.67634 0
M  V30 3117 C 303.496 -5.71114 -2.20217 0
M  V30 3118 N 302.633 -6.19478 -3.30442 0
M  V30 3119 H 307.473 -2.97389 -0.190664 0
M  V30 3120 H 305.01 -1.46869 -0.0823694 0
M  V30 3121 H 306.968 -3.21492 -2.65893 0
M  V30 3122 H 305.598 -2.09129 -2.45896 0
M  V30 3123 H 304.65 -3.74115 -0.688605 0
M  V30 3124 H 305.962 -4.86113 -1.11784 0
M  V30 3125 H 305.116 -4.97619 -3.47074 0
M  V30 3126 H 303.855 -3.76749 -3.09696 0
M  V30 3127 H 302.86 -5.31879 -1.3923 0
M  V30 3128 H 304.085 -6.55033 -1.79189 0
M  V30 3129 H 302.031 -5.40297 -3.72041 0
M  V30 3130 H 301.948 -6.95725 -2.9581 0
M  V30 3131 H 303.216 -6.62898 -4.10106 0
M  V30 3132 N 307.445 0.0818655 -1.57387 0
M  V30 3133 C 308.861 0.436412 -1.53517 0
M  V30 3134 C 309.061 1.79758 -0.910459 0
M  V30 3135 O 308.117 2.47324 -0.508636 0
M  V30 3136 C 309.43 0.386734 -2.98203 0
M  V30 3137 C 310.978 0.467644 -3.09487 0
M  V30 3138 C 311.453 0.447978 -4.55804 0
M  V30 3139 N 312.944 0.508348 -4.60402 0
M  V30 3140 C 313.679 0.515184 -5.71081 0
M  V30 3141 N 313.175 0.477435 -6.91153 0
M  V30 3142 N 314.968 0.560988 -5.59294 0
M  V30 3143 H 307.119 -0.809546 -1.96367 0
M  V30 3144 H 309.382 -0.302733 -0.898363 0
M  V30 3145 H 309.088 -0.546539 -3.47427 0
M  V30 3146 H 308.962 1.20075 -3.57578 0
M  V30 3147 H 311.349 1.39134 -2.60242 0
M  V30 3148 H 311.43 -0.374753 -2.5304 0
M  V30 3149 H 311.074 -0.471826 -5.05704 0
M  V30 3150 H 311.004 1.30777 -5.10103 0
M  V30 3151 H 313.495 0.54218 -3.7399 0
M  V30 3152 H 313.808 0.486299 -7.71268 0
M  V30 3153 H 312.153 0.444278 -6.93579 0
M  V30 3154 H 315.344 0.5881 -4.64391 0
M  V30 3155 H 315.517 0.562846 -6.45551 0
M  V30 3156 N 308.923 1.53595 0.353017 0
M  V30 3157 C 310.172 1.69603 1.09168 0
M  V30 3158 C 310.485 0.460925 1.90092 0
M  V30 3159 O 311.691 0.501774 2.66823 0
M  V30 3160 C 310.147 2.99872 1.9901 0
M  V30 3161 C 309.755 4.30687 1.23339 0
M  V30 3162 C 311.499 3.25246 2.72792 0
M  V30 3163 C 309.406 5.52036 2.12156 0
M  V30 3164 H 308.336 0.631966 0.411261 0
M  V30 3165 H 310.987 1.80096 0.351802 0
M  V30 3166 H 309.369 2.83212 2.7678 0
M  V30 3167 H 310.543 4.58019 0.505456 0
M  V30 3168 H 308.858 4.11853 0.613663 0
M  V30 3169 H 311.455 4.13095 3.39495 0
M  V30 3170 H 311.798 2.41846 3.38846 0
M  V30 3171 H 312.331 3.42638 2.021 0
M  V30 3172 H 309.07 6.37951 1.50659 0
M  V30 3173 H 308.59 5.28966 2.82764 0
M  V30 3174 H 310.269 5.87313 2.71427 0
M  V30 3175 N 310.401 -0.613514 1.45168 0
M  V30 3176 C 311.631 -1.39743 1.52169 0
M  V30 3177 C 312.039 -1.88596 0.151086 0
M  V30 3178 O 311.382 -1.6251 -0.856521 0
M  V30 3179 C 311.444 -2.64035 2.43979 0
M  V30 3180 C 311.108 -2.36861 3.90827 0
M  V30 3181 C 312.105 -1.97591 4.80889 0
M  V30 3182 C 309.79 -2.49956 4.35692 0
M  V30 3183 C 311.784 -1.71768 6.1382 0
M  V30 3184 C 309.471 -2.23747 5.68665 0
M  V30 3185 C 310.469 -1.84714 6.57548 0
M  V30 3186 O 310.157 -1.58809 7.88058 0
M  V30 3187 H 309.889 -0.434382 0.517966 0
M  V30 3188 H 312.443 -0.75587 1.90986 0
M  V30 3189 H 310.673 -3.3089 2.00122 0
M  V30 3190 H 312.362 -3.26069 2.41731 0
M  V30 3191 H 313.128 -1.87015 4.47493 0
M  V30 3192 H 309.007 -2.79305 3.66756 0
M  V30 3193 H 312.551 -1.41227 6.83155 0
M  V30 3194 H 308.448 -2.33938 6.01617 0
M  V30 3195 H 309.216 -1.7291 8.00028 0
M  V30 3196 N 311.879 -1.3236 -0.855495 0
M  V30 3197 C 312.789 -1.23221 -1.99634 0
M  V30 3198 C 313.805 -0.145983 -1.73387 0
M  V30 3199 O 314.981 -0.366502 -1.98037 0
M  V30 3200 C 312.046 -0.954782 -3.33294 0
M  V30 3201 C 311.107 -2.12937 -3.72769 0
M  V30 3202 C 310.34 -1.86508 -5.00051 0
M  V30 3203 O 310.563 -0.807231 -5.64659 0
M  V30 3204 O 309.497 -2.72591 -5.36636 0
M  V30 3205 H 313.323 -2.19126 -2.1028 0
M  V30 3206 H 310.908 -1.12241 -0.986018 0
M  V30 3207 H 312.79 -0.816519 -4.13414 0
M  V30 3208 H 311.465 -0.0258854 -3.2369 0
M  V30 3209 H 310.372 -2.3231 -2.93228 0
M  V30 3210 H 311.705 -3.04102 -3.87018 0
M  V30 3211 N 313.357 1.07166 -1.15556 0
M  V30 3212 C 314.32 2.12589 -0.856644 0
M  V30 3213 C 315.32 1.6015 0.14444 0
M  V30 3214 O 316.51 1.7399 -0.0854163 0
M  V30 3215 C 313.642 3.39753 -0.279405 0
M  V30 3216 H 314.835 2.40539 -1.79112 0
M  V30 3217 H 312.388 1.23086 -0.963298 0
M  V30 3218 H 313.123 3.17447 0.663174 0
M  V30 3219 H 312.908 3.79117 -1.00063 0
M  V30 3220 H 314.398 4.17507 -0.0879113 0
M  V30 3221 N 314.835 0.952656 1.25548 0
M  V30 3222 C 316.065 0.622592 1.96996 0
M  V30 3223 C 316.473 -0.809112 1.71026 0
M  V30 3224 O 315.816 -1.55258 0.981861 0
M  V30 3225 C 315.878 0.798946 3.5051 0
M  V30 3226 C 315.542 2.20744 4.00151 0
M  V30 3227 C 316.539 3.18394 4.11001 0
M  V30 3228 C 314.224 2.5311 4.33867 0
M  V30 3229 C 316.218 4.46504 4.54877 0
M  V30 3230 C 313.905 3.8145 4.7743 0
M  V30 3231 C 314.903 4.77959 4.87897 0
M  V30 3232 O 314.591 6.04012 5.30494 0
M  V30 3233 H 314.323 0.232503 0.634758 0
M  V30 3234 H 316.877 1.2789 1.60728 0
M  V30 3235 H 315.107 0.0854903 3.86605 0
M  V30 3236 H 316.796 0.47023 4.03167 0
M  V30 3237 H 317.562 2.94715 3.85186 0
M  V30 3238 H 313.441 1.78719 4.24948 0
M  V30 3239 H 316.985 5.21835 4.62962 0
M  V30 3240 H 312.882 4.04936 5.0269 0
M  V30 3241 H 313.65 6.0736 5.48685 0
M  V30 3242 N 316.313 -1.40141 0.720998 0
M  V30 3243 C 317.243 -2.33339 0.0867621 0
M  V30 3244 C 318.224 -1.53178 -0.739622 0
M  V30 3245 O 319.409 -1.81625 -0.687449 0
M  V30 3246 C 316.539 -3.37194 -0.831728 0
M  V30 3247 C 315.493 -4.27857 -0.110558 0
M  V30 3248 C 314.819 -5.22294 -1.14513 0
M  V30 3249 C 316.119 -5.11872 1.0385 0
M  V30 3250 H 317.813 -2.86626 0.865219 0
M  V30 3251 H 315.359 -1.37814 0.417516 0
M  V30 3252 H 317.312 -4.01335 -1.28485 0
M  V30 3253 H 316.036 -2.82314 -1.64214 0
M  V30 3254 H 314.695 -3.65176 0.322797 0
M  V30 3255 H 314.343 -4.63717 -1.94874 0
M  V30 3256 H 314.043 -5.83797 -0.667446 0
M  V30 3257 H 315.567 -5.89312 -1.59824 0
M  V30 3258 H 316.981 -5.69436 0.664482 0
M  V30 3259 H 315.378 -5.82445 1.4449 0
M  V30 3260 H 316.448 -4.4753 1.86668 0
M  V30 3261 N 317.792 -0.46758 -1.50504 0
M  V30 3262 C 318.739 0.328413 -2.28452 0
M  V30 3263 C 319.709 0.990313 -1.33349 0
M  V30 3264 O 320.894 1.00343 -1.62284 0
M  V30 3265 C 318.034 1.40648 -3.15138 0
M  V30 3266 C 317.147 0.759709 -4.25267 0
M  V30 3267 C 316.282 1.81537 -4.99217 0
M  V30 3268 C 315.321 1.14866 -6.01226 0
M  V30 3269 N 314.458 2.14702 -6.68467 0
M  V30 3270 H 319.298 -0.342603 -2.96024 0
M  V30 3271 H 316.835 -0.180801 -1.45985 0
M  V30 3272 H 318.793 2.04315 -3.63746 0
M  V30 3273 H 317.423 2.04671 -2.49619 0
M  V30 3274 H 316.475 0.0105671 -3.80399 0
M  V30 3275 H 317.787 0.233243 -4.98254 0
M  V30 3276 H 316.941 2.52793 -5.51526 0
M  V30 3277 H 315.68 2.37564 -4.25928 0
M  V30 3278 H 314.685 0.42171 -5.4818 0
M  V30 3279 H 315.91 0.595334 -6.76485 0
M  V30 3280 H 313.856 2.69752 -5.97972 0
M  V30 3281 H 313.773 1.6703 -7.37317 0
M  V30 3282 H 315.041 2.85348 -7.25394 0
M  V30 3283 N 319.27 1.56325 -0.20005 0
M  V30 3284 C 320.218 2.20666 0.735482 0
M  V30 3285 C 321.212 1.17934 1.21605 0
M  V30 3286 O 322.418 1.36068 1.17837 0
M  V30 3287 H 318.793 0.70725 0.255542 0
M  V30 3288 H 320.764 2.9792 0.169166 0
M  V30 3289 C 319.513 2.88391 1.94232 0
M  V30 3290 H 318.836 3.67185 1.58161 0
M  V30 3291 H 320.276 3.3684 2.57517 0
M  V30 3292 C 318.735 1.89692 2.78421 0
M  V30 3293 O 319.265 1.40032 3.76502 0
M  V30 3294 N 317.471 1.57813 2.44015 0
M  V30 3295 H 317.018 1.9839 1.64314 0
M  V30 3296 H 316.976 0.920325 3.00628 0
M  V30 3297 N 320.748 -0.0735177 1.57428 0
M  V30 3298 C 321.995 -0.772999 1.87166 0
M  V30 3299 C 322.323 -1.77665 0.791551 0
M  V30 3300 O 321.578 -1.94541 -0.212636 0
M  V30 3301 C 321.877 -1.51799 3.23561 0
M  V30 3302 C 321.543 -0.654484 4.46125 0
M  V30 3303 C 320.205 -0.416511 4.79394 0
M  V30 3304 C 322.557 -0.0555862 5.2117 0
M  V30 3305 C 319.885 0.429869 5.85123 0
M  V30 3306 C 322.237 0.778239 6.27795 0
M  V30 3307 C 320.901 1.0261 6.59566 0
M  V30 3308 H 320.171 -0.282861 0.684888 0
M  V30 3309 H 322.818 -0.0338272 1.9147 0
M  V30 3310 H 321.123 -2.32932 3.1504 0
M  V30 3311 H 322.82 -2.06397 3.43804 0
M  V30 3312 H 319.41 -0.850091 4.20085 0
M  V30 3313 H 323.594 -0.226558 4.95783 0
M  V30 3314 H 318.85 0.630665 6.08139 0
M  V30 3315 H 323.024 1.24906 6.85107 0
M  V30 3316 H 320.651 1.68371 7.4132 0
M  V30 3317 N 322.226 -1.5378 -0.344866 0
M  V30 3318 C 323.174 -1.82373 -1.4437 0
M  V30 3319 C 324.168 -0.694128 -1.54526 0
M  V30 3320 O 325.374 -0.877442 -1.57165 0
M  V30 3321 H 321.749 -0.577765 -0.481344 0
M  V30 3322 H 323.72 -2.74306 -1.17468 0
M  V30 3323 C 322.469 -2.04898 -2.80913 0
M  V30 3324 H 321.792 -2.9127 -2.73865 0
M  V30 3325 H 323.232 -2.28871 -3.56923 0
M  V30 3326 C 321.691 -0.834116 -3.26411 0
M  V30 3327 O 322.221 -0.0328885 -4.01687 0
M  V30 3328 N 320.427 -0.65171 -2.83198 0
M  V30 3329 H 319.974 -1.30489 -2.22104 0
M  V30 3330 H 319.932 0.159686 -3.13994 0
M  V30 3331 N 323.704 0.605807 -1.45491 0
M  V30 3332 C 324.637 1.73022 -1.48791 0
M  V30 3333 C 325.615 1.58917 -0.344112 0
M  V30 3334 O 326.799 1.80453 -0.544876 0
M  V30 3335 C 323.926 3.10865 -1.34463 0
M  V30 3336 C 322.972 3.43554 -2.5273 0
M  V30 3337 S 323.805 3.38196 -4.15191 0
M  V30 3338 C 324.961 4.78616 -4.03333 0
M  V30 3339 H 325.194 1.69961 -2.43928 0
M  V30 3340 H 322.727 0.782611 -1.33096 0
M  V30 3341 H 324.685 3.90398 -1.26884 0
M  V30 3342 H 323.346 3.1144 -0.40794 0
M  V30 3343 H 322.539 4.43924 -2.38637 0
M  V30 3344 H 322.141 2.71541 -2.5718 0
M  V30 3345 H 324.433 5.68463 -3.68587 0
M  V30 3346 H 325.376 4.97767 -5.03621 0
M  V30 3347 H 325.784 4.54381 -3.34959 0
M  V30 3348 N 325.182 1.32811 0.848464 0
M  V30 3349 C 326.13 1.22231 1.97895 0
M  V30 3350 C 327.124 0.125749 1.68933 0
M  V30 3351 O 328.33 0.289083 1.77663 0
M  V30 3352 H 324.705 0.379058 0.649476 0
M  V30 3353 H 326.676 2.17828 2.03945 0
M  V30 3354 C 325.425 0.968572 3.33937 0
M  V30 3355 H 324.748 1.80458 3.56756 0
M  V30 3356 H 326.188 0.934808 4.13567 0
M  V30 3357 C 324.647 -0.328628 3.35293 0
M  V30 3358 O 325.177 -1.33848 3.78745 0
M  V30 3359 N 323.383 -0.352788 2.88451 0
M  V30 3360 H 322.93 0.469541 2.53285 0
M  V30 3361 H 322.888 -1.22057 2.89741 0
M  V30 3362 N 326.66 -1.06551 1.16123 0
M  V30 3363 C 327.607 -2.13961 0.865414 0
M  V30 3364 C 328.577 -1.65066 -0.185055 0
M  V30 3365 O 329.762 -1.90732 -0.05083 0
M  V30 3366 C 326.902 -3.43113 0.369776 0
M  V30 3367 C 326.015 -4.05756 1.48276 0
M  V30 3368 C 325.15 -5.22773 0.942414 0
M  V30 3369 C 324.189 -5.77395 2.03179 0
M  V30 3370 N 323.326 -6.85731 1.50721 0
M  V30 3371 H 328.166 -2.38605 1.78527 0
M  V30 3372 H 325.703 -1.17072 0.890646 0
M  V30 3373 H 327.661 -4.17151 0.0640643 0
M  V30 3374 H 326.291 -3.18695 -0.513143 0
M  V30 3375 H 325.343 -3.29292 1.9045 0
M  V30 3376 H 326.655 -4.42351 2.30493 0
M  V30 3377 H 325.809 -6.03827 0.589729 0
M  V30 3378 H 324.548 -4.87618 0.0895191 0
M  V30 3379 H 323.553 -4.94981 2.3932 0
M  V30 3380 H 324.778 -6.14603 2.8886 0
M  V30 3381 H 322.724 -6.52499 0.676811 0
M  V30 3382 H 322.641 -7.21254 2.26557 0
M  V30 3383 H 323.909 -7.7047 1.18303 0
M  V30 3384 N 328.138 -0.959301 -1.25041 0
M  V30 3385 C 329.384 -0.617525 -1.9317 0
M  V30 3386 C 329.717 0.843981 -1.74902 0
M  V30 3387 O 328.992 1.60615 -1.09696 0
M  V30 3388 C 329.275 -0.982736 -3.46431 0
M  V30 3389 C 329.128 -2.50032 -3.73904 0
M  V30 3390 C 330.447 -0.511176 -4.37121 0
M  V30 3391 H 327.566 -0.22582 -0.701552 0
M  V30 3392 H 330.208 -1.19679 -1.4757 0
M  V30 3393 H 328.358 -0.489806 -3.854 0
M  V30 3394 H 330.03 -3.06737 -3.44544 0
M  V30 3395 H 328.273 -2.93598 -3.19348 0
M  V30 3396 H 328.944 -2.70635 -4.81103 0
M  V30 3397 H 331.42 -0.934075 -4.0548 0
M  V30 3398 H 330.296 -0.795361 -5.43107 0
M  V30 3399 H 330.557 0.588834 -4.38161 0
M  V30 3400 N 329.616 1.39756 -0.72842 0
M  V30 3401 C 330.563 2.30647 -0.0841519 0
M  V30 3402 C 331.533 1.48869 0.7367 0
M  V30 3403 O 332.718 1.77574 0.698015 0
M  V30 3404 C 329.858 3.35165 0.822091 0
M  V30 3405 C 328.971 4.31999 -0.0106663 0
M  V30 3406 C 328.106 5.23585 0.896241 0
M  V30 3407 C 327.145 6.12072 0.0583381 0
M  V30 3408 N 326.282 6.96035 0.920818 0
M  V30 3409 H 331.122 2.85173 -0.864891 0
M  V30 3410 H 328.659 1.40422 -0.438179 0
M  V30 3411 H 330.617 3.94345 1.36189 0
M  V30 3412 H 329.247 2.8211 1.56888 0
M  V30 3413 H 328.299 3.74492 -0.66781 0
M  V30 3414 H 329.611 4.9443 -0.658825 0
M  V30 3415 H 328.765 5.87759 1.50412 0
M  V30 3416 H 327.504 4.61459 1.57819 0
M  V30 3417 H 326.509 5.46916 -0.562389 0
M  V30 3418 H 327.734 6.76261 -0.6203 0
M  V30 3419 H 325.68 6.36485 1.58818 0
M  V30 3420 H 325.597 7.55284 0.32899 0
M  V30 3421 H 326.865 7.64646 1.51447 0
M  V30 3422 N 331.094 0.475555 1.50254 0
M  V30 3423 C 332.057 -0.305016 2.27161 0
M  V30 3424 C 333.057 -0.916519 1.32123 0
M  V30 3425 O 334.247 -0.785003 1.5551 0
M  V30 3426 C 331.379 -1.43496 3.09227 0
M  V30 3427 H 332.572 0.369511 2.97615 0
M  V30 3428 H 330.125 0.229747 1.54602 0
M  V30 3429 H 330.86 -2.14441 2.43281 0
M  V30 3430 H 330.645 -1.00223 3.79075 0
M  V30 3431 H 332.135 -1.98548 3.67381 0
M  V30 3432 N 332.573 -1.56217 0.208337 0
M  V30 3433 C 333.989 -1.58919 -0.14729 0
M  V30 3434 C 334.189 -1.22486 -1.59998 0
M  V30 3435 O 333.245 -0.953849 -2.3379 0
M  V30 3436 C 334.558 -3.00236 0.167048 0
M  V30 3437 C 336.106 -3.12813 0.108219 0
M  V30 3438 C 336.581 -4.56284 0.396049 0
M  V30 3439 N 338.072 -4.61912 0.345142 0
M  V30 3440 C 338.807 -5.70837 0.541523 0
M  V30 3441 N 338.303 -6.88178 0.798968 0
M  V30 3442 N 340.096 -5.60091 0.474867 0
M  V30 3443 H 332.247 -1.78177 1.15614 0
M  V30 3444 H 334.51 -0.827555 0.462446 0
M  V30 3445 H 334.216 -3.31499 1.1748 0
M  V30 3446 H 334.09 -3.7354 -0.524184 0
M  V30 3447 H 336.477 -2.81354 -0.890157 0
M  V30 3448 H 336.558 -2.41866 0.832729 0
M  V30 3449 H 336.202 -4.88458 1.3918 0
M  V30 3450 H 336.132 -5.25439 -0.349502 0
M  V30 3451 H 338.623 -3.77589 0.153316 0
M  V30 3452 H 338.936 -7.67095 0.93727 0
M  V30 3453 H 337.281 -6.89953 0.836013 0
M  V30 3454 H 340.472 -4.67297 0.274064 0
M  V30 3455 H 340.645 -6.44917 0.631326 0
M  V30 3456 N 334.051 0.0651679 -1.57465 0
M  V30 3457 C 335.297 0.764193 -1.87851 0
M  V30 3458 C 335.63 1.76889 -0.801495 0
M  V30 3459 O 334.905 1.93594 0.187528 0
M  V30 3460 C 335.188 1.46625 -3.28897 0
M  V30 3461 C 335.041 0.477515 -4.47258 0
M  V30 3462 C 336.36 2.4095 -3.68281 0
M  V30 3463 H 333.479 0.276351 -0.683227 0
M  V30 3464 H 336.121 0.0272868 -1.8998 0
M  V30 3465 H 334.271 2.09438 -3.27212 0
M  V30 3466 H 335.943 -0.145922 -4.61069 0
M  V30 3467 H 334.186 -0.206576 -4.33308 0
M  V30 3468 H 334.857 1.0065 -5.42746 0
M  V30 3469 H 337.333 1.88209 -3.71102 0
M  V30 3470 H 336.209 2.87072 -4.67847 0
M  V30 3471 H 336.47 3.26049 -2.98571 0
M  V30 3472 N 335.529 1.53961 0.336706 0
M  V30 3473 C 336.778 1.70751 1.07363 0
M  V30 3474 C 337.091 0.481061 1.89592 0
M  V30 3475 O 338.297 0.530046 2.66276 0
M  V30 3476 C 336.753 3.01965 1.95818 0
M  V30 3477 C 336.361 4.31971 1.18764 0
M  V30 3478 C 338.105 3.28121 2.69327 0
M  V30 3479 C 336.012 5.54255 2.06289 0
M  V30 3480 H 334.942 0.636292 0.404535 0
M  V30 3481 H 337.593 1.80459 0.332681 0
M  V30 3482 H 335.975 2.86132 2.7376 0
M  V30 3483 H 337.149 4.5853 0.456849 0
M  V30 3484 H 335.464 4.12481 0.569946 0
M  V30 3485 H 338.061 4.16673 3.35094 0
M  V30 3486 H 338.404 2.45426 3.36261 0
M  V30 3487 H 338.937 3.44762 1.98454 0
M  V30 3488 H 335.676 6.39513 1.43885 0
M  V30 3489 H 335.196 5.31935 2.77138 0
M  V30 3490 H 336.875 5.90159 2.65182 0
M  V30 3491 N 337.007 -0.598083 1.45811 0
M  V30 3492 C 337.937 -1.71873 1.58057 0
M  V30 3493 C 338.918 -1.64533 0.431615 0
M  V30 3494 O 340.103 -1.82787 0.65595 0
M  V30 3495 C 337.233 -3.10495 1.55597 0
M  V30 3496 C 336.187 -3.32654 2.69305 0
M  V30 3497 C 335.513 -4.71646 2.51902 0
M  V30 3498 C 336.813 -3.21981 4.11248 0
M  V30 3499 H 338.507 -1.61881 2.51863 0
M  V30 3500 H 336.053 -0.777372 1.21214 0
M  V30 3501 H 338.006 -3.88699 1.6276 0
M  V30 3502 H 336.73 -3.2135 0.583255 0
M  V30 3503 H 335.389 -2.56843 2.61586 0
M  V30 3504 H 335.037 -4.79246 1.52748 0
M  V30 3505 H 334.737 -4.87426 3.2816 0
M  V30 3506 H 336.261 -5.52038 2.60933 0
M  V30 3507 H 337.675 -3.90049 4.20161 0
M  V30 3508 H 336.072 -3.49289 4.87972 0
M  V30 3509 H 337.142 -2.1928 4.32486 0
M  V30 3510 N 338.485 -1.33259 -0.841409 0
M  V30 3511 C 339.71 -1.2775 -1.63385 0
M  V30 3512 C 340.135 0.149188 -1.87507 0
M  V30 3513 O 339.493 1.10498 -1.43736 0
M  V30 3514 C 339.541 -2.05571 -2.96265 0
M  V30 3515 O 338.645 -1.41257 -3.87453 0
M  V30 3516 H 337.986 -0.439627 -0.497618 0
M  V30 3517 H 340.516 -1.75782 -1.04699 0
M  V30 3518 H 340.526 -2.16241 -3.45982 0
M  V30 3519 H 339.201 -3.09309 -2.7803 0
M  V30 3520 H 337.778 -1.39217 -3.45938 0
M  V30 3521 N 339.963 1.05934 -1.16686 0
M  V30 3522 C 341.211 1.78447 -0.948744 0
M  V30 3523 C 341.532 1.87813 0.524523 0
M  V30 3524 O 340.802 1.38945 1.38098 0
M  V30 3525 H 339.382 0.660971 -0.348033 0
M  V30 3526 H 342.044 1.27947 -1.47022 0
M  V30 3527 H 341.14 2.80394 -1.37061 0
M  V30 3528 N 341.441 0.965919 1.2453 0
M  V30 3529 C 342.388 0.49402 2.25451 0
M  V30 3530 C 343.358 -0.45948 1.59618 0
M  V30 3531 O 344.543 -0.370238 1.87173 0
M  V30 3532 C 341.683 -0.211359 3.44452 0
M  V30 3533 C 340.796 0.7807 4.24887 0
M  V30 3534 C 339.931 0.0516105 5.31175 0
M  V30 3535 C 338.97 1.03385 6.03306 0
M  V30 3536 N 338.107 0.334887 7.01301 0
M  V30 3537 H 342.947 1.35946 2.65184 0
M  V30 3538 H 340.484 0.681515 1.3036 0
M  V30 3539 H 342.442 -0.637 4.12308 0
M  V30 3540 H 341.072 -1.04077 3.05562 0
M  V30 3541 H 340.124 1.32479 3.56586 0
M  V30 3542 H 341.436 1.52978 4.74762 0
M  V30 3543 H 340.59 -0.432114 6.05159 0
M  V30 3544 H 339.329 -0.730179 4.82203 0
M  V30 3545 H 338.334 1.52847 5.28127 0
M  V30 3546 H 339.559 1.81606 6.54367 0
M  V30 3547 H 337.505 -0.427959 6.54603 0
M  V30 3548 H 337.422 1.02287 7.49048 0
M  V30 3549 H 338.69 -0.126928 7.79397 0
M  V30 3550 N 342.919 -1.39368 0.735821 0
M  V30 3551 C 343.882 -2.2896 0.104874 0
M  V30 3552 C 344.882 -1.46347 -0.666274 0
M  V30 3553 O 346.072 -1.67014 -0.49517 0
M  V30 3554 C 343.204 -3.29857 -0.860656 0
M  V30 3555 H 344.397 -2.86259 0.894205 0
M  V30 3556 H 341.95 -1.48029 0.501704 0
M  V30 3557 H 342.685 -2.77615 -1.67631 0
M  V30 3558 H 342.47 -3.9087 -0.310327 0
M  V30 3559 H 343.96 -3.96893 -1.29867 0
M  V30 3560 N 344.397 -0.483516 -1.5 0
M  V30 3561 C 345.622 0.0667119 -2.07293 0
M  V30 3562 C 346.047 1.3164 -1.3436 0
M  V30 3563 O 345.405 1.76945 -0.394987 0
M  V30 3564 C 345.453 0.321126 -3.59167 0
M  V30 3565 O 344.557 1.39927 -3.87936 0
M  V30 3566 H 343.898 -0.0184758 -0.663743 0
M  V30 3567 H 346.428 -0.678125 -1.93035 0
M  V30 3568 H 346.438 0.557906 -4.04168 0
M  V30 3569 H 345.113 -0.592007 -4.11665 0
M  V30 3570 H 343.69 1.14882 -3.54763 0
M  V30 3571 N 345.875 1.56104 -0.216619 0
M  V30 3572 C 346.823 2.21434 0.712036 0
M  V30 3573 C 347.817 1.19218 1.20348 0
M  V30 3574 O 349.023 1.3731 1.16387 0
M  V30 3575 H 345.398 0.70992 0.248026 0
M  V30 3576 H 347.369 2.98083 0.137558 0
M  V30 3577 C 346.118 2.90434 1.91163 0
M  V30 3578 H 345.441 3.68842 1.54258 0
M  V30 3579 H 346.881 3.39552 2.5393 0
M  V30 3580 C 345.34 1.92635 2.76394 0
M  V30 3581 O 345.87 1.44017 3.74996 0
M  V30 3582 N 344.076 1.60392 2.42328 0
M  V30 3583 H 343.623 2.00122 1.622 0
M  V30 3584 H 343.581 0.952159 2.99635 0
M  V30 3585 N 347.353 -0.0568162 1.57498 0
M  V30 3586 C 348.301 -1.08452 2.05769 0
M  V30 3587 C 349.295 -1.39164 0.965903 0
M  V30 3588 O 350.501 -1.38395 1.15095 0
M  V30 3589 H 346.876 -0.367148 0.656282 0
M  V30 3590 H 348.847 -0.651368 2.91204 0
M  V30 3591 C 347.596 -2.38543 2.52968 0
M  V30 3592 H 346.919 -2.15765 3.36579 0
M  V30 3593 H 348.359 -3.08863 2.90481 0
M  V30 3594 C 346.818 -3.05562 1.41893 0
M  V30 3595 O 347.348 -3.94262 0.769442 0
M  V30 3596 N 345.554 -2.6643 1.16032 0
M  V30 3597 H 345.101 -1.94387 1.6903 0
M  V30 3598 H 345.059 -3.11593 0.419219 0
M  V30 3599 N 348.832 -1.54138 -0.328536 0
M  V30 3600 C 350.243 -1.63395 -0.903272 0
M  V30 3601 C 350.594 -0.524828 -1.8905 0
M  V30 3602 O 349.719 0.343068 -2.13663 0
M  V30 3603 C 350.314 -2.9618 -1.64507 0
M  V30 3604 C 348.873 -3.0765 -2.1686 0
M  V30 3605 C 348.02 -2.58933 -0.992416 0
M  V30 3606 H 350.971 -1.58344 -0.106253 0
M  V30 3607 H 350.992 -2.86061 -2.50897 0
M  V30 3608 H 350.504 -3.76884 -0.926302 0
M  V30 3609 H 348.605 -2.31611 -2.91868 0
M  V30 3610 H 348.718 -4.1337 -2.42202 0
M  V30 3611 H 347.082 -2.14706 -1.37016 0
M  V30 3612 H 347.865 -3.42089 -0.288041 0
M  V30 3613 N 350.31 0.590341 -1.46126 0
M  V30 3614 C 351.721 1.17243 -1.45296 0
M  V30 3615 C 352.072 1.95281 -0.189723 0
M  V30 3616 O 351.197 2.04502 0.707674 0
M  V30 3617 C 351.792 2.13284 -2.6324 0
M  V30 3618 C 350.351 2.66832 -2.65476 0
M  V30 3619 C 349.498 1.42557 -2.3785 0
M  V30 3620 H 352.449 0.378692 -1.54116 0
M  V30 3621 H 352.47 2.96619 -2.38323 0
M  V30 3622 H 351.982 1.56459 -3.55165 0
M  V30 3623 H 350.083 3.27548 -1.77603 0
M  V30 3624 H 350.196 3.10088 -3.65215 0
M  V30 3625 H 348.56 1.72107 -1.87753 0
M  V30 3626 H 349.343 0.875741 -3.31942 0
M  V30 3627 N 351.788 1.33704 0.83433 0
M  V30 3628 C 353.035 1.25417 1.58987 0
M  V30 3629 C 353.363 -0.178869 1.93676 0
M  V30 3630 O 352.618 -1.13723 1.59265 0
M  V30 3631 C 352.917 2.07926 2.90692 0
M  V30 3632 C 352.583 3.57066 2.75345 0
M  V30 3633 C 351.245 3.97724 2.70867 0
M  V30 3634 C 353.597 4.51817 2.59828 0
M  V30 3635 C 350.925 5.31344 2.48778 0
M  V30 3636 C 353.277 5.85604 2.39272 0
M  V30 3637 C 351.941 6.25439 2.33199 0
M  V30 3638 H 351.211 0.458934 0.581774 0
M  V30 3639 H 353.858 1.65335 0.966261 0
M  V30 3640 H 352.163 1.608 3.57282 0
M  V30 3641 H 353.86 1.98868 3.48213 0
M  V30 3642 H 350.45 3.24785 2.79665 0
M  V30 3643 H 354.634 4.21311 2.62319 0
M  V30 3644 H 349.89 5.61241 2.42526 0
M  V30 3645 H 354.064 6.58623 2.2625 0
M  V30 3646 H 351.691 7.28914 2.15843 0
M  V30 3647 N 353.266 -1.05314 1.17247 0
M  V30 3648 C 354.512 -1.78557 0.961513 0
M  V30 3649 C 354.845 -1.87419 -0.508697 0
M  V30 3650 O 354.12 -1.37307 -1.37757 0
M  V30 3651 C 354.403 -3.22514 1.60176 0
M  V30 3652 C 354.256 -3.21673 3.14399 0
M  V30 3653 C 355.575 -4.20318 1.30463 0
M  V30 3654 H 352.694 -0.6482 0.350723 0
M  V30 3655 H 355.336 -1.23102 1.44727 0
M  V30 3656 H 353.486 -3.69867 1.18871 0
M  V30 3657 H 355.158 -2.82405 3.64753 0
M  V30 3658 H 353.401 -2.60048 3.47214 0
M  V30 3659 H 354.072 -4.23271 3.54324 0
M  V30 3660 H 356.548 -3.81454 1.66229 0
M  V30 3661 H 355.424 -5.19289 1.77848 0
M  V30 3662 H 355.685 -4.41526 0.22521 0
M  V30 3663 N 354.744 -0.972509 -1.24016 0
M  V30 3664 C 355.993 -0.632603 -1.91523 0
M  V30 3665 C 356.306 0.836641 -1.76804 0
M  V30 3666 O 357.512 1.28728 -2.39043 0
M  V30 3667 C 355.968 -1.08082 -3.43287 0
M  V30 3668 C 355.576 -2.57386 -3.66683 0
M  V30 3669 C 357.32 -0.814288 -4.16617 0
M  V30 3670 C 355.227 -2.95915 -5.12043 0
M  V30 3671 H 354.157 -0.232898 -0.717129 0
M  V30 3672 H 356.808 -1.17936 -1.40582 0
M  V30 3673 H 355.19 -0.462339 -3.93292 0
M  V30 3674 H 356.364 -3.24405 -3.27258 0
M  V30 3675 H 354.679 -2.81701 -3.06649 0
M  V30 3676 H 357.276 -1.0781 -5.23718 0
M  V30 3677 H 357.619 0.24955 -4.15551 0
M  V30 3678 H 358.152 -1.39397 -3.72577 0
M  V30 3679 H 354.891 -4.0139 -5.18234 0
M  V30 3680 H 354.411 -2.33584 -5.52448 0
M  V30 3681 H 356.09 -2.86086 -5.80314 0
M  V30 3682 N 356.222 1.38976 -0.743202 0
M  V30 3683 C 357.172 2.27843 -0.084513 0
M  V30 3684 C 358.156 1.44677 0.704094 0
M  V30 3685 O 359.348 1.67511 0.571755 0
M  V30 3686 C 356.477 3.33466 0.815781 0
M  V30 3687 C 355.563 4.24095 0.0208844 0
M  V30 3688 N 355.954 4.95609 -1.0102 0
M  V30 3689 C 354.252 4.45303 0.249293 0
M  V30 3690 C 354.953 5.62287 -1.49024 0
M  V30 3691 N 353.929 5.37571 -0.807377 0
M  V30 3692 H 357.731 2.80593 -0.87436 0
M  V30 3693 H 355.245 1.51755 -0.578283 0
M  V30 3694 H 357.242 3.96008 1.30321 0
M  V30 3695 H 355.902 2.82276 1.6047 0
M  V30 3696 H 356.913 4.98849 -1.39176 0
M  V30 3697 H 353.59 4.0504 1.01237 0
M  V30 3698 H 354.98 6.29519 -2.34853 0
M  V30 3699 N 357.7 0.491464 1.49741 0
M  V30 3700 C 358.977 -0.118984 1.95238 0
M  V30 3701 C 359.357 -1.55044 1.43264 0
M  V30 3702 O 358.705 -2.19287 0.642287 0
M  V30 3703 C 358.915 -0.0414187 3.48975 0
M  V30 3704 C 360.263 -0.220133 4.24029 0
M  V30 3705 O 361.287 -0.117055 3.56008 0
M  V30 3706 O 360.146 -0.430567 5.44801 0
M  V30 3707 H 357.24 -0.100536 0.820866 0
M  V30 3708 H 359.786 0.553322 1.60426 0
M  V30 3709 H 358.558 0.957214 3.79412 0
M  V30 3710 H 358.181 -0.754292 3.9038 0
M  V30 3711 N 359.178 -1.55987 0.224894 0
M  V30 3712 C 360.111 -2.16413 -0.723929 0
M  V30 3713 C 361.089 -1.10952 -1.18863 0
M  V30 3714 O 362.273 -1.39225 -1.27077 0
M  V30 3715 C 359.4 -2.74711 -1.98121 0
M  V30 3716 C 358.446 -3.9303 -1.6562 0
M  V30 3717 S 359.279 -5.29817 -0.778058 0
M  V30 3718 C 360.435 -5.91555 -2.04483 0
M  V30 3719 H 360.668 -2.96555 -0.210347 0
M  V30 3720 H 358.201 -1.54397 0.00955457 0
M  V30 3721 H 360.159 -3.08938 -2.70311 0
M  V30 3722 H 358.82 -1.94555 -2.46591 0
M  V30 3723 H 358.013 -4.32334 -2.59043 0
M  V30 3724 H 357.615 -3.59966 -1.01491 0
M  V30 3725 H 359.907 -6.07732 -2.99446 0
M  V30 3726 H 360.85 -6.87498 -1.69563 0
M  V30 3727 H 361.258 -5.20419 -2.18688 0
M  V30 3728 N 360.656 0.0484629 -1.57525 0
M  V30 3729 C 361.566 1.07241 -2.08654 0
M  V30 3730 C 362.582 1.409 -1.02095 0
M  V30 3731 O 363.758 1.50609 -1.33712 0
M  V30 3732 C 360.823 2.36008 -2.5397 0
M  V30 3733 C 359.884 2.09108 -3.7493 0
M  V30 3734 C 359.117 3.31736 -4.18075 0
M  V30 3735 O 359.34 4.41714 -3.60895 0
M  V30 3736 O 358.274 3.18576 -5.10679 0
M  V30 3737 H 362.1 0.667965 -2.96263 0
M  V30 3738 H 359.685 0.26417 -1.47046 0
M  V30 3739 H 361.567 3.11747 -2.83535 0
M  V30 3740 H 360.242 2.75786 -1.69481 0
M  V30 3741 H 359.149 1.31 -3.50414 0
M  V30 3742 H 360.482 1.74198 -4.60343 0
M  V30 3743 N 362.134 1.5431 0.320358 0
M  V30 3744 C 363.362 1.76636 1.07738 0
M  V30 3745 C 363.777 0.51649 1.81598 0
M  V30 3746 O 363.134 -0.512942 1.75143 0
M  V30 3747 C 363.185 2.96158 2.07299 0
M  V30 3748 O 362.906 4.16313 1.36438 0
M  V30 3749 C 364.407 3.3072 2.95193 0
M  V30 3750 H 361.627 0.589597 0.320339 0
M  V30 3751 H 364.171 2.01207 0.36551 0
M  V30 3752 H 362.326 2.73851 2.74016 0
M  V30 3753 H 362.74 4.83565 2.03138 0
M  V30 3754 H 364.214 4.17643 3.60941 0
M  V30 3755 H 364.691 2.48026 3.62463 0
M  V30 3756 H 365.297 3.55117 2.34034 0
M  V30 3757 N 363.613 -0.582584 1.46437 0
M  V30 3758 C 364.543 -1.70187 1.59871 0
M  V30 3759 C 365.524 -1.64066 0.449042 0
M  V30 3760 O 366.709 -1.82081 0.6753 0
M  V30 3761 C 363.839 -3.08827 1.58881 0
M  V30 3762 C 362.793 -3.29779 2.72819 0
M  V30 3763 C 362.119 -4.68947 2.5689 0
M  V30 3764 C 363.419 -3.17601 4.1464 0
M  V30 3765 H 365.113 -1.592 2.53566 0
M  V30 3766 H 362.659 -0.764472 1.22032 0
M  V30 3767 H 364.612 -3.86951 1.66873 0
M  V30 3768 H 363.336 -3.20713 0.617306 0
M  V30 3769 H 361.995 -2.54054 2.64296 0
M  V30 3770 H 361.643 -4.77599 1.57823 0
M  V30 3771 H 361.343 -4.83919 3.33312 0
M  V30 3772 H 362.867 -5.4924 2.66773 0
M  V30 3773 H 364.281 -3.8557 4.24274 0
M  V30 3774 H 362.678 -3.44094 4.9165 0
M  V30 3775 H 363.748 -2.14681 4.34788 0
M  V30 3776 N 365.091 -1.34144 -0.827227 0
M  V30 3777 C 366.331 -1.27603 -1.59677 0
M  V30 3778 C 366.695 0.153035 -1.91389 0
M  V30 3779 O 367.896 0.342566 -2.66608 0
M  V30 3780 C 366.167 -2.13784 -2.86411 0
M  V30 3781 S 367.726 -2.24552 -3.76991 0
M  V30 3782 H 364.544 -0.453789 -0.547354 0
M  V30 3783 H 367.146 -1.69309 -0.977479 0
M  V30 3784 H 365.85 -3.16627 -2.61104 0
M  V30 3785 H 365.381 -1.72959 -3.5334 0
M  V30 3786 H 367.396 -1.41514 -4.75593 0
M  V30 3787 N 366.569 1.04691 -1.17803 0
M  V30 3788 C 367.502 2.12068 -0.842765 0
M  V30 3789 C 368.48 1.61455 0.192608 0
M  V30 3790 O 369.664 1.88359 0.072995 0
M  V30 3791 C 366.791 3.37715 -0.258063 0
M  V30 3792 C 365.837 4.07164 -1.26962 0
M  V30 3793 S 366.67 4.55047 -2.82299 0
M  V30 3794 C 367.826 5.83935 -2.25323 0
M  V30 3795 H 368.059 2.4018 -1.75217 0
M  V30 3796 H 365.592 1.17366 -1.00323 0
M  V30 3797 H 367.55 4.10435 0.0727935 0
M  V30 3798 H 366.211 3.0773 0.629357 0
M  V30 3799 H 365.404 4.9746 -0.809263 0
M  V30 3800 H 365.006 3.40533 -1.54639 0
M  V30 3801 H 367.298 6.57552 -1.63192 0
M  V30 3802 H 368.241 6.34725 -3.13894 0
M  V30 3803 H 368.649 5.3874 -1.68582 0
M  V30 3804 N 368.047 0.979072 1.23499 0
M  V30 3805 C 369.01 0.523244 2.23147 0
M  V30 3806 C 370.01 -0.386406 1.56088 0
M  V30 3807 O 371.2 -0.180283 1.73265 0
M  V30 3808 C 368.332 -0.240739 3.40049 0
M  V30 3809 H 369.525 1.40432 2.64989 0
M  V30 3810 H 367.078 0.764824 1.36309 0
M  V30 3811 H 367.813 -1.13841 3.03662 0
M  V30 3812 H 367.598 0.412207 3.89927 0
M  V30 3813 H 369.088 -0.548297 4.13985 0
M  V30 3814 N 369.525 -1.3858 0.750561 0
M  V30 3815 C 370.435 -2.34278 0.122825 0
M  V30 3816 C 371.451 -1.59116 -0.704131 0
M  V30 3817 O 372.627 -1.91326 -0.628987 0
M  V30 3818 C 369.692 -3.38221 -0.762086 0
M  V30 3819 C 368.753 -4.29227 0.078896 0
M  V30 3820 C 367.986 -5.28205 -0.763874 0
M  V30 3821 O 368.209 -5.34112 -2.00201 0
M  V30 3822 O 367.143 -6.01618 -0.18428 0
M  V30 3823 H 370.969 -2.89649 0.913088 0
M  V30 3824 H 368.554 -1.40374 0.511417 0
M  V30 3825 H 370.436 -4.01872 -1.26793 0
M  V30 3826 H 369.111 -2.85211 -1.5309 0
M  V30 3827 H 368.018 -3.68747 0.630621 0
M  V30 3828 H 369.351 -4.85484 0.810289 0
M  V30 3829 N 371.003 -0.499398 -1.49478 0
M  V30 3830 C 371.95 0.279881 -2.29097 0
M  V30 3831 C 372.92 0.961805 -1.3542 0
M  V30 3832 O 374.105 0.968777 -1.64376 0
M  V30 3833 C 371.245 1.33932 -3.18051 0
M  V30 3834 C 370.358 0.669333 -4.26783 0
M  V30 3835 C 369.493 1.70907 -5.02955 0
M  V30 3836 C 368.532 1.02087 -6.03527 0
M  V30 3837 N 367.669 2.00474 -6.7287 0
M  V30 3838 H 372.509 -0.405317 -2.95231 0
M  V30 3839 H 370.046 -0.211726 -1.45568 0
M  V30 3840 H 372.004 1.96553 -3.67998 0
M  V30 3841 H 370.634 1.9933 -2.53904 0
M  V30 3842 H 369.686 -0.0701234 -3.80335 0
M  V30 3843 H 370.998 0.127503 -4.98637 0
M  V30 3844 H 370.152 2.41037 -5.56764 0
M  V30 3845 H 368.891 2.28476 -4.30871 0
M  V30 3846 H 367.896 0.305338 -5.48951 0
M  V30 3847 H 369.121 0.451708 -6.77596 0
M  V30 3848 H 367.067 2.57007 -6.03559 0
M  V30 3849 H 366.984 1.51353 -7.40694 0
M  V30 3850 H 368.252 2.69897 -7.31284 0
M  V30 3851 N 372.481 1.55866 -0.233164 0
M  V30 3852 C 373.709 2.02998 0.399905 0
M  V30 3853 C 374.124 1.11274 1.52524 0
M  V30 3854 O 373.481 0.124528 1.82075 0
M  V30 3855 C 373.532 3.4958 0.920639 0
M  V30 3856 O 373.253 4.37808 -0.159834 0
M  V30 3857 C 374.754 4.12411 1.62578 0
M  V30 3858 H 371.974 0.664006 0.0966281 0
M  V30 3859 H 374.518 2.0143 -0.353013 0
M  V30 3860 H 372.673 3.51727 1.62379 0
M  V30 3861 H 373.087 5.23981 0.23337 0
M  V30 3862 H 374.561 5.16711 1.94201 0
M  V30 3863 H 375.038 3.5809 2.54299 0
M  V30 3864 H 375.644 4.14148 0.967553 0
M  V30 3865 N 373.959 -0.0401083 1.57549 0
M  V30 3866 C 374.889 -1.04384 2.08869 0
M  V30 3867 C 375.87 -1.38407 0.988817 0
M  V30 3868 O 377.055 -1.47483 1.26342 0
M  V30 3869 C 374.185 -2.34808 2.55895 0
M  V30 3870 C 373.139 -2.15057 3.70047 0
M  V30 3871 C 372.465 -3.51145 4.03239 0
M  V30 3872 C 373.765 -1.54576 4.98902 0
M  V30 3873 H 375.459 -0.616666 2.92981 0
M  V30 3874 H 373.005 -0.295184 1.40942 0
M  V30 3875 H 374.958 -3.05346 2.90417 0
M  V30 3876 H 373.682 -2.79565 1.68853 0
M  V30 3877 H 372.341 -1.46954 3.35857 0
M  V30 3878 H 371.989 -3.93529 3.13279 0
M  V30 3879 H 371.689 -3.38758 4.80122 0
M  V30 3880 H 373.213 -4.23062 4.40285 0
M  V30 3881 H 374.627 -2.15017 5.31451 0
M  V30 3882 H 373.024 -1.52796 5.80322 0
M  V30 3883 H 374.094 -0.51039 4.82206 0
M  V30 3884 N 375.437 -1.54477 -0.31217 0
M  V30 3885 C 376.683 -1.73483 -1.0503 0
M  V30 3886 C 377.016 -0.513125 -1.87298 0
M  V30 3887 O 376.291 0.489864 -1.8823 0
M  V30 3888 C 376.574 -3.01723 -1.96558 0
M  V30 3889 C 376.427 -4.3417 -1.17545 0
M  V30 3890 C 377.746 -3.25772 -2.95907 0
M  V30 3891 H 374.865 -0.631222 -0.380432 0
M  V30 3892 H 377.507 -1.87184 -0.325932 0
M  V30 3893 H 375.657 -2.90174 -2.58324 0
M  V30 3894 H 377.329 -4.5762 -0.581513 0
M  V30 3895 H 375.572 -4.31159 -0.477925 0
M  V30 3896 H 376.243 -5.20143 -1.84811 0
M  V30 3897 H 378.719 -3.36857 -2.44267 0
M  V30 3898 H 377.595 -4.16838 -3.57123 0
M  V30 3899 H 377.856 -2.43537 -3.68974 0
M  V30 3900 N 376.915 0.57481 -1.46744 0
M  V30 3901 C 377.878 1.66533 -1.57478 0
M  V30 3902 C 378.878 1.54338 -0.451263 0
M  V30 3903 O 380.068 1.58814 -0.715813 0
M  V30 3904 C 377.2 3.05999 -1.50259 0
M  V30 3905 H 378.393 1.58372 -2.54673 0
M  V30 3906 H 375.946 0.793301 -1.34672 0
M  V30 3907 H 376.681 3.19709 -0.543725 0
M  V30 3908 H 376.466 3.16259 -2.31781 0
M  V30 3909 H 377.956 3.8537 -1.60872 0
M  V30 3910 N 378.394 1.34581 0.820102 0
M  V30 3911 C 379.341 1.2639 1.93117 0
M  V30 3912 C 380.311 0.138554 1.65521 0
M  V30 3913 O 381.496 0.320004 1.88097 0
M  V30 3914 C 378.636 1.02812 3.29429 0
M  V30 3915 C 377.749 2.24146 3.693 0
M  V30 3916 C 376.884 1.93829 4.94574 0
M  V30 3917 C 375.923 3.1129 5.27034 0
M  V30 3918 N 375.06 2.80838 6.43486 0
M  V30 3919 H 379.9 2.21408 1.99455 0
M  V30 3920 H 377.437 1.10077 0.975784 0
M  V30 3921 H 379.395 0.871788 4.0799 0
M  V30 3922 H 378.025 0.114612 3.22596 0
M  V30 3923 H 377.077 2.50691 2.86109 0
M  V30 3924 H 378.389 3.11899 3.89257 0
M  V30 3925 H 377.543 1.74948 5.80929 0
M  V30 3926 H 376.282 1.03341 4.76626 0
M  V30 3927 H 375.287 3.30764 4.39175 0
M  V30 3928 H 376.512 4.02561 5.4692 0
M  V30 3929 H 374.458 1.92929 6.26988 0
M  V30 3930 H 374.375 3.62123 6.63629 0
M  V30 3931 H 375.643 2.65467 7.32903 0
M  V30 3932 N 379.872 -1.04064 1.18357 0
M  V30 3933 C 380.802 -2.14001 0.934113 0
M  V30 3934 C 381.783 -1.69616 -0.128186 0
M  V30 3935 O 382.968 -1.94185 0.0244093 0
M  V30 3936 C 380.098 -3.44253 0.459066 0
M  V30 3937 C 379.052 -4.02261 1.46185 0
M  V30 3938 C 378.378 -5.27992 0.844322 0
M  V30 3939 C 379.678 -4.38432 2.83856 0
M  V30 3940 H 381.372 -2.35127 1.85352 0
M  V30 3941 H 378.918 -1.12998 0.892604 0
M  V30 3942 H 380.871 -4.20522 0.271907 0
M  V30 3943 H 379.595 -3.22813 -0.495912 0
M  V30 3944 H 378.254 -3.28074 1.63595 0
M  V30 3945 H 377.902 -5.02862 -0.117845 0
M  V30 3946 H 377.602 -5.67765 1.51384 0
M  V30 3947 H 379.126 -6.06938 0.667693 0
M  V30 3948 H 380.54 -5.05688 2.70098 0
M  V30 3949 H 378.937 -4.89254 3.47491 0
M  V30 3950 H 380.007 -3.4826 3.37406 0
M  V30 3951 N 381.35 -0.985608 -1.22978 0
M  V30 3952 C 382.596 -0.65836 -1.91816 0
M  V30 3953 C 382.929 0.806692 -1.76653 0
M  V30 3954 O 382.204 1.58252 -1.13078 0
M  V30 3955 C 382.487 -1.056 -3.44268 0
M  V30 3956 C 382.34 -2.57906 -3.68516 0
M  V30 3957 C 383.659 -0.603781 -4.35939 0
M  V30 3958 H 380.778 -0.24065 -0.696604 0
M  V30 3959 H 383.42 -1.22783 -1.44998 0
M  V30 3960 H 381.57 -0.571445 -3.84274 0
M  V30 3961 H 383.242 -3.13976 -3.3796 0
M  V30 3962 H 381.485 -3.00305 -3.13048 0
M  V30 3963 H 382.156 -2.80779 -4.75255 0
M  V30 3964 H 384.632 -1.01987 -4.03408 0
M  V30 3965 H 383.508 -0.910383 -5.41298 0
M  V30 3966 H 383.769 0.495761 -4.39312 0
M  V30 3967 N 382.828 1.3818 -0.7579 0
M  V30 3968 C 383.791 2.28764 -0.141286 0
M  V30 3969 C 384.791 1.47388 0.642907 0
M  V30 3970 O 385.981 1.67781 0.468536 0
M  V30 3971 C 383.113 3.31184 0.808069 0
M  V30 3972 H 384.306 2.848 -0.939633 0
M  V30 3973 H 381.859 1.47212 -0.525191 0
M  V30 3974 H 382.594 2.80247 1.63193 0
M  V30 3975 H 382.379 3.91314 0.248104 0
M  V30 3976 H 383.869 3.98909 1.23536 0
M  V30 3977 N 384.306 0.507319 1.49211 0
M  V30 3978 C 385.254 -0.281364 2.30892 0
M  V30 3979 C 386.248 -0.95687 1.39787 0
M  V30 3980 O 387.454 -0.883838 1.56807 0
M  V30 3981 H 383.829 -0.109597 0.743971 0
M  V30 3982 H 385.8 0.42744 2.95323 0
M  V30 3983 C 384.549 -1.32918 3.21291 0
M  V30 3984 H 383.872 -0.818799 3.91326 0
M  V30 3985 H 385.312 -1.85288 3.81372 0
M  V30 3986 C 383.771 -2.35074 2.41333 0
M  V30 3987 O 384.301 -3.4108 2.12197 0
M  V30 3988 N 382.507 -2.07705 2.03241 0
M  V30 3989 H 382.054 -1.2152 2.27136 0
M  V30 3990 H 382.012 -2.76283 1.50051 0
M  V30 3991 N 385.784 -1.5574 0.241426 0
M  V30 3992 C 387.032 -1.98417 -0.384075 0
M  V30 3993 C 387.353 -1.13078 -1.58866 0
M  V30 3994 O 386.623 -0.212312 -1.94746 0
M  V30 3995 H 385.203 -0.732813 -0.144894 0
M  V30 3996 H 387.865 -1.9193 0.338943 0
M  V30 3997 H 386.961 -3.04219 -0.696939 0
M  V30 3998 N 387.262 0.0317525 -1.57568 0
M  V30 3999 C 388.511 0.722131 -1.8833 0
M  V30 4000 C 388.824 1.76664 -0.839587 0
M  V30 4001 O 390.03 2.50942 -1.03635 0
M  V30 4002 C 388.486 1.33544 -3.34207 0
M  V30 4003 C 388.094 0.327415 -4.46802 0
M  V30 4004 C 389.838 2.00585 -3.7412 0
M  V30 4005 C 387.745 0.948915 -5.83738 0
M  V30 4006 H 386.675 0.273466 -0.702661 0
M  V30 4007 H 389.326 -0.0235811 -1.83485 0
M  V30 4008 H 387.708 2.13077 -3.33788 0
M  V30 4009 H 388.882 -0.441006 -4.58685 0
M  V30 4010 H 387.197 -0.240758 -4.15703 0
M  V30 4011 H 389.794 2.47932 -4.73744 0
M  V30 4012 H 390.137 2.82285 -3.05975 0
M  V30 4013 H 390.67 1.27831 -3.76702 0
M  V30 4014 H 387.409 0.171387 -6.55276 0
M  V30 4015 H 386.929 1.68724 -5.7558 0
M  V30 4016 H 388.608 1.45705 -6.3038 0
M  V30 4017 N 388.74 1.54641 0.303973 0
M  V30 4018 C 389.672 1.81754 1.39636 0
M  V30 4019 C 390.685 0.70035 1.46966 0
M  V30 4020 O 391.874 0.97778 1.49338 0
M  V30 4021 C 388.974 1.93785 2.7803 0
M  V30 4022 C 388.147 3.24156 2.93669 0
M  V30 4023 C 387.206 3.26641 4.12544 0
M  V30 4024 O 386.232 4.00187 4.04771 0
M  V30 4025 N 387.434 2.5182 5.23036 0
M  V30 4026 H 390.199 2.76031 1.16734 0
M  V30 4027 H 387.76 1.54178 0.494033 0
M  V30 4028 H 389.752 1.92852 3.55795 0
M  V30 4029 H 388.322 1.06515 2.93893 0
M  V30 4030 H 387.542 3.37887 2.03042 0
M  V30 4031 H 388.83 4.10195 3.01027 0
M  V30 4032 H 388.228 1.91692 5.32232 0
M  V30 4033 H 386.785 2.56644 5.99147 0
M  V30 4034 N 390.218 -0.567019 1.47046 0
M  V30 4035 C 391.166 -1.69593 1.59188 0
M  V30 4036 C 392.16 -1.63046 0.459609 0
M  V30 4037 O 393.366 -1.6835 0.637058 0
M  V30 4038 H 389.741 -0.560993 0.500791 0
M  V30 4039 H 391.712 -1.56488 2.54075 0
M  V30 4040 C 390.461 -3.07964 1.61411 0
M  V30 4041 H 389.784 -3.13679 2.47881 0
M  V30 4042 H 391.224 -3.86671 1.73958 0
M  V30 4043 C 389.683 -3.35123 0.34559 0
M  V30 4044 O 390.213 -3.97812 -0.557521 0
M  V30 4045 N 388.419 -2.89699 0.22864 0
M  V30 4046 H 387.966 -2.38863 0.964479 0
M  V30 4047 H 387.924 -3.08242 -0.619192 0
M  V30 4048 N 391.696 -1.35014 -0.812953 0
M  V30 4049 C 392.643 -1.27412 -1.92444 0
M  V30 4050 C 393.613 -0.14733 -1.65445 0
M  V30 4051 O 394.798 -0.329974 -1.87925 0
M  V30 4052 C 391.938 -1.04558 -3.28879 0
M  V30 4053 C 391.051 -2.26101 -3.68106 0
M  V30 4054 C 390.186 -1.96449 -4.9354 0
M  V30 4055 C 389.225 -3.14081 -5.25376 0
M  V30 4056 N 388.362 -2.84246 -6.41988 0
M  V30 4057 H 393.202 -2.22463 -1.98278 0
M  V30 4058 H 390.739 -1.10593 -0.969933 0
M  V30 4059 H 392.697 -0.893413 -4.07522 0
M  V30 4060 H 391.327 -0.131719 -3.22531 0
M  V30 4061 H 390.379 -2.52204 -2.84775 0
M  V30 4062 H 391.691 -3.13959 -3.87597 0
M  V30 4063 H 390.845 -1.78026 -5.79993 0
M  V30 4064 H 389.584 -1.05867 -4.76071 0
M  V30 4065 H 388.589 -3.33089 -4.37415 0
M  V30 4066 H 389.814 -4.05455 -5.44778 0
M  V30 4067 H 387.76 -1.96252 -6.25956 0
M  V30 4068 H 387.677 -3.65637 -6.61699 0
M  V30 4069 H 388.945 -2.6935 -7.31485 0
M  V30 4070 N 393.175 1.03435 -1.18907 0
M  V30 4071 C 394.085 2.15075 -0.937015 0
M  V30 4072 C 395.101 1.73706 0.101085 0
M  V30 4073 O 396.277 2.01232 -0.0822948 0
M  V30 4074 C 393.342 3.43458 -0.473057 0
M  V30 4075 C 392.403 3.99172 -1.57989 0
M  V30 4076 C 391.636 5.21427 -1.13797 0
M  V30 4077 O 391.859 5.704 0.000725941 0
M  V30 4078 O 390.793 5.69837 -1.9383 0
M  V30 4079 H 394.619 2.39198 -1.87131 0
M  V30 4080 H 392.204 1.13506 -0.971427 0
M  V30 4081 H 394.086 4.20811 -0.222702 0
M  V30 4082 H 392.761 3.20793 0.432869 0
M  V30 4083 H 391.668 3.23178 -1.88433 0
M  V30 4084 H 393.001 4.2619 -2.46217 0
M  V30 4085 N 394.653 0.992116 1.22453 0
M  V30 4086 C 395.616 0.546883 2.2258 0
M  V30 4087 C 396.616 -0.369829 1.56489 0
M  V30 4088 O 397.806 -0.161896 1.73446 0
M  V30 4089 C 394.938 -0.204659 3.40285 0
M  V30 4090 H 396.131 1.43234 2.63484 0
M  V30 4091 H 393.684 0.779239 1.3549 0
M  V30 4092 H 394.419 -1.10614 3.04853 0
M  V30 4093 H 394.204 0.45354 3.89468 0
M  V30 4094 H 395.694 -0.504358 4.14543 0
M  V30 4095 N 396.131 -1.37776 0.765217 0
M  V30 4096 C 397.041 -2.34135 0.147666 0
M  V30 4097 C 398.057 -1.59854 -0.687215 0
M  V30 4098 O 399.233 -1.91983 -0.608659 0
M  V30 4099 C 396.298 -3.3901 -0.72617 0
M  V30 4100 C 395.359 -4.2912 0.124417 0
M  V30 4101 C 394.592 -5.28986 -0.707807 0
M  V30 4102 O 394.815 -5.36205 -1.94525 0
M  V30 4103 O 393.749 -6.01779 -0.12046 0
M  V30 4104 H 397.575 -2.88664 0.943758 0
M  V30 4105 H 395.16 -1.39824 0.526277 0
M  V30 4106 H 397.042 -4.03195 -1.22524 0
M  V30 4107 H 395.717 -2.86819 -1.50056 0
M  V30 4108 H 394.624 -3.68057 0.669696 0
M  V30 4109 H 395.957 -4.84598 0.861736 0
M  V30 4110 N 397.609 -0.515225 -1.4894 0
M  V30 4111 C 398.855 0.0242508 -2.02785 0
M  V30 4112 C 399.188 1.35323 -1.39289 0
M  V30 4113 O 398.463 1.87041 -0.533469 0
M  V30 4114 C 398.746 0.16184 -3.59736 0
M  V30 4115 C 398.599 -1.19127 -4.33738 0
M  V30 4116 C 399.918 0.895719 -4.30888 0
M  V30 4117 H 397.037 0.00733914 -0.736963 0
M  V30 4118 H 399.679 -0.669395 -1.77818 0
M  V30 4119 H 397.829 0.752624 -3.8114 0
M  V30 4120 H 399.501 -1.82202 -4.23792 0
M  V30 4121 H 397.744 -1.77695 -3.95736 0
M  V30 4122 H 398.415 -1.04815 -5.41957 0
M  V30 4123 H 400.891 0.394528 -4.14225 0
M  V30 4124 H 399.767 0.960859 -5.40425 0
M  V30 4125 H 400.028 1.9427 -3.97129 0
M  V30 4126 N 399.087 1.5561 -0.249682 0
M  V30 4127 C 400.503 1.59254 0.105103 0
M  V30 4128 C 400.703 1.26685 1.56694 0
M  V30 4129 O 399.759 1.0155 2.31179 0
M  V30 4130 C 401.072 2.99687 -0.246592 0
M  V30 4131 C 402.62 3.12416 -0.191118 0
M  V30 4132 C 403.095 4.55074 -0.516885 0
M  V30 4133 N 404.586 4.60835 -0.467489 0
M  V30 4134 C 405.321 5.69201 -0.69268 0
M  V30 4135 N 404.817 6.85817 -0.981146 0
M  V30 4136 N 406.61 5.58635 -0.623198 0
M  V30 4137 H 398.761 1.75049 -1.20298 0
M  V30 4138 H 401.024 0.815003 -0.484225 0
M  V30 4139 H 400.73 3.28267 -1.26228 0
M  V30 4140 H 400.604 3.74798 0.424962 0
M  V30 4141 H 402.991 2.83615 0.815247 0
M  V30 4142 H 403.072 2.39573 -0.896563 0
M  V30 4143 H 402.716 4.84596 -1.52082 0
M  V30 4144 H 402.646 5.26181 0.210068 0
M  V30 4145 H 405.137 3.7705 -0.253373 0
M  V30 4146 H 405.45 7.64341 -1.14032 0
M  V30 4147 H 403.795 6.87494 -1.01865 0
M  V30 4148 H 406.986 4.66406 -0.397863 0
M  V30 4149 H 407.159 6.43017 -0.802093 0
M  V30 4150 N 400.565 -0.0233959 1.57583 0
M  V30 4151 C 401.814 -0.712133 1.8871 0
M  V30 4152 C 402.127 -1.76217 0.848944 0
M  V30 4153 O 403.333 -2.50389 1.04964 0
M  V30 4154 C 401.789 -1.3177 3.3491 0
M  V30 4155 C 401.397 -0.303715 4.46969 0
M  V30 4156 C 403.141 -1.98598 3.75179 0
M  V30 4157 C 401.048 -0.917945 5.84233 0
M  V30 4158 H 399.978 -0.269735 0.704101 0
M  V30 4159 H 402.629 0.0333114 1.8347 0
M  V30 4160 H 401.011 -2.11304 3.34913 0
M  V30 4161 H 402.185 0.465325 4.58445 0
M  V30 4162 H 400.5 0.2628 4.1557 0
M  V30 4163 H 403.097 -2.45416 4.75053 0
M  V30 4164 H 403.44 -2.80659 3.07468 0
M  V30 4165 H 403.973 -1.25831 3.77374 0
M  V30 4166 H 400.712 -0.136633 6.55358 0
M  V30 4167 H 400.232 -1.65669 5.76467 0
M  V30 4168 H 401.911 -1.4236 6.31144 0
M  V30 4169 N 402.043 -1.548 -0.295768 0
M  V30 4170 C 403.29 -1.74329 -1.03032 0
M  V30 4171 C 403.618 -0.531915 -1.87085 0
M  V30 4172 O 402.873 0.486052 -1.89568 0
M  V30 4173 C 403.172 -2.98797 -1.961 0
M  V30 4174 C 402.838 -4.32356 -1.2798 0
M  V30 4175 C 401.5 -4.68661 -1.09135 0
M  V30 4176 C 403.852 -5.15128 -0.793243 0
M  V30 4177 C 401.18 -5.85312 -0.403269 0
M  V30 4178 C 403.532 -6.32488 -0.118854 0
M  V30 4179 C 402.196 -6.6745 0.0815043 0
M  V30 4180 H 401.466 -0.637916 -0.37702 0
M  V30 4181 H 404.113 -1.8906 -0.304696 0
M  V30 4182 H 402.418 -2.78869 -2.75207 0
M  V30 4183 H 404.115 -3.11102 -2.53015 0
M  V30 4184 H 400.705 -4.03808 -1.43655 0
M  V30 4185 H 404.889 -4.87575 -0.92653 0
M  V30 4186 H 400.145 -6.1094 -0.237098 0
M  V30 4187 H 404.319 -6.95892 0.266035 0
M  V30 4188 H 401.946 -7.57695 0.616685 0
M  V30 4189 N 403.521 0.559213 -1.47345 0
M  V30 4190 C 404.471 1.66192 -1.5609 0
M  V30 4191 C 405.455 1.55323 -0.419957 0
M  V30 4192 O 406.647 1.63839 -0.669762 0
M  V30 4193 C 403.776 3.0497 -1.57634 0
M  V30 4194 C 402.862 3.2105 -2.77106 0
M  V30 4195 N 403.253 3.07203 -4.01821 0
M  V30 4196 C 401.551 3.52046 -2.73825 0
M  V30 4197 C 402.252 3.25919 -4.81821 0
M  V30 4198 N 401.228 3.52161 -4.14106 0
M  V30 4199 H 405.03 1.54052 -2.5029 0
M  V30 4200 H 402.544 0.763914 -1.43311 0
M  V30 4201 H 404.541 3.84142 -1.61989 0
M  V30 4202 H 403.201 3.18224 -0.645281 0
M  V30 4203 H 404.212 2.84572 -4.32711 0
M  V30 4204 H 400.889 3.71839 -1.89848 0
M  V30 4205 H 402.279 3.20198 -5.90697 0
M  V30 4206 N 404.999 1.35443 0.805782 0
M  V30 4207 C 406.239 1.30127 1.57627 0
M  V30 4208 C 406.603 -0.122567 1.91608 0
M  V30 4209 O 407.804 -0.300107 2.67119 0
M  V30 4210 C 406.075 2.18314 2.82973 0
M  V30 4211 S 407.634 2.30521 3.7337 0
M  V30 4212 H 404.452 0.462439 0.540066 0
M  V30 4213 H 407.054 1.70843 0.95042 0
M  V30 4214 H 405.758 3.20741 2.56034 0
M  V30 4215 H 405.289 1.78558 3.50543 0
M  V30 4216 H 407.304 1.49062 4.73281 0
M  V30 4217 N 406.477 -1.02803 1.19454 0
M  V30 4218 C 407.717 -1.77769 1.00883 0
M  V30 4219 C 408.081 -1.86596 -0.45233 0
M  V30 4220 O 409.282 -2.57895 -0.757877 0
M  V30 4221 C 407.553 -3.16486 1.66046 0
M  V30 4222 S 409.112 -4.07632 1.62424 0
M  V30 4223 H 405.93 -0.611949 0.361993 0
M  V30 4224 H 408.532 -1.23175 1.51816 0
M  V30 4225 H 407.236 -3.0768 2.7159 0
M  V30 4226 H 406.767 -3.76156 1.15196 0
M  V30 4227 H 408.782 -4.91937 0.64903 0
M  V30 4228 N 407.956 -0.998596 -1.21925 0
M  V30 4229 C 408.888 -0.511879 -2.23411 0
M  V30 4230 C 409.901 0.396094 -1.57908 0
M  V30 4231 O 411.09 0.197316 -1.77406 0
M  V30 4232 C 408.19 0.276802 -3.37768 0
M  V30 4233 C 407.363 -0.628687 -4.32858 0
M  V30 4234 C 406.422 0.109272 -5.26087 0
M  V30 4235 O 405.448 -0.507237 -5.66935 0
M  V30 4236 N 406.65 1.38983 -5.63617 0
M  V30 4237 H 409.415 -1.38457 -2.658 0
M  V30 4238 H 406.976 -0.873981 -1.36283 0
M  V30 4239 H 408.968 0.77928 -3.97126 0
M  V30 4240 H 407.538 1.05063 -2.94415 0
M  V30 4241 H 406.758 -1.31175 -3.71735 0
M  V30 4242 H 408.046 -1.24514 -4.93329 0
M  V30 4243 H 407.444 1.91194 -5.32411 0
M  V30 4244 H 406.001 1.83739 -6.25367 0
M  V30 4245 N 409.434 1.37368 -0.772513 0
M  V30 4246 C 410.674 2.01512 -0.342361 0
M  V30 4247 C 411.038 1.59997 1.06136 0
M  V30 4248 O 412.239 2.16609 1.59167 0
M  V30 4249 C 410.51 3.54134 -0.482048 0
M  V30 4250 S 412.069 4.38585 -0.137272 0
M  V30 4251 H 408.887 0.698699 -0.131686 0
M  V30 4252 H 411.489 1.67552 -1.0073 0
M  V30 4253 H 410.193 3.81837 -1.50428 0
M  V30 4254 H 409.724 3.92894 0.199413 0
M  V30 4255 H 411.739 4.84594 1.06692 0
M  V30 4256 N 410.912 0.523116 1.48665 0
M  V30 4257 C 412.14 -0.0096312 2.06898 0
M  V30 4258 C 412.555 -1.28784 1.38059 0
M  V30 4259 O 411.912 -1.76453 0.465893 0
M  V30 4260 C 411.963 -0.244386 3.60673 0
M  V30 4261 O 411.684 0.983172 4.26925 0
M  V30 4262 C 413.185 -0.818289 4.35682 0
M  V30 4263 H 410.405 0.0304161 0.67031 0
M  V30 4264 H 412.949 0.726799 1.91149 0
M  V30 4265 H 411.104 -0.930847 3.76051 0
M  V30 4266 H 411.518 0.759653 5.1897 0
M  V30 4267 H 412.992 -0.93201 5.44075 0
M  V30 4268 H 413.469 -1.82153 3.99646 0
M  V30 4269 H 414.075 -0.168609 4.24966 0
M  V30 4270 N 412.39 -1.55475 0.257931 0
M  V30 4271 C 413.615 -2.04064 -0.370488 0
M  V30 4272 C 414.04 -1.13565 -1.49948 0
M  V30 4273 O 413.398 -0.130781 -1.80828 0
M  V30 4274 C 413.446 -3.50554 -0.845237 0
M  V30 4275 O 412.55 -3.63173 -1.95394 0
M  V30 4276 H 411.891 -0.659257 -0.0792243 0
M  V30 4277 H 414.421 -2.00903 0.387212 0
M  V30 4278 H 414.431 -3.91588 -1.14555 0
M  V30 4279 H 413.106 -4.15896 -0.0191259 0
M  V30 4280 H 411.683 -3.34039 -1.65748 0
M  V30 4281 N 413.868 0.0150385 -1.57593 0
M  V30 4282 C 415.114 0.704043 -1.90187 0
M  V30 4283 C 415.447 1.74249 -0.857366 0
M  V30 4284 O 414.722 1.94092 0.125843 0
M  V30 4285 C 415.005 1.36087 -3.33395 0
M  V30 4286 C 414.858 0.334981 -4.48551 0
M  V30 4287 C 416.177 2.29112 -3.7576 0
M  V30 4288 H 413.296 0.254475 -0.691673 0
M  V30 4289 H 415.938 -0.0331678 -1.89971 0
M  V30 4290 H 414.088 1.98922 -3.3371 0
M  V30 4291 H 415.76 -0.292534 -4.60372 0
M  V30 4292 H 414.003 -0.344325 -4.32431 0
M  V30 4293 H 414.674 0.833316 -5.45674 0
M  V30 4294 H 417.15 1.76308 -3.76902 0
M  V30 4295 H 416.026 2.72043 -4.76743 0
M  V30 4296 H 416.287 3.16385 -3.08793 0
M  V30 4297 N 415.346 1.54954 0.287554 0
M  V30 4298 C 416.256 1.8991 1.37736 0
M  V30 4299 C 417.272 0.794701 1.54792 0
M  V30 4300 O 418.448 1.09243 1.69198 0
M  V30 4301 C 415.513 2.15108 2.71899 0
M  V30 4302 C 414.574 3.38752 2.63715 0
M  V30 4303 C 413.807 3.62739 3.91479 0
M  V30 4304 O 414.03 2.89492 4.91478 0
M  V30 4305 O 412.964 4.56267 3.92561 0
M  V30 4306 H 416.79 2.82652 1.11092 0
M  V30 4307 H 414.375 1.41315 0.484807 0
M  V30 4308 H 416.257 2.32806 3.51254 0
M  V30 4309 H 414.932 1.25551 2.9836 0
M  V30 4310 H 413.839 3.26405 1.82786 0
M  V30 4311 H 415.172 4.28483 2.42205 0
M  V30 4312 N 416.824 -0.551391 1.4764 0
M  V30 4313 C 418.052 -1.33357 1.58189 0
M  V30 4314 C 418.467 -1.87342 0.234199 0
M  V30 4315 O 417.824 -1.65301 -0.77343 0
M  V30 4316 C 417.875 -2.49942 2.61173 0
M  V30 4317 O 417.596 -1.98187 3.90709 0
M  V30 4318 C 419.097 -3.42072 2.8196 0
M  V30 4319 H 416.317 -0.40631 0.533998 0
M  V30 4320 H 418.861 -0.667367 1.93304 0
M  V30 4321 H 417.016 -3.12489 2.28975 0
M  V30 4322 H 417.43 -2.74342 4.47031 0
M  V30 4323 H 418.904 -4.20278 3.57869 0
M  V30 4324 H 419.381 -3.95978 1.89995 0
M  V30 4325 H 419.987 -2.85336 3.15378 0
M  V30 4326 N 418.302 -1.35869 -0.798587 0
M  V30 4327 C 419.548 -1.2978 -1.55836 0
M  V30 4328 C 419.881 0.125322 -1.93795 0
M  V30 4329 O 419.156 1.07658 -1.61987 0
M  V30 4330 C 419.439 -2.21188 -2.84162 0
M  V30 4331 C 419.292 -3.72155 -2.52628 0
M  V30 4332 C 420.611 -2.11545 -3.85923 0
M  V30 4333 H 417.73 -0.472769 -0.565383 0
M  V30 4334 H 420.372 -1.66341 -0.918192 0
M  V30 4335 H 418.522 -1.90139 -3.38791 0
M  V30 4336 H 420.194 -4.13682 -2.04121 0
M  V30 4337 H 418.437 -3.92042 -1.85704 0
M  V30 4338 H 419.108 -4.31511 -3.44242 0
M  V30 4339 H 421.584 -2.38855 -3.40716 0
M  V30 4340 H 420.46 -2.77688 -4.73477 0
M  V30 4341 H 420.721 -1.09987 -4.282 0
M  V30 4342 N 419.78 1.02168 -1.19998 0
M  V30 4343 C 421.008 1.79296 -1.03249 0
M  V30 4344 C 421.423 1.84103 0.418502 0
M  V30 4345 O 420.78 1.29031 1.29063 0
M  V30 4346 C 420.831 3.24007 -1.60319 0
M  V30 4347 O 420.552 3.19512 -2.99739 0
M  V30 4348 C 422.053 4.17704 -1.48453 0
M  V30 4349 H 419.273 0.564016 -0.363493 0
M  V30 4350 H 421.817 1.28639 -1.58973 0
M  V30 4351 H 419.972 3.7183 -1.08727 0
M  V30 4352 H 420.386 4.10306 -3.26725 0
M  V30 4353 H 421.86 5.17104 -1.93153 0
M  V30 4354 H 422.337 4.37029 -0.436193 0
M  V30 4355 H 422.943 3.7576 -1.99211 0
M  V30 4356 N 421.258 1.00505 1.21394 0
M  V30 4357 C 422.168 0.574806 2.27449 0
M  V30 4358 C 423.184 -0.382206 1.6975 0
M  V30 4359 O 424.36 -0.246027 1.99892 0
M  V30 4360 C 421.425 -0.0917414 3.46579 0
M  V30 4361 C 420.486 0.909758 4.1955 0
M  V30 4362 C 419.719 0.274924 5.32991 0
M  V30 4363 O 419.942 -0.928254 5.62796 0
M  V30 4364 O 418.876 0.985877 5.93771 0
M  V30 4365 H 422.702 1.45744 2.66444 0
M  V30 4366 H 420.287 0.773923 1.27792 0
M  V30 4367 H 422.169 -0.464551 4.18832 0
M  V30 4368 H 420.844 -0.948755 3.09484 0
M  V30 4369 H 419.751 1.33372 3.49518 0
M  V30 4370 H 421.084 1.73636 4.60555 0
M  V30 4371 N 422.737 -1.36956 0.779787 0
M  V30 4372 C 423.667 -2.32761 0.185651 0
M  V30 4373 C 424.648 -1.56177 -0.673989 0
M  V30 4374 O 425.833 -1.84378 -0.609797 0
M  V30 4375 C 422.963 -3.40418 -0.687964 0
M  V30 4376 C 421.917 -4.27941 0.0710102 0
M  V30 4377 C 421.243 -5.26681 -0.922573 0
M  V30 4378 C 422.543 -5.07006 1.25467 0
M  V30 4379 H 424.237 -2.82698 0.986008 0
M  V30 4380 H 421.783 -1.3592 0.475592 0
M  V30 4381 H 423.736 -4.06423 -1.11348 0
M  V30 4382 H 422.46 -2.89025 -1.52093 0
M  V30 4383 H 421.119 -3.63478 0.47739 0
M  V30 4384 H 420.767 -4.71565 -1.7503 0
M  V30 4385 H 420.467 -5.86103 -0.419237 0
M  V30 4386 H 421.991 -5.9556 -1.34686 0
M  V30 4387 H 423.405 -5.66105 0.905401 0
M  V30 4388 H 421.802 -5.75793 1.69063 0
M  V30 4389 H 422.872 -4.3921 2.05481 0
M  V30 4390 N 424.215 -0.530993 -1.48385 0
M  V30 4391 C 425.443 -0.00134122 -2.069 0
M  V30 4392 C 425.858 1.2805 -1.3874 0
M  V30 4393 O 425.215 1.76204 -0.475244 0
M  V30 4394 C 425.266 0.225256 -3.60798 0
M  V30 4395 O 424.987 -1.0058 -4.26398 0
M  V30 4396 C 426.488 0.795172 -4.3611 0
M  V30 4397 H 423.708 -0.0339704 -0.67014 0
M  V30 4398 H 426.252 -0.736926 -1.90761 0
M  V30 4399 H 424.407 0.910891 -3.76539 0
M  V30 4400 H 424.821 -0.787165 -5.1856 0
M  V30 4401 H 426.295 0.903143 -5.44562 0
M  V30 4402 H 426.772 1.80031 -4.00606 0
M  V30 4403 H 427.378 0.146069 -4.25049 0
M  V30 4404 N 425.693 1.55336 -0.266172 0
M  V30 4405 C 426.603 2.2583 0.635458 0
M  V30 4406 C 427.619 1.28106 1.17749 0
M  V30 4407 O 428.795 1.61024 1.20968 0
M  V30 4408 C 425.86 2.95879 1.80712 0
M  V30 4409 C 424.921 4.09059 1.30265 0
M  V30 4410 C 424.154 4.75759 2.41846 0
M  V30 4411 O 424.377 4.41622 3.61007 0
M  V30 4412 O 423.311 5.63888 2.1051 0
M  V30 4413 H 427.137 3.03631 0.0646693 0
M  V30 4414 H 424.722 1.49361 -0.0339177 0
M  V30 4415 H 426.604 3.39932 2.49047 0
M  V30 4416 H 425.279 2.21002 2.36516 0
M  V30 4417 H 424.186 3.69482 0.586019 0
M  V30 4418 H 425.519 4.85811 0.790458 0
M  V30 4419 N 427.171 -0.0066808 1.57599 0
M  V30 4420 C 428.418 -0.69292 1.90276 0
M  V30 4421 C 428.746 -1.74148 0.866192 0
M  V30 4422 O 428.001 -1.95268 -0.129933 0
M  V30 4423 C 428.3 -1.37939 3.29708 0
M  V30 4424 C 427.966 -0.464679 4.48499 0
M  V30 4425 C 426.628 -0.212809 4.80729 0
M  V30 4426 C 428.98 0.16551 5.20937 0
M  V30 4427 C 426.308 0.677653 5.82773 0
M  V30 4428 C 428.66 1.04381 6.23929 0
M  V30 4429 C 427.324 1.30492 6.54621 0
M  V30 4430 H 426.594 -0.253558 0.696268 0
M  V30 4431 H 429.241 0.0474123 1.91441 0
M  V30 4432 H 427.546 -2.1936 3.24636 0
M  V30 4433 H 429.243 -1.9163 3.52249 0
M  V30 4434 H 425.833 -0.671153 4.23313 0
M  V30 4435 H 430.017 -0.0160756 4.96297 0
M  V30 4436 H 425.273 0.88803 6.04917 0
M  V30 4437 H 429.447 1.53851 6.79193 0
M  V30 4438 H 427.074 1.99662 7.33512 0
M  V30 4439 N 428.649 -1.55105 -0.279332 0
M  V30 4440 C 429.612 -1.86783 -1.32834 0
M  V30 4441 C 430.612 -0.74199 -1.42657 0
M  V30 4442 O 431.802 -1.0102 -1.41918 0
M  V30 4443 C 428.934 -2.06746 -2.71052 0
M  V30 4444 H 430.127 -2.8055 -1.05979 0
M  V30 4445 H 427.68 -1.47499 -0.517087 0
M  V30 4446 H 428.415 -1.15339 -3.03097 0
M  V30 4447 H 428.2 -2.88711 -2.65309 0
M  V30 4448 H 429.69 -2.32549 -3.46858 0
M  V30 4449 N 430.127 0.543554 -1.4793 0
M  V30 4450 C 431.074 1.64942 -1.6144 0
M  V30 4451 C 432.044 1.59692 -0.456903 0
M  V30 4452 O 433.229 1.78321 -0.678688 0
M  V30 4453 C 430.369 3.03238 -1.64744 0
M  V30 4454 C 429.482 3.18823 -2.91506 0
M  V30 4455 C 428.617 4.47599 -2.86057 0
M  V30 4456 C 427.656 4.56664 -4.07584 0
M  V30 4457 N 426.793 5.76811 -4.00292 0
M  V30 4458 H 431.633 1.52733 -2.55884 0
M  V30 4459 H 429.17 0.7438 -1.2691 0
M  V30 4460 H 431.128 3.83339 -1.64641 0
M  V30 4461 H 429.758 3.1425 -0.738017 0
M  V30 4462 H 428.81 2.32064 -3.01414 0
M  V30 4463 H 430.122 3.21384 -3.81463 0
M  V30 4464 H 429.276 5.35975 -2.84281 0
M  V30 4465 H 428.015 4.47538 -1.93807 0
M  V30 4466 H 427.02 3.66697 -4.09651 0
M  V30 4467 H 428.245 4.58474 -5.00978 0
M  V30 4468 H 426.191 5.77673 -3.10853 0
M  V30 4469 H 426.108 5.80808 -4.8394 0
M  V30 4470 H 427.376 6.67512 -4.02553 0
M  V30 4471 N 431.605 1.3629 0.791371 0
M  V30 4472 C 432.568 1.30309 1.88553 0
M  V30 4473 C 433.568 0.211204 1.59407 0
M  V30 4474 O 434.758 0.465865 1.67855 0
M  V30 4475 C 431.89 1.01956 3.25297 0
M  V30 4476 H 433.083 2.27614 1.95273 0
M  V30 4477 H 430.636 1.21035 0.988953 0
M  V30 4478 H 431.371 0.050998 3.2426 0
M  V30 4479 H 431.156 1.80968 3.4784 0
M  V30 4480 H 432.646 1.0037 4.05359 0
M  V30 4481 N 433.083 -1.0153 1.20538 0
M  V30 4482 C 434.332 -1.74558 1.01057 0
M  V30 4483 C 434.645 -1.90168 -0.457756 0
M  V30 4484 O 435.851 -2.60301 -0.771722 0
M  V30 4485 C 434.307 -3.13963 1.75941 0
M  V30 4486 C 433.915 -3.06361 3.26875 0
M  V30 4487 C 435.659 -3.91191 1.64832 0
M  V30 4488 C 433.566 -4.40782 3.94291 0
M  V30 4489 H 432.496 -0.654417 0.374505 0
M  V30 4490 H 435.147 -1.13521 1.44171 0
M  V30 4491 H 433.529 -3.75549 1.25614 0
M  V30 4492 H 434.703 -2.54074 3.84425 0
M  V30 4493 H 433.018 -2.42625 3.38411 0
M  V30 4494 H 435.615 -4.90644 2.12539 0
M  V30 4495 H 435.958 -4.11884 0.604745 0
M  V30 4496 H 436.491 -3.36236 2.12579 0
M  V30 4497 H 433.23 -4.25292 4.98805 0
M  V30 4498 H 432.75 -4.9307 3.41529 0
M  V30 4499 H 434.429 -5.09621 3.98617 0
M  V30 4500 N 434.561 -1.01147 -1.20859 0
M  V30 4501 C 435.972 -0.730205 -1.71828 0
M  V30 4502 C 436.323 0.751662 -1.8123 0
M  V30 4503 O 435.448 1.58686 -1.47132 0
M  V30 4504 C 436.043 -1.31885 -3.12077 0
M  V30 4505 C 434.602 -1.08656 -3.60376 0
M  V30 4506 C 433.749 -1.42769 -2.37723 0
M  V30 4507 H 436.7 -1.18158 -1.05945 0
M  V30 4508 H 436.721 -0.706793 -3.73878 0
M  V30 4509 H 436.233 -2.39737 -3.05201 0
M  V30 4510 H 434.334 -0.0254814 -3.72591 0
M  V30 4511 H 434.447 -1.76301 -4.45483 0
M  V30 4512 H 432.811 -0.846603 -2.40218 0
M  V30 4513 H 433.594 -2.51666 -2.33493 0
M  V30 4514 N 436.039 1.36541 -0.78704 0
M  V30 4515 C 437.287 1.98911 -0.357633 0
M  V30 4516 C 437.608 1.62778 1.07371 0
M  V30 4517 O 436.878 0.900612 1.73971 0
M  V30 4518 H 435.458 0.735734 -0.129246 0
M  V30 4519 H 438.12 1.66776 -1.00855 0
M  V30 4520 H 437.216 3.08874 -0.447549 0
M  V30 4521 N 437.518 0.538854 1.48102 0
M  V30 4522 C 438.765 0.0080018 2.02498 0
M  V30 4523 C 439.093 -1.33437 1.41509 0
M  V30 4524 O 438.348 -1.87709 0.553507 0
M  V30 4525 C 438.647 -0.153808 3.57069 0
M  V30 4526 C 438.313 1.11533 4.36888 0
M  V30 4527 C 436.975 1.46314 4.58417 0
M  V30 4528 C 439.327 1.95718 4.83057 0
M  V30 4529 C 436.655 2.6516 5.23361 0
M  V30 4530 C 439.007 3.13751 5.49312 0
M  V30 4531 C 437.671 3.48866 5.69077 0
M  V30 4532 H 436.941 0.00292807 0.740994 0
M  V30 4533 H 439.588 0.706668 1.77984 0
M  V30 4534 H 437.893 -0.935309 3.80472 0
M  V30 4535 H 439.59 -0.579607 3.96789 0
M  V30 4536 H 436.18 0.834484 4.20398 0
M  V30 4537 H 440.364 1.70158 4.66219 0
M  V30 4538 H 435.62 2.92558 5.36861 0
M  V30 4539 H 439.794 3.79282 5.84053 0
M  V30 4540 H 437.421 4.41054 6.19173 0
M  V30 4541 N 438.996 -1.55193 0.274407 0
M  V30 4542 C 439.959 -2.212 -0.600279 0
M  V30 4543 C 440.959 -1.18963 -1.08187 0
M  V30 4544 O 442.149 -1.43873 -0.982158 0
M  V30 4545 C 439.281 -2.87739 -1.82809 0
M  V30 4546 H 440.474 -2.9989 -0.0239682 0
M  V30 4547 H 438.027 -1.5628 0.0250192 0
M  V30 4548 H 438.762 -2.13058 -2.44493 0
M  V30 4549 H 438.547 -3.62658 -1.49069 0
M  V30 4550 H 440.037 -3.38171 -2.45011 0
M  V30 4551 N 440.474 -0.00167713 -1.576 0
M  V30 4552 C 441.422 1.0074 -2.09652 0
M  V30 4553 C 442.416 1.35483 -1.01689 0
M  V30 4554 O 443.622 1.34028 -1.20152 0
M  V30 4555 H 439.997 0.342537 -0.669457 0
M  V30 4556 H 441.968 0.542841 -2.93421 0
M  V30 4557 C 440.717 2.2899 -2.61647 0
M  V30 4558 H 440.04 2.03124 -3.44355 0
M  V30 4559 H 441.48 2.9787 -3.01744 0
M  V30 4560 C 439.939 3.00085 -1.53136 0
M  V30 4561 O 440.469 3.91135 -0.91524 0
M  V30 4562 N 438.675 2.6194 -1.25841 0
M  V30 4563 H 438.222 1.8798 -1.76129 0
M  V30 4564 H 438.18 3.09822 -0.534576 0
M  V30 4565 N 441.952 1.55251 0.271103 0
M  V30 4566 C 442.882 1.9127 1.33933 0
M  V30 4567 C 443.863 0.77478 1.5143 0
M  V30 4568 O 445.048 1.03307 1.64442 0
M  V30 4569 C 442.178 2.18627 2.69851 0
M  V30 4570 C 441.132 3.34442 2.67081 0
M  V30 4571 C 440.458 3.47284 4.06569 0
M  V30 4572 C 441.758 4.70784 2.26185 0
M  V30 4573 H 443.452 2.80744 1.04035 0
M  V30 4574 H 440.998 1.35077 0.499017 0
M  V30 4575 H 442.951 2.42413 3.44694 0
M  V30 4576 H 441.675 1.25955 3.01335 0
M  V30 4577 H 440.334 3.10627 1.94695 0
M  V30 4578 H 439.982 2.52074 4.35279 0
M  V30 4579 H 439.682 4.25152 4.0561 0
M  V30 4580 H 441.206 3.73363 4.83148 0
M  V30 4581 H 442.62 4.94102 2.90751 0
M  V30 4582 H 441.017 5.51582 2.36384 0
M  V30 4583 H 442.087 4.69478 1.21319 0
M  V30 4584 N 443.43 -0.535701 1.48216 0
M  V30 4585 C 444.707 -1.29683 1.46429 0
M  V30 4586 C 445.087 -2.10391 0.172852 0
M  V30 4587 O 444.435 -2.12282 -0.845488 0
M  V30 4588 C 444.645 -2.18313 2.72287 0
M  V30 4589 C 445.993 -2.78639 3.20383 0
M  V30 4590 O 447.017 -2.28604 2.73164 0
M  V30 4591 O 445.876 -3.69636 4.02531 0
M  V30 4592 H 442.97 -0.585026 0.584529 0
M  V30 4593 H 445.516 -0.552827 1.60443 0
M  V30 4594 H 444.288 -1.58421 3.57797 0
M  V30 4595 H 443.911 -2.99971 2.60966 0
M  V30 4596 N 444.908 -1.36708 -0.784132 0
M  V30 4597 C 445.838 -1.34153 -1.91116 0
M  V30 4598 C 446.819 -0.212121 -1.68772 0
M  V30 4599 O 448.004 -0.410581 -1.8981 0
M  V30 4600 C 445.134 -1.13535 -3.28218 0
M  V30 4601 C 444.088 -2.23356 -3.65097 0
M  V30 4602 C 443.414 -1.87875 -5.00607 0
M  V30 4603 C 444.714 -3.65473 -3.73131 0
M  V30 4604 H 446.408 -2.28459 -1.93512 0
M  V30 4605 H 443.954 -1.09973 -0.929618 0
M  V30 4606 H 445.907 -1.10381 -4.06687 0
M  V30 4607 H 444.631 -0.156804 -3.26223 0
M  V30 4608 H 443.29 -2.25645 -2.88929 0
M  V30 4609 H 442.938 -0.885814 -4.95139 0
M  V30 4610 H 442.638 -2.61406 -5.26252 0
M  V30 4611 H 444.162 -1.86286 -5.81489 0
M  V30 4612 H 445.576 -3.65382 -4.41779 0
M  V30 4613 H 443.973 -4.37953 -4.10265 0
M  V30 4614 H 445.043 -3.99995 -2.74102 0
M  V30 4615 N 446.386 1.0089 -1.21074 0
M  V30 4616 C 447.334 2.11707 -0.963476 0
M  V30 4617 C 448.328 1.69172 0.0879032 0
M  V30 4618 O 449.534 1.79889 -0.0631415 0
M  V30 4619 H 445.909 0.692026 -0.294287 0
M  V30 4620 H 447.88 2.29743 -1.90422 0
M  V30 4621 C 446.629 3.43473 -0.540509 0
M  V30 4622 H 445.952 3.76634 -1.34114 0
M  V30 4623 H 447.392 4.22044 -0.406777 0
M  V30 4624 C 445.851 3.2849 0.748079 0
M  V30 4625 O 446.381 3.58883 1.8046 0
M  V30 4626 N 444.587 2.81715 0.713081 0
M  V30 4627 H 444.134 2.5718 -0.146973 0
M  V30 4628 H 444.092 2.72071 1.57558 0
M  V30 4629 N 447.864 1.01787 1.20321 0
M  V30 4630 C 449.141 0.622978 1.85414 0
M  V30 4631 C 449.521 -0.898887 1.91006 0
M  V30 4632 O 448.869 -1.79112 1.41884 0
M  V30 4633 C 449.079 1.27226 3.24984 0
M  V30 4634 C 450.427 1.3885 4.01255 0
M  V30 4635 O 451.451 1.22857 3.34342 0
M  V30 4636 O 450.31 1.64705 5.2109 0
M  V30 4637 H 447.404 0.215116 0.798533 0
M  V30 4638 H 449.95 1.11533 1.27901 0
M  V30 4639 H 448.722 2.31209 3.15687 0
M  V30 4640 H 448.345 0.767069 3.90131 0
M  V30 4641 N 449.342 -1.36122 0.79427 0
M  V30 4642 C 450.274 -2.28683 0.153903 0
M  V30 4643 C 451.287 -1.49707 -0.639669 0
M  V30 4644 O 452.476 -1.7209 -0.474054 0
M  V30 4645 C 449.576 -3.29202 -0.804921 0
M  V30 4646 C 448.749 -4.37358 -0.060366 0
M  V30 4647 C 447.808 -5.17811 -0.935849 0
M  V30 4648 O 446.834 -5.67853 -0.391309 0
M  V30 4649 N 448.036 -5.34721 -2.25951 0
M  V30 4650 H 450.801 -2.84278 0.949008 0
M  V30 4651 H 448.362 -1.4834 0.648611 0
M  V30 4652 H 450.354 -3.79914 -1.39455 0
M  V30 4653 H 448.924 -2.74212 -1.50088 0
M  V30 4654 H 448.144 -3.87746 0.710382 0
M  V30 4655 H 449.432 -5.06777 0.45324 0
M  V30 4656 H 448.83 -4.95687 -2.72601 0
M  V30 4657 H 447.387 -5.88657 -2.79867 0
M  V30 4658 N 450.82 -0.546701 -1.47814 0
M  V30 4659 C 452.066 -0.0187684 -2.02791 0
M  V30 4660 C 452.399 1.32338 -1.42128 0
M  V30 4661 O 451.674 1.85867 -0.573023 0
M  V30 4662 C 451.957 0.0854985 -3.59998 0
M  V30 4663 C 451.81 -1.283 -4.31114 0
M  V30 4664 C 453.129 0.80412 -4.32691 0
M  V30 4665 H 450.248 -0.0082946 -0.736953 0
M  V30 4666 H 452.89 -0.706962 -1.76358 0
M  V30 4667 H 451.04 0.671609 -3.82651 0
M  V30 4668 H 452.712 -1.91151 -4.19832 0
M  V30 4669 H 450.955 -1.86049 -3.91878 0
M  V30 4670 H 451.626 -1.16287 -5.39612 0
M  V30 4671 H 454.102 0.306576 -4.14969 0
M  V30 4672 H 452.978 0.846011 -5.42341 0
M  V30 4673 H 453.239 1.85802 -4.01161 0
M  V30 4674 N 452.299 1.55045 -0.282633 0
M  V30 4675 C 453.527 2.04168 0.33512 0
M  V30 4676 C 453.942 1.16071 1.48906 0
M  V30 4677 O 453.299 0.182391 1.81586 0
M  V30 4678 C 453.35 3.52332 0.808957 0
M  V30 4679 O 453.071 4.37078 -0.299038 0
M  V30 4680 C 454.572 4.17375 1.49375 0
M  V30 4681 H 451.792 0.666744 0.0754543 0
M  V30 4682 H 454.336 2.00205 -0.416918 0
M  V30 4683 H 452.491 3.56715 1.51106 0
M  V30 4684 H 452.905 5.24458 0.0665514 0
M  V30 4685 H 454.379 5.22627 1.77664 0
M  V30 4686 H 454.856 3.65999 2.42778 0
M  V30 4687 H 455.462 4.17016 0.835305 0
M  V30 4688 N 453.777 0.010035 1.57597 0
M  V30 4689 C 454.707 -0.976857 2.12084 0
M  V30 4690 C 455.688 -1.35191 1.03235 0
M  V30 4691 O 456.873 -1.43389 1.3097 0
M  V30 4692 C 454.003 -2.26548 2.63236 0
M  V30 4693 C 452.957 -2.03175 3.76701 0
M  V30 4694 C 452.283 -3.38138 4.14206 0
M  V30 4695 C 453.583 -1.38625 5.03568 0
M  V30 4696 H 455.277 -0.523145 2.94794 0
M  V30 4697 H 452.823 -0.250195 1.4181 0
M  V30 4698 H 454.776 -2.95952 2.99984 0
M  V30 4699 H 453.5 -2.74051 1.77661 0
M  V30 4700 H 452.159 -1.36195 3.40362 0
M  V30 4701 H 451.807 -3.83363 3.25641 0
M  V30 4702 H 451.507 -3.23312 4.90656 0
M  V30 4703 H 453.031 -4.08841 4.53521 0
M  V30 4704 H 454.445 -1.98 5.38023 0
M  V30 4705 H 452.842 -1.34256 5.84889 0
M  V30 4706 H 453.912 -0.356722 4.83586 0
M  V30 4707 N 455.255 -1.55392 -0.262866 0
M  V30 4708 C 456.185 -1.91978 -1.32917 0
M  V30 4709 C 457.166 -0.7828 -1.51017 0
M  V30 4710 O 458.351 -1.04178 -1.63892 0
M  V30 4711 C 455.481 -2.20055 -2.68687 0
M  V30 4712 C 454.435 -3.35854 -2.65304 0
M  V30 4713 C 453.761 -3.49435 -4.04721 0
M  V30 4714 C 455.061 -4.71977 -2.23685 0
M  V30 4715 H 456.755 -2.81292 -1.02544 0
M  V30 4716 H 454.301 -1.3534 -0.491846 0
M  V30 4717 H 456.254 -2.44237 -3.43404 0
M  V30 4718 H 454.978 -1.27551 -3.00663 0
M  V30 4719 H 453.637 -3.11655 -1.93045 0
M  V30 4720 H 453.285 -2.54379 -4.33936 0
M  V30 4721 H 452.985 -4.27297 -4.0335 0
M  V30 4722 H 454.509 -3.7592 -4.81161 0
M  V30 4723 H 455.923 -4.95637 -2.88127 0
M  V30 4724 H 454.32 -5.52828 -2.33456 0
M  V30 4725 H 455.39 -4.70115 -1.18827 0
M  V30 4726 N 456.733 0.527833 -1.48498 0
M  V30 4727 C 457.68 1.6322 -1.6318 0
M  V30 4728 C 458.65 1.59199 -0.473815 0
M  V30 4729 O 459.835 1.77591 -0.697563 0
M  V30 4730 C 456.975 3.01474 -1.67951 0
M  V30 4731 C 456.088 3.15713 -2.94871 0
M  V30 4732 C 455.223 4.44539 -2.90789 0
M  V30 4733 C 454.262 4.52315 -4.12404 0
M  V30 4734 N 453.399 5.72533 -4.06387 0
M  V30 4735 H 458.239 1.50011 -2.57489 0
M  V30 4736 H 455.776 0.730298 -1.27691 0
M  V30 4737 H 457.734 3.81572 -1.68698 0
M  V30 4738 H 456.364 3.1345 -0.771306 0
M  V30 4739 H 455.416 2.28854 -3.03859 0
M  V30 4740 H 456.728 3.1732 -3.8485 0
M  V30 4741 H 455.882 5.3293 -2.89949 0
M  V30 4742 H 454.621 4.45457 -1.98542 0
M  V30 4743 H 453.626 3.62331 -4.13517 0
M  V30 4744 H 454.851 4.53134 -5.05812 0
M  V30 4745 H 452.797 5.74344 -3.16962 0
M  V30 4746 H 452.714 5.75643 -4.90073 0
M  V30 4747 H 453.982 6.63204 -4.0961 0
M  V30 4748 N 458.211 1.37122 0.776871 0
M  V30 4749 C 459.441 1.35034 1.56363 0
M  V30 4750 C 459.849 -0.0674681 1.8908 0
M  V30 4751 O 459.192 -1.03826 1.51545 0
M  V30 4752 C 459.254 2.11894 2.90415 0
M  V30 4753 C 458.918 3.60897 2.80362 0
M  V30 4754 C 459.915 4.54887 2.51742 0
M  V30 4755 C 457.6 4.03951 2.98545 0
M  V30 4756 C 459.594 5.89909 2.41426 0
M  V30 4757 C 457.281 5.3906 2.87849 0
M  V30 4758 C 458.279 6.31852 2.5933 0
M  V30 4759 O 457.967 7.64479 2.48651 0
M  V30 4760 H 457.699 0.464402 0.49123 0
M  V30 4761 H 460.253 1.80992 0.971127 0
M  V30 4762 H 458.483 1.60618 3.51765 0
M  V30 4763 H 460.172 2.02505 3.51776 0
M  V30 4764 H 460.938 4.22934 2.37385 0
M  V30 4765 H 456.817 3.3209 3.19746 0
M  V30 4766 H 460.361 6.62304 2.19086 0
M  V30 4767 H 456.258 5.70617 3.01773 0
M  V30 4768 H 457.026 7.74742 2.64039 0
M  V30 4769 N 459.689 -1.00246 1.21608 0
M  V30 4770 C 460.937 -1.73717 1.0328 0
M  V30 4771 C 461.258 -1.90102 -0.434318 0
M  V30 4772 O 460.528 -1.45376 -1.31311 0
M  V30 4773 H 459.108 -0.643613 0.379172 0
M  V30 4774 H 461.77 -1.20787 1.52959 0
M  V30 4775 H 460.866 -2.73535 1.50283 0
M  V30 4776 N 461.167 -1.02423 -1.1978 0
M  V30 4777 C 462.413 -0.719051 -1.89625 0
M  V30 4778 C 462.746 0.750083 -1.7913 0
M  V30 4779 O 462.021 1.54574 -1.18056 0
M  V30 4780 C 462.304 -1.16499 -3.40735 0
M  V30 4781 C 462.157 -2.695 -3.60125 0
M  V30 4782 C 463.476 -0.742166 -4.33797 0
M  V30 4783 H 460.595 -0.26269 -0.688595 0
M  V30 4784 H 463.237 -1.27333 -1.41018 0
M  V30 4785 H 461.387 -0.69341 -3.82262 0
M  V30 4786 H 463.059 -3.24569 -3.278 0
M  V30 4787 H 461.302 -3.10113 -3.03336 0
M  V30 4788 H 461.973 -2.95757 -4.66081 0
M  V30 4789 H 464.449 -1.1477 -3.99959 0
M  V30 4790 H 463.325 -1.08213 -5.38127 0
M  V30 4791 H 463.586 0.355747 -4.40666 0
M  V30 4792 N 462.645 1.35699 -0.801477 0
M  V30 4793 C 463.875 2.02862 -0.3912 0
M  V30 4794 C 464.283 1.60552 1.00099 0
M  V30 4795 O 463.626 0.796215 1.65548 0
M  V30 4796 C 463.688 3.57386 -0.389299 0
M  V30 4797 C 463.352 4.22943 -1.73113 0
M  V30 4798 C 464.349 4.44984 -2.68859 0
M  V30 4799 C 462.034 4.60167 -2.01373 0
M  V30 4800 C 464.028 5.03345 -3.91053 0
M  V30 4801 C 461.715 5.18243 -3.23832 0
M  V30 4802 C 462.713 5.39773 -4.1849 0
M  V30 4803 O 462.401 5.96626 -5.38788 0
M  V30 4804 H 462.133 0.657341 -0.157732 0
M  V30 4805 H 464.687 1.74407 -1.08496 0
M  V30 4806 H 462.917 3.85011 0.361031 0
M  V30 4807 H 464.606 4.059 -0.0020365 0
M  V30 4808 H 465.372 4.1661 -2.48316 0
M  V30 4809 H 461.251 4.42726 -1.28508 0
M  V30 4810 H 464.795 5.20065 -4.64949 0
M  V30 4811 H 460.692 5.46044 -3.44248 0
M  V30 4812 H 461.46 6.15082 -5.40015 0
M  V30 4813 N 464.123 0.554532 1.47522 0
M  V30 4814 C 465.033 -0.197865 2.33764 0
M  V30 4815 C 466.049 -0.914576 1.48025 0
M  V30 4816 O 467.225 -0.884067 1.80959 0
M  V30 4817 C 464.29 -1.21628 3.24665 0
M  V30 4818 C 463.351 -0.507283 4.26292 0
M  V30 4819 C 462.584 -1.47718 5.1285 0
M  V30 4820 O 462.807 -2.7118 5.01814 0
M  V30 4821 O 461.741 -1.00313 5.93482 0
M  V30 4822 H 465.567 0.50949 2.99396 0
M  V30 4823 H 463.152 0.315176 1.46038 0
M  V30 4824 H 465.034 -1.80421 3.80823 0
M  V30 4825 H 463.709 -1.9056 2.61665 0
M  V30 4826 H 462.616 0.121778 3.73902 0
M  V30 4827 H 463.949 0.140544 4.91999 0
M  V30 4828 N 465.601 -1.54893 0.290851 0
M  V30 4829 C 466.564 -2.21824 -0.576784 0
M  V30 4830 C 467.564 -1.20104 -1.06919 0
M  V30 4831 O 468.754 -1.44906 -0.966843 0
M  V30 4832 C 465.886 -2.89662 -1.79747 0
M  V30 4833 H 467.079 -2.99899 0.00784051 0
M  V30 4834 H 464.632 -1.56245 0.0415934 0
M  V30 4835 H 465.367 -2.15639 -2.42219 0
M  V30 4836 H 465.152 -3.64219 -1.45214 0
M  V30 4837 H 466.642 -3.4075 -2.4141 0
M  V30 4838 N 467.08 -0.0183926 -1.57589 0
M  V30 4839 C 468.329 0.66185 -1.90532 0
M  V30 4840 C 468.642 1.73904 -0.895366 0
M  V30 4841 O 469.848 2.47518 -1.11566 0
M  V30 4842 C 468.304 1.22844 -3.38286 0
M  V30 4843 C 467.912 0.185103 -4.47617 0
M  V30 4844 C 469.656 1.88581 -3.80312 0
M  V30 4845 C 467.563 0.762723 -5.86461 0
M  V30 4846 H 466.493 0.250972 -0.711006 0
M  V30 4847 H 469.144 -0.0819435 -1.83317 0
M  V30 4848 H 467.526 2.0235 -3.40398 0
M  V30 4849 H 468.7 -0.58671 -4.5705 0
M  V30 4850 H 467.015 -0.372889 -4.14727 0
M  V30 4851 H 469.612 2.32735 -4.81392 0
M  V30 4852 H 469.955 2.72408 -3.14801 0
M  V30 4853 H 470.488 1.15782 -3.80578 0
M  V30 4854 H 467.227 -0.0371713 -6.55489 0
M  V30 4855 H 466.747 1.50327 -5.80656 0
M  V30 4856 H 468.426 1.25576 -6.34697 0
M  V30 4857 N 468.558 1.5553 0.254621 0
M  V30 4858 C 469.805 1.77 0.983736 0
M  V30 4859 C 470.133 0.58133 1.85609 0
M  V30 4860 O 469.388 -0.435621 1.9079 0
M  V30 4861 C 469.687 3.03891 1.88109 0
M  V30 4862 C 469.353 4.35597 1.16472 0
M  V30 4863 C 468.015 4.7139 0.966714 0
M  V30 4864 C 470.367 5.1705 0.656387 0
M  V30 4865 C 467.695 5.86176 0.247942 0
M  V30 4866 C 470.047 6.32581 -0.0488807 0
M  V30 4867 C 468.711 6.67 -0.258438 0
M  V30 4868 H 467.981 0.647688 0.359974 0
M  V30 4869 H 470.628 1.89802 0.254463 0
M  V30 4870 H 468.933 2.86068 2.67717 0
M  V30 4871 H 470.63 3.17701 2.44677 0
M  V30 4872 H 467.22 4.07475 1.32899 0
M  V30 4873 H 471.404 4.8986 0.796933 0
M  V30 4874 H 466.66 6.11354 0.075035 0
M  V30 4875 H 470.834 6.94942 -0.450444 0
M  V30 4876 H 468.461 7.55793 -0.817358 0
M  V30 4877 N 470.036 -0.519951 1.48776 0
M  V30 4878 C 470.999 -1.60574 1.6355 0
M  V30 4879 C 471.999 -1.52557 0.508234 0
M  V30 4880 O 473.189 -1.56047 0.774262 0
M  V30 4881 C 470.321 -3.00211 1.61512 0
M  V30 4882 H 471.514 -1.4881 2.60376 0
M  V30 4883 H 469.067 -0.742772 1.37523 0
M  V30 4884 H 469.802 -3.17471 0.662009 0
M  V30 4885 H 469.587 -3.07439 2.43359 0
M  V30 4886 H 471.077 -3.79134 1.75064 0
M  V30 4887 N 471.514 -1.37532 -0.769588 0
M  V30 4888 C 472.447 -1.27839 -1.8903 0
M  V30 4889 C 473.425 -0.158504 -1.61826 0
M  V30 4890 O 474.609 -0.333086 -1.85534 0
M  V30 4891 C 471.736 -0.977072 -3.24301 0
M  V30 4892 C 470.782 -2.11414 -3.70414 0
M  V30 4893 S 471.615 -3.73409 -3.83831 0
M  V30 4894 C 472.771 -3.45432 -5.21946 0
M  V30 4895 H 473.004 -2.22694 -1.96963 0
M  V30 4896 H 470.537 -1.2318 -0.930914 0
M  V30 4897 H 472.495 -0.810049 -4.02428 0
M  V30 4898 H 471.156 -0.0459701 -3.14066 0
M  V30 4899 H 470.349 -1.85837 -4.68488 0
M  V30 4900 H 469.951 -2.24141 -2.99394 0
M  V30 4901 H 472.243 -3.00554 -6.07185 0
M  V30 4902 H 473.186 -4.42841 -5.52537 0
M  V30 4903 H 473.594 -2.80311 -4.89986 0
M  V30 4904 N 472.992 0.995999 -1.22138 0
M  V30 4905 C 473.922 2.10387 -1.01289 0
M  V30 4906 C 474.903 1.69975 0.0651454 0
M  V30 4907 O 476.088 1.9396 -0.0964628 0
M  V30 4908 C 473.218 3.42312 -0.586517 0
M  V30 4909 C 472.172 3.96558 -1.61014 0
M  V30 4910 C 471.498 5.24494 -1.0397 0
M  V30 4911 C 472.798 4.27595 -2.99933 0
M  V30 4912 H 474.492 2.28086 -1.93951 0
M  V30 4913 H 472.038 1.09607 -0.933928 0
M  V30 4914 H 473.991 4.19223 -0.427793 0
M  V30 4915 H 472.715 3.24431 0.375761 0
M  V30 4916 H 471.374 3.21776 -1.75658 0
M  V30 4917 H 471.022 5.02953 -0.0688703 0
M  V30 4918 H 470.722 5.61755 -1.72352 0
M  V30 4919 H 472.246 6.04042 -0.892494 0
M  V30 4920 H 473.66 4.95315 -2.8868 0
M  V30 4921 H 472.057 4.76021 -3.6541 0
M  V30 4922 H 473.127 3.35498 -3.50099 0
M  V30 4923 N 474.47 1.03057 1.19235 0
M  V30 4924 C 475.695 0.74757 1.93458 0
M  V30 4925 C 476.12 -0.687648 1.7508 0
M  V30 4926 O 475.478 -1.47499 1.05422 0
M  V30 4927 C 475.526 1.10604 3.43219 0
M  V30 4928 O 474.63 0.225671 4.11782 0
M  V30 4929 H 473.971 0.276047 0.603899 0
M  V30 4930 H 476.501 1.3777 1.51263 0
M  V30 4931 H 476.511 1.06366 3.93891 0
M  V30 4932 H 475.186 2.15165 3.55917 0
M  V30 4933 H 473.763 0.326795 3.71465 0
M  V30 4934 N 475.948 -1.35272 0.808662 0
M  V30 4935 C 477.173 -2.03477 0.401475 0
M  V30 4936 C 477.598 -1.60537 -0.980279 0
M  V30 4937 O 476.956 -0.78304 -1.63518 0
M  V30 4938 C 477.004 -3.57181 0.495354 0
M  V30 4939 O 476.108 -4.09474 -0.490397 0
M  V30 4940 H 475.449 -0.642561 0.167366 0
M  V30 4941 H 477.979 -1.72824 1.09512 0
M  V30 4942 H 477.989 -4.06356 0.365912 0
M  V30 4943 H 476.664 -3.87784 1.5032 0
M  V30 4944 H 475.241 -3.71516 -0.321023 0
M  V30 4945 N 477.426 -0.562348 -1.47226 0
M  V30 4946 C 478.672 -0.0402761 -2.0276 0
M  V30 4947 C 479.005 1.30823 -1.43523 0
M  V30 4948 O 478.28 1.85249 -0.592705 0
M  V30 4949 C 478.563 0.047311 -3.60069 0
M  V30 4950 C 478.416 -1.32865 -4.29729 0
M  V30 4951 C 479.735 0.758182 -4.3352 0
M  V30 4952 H 476.854 -0.0161105 -0.736824 0
M  V30 4953 H 479.496 -0.725628 -1.75598 0
M  V30 4954 H 477.646 0.630986 -3.83342 0
M  V30 4955 H 479.318 -1.95593 -4.17781 0
M  V30 4956 H 477.561 -1.90195 -3.89882 0
M  V30 4957 H 478.232 -1.22004 -5.38349 0
M  V30 4958 H 480.708 0.262546 -4.15271 0
M  V30 4959 H 479.584 0.78844 -5.43208 0
M  V30 4960 H 479.845 1.81537 -4.03109 0
M  V30 4961 N 478.904 1.54736 -0.299062 0
M  V30 4962 C 479.837 2.1962 0.619851 0
M  V30 4963 C 480.815 1.16496 1.13434 0
M  V30 4964 O 481.999 1.4513 1.2029 0
M  V30 4965 C 479.126 2.8385 1.84788 0
M  V30 4966 C 478.172 4.00484 1.46679 0
M  V30 4967 S 479.005 5.32926 0.524389 0
M  V30 4968 C 480.161 6.00638 1.76026 0
M  V30 4969 H 480.394 2.97221 0.0686177 0
M  V30 4970 H 477.927 1.54176 -0.0832085 0
M  V30 4971 H 479.885 3.21483 2.55263 0
M  V30 4972 H 478.546 2.06099 2.37028 0
M  V30 4973 H 477.739 4.44201 2.38121 0
M  V30 4974 H 477.341 3.64398 0.842008 0
M  V30 4975 H 479.633 6.21327 2.70109 0
M  V30 4976 H 480.576 6.94805 1.36569 0
M  V30 4977 H 480.984 5.3026 1.93609 0
M  V30 4978 N 480.382 0.0267497 1.57577 0
M  V30 4979 C 481.33 -0.973923 2.11229 0
M  V30 4980 C 482.324 -1.33849 1.03831 0
M  V30 4981 O 483.53 -1.321 1.22269 0
M  V30 4982 H 479.905 -0.331844 0.674821 0
M  V30 4983 H 481.876 -0.496092 2.94247 0
M  V30 4984 C 480.625 -2.24798 2.65257 0
M  V30 4985 H 479.948 -1.9762 3.47543 0
M  V30 4986 H 481.388 -2.93031 3.06445 0
M  V30 4987 C 479.847 -2.97611 1.57891 0
M  V30 4988 O 480.377 -3.89629 0.97735 0
M  V30 4989 N 478.583 -2.59905 1.29992 0
M  V30 4990 H 478.13 -1.85154 1.79097 0
M  V30 4991 H 478.088 -3.08932 0.583798 0
M  V30 4992 N 481.861 -1.55662 -0.24637 0
M  V30 4993 C 482.808 -1.90361 -1.30504 0
M  V30 4994 C 483.778 -0.757905 -1.47801 0
M  V30 4995 O 484.963 -1.01161 -1.61775 0
M  V30 4996 C 482.103 -2.2042 -2.65535 0
M  V30 4997 C 481.216 -3.47799 -2.56242 0
M  V30 4998 C 480.351 -3.67426 -3.8363 0
M  V30 4999 C 479.39 -4.88403 -3.68956 0
M  V30 5000 N 478.527 -5.04548 -4.88237 0
M  V30 5001 H 483.367 -2.80645 -1.00213 0
M  V30 5002 H 480.904 -1.38924 -0.483577 0
M  V30 5003 H 482.862 -2.35853 -3.44135 0
M  V30 5004 H 481.492 -1.3334 -2.93973 0
M  V30 5005 H 480.544 -3.40694 -1.69208 0
M  V30 5006 H 481.856 -4.36544 -2.4131 0
M  V30 5007 H 481.01 -3.82821 -4.70673 0
M  V30 5008 H 479.749 -2.76914 -4.01459 0
M  V30 5009 H 478.754 -4.72984 -2.80296 0
M  V30 5010 H 479.979 -5.80375 -3.52621 0
M  V30 5011 H 477.925 -4.16974 -5.06427 0
M  V30 5012 H 477.842 -5.87384 -4.75937 0
M  V30 5013 H 479.11 -5.24355 -5.76777 0
M  V30 5014 N 483.339 0.512053 -1.4905 0
M  V30 5015 C 484.616 1.27337 -1.48474 0
M  V30 5016 C 484.996 2.1009 -0.206301 0
M  V30 5017 O 484.344 2.136 0.811609 0
M  V30 5018 C 484.554 2.13954 -2.75726 0
M  V30 5019 C 485.902 2.73507 -3.24776 0
M  V30 5020 O 486.926 2.24229 -2.76767 0
M  V30 5021 O 485.785 3.63186 -4.08361 0
M  V30 5022 H 482.879 0.575652 -0.593762 0
M  V30 5023 H 485.425 0.527232 -1.61302 0
M  V30 5024 H 484.197 1.52709 -3.60272 0
M  V30 5025 H 483.82 2.95782 -2.65705 0
M  V30 5026 N 484.817 1.37938 0.762283 0
M  V30 5027 C 486.065 1.33404 1.51815 0
M  V30 5028 C 486.386 -0.0780975 1.94844 0
M  V30 5029 O 485.656 -1.02405 1.67003 0
M  V30 5030 H 484.236 0.490839 0.563104 0
M  V30 5031 H 486.898 1.72527 0.906669 0
M  V30 5032 H 485.994 1.97926 2.41313 0
M  V30 5033 N 486.295 -0.989507 1.22664 0
M  V30 5034 C 487.228 -2.07805 0.942985 0
M  V30 5035 C 488.206 -1.6219 -0.115356 0
M  V30 5036 O 489.39 -1.88492 0.0169565 0
M  V30 5037 C 486.517 -3.361 0.418898 0
M  V30 5038 C 485.563 -4.00643 1.46244 0
M  V30 5039 S 486.396 -4.41059 3.03689 0
M  V30 5040 C 487.552 -5.7252 2.52927 0
M  V30 5041 H 487.785 -2.31547 1.86476 0
M  V30 5042 H 485.318 -1.12446 1.05808 0
M  V30 5043 H 487.276 -4.10315 0.123114 0
M  V30 5044 H 485.937 -3.10383 -0.481818 0
M  V30 5045 H 485.13 -4.93033 1.04569 0
M  V30 5046 H 484.732 -3.32767 1.7071 0
M  V30 5047 H 487.024 -6.49017 1.94379 0
M  V30 5048 H 487.967 -6.19026 3.4382 0
M  V30 5049 H 488.375 -5.30083 1.94094 0
M  V30 5050 N 487.773 -1.03688 -1.18687 0
M  V30 5051 C 488.703 -0.645407 -2.24403 0
M  V30 5052 C 489.684 0.349511 -1.66471 0
M  V30 5053 O 490.869 0.230453 -1.92828 0
M  V30 5054 C 487.999 -0.00365337 -3.473 0
M  V30 5055 C 486.953 -0.921705 -4.17958 0
M  V30 5056 C 486.279 -0.144629 -5.34504 0
M  V30 5057 C 487.579 -2.23909 -4.71871 0
M  V30 5058 H 489.273 -1.52917 -2.57404 0
M  V30 5059 H 486.819 -0.736711 -1.23728 0
M  V30 5060 H 488.772 0.281908 -4.20456 0
M  V30 5061 H 487.496 0.914963 -3.13522 0
M  V30 5062 H 486.155 -1.19159 -3.46694 0
M  V30 5063 H 485.803 0.776274 -4.96974 0
M  V30 5064 H 485.503 -0.756206 -5.82714 0
M  V30 5065 H 487.027 0.134004 -6.10453 0
M  V30 5066 H 488.441 -2.0145 -5.36741 0
M  V30 5067 H 486.838 -2.8033 -5.30599 0
M  V30 5068 H 487.908 -2.88822 -3.895 0
M  V30 5069 N 489.251 1.34841 -0.815825 0
M  V30 5070 C 490.497 1.98793 -0.401129 0
M  V30 5071 C 490.83 1.64548 1.03139 0
M  V30 5072 O 490.105 0.913487 1.71714 0
M  V30 5073 C 490.388 3.55143 -0.595409 0
M  V30 5074 C 490.241 3.99155 -2.07352 0
M  V30 5075 C 491.56 4.40092 -0.0268823 0
M  V30 5076 H 488.679 0.722146 -0.14722 0
M  V30 5077 H 491.321 1.59847 -1.02707 0
M  V30 5078 H 489.471 3.8845 -0.0625779 0
M  V30 5079 H 491.143 3.76216 -2.66945 0
M  V30 5080 H 489.386 3.49726 -2.56659 0
M  V30 5081 H 490.057 5.07971 -2.1603 0
M  V30 5082 H 492.533 4.13298 -0.482042 0
M  V30 5083 H 491.409 5.48562 -0.19267 0
M  V30 5084 H 491.67 4.29016 1.06759 0
M  V30 5085 N 490.729 0.570148 1.46925 0
M  V30 5086 C 491.692 -0.159933 2.28641 0
M  V30 5087 C 492.692 -0.830638 1.37685 0
M  V30 5088 O 493.882 -0.684516 1.60187 0
M  V30 5089 C 491.014 -1.2354 3.17727 0
M  V30 5090 H 492.207 0.558035 2.94662 0
M  V30 5091 H 489.76 0.327603 1.52828 0
M  V30 5092 H 490.495 -1.98535 2.56426 0
M  V30 5093 H 490.28 -0.759125 3.84681 0
M  V30 5094 H 491.77 -1.74782 3.79264 0
M  V30 5095 N 492.207 -1.54576 0.307264 0
M  V30 5096 C 493.437 -2.04378 -0.302158 0
M  V30 5097 C 493.845 -1.18381 -1.47589 0
M  V30 5098 O 493.188 -0.20352 -1.82569 0
M  V30 5099 C 493.25 -3.50133 -0.815305 0
M  V30 5100 C 492.914 -4.56401 0.233977 0
M  V30 5101 C 493.911 -5.08884 1.06456 0
M  V30 5102 C 491.596 -5.0088 0.377478 0
M  V30 5103 C 493.59 -6.04394 2.02452 0
M  V30 5104 C 491.277 -5.96208 1.34088 0
M  V30 5105 C 492.275 -6.47849 2.16288 0
M  V30 5106 O 491.963 -7.41308 3.10994 0
M  V30 5107 H 491.695 -0.672502 -0.0686839 0
M  V30 5108 H 494.249 -2.00484 0.446682 0
M  V30 5109 H 492.479 -3.51371 -1.61478 0
M  V30 5110 H 494.168 -3.83098 -1.34129 0
M  V30 5111 H 494.934 -4.75311 0.964596 0
M  V30 5112 H 490.813 -4.60309 -0.252405 0
M  V30 5113 H 494.357 -6.44626 2.66652 0
M  V30 5114 H 490.254 -6.29198 1.44154 0
M  V30 5115 H 491.022 -7.5913 3.06045 0
M  V30 5116 N 493.685 -0.035106 -1.57561 0
M  V30 5117 C 494.933 0.64096 -1.91667 0
M  V30 5118 C 495.254 1.72323 -0.912681 0
M  V30 5119 O 494.524 1.95849 0.0449089 0
M  V30 5120 H 493.104 0.239743 -0.707483 0
M  V30 5121 H 495.766 -0.084321 -1.94718 0
M  V30 5122 H 494.862 1.08987 -2.92452 0
M  V30 5123 N 495.163 1.55791 0.238111 0
M  V30 5124 C 496.111 1.91885 1.31464 0
M  V30 5125 C 497.105 0.798929 1.49377 0
M  V30 5126 O 498.311 0.983626 1.50747 0
M  V30 5127 H 494.686 0.609551 0.440399 0
M  V30 5128 H 496.657 2.81747 0.982925 0
M  V30 5129 C 495.406 2.23763 2.6613 0
M  V30 5130 H 494.729 3.09444 2.53149 0
M  V30 5131 H 496.169 2.52915 3.40309 0
M  V30 5132 C 494.628 1.05699 3.1989 0
M  V30 5133 O 495.158 0.309524 4.00506 0
M  V30 5134 N 493.364 0.845251 2.78036 0
M  V30 5135 H 492.911 1.4548 2.12588 0
M  V30 5136 H 492.869 0.0569973 3.14348 0
M  V30 5137 N 496.642 -0.504142 1.49319 0
M  V30 5138 C 497.89 -1.25598 1.58334 0
M  V30 5139 C 498.211 -1.93114 0.270538 0
M  V30 5140 O 497.481 -1.82585 -0.709891 0
M  V30 5141 H 496.061 -0.466571 0.58337 0
M  V30 5142 H 498.723 -0.584547 1.85928 0
M  V30 5143 H 497.819 -2.02159 2.37778 0
M  V30 5144 N 498.12 -1.38341 -0.754957 0
M  V30 5145 C 499.367 -1.34473 -1.51404 0
M  V30 5146 C 499.695 0.0656458 -1.94389 0
M  V30 5147 O 498.95 1.04244 -1.65625 0
M  V30 5148 C 499.249 -2.2452 -2.78075 0
M  V30 5149 C 498.915 -3.72512 -2.54059 0
M  V30 5150 C 497.577 -4.1284 -2.47218 0
M  V30 5151 C 499.929 -4.66197 -2.33044 0
M  V30 5152 C 497.257 -5.44945 -2.17376 0
M  V30 5153 C 499.609 -5.98558 -2.04723 0
M  V30 5154 C 498.273 -6.37972 -1.96337 0
M  V30 5155 H 497.543 -0.492072 -0.554027 0
M  V30 5156 H 500.19 -1.70687 -0.868223 0
M  V30 5157 H 498.495 -1.81357 -3.473 0
M  V30 5158 H 500.192 -2.18832 -3.36026 0
M  V30 5159 H 496.782 -3.40538 -2.60253 0
M  V30 5160 H 500.966 -4.35888 -2.37309 0
M  V30 5161 H 496.222 -5.74426 -2.09391 0
M  V30 5162 H 500.396 -6.70693 -1.87465 0
M  V30 5163 H 498.023 -7.40258 -1.72978 0
M  V30 5164 N 499.598 0.982988 -1.23187 0
M  V30 5165 C 500.847 1.71817 -1.05649 0
M  V30 5166 C 501.16 1.91315 0.407176 0
M  V30 5167 O 502.366 2.62256 0.702436 0
M  V30 5168 C 500.822 3.09188 -1.84203 0
M  V30 5169 C 500.43 2.97586 -3.34882 0
M  V30 5170 C 502.174 3.86684 -1.75146 0
M  V30 5171 C 500.081 4.30173 -4.05839 0
M  V30 5172 H 499.011 0.644258 -0.391724 0
M  V30 5173 H 501.662 1.09659 -1.4713 0
M  V30 5174 H 500.044 3.72087 -1.35527 0
M  V30 5175 H 501.218 2.43793 -3.91026 0
M  V30 5176 H 499.533 2.33567 -3.44725 0
M  V30 5177 H 502.13 4.84836 -2.25473 0
M  V30 5178 H 502.473 4.10136 -0.713737 0
M  V30 5179 H 503.006 3.30482 -2.21419 0
M  V30 5180 H 499.745 4.11918 -5.09906 0
M  V30 5181 H 499.265 4.83841 -3.54482 0
M  V30 5182 H 500.944 4.98873 -4.11989 0
M  V30 5183 N 501.076 1.04316 1.18135 0
M  V30 5184 C 502.304 0.768117 1.92113 0
M  V30 5185 C 502.719 -0.675057 1.76319 0
M  V30 5186 O 502.076 -1.46038 1.09449 0
M  V30 5187 C 502.127 1.12808 3.43448 0
M  V30 5188 O 501.848 2.5146 3.58747 0
M  V30 5189 C 503.349 0.8779 4.3452 0
M  V30 5190 H 500.569 0.279937 0.609817 0
M  V30 5191 H 503.113 1.39149 1.49859 0
M  V30 5192 H 501.268 0.549623 3.83481 0
M  V30 5193 H 501.682 2.65313 4.52448 0
M  V30 5194 H 503.156 1.17959 5.39249 0
M  V30 5195 H 503.633 -0.187239 4.38801 0
M  V30 5196 H 504.239 1.43977 4.00188 0
M  V30 5197 N 502.554 -1.34406 0.822964 0
M  V30 5198 C 503.97 -1.51275 0.508727 0
M  V30 5199 C 504.17 -1.76776 -0.967083 0
M  V30 5200 O 503.226 -1.81871 -1.75155 0
M  V30 5201 C 504.539 -2.67765 1.36829 0
M  V30 5202 C 506.087 -2.81647 1.36542 0
M  V30 5203 C 506.562 -4.01181 2.20947 0
M  V30 5204 N 508.053 -4.08388 2.18571 0
M  V30 5205 C 508.788 -5.00036 2.80627 0
M  V30 5206 N 508.284 -5.96906 3.51674 0
M  V30 5207 N 510.077 -4.92908 2.70181 0
M  V30 5208 H 502.228 -1.16113 1.77852 0
M  V30 5209 H 504.491 -0.56947 0.757897 0
M  V30 5210 H 504.197 -2.55551 2.41633 0
M  V30 5211 H 504.071 -3.62779 1.03303 0
M  V30 5212 H 506.458 -2.93303 0.325163 0
M  V30 5213 H 506.539 -1.87443 1.74066 0
M  V30 5214 H 506.183 -3.90286 3.25022 0
M  V30 5215 H 506.113 -4.94599 1.80774 0
M  V30 5216 H 508.604 -3.39051 1.66891 0
M  V30 5217 H 508.917 -6.63468 3.96271 0
M  V30 5218 H 507.262 -5.9703 3.5578 0
M  V30 5219 H 510.453 -4.1619 2.14251 0
M  V30 5220 H 510.626 -5.64137 3.18831 0
M  V30 5221 N 504.032 -0.577932 -1.46621 0
M  V30 5222 C 504.942 0.160651 -2.34049 0
M  V30 5223 C 505.958 0.890911 -1.49462 0
M  V30 5224 O 507.134 0.855166 -1.82343 0
M  V30 5225 C 504.199 1.16447 -3.26559 0
M  V30 5226 C 503.26 0.4394 -4.27045 0
M  V30 5227 C 502.493 1.3954 -5.15135 0
M  V30 5228 O 502.716 2.63162 -5.06065 0
M  V30 5229 O 501.65 0.908585 -5.95003 0
M  V30 5230 H 505.476 -0.557057 -2.98547 0
M  V30 5231 H 503.061 -0.338369 -1.45518 0
M  V30 5232 H 504.943 1.7434 -3.83645 0
M  V30 5233 H 503.618 1.86373 -2.64663 0
M  V30 5234 H 502.525 -0.181247 -3.73661 0
M  V30 5235 H 503.858 -0.218799 -4.91713 0
M  V30 5236 N 505.51 1.54411 -0.315457 0
M  V30 5237 C 506.757 2.00419 0.289543 0
M  V30 5238 C 507.085 1.20373 1.52776 0
M  V30 5239 O 506.34 0.271769 1.93804 0
M  V30 5240 C 506.639 3.50936 0.676652 0
M  V30 5241 C 506.305 4.48532 -0.461472 0
M  V30 5242 C 504.967 4.74936 -0.773879 0
M  V30 5243 C 507.319 5.06567 -1.22637 0
M  V30 5244 C 504.647 5.56634 -1.85405 0
M  V30 5245 C 506.999 5.89441 -2.29657 0
M  V30 5246 C 505.663 6.1415 -2.61488 0
M  V30 5247 H 504.933 0.733386 0.105951 0
M  V30 5248 H 507.58 1.86434 -0.437554 0
M  V30 5249 H 505.885 3.62606 1.48405 0
M  V30 5250 H 507.582 3.83971 1.15618 0
M  V30 5251 H 504.172 4.28096 -0.207893 0
M  V30 5252 H 508.356 4.86157 -0.998271 0
M  V30 5253 H 503.612 5.74012 -2.10523 0
M  V30 5254 H 507.786 6.33432 -2.89374 0
M  V30 5255 H 505.413 6.77245 -3.45317 0
M  V30 5256 N 506.988 0.0434614 1.5754 0
M  V30 5257 C 507.918 -0.931651 2.14109 0
M  V30 5258 C 508.899 -1.32971 1.06079 0
M  V30 5259 O 510.084 -1.40579 1.33982 0
M  V30 5260 C 507.214 -2.20914 2.67982 0
M  V30 5261 C 506.168 -1.95139 3.80926 0
M  V30 5262 C 505.494 -3.29276 4.21285 0
M  V30 5263 C 506.794 -1.27913 5.06395 0
M  V30 5264 H 508.488 -0.460497 2.95837 0
M  V30 5265 H 506.034 -0.220058 1.42309 0
M  V30 5266 H 507.987 -2.89522 3.06194 0
M  V30 5267 H 506.711 -2.70221 1.83434 0
M  V30 5268 H 505.37 -1.28945 3.43175 0
M  V30 5269 H 505.018 -3.76369 3.33699 0
M  V30 5270 H 504.718 -3.12831 4.97404 0
M  V30 5271 H 506.242 -3.99129 4.62091 0
M  V30 5272 H 507.656 -1.86544 5.42102 0
M  V30 5273 H 506.053 -1.2182 5.87605 0
M  V30 5274 H 507.123 -0.254066 4.84234 0
M  V30 5275 N 508.466 -1.55915 -0.229846 0
M  V30 5276 C 509.413 -1.91734 -1.28478 0
M  V30 5277 C 510.383 -0.773539 -1.46988 0
M  V30 5278 O 511.568 -1.02871 -1.60693 0
M  V30 5279 C 508.708 -2.23224 -2.63182 0
M  V30 5280 C 507.821 -3.50497 -2.52539 0
M  V30 5281 C 506.956 -3.71474 -3.79711 0
M  V30 5282 C 505.995 -4.92289 -3.63755 0
M  V30 5283 N 505.132 -5.09698 -4.82858 0
M  V30 5284 H 509.972 -2.81692 -0.972308 0
M  V30 5285 H 507.509 -1.39429 -0.468815 0
M  V30 5286 H 509.467 -2.3949 -3.41614 0
M  V30 5287 H 508.097 -1.36451 -2.92542 0
M  V30 5288 H 507.149 -3.4247 -1.65585 0
M  V30 5289 H 508.461 -4.39079 -2.36666 0
M  V30 5290 H 507.615 -3.87791 -4.66586 0
M  V30 5291 H 506.354 -2.81157 -3.985 0
M  V30 5292 H 505.359 -4.7593 -2.75264 0
M  V30 5293 H 506.584 -5.84083 -3.46445 0
M  V30 5294 H 504.53 -4.22322 -5.01976 0
M  V30 5295 H 504.447 -5.92399 -4.69681 0
M  V30 5296 H 505.715 -5.30443 -5.71183 0
M  V30 5297 N 509.944 0.496216 -1.49584 0
M  V30 5298 C 511.169 1.27865 -1.63295 0
M  V30 5299 C 511.594 1.85592 -0.306156 0
M  V30 5300 O 510.952 1.66092 0.726851 0
M  V30 5301 C 511 2.38128 -2.7079 0
M  V30 5302 O 510.104 3.42108 -2.30296 0
M  V30 5303 H 509.445 0.377279 -0.546403 0
M  V30 5304 H 511.975 0.593497 -1.95803 0
M  V30 5305 H 511.985 2.8382 -2.93104 0
M  V30 5306 H 510.66 1.95479 -3.67098 0
M  V30 5307 H 509.237 3.02301 -2.18331 0
M  V30 5308 N 511.423 1.38739 0.74761 0
M  V30 5309 C 512.353 1.39173 1.87492 0
M  V30 5310 C 513.334 0.256794 1.6815 0
M  V30 5311 O 514.519 0.460762 1.88655 0
M  V30 5312 C 511.649 1.22197 3.25093 0
M  V30 5313 C 510.603 2.32957 3.59047 0
M  V30 5314 C 509.929 2.01082 4.95449 0
M  V30 5315 C 511.229 3.75237 3.6331 0
M  V30 5316 H 512.923 2.3351 1.87386 0
M  V30 5317 H 510.469 1.12399 0.900134 0
M  V30 5318 H 512.422 1.21124 4.03617 0
M  V30 5319 H 511.146 0.243241 3.25693 0
M  V30 5320 H 509.805 2.33226 2.82845 0
M  V30 5321 H 509.453 1.01678 4.92616 0
M  V30 5322 H 509.153 2.75267 5.19136 0
M  V30 5323 H 510.677 2.01638 5.76346 0
M  V30 5324 H 512.091 3.76966 4.31937 0
M  V30 5325 H 510.488 4.48677 3.98509 0
M  V30 5326 H 511.558 4.07122 2.634 0
M  V30 5327 N 512.901 -0.976442 1.23707 0
M  V30 5328 C 514.317 -1.24341 1.00058 0
M  V30 5329 C 514.517 -1.99315 -0.295932 0
M  V30 5330 O 513.573 -2.3123 -1.01435 0
M  V30 5331 C 514.886 -2.03909 2.21001 0
M  V30 5332 C 516.434 -2.17034 2.25534 0
M  V30 5333 C 516.909 -2.99994 3.46075 0
M  V30 5334 N 518.4 -3.07578 3.46338 0
M  V30 5335 C 519.135 -3.72104 4.36264 0
M  V30 5336 N 518.631 -4.3842 5.36432 0
M  V30 5337 N 520.424 -3.69029 4.23998 0
M  V30 5338 H 512.575 -0.47428 2.07037 0
M  V30 5339 H 514.838 -0.272167 0.908091 0
M  V30 5340 H 514.544 -1.56198 3.15111 0
M  V30 5341 H 514.418 -3.04654 2.22409 0
M  V30 5342 H 516.805 -2.63951 1.31961 0
M  V30 5343 H 516.886 -1.15664 2.28156 0
M  V30 5344 H 516.53 -2.53772 4.39957 0
M  V30 5345 H 516.46 -4.01541 3.40694 0
M  V30 5346 H 518.951 -2.60397 2.73865 0
M  V30 5347 H 519.264 -4.85447 6.013 0
M  V30 5348 H 517.609 -4.37116 5.40328 0
M  V30 5349 H 520.8 -3.16392 3.44984 0
M  V30 5350 H 520.973 -4.19034 4.94282 0
M  V30 5351 N 514.379 -1.04941 -1.1758 0
M  V30 5352 C 515.326 -0.648155 -2.21512 0
M  V30 5353 C 516.296 0.348431 -1.62404 0
M  V30 5354 O 517.481 0.240419 -1.89279 0
M  V30 5355 C 514.621 -0.0264291 -3.4509 0
M  V30 5356 C 513.734 -1.07154 -4.185 0
M  V30 5357 C 512.869 -0.417403 -5.29558 0
M  V30 5358 C 511.908 -1.447 -5.94751 0
M  V30 5359 N 511.045 -0.817203 -6.97328 0
M  V30 5360 H 515.885 -1.53891 -2.55189 0
M  V30 5361 H 513.422 -0.769699 -1.25356 0
M  V30 5362 H 515.38 0.351456 -4.15717 0
M  V30 5363 H 514.01 0.827802 -3.12005 0
M  V30 5364 H 513.062 -1.56728 -3.46613 0
M  V30 5365 H 514.374 -1.8532 -4.63096 0
M  V30 5366 H 513.528 0.0142061 -6.06698 0
M  V30 5367 H 512.267 0.396265 -4.86087 0
M  V30 5368 H 511.272 -1.88865 -5.16343 0
M  V30 5369 H 512.497 -2.26252 -6.40302 0
M  V30 5370 H 510.443 -0.0239995 -6.55996 0
M  V30 5371 H 510.36 -1.53644 -7.40223 0
M  V30 5372 H 511.628 -0.410283 -7.7842 0
M  V30 5373 N 515.857 1.33968 -0.830081 0
M  V30 5374 C 517.268 1.80439 -0.479455 0
M  V30 5375 C 517.619 1.68756 1.00079 0
M  V30 5376 O 516.744 1.23171 1.77927 0
M  V30 5377 C 517.339 3.27611 -0.863505 0
M  V30 5378 C 515.898 3.72133 -0.565145 0
M  V30 5379 C 515.045 2.55549 -1.07657 0
M  V30 5380 H 517.996 1.21614 -1.0196 0
M  V30 5381 H 518.017 3.8012 -0.170083 0
M  V30 5382 H 517.529 3.36082 -1.94089 0
M  V30 5383 H 515.63 3.69196 0.502536 0
M  V30 5384 H 515.743 4.65963 -1.11422 0
M  V30 5385 H 514.107 2.49788 -0.497807 0
M  V30 5386 H 514.89 2.66786 -2.16055 0
M  V30 5387 N 517.335 0.585699 1.46312 0
M  V30 5388 C 518.582 0.0724211 2.0237 0
M  V30 5389 C 518.91 -1.28868 1.45683 0
M  V30 5390 O 518.165 -1.85853 0.612945 0
M  V30 5391 C 518.464 -0.0401312 3.57377 0
M  V30 5392 C 518.13 1.25376 4.33119 0
M  V30 5393 C 516.792 1.60824 4.5353 0
M  V30 5394 C 519.144 2.10987 4.76586 0
M  V30 5395 C 516.472 2.81676 5.14661 0
M  V30 5396 C 518.824 3.31068 5.39052 0
M  V30 5397 C 517.488 3.66794 5.5769 0
M  V30 5398 H 516.758 0.0265007 0.740526 0
M  V30 5399 H 519.405 0.762935 1.75646 0
M  V30 5400 H 517.71 -0.813791 3.83255 0
M  V30 5401 H 519.407 -0.453078 3.98432 0
M  V30 5402 H 515.997 0.967808 4.1753 0
M  V30 5403 H 520.181 1.84904 4.60569 0
M  V30 5404 H 515.437 3.0949 5.27282 0
M  V30 5405 H 519.611 3.97672 5.71691 0
M  V30 5406 H 517.238 4.60529 6.04828 0
M  V30 5407 N 518.813 -1.54241 0.323641 0
M  V30 5408 C 520.053 -2.0248 -0.279502 0
M  V30 5409 C 520.417 -1.20672 -1.49339 0
M  V30 5410 O 521.618 -1.58715 -2.1694 0
M  V30 5411 C 519.889 -3.52238 -0.605266 0
M  V30 5412 S 521.448 -4.22411 -1.18805 0
M  V30 5413 H 518.266 -0.705957 -0.0845313 0
M  V30 5414 H 520.868 -1.90089 0.456781 0
M  V30 5415 H 519.572 -4.094 0.286339 0
M  V30 5416 H 519.103 -3.6871 -1.37174 0
M  V30 5417 H 521.118 -4.30075 -2.47487 0
M  V30 5418 N 520.291 -0.0518155 -1.57515 0
M  V30 5419 C 521.568 0.661727 -1.84067 0
M  V30 5420 C 521.948 1.88999 -0.940351 0
M  V30 5421 O 521.296 2.285 -0.00155404 0
M  V30 5422 C 521.506 1.01841 -3.3381 0
M  V30 5423 C 522.854 1.40043 -4.00841 0
M  V30 5424 O 523.878 1.11073 -3.38439 0
M  V30 5425 O 522.737 1.94111 -5.10865 0
M  V30 5426 H 519.831 0.326702 -0.759733 0
M  V30 5427 H 522.377 -0.0812277 -1.69505 0
M  V30 5428 H 521.149 0.145202 -3.91031 0
M  V30 5429 H 520.772 1.81879 -3.53562 0
M  V30 5430 N 521.769 1.56035 0.221574 0
M  V30 5431 C 523.018 1.78245 0.944016 0
M  V30 5432 C 523.331 0.620371 1.85501 0
M  V30 5433 O 524.537 0.726103 2.6161 0
M  V30 5434 C 522.993 3.15659 1.7288 0
M  V30 5435 C 522.601 4.39591 0.863942 0
M  V30 5436 C 524.345 3.47195 2.44246 0
M  V30 5437 C 522.252 5.6803 1.64607 0
M  V30 5438 H 521.182 0.664547 0.356222 0
M  V30 5439 H 523.833 1.8243 0.197904 0
M  V30 5440 H 522.215 3.0565 2.51781 0
M  V30 5441 H 523.389 4.60655 0.115464 0
M  V30 5442 H 521.704 4.15572 0.262407 0
M  V30 5443 H 524.301 4.40381 3.03263 0
M  V30 5444 H 524.644 2.69693 3.1713 0
M  V30 5445 H 525.177 3.58533 1.72334 0
M  V30 5446 H 521.916 6.48425 0.960507 0
M  V30 5447 H 521.436 5.51027 2.36917 0
M  V30 5448 H 523.115 6.08203 2.20675 0
M  V30 5449 N 523.247 -0.488276 1.49845 0
M  V30 5450 C 524.18 -1.60651 1.62069 0
M  V30 5451 C 525.158 -1.5568 0.469308 0
M  V30 5452 O 526.342 -1.75553 0.686551 0
M  V30 5453 C 523.469 -2.99197 1.58741 0
M  V30 5454 C 522.515 -3.22385 2.79232 0
M  V30 5455 S 523.348 -3.04133 4.40753 0
M  V30 5456 C 524.504 -4.45052 4.4009 0
M  V30 5457 H 524.737 -1.50039 2.56662 0
M  V30 5458 H 522.27 -0.674371 1.38894 0
M  V30 5459 H 524.228 -3.79081 1.57506 0
M  V30 5460 H 522.889 -3.07213 0.654136 0
M  V30 5461 H 522.082 -4.23557 2.73159 0
M  V30 5462 H 521.684 -2.50245 2.77945 0
M  V30 5463 H 523.976 -5.37375 4.12594 0
M  V30 5464 H 524.919 -4.56172 5.41583 0
M  V30 5465 H 525.327 -4.26327 3.70008 0
M  V30 5466 N 524.725 -1.39134 -0.740242 0
M  V30 5467 C 525.635 -1.39697 -1.88473 0
M  V30 5468 C 526.651 -0.292403 -1.71526 0
M  V30 5469 O 527.827 -0.533021 -1.94219 0
M  V30 5470 C 524.892 -1.23382 -3.24003 0
M  V30 5471 C 523.953 -2.43763 -3.53381 0
M  V30 5472 C 523.186 -2.28216 -4.82445 0
M  V30 5473 O 523.409 -1.28288 -5.55786 0
M  V30 5474 O 522.343 -3.1709 -5.11603 0
M  V30 5475 H 526.169 -2.36159 -1.90952 0
M  V30 5476 H 523.754 -1.20194 -0.887346 0
M  V30 5477 H 525.636 -1.16395 -4.05006 0
M  V30 5478 H 524.311 -0.300121 -3.22306 0
M  V30 5479 H 523.218 -2.56325 -2.72485 0
M  V30 5480 H 524.551 -3.35808 -3.59852 0
M  V30 5481 N 526.204 0.969867 -1.24223 0
M  V30 5482 C 527.615 1.52717 -1.07399 0
M  V30 5483 C 527.966 1.92956 0.355298 0
M  V30 5484 O 527.091 1.77112 1.2434 0
M  V30 5485 C 527.686 2.77521 -1.94339 0
M  V30 5486 C 526.245 3.29615 -1.81744 0
M  V30 5487 C 525.392 2.02537 -1.89405 0
M  V30 5488 H 528.343 0.788399 -1.37732 0
M  V30 5489 H 528.364 3.50773 -1.47439 0
M  V30 5490 H 527.876 2.48203 -2.98357 0
M  V30 5491 H 525.977 3.63789 -0.805505 0
M  V30 5492 H 526.09 3.98661 -2.65718 0
M  V30 5493 H 524.454 2.17151 -1.33108 0
M  V30 5494 H 525.237 1.75587 -2.94999 0
M  V30 5495 N 527.682 1.05563 1.17022 0
M  V30 5496 C 528.629 0.659893 2.21165 0
M  V30 5497 C 529.599 -0.339813 1.62587 0
M  V30 5498 O 530.784 -0.230378 1.89404 0
M  V30 5499 C 527.924 0.0447297 3.45071 0
M  V30 5500 C 527.037 1.09372 4.17926 0
M  V30 5501 C 526.172 0.445481 5.29329 0
M  V30 5502 C 525.211 1.47852 5.93975 0
M  V30 5503 N 524.348 0.854172 6.96885 0
M  V30 5504 H 529.188 1.55243 2.54369 0
M  V30 5505 H 526.725 0.776336 1.24946 0
M  V30 5506 H 528.683 -0.329404 4.15898 0
M  V30 5507 H 527.313 -0.811244 3.1244 0
M  V30 5508 H 526.365 1.58564 3.45777 0
M  V30 5509 H 527.677 1.87773 4.62107 0
M  V30 5510 H 526.831 0.0179688 6.06697 0
M  V30 5511 H 525.57 -0.370481 4.86291 0
M  V30 5512 H 524.575 1.91601 5.15334 0
M  V30 5513 H 525.8 2.29645 6.39093 0
M  V30 5514 H 523.746 0.0587882 6.55974 0
M  V30 5515 H 523.663 1.57567 7.39397 0
M  V30 5516 H 524.931 0.451559 7.78191 0
M  V30 5517 N 529.16 -1.33526 0.837174 0
M  V30 5518 C 530.407 -1.97837 0.432064 0
M  V30 5519 C 530.735 -1.66324 -1.00829 0
M  V30 5520 O 529.99 -0.93448 -1.71948 0
M  V30 5521 C 530.289 -3.52367 0.597675 0
M  V30 5522 C 529.955 -4.03826 2.00587 0
M  V30 5523 C 528.617 -4.1759 2.39106 0
M  V30 5524 C 530.969 -4.31333 2.92576 0
M  V30 5525 C 528.297 -4.56195 3.68921 0
M  V30 5526 C 530.649 -4.7139 4.2187 0
M  V30 5527 C 529.313 -4.8336 4.60347 0
M  V30 5528 H 528.583 -0.723937 0.158104 0
M  V30 5529 H 531.23 -1.5923 1.06387 0
M  V30 5530 H 529.535 -3.91624 -0.117452 0
M  V30 5531 H 531.232 -4.00126 0.26454 0
M  V30 5532 H 527.822 -3.93586 1.69671 0
M  V30 5533 H 532.006 -4.20224 2.64056 0
M  V30 5534 H 527.262 -4.63655 3.9854 0
M  V30 5535 H 531.436 -4.91631 4.93226 0
M  V30 5536 H 529.063 -5.1303 5.60985 0
M  V30 5537 N 530.638 -0.59345 -1.46 0
M  V30 5538 C 531.915 -0.0157933 -1.95594 0
M  V30 5539 C 532.295 1.44807 -1.53604 0
M  V30 5540 O 531.643 2.14342 -0.791824 0
M  V30 5541 C 531.853 -0.199081 -3.48432 0
M  V30 5542 C 533.201 -0.0724943 -4.24538 0
M  V30 5543 O 534.225 -0.128469 -3.55968 0
M  V30 5544 O 533.084 0.0542426 -5.46473 0
M  V30 5545 H 530.178 0.043749 -0.825842 0
M  V30 5546 H 532.724 -0.662522 -1.56233 0
M  V30 5547 H 531.496 -1.21631 -3.71916 0
M  V30 5548 H 531.119 0.483576 -3.94648 0
M  V30 5549 N 532.116 1.54067 -0.331816 0
M  V30 5550 C 533.363 2.00715 0.268269 0
M  V30 5551 C 533.691 1.21986 1.51491 0
M  V30 5552 O 532.946 0.292309 1.93505 0
M  V30 5553 C 533.245 3.51634 0.639392 0
M  V30 5554 C 532.911 4.48018 -0.509019 0
M  V30 5555 C 531.573 4.74089 -0.824209 0
M  V30 5556 C 533.925 5.05237 -1.28003 0
M  V30 5557 C 531.253 5.54637 -1.91298 0
M  V30 5558 C 533.605 5.86972 -2.35895 0
M  V30 5559 C 532.269 6.11342 -2.67987 0
M  V30 5560 H 531.539 0.734469 0.0981667 0
M  V30 5561 H 534.186 1.8596 -0.457304 0
M  V30 5562 H 532.491 3.6416 1.44551 0
M  V30 5563 H 534.188 3.85175 1.11539 0
M  V30 5564 H 530.778 4.27851 -0.253287 0
M  V30 5565 H 534.962 4.8507 -1.04978 0
M  V30 5566 H 530.218 5.71747 -2.16599 0
M  V30 5567 H 534.392 6.30327 -2.96076 0
M  V30 5568 H 532.019 6.73544 -3.5248 0
M  V30 5569 N 533.594 0.0601682 1.57485 0
M  V30 5570 C 534.557 -0.896373 2.10945 0
M  V30 5571 C 535.557 -1.23402 1.03095 0
M  V30 5572 O 536.747 -1.16921 1.29132 0
M  V30 5573 C 533.879 -2.20346 2.60116 0
M  V30 5574 H 535.072 -0.432778 2.96761 0
M  V30 5575 H 532.625 -0.188372 1.55161 0
M  V30 5576 H 533.36 -2.71268 1.7772 0
M  V30 5577 H 533.145 -1.9714 3.38937 0
M  V30 5578 H 534.635 -2.88846 3.01592 0
M  V30 5579 N 535.072 -1.5615 -0.213296 0
M  V30 5580 C 536.005 -1.88115 -1.29182 0
M  V30 5581 C 536.983 -0.739348 -1.44819 0
M  V30 5582 O 538.167 -0.988541 -1.605 0
M  V30 5583 C 535.294 -2.09541 -2.66102 0
M  V30 5584 C 534.34 -3.32236 -2.67436 0
M  V30 5585 S 535.173 -4.87915 -2.20679 0
M  V30 5586 C 536.329 -5.12387 -3.59458 0
M  V30 5587 H 536.562 -2.793 -1.01876 0
M  V30 5588 H 534.095 -1.48692 -0.415934 0
M  V30 5589 H 536.053 -2.22568 -3.44925 0
M  V30 5590 H 534.714 -1.19138 -2.90628 0
M  V30 5591 H 533.907 -3.44297 -3.6807 0
M  V30 5592 H 533.509 -3.18108 -1.96681 0
M  V30 5593 H 535.801 -5.01791 -4.55205 0
M  V30 5594 H 536.744 -6.14236 -3.52306 0
M  V30 5595 H 537.152 -4.40089 -3.53528 0
M  V30 5596 N 536.55 0.480323 -1.50102 0
M  V30 5597 C 537.497 1.57946 -1.6829 0
M  V30 5598 C 538.467 1.57611 -0.524223 0
M  V30 5599 O 539.652 1.75282 -0.753709 0
M  V30 5600 C 536.792 2.95978 -1.77457 0
M  V30 5601 C 535.905 3.06173 -3.04766 0
M  V30 5602 C 535.04 4.35063 -3.04784 0
M  V30 5603 C 534.079 4.38966 -4.26586 0
M  V30 5604 N 533.216 5.59314 -4.24396 0
M  V30 5605 H 538.056 1.41743 -2.62131 0
M  V30 5606 H 535.593 0.689304 -1.2995 0
M  V30 5607 H 537.551 3.76011 -1.80752 0
M  V30 5608 H 536.181 3.10837 -0.870637 0
M  V30 5609 H 535.233 2.19071 -3.10986 0
M  V30 5610 H 536.545 3.04916 -3.9475 0
M  V30 5611 H 535.699 5.23436 -3.06757 0
M  V30 5612 H 534.438 4.38915 -2.12614 0
M  V30 5613 H 533.443 3.48992 -4.24835 0
M  V30 5614 H 534.668 4.36813 -5.19972 0
M  V30 5615 H 532.614 5.63969 -3.35074 0
M  V30 5616 H 532.531 5.5976 -5.08138 0
M  V30 5617 H 533.799 6.49837 -4.30502 0
M  V30 5618 N 538.028 1.39524 0.732853 0
M  V30 5619 C 539.275 1.36865 1.49246 0
M  V30 5620 C 539.603 -0.0347118 1.94469 0
M  V30 5621 O 538.858 -1.01596 1.67262 0
M  V30 5622 C 539.157 2.28916 2.74468 0
M  V30 5623 C 538.823 3.76506 2.481 0
M  V30 5624 C 537.485 4.16721 2.40619 0
M  V30 5625 C 539.837 4.69846 2.25598 0
M  V30 5626 C 537.165 5.48334 2.08679 0
M  V30 5627 C 539.517 6.01739 1.95174 0
M  V30 5628 C 538.181 6.41015 1.86163 0
M  V30 5629 H 537.451 0.500824 0.546129 0
M  V30 5630 H 540.098 1.72047 0.840958 0
M  V30 5631 H 538.403 1.86859 3.4437 0
M  V30 5632 H 540.1 2.2415 3.32502 0
M  V30 5633 H 536.69 3.44635 2.54803 0
M  V30 5634 H 540.874 4.39608 2.30344 0
M  V30 5635 H 536.13 5.77685 2.00226 0
M  V30 5636 H 540.304 6.73591 1.76771 0
M  V30 5637 H 537.931 7.42917 1.61179 0
M  V30 5638 N 539.506 -0.963266 1.24736 0
M  V30 5639 C 540.454 -2.07985 1.04139 0
M  V30 5640 C 541.448 -1.69381 -0.0250556 0
M  V30 5641 O 542.654 -1.79531 0.129863 0
M  V30 5642 H 539.029 -0.680627 0.319768 0
M  V30 5643 H 541 -2.22517 1.98818 0
M  V30 5644 C 539.749 -3.4123 0.667615 0
M  V30 5645 H 539.072 -3.71397 1.48 0
M  V30 5646 H 540.512 -4.20244 0.563136 0
M  V30 5647 C 538.971 -3.3104 -0.625647 0
M  V30 5648 O 539.501 -3.65334 -1.67016 0
M  V30 5649 N 537.707 -2.84168 -0.608033 0
M  V30 5650 H 537.254 -2.56458 0.242323 0
M  V30 5651 H 537.212 -2.77732 -1.47352 0
M  V30 5652 N 540.985 -1.06182 -1.16461 0
M  V30 5653 C 541.948 -0.675723 -2.19013 0
M  V30 5654 C 542.948 0.277963 -1.58379 0
M  V30 5655 O 544.138 0.0604962 -1.74095 0
M  V30 5656 C 541.27 0.00591459 -3.40899 0
M  V30 5657 H 542.463 -1.58353 -2.54685 0
M  V30 5658 H 540.016 -0.856908 -1.30716 0
M  V30 5659 H 540.751 0.92652 -3.10783 0
M  V30 5660 H 540.536 -0.67984 -3.86161 0
M  V30 5661 H 542.026 0.26181 -4.16778 0
M  V30 5662 N 542.463 1.3308 -0.844243 0
M  V30 5663 C 543.393 2.3161 -0.296493 0
M  V30 5664 C 544.374 1.59215 0.598707 0
M  V30 5665 O 545.559 1.87077 0.521134 0
M  V30 5666 C 542.689 3.43313 0.524762 0
M  V30 5667 C 541.643 4.27115 -0.275106 0
M  V30 5668 C 540.969 5.30483 0.670236 0
M  V30 5669 C 542.269 5.00443 -1.49514 0
M  V30 5670 H 543.963 2.77672 -1.11976 0
M  V30 5671 H 541.509 1.33496 -0.539899 0
M  V30 5672 H 543.462 4.11273 0.918298 0
M  V30 5673 H 542.186 2.95952 1.3813 0
M  V30 5674 H 540.845 3.60787 -0.650267 0
M  V30 5675 H 540.493 4.79379 1.52332 0
M  V30 5676 H 540.193 5.87435 0.139123 0
M  V30 5677 H 541.717 6.01308 1.06117 0
M  V30 5678 H 543.131 5.61141 -1.17447 0
M  V30 5679 H 541.528 5.67071 -1.96343 0
M  V30 5680 H 542.598 4.28906 -2.26202 0
M  V30 5681 N 543.941 0.601185 1.45683 0
M  V30 5682 C 544.851 -0.123395 2.34275 0
M  V30 5683 C 545.867 -0.86702 1.5086 0
M  V30 5684 O 547.043 -0.826049 1.8368 0
M  V30 5685 C 544.108 -1.11237 3.2837 0
M  V30 5686 C 543.169 -0.371405 4.2769 0
M  V30 5687 C 542.402 -1.31327 5.1729 0
M  V30 5688 O 542.625 -2.55078 5.10188 0
M  V30 5689 O 541.559 -0.813811 5.96373 0
M  V30 5690 H 545.385 0.604483 2.97623 0
M  V30 5691 H 542.97 0.361477 1.44961 0
M  V30 5692 H 544.852 -1.68214 3.8637 0
M  V30 5693 H 543.527 -1.82139 2.67595 0
M  V30 5694 H 542.434 0.24067 3.73325 0
M  V30 5695 H 543.767 0.296998 4.91303 0
M  V30 5696 N 545.419 -1.53889 0.339982 0
M  V30 5697 C 546.349 -2.27843 -0.510856 0
M  V30 5698 C 547.33 -1.29267 -1.10563 0
M  V30 5699 O 548.515 -1.58104 -1.12768 0
M  V30 5700 C 545.645 -3.04857 -1.66372 0
M  V30 5701 C 544.599 -4.10907 -1.19746 0
M  V30 5702 C 543.925 -4.75855 -2.43857 0
M  V30 5703 C 545.225 -5.21435 -0.300501 0
M  V30 5704 H 546.919 -2.99212 0.106067 0
M  V30 5705 H 544.465 -1.43904 0.0524533 0
M  V30 5706 H 546.418 -3.5533 -2.26537 0
M  V30 5707 H 545.142 -2.31133 -2.30749 0
M  V30 5708 H 543.801 -3.61342 -0.618654 0
M  V30 5709 H 543.449 -3.9873 -3.06633 0
M  V30 5710 H 543.149 -5.47502 -2.13343 0
M  V30 5711 H 544.673 -5.2911 -3.04754 0
M  V30 5712 H 546.087 -5.67565 -0.80889 0
M  V30 5713 H 544.484 -6.00036 -0.0874076 0
M  V30 5714 H 545.554 -4.80328 0.664321 0
M  V30 5715 N 546.897 -0.0685191 -1.57451 0
M  V30 5716 C 548.174 0.642167 -1.84758 0
M  V30 5717 C 548.554 1.87991 -0.960344 0
M  V30 5718 O 547.902 2.28485 -0.0257894 0
M  V30 5719 C 548.112 0.982946 -3.34872 0
M  V30 5720 C 549.46 1.35784 -4.02303 0
M  V30 5721 O 550.484 1.07477 -3.39598 0
M  V30 5722 O 549.343 1.88681 -5.12895 0
M  V30 5723 H 546.437 0.318625 -0.763156 0
M  V30 5724 H 548.983 -0.0992015 -1.6941 0
M  V30 5725 H 547.755 0.10372 -3.91163 0
M  V30 5726 H 547.378 1.78119 -3.55471 0
M  V30 5727 N 548.375 1.56261 0.205012 0
M  V30 5728 C 549.652 1.70856 0.952233 0
M  V30 5729 C 550.032 0.620501 2.01775 0
M  V30 5730 O 549.38 -0.370035 2.25484 0
M  V30 5731 C 549.59 3.12807 1.54767 0
M  V30 5732 C 550.938 3.72733 2.0336 0
M  V30 5733 O 551.962 3.15873 1.64629 0
M  V30 5734 O 550.821 4.72501 2.746 0
M  V30 5735 H 547.915 0.696496 0.445895 0
M  V30 5736 H 550.461 1.6857 0.195489 0
M  V30 5737 H 549.233 3.83465 0.779132 0
M  V30 5738 H 548.856 3.1928 2.36951 0
M  V30 5739 N 549.853 -0.472356 1.50355 0
M  V30 5740 C 551.078 -1.25251 1.65309 0
M  V30 5741 C 551.503 -1.85081 0.335643 0
M  V30 5742 O 550.861 -1.67227 -0.700335 0
M  V30 5743 C 550.909 -2.3379 2.74544 0
M  V30 5744 O 550.013 -3.38401 2.35709 0
M  V30 5745 H 549.354 -0.368539 0.552336 0
M  V30 5746 H 551.884 -0.562271 1.96722 0
M  V30 5747 H 551.894 -2.79121 2.97583 0
M  V30 5748 H 550.569 -1.89614 3.70161 0
M  V30 5749 H 549.146 -2.9879 2.23112 0
M  V30 5750 N 551.331 -1.39911 -0.725443 0
M  V30 5751 C 552.608 -1.28158 -1.47766 0
M  V30 5752 C 552.988 0.104545 -2.10841 0
M  V30 5753 O 552.336 1.11657 -1.99361 0
M  V30 5754 C 552.546 -2.41306 -2.52135 0
M  V30 5755 C 553.894 -2.81076 -3.18247 0
M  V30 5756 O 554.918 -2.40827 -2.62452 0
M  V30 5757 O 553.777 -3.50581 -4.19231 0
M  V30 5758 H 550.871 -0.502761 -0.656628 0
M  V30 5759 H 553.417 -1.51808 -0.758456 0
M  V30 5760 H 552.189 -3.33932 -2.03974 0
M  V30 5761 H 551.812 -2.19374 -3.31603 0
M  V30 5762 N 552.809 0.956637 -1.25245 0
M  V30 5763 C 554.058 1.69537 -1.0927 0
M  V30 5764 C 554.371 1.92136 0.366503 0
M  V30 5765 O 555.577 2.63687 0.64665 0
M  V30 5766 C 554.033 3.05211 -1.9072 0
M  V30 5767 C 553.641 2.90416 -3.41119 0
M  V30 5768 C 555.385 3.82882 -1.83308 0
M  V30 5769 C 553.292 4.21468 -4.14872 0
M  V30 5770 H 552.222 0.635804 -0.405302 0
M  V30 5771 H 554.873 1.06513 -1.49423 0
M  V30 5772 H 553.255 3.69128 -1.43389 0
M  V30 5773 H 554.429 2.35444 -3.9611 0
M  V30 5774 H 552.744 2.26203 -3.49602 0
M  V30 5775 H 555.341 4.79944 -2.35706 0
M  V30 5776 H 555.684 4.0853 -0.800572 0
M  V30 5777 H 556.217 3.25711 -2.28379 0
M  V30 5778 H 552.956 4.01009 -5.18529 0
M  V30 5779 H 552.476 4.76213 -3.64665 0
M  V30 5780 H 554.155 4.90022 -4.22478 0
M  V30 5781 N 554.287 1.06798 1.15896 0
M  V30 5782 C 555.512 0.808739 1.90982 0
M  V30 5783 C 555.937 -0.6316 1.77179 0
M  V30 5784 O 555.295 -1.4407 1.10061 0
M  V30 5785 C 555.343 1.21468 3.39526 0
M  V30 5786 O 554.447 0.356562 4.10856 0
M  V30 5787 H 553.788 0.29512 0.594811 0
M  V30 5788 H 556.318 1.42513 1.46804 0
M  V30 5789 H 556.328 1.18844 3.90308 0
M  V30 5790 H 555.003 2.26379 3.48891 0
M  V30 5791 H 553.58 0.444808 3.70238 0
M  V30 5792 N 555.766 -1.3263 0.851289 0
M  V30 5793 C 556.696 -2.31449 0.308771 0
M  V30 5794 C 557.677 -1.59531 -0.590255 0
M  V30 5795 O 558.862 -1.87351 -0.511205 0
M  V30 5796 C 555.992 -3.43586 -0.506548 0
M  V30 5797 C 554.946 -4.26963 0.297753 0
M  V30 5798 C 554.272 -5.30831 -0.642094 0
M  V30 5799 C 555.572 -4.99643 1.52166 0
M  V30 5800 H 557.266 -2.77074 1.13447 0
M  V30 5801 H 554.812 -1.33207 0.546971 0
M  V30 5802 H 556.765 -4.11754 -0.896474 0
M  V30 5803 H 555.489 -2.96681 -1.36558 0
M  V30 5804 H 554.148 -3.60437 0.669391 0
M  V30 5805 H 553.796 -4.8018 -1.49788 0
M  V30 5806 H 553.496 -5.87501 -0.107968 0
M  V30 5807 H 555.02 -6.01862 -1.02927 0
M  V30 5808 H 556.434 -5.6051 1.20421 0
M  V30 5809 H 554.831 -5.66022 1.99347 0
M  V30 5810 H 555.901 -4.27701 2.28474 0
M  V30 5811 N 557.244 -0.608902 -1.45362 0
M  V30 5812 C 558.491 -0.104607 -2.0223 0
M  V30 5813 C 558.819 1.26534 -1.47714 0
M  V30 5814 O 558.074 1.84855 -0.642435 0
M  V30 5815 C 558.373 -0.0167296 -3.57396 0
M  V30 5816 C 558.039 -1.32251 -4.31069 0
M  V30 5817 C 556.701 -1.68019 -4.50914 0
M  V30 5818 C 559.053 -2.18542 -4.73169 0
M  V30 5819 C 556.381 -2.89828 -5.10114 0
M  V30 5820 C 558.733 -3.39602 -5.33717 0
M  V30 5821 C 557.397 -3.7562 -5.51784 0
M  V30 5822 H 556.667 -0.0382785 -0.740011 0
M  V30 5823 H 559.314 -0.790782 -1.7441 0
M  V30 5824 H 557.619 0.752715 -3.84502 0
M  V30 5825 H 559.316 0.389634 -3.99103 0
M  V30 5826 H 555.906 -1.03411 -4.15938 0
M  V30 5827 H 560.09 -1.92208 -4.5757 0
M  V30 5828 H 555.346 -3.17839 -5.22291 0
M  V30 5829 H 559.52 -4.06716 -5.65292 0
M  V30 5830 H 557.147 -4.70093 -5.97425 0
M  V30 5831 N 558.722 1.53707 -0.348139 0
M  V30 5832 C 559.968 2.01286 0.247332 0
M  V30 5833 C 560.301 1.23546 1.49834 0
M  V30 5834 O 559.576 0.324331 1.91777 0
M  V30 5835 C 559.859 3.55768 0.556858 0
M  V30 5836 C 559.712 4.44216 -0.706564 0
M  V30 5837 C 561.031 4.1841 1.3646 0
M  V30 5838 H 558.15 0.731677 0.0884201 0
M  V30 5839 H 560.792 1.84106 -0.469584 0
M  V30 5840 H 558.942 3.70539 1.16761 0
M  V30 5841 H 560.614 4.41274 -1.34444 0
M  V30 5842 H 558.857 4.12892 -1.33052 0
M  V30 5843 H 559.528 5.50202 -0.445186 0
M  V30 5844 H 562.004 4.07365 0.848113 0
M  V30 5845 H 560.88 5.26563 1.54992 0
M  V30 5846 H 561.141 3.7333 2.36805 0
M  V30 5847 N 560.2 0.0768682 1.57412 0
M  V30 5848 C 561.163 -0.873949 2.11884 0
M  V30 5849 C 562.163 -1.22301 1.04398 0
M  V30 5850 O 563.353 -1.15545 1.30365 0
M  V30 5851 C 560.485 -2.17575 2.62438 0
M  V30 5852 H 561.678 -0.401278 2.97203 0
M  V30 5853 H 559.231 -0.171904 1.55352 0
M  V30 5854 H 559.966 -2.69368 1.80587 0
M  V30 5855 H 559.751 -1.93534 3.41009 0
M  V30 5856 H 561.241 -2.85631 3.04639 0
M  V30 5857 N 561.678 -1.56367 -0.196722 0
M  V30 5858 C 562.641 -1.93561 -1.22746 0
M  V30 5859 C 563.641 -0.816566 -1.38524 0
M  V30 5860 O 564.831 -1.084 -1.36363 0
M  V30 5861 C 561.963 -2.20823 -2.59712 0
M  V30 5862 H 563.156 -2.85774 -0.909586 0
M  V30 5863 H 560.709 -1.50032 -0.438174 0
M  V30 5864 H 561.444 -1.31243 -2.96557 0
M  V30 5865 H 561.229 -3.02368 -2.49632 0
M  V30 5866 H 562.719 -2.50608 -3.34044 0
M  V30 5867 N 563.156 0.464375 -1.50603 0
M  V30 5868 C 564.405 1.21277 -1.61167 0
M  V30 5869 C 564.718 1.92953 -0.320704 0
M  V30 5870 O 565.924 2.69778 -0.30534 0
M  V30 5871 C 564.38 2.20403 -2.84518 0
M  V30 5872 C 563.988 1.54499 -4.20516 0
M  V30 5873 C 565.732 2.95843 -3.0443 0
M  V30 5874 C 563.639 2.51951 -5.35047 0
M  V30 5875 H 562.569 0.456367 -0.600204 0
M  V30 5876 H 565.22 0.48254 -1.77042 0
M  V30 5877 H 563.602 2.96746 -2.62217 0
M  V30 5878 H 564.776 0.83899 -4.53098 0
M  V30 5879 H 563.091 0.913152 -4.06264 0
M  V30 5880 H 565.688 3.6879 -3.87167 0
M  V30 5881 H 566.031 3.55622 -2.16423 0
M  V30 5882 H 566.564 2.26611 -3.26944 0
M  V30 5883 H 563.303 1.96901 -6.25228 0
M  V30 5884 H 562.823 3.20683 -5.06875 0
M  V30 5885 H 564.502 3.13643 -5.65895 0
M  V30 5886 N 564.634 1.40294 0.718013 0
M  V30 5887 C 565.883 1.37746 1.4734 0
M  V30 5888 C 566.196 -0.0180754 1.95592 0
M  V30 5889 O 567.402 -0.166166 2.70991 0
M  V30 5890 C 565.858 2.4208 2.66318 0
M  V30 5891 C 565.466 3.87432 2.24945 0
M  V30 5892 C 567.21 2.48635 3.44065 0
M  V30 5893 C 565.117 4.83368 3.40748 0
M  V30 5894 H 564.047 0.512165 0.553356 0
M  V30 5895 H 566.698 1.66019 0.781661 0
M  V30 5896 H 565.08 2.06903 3.3765 0
M  V30 5897 H 566.254 4.3174 1.6105 0
M  V30 5898 H 564.569 3.8433 1.60249 0
M  V30 5899 H 567.166 3.17499 4.30231 0
M  V30 5900 H 567.509 1.51611 3.87711 0
M  V30 5901 H 568.042 2.82791 2.79775 0
M  V30 5902 H 564.781 5.81716 3.02136 0
M  V30 5903 H 564.301 4.43726 4.03568 0
M  V30 5904 H 565.98 5.03074 4.06848 0
M  V30 5905 N 566.112 -0.949982 1.2575 0
M  V30 5906 C 567.352 -1.70994 1.11984 0
M  V30 5907 C 567.716 -1.89095 -0.332746 0
M  V30 5908 O 568.917 -2.62192 -0.592331 0
M  V30 5909 C 567.188 -3.05286 1.85837 0
M  V30 5910 S 568.747 -3.96477 1.88019 0
M  V30 5911 H 565.565 -0.587689 0.400178 0
M  V30 5912 H 568.167 -1.13271 1.59342 0
M  V30 5913 H 566.871 -2.89785 2.90608 0
M  V30 5914 H 566.402 -3.68069 1.38885 0
M  V30 5915 H 568.417 -4.86814 0.96057 0
M  V30 5916 N 567.59 -1.07411 -1.15328 0
M  V30 5917 C 568.83 -0.807011 -1.87794 0
M  V30 5918 C 569.194 0.654987 -1.80482 0
M  V30 5919 O 570.395 1.03716 -2.47985 0
M  V30 5920 C 568.666 -1.30198 -3.32841 0
M  V30 5921 S 570.225 -1.16564 -4.23034 0
M  V30 5922 H 567.043 -0.292429 -0.648079 0
M  V30 5923 H 569.645 -1.37334 -1.39139 0
M  V30 5924 H 568.349 -2.3607 -3.35707 0
M  V30 5925 H 567.88 -0.730881 -3.86551 0
M  V30 5926 H 569.895 -0.103557 -4.96092 0
M  V30 5927 N 569.068 1.32177 -0.85831 0
M  V30 5928 C 570.316 1.96735 -0.462568 0
M  V30 5929 C 570.637 1.6824 0.985911 0
M  V30 5930 O 569.907 0.991564 1.68952 0
M  V30 5931 H 568.487 0.727849 -0.168064 0
M  V30 5932 H 571.149 1.61195 -1.09554 0
M  V30 5933 H 570.245 3.06068 -0.610647 0
M  V30 5934 N 570.547 0.616602 1.45037 0
M  V30 5935 C 571.824 0.0469086 1.95544 0
M  V30 5936 C 572.204 -1.42345 1.55888 0
M  V30 5937 O 571.552 -2.13055 0.825824 0
M  V30 5938 C 571.762 0.254489 3.48071 0
M  V30 5939 C 573.11 0.140025 4.24369 0
M  V30 5940 O 574.134 0.185084 3.55719 0
M  V30 5941 O 572.993 0.0327034 5.4649 0
M  V30 5942 H 570.087 -0.0306051 0.826433 0
M  V30 5943 H 572.633 0.687293 1.55159 0
M  V30 5944 H 571.405 1.27532 3.69934 0
M  V30 5945 H 571.028 -0.42073 3.95368 0
M  V30 5946 N 572.025 -1.5352 0.356285 0
M  V30 5947 C 573.441 -1.59599 0.00485267 0
M  V30 5948 C 573.641 -1.37179 -1.47595 0
M  V30 5949 O 572.697 -1.17234 -2.23635 0
M  V30 5950 C 574.01 -2.97277 0.452454 0
M  V30 5951 C 575.558 -3.10357 0.405881 0
M  V30 5952 C 576.033 -4.50432 0.829148 0
M  V30 5953 N 577.524 -4.5652 0.783838 0
M  V30 5954 C 578.259 -5.63077 1.08315 0
M  V30 5955 N 577.755 -6.77429 1.45126 0
M  V30 5956 N 579.548 -5.53014 1.00655 0
M  V30 5957 H 571.699 -1.66346 1.32071 0
M  V30 5958 H 573.962 -0.77971 0.539218 0
M  V30 5959 H 573.668 -3.18792 1.48542 0
M  V30 5960 H 573.542 -3.76836 -0.165762 0
M  V30 5961 H 575.929 -2.88558 -0.617934 0
M  V30 5962 H 576.01 -2.32828 1.05947 0
M  V30 5963 H 575.654 -4.72968 1.85103 0
M  V30 5964 H 575.584 -5.26378 0.152906 0
M  V30 5965 H 578.075 -3.74408 0.512513 0
M  V30 5966 H 578.388 -7.54669 1.66415 0
M  V30 5967 H 576.733 -6.78844 1.48983 0
M  V30 5968 H 579.924 -4.62557 0.718215 0
M  V30 5969 H 580.097 -6.35964 1.24315 0
M  V30 5970 N 573.503 -0.0852151 -1.57369 0
M  V30 5971 C 574.914 0.445428 -1.81309 0
M  V30 5972 C 575.265 1.68795 -1.00013 0
M  V30 5973 O 574.39 2.15211 -0.226573 0
M  V30 5974 C 574.985 0.814887 -3.28854 0
M  V30 5975 C 573.544 1.29032 -3.53592 0
M  V30 5976 C 572.691 0.282089 -2.75861 0
M  V30 5977 H 575.642 -0.310771 -1.55627 0
M  V30 5978 H 575.663 1.67524 -3.41637 0
M  V30 5979 H 575.175 -0.0896309 -3.87996 0
M  V30 5980 H 573.276 2.21289 -2.9977 0
M  V30 5981 H 573.389 1.25898 -4.62262 0
M  V30 5982 H 571.753 0.762182 -2.43029 0
M  V30 5983 H 572.536 -0.614936 -3.37748 0
M  V30 5984 N 574.981 1.5647 0.188427 0
M  V30 5985 C 576.229 1.80655 0.905986 0
M  V30 5986 C 576.55 0.659391 1.83513 0
M  V30 5987 O 575.82 -0.321868 1.93238 0
M  V30 5988 H 574.4 0.666391 0.337538 0
M  V30 5989 H 577.062 1.93949 0.192339 0
M  V30 5990 H 576.158 2.74066 1.49313 0
M  V30 5991 N 576.459 -0.456382 1.50847 0
M  V30 5992 C 577.389 -1.56025 1.73719 0
M  V30 5993 C 578.37 -1.5967 0.586473 0
M  V30 5994 O 579.555 -1.75702 0.827185 0
M  V30 5995 C 576.685 -2.94251 1.84483 0
M  V30 5996 C 575.639 -3.05471 2.99786 0
M  V30 5997 C 574.965 -4.45489 2.95709 0
M  V30 5998 C 576.265 -2.81318 4.40065 0
M  V30 5999 H 577.959 -1.37138 2.66146 0
M  V30 6000 H 575.505 -0.658299 1.28072 0
M  V30 6001 H 577.458 -3.71417 1.99067 0
M  V30 6002 H 576.182 -3.14328 0.886891 0
M  V30 6003 H 574.841 -2.30741 2.84876 0
M  V30 6004 H 574.489 -4.62505 1.97732 0
M  V30 6005 H 574.189 -4.53929 3.73125 0
M  V30 6006 H 575.713 -5.24655 3.12362 0
M  V30 6007 H 577.127 -3.48226 4.55425 0
M  V30 6008 H 575.524 -3.01188 5.19043 0
M  V30 6009 H 576.594 -1.7706 4.51418 0
M  V30 6010 N 577.937 -1.40673 -0.710563 0
M  V30 6011 C 578.867 -1.44095 -1.83736 0
M  V30 6012 C 579.848 -0.301286 -1.67411 0
M  V30 6013 O 581.033 -0.510618 -1.87367 0
M  V30 6014 C 578.163 -1.30773 -3.21738 0
M  V30 6015 C 577.117 -2.42395 -3.52745 0
M  V30 6016 C 576.443 -2.14147 -4.89944 0
M  V30 6017 C 577.743 -3.84738 -3.53234 0
M  V30 6018 H 579.437 -2.38396 -1.81129 0
M  V30 6019 H 576.983 -1.14746 -0.870017 0
M  V30 6020 H 578.936 -1.31783 -4.00264 0
M  V30 6021 H 577.66 -0.329507 -3.24934 0
M  V30 6022 H 576.319 -2.40643 -2.76562 0
M  V30 6023 H 575.967 -1.14703 -4.89747 0
M  V30 6024 H 575.667 -2.88934 -5.11655 0
M  V30 6025 H 577.191 -2.16848 -5.70797 0
M  V30 6026 H 578.605 -3.88286 -4.2179 0
M  V30 6027 H 577.002 -4.59085 -3.86473 0
M  V30 6028 H 578.072 -4.13962 -2.52514 0
M  V30 6029 N 579.415 0.9433 -1.26252 0
M  V30 6030 C 580.363 2.06302 -1.07434 0
M  V30 6031 C 581.357 1.694 -0.00189471 0
M  V30 6032 O 582.563 1.79302 -0.158408 0
M  V30 6033 H 578.938 0.675453 -0.330556 0
M  V30 6034 H 580.909 2.19326 -2.02333 0
M  V30 6035 C 579.658 3.40125 -0.721817 0
M  V30 6036 H 578.981 3.68996 -1.5389 0
M  V30 6037 H 580.421 4.19295 -0.629922 0
M  V30 6038 C 578.88 3.31993 0.572902 0
M  V30 6039 O 579.41 3.67945 1.61182 0
M  V30 6040 N 577.616 2.85099 0.562748 0
M  V30 6041 H 577.163 2.5604 -0.283092 0
M  V30 6042 H 577.121 2.80041 1.42915 0
M  V30 6043 N 580.893 1.08022 1.14757 0
M  V30 6044 C 582.139 0.808705 1.85978 0
M  V30 6045 C 582.472 -0.663764 1.82504 0
M  V30 6046 O 581.747 -1.48765 1.25296 0
M  V30 6047 C 582.03 1.32623 3.34788 0
M  V30 6048 C 581.883 2.86375 3.46856 0
M  V30 6049 C 583.202 0.948291 4.29762 0
M  V30 6050 H 580.321 0.295244 0.675278 0
M  V30 6051 H 582.963 1.33917 1.34783 0
M  V30 6052 H 581.113 0.875002 3.78518 0
M  V30 6053 H 582.785 3.39839 3.11941 0
M  V30 6054 H 581.028 3.24232 2.88194 0
M  V30 6055 H 581.699 3.17658 4.51439 0
M  V30 6056 H 584.175 1.33722 3.94028 0
M  V30 6057 H 583.051 1.33765 5.32352 0
M  V30 6058 H 583.312 -0.145094 4.41862 0
M  V30 6059 N 582.371 -1.3172 0.865308 0
M  V30 6060 C 583.619 -1.96487 0.472995 0
M  V30 6061 C 583.94 -1.68761 -0.976975 0
M  V30 6062 O 583.21 -1.00051 -1.68424 0
M  V30 6063 H 581.79 -0.726947 0.171922 0
M  V30 6064 H 584.452 -1.60612 1.10407 0
M  V30 6065 H 583.548 -3.0574 0.62687 0
M  V30 6066 N 583.85 -0.624285 -1.44708 0
M  V30 6067 C 584.8 0.106466 -2.27751 0
M  V30 6068 C 585.784 0.822703 -1.38277 0
M  V30 6069 O 586.976 0.709939 -1.62138 0
M  V30 6070 C 584.105 1.092 -3.25469 0
M  V30 6071 C 583.191 0.375737 -4.22432 0
M  V30 6072 N 583.582 -0.591881 -5.02325 0
M  V30 6073 C 581.88 0.621093 -4.41654 0
M  V30 6074 C 582.581 -1.01443 -5.72786 0
M  V30 6075 N 581.557 -0.354651 -5.42442 0
M  V30 6076 H 585.359 -0.636464 -2.86926 0
M  V30 6077 H 582.873 -0.44925 -1.56062 0
M  V30 6078 H 584.87 1.63006 -3.83712 0
M  V30 6079 H 583.529 1.8353 -2.67856 0
M  V30 6080 H 584.541 -0.969389 -5.08747 0
M  V30 6081 H 581.218 1.34779 -3.95147 0
M  V30 6082 H 582.608 -1.81345 -6.46965 0
M  V30 6083 N 585.328 1.53329 -0.364422 0
M  V30 6084 C 586.577 2.00421 0.226747 0
M  V30 6085 C 586.89 1.25581 1.49963 0
M  V30 6086 O 588.096 1.63256 2.16933 0
M  V30 6087 C 586.552 3.57017 0.454618 0
M  V30 6088 C 586.16 4.40734 -0.803568 0
M  V30 6089 C 587.904 4.12468 1.00351 0
M  V30 6090 C 585.811 5.8888 -0.545345 0
M  V30 6091 H 584.741 0.748787 0.0885082 0
M  V30 6092 H 587.392 1.7703 -0.482983 0
M  V30 6093 H 585.774 3.76558 1.22558 0
M  V30 6094 H 586.948 4.32967 -1.57723 0
M  V30 6095 H 585.263 3.96381 -1.27559 0
M  V30 6096 H 587.86 5.20783 1.212 0
M  V30 6097 H 588.203 3.6699 1.9653 0
M  V30 6098 H 588.736 3.96721 0.29274 0
M  V30 6099 H 585.475 6.38633 -1.47743 0
M  V30 6100 H 584.995 5.99499 0.189842 0
M  V30 6101 H 586.674 6.46776 -0.170425 0
M  V30 6102 N 586.806 0.0935595 1.57322 0
M  V30 6103 C 587.716 -0.880192 2.17462 0
M  V30 6104 C 588.732 -1.31135 1.14366 0
M  V30 6105 O 589.908 -1.37958 1.46729 0
M  V30 6106 C 586.973 -2.12184 2.74188 0
M  V30 6107 C 586.034 -1.74503 3.92234 0
M  V30 6108 C 585.267 -2.92748 4.46245 0
M  V30 6109 O 585.49 -4.07427 3.99198 0
M  V30 6110 O 584.424 -2.71303 5.37288 0
M  V30 6111 H 588.25 -0.398516 3.01074 0
M  V30 6112 H 585.835 -0.130707 1.48827 0
M  V30 6113 H 587.717 -2.84953 3.10451 0
M  V30 6114 H 586.392 -2.59407 1.93623 0
M  V30 6115 H 585.299 -0.989186 3.60785 0
M  V30 6116 H 586.632 -1.32044 4.74157 0
M  V30 6117 N 588.284 -1.56567 -0.180126 0
M  V30 6118 C 589.231 -1.95725 -1.22313 0
M  V30 6119 C 590.201 -0.819911 -1.44453 0
M  V30 6120 O 591.386 -1.07931 -1.57339 0
M  V30 6121 C 588.526 -2.31484 -2.55947 0
M  V30 6122 C 587.639 -3.58354 -2.4126 0
M  V30 6123 C 586.774 -3.83366 -3.67701 0
M  V30 6124 C 585.813 -5.03612 -3.47909 0
M  V30 6125 N 584.95 -5.24802 -4.66398 0
M  V30 6126 H 589.79 -2.84642 -0.882198 0
M  V30 6127 H 587.327 -1.4085 -0.42422 0
M  V30 6128 H 589.285 -2.50237 -3.33822 0
M  V30 6129 H 587.915 -1.45689 -2.88053 0
M  V30 6130 H 586.967 -3.47565 -1.54606 0
M  V30 6131 H 588.279 -4.46386 -2.22577 0
M  V30 6132 H 587.433 -4.02439 -4.54013 0
M  V30 6133 H 586.172 -2.93692 -3.89353 0
M  V30 6134 H 585.177 -4.84447 -2.59983 0
M  V30 6135 H 586.402 -5.94809 -3.27688 0
M  V30 6136 H 584.348 -4.38079 -4.88286 0
M  V30 6137 H 584.265 -6.07041 -4.50596 0
M  V30 6138 H 585.533 -5.48346 -5.54019 0
M  V30 6139 N 589.762 0.448376 -1.51087 0
M  V30 6140 C 590.695 1.56298 -1.66272 0
M  V30 6141 C 591.673 1.54381 -0.510419 0
M  V30 6142 O 592.857 1.73671 -0.732854 0
M  V30 6143 C 589.984 2.94883 -1.66618 0
M  V30 6144 C 589.03 3.14868 -2.87681 0
M  V30 6145 S 589.863 2.9234 -4.48662 0
M  V30 6146 C 591.019 4.33227 -4.51735 0
M  V30 6147 H 591.252 1.43182 -2.6055 0
M  V30 6148 H 588.785 0.637309 -1.40633 0
M  V30 6149 H 590.743 3.74771 -1.67502 0
M  V30 6150 H 589.404 3.05371 -0.735358 0
M  V30 6151 H 588.597 4.16166 -2.84292 0
M  V30 6152 H 588.199 2.42788 -2.84482 0
M  V30 6153 H 590.491 5.26247 -4.26697 0
M  V30 6154 H 591.434 4.41653 -5.53487 0
M  V30 6155 H 591.842 4.16367 -3.81181 0
M  V30 6156 N 591.24 1.41047 0.703093 0
M  V30 6157 C 592.172 1.38228 1.82827 0
M  V30 6158 C 593.185 0.285637 1.60275 0
M  V30 6159 O 594.374 0.54685 1.69917 0
M  V30 6160 C 591.474 1.13136 3.19458 0
M  V30 6161 C 590.647 2.34695 3.69103 0
M  V30 6162 C 589.706 2.05574 4.84382 0
M  V30 6163 O 588.732 2.78549 4.96386 0
M  V30 6164 N 589.934 1.04135 5.71083 0
M  V30 6165 H 592.699 2.35203 1.85741 0
M  V30 6166 H 590.26 1.35562 0.885125 0
M  V30 6167 H 592.252 0.916183 3.94193 0
M  V30 6168 H 590.822 0.247836 3.11616 0
M  V30 6169 H 590.042 2.71963 2.85359 0
M  V30 6170 H 591.33 3.15705 3.99009 0
M  V30 6171 H 590.728 0.43722 5.64008 0
M  V30 6172 H 589.285 0.886078 6.45749 0
M  V30 6173 N 592.718 -0.936591 1.26751 0
M  V30 6174 C 593.628 -2.06949 1.10496 0
M  V30 6175 C 594.644 -1.7396 0.037271 0
M  V30 6176 O 595.82 -1.99941 0.241944 0
M  V30 6177 C 592.885 -3.38612 0.744491 0
M  V30 6178 C 591.946 -3.85355 1.89209 0
M  V30 6179 C 591.179 -5.10735 1.54873 0
M  V30 6180 O 591.402 -5.68602 0.452546 0
M  V30 6181 O 590.336 -5.52632 2.38499 0
M  V30 6182 H 594.162 -2.23571 2.05547 0
M  V30 6183 H 591.747 -1.05428 1.05855 0
M  V30 6184 H 593.629 -4.17711 0.556396 0
M  V30 6185 H 592.304 -3.23218 -0.176582 0
M  V30 6186 H 591.211 -3.07182 2.13518 0
M  V30 6187 H 592.544 -4.05277 2.79305 0
M  V30 6188 N 594.196 -1.08629 -1.14182 0
M  V30 6189 C 595.444 -0.815731 -1.84906 0
M  V30 6190 C 595.765 0.660441 -1.83475 0
M  V30 6191 O 595.035 1.47888 -1.28476 0
M  V30 6192 H 593.615 -0.298773 -0.684648 0
M  V30 6193 H 596.277 -1.37274 -1.38354 0
M  V30 6194 H 595.373 -1.16193 -2.89665 0
M  V30 6195 N 595.674 1.31259 -0.872281 0
M  V30 6196 C 596.923 1.95893 -0.480493 0
M  V30 6197 C 597.236 1.697 0.972688 0
M  V30 6198 O 598.442 2.28214 1.47073 0
M  V30 6199 C 596.898 3.50705 -0.808342 0
M  V30 6200 C 596.506 3.85735 -2.27844 0
M  V30 6201 C 598.25 4.21719 -0.485136 0
M  V30 6202 C 596.157 5.33668 -2.54858 0
M  V30 6203 H 595.087 0.733182 -0.175955 0
M  V30 6204 H 597.738 1.49396 -1.0655 0
M  V30 6205 H 596.12 3.95706 -0.152558 0
M  V30 6206 H 597.294 3.51686 -2.97748 0
M  V30 6207 H 595.609 3.27792 -2.56791 0
M  V30 6208 H 598.206 5.30559 -0.664166 0
M  V30 6209 H 598.549 4.12316 0.574592 0
M  V30 6210 H 599.082 3.82359 -1.09756 0
M  V30 6211 H 595.821 5.48109 -3.59523 0
M  V30 6212 H 595.341 5.69061 -1.8955 0
M  V30 6213 H 597.02 6.00958 -2.39706 0
M  V30 6214 N 597.152 0.631951 1.44375 0
M  V30 6215 C 598.398 0.13697 2.02337 0
M  V30 6216 C 598.731 -1.23826 1.49602 0
M  V30 6217 O 598.006 -1.8221 0.680415 0
M  V30 6218 C 598.289 0.124536 3.59885 0
M  V30 6219 C 598.142 1.53217 4.229 0
M  V30 6220 C 599.461 -0.550481 4.36644 0
M  V30 6221 H 596.58 0.051247 0.735216 0
M  V30 6222 H 599.222 0.808581 1.71936 0
M  V30 6223 H 597.372 -0.44737 3.85916 0
M  V30 6224 H 599.044 2.15303 4.07973 0
M  V30 6225 H 597.287 2.0858 3.80364 0
M  V30 6226 H 597.958 1.4755 5.31914 0
M  V30 6227 H 600.434 -0.0641154 4.16051 0
M  V30 6228 H 599.31 -0.528371 5.46351 0
M  V30 6229 H 599.571 -1.62097 4.11311 0
M  V30 6230 N 598.631 -1.53133 0.372548 0
M  V30 6231 C 599.581 -2.22733 -0.487218 0
M  V30 6232 C 600.565 -1.22506 -1.04312 0
M  V30 6233 O 601.757 -1.47923 -0.972005 0
M  V30 6234 C 598.886 -3.02524 -1.62278 0
M  V30 6235 C 597.972 -4.10133 -1.07943 0
M  V30 6236 N 598.363 -5.05133 -0.259629 0
M  V30 6237 C 596.661 -4.24964 -1.35356 0
M  V30 6238 C 597.362 -5.81687 0.0386656 0
M  V30 6239 N 596.338 -5.40699 -0.560827 0
M  V30 6240 H 600.14 -2.93538 0.145853 0
M  V30 6241 H 597.654 -1.61389 0.180938 0
M  V30 6242 H 599.651 -3.50909 -2.25096 0
M  V30 6243 H 598.311 -2.33252 -2.25884 0
M  V30 6244 H 599.322 -5.178 0.101746 0
M  V30 6245 H 595.999 -3.66919 -1.9919 0
M  V30 6246 H 597.389 -6.68224 0.701841 0
M  V30 6247 N 600.109 -0.101901 -1.5727 0
M  V30 6248 C 601.355 0.561027 -1.94885 0
M  V30 6249 C 601.688 1.6741 -0.984258 0
M  V30 6250 O 600.963 1.94491 -0.0184767 0
M  V30 6251 C 601.246 1.10982 -3.42571 0
M  V30 6252 C 601.099 0.00133418 -4.498 0
M  V30 6253 C 602.418 2.00608 -3.9172 0
M  V30 6254 H 599.537 0.202467 -0.708644 0
M  V30 6255 H 602.179 -0.173992 -1.89202 0
M  V30 6256 H 600.329 1.73621 -3.47546 0
M  V30 6257 H 602.001 -0.63322 -4.56933 0
M  V30 6258 H 600.244 -0.664143 -4.28686 0
M  V30 6259 H 600.915 0.426253 -5.50352 0
M  V30 6260 H 603.391 1.47864 -3.88941 0
M  V30 6261 H 602.267 2.3593 -4.95609 0
M  V30 6262 H 602.528 2.92608 -3.3141 0
M  V30 6263 N 601.587 1.56661 0.17182 0
M  V30 6264 C 602.517 1.99401 1.21498 0
M  V30 6265 C 603.498 0.869516 1.46197 0
M  V30 6266 O 604.683 1.13556 1.57539 0
M  V30 6267 C 601.813 2.35346 2.55401 0
M  V30 6268 C 600.767 3.5075 2.45272 0
M  V30 6269 C 600.093 3.72437 3.8366 0
M  V30 6270 C 601.393 4.84216 1.95787 0
M  V30 6271 H 603.087 2.86792 0.859699 0
M  V30 6272 H 600.633 1.37977 0.412103 0
M  V30 6273 H 602.586 2.63843 3.2858 0
M  V30 6274 H 601.31 1.44864 2.92715 0
M  V30 6275 H 599.969 3.2238 1.74547 0
M  V30 6276 H 599.617 2.79246 4.18367 0
M  V30 6277 H 599.317 4.50087 3.77751 0
M  V30 6278 H 600.841 4.03334 4.58426 0
M  V30 6279 H 602.255 5.11592 2.5874 0
M  V30 6280 H 600.652 5.65498 2.00827 0
M  V30 6281 H 601.722 4.76243 0.912159 0
M  V30 6282 N 603.065 -0.440357 1.51323 0
M  V30 6283 C 604.481 -0.7766 1.39431 0
M  V30 6284 C 604.681 -1.95838 0.474296 0
M  V30 6285 O 603.737 -2.52398 -0.0716692 0
M  V30 6286 C 605.05 -1.05981 2.81405 0
M  V30 6287 C 606.598 -1.16442 2.90534 0
M  V30 6288 C 607.073 -1.48058 4.33408 0
M  V30 6289 N 608.564 -1.54988 4.36501 0
M  V30 6290 C 609.299 -1.81017 5.44078 0
M  V30 6291 N 608.795 -2.04858 6.61819 0
M  V30 6292 N 610.588 -1.82774 5.31554 0
M  V30 6293 H 602.739 0.338006 2.09693 0
M  V30 6294 H 605.002 0.0888072 0.943831 0
M  V30 6295 H 604.708 -0.264173 3.50706 0
M  V30 6296 H 604.582 -1.98822 3.20546 0
M  V30 6297 H 606.969 -1.95068 2.21432 0
M  V30 6298 H 607.05 -0.215088 2.54894 0
M  V30 6299 H 606.694 -0.699605 5.03059 0
M  V30 6300 H 606.624 -2.44192 4.66559 0
M  V30 6301 H 609.115 -1.38479 3.51613 0
M  V30 6302 H 609.428 -2.2408 7.396 0
M  V30 6303 H 607.773 -2.02187 6.6494 0
M  V30 6304 H 610.964 -1.63665 4.38556 0
M  V30 6305 H 611.137 -2.02722 6.15474 0
M  V30 6306 N 604.543 -1.41418 -0.695603 0
M  V30 6307 C 605.473 -1.46035 -1.82197 0
M  V30 6308 C 606.454 -0.319025 -1.67082 0
M  V30 6309 O 607.639 -0.530462 -1.86815 0
M  V30 6310 C 604.769 -1.34179 -3.20333 0
M  V30 6311 C 603.723 -2.46123 -3.50154 0
M  V30 6312 C 603.049 -2.19332 -4.87645 0
M  V30 6313 C 604.349 -3.88463 -3.49133 0
M  V30 6314 H 606.043 -2.40303 -1.78591 0
M  V30 6315 H 603.589 -1.15663 -0.857797 0
M  V30 6316 H 605.542 -1.36021 -3.98844 0
M  V30 6317 H 604.266 -0.363952 -3.24566 0
M  V30 6318 H 602.925 -2.43563 -2.73994 0
M  V30 6319 H 602.573 -1.19891 -4.88503 0
M  V30 6320 H 602.273 -2.94344 -5.08562 0
M  V30 6321 H 603.797 -2.22889 -5.68465 0
M  V30 6322 H 605.211 -3.92738 -4.17648 0
M  V30 6323 H 603.608 -4.63158 -3.81582 0
M  V30 6324 H 604.678 -4.16617 -2.48109 0
M  V30 6325 N 606.021 0.929856 -1.27246 0
M  V30 6326 C 606.971 2.01629 -1.06442 0
M  V30 6327 C 607.955 1.60899 0.00687842 0
M  V30 6328 O 609.147 1.75733 -0.211407 0
M  V30 6329 C 606.276 3.35849 -0.711361 0
M  V30 6330 C 605.362 3.8303 -1.82069 0
M  V30 6331 N 605.753 4.02743 -3.05993 0
M  V30 6332 C 604.051 4.12046 -1.70687 0
M  V30 6333 C 604.752 4.42001 -3.78167 0
M  V30 6334 N 603.728 4.4935 -3.05918 0
M  V30 6335 H 607.53 2.14898 -2.00489 0
M  V30 6336 H 605.044 1.11654 -1.17929 0
M  V30 6337 H 607.041 4.13343 -0.543442 0
M  V30 6338 H 605.701 3.23944 0.221517 0
M  V30 6339 H 606.712 3.89112 -3.41778 0
M  V30 6340 H 603.389 4.08866 -0.844681 0
M  V30 6341 H 604.779 4.6535 -4.84664 0
M  V30 6342 N 607.499 1.09233 1.13605 0
M  V30 6343 C 608.429 0.751738 2.21068 0
M  V30 6344 C 609.41 -0.269688 1.67948 0
M  V30 6345 O 610.595 -0.13819 1.93708 0
M  V30 6346 C 607.725 0.16935 3.46887 0
M  V30 6347 C 606.679 1.12007 4.13084 0
M  V30 6348 C 606.005 0.399483 5.33206 0
M  V30 6349 C 607.305 2.46168 4.6065 0
M  V30 6350 H 608.999 1.65024 2.49815 0
M  V30 6351 H 606.545 0.794905 1.20072 0
M  V30 6352 H 608.498 -0.0809824 4.21322 0
M  V30 6353 H 607.222 -0.764335 3.1753 0
M  V30 6354 H 605.881 1.35564 3.40614 0
M  V30 6355 H 605.529 -0.538277 5.00112 0
M  V30 6356 H 605.229 1.03337 5.78442 0
M  V30 6357 H 606.753 0.157403 6.10397 0
M  V30 6358 H 608.167 2.26829 5.26518 0
M  V30 6359 H 606.564 3.05326 5.1662 0
M  V30 6360 H 607.634 3.07076 3.75276 0
M  V30 6361 N 608.977 -1.30795 0.87923 0
M  V30 6362 C 609.909 -2.27241 0.299025 0
M  V30 6363 C 610.922 -1.53472 -0.543166 0
M  V30 6364 O 612.111 -1.74756 -0.363651 0
M  V30 6365 C 609.211 -3.33655 -0.593931 0
M  V30 6366 C 608.384 -4.36857 0.2179 0
M  V30 6367 C 607.443 -5.22715 -0.604646 0
M  V30 6368 O 606.469 -5.69192 -0.0293838 0
M  V30 6369 N 607.671 -5.48008 -1.91488 0
M  V30 6370 H 610.436 -2.77667 1.12788 0
M  V30 6371 H 607.997 -1.43914 0.741637 0
M  V30 6372 H 609.989 -3.88013 -1.15012 0
M  V30 6373 H 608.559 -2.83202 -1.32346 0
M  V30 6374 H 607.779 -3.82444 0.955536 0
M  V30 6375 H 609.067 -5.02869 0.774614 0
M  V30 6376 H 608.465 -5.1202 -2.40525 0
M  V30 6377 H 607.022 -6.05264 -2.41864 0
M  V30 6378 N 610.455 -0.639598 -1.44038 0
M  V30 6379 C 611.68 -0.153117 -2.06834 0
M  V30 6380 C 612.105 1.16676 -1.47541 0
M  V30 6381 O 611.463 1.71769 -0.580093 0
M  V30 6382 C 611.511 -0.0609169 -3.60549 0
M  V30 6383 O 610.615 0.98071 -4.00569 0
M  V30 6384 H 609.956 -0.0886402 -0.658057 0
M  V30 6385 H 612.486 -0.878674 -1.84771 0
M  V30 6386 H 612.496 0.126892 -4.07803 0
M  V30 6387 H 611.171 -1.0245 -4.03084 0
M  V30 6388 H 609.748 0.766789 -3.64931 0
M  V30 6389 N 611.933 1.52934 -0.380664 0
M  V30 6390 C 612.881 2.27727 0.47361 0
M  V30 6391 C 613.875 1.31288 1.0705 0
M  V30 6392 O 615.081 1.4886 1.01197 0
M  V30 6393 H 611.456 0.732189 0.171475 0
M  V30 6394 H 613.427 2.97864 -0.178785 0
M  V30 6395 C 612.176 3.0904 1.59341 0
M  V30 6396 H 611.499 3.831 1.14343 0
M  V30 6397 H 612.939 3.64527 2.16555 0
M  V30 6398 C 611.398 2.20813 2.54447 0
M  V30 6399 O 611.928 1.82907 3.57642 0
M  V30 6400 N 610.134 1.85145 2.23986 0
M  V30 6401 H 609.681 2.16169 1.40103 0
M  V30 6402 H 609.639 1.26402 2.87871 0
M  V30 6403 N 613.412 0.11024 1.57214 0
M  V30 6404 C 614.362 -0.854147 2.11396 0
M  V30 6405 C 615.346 -1.23394 1.03261 0
M  V30 6406 O 616.538 -1.20649 1.2951 0
M  V30 6407 C 613.667 -2.10752 2.70995 0
M  V30 6408 C 612.753 -1.75249 3.86198 0
M  V30 6409 N 613.144 -1.10377 4.9361 0
M  V30 6410 C 611.442 -2.04763 3.96217 0
M  V30 6411 C 612.143 -0.938199 5.74084 0
M  V30 6412 N 611.119 -1.46039 5.23616 0
M  V30 6413 H 614.921 -0.348897 2.91822 0
M  V30 6414 H 612.435 -0.0925071 1.62136 0
M  V30 6415 H 614.432 -2.80801 3.0815 0
M  V30 6416 H 613.092 -2.61829 1.9203 0
M  V30 6417 H 614.103 -0.768785 5.12162 0
M  V30 6418 H 610.78 -2.57948 3.28282 0
M  V30 6419 H 612.17 -0.429678 6.70525 0
M  V30 6420 N 614.89 -1.56749 -0.16351 0
M  V30 6421 C 616.301 -1.72039 -0.725216 0
M  V30 6422 C 616.652 -0.72202 -1.82432 0
M  V30 6423 O 615.777 0.114942 -2.16095 0
M  V30 6424 C 616.372 -3.11932 -1.32227 0
M  V30 6425 C 614.931 -3.28879 -1.83072 0
M  V30 6426 C 614.078 -2.67984 -0.712716 0
M  V30 6427 H 617.029 -1.58579 0.0619772 0
M  V30 6428 H 617.05 -3.11015 -2.19202 0
M  V30 6429 H 616.562 -3.84572 -0.522103 0
M  V30 6430 H 614.663 -2.61209 -2.65708 0
M  V30 6431 H 614.776 -4.36688 -1.97079 0
M  V30 6432 H 613.14 -2.28005 -1.13515 0
M  V30 6433 H 613.923 -3.43216 0.0757361 0
M  V30 6434 N 616.368 0.432326 -1.51554 0
M  V30 6435 C 617.645 1.19288 -1.55015 0
M  V30 6436 C 618.025 2.08701 -0.317375 0
M  V30 6437 O 617.373 2.17602 0.697243 0
M  V30 6438 C 617.583 1.99037 -2.86679 0
M  V30 6439 C 618.931 2.55907 -3.38817 0
M  V30 6440 O 619.955 2.09243 -2.88263 0
M  V30 6441 O 618.814 3.41029 -4.27038 0
M  V30 6442 H 615.908 0.543369 -0.623441 0
M  V30 6443 H 618.454 0.440988 -1.6387 0
M  V30 6444 H 617.226 1.33397 -3.6786 0
M  V30 6445 H 616.849 2.81281 -2.8101 0
M  V30 6446 N 617.846 1.41785 0.688094 0
M  V30 6447 C 619.123 1.32031 1.44316 0
M  V30 6448 C 619.503 -0.0486079 2.11044 0
M  V30 6449 O 618.851 -1.06332 2.02252 0
M  V30 6450 C 619.061 2.47906 2.45649 0
M  V30 6451 C 620.409 2.89415 3.10683 0
M  V30 6452 O 621.433 2.477 2.55975 0
M  V30 6453 O 620.292 3.61573 4.09789 0
M  V30 6454 H 617.386 0.519994 0.643067 0
M  V30 6455 H 619.932 1.53765 0.71794 0
M  V30 6456 H 618.704 3.39222 1.95048 0
M  V30 6457 H 618.327 2.28089 3.25671 0
M  V30 6458 N 619.324 -0.923095 1.27737 0
M  V30 6459 C 620.573 -1.66581 1.13727 0
M  V30 6460 C 620.886 -1.9304 -0.315433 0
M  V30 6461 O 622.092 -2.65309 -0.57651 0
M  V30 6462 C 620.548 -3.00047 1.98745 0
M  V30 6463 C 620.156 -2.8127 3.48699 0
M  V30 6464 C 621.9 -3.77887 1.93395 0
M  V30 6465 C 619.807 -4.1032 4.25901 0
M  V30 6466 H 618.737 -0.624834 0.422017 0
M  V30 6467 H 621.388 -1.02514 1.52194 0
M  V30 6468 H 619.77 -3.65197 1.53125 0
M  V30 6469 H 620.944 -2.24859 4.02213 0
M  V30 6470 H 619.259 -2.16854 3.55476 0
M  V30 6471 H 621.856 -4.73526 2.48348 0
M  V30 6472 H 622.199 -4.06264 0.908605 0
M  V30 6473 H 622.732 -3.19541 2.36935 0
M  V30 6474 H 619.471 -3.8712 5.28978 0
M  V30 6475 H 618.991 -4.66377 3.77163 0
M  V30 6476 H 620.67 -4.78648 4.35321 0
M  V30 6477 N 620.802 -1.09834 -1.13024 0
M  V30 6478 C 622.049 -0.83695 -1.84395 0
M  V30 6479 C 622.377 0.637463 -1.83757 0
M  V30 6480 O 621.632 1.48554 -1.27398 0
M  V30 6481 C 621.931 -1.32263 -3.32026 0
M  V30 6482 C 621.597 -2.80739 -3.52841 0
M  V30 6483 C 620.259 -3.21286 -3.5823 0
M  V30 6484 C 622.611 -3.76449 -3.60466 0
M  V30 6485 C 619.939 -4.56308 -3.68781 0
M  V30 6486 C 622.291 -5.11266 -3.72546 0
M  V30 6487 C 620.955 -5.51397 -3.76189 0
M  V30 6488 H 620.225 -0.306262 -0.674748 0
M  V30 6489 H 622.872 -1.37385 -1.33408 0
M  V30 6490 H 621.177 -0.705618 -3.85394 0
M  V30 6491 H 622.874 -1.09695 -3.85705 0
M  V30 6492 H 619.464 -2.48363 -3.49305 0
M  V30 6493 H 623.648 -3.46234 -3.55578 0
M  V30 6494 H 618.904 -4.86832 -3.69871 0
M  V30 6495 H 623.078 -5.85279 -3.77388 0
M  V30 6496 H 620.705 -6.56017 -3.84117 0
M  V30 6497 N 622.28 1.30327 -0.886154 0
M  V30 6498 C 623.21 2.30549 -0.370028 0
M  V30 6499 C 624.191 1.61039 0.547751 0
M  V30 6500 O 625.376 1.8864 0.461353 0
M  V30 6501 C 622.506 3.44808 0.415275 0
M  V30 6502 C 621.46 4.26024 -0.41085 0
M  V30 6503 C 620.786 5.32347 0.501128 0
M  V30 6504 C 622.086 4.95433 -1.65359 0
M  V30 6505 H 623.78 2.73969 -1.20754 0
M  V30 6506 H 621.326 1.3171 -0.582097 0
M  V30 6507 H 623.279 4.13986 0.78699 0
M  V30 6508 H 622.003 3.00197 1.28644 0
M  V30 6509 H 620.662 3.58535 -0.764719 0
M  V30 6510 H 620.31 4.83982 1.37004 0
M  V30 6511 H 620.01 5.87581 -0.0478356 0
M  V30 6512 H 621.534 6.0438 0.869333 0
M  V30 6513 H 622.948 5.5712 -1.35239 0
M  V30 6514 H 621.345 5.60537 -2.14284 0
M  V30 6515 H 622.415 4.21493 -2.39733 0
M  V30 6516 N 623.758 0.647228 1.43697 0
M  V30 6517 C 625.005 0.158188 2.01881 0
M  V30 6518 C 625.333 -1.22573 1.51017 0
M  V30 6519 O 624.588 -1.83086 0.69122 0
M  V30 6520 C 624.887 0.111481 3.57226 0
M  V30 6521 C 624.553 1.43633 4.27411 0
M  V30 6522 C 623.215 1.79915 4.463 0
M  V30 6523 C 625.567 2.31011 4.67208 0
M  V30 6524 C 622.895 3.03251 5.02251 0
M  V30 6525 C 625.247 3.53633 5.24525 0
M  V30 6526 C 623.911 3.90118 5.41631 0
M  V30 6527 H 623.181 0.0578851 0.738736 0
M  V30 6528 H 625.828 0.836746 1.72252 0
M  V30 6529 H 624.133 -0.650507 3.86362 0
M  V30 6530 H 625.83 -0.283682 3.99995 0
M  V30 6531 H 622.42 1.14403 4.1305 0
M  V30 6532 H 626.604 2.04272 4.52313 0
M  V30 6533 H 621.86 3.31575 5.13681 0
M  V30 6534 H 626.034 4.21561 5.5431 0
M  V30 6535 H 623.661 4.85768 5.84751 0
M  V30 6536 N 625.236 -1.5273 0.388769 0
M  V30 6537 C 626.647 -1.86505 -0.0853788 0
M  V30 6538 C 626.998 -1.30847 -1.46197 0
M  V30 6539 O 626.123 -0.639609 -2.06732 0
M  V30 6540 C 626.718 -3.38414 -0.161703 0
M  V30 6541 C 625.277 -3.71902 -0.580144 0
M  V30 6542 C 624.424 -2.76095 0.258218 0
M  V30 6543 H 627.375 -1.46647 0.606665 0
M  V30 6544 H 627.396 -3.67638 -0.980936 0
M  V30 6545 H 626.908 -3.78893 0.840333 0
M  V30 6546 H 625.009 -3.36992 -1.58957 0
M  V30 6547 H 625.122 -4.77902 -0.338663 0
M  V30 6548 H 623.486 -2.53195 -0.276432 0
M  V30 6549 H 624.269 -3.19411 1.25822 0
M  V30 6550 N 626.714 -0.118576 -1.57153 0
M  V30 6551 C 627.661 0.831789 -2.1529 0
M  V30 6552 C 628.631 1.26385 -1.07778 0
M  V30 6553 O 629.816 1.34144 -1.35684 0
M  V30 6554 C 626.956 2.07664 -2.75626 0
M  V30 6555 C 626.069 1.69298 -3.97444 0
M  V30 6556 C 625.204 2.88747 -4.45868 0
M  V30 6557 C 624.243 2.46619 -5.60219 0
M  V30 6558 N 623.38 3.5898 -6.03389 0
M  V30 6559 H 628.22 0.329183 -2.96176 0
M  V30 6560 H 625.757 0.150792 -1.46325 0
M  V30 6561 H 627.715 2.80601 -3.08738 0
M  V30 6562 H 626.345 2.55384 -1.97431 0
M  V30 6563 H 625.397 0.862374 -3.70496 0
M  V30 6564 H 626.709 1.34338 -4.80369 0
M  V30 6565 H 625.863 3.69909 -4.80887 0
M  V30 6566 H 624.602 3.26933 -3.61892 0
M  V30 6567 H 623.607 1.63889 -5.24805 0
M  V30 6568 H 624.832 2.0955 -6.45961 0
M  V30 6569 H 622.778 3.9684 -5.22354 0
M  V30 6570 H 622.695 3.27942 -6.81168 0
M  V30 6571 H 623.963 4.40583 -6.43045 0
M  V30 6572 N 628.193 1.56834 0.155195 0
M  V30 6573 C 629.123 2.00678 1.19376 0
M  V30 6574 C 630.104 0.884973 1.45266 0
M  V30 6575 O 631.289 1.1522 1.56326 0
M  V30 6576 C 628.419 2.38042 2.5289 0
M  V30 6577 C 627.373 3.53332 2.41538 0
M  V30 6578 C 626.699 3.76485 3.79688 0
M  V30 6579 C 627.999 4.86265 1.9064 0
M  V30 6580 H 629.693 2.87688 0.829232 0
M  V30 6581 H 627.239 1.38407 0.397445 0
M  V30 6582 H 629.192 2.67314 3.25763 0
M  V30 6583 H 627.916 1.4796 2.91162 0
M  V30 6584 H 626.575 3.24213 1.71117 0
M  V30 6585 H 626.223 2.83667 4.15382 0
M  V30 6586 H 625.923 4.54068 3.72956 0
M  V30 6587 H 627.447 4.08174 4.54122 0
M  V30 6588 H 628.861 5.14308 2.53299 0
M  V30 6589 H 627.258 5.67597 1.94818 0
M  V30 6590 H 628.328 4.77184 0.861596 0
M  V30 6591 N 629.671 -0.424282 1.51781 0
M  V30 6592 C 630.601 -1.52305 1.7699 0
M  V30 6593 C 631.582 -1.5839 0.620209 0
M  V30 6594 O 632.767 -1.73908 0.864268 0
M  V30 6595 C 629.897 -2.90271 1.90683 0
M  V30 6596 C 628.851 -2.99043 3.06198 0
M  V30 6597 C 628.177 -4.39116 3.05092 0
M  V30 6598 C 629.477 -2.7192 4.45934 0
M  V30 6599 H 631.171 -1.31461 2.68995 0
M  V30 6600 H 628.717 -0.630985 1.29439 0
M  V30 6601 H 630.67 -3.6711 2.06901 0
M  V30 6602 H 629.394 -3.12376 0.953365 0
M  V30 6603 H 628.053 -2.24646 2.89706 0
M  V30 6604 H 627.701 -4.58207 2.07498 0
M  V30 6605 H 627.401 -4.45912 3.82669 0
M  V30 6606 H 628.925 -5.17911 3.2342 0
M  V30 6607 H 630.339 -3.38487 4.62709 0
M  V30 6608 H 628.736 -2.90111 5.25315 0
M  V30 6609 H 629.806 -1.67445 4.55072 0
M  V30 6610 N 631.149 -1.42148 -0.680565 0
M  V30 6611 C 632.081 -1.41119 -1.80605 0
M  V30 6612 C 633.094 -0.311099 -1.598 0
M  V30 6613 O 634.283 -0.573813 -1.69026 0
M  V30 6614 C 631.383 -1.18204 -3.17618 0
M  V30 6615 C 630.556 -2.40537 -3.65322 0
M  V30 6616 C 629.615 -2.13254 -4.8105 0
M  V30 6617 O 628.641 -2.8641 -4.91892 0
M  V30 6618 N 629.843 -1.13208 -5.69354 0
M  V30 6619 H 632.608 -2.38128 -1.81975 0
M  V30 6620 H 630.169 -1.36953 -0.863446 0
M  V30 6621 H 632.161 -0.97878 -3.92686 0
M  V30 6622 H 630.731 -0.29738 -3.11182 0
M  V30 6623 H 629.951 -2.76468 -2.80996 0
M  V30 6624 H 631.239 -3.22012 -3.93936 0
M  V30 6625 H 630.637 -0.526893 -5.63241 0
M  V30 6626 H 629.194 -0.988699 -6.44258 0
M  V30 6627 N 632.627 0.916307 -1.28225 0
M  V30 6628 C 633.574 2.01841 -1.11932 0
M  V30 6629 C 634.544 1.66091 -0.0171604 0
M  V30 6630 O 635.729 1.89934 -0.181617 0
M  V30 6631 C 632.869 3.36065 -0.784504 0
M  V30 6632 C 631.982 3.847 -1.96544 0
M  V30 6633 C 631.117 5.07423 -1.57149 0
M  V30 6634 C 630.156 5.48384 -2.71922 0
M  V30 6635 N 629.293 6.62298 -2.33037 0
M  V30 6636 H 634.133 2.1511 -2.06232 0
M  V30 6637 H 631.67 1.05366 -1.02647 0
M  V30 6638 H 633.628 4.13272 -0.571148 0
M  V30 6639 H 632.258 3.22571 0.121565 0
M  V30 6640 H 631.31 3.03673 -2.291 0
M  V30 6641 H 632.622 4.1102 -2.82603 0
M  V30 6642 H 631.776 5.92165 -1.32004 0
M  V30 6643 H 630.515 4.82906 -0.682153 0
M  V30 6644 H 629.52 4.62184 -2.97768 0
M  V30 6645 H 630.745 5.7489 -3.61494 0
M  V30 6646 H 628.691 6.39416 -1.4657 0
M  V30 6647 H 628.608 6.8833 -3.12631 0
M  V30 6648 H 629.876 7.50352 -2.11169 0
M  V30 6649 N 634.105 1.10431 1.1244 0
M  V30 6650 C 635.038 0.696987 2.17296 0
M  V30 6651 C 636.016 -0.301673 1.59777 0
M  V30 6652 O 637.2 -0.200583 1.8743 0
M  V30 6653 C 634.327 0.0284094 3.38688 0
M  V30 6654 C 633.373 0.990536 4.14838 0
M  V30 6655 S 634.206 2.50785 4.73146 0
M  V30 6656 C 635.362 1.85198 5.97873 0
M  V30 6657 H 635.595 1.58523 2.51511 0
M  V30 6658 H 633.128 0.921312 1.239 0
M  V30 6659 H 635.086 -0.351009 4.08997 0
M  V30 6660 H 633.747 -0.836629 3.02753 0
M  V30 6661 H 632.94 0.469991 5.01804 0
M  V30 6662 H 632.542 1.31186 3.50237 0
M  V30 6663 H 634.834 1.18217 6.67106 0
M  V30 6664 H 635.777 2.7012 6.54554 0
M  V30 6665 H 636.185 1.31653 5.48933 0
M  V30 6666 N 635.583 -1.29855 0.893053 0
M  V30 6667 C 636.546 -2.26183 0.370687 0
M  V30 6668 C 637.546 -1.53108 -0.491385 0
M  V30 6669 O 638.736 -1.71643 -0.297386 0
M  V30 6670 C 635.868 -3.37633 -0.470827 0
M  V30 6671 H 637.061 -2.73903 1.22135 0
M  V30 6672 H 634.614 -1.41183 0.67061 0
M  V30 6673 H 635.349 -2.95241 -1.34175 0
M  V30 6674 H 635.134 -3.91825 0.146784 0
M  V30 6675 H 636.624 -4.09313 -0.827825 0
M  V30 6676 N 637.061 -0.65484 -1.43351 0
M  V30 6677 C 638.338 -0.0987371 -1.95351 0
M  V30 6678 C 638.718 1.38161 -1.59608 0
M  V30 6679 O 638.066 2.10791 -0.882021 0
M  V30 6680 C 638.276 -0.346684 -3.47274 0
M  V30 6681 C 639.624 -0.25249 -4.23849 0
M  V30 6682 O 640.648 -0.279332 -3.55103 0
M  V30 6683 O 639.507 -0.177584 -5.46211 0
M  V30 6684 H 636.601 0.0086829 -0.826954 0
M  V30 6685 H 639.147 -0.728189 -1.53282 0
M  V30 6686 H 637.919 -1.37296 -3.66423 0
M  V30 6687 H 637.542 0.315757 -3.96344 0
M  V30 6688 N 638.539 1.52521 -0.396863 0
M  V30 6689 C 639.469 2.29582 0.425941 0
M  V30 6690 C 640.45 1.33281 1.05689 0
M  V30 6691 O 641.635 1.62181 1.06823 0
M  V30 6692 C 638.765 3.10821 1.54943 0
M  V30 6693 C 637.719 4.15069 1.04413 0
M  V30 6694 C 637.045 4.84578 2.26028 0
M  V30 6695 C 638.345 5.22191 0.106767 0
M  V30 6696 H 640.039 2.98612 -0.217045 0
M  V30 6697 H 637.585 1.43611 -0.105826 0
M  V30 6698 H 639.538 3.63492 2.13193 0
M  V30 6699 H 638.262 2.39538 2.22011 0
M  V30 6700 H 636.921 3.63389 0.484118 0
M  V30 6701 H 636.569 4.09835 2.91623 0
M  V30 6702 H 636.269 5.55043 1.92876 0
M  V30 6703 H 637.793 5.40056 2.84906 0
M  V30 6704 H 639.207 5.70176 0.597685 0
M  V30 6705 H 637.604 5.99947 -0.135352 0
M  V30 6706 H 638.674 4.77531 -0.842134 0
M  V30 6707 N 640.017 0.126909 1.57088 0
M  V30 6708 C 641.433 -0.229641 1.57939 0
M  V30 6709 C 641.633 -1.66145 1.1401 0
M  V30 6710 O 640.689 -2.3843 0.831119 0
M  V30 6711 C 642.002 0.0108648 3.00698 0
M  V30 6712 C 643.55 -0.054418 3.12953 0
M  V30 6713 C 644.025 0.158497 4.57726 0
M  V30 6714 N 645.516 0.104735 4.63082 0
M  V30 6715 C 646.251 0.24427 5.72879 0
M  V30 6716 N 645.747 0.440415 6.91399 0
M  V30 6717 N 647.54 0.183286 5.61801 0
M  V30 6718 H 639.691 1.06203 1.83942 0
M  V30 6719 H 641.954 0.418834 0.85046 0
M  V30 6720 H 641.66 1.00102 3.37154 0
M  V30 6721 H 641.534 -0.717512 3.70313 0
M  V30 6722 H 643.921 -1.0351 2.7635 0
M  V30 6723 H 644.002 0.705967 2.45865 0
M  V30 6724 H 643.646 1.13619 4.95028 0
M  V30 6725 H 643.576 -0.62197 5.22914 0
M  V30 6726 H 646.067 -0.0430298 3.77876 0
M  V30 6727 H 646.38 0.537536 7.70928 0
M  V30 6728 H 644.725 0.476488 6.93365 0
M  V30 6729 H 647.916 0.0309561 4.6809 0
M  V30 6730 H 648.089 0.295471 6.47326 0
M  V30 6731 N 641.495 -1.56914 -0.146875 0
M  V30 6732 C 642.427 -1.94878 -1.20645 0
M  V30 6733 C 643.44 -0.844633 -1.39175 0
M  V30 6734 O 644.629 -1.12304 -1.38744 0
M  V30 6735 C 641.729 -2.20769 -2.57127 0
M  V30 6736 C 640.902 -3.52053 -2.59572 0
M  V30 6737 C 639.961 -3.66482 -3.77594 0
M  V30 6738 O 638.987 -4.38873 -3.62462 0
M  V30 6739 N 640.189 -3.03156 -4.95052 0
M  V30 6740 H 642.954 -2.86374 -0.883757 0
M  V30 6741 H 640.515 -1.58366 -0.336436 0
M  V30 6742 H 642.507 -2.27664 -3.34591 0
M  V30 6743 H 641.077 -1.35538 -2.81688 0
M  V30 6744 H 640.297 -3.56598 -1.68023 0
M  V30 6745 H 641.585 -4.38396 -2.58238 0
M  V30 6746 H 640.983 -2.44258 -5.10249 0
M  V30 6747 H 639.54 -3.15611 -5.70292 0
M  V30 6748 N 642.974 0.416227 -1.52004 0
M  V30 6749 C 643.904 1.51365 -1.77795 0
M  V30 6750 C 644.885 1.58059 -0.628601 0
M  V30 6751 O 646.07 1.73447 -0.873478 0
M  V30 6752 C 643.2 2.89256 -1.92219 0
M  V30 6753 C 642.154 2.97415 -3.0778 0
M  V30 6754 C 641.48 4.37492 -3.07417 0
M  V30 6755 C 642.78 2.69551 -4.47369 0
M  V30 6756 H 644.474 1.30033 -2.69688 0
M  V30 6757 H 642.02 0.624112 -1.29772 0
M  V30 6758 H 643.973 3.66008 -2.08845 0
M  V30 6759 H 642.697 3.11866 -0.969917 0
M  V30 6760 H 641.356 2.23107 -2.90893 0
M  V30 6761 H 641.004 4.571 -2.09925 0
M  V30 6762 H 640.704 4.43877 -3.85029 0
M  V30 6763 H 642.228 5.16188 -3.26162 0
M  V30 6764 H 643.642 3.36028 -4.64497 0
M  V30 6765 H 642.039 2.87321 -5.26846 0
M  V30 6766 H 643.109 1.65029 -4.55953 0
M  V30 6767 N 644.452 1.42507 0.673017 0
M  V30 6768 C 645.698 1.43284 1.43519 0
M  V30 6769 C 646.031 0.049668 1.94136 0
M  V30 6770 O 645.306 -0.926369 1.71022 0
M  V30 6771 C 645.589 2.45874 2.63093 0
M  V30 6772 C 645.442 3.93388 2.18096 0
M  V30 6773 C 646.761 2.45431 3.6531 0
M  V30 6774 H 643.88 0.521752 0.520522 0
M  V30 6775 H 646.522 1.73932 0.764701 0
M  V30 6776 H 644.672 2.19869 3.20296 0
M  V30 6777 H 646.344 4.30379 1.66046 0
M  V30 6778 H 644.587 4.07169 1.49652 0
M  V30 6779 H 645.258 4.60752 3.03993 0
M  V30 6780 H 647.734 2.68561 3.17827 0
M  V30 6781 H 646.61 3.19189 4.46553 0
M  V30 6782 H 646.871 1.48092 4.16559 0
M  V30 6783 N 645.93 -0.909495 1.28709 0
M  V30 6784 C 647.158 -1.69272 1.18973 0
M  V30 6785 C 647.573 -1.87123 -0.251048 0
M  V30 6786 O 646.93 -1.40127 -1.16922 0
M  V30 6787 C 646.981 -3.08257 1.88839 0
M  V30 6788 O 646.702 -2.91228 3.27289 0
M  V30 6789 C 648.203 -4.02642 1.85457 0
M  V30 6790 H 645.423 -0.528999 0.412797 0
M  V30 6791 H 647.967 -1.13803 1.69909 0
M  V30 6792 H 646.122 -3.6053 1.41762 0
M  V30 6793 H 646.536 -3.79223 3.6234 0
M  V30 6794 H 648.01 -4.97613 2.38925 0
M  V30 6795 H 648.487 -4.31327 0.827893 0
M  V30 6796 H 649.093 -3.56298 2.32233 0
M  V30 6797 N 647.408 -1.11026 -1.11852 0
M  V30 6798 C 648.318 -0.777252 -2.2135 0
M  V30 6799 C 649.334 0.227821 -1.72502 0
M  V30 6800 O 650.51 0.0650587 -2.01295 0
M  V30 6801 C 647.575 -0.220668 -3.45997 0
M  V30 6802 C 646.636 -1.2838 -4.09655 0
M  V30 6803 C 645.869 -0.753678 -5.28352 0
M  V30 6804 O 646.092 0.417779 -5.68868 0
M  V30 6805 O 645.026 -1.51647 -5.82483 0
M  V30 6806 H 648.852 -1.69141 -2.5224 0
M  V30 6807 H 646.437 -0.885836 -1.20305 0
M  V30 6808 H 648.319 0.0855756 -4.21313 0
M  V30 6809 H 646.994 0.666262 -3.16769 0
M  V30 6810 H 645.901 -1.64299 -3.3609 0
M  V30 6811 H 647.234 -2.14396 -4.43052 0
M  V30 6812 N 648.886 1.2938 -0.899927 0
M  V30 6813 C 649.836 2.25311 -0.349165 0
M  V30 6814 C 650.82 1.51889 0.530892 0
M  V30 6815 O 652.012 1.73028 0.372872 0
M  V30 6816 C 649.141 3.40696 0.422055 0
M  V30 6817 C 648.227 4.21455 -0.472935 0
M  V30 6818 N 648.618 4.8048 -1.58026 0
M  V30 6819 C 646.916 4.45177 -0.270767 0
M  V30 6820 C 647.617 5.41117 -2.13465 0
M  V30 6821 N 646.593 5.24518 -1.42766 0
M  V30 6822 H 650.395 2.68507 -1.19505 0
M  V30 6823 H 647.909 1.43992 -0.751006 0
M  V30 6824 H 649.906 4.08486 0.833369 0
M  V30 6825 H 648.566 2.99037 1.2652 0
M  V30 6826 H 649.577 4.79257 -1.96299 0
M  V30 6827 H 646.254 4.14071 0.533988 0
M  V30 6828 H 647.644 5.979 -3.06537 0
M  V30 6829 N 650.364 0.662433 1.43002 0
M  V30 6830 C 651.327 -0.0142016 2.29196 0
M  V30 6831 C 652.327 -0.741394 1.42688 0
M  V30 6832 O 653.517 -0.581257 1.64216 0
M  V30 6833 C 650.649 -1.03084 3.24941 0
M  V30 6834 H 651.842 0.7443 2.90517 0
M  V30 6835 H 649.395 0.424133 1.50435 0
M  V30 6836 H 650.13 -1.81826 2.68533 0
M  V30 6837 H 649.915 -0.512946 3.8873 0
M  V30 6838 H 651.405 -1.50308 3.89612 0
M  V30 6839 N 651.842 -1.52309 0.404946 0
M  V30 6840 C 652.774 -2.24579 -0.45791 0
M  V30 6841 C 653.787 -1.2739 -1.01369 0
M  V30 6842 O 654.976 -1.53363 -0.91335 0
M  V30 6843 C 652.076 -2.9608 -1.64893 0
M  V30 6844 C 651.249 -4.20106 -1.21777 0
M  V30 6845 C 650.308 -4.74468 -2.27523 0
M  V30 6846 O 649.334 -5.37157 -1.88285 0
M  V30 6847 N 650.536 -4.55678 -3.59635 0
M  V30 6848 H 653.301 -2.99265 0.161341 0
M  V30 6849 H 650.862 -1.60228 0.232107 0
M  V30 6850 H 652.854 -3.29344 -2.35191 0
M  V30 6851 H 651.424 -2.24606 -2.17419 0
M  V30 6852 H 650.644 -3.92704 -0.343071 0
M  V30 6853 H 651.932 -5.00658 -0.906596 0
M  V30 6854 H 651.33 -4.05673 -3.94266 0
M  V30 6855 H 649.887 -4.9339 -4.25922 0
M  V30 6856 N 653.32 -0.135238 -1.57019 0
M  V30 6857 C 654.25 0.805235 -2.19176 0
M  V30 6858 C 655.231 1.2656 -1.13651 0
M  V30 6859 O 656.416 1.32528 -1.4195 0
M  V30 6860 C 653.546 2.04914 -2.80406 0
M  V30 6861 C 652.5 1.72598 -3.91655 0
M  V30 6862 C 651.826 3.04154 -4.39766 0
M  V30 6863 C 653.126 0.981709 -5.12991 0
M  V30 6864 H 654.82 0.287232 -2.98019 0
M  V30 6865 H 652.366 0.136714 -1.4335 0
M  V30 6866 H 654.319 2.71178 -3.22553 0
M  V30 6867 H 653.043 2.59067 -1.98877 0
M  V30 6868 H 651.702 1.08717 -3.50109 0
M  V30 6869 H 651.35 3.56274 -3.55075 0
M  V30 6870 H 651.05 2.83299 -5.14796 0
M  V30 6871 H 652.574 3.71509 -4.84576 0
M  V30 6872 H 653.988 1.5462 -5.52056 0
M  V30 6873 H 652.385 0.873533 -5.93708 0
M  V30 6874 H 653.455 -0.0286887 -4.84892 0
M  V30 6875 N 654.798 1.5699 0.138552 0
M  V30 6876 C 656.044 1.84081 0.85099 0
M  V30 6877 C 656.377 0.718107 1.80435 0
M  V30 6878 O 655.652 -0.277633 1.92508 0
M  V30 6879 C 655.935 3.21699 1.61808 0
M  V30 6880 C 655.788 4.44544 0.685633 0
M  V30 6881 C 657.107 3.5664 2.57868 0
M  V30 6882 H 654.226 0.669592 0.307922 0
M  V30 6883 H 656.868 1.89646 0.11588 0
M  V30 6884 H 655.018 3.17086 2.24474 0
M  V30 6885 H 656.69 4.61248 0.0693179 0
M  V30 6886 H 654.933 4.338 -0.00421993 0
M  V30 6887 H 655.604 5.3746 1.25858 0
M  V30 6888 H 658.08 3.61918 2.05316 0
M  V30 6889 H 656.956 4.53946 3.08584 0
M  V30 6890 H 657.217 2.83036 3.39622 0
M  V30 6891 N 656.276 -0.40816 1.52223 0
M  V30 6892 C 657.208 -1.51642 1.71864 0
M  V30 6893 C 658.221 -1.51378 0.599056 0
M  V30 6894 O 659.41 -1.55626 0.874239 0
M  V30 6895 C 656.51 -2.90534 1.74481 0
M  V30 6896 C 655.683 -3.14979 3.03491 0
M  V30 6897 C 654.742 -4.33749 2.97907 0
M  V30 6898 O 653.768 -4.30982 3.71811 0
M  V30 6899 N 654.97 -5.38912 2.15764 0
M  V30 6900 H 657.735 -1.35188 2.67478 0
M  V30 6901 H 655.296 -0.597468 1.50472 0
M  V30 6902 H 657.288 -3.68056 1.68275 0
M  V30 6903 H 655.858 -3.00441 0.863363 0
M  V30 6904 H 655.078 -2.25492 3.23337 0
M  V30 6905 H 656.366 -3.28156 3.88833 0
M  V30 6906 H 655.764 -5.44008 1.55152 0
M  V30 6907 H 654.321 -6.15174 2.15415 0
M  V30 6908 N 657.755 -1.42862 -0.66545 0
M  V30 6909 C 659.004 -1.43119 -1.42126 0
M  V30 6910 C 659.317 -0.0545297 -1.95524 0
M  V30 6911 O 660.523 0.0654747 -2.71421 0
M  V30 6912 C 658.979 -2.51797 -2.5715 0
M  V30 6913 C 658.587 -3.95514 -2.10411 0
M  V30 6914 C 660.331 -2.61233 -3.346 0
M  V30 6915 C 658.238 -4.95682 -3.22573 0
M  V30 6916 H 657.168 -0.532349 -0.533966 0
M  V30 6917 H 659.819 -1.68806 -0.719506 0
M  V30 6918 H 658.201 -2.19292 -3.29738 0
M  V30 6919 H 659.375 -4.3742 -1.44915 0
M  V30 6920 H 657.69 -3.90012 -1.45874 0
M  V30 6921 H 660.287 -3.33248 -4.18151 0
M  V30 6922 H 660.63 -1.65896 -3.81817 0
M  V30 6923 H 661.163 -2.9298 -2.69087 0
M  V30 6924 H 657.902 -5.92529 -2.80338 0
M  V30 6925 H 657.422 -4.58399 -3.86821 0
M  V30 6926 H 659.101 -5.17828 -3.87896 0
M  V30 6927 N 659.233 0.902656 -1.29189 0
M  V30 6928 C 660.482 1.6475 -1.16362 0
M  V30 6929 C 660.795 1.93517 0.284682 0
M  V30 6930 O 662.001 2.66192 0.534229 0
M  V30 6931 C 660.457 2.96848 -2.03493 0
M  V30 6932 C 660.065 2.75687 -3.5313 0
M  V30 6933 C 661.809 3.74762 -1.99383 0
M  V30 6934 C 659.716 4.03492 -4.32375 0
M  V30 6935 H 658.646 0.618041 -0.431904 0
M  V30 6936 H 661.297 1.0008 -1.53806 0
M  V30 6937 H 659.679 3.62715 -1.58916 0
M  V30 6938 H 660.853 2.18431 -4.05739 0
M  V30 6939 H 659.168 2.11171 -3.58881 0
M  V30 6940 H 661.765 4.69515 -2.5585 0
M  V30 6941 H 662.108 4.04767 -0.973123 0
M  V30 6942 H 662.641 3.15732 -2.41988 0
M  V30 6943 H 659.38 3.78656 -5.3507 0
M  V30 6944 H 658.9 4.60318 -3.84535 0
M  V30 6945 H 660.579 4.71662 -4.42881 0
M  V30 6946 N 660.711 1.11618 1.11262 0
M  V30 6947 C 661.658 0.7762 2.17356 0
M  V30 6948 C 662.628 -0.253152 1.6416 0
M  V30 6949 O 663.813 -0.129655 1.90359 0
M  V30 6950 C 660.953 0.227581 3.44349 0
M  V30 6951 C 660.066 1.31372 4.1154 0
M  V30 6952 C 659.201 0.72544 5.26223 0
M  V30 6953 C 658.24 1.7913 5.85302 0
M  V30 6954 N 657.377 1.22237 6.91377 0
M  V30 6955 H 662.217 1.68508 2.45783 0
M  V30 6956 H 659.754 0.841475 1.20655 0
M  V30 6957 H 661.712 -0.108483 4.17059 0
M  V30 6958 H 660.342 -0.644486 3.16301 0
M  V30 6959 H 659.394 1.7667 3.36885 0
M  V30 6960 H 660.706 2.12005 4.51504 0
M  V30 6961 H 659.86 0.339541 6.05749 0
M  V30 6962 H 658.599 -0.112188 4.87571 0
M  V30 6963 H 657.604 2.18648 5.04453 0
M  V30 6964 H 658.829 2.63199 6.26022 0
M  V30 6965 H 656.775 0.406423 6.5474 0
M  V30 6966 H 656.692 1.9654 7.30006 0
M  V30 6967 H 657.96 0.863426 7.74703 0
M  V30 6968 N 662.189 -1.289 0.906776 0
M  V30 6969 C 663.136 -2.2751 0.388313 0
M  V30 6970 C 664.106 -1.57301 -0.533439 0
M  V30 6971 O 665.291 -1.85243 -0.457148 0
M  V30 6972 C 662.431 -3.43091 -0.37181 0
M  V30 6973 C 661.544 -4.28066 0.581647 0
M  V30 6974 C 660.679 -5.30837 -0.19623 0
M  V30 6975 C 659.718 -6.07472 0.751294 0
M  V30 6976 N 658.855 -7.021 0.00737727 0
M  V30 6977 H 663.695 -2.71237 1.23428 0
M  V30 6978 H 661.232 -1.33397 0.619962 0
M  V30 6979 H 663.19 -4.08888 -0.828641 0
M  V30 6980 H 661.82 -3.00374 -1.18218 0
M  V30 6981 H 660.872 -3.62378 1.157 0
M  V30 6982 H 662.184 -4.81382 1.30665 0
M  V30 6983 H 661.338 -6.02485 -0.71394 0
M  V30 6984 H 660.077 -4.78272 -0.954324 0
M  V30 6985 H 659.082 -5.34682 1.28044 0
M  V30 6986 H 660.307 -6.62126 1.50883 0
M  V30 6987 H 658.253 -6.51894 -0.732854 0
M  V30 6988 H 658.17 -7.53004 0.672334 0
M  V30 6989 H 659.438 -7.77956 -0.490365 0
M  V30 6990 N 663.667 -0.670007 -1.42649 0
M  V30 6991 C 664.895 -0.19854 -2.05945 0
M  V30 6992 C 665.31 1.14243 -1.50313 0
M  V30 6993 O 664.667 1.70872 -0.641027 0
M  V30 6994 C 664.718 -0.11966 -3.61302 0
M  V30 6995 O 664.439 -1.40764 -4.1487 0
M  V30 6996 C 665.94 0.375878 -4.41704 0
M  V30 6997 H 663.16 -0.0976894 -0.663851 0
M  V30 6998 H 665.704 -0.915392 -1.82868 0
M  V30 6999 H 663.859 0.547851 -3.83507 0
M  V30 7000 H 664.273 -1.27784 -5.08696 0
M  V30 7001 H 665.747 0.379988 -5.50691 0
M  V30 7002 H 666.224 1.41028 -4.15942 0
M  V30 7003 H 666.83 -0.259727 -4.24506 0
M  V30 7004 N 665.145 1.52092 -0.413018 0
M  V30 7005 C 666.055 2.30858 0.417318 0
M  V30 7006 C 667.071 1.38746 1.05003 0
M  V30 7007 O 668.247 1.71821 1.05069 0
M  V30 7008 C 665.312 3.11756 1.51687 0
M  V30 7009 C 664.373 4.19613 0.906825 0
M  V30 7010 C 663.606 4.96644 1.95399 0
M  V30 7011 O 663.829 4.7402 3.17271 0
M  V30 7012 O 662.763 5.81385 1.55805 0
M  V30 7013 H 666.589 3.02865 -0.225028 0
M  V30 7014 H 664.174 1.48358 -0.176126 0
M  V30 7015 H 666.056 3.62122 2.15512 0
M  V30 7016 H 664.731 2.42539 2.14375 0
M  V30 7017 H 663.638 3.73385 0.231183 0
M  V30 7018 H 664.971 4.91134 0.323814 0
M  V30 7019 N 666.623 0.143563 1.56945 0
M  V30 7020 C 667.848 -0.518701 2.00809 0
M  V30 7021 C 668.273 -1.5785 1.02298 0
M  V30 7022 O 667.631 -1.813 -0.0017839 0
M  V30 7023 C 667.679 -1.09929 3.43436 0
M  V30 7024 O 666.783 -2.21425 3.47915 0
M  V30 7025 H 666.124 -0.127215 0.6517 0
M  V30 7026 H 668.654 0.239283 2.03196 0
M  V30 7027 H 668.664 -1.4288 3.82164 0
M  V30 7028 H 667.339 -0.323162 4.14643 0
M  V30 7029 H 665.916 -1.89728 3.21026 0
M  V30 7030 N 668.101 -1.57061 -0.130224 0
M  V30 7031 C 669.378 -1.75205 -0.869631 0
M  V30 7032 C 669.758 -0.716063 -1.98584 0
M  V30 7033 O 669.106 0.262032 -2.26993 0
M  V30 7034 C 669.316 -3.19835 -1.39666 0
M  V30 7035 C 670.664 -3.82011 -1.85345 0
M  V30 7036 O 671.688 -3.23368 -1.49371 0
M  V30 7037 O 670.547 -4.85064 -2.51744 0
M  V30 7038 H 667.641 -0.716977 -0.412157 0
M  V30 7039 H 670.187 -1.69311 -0.11484 0
M  V30 7040 H 668.959 -3.86745 -0.595288 0
M  V30 7041 H 668.582 -3.30222 -2.21448 0
M  V30 7042 N 669.579 0.400081 -1.52437 0
M  V30 7043 C 670.542 1.4707 -1.75793 0
M  V30 7044 C 671.542 1.48036 -0.627856 0
M  V30 7045 O 672.732 1.49401 -0.895817 0
M  V30 7046 C 669.864 2.86427 -1.84858 0
M  V30 7047 H 671.057 1.27649 -2.71377 0
M  V30 7048 H 668.61 0.631141 -1.42991 0
M  V30 7049 H 669.345 3.11207 -0.912194 0
M  V30 7050 H 669.13 2.87128 -2.6702 0
M  V30 7051 H 670.62 3.64023 -2.04638 0
M  V30 7052 N 671.057 1.43213 0.657864 0
M  V30 7053 C 672.02 1.47687 1.75275 0
M  V30 7054 C 673.02 0.362179 1.56668 0
M  V30 7055 O 674.21 0.623734 1.62651 0
M  V30 7056 C 671.342 1.32497 3.14098 0
M  V30 7057 H 672.535 2.4519 1.7269 0
M  V30 7058 H 670.088 1.2991 0.869087 0
M  V30 7059 H 670.823 0.359831 3.22298 0
M  V30 7060 H 670.608 2.13299 3.29008 0
M  V30 7061 H 672.098 1.38549 3.93946 0
M  V30 7062 N 672.536 -0.895792 1.29666 0
M  V30 7063 C 673.466 -2.01673 1.17688 0
M  V30 7064 C 674.447 -1.69955 0.0701317 0
M  V30 7065 O 675.632 -1.9258 0.250289 0
M  V30 7066 C 672.762 -3.36568 0.856681 0
M  V30 7067 C 671.716 -3.82509 1.92017 0
M  V30 7068 C 671.042 -5.14574 1.4532 0
M  V30 7069 C 672.342 -4.02409 3.32963 0
M  V30 7070 H 674.036 -2.11953 2.11463 0
M  V30 7071 H 671.582 -1.01839 1.01807 0
M  V30 7072 H 673.535 -4.14498 0.759577 0
M  V30 7073 H 672.259 -3.26391 -0.116763 0
M  V30 7074 H 670.918 -3.068 2.00673 0
M  V30 7075 H 670.566 -5.00815 0.468325 0
M  V30 7076 H 670.266 -5.46283 2.16447 0
M  V30 7077 H 671.79 -5.9504 1.36968 0
M  V30 7078 H 673.204 -4.70808 3.27127 0
M  V30 7079 H 671.601 -4.45478 4.02082 0
M  V30 7080 H 672.671 -3.06616 3.75652 0
M  V30 7081 N 674.014 -1.12206 -1.10668 0
M  V30 7082 C 674.964 -0.75669 -2.15077 0
M  V30 7083 C 675.948 0.243154 -1.59052 0
M  V30 7084 O 677.14 0.0490268 -1.76932 0
M  V30 7085 C 674.269 -0.210303 -3.42655 0
M  V30 7086 C 673.355 -1.23829 -4.05619 0
M  V30 7087 N 673.746 -2.43513 -4.43323 0
M  V30 7088 C 672.044 -1.08309 -4.32649 0
M  V30 7089 C 672.745 -3.09138 -4.92756 0
M  V30 7090 N 671.721 -2.36593 -4.89413 0
M  V30 7091 H 675.523 -1.66747 -2.42018 0
M  V30 7092 H 673.037 -1.00248 -1.27765 0
M  V30 7093 H 675.034 0.0696287 -4.16842 0
M  V30 7094 H 673.694 0.694967 -3.17176 0
M  V30 7095 H 674.705 -2.80912 -4.35097 0
M  V30 7096 H 671.382 -0.234919 -4.16839 0
M  V30 7097 H 672.772 -4.11049 -5.31496 0
M  V30 7098 N 675.492 1.28418 -0.913599 0
M  V30 7099 C 676.903 1.77024 -0.593237 0
M  V30 7100 C 677.254 1.74779 0.891441 0
M  V30 7101 O 676.379 1.34237 1.69733 0
M  V30 7102 C 676.974 3.21456 -1.07011 0
M  V30 7103 C 675.533 3.67786 -0.800664 0
M  V30 7104 C 674.68 2.48185 -1.23691 0
M  V30 7105 H 677.631 1.14883 -1.09487 0
M  V30 7106 H 677.652 3.78269 -0.411481 0
M  V30 7107 H 677.164 3.23058 -2.1507 0
M  V30 7108 H 675.265 3.71644 0.266725 0
M  V30 7109 H 675.378 4.57934 -1.4083 0
M  V30 7110 H 673.742 2.46116 -0.655655 0
M  V30 7111 H 674.525 2.52506 -2.32585 0
M  V30 7112 N 676.97 0.677563 1.42291 0
M  V30 7113 C 677.9 0.014968 2.33495 0
M  V30 7114 C 678.881 -0.786376 1.50831 0
M  V30 7115 O 680.066 -0.742975 1.79426 0
M  V30 7116 C 677.196 -0.935023 3.34477 0
M  V30 7117 C 676.15 -0.242074 4.27315 0
M  V30 7118 C 675.476 -1.30519 5.18526 0
M  V30 7119 C 676.776 0.880604 5.14823 0
M  V30 7120 H 678.47 0.776671 2.89151 0
M  V30 7121 H 676.016 0.37494 1.39033 0
M  V30 7122 H 677.969 -1.40766 3.97194 0
M  V30 7123 H 676.693 -1.72818 2.77131 0
M  V30 7124 H 675.352 0.210351 3.65996 0
M  V30 7125 H 675 -2.09041 4.57505 0
M  V30 7126 H 674.7 -0.846652 5.81468 0
M  V30 7127 H 676.224 -1.7787 5.84119 0
M  V30 7128 H 677.638 0.489062 5.7121 0
M  V30 7129 H 676.035 1.26511 5.86613 0
M  V30 7130 H 677.105 1.72818 4.53059 0
M  V30 7131 N 678.448 -1.51871 0.421078 0
M  V30 7132 C 679.378 -2.30231 -0.389363 0
M  V30 7133 C 680.359 -1.34946 -1.03555 0
M  V30 7134 O 681.544 -1.63859 -1.04229 0
M  V30 7135 C 678.674 -3.13247 -1.49979 0
M  V30 7136 C 677.628 -4.16677 -0.977966 0
M  V30 7137 C 676.954 -4.88112 -2.1829 0
M  V30 7138 C 678.254 -5.22295 -0.0236775 0
M  V30 7139 H 679.948 -2.98229 0.264524 0
M  V30 7140 H 677.494 -1.43424 0.12866 0
M  V30 7141 H 679.447 -3.66838 -2.07383 0
M  V30 7142 H 678.171 -2.4304 -2.18173 0
M  V30 7143 H 676.83 -3.64114 -0.426245 0
M  V30 7144 H 676.478 -4.14423 -2.85066 0
M  V30 7145 H 676.178 -5.58041 -1.84021 0
M  V30 7146 H 677.702 -5.44521 -2.76278 0
M  V30 7147 H 679.116 -5.71055 -0.506899 0
M  V30 7148 H 677.513 -5.99656 0.230782 0
M  V30 7149 H 678.583 -4.76131 0.917999 0
M  V30 7150 N 679.926 -0.151884 -1.56866 0
M  V30 7151 C 680.858 0.817008 -2.14144 0
M  V30 7152 C 681.871 1.20735 -1.0921 0
M  V30 7153 O 683.06 1.15058 -1.36469 0
M  V30 7154 C 680.16 2.10844 -2.65326 0
M  V30 7155 C 679.333 1.88471 -3.94712 0
M  V30 7156 C 678.392 3.01649 -4.31155 0
M  V30 7157 O 677.418 2.73127 -4.9939 0
M  V30 7158 N 678.62 4.28947 -3.91132 0
M  V30 7159 H 681.385 0.327448 -2.97906 0
M  V30 7160 H 678.946 0.0315313 -1.61869 0
M  V30 7161 H 680.938 2.85616 -2.86715 0
M  V30 7162 H 679.508 2.51049 -1.86262 0
M  V30 7163 H 678.728 0.977088 -3.81899 0
M  V30 7164 H 680.016 1.70866 -4.79252 0
M  V30 7165 H 679.414 4.54986 -3.36161 0
M  V30 7166 H 677.971 5.00484 -4.17563 0
M  V30 7167 N 681.404 1.57128 0.121893 0
M  V30 7168 C 682.314 2.03425 1.16857 0
M  V30 7169 C 683.33 0.954108 1.45509 0
M  V30 7170 O 684.506 1.26541 1.56682 0
M  V30 7171 C 681.571 2.42685 2.47599 0
M  V30 7172 C 680.632 3.64767 2.2637 0
M  V30 7173 C 679.865 4.02145 3.50878 0
M  V30 7174 O 680.088 3.39897 4.58068 0
M  V30 7175 O 679.022 4.95262 3.42051 0
M  V30 7176 H 682.848 2.92825 0.80544 0
M  V30 7177 H 680.433 1.45654 0.332477 0
M  V30 7178 H 682.315 2.68684 3.24634 0
M  V30 7179 H 680.99 1.56432 2.83392 0
M  V30 7180 H 679.897 3.43922 1.47203 0
M  V30 7181 H 681.23 4.51716 1.95482 0
M  V30 7182 N 682.882 -0.391992 1.52647 0
M  V30 7183 C 684.131 -1.13449 1.6677 0
M  V30 7184 C 684.444 -1.91203 0.412399 0
M  V30 7185 O 685.65 -2.68013 0.433707 0
M  V30 7186 C 684.106 -2.06577 2.9471 0
M  V30 7187 C 683.714 -1.3426 4.27409 0
M  V30 7188 C 685.458 -2.80981 3.18198 0
M  V30 7189 C 683.365 -2.26136 5.46458 0
M  V30 7190 H 682.295 -0.427211 0.621295 0
M  V30 7191 H 684.946 -0.397522 1.79142 0
M  V30 7192 H 683.328 -2.83898 2.76076 0
M  V30 7193 H 684.502 -0.621856 4.56585 0
M  V30 7194 H 682.817 -0.718279 4.10158 0
M  V30 7195 H 685.414 -3.49898 4.04321 0
M  V30 7196 H 685.757 -3.44891 2.33144 0
M  V30 7197 H 686.29 -2.10754 3.37383 0
M  V30 7198 H 683.029 -1.66846 6.33911 0
M  V30 7199 H 682.549 -2.96134 5.21598 0
M  V30 7200 H 684.228 -2.86286 5.80215 0
M  V30 7201 N 684.36 -1.4356 -0.65026 0
M  V30 7202 C 685.59 -1.48563 -1.4357 0
M  V30 7203 C 685.998 -0.103041 -1.88919 0
M  V30 7204 O 685.341 0.897602 -1.60277 0
M  V30 7205 C 685.403 -2.37181 -2.70158 0
M  V30 7206 C 685.067 -3.84673 -2.4673 0
M  V30 7207 C 686.064 -4.75704 -2.09765 0
M  V30 7208 C 683.749 -4.29189 -2.60963 0
M  V30 7209 C 685.743 -6.09249 -1.87334 0
M  V30 7210 C 683.43 -5.62787 -2.38147 0
M  V30 7211 C 684.428 -6.52634 -2.01389 0
M  V30 7212 O 684.116 -7.83761 -1.78813 0
M  V30 7213 H 683.848 -0.506743 -0.447423 0
M  V30 7214 H 686.402 -1.89001 -0.80423 0
M  V30 7215 H 684.632 -1.91636 -3.35876 0
M  V30 7216 H 686.321 -2.33354 -3.32116 0
M  V30 7217 H 687.087 -4.42589 -1.98343 0
M  V30 7218 H 682.966 -3.59529 -2.88548 0
M  V30 7219 H 686.51 -6.7934 -1.58567 0
M  V30 7220 H 682.407 -5.95469 -2.49173 0
M  V30 7221 H 683.175 -7.95368 -1.93214 0
M  V30 7222 N 685.838 0.888903 -1.30139 0
M  V30 7223 C 687.254 1.17153 -1.08385 0
M  V30 7224 C 687.454 2.0088 0.157925 0
M  V30 7225 O 686.51 2.37668 0.852652 0
M  V30 7226 C 687.823 1.882 -2.34523 0
M  V30 7227 C 689.371 2.00981 -2.39949 0
M  V30 7228 C 689.846 2.75441 -3.65918 0
M  V30 7229 N 691.337 2.82989 -3.66704 0
M  V30 7230 C 692.072 3.41167 -4.60861 0
M  V30 7231 N 691.568 4.00425 -5.6536 0
M  V30 7232 N 693.361 3.38944 -4.48412 0
M  V30 7233 H 685.512 0.33053 -2.09812 0
M  V30 7234 H 687.775 0.208964 -0.924683 0
M  V30 7235 H 687.481 1.34119 -3.25123 0
M  V30 7236 H 687.355 2.88609 -2.42868 0
M  V30 7237 H 689.742 2.54234 -1.4983 0
M  V30 7238 H 689.823 0.996725 -2.35582 0
M  V30 7239 H 689.467 2.22861 -4.56394 0
M  V30 7240 H 689.397 3.77118 -3.67546 0
M  V30 7241 H 691.888 2.40912 -2.91153 0
M  V30 7242 H 692.201 4.42871 -6.33313 0
M  V30 7243 H 690.546 3.98856 -5.69157 0
M  V30 7244 H 693.737 2.91875 -3.6596 0
M  V30 7245 H 693.91 3.83989 -5.21974 0
M  V30 7246 N 687.317 1.12792 1.10072 0
M  V30 7247 C 688.594 0.796867 1.78632 0
M  V30 7248 C 688.974 -0.712739 1.98704 0
M  V30 7249 O 688.322 -1.64773 1.5831 0
M  V30 7250 C 688.532 1.57622 3.11378 0
M  V30 7251 C 689.88 1.76463 3.86194 0
M  V30 7252 O 690.904 1.54165 3.2111 0
M  V30 7253 O 689.763 2.13623 5.03018 0
M  V30 7254 H 686.857 0.290248 0.774394 0
M  V30 7255 H 689.403 1.23215 1.16688 0
M  V30 7256 H 688.175 2.60246 2.92212 0
M  V30 7257 H 687.798 1.13543 3.81043 0
M  V30 7258 N 688.795 -1.27931 0.920396 0
M  V30 7259 C 689.728 -2.2537 0.358285 0
M  V30 7260 C 690.706 -1.53328 -0.541242 0
M  V30 7261 O 691.89 -1.82196 -0.483399 0
M  V30 7262 C 689.017 -3.35178 -0.487193 0
M  V30 7263 C 688.063 -4.25079 0.347881 0
M  V30 7264 S 688.896 -5.05792 1.75883 0
M  V30 7265 C 690.052 -6.19089 0.920832 0
M  V30 7266 H 690.285 -2.72701 1.18413 0
M  V30 7267 H 687.818 -1.36474 0.722088 0
M  V30 7268 H 689.776 -3.98895 -0.96916 0
M  V30 7269 H 688.437 -2.865 -1.28749 0
M  V30 7270 H 687.63 -5.03113 -0.298912 0
M  V30 7271 H 687.232 -3.66119 0.763748 0
M  V30 7272 H 689.524 -6.77326 0.15349 0
M  V30 7273 H 690.467 -6.8803 1.67394 0
M  V30 7274 H 690.875 -5.62573 0.466069 0
M  V30 7275 N 690.273 -0.685099 -1.4193 0
M  V30 7276 C 691.503 -0.220052 -2.05425 0
M  V30 7277 C 691.911 1.13185 -1.51611 0
M  V30 7278 O 691.254 1.71631 -0.654875 0
M  V30 7279 C 691.316 -0.0888364 -3.5939 0
M  V30 7280 C 690.98 -1.37109 -4.35947 0
M  V30 7281 C 691.977 -2.30675 -4.65924 0
M  V30 7282 C 689.662 -1.62155 -4.75406 0
M  V30 7283 C 691.656 -3.47556 -5.34306 0
M  V30 7284 C 689.343 -2.79324 -5.43527 0
M  V30 7285 C 690.341 -3.71848 -5.72903 0
M  V30 7286 O 690.029 -4.86966 -6.39624 0
M  V30 7287 H 689.761 -0.102165 -0.668235 0
M  V30 7288 H 692.315 -0.935194 -1.82875 0
M  V30 7289 H 690.545 0.681981 -3.80639 0
M  V30 7290 H 692.234 0.337669 -4.04493 0
M  V30 7291 H 693 -2.12579 -4.3593 0
M  V30 7292 H 688.879 -0.910053 -4.51928 0
M  V30 7293 H 692.423 -4.19794 -5.57153 0
M  V30 7294 H 688.32 -2.97342 -5.72938 0
M  V30 7295 H 689.088 -4.86644 -6.58118 0
M  V30 7296 O 691.79 1.51061 -0.571204 0
M  V30 7297 H 692.481 1.93564 -0.0726397 0
M  V30 END ATOM
M  V30 BEGIN BOND
M  V30 END BOND
M  V30 END CTAB
M  END
$$$$
